EQI.pdb
     RDKit          3D

 27 26  0  0  1  0  0  0  0  0999 V2000
    8.7081  -13.8441   18.2806 N   0  0  0  0  0  0  0  0  0  0  0  0
    9.1441  -14.9398   19.0975 C   0  0  1  0  0  0  0  0  0  0  0  0
   10.6116  -15.0485   19.2791 C   0  0  0  0  0  0  0  0  0  0  0  0
   11.2911  -13.7965   19.7383 C   0  0  0  0  0  0  0  0  0  0  0  0
   12.7461  -13.8808   19.8347 C   0  0  0  0  0  0  0  0  0  0  0  0
   13.3217  -14.6018   20.6582 O   0  0  0  0  0  0  0  0  0  0  0  0
    8.4357  -14.9150   20.4373 C   0  0  0  0  0  0  0  0  0  0  0  0
    8.2118  -13.7924   20.9377 O   0  0  0  0  0  0  0  0  0  0  0  0
   13.5279  -13.1128   18.9599 O   0  0  0  0  0  0  0  0  0  0  0  0
    5.2152  -19.3986   23.5992 N   0  0  0  0  0  0  0  0  0  0  0  0
    6.5717  -19.7315   23.3096 C   0  0  0  0  0  0  0  0  0  0  0  0
    7.0087  -20.8553   23.5904 O   0  0  0  0  0  0  0  0  0  0  0  0
    7.3767  -18.6316   22.6558 C   0  0  0  0  0  0  0  0  0  0  0  0
    6.5646  -17.3828   22.6233 C   0  0  0  0  0  0  0  0  0  0  0  0
    7.4332  -16.1902   22.3486 C   0  0  2  0  0  0  0  0  0  0  0  0
    8.0561  -16.1240   21.0643 N   0  0  0  0  0  0  0  0  0  0  0  0
    8.3207  -15.8145   23.4795 C   0  0  0  0  0  0  0  0  0  0  0  0
    9.5019  -16.1726   23.3671 O   0  0  0  0  0  0  0  0  0  0  0  0
    6.5262  -11.3475   25.9725 C   0  0  0  0  0  0  0  0  0  0  0  0
    7.3631  -12.4768   25.4292 C   0  0  0  0  0  0  0  0  0  0  0  0
    7.6387  -13.5602   26.4658 C   0  0  2  0  0  0  0  0  0  0  0  0
    8.5000  -13.0534   27.5808 C   0  0  0  0  0  0  0  0  0  0  0  0
    8.3505  -14.7402   25.8230 C   0  0  2  0  0  0  0  0  0  0  0  0
    7.8098  -15.1049   24.5702 N   0  0  0  0  0  0  0  0  0  0  0  0
    8.6681  -15.7827   26.8131 C   0  0  0  0  0  0  0  0  0  0  0  0
    9.8089  -15.6208   27.6418 O   0  0  0  0  0  0  0  0  0  0  0  0
    8.0237  -16.8004   26.9892 O   0  0  0  0  0  0  0  0  0  0  0  0
  2  1  1  1
  2  3  1  0
  3  4  1  0
  4  5  1  0
  5  6  2  0
  7  8  2  0
  7  2  1  0
  9  5  1  0
 10 11  1  0
 11 13  1  0
 12 11  2  0
 13 14  1  0
 15 14  1  1
 15 16  1  0
 16  7  1  0
 17 18  2  0
 17 15  1  0
 20 19  1  0
 21 20  1  0
 21 22  1  1
 23 24  1  6
 23 21  1  0
 24 17  1  0
 25 23  1  0
 26 25  1  0
 27 25  2  0
M  END
$$$$
