EQI.pdb
     RDKit          3D

 27 26  0  0  1  0  0  0  0  0999 V2000
    7.3248  -17.8328   19.1858 N   0  0  0  0  0  0  0  0  0  0  0  0
    8.1967  -16.7881   19.6406 C   0  0  1  0  0  0  0  0  0  0  0  0
    7.9622  -15.4578   19.0292 C   0  0  0  0  0  0  0  0  0  0  0  0
    8.8848  -14.3733   19.4904 C   0  0  0  0  0  0  0  0  0  0  0  0
    8.5942  -13.0446   18.9581 C   0  0  0  0  0  0  0  0  0  0  0  0
    7.7273  -12.8423   18.0996 O   0  0  0  0  0  0  0  0  0  0  0  0
    8.1697  -16.6981   21.1534 C   0  0  0  0  0  0  0  0  0  0  0  0
    7.0458  -16.6708   21.6982 O   0  0  0  0  0  0  0  0  0  0  0  0
    9.3271  -11.9489   19.4360 O   0  0  0  0  0  0  0  0  0  0  0  0
   11.7974  -20.0730   24.5039 N   0  0  0  0  0  0  0  0  0  0  0  0
   11.0468  -19.4938   25.5698 C   0  0  0  0  0  0  0  0  0  0  0  0
   11.1432  -19.9504   26.7165 O   0  0  0  0  0  0  0  0  0  0  0  0
   10.1719  -18.3252   25.1773 C   0  0  0  0  0  0  0  0  0  0  0  0
   10.2687  -18.1128   23.7058 C   0  0  0  0  0  0  0  0  0  0  0  0
    9.4676  -16.9148   23.2871 C   0  0  2  0  0  0  0  0  0  0  0  0
    9.3784  -16.6523   21.8854 N   0  0  0  0  0  0  0  0  0  0  0  0
    9.7015  -15.7083   24.1222 C   0  0  0  0  0  0  0  0  0  0  0  0
   10.7011  -15.0408   23.8199 O   0  0  0  0  0  0  0  0  0  0  0  0
    5.6980  -12.5010   25.1845 C   0  0  0  0  0  0  0  0  0  0  0  0
    7.0277  -13.1994   25.0627 C   0  0  0  0  0  0  0  0  0  0  0  0
    7.5595  -13.6962   26.4024 C   0  0  2  0  0  0  0  0  0  0  0  0
    7.8080  -12.5662   27.3528 C   0  0  0  0  0  0  0  0  0  0  0  0
    8.8700  -14.4427   26.2087 C   0  0  2  0  0  0  0  0  0  0  0  0
    8.8244  -15.3914   25.1636 N   0  0  0  0  0  0  0  0  0  0  0  0
    9.4794  -14.8057   27.4989 C   0  0  0  0  0  0  0  0  0  0  0  0
    9.5249  -16.1724   27.8789 O   0  0  0  0  0  0  0  0  0  0  0  0
    9.9599  -14.0174   28.2926 O   0  0  0  0  0  0  0  0  0  0  0  0
  2  1  1  6
  2  3  1  0
  3  4  1  0
  4  5  1  0
  5  6  2  0
  7  8  2  0
  7  2  1  0
  9  5  1  0
 10 11  1  0
 11 13  1  0
 12 11  2  0
 13 14  1  0
 15 14  1  6
 15 16  1  0
 16  7  1  0
 17 18  2  0
 17 15  1  0
 20 19  1  0
 21 20  1  0
 21 22  1  1
 23 24  1  6
 23 21  1  0
 24 17  1  0
 25 23  1  0
 26 25  1  0
 27 25  2  0
M  END
$$$$
