EQI.pdb
     RDKit          3D

 27 26  0  0  1  0  0  0  0  0999 V2000
    5.8529  -19.6649   20.5037 N   0  0  0  0  0  0  0  0  0  0  0  0
    6.8530  -18.7103   20.8866 C   0  0  1  0  0  0  0  0  0  0  0  0
    7.1564  -17.6713   19.8733 C   0  0  0  0  0  0  0  0  0  0  0  0
    7.5801  -18.1910   18.5352 C   0  0  0  0  0  0  0  0  0  0  0  0
    7.8898  -17.1658   17.5420 C   0  0  0  0  0  0  0  0  0  0  0  0
    7.3162  -17.0984   16.4485 O   0  0  0  0  0  0  0  0  0  0  0  0
    6.4980  -18.0777   22.2175 C   0  0  0  0  0  0  0  0  0  0  0  0
    5.4387  -17.4172   22.2649 O   0  0  0  0  0  0  0  0  0  0  0  0
    8.8794  -16.2166   17.8351 O   0  0  0  0  0  0  0  0  0  0  0  0
    7.6567  -20.5355   27.7652 N   0  0  0  0  0  0  0  0  0  0  0  0
    6.7955  -20.7695   26.6524 C   0  0  0  0  0  0  0  0  0  0  0  0
    5.8964  -21.6171   26.7307 O   0  0  0  0  0  0  0  0  0  0  0  0
    7.0754  -19.9189   25.4345 C   0  0  0  0  0  0  0  0  0  0  0  0
    6.8176  -18.4892   25.7652 C   0  0  0  0  0  0  0  0  0  0  0  0
    7.1381  -17.6061   24.5949 C   0  0  2  0  0  0  0  0  0  0  0  0
    7.3461  -18.2488   23.3357 N   0  0  0  0  0  0  0  0  0  0  0  0
    8.1132  -16.5273   24.8999 C   0  0  0  0  0  0  0  0  0  0  0  0
    9.2931  -16.7860   24.6225 O   0  0  0  0  0  0  0  0  0  0  0  0
    5.6829  -11.5058   26.5346 C   0  0  0  0  0  0  0  0  0  0  0  0
    6.2846  -12.8844   26.4451 C   0  0  0  0  0  0  0  0  0  0  0  0
    7.6505  -12.8906   25.7678 C   0  0  2  0  0  0  0  0  0  0  0  0
    7.5354  -12.6955   24.2877 C   0  0  0  0  0  0  0  0  0  0  0  0
    8.3576  -14.2144   26.0125 C   0  0  2  0  0  0  0  0  0  0  0  0
    7.6783  -15.3222   25.4593 N   0  0  0  0  0  0  0  0  0  0  0  0
    8.8927  -14.2947   27.3818 C   0  0  0  0  0  0  0  0  0  0  0  0
    8.5153  -15.3870   28.2057 O   0  0  0  0  0  0  0  0  0  0  0  0
    9.6495  -13.4855   27.8862 O   0  0  0  0  0  0  0  0  0  0  0  0
  2  1  1  6
  2  3  1  0
  3  4  1  0
  4  5  1  0
  5  6  2  0
  7  8  2  0
  7  2  1  0
  9  5  1  0
 10 11  1  0
 11 13  1  0
 12 11  2  0
 13 14  1  0
 15 14  1  1
 15 16  1  0
 16  7  1  0
 17 18  2  0
 17 15  1  0
 20 19  1  0
 21 20  1  0
 21 22  1  6
 23 24  1  1
 23 21  1  0
 24 17  1  0
 25 23  1  0
 26 25  1  0
 27 25  2  0
M  END
$$$$
