EQI.pdb
     RDKit          3D

 27 26  0  0  1  0  0  0  0  0999 V2000
    9.3724  -12.8997   19.2690 N   0  0  0  0  0  0  0  0  0  0  0  0
    8.2959  -13.8436   19.1762 C   0  0  1  0  0  0  0  0  0  0  0  0
    8.2732  -14.6570   17.9367 C   0  0  0  0  0  0  0  0  0  0  0  0
    7.1694  -15.6646   17.8562 C   0  0  0  0  0  0  0  0  0  0  0  0
    7.1380  -16.4524   16.6267 C   0  0  0  0  0  0  0  0  0  0  0  0
    7.9322  -16.2724   15.6960 O   0  0  0  0  0  0  0  0  0  0  0  0
    8.2641  -14.7315   20.4041 C   0  0  0  0  0  0  0  0  0  0  0  0
    7.2427  -15.4317   20.5692 O   0  0  0  0  0  0  0  0  0  0  0  0
    6.1677  -17.4553   16.4901 O   0  0  0  0  0  0  0  0  0  0  0  0
   11.9562  -18.8270   22.1498 N   0  0  0  0  0  0  0  0  0  0  0  0
   11.1176  -18.6698   21.0067 C   0  0  0  0  0  0  0  0  0  0  0  0
   11.2050  -19.4617   20.0590 O   0  0  0  0  0  0  0  0  0  0  0  0
   10.1593  -17.5024   21.0696 C   0  0  0  0  0  0  0  0  0  0  0  0
   10.3517  -16.7791   22.3579 C   0  0  0  0  0  0  0  0  0  0  0  0
    9.4323  -15.5963   22.4466 C   0  0  2  0  0  0  0  0  0  0  0  0
    9.3573  -14.7462   21.3005 N   0  0  0  0  0  0  0  0  0  0  0  0
    9.5009  -14.8722   23.7423 C   0  0  0  0  0  0  0  0  0  0  0  0
   10.4822  -14.1282   23.8818 O   0  0  0  0  0  0  0  0  0  0  0  0
    5.7544  -11.9463   25.5046 C   0  0  0  0  0  0  0  0  0  0  0  0
    6.9580  -12.8198   25.2618 C   0  0  0  0  0  0  0  0  0  0  0  0
    7.1862  -13.8351   26.3760 C   0  0  2  0  0  0  0  0  0  0  0  0
    7.4198  -13.1662   27.6952 C   0  0  0  0  0  0  0  0  0  0  0  0
    8.3993  -14.6981   26.0667 C   0  0  2  0  0  0  0  0  0  0  0  0
    8.5015  -15.0516   24.7032 N   0  0  0  0  0  0  0  0  0  0  0  0
    8.6123  -15.7206   27.1046 C   0  0  0  0  0  0  0  0  0  0  0  0
    9.2172  -15.3414   28.3311 O   0  0  0  0  0  0  0  0  0  0  0  0
    8.3094  -16.8953   27.0024 O   0  0  0  0  0  0  0  0  0  0  0  0
  2  1  1  1
  2  3  1  0
  3  4  1  0
  4  5  1  0
  5  6  2  0
  7  8  2  0
  7  2  1  0
  9  5  1  0
 10 11  1  0
 11 13  1  0
 12 11  2  0
 13 14  1  0
 15 14  1  6
 15 16  1  0
 16  7  1  0
 17 18  2  0
 17 15  1  0
 20 19  1  0
 21 20  1  0
 21 22  1  1
 23 24  1  6
 23 21  1  0
 24 17  1  0
 25 23  1  0
 26 25  1  0
 27 25  2  0
M  END
$$$$
