EQI.pdb
     RDKit          3D

 27 26  0  0  1  0  0  0  0  0999 V2000
    9.2819  -19.8313   20.5362 N   0  0  0  0  0  0  0  0  0  0  0  0
    9.2304  -18.4087   20.7145 C   0  0  1  0  0  0  0  0  0  0  0  0
    8.3007  -17.6912   19.8093 C   0  0  0  0  0  0  0  0  0  0  0  0
    8.9098  -17.1904   18.5372 C   0  0  0  0  0  0  0  0  0  0  0  0
    8.0306  -16.3670   17.7113 C   0  0  0  0  0  0  0  0  0  0  0  0
    6.9055  -16.0105   18.0808 O   0  0  0  0  0  0  0  0  0  0  0  0
    8.9429  -18.0675   22.1630 C   0  0  0  0  0  0  0  0  0  0  0  0
    7.7823  -18.2791   22.5741 O   0  0  0  0  0  0  0  0  0  0  0  0
    8.4752  -15.9623   16.4445 O   0  0  0  0  0  0  0  0  0  0  0  0
   11.4260  -20.1830   26.8913 N   0  0  0  0  0  0  0  0  0  0  0  0
   10.7532  -19.1406   27.5952 C   0  0  0  0  0  0  0  0  0  0  0  0
   10.6952  -19.1635   28.8317 O   0  0  0  0  0  0  0  0  0  0  0  0
   10.1543  -18.0605   26.7234 C   0  0  0  0  0  0  0  0  0  0  0  0
   10.3891  -18.3997   25.2917 C   0  0  0  0  0  0  0  0  0  0  0  0
    9.8240  -17.3383   24.3937 C   0  0  2  0  0  0  0  0  0  0  0  0
    9.9637  -17.5386   22.9858 N   0  0  0  0  0  0  0  0  0  0  0  0
   10.1047  -15.9509   24.8455 C   0  0  0  0  0  0  0  0  0  0  0  0
   11.2691  -15.5632   24.6727 O   0  0  0  0  0  0  0  0  0  0  0  0
    5.8540  -12.4476   25.1331 C   0  0  0  0  0  0  0  0  0  0  0  0
    7.1856  -13.1518   25.0914 C   0  0  0  0  0  0  0  0  0  0  0  0
    7.7595  -13.4141   26.4792 C   0  0  2  0  0  0  0  0  0  0  0  0
    7.9840  -12.1412   27.2351 C   0  0  0  0  0  0  0  0  0  0  0  0
    9.0926  -14.1379   26.3737 C   0  0  2  0  0  0  0  0  0  0  0  0
    9.0905  -15.1777   25.4180 N   0  0  0  0  0  0  0  0  0  0  0  0
    9.6886  -14.3662   27.7005 C   0  0  0  0  0  0  0  0  0  0  0  0
   10.4091  -13.3133   28.3222 O   0  0  0  0  0  0  0  0  0  0  0  0
    9.6190  -15.4061   28.3296 O   0  0  0  0  0  0  0  0  0  0  0  0
  2  1  1  1
  2  3  1  0
  3  4  1  0
  4  5  1  0
  5  6  2  0
  7  8  2  0
  7  2  1  0
  9  5  1  0
 10 11  1  0
 11 13  1  0
 12 11  2  0
 13 14  1  0
 15 14  1  1
 15 16  1  0
 16  7  1  0
 17 18  2  0
 17 15  1  0
 20 19  1  0
 21 20  1  0
 21 22  1  6
 23 24  1  1
 23 21  1  0
 24 17  1  0
 25 23  1  0
 26 25  1  0
 27 25  2  0
M  END
$$$$
