EQI.pdb
     RDKit          3D

 27 26  0  0  1  0  0  0  0  0999 V2000
    9.8668  -18.6351   20.5397 N   0  0  0  0  0  0  0  0  0  0  0  0
    9.2388  -17.3788   20.2471 C   0  0  1  0  0  0  0  0  0  0  0  0
    8.4656  -17.3376   18.9827 C   0  0  0  0  0  0  0  0  0  0  0  0
    8.2947  -18.6572   18.2973 C   0  0  0  0  0  0  0  0  0  0  0  0
    9.0041  -18.7926   17.0278 C   0  0  0  0  0  0  0  0  0  0  0  0
    9.0531  -17.8858   16.1884 O   0  0  0  0  0  0  0  0  0  0  0  0
    8.3847  -16.9297   21.4159 C   0  0  0  0  0  0  0  0  0  0  0  0
    7.7671  -15.8518   21.2837 O   0  0  0  0  0  0  0  0  0  0  0  0
    9.6578  -20.0000   16.7432 O   0  0  0  0  0  0  0  0  0  0  0  0
    5.7328  -20.7093   24.5062 N   0  0  0  0  0  0  0  0  0  0  0  0
    6.9420  -20.6398   25.2597 C   0  0  0  0  0  0  0  0  0  0  0  0
    7.3395  -21.6296   25.8883 O   0  0  0  0  0  0  0  0  0  0  0  0
    7.6525  -19.3064   25.2110 C   0  0  0  0  0  0  0  0  0  0  0  0
    6.8010  -18.3234   24.4840 C   0  0  0  0  0  0  0  0  0  0  0  0
    7.6478  -17.3018   23.7829 C   0  0  2  0  0  0  0  0  0  0  0  0
    8.3091  -17.7186   22.5867 N   0  0  0  0  0  0  0  0  0  0  0  0
    8.4896  -16.4847   24.6948 C   0  0  0  0  0  0  0  0  0  0  0  0
    9.6946  -16.7743   24.7047 O   0  0  0  0  0  0  0  0  0  0  0  0
    5.6785  -11.9124   26.1424 C   0  0  0  0  0  0  0  0  0  0  0  0
    6.7423  -12.8990   25.7354 C   0  0  0  0  0  0  0  0  0  0  0  0
    7.4159  -13.5678   26.9284 C   0  0  2  0  0  0  0  0  0  0  0  0
    8.1400  -12.5748   27.7838 C   0  0  0  0  0  0  0  0  0  0  0  0
    8.4245  -14.6031   26.4561 C   0  0  2  0  0  0  0  0  0  0  0  0
    7.9137  -15.4705   25.4655 N   0  0  0  0  0  0  0  0  0  0  0  0
    9.1985  -15.1540   27.5809 C   0  0  0  0  0  0  0  0  0  0  0  0
   10.3190  -14.4303   28.0658 O   0  0  0  0  0  0  0  0  0  0  0  0
    8.9588  -16.2044   28.1477 O   0  0  0  0  0  0  0  0  0  0  0  0
  2  1  1  1
  2  3  1  0
  3  4  1  0
  4  5  1  0
  5  6  2  0
  7  8  2  0
  7  2  1  0
  9  5  1  0
 10 11  1  0
 11 13  1  0
 12 11  2  0
 13 14  1  0
 15 14  1  1
 15 16  1  0
 16  7  1  0
 17 18  2  0
 17 15  1  0
 20 19  1  0
 21 20  1  0
 21 22  1  6
 23 24  1  1
 23 21  1  0
 24 17  1  0
 25 23  1  0
 26 25  1  0
 27 25  2  0
M  END
$$$$
