EQI.pdb
     RDKit          3D

 27 26  0  0  1  0  0  0  0  0999 V2000
    9.0925  -16.5948   18.4192 N   0  0  0  0  0  0  0  0  0  0  0  0
    9.9345  -16.2461   19.5272 C   0  0  1  0  0  0  0  0  0  0  0  0
   10.7443  -15.0177   19.3440 C   0  0  0  0  0  0  0  0  0  0  0  0
   12.1674  -15.2471   18.9410 C   0  0  0  0  0  0  0  0  0  0  0  0
   13.0084  -14.0530   18.9296 C   0  0  0  0  0  0  0  0  0  0  0  0
   14.0247  -13.9434   19.6257 O   0  0  0  0  0  0  0  0  0  0  0  0
    9.1226  -16.1707   20.8049 C   0  0  0  0  0  0  0  0  0  0  0  0
    8.0773  -15.4874   20.7712 O   0  0  0  0  0  0  0  0  0  0  0  0
   12.6522  -12.9822   18.0973 O   0  0  0  0  0  0  0  0  0  0  0  0
    7.0881  -20.7066   23.8297 N   0  0  0  0  0  0  0  0  0  0  0  0
    6.7850  -19.7588   24.8518 C   0  0  0  0  0  0  0  0  0  0  0  0
    6.0651  -20.0832   25.8054 O   0  0  0  0  0  0  0  0  0  0  0  0
    7.4033  -18.3923   24.6635 C   0  0  0  0  0  0  0  0  0  0  0  0
    8.1400  -18.3618   23.3688 C   0  0  0  0  0  0  0  0  0  0  0  0
    8.7538  -17.0120   23.1374 C   0  0  2  0  0  0  0  0  0  0  0  0
    9.5539  -16.8563   21.9638 N   0  0  0  0  0  0  0  0  0  0  0  0
    9.3309  -16.3922   24.3583 C   0  0  0  0  0  0  0  0  0  0  0  0
   10.4820  -16.7536   24.6420 O   0  0  0  0  0  0  0  0  0  0  0  0
    6.6011  -11.7249   25.5068 C   0  0  0  0  0  0  0  0  0  0  0  0
    7.6672  -12.7757   25.3346 C   0  0  0  0  0  0  0  0  0  0  0  0
    7.8334  -13.6571   26.5674 C   0  0  2  0  0  0  0  0  0  0  0  0
    8.3170  -12.8727   27.7476 C   0  0  0  0  0  0  0  0  0  0  0  0
    8.8399  -14.7641   26.2961 C   0  0  2  0  0  0  0  0  0  0  0  0
    8.5863  -15.4698   25.0993 N   0  0  0  0  0  0  0  0  0  0  0  0
    9.1713  -15.5045   27.5248 C   0  0  0  0  0  0  0  0  0  0  0  0
   10.2139  -15.0234   28.3589 O   0  0  0  0  0  0  0  0  0  0  0  0
    8.6174  -16.5217   27.9000 O   0  0  0  0  0  0  0  0  0  0  0  0
  2  1  1  6
  2  3  1  0
  3  4  1  0
  4  5  1  0
  5  6  2  0
  7  8  2  0
  7  2  1  0
  9  5  1  0
 10 11  1  0
 11 13  1  0
 12 11  2  0
 13 14  1  0
 15 14  1  1
 15 16  1  0
 16  7  1  0
 17 18  2  0
 17 15  1  0
 20 19  1  0
 21 20  1  0
 21 22  1  1
 23 24  1  6
 23 21  1  0
 24 17  1  0
 25 23  1  0
 26 25  1  0
 27 25  2  0
M  END
$$$$
