EQI.pdb
     RDKit          3D

 27 26  0  0  1  0  0  0  0  0999 V2000
   10.1788  -16.5164   19.0957 N   0  0  0  0  0  0  0  0  0  0  0  0
    8.8064  -16.0983   19.0843 C   0  0  1  0  0  0  0  0  0  0  0  0
    7.9469  -16.7771   18.0849 C   0  0  0  0  0  0  0  0  0  0  0  0
    8.0603  -18.2693   18.0558 C   0  0  0  0  0  0  0  0  0  0  0  0
    7.2849  -18.9293   17.0088 C   0  0  0  0  0  0  0  0  0  0  0  0
    6.7057  -18.3062   16.1112 O   0  0  0  0  0  0  0  0  0  0  0  0
    8.2086  -16.2085   20.4728 C   0  0  0  0  0  0  0  0  0  0  0  0
    7.0259  -15.8306   20.6107 O   0  0  0  0  0  0  0  0  0  0  0  0
    7.1886  -20.3282   17.0178 O   0  0  0  0  0  0  0  0  0  0  0  0
    6.1733  -18.9489   24.5377 N   0  0  0  0  0  0  0  0  0  0  0  0
    6.2808  -19.4531   23.2076 C   0  0  0  0  0  0  0  0  0  0  0  0
    5.3344  -20.0676   22.6983 O   0  0  0  0  0  0  0  0  0  0  0  0
    7.5968  -19.1713   22.5191 C   0  0  0  0  0  0  0  0  0  0  0  0
    8.4328  -18.3038   23.3956 C   0  0  0  0  0  0  0  0  0  0  0  0
    8.4783  -16.8998   22.8672 C   0  0  2  0  0  0  0  0  0  0  0  0
    8.9793  -16.7224   21.5408 N   0  0  0  0  0  0  0  0  0  0  0  0
    8.9745  -15.8999   23.8479 C   0  0  0  0  0  0  0  0  0  0  0  0
   10.2056  -15.8578   23.9843 O   0  0  0  0  0  0  0  0  0  0  0  0
    6.8150  -10.8849   26.4299 C   0  0  0  0  0  0  0  0  0  0  0  0
    7.2987  -12.2389   26.8808 C   0  0  0  0  0  0  0  0  0  0  0  0
    6.9854  -13.3431   25.8774 C   0  0  2  0  0  0  0  0  0  0  0  0
    5.8852  -14.2357   26.3621 C   0  0  0  0  0  0  0  0  0  0  0  0
    8.2151  -14.2040   25.6351 C   0  0  2  0  0  0  0  0  0  0  0  0
    8.0738  -15.0862   24.5413 N   0  0  0  0  0  0  0  0  0  0  0  0
    8.7878  -14.6942   26.8998 C   0  0  0  0  0  0  0  0  0  0  0  0
    8.7686  -16.0872   27.1704 O   0  0  0  0  0  0  0  0  0  0  0  0
    9.2888  -13.9929   27.7596 O   0  0  0  0  0  0  0  0  0  0  0  0
  2  1  1  1
  2  3  1  0
  3  4  1  0
  4  5  1  0
  5  6  2  0
  7  8  2  0
  7  2  1  0
  9  5  1  0
 10 11  1  0
 11 13  1  0
 12 11  2  0
 13 14  1  0
 15 14  1  1
 15 16  1  0
 16  7  1  0
 17 18  2  0
 17 15  1  0
 20 19  1  0
 21 20  1  0
 21 22  1  1
 23 24  1  6
 23 21  1  0
 24 17  1  0
 25 23  1  0
 26 25  1  0
 27 25  2  0
M  END
$$$$
