EQI.pdb
     RDKit          3D

 27 26  0  0  1  0  0  0  0  0999 V2000
   11.9135  -16.7579   19.3676 N   0  0  0  0  0  0  0  0  0  0  0  0
   10.9945  -17.3195   20.3154 C   0  0  1  0  0  0  0  0  0  0  0  0
   11.5336  -18.4294   21.1377 C   0  0  0  0  0  0  0  0  0  0  0  0
   12.6969  -18.0703   22.0083 C   0  0  0  0  0  0  0  0  0  0  0  0
   13.1833  -19.1465   22.8676 C   0  0  0  0  0  0  0  0  0  0  0  0
   12.6348  -20.2532   22.9296 O   0  0  0  0  0  0  0  0  0  0  0  0
   10.4111  -16.2316   21.1947 C   0  0  0  0  0  0  0  0  0  0  0  0
   11.2003  -15.6407   21.9620 O   0  0  0  0  0  0  0  0  0  0  0  0
   14.3186  -18.9203   23.6588 O   0  0  0  0  0  0  0  0  0  0  0  0
    7.2379  -14.4068   18.6479 N   0  0  0  0  0  0  0  0  0  0  0  0
    7.9906  -13.4913   19.4416 C   0  0  0  0  0  0  0  0  0  0  0  0
    9.0646  -13.0418   19.0204 O   0  0  0  0  0  0  0  0  0  0  0  0
    7.3735  -13.1416   20.7765 C   0  0  0  0  0  0  0  0  0  0  0  0
    7.0987  -14.3954   21.5332 C   0  0  0  0  0  0  0  0  0  0  0  0
    8.3769  -15.0174   22.0145 C   0  0  2  0  0  0  0  0  0  0  0  0
    9.0335  -15.9213   21.1237 N   0  0  0  0  0  0  0  0  0  0  0  0
    8.3329  -15.4744   23.4276 C   0  0  0  0  0  0  0  0  0  0  0  0
    8.3909  -16.7018   23.5892 O   0  0  0  0  0  0  0  0  0  0  0  0
    5.7212  -11.8058   26.9320 C   0  0  0  0  0  0  0  0  0  0  0  0
    6.2173  -13.0273   26.2022 C   0  0  0  0  0  0  0  0  0  0  0  0
    7.6626  -13.3732   26.5425 C   0  0  2  0  0  0  0  0  0  0  0  0
    8.6081  -12.3011   26.0967 C   0  0  0  0  0  0  0  0  0  0  0  0
    8.0713  -14.6708   25.8633 C   0  0  2  0  0  0  0  0  0  0  0  0
    8.2340  -14.5439   24.4662 N   0  0  0  0  0  0  0  0  0  0  0  0
    7.3344  -15.8216   26.4116 C   0  0  0  0  0  0  0  0  0  0  0  0
    7.6769  -16.3084   27.7000 O   0  0  0  0  0  0  0  0  0  0  0  0
    6.4337  -16.4112   25.8431 O   0  0  0  0  0  0  0  0  0  0  0  0
  2  1  1  1
  2  3  1  0
  3  4  1  0
  4  5  1  0
  5  6  2  0
  7  8  2  0
  7  2  1  0
  9  5  1  0
 10 11  1  0
 11 13  1  0
 12 11  2  0
 13 14  1  0
 15 14  1  6
 15 16  1  0
 16  7  1  0
 17 18  2  0
 17 15  1  0
 20 19  1  0
 21 20  1  0
 21 22  1  6
 23 24  1  6
 23 21  1  0
 24 17  1  0
 25 23  1  0
 26 25  1  0
 27 25  2  0
M  END
$$$$
