EQI.pdb
     RDKit          3D

 27 26  0  0  1  0  0  0  0  0999 V2000
   11.3589  -16.7553   19.2361 N   0  0  0  0  0  0  0  0  0  0  0  0
   11.7033  -17.5171   20.4020 C   0  0  1  0  0  0  0  0  0  0  0  0
   13.0979  -18.0189   20.4404 C   0  0  0  0  0  0  0  0  0  0  0  0
   13.9579  -17.4289   21.5140 C   0  0  0  0  0  0  0  0  0  0  0  0
   15.3102  -17.9746   21.5946 C   0  0  0  0  0  0  0  0  0  0  0  0
   16.2800  -17.4450   21.0392 O   0  0  0  0  0  0  0  0  0  0  0  0
   11.3768  -16.7361   21.6593 C   0  0  0  0  0  0  0  0  0  0  0  0
   12.2673  -15.9805   22.1028 O   0  0  0  0  0  0  0  0  0  0  0  0
   15.5233  -19.1493   22.3301 O   0  0  0  0  0  0  0  0  0  0  0  0
    6.9340  -14.3768   20.2390 N   0  0  0  0  0  0  0  0  0  0  0  0
    6.9119  -14.9402   21.5493 C   0  0  0  0  0  0  0  0  0  0  0  0
    5.9768  -15.6751   21.8933 O   0  0  0  0  0  0  0  0  0  0  0  0
    8.0867  -14.5714   22.4262 C   0  0  0  0  0  0  0  0  0  0  0  0
    8.2885  -15.6359   23.4488 C   0  0  0  0  0  0  0  0  0  0  0  0
    9.7041  -16.1337   23.4267 C   0  0  2  0  0  0  0  0  0  0  0  0
   10.1122  -16.8761   22.2760 N   0  0  0  0  0  0  0  0  0  0  0  0
   10.1652  -16.7046   24.7187 C   0  0  0  0  0  0  0  0  0  0  0  0
   10.4071  -17.9201   24.7042 O   0  0  0  0  0  0  0  0  0  0  0  0
    9.4059  -12.9508   29.0507 C   0  0  0  0  0  0  0  0  0  0  0  0
    9.3180  -14.2205   28.2440 C   0  0  0  0  0  0  0  0  0  0  0  0
   10.6717  -14.8957   28.0547 C   0  0  2  0  0  0  0  0  0  0  0  0
   11.6499  -13.9924   27.3698 C   0  0  0  0  0  0  0  0  0  0  0  0
   10.5241  -16.1523   27.2113 C   0  0  2  0  0  0  0  0  0  0  0  0
   10.3016  -15.8845   25.8425 N   0  0  0  0  0  0  0  0  0  0  0  0
    9.7117  -17.1702   27.8981 C   0  0  0  0  0  0  0  0  0  0  0  0
   10.2152  -17.7694   29.0821 O   0  0  0  0  0  0  0  0  0  0  0  0
    8.6172  -17.5567   27.5312 O   0  0  0  0  0  0  0  0  0  0  0  0
  2  1  1  6
  2  3  1  0
  3  4  1  0
  4  5  1  0
  5  6  2  0
  7  8  2  0
  7  2  1  0
  9  5  1  0
 10 11  1  0
 11 13  1  0
 12 11  2  0
 13 14  1  0
 15 14  1  1
 15 16  1  0
 16  7  1  0
 17 18  2  0
 17 15  1  0
 20 19  1  0
 21 20  1  0
 21 22  1  6
 23 24  1  6
 23 21  1  0
 24 17  1  0
 25 23  1  0
 26 25  1  0
 27 25  2  0
M  END
$$$$
