EQI.pdb
     RDKit          3D

 27 26  0  0  1  0  0  0  0  0999 V2000
    7.9582  -17.8840   19.2949 N   0  0  0  0  0  0  0  0  0  0  0  0
    8.7607  -18.1157   20.4613 C   0  0  1  0  0  0  0  0  0  0  0  0
   10.1653  -17.6507   20.3650 C   0  0  0  0  0  0  0  0  0  0  0  0
   10.9750  -18.2896   19.2804 C   0  0  0  0  0  0  0  0  0  0  0  0
   12.3287  -17.7635   19.1259 C   0  0  0  0  0  0  0  0  0  0  0  0
   13.2977  -18.4801   18.8485 O   0  0  0  0  0  0  0  0  0  0  0  0
    8.0856  -17.5404   21.6903 C   0  0  0  0  0  0  0  0  0  0  0  0
    7.4329  -16.4865   21.5358 O   0  0  0  0  0  0  0  0  0  0  0  0
   12.5446  -16.3890   19.2999 O   0  0  0  0  0  0  0  0  0  0  0  0
    5.8330  -20.4224   26.6045 N   0  0  0  0  0  0  0  0  0  0  0  0
    7.2247  -20.6771   26.4226 C   0  0  0  0  0  0  0  0  0  0  0  0
    7.7695  -21.6094   27.0283 O   0  0  0  0  0  0  0  0  0  0  0  0
    7.9275  -19.7447   25.4625 C   0  0  0  0  0  0  0  0  0  0  0  0
    6.9984  -18.6450   25.0786 C   0  0  0  0  0  0  0  0  0  0  0  0
    7.6771  -17.6712   24.1602 C   0  0  2  0  0  0  0  0  0  0  0  0
    8.2057  -18.1923   22.9392 N   0  0  0  0  0  0  0  0  0  0  0  0
    8.5720  -16.7086   24.8532 C   0  0  0  0  0  0  0  0  0  0  0  0
    9.7837  -16.9522   24.7621 O   0  0  0  0  0  0  0  0  0  0  0  0
    5.6812  -12.1836   26.1597 C   0  0  0  0  0  0  0  0  0  0  0  0
    6.8028  -13.1033   25.7515 C   0  0  0  0  0  0  0  0  0  0  0  0
    7.5752  -13.6588   26.9428 C   0  0  2  0  0  0  0  0  0  0  0  0
    8.3349  -12.5857   27.6592 C   0  0  0  0  0  0  0  0  0  0  0  0
    8.5716  -14.7120   26.4843 C   0  0  2  0  0  0  0  0  0  0  0  0
    8.0342  -15.6191   25.5446 N   0  0  0  0  0  0  0  0  0  0  0  0
    9.3783  -15.2164   27.6080 C   0  0  0  0  0  0  0  0  0  0  0  0
   10.3889  -14.3854   28.1579 O   0  0  0  0  0  0  0  0  0  0  0  0
    9.2546  -16.3132   28.1216 O   0  0  0  0  0  0  0  0  0  0  0  0
  2  1  1  6
  2  3  1  0
  3  4  1  0
  4  5  1  0
  5  6  2  0
  7  8  2  0
  7  2  1  0
  9  5  1  0
 10 11  1  0
 11 13  1  0
 12 11  2  0
 13 14  1  0
 15 14  1  1
 15 16  1  0
 16  7  1  0
 17 18  2  0
 17 15  1  0
 20 19  1  0
 21 20  1  0
 21 22  1  6
 23 24  1  1
 23 21  1  0
 24 17  1  0
 25 23  1  0
 26 25  1  0
 27 25  2  0
M  END
$$$$
