EQI.pdb
     RDKit          3D

 27 26  0  0  1  0  0  0  0  0999 V2000
    9.6418  -15.6025   18.3665 N   0  0  0  0  0  0  0  0  0  0  0  0
   10.3713  -15.8609   19.5745 C   0  0  1  0  0  0  0  0  0  0  0  0
   11.5744  -15.0188   19.7792 C   0  0  0  0  0  0  0  0  0  0  0  0
   12.8081  -15.4883   19.0736 C   0  0  0  0  0  0  0  0  0  0  0  0
   14.0224  -14.7380   19.3831 C   0  0  0  0  0  0  0  0  0  0  0  0
   14.6824  -14.9275   20.4116 O   0  0  0  0  0  0  0  0  0  0  0  0
    9.4496  -15.7848   20.7753 C   0  0  0  0  0  0  0  0  0  0  0  0
    8.6117  -14.8583   20.7871 O   0  0  0  0  0  0  0  0  0  0  0  0
   14.4619  -13.7594   18.4802 O   0  0  0  0  0  0  0  0  0  0  0  0
    7.3917  -20.5037   24.1603 N   0  0  0  0  0  0  0  0  0  0  0  0
    6.8965  -19.4463   24.9799 C   0  0  0  0  0  0  0  0  0  0  0  0
    6.1598  -19.6997   25.9421 O   0  0  0  0  0  0  0  0  0  0  0  0
    7.3432  -18.0595   24.5771 C   0  0  0  0  0  0  0  0  0  0  0  0
    8.2078  -18.1548   23.3675 C   0  0  0  0  0  0  0  0  0  0  0  0
    8.6663  -16.7937   22.9324 C   0  0  2  0  0  0  0  0  0  0  0  0
    9.5565  -16.7357   21.8161 N   0  0  0  0  0  0  0  0  0  0  0  0
    9.0319  -15.8909   24.0545 C   0  0  0  0  0  0  0  0  0  0  0  0
   10.1850  -16.0258   24.4884 O   0  0  0  0  0  0  0  0  0  0  0  0
    7.6822  -10.9678   26.1854 C   0  0  0  0  0  0  0  0  0  0  0  0
    7.0006  -12.1631   26.7998 C   0  0  0  0  0  0  0  0  0  0  0  0
    6.8165  -13.3107   25.8132 C   0  0  2  0  0  0  0  0  0  0  0  0
    5.7683  -14.2751   26.2750 C   0  0  0  0  0  0  0  0  0  0  0  0
    8.1181  -14.0786   25.6442 C   0  0  2  0  0  0  0  0  0  0  0  0
    8.1037  -14.9698   24.5487 N   0  0  0  0  0  0  0  0  0  0  0  0
    8.6535  -14.5239   26.9414 C   0  0  0  0  0  0  0  0  0  0  0  0
    8.5321  -15.8907   27.3041 O   0  0  0  0  0  0  0  0  0  0  0  0
    9.2051  -13.8055   27.7549 O   0  0  0  0  0  0  0  0  0  0  0  0
  2  1  1  6
  2  3  1  0
  3  4  1  0
  4  5  1  0
  5  6  2  0
  7  8  2  0
  7  2  1  0
  9  5  1  0
 10 11  1  0
 11 13  1  0
 12 11  2  0
 13 14  1  0
 15 14  1  1
 15 16  1  0
 16  7  1  0
 17 18  2  0
 17 15  1  0
 20 19  1  0
 21 20  1  0
 21 22  1  1
 23 24  1  6
 23 21  1  0
 24 17  1  0
 25 23  1  0
 26 25  1  0
 27 25  2  0
M  END
$$$$
