EQI.pdb
     RDKit          3D

 27 26  0  0  1  0  0  0  0  0999 V2000
    8.2701  -17.3439   19.0360 N   0  0  0  0  0  0  0  0  0  0  0  0
    8.9104  -17.8412   20.2196 C   0  0  1  0  0  0  0  0  0  0  0  0
   10.3823  -17.6680   20.2626 C   0  0  0  0  0  0  0  0  0  0  0  0
   11.1402  -18.3904   19.1931 C   0  0  0  0  0  0  0  0  0  0  0  0
   12.5928  -18.2559   19.2645 C   0  0  0  0  0  0  0  0  0  0  0  0
   13.2569  -18.6681   20.2229 O   0  0  0  0  0  0  0  0  0  0  0  0
    8.2623  -17.2542   21.4577 C   0  0  0  0  0  0  0  0  0  0  0  0
    7.9389  -16.0485   21.4089 O   0  0  0  0  0  0  0  0  0  0  0  0
   13.2678  -17.6327   18.2052 O   0  0  0  0  0  0  0  0  0  0  0  0
    5.7936  -20.7928   25.6774 N   0  0  0  0  0  0  0  0  0  0  0  0
    6.6453  -20.0452   26.5437 C   0  0  0  0  0  0  0  0  0  0  0  0
    6.8623  -20.4430   27.6959 O   0  0  0  0  0  0  0  0  0  0  0  0
    7.2279  -18.7870   25.9415 C   0  0  0  0  0  0  0  0  0  0  0  0
    6.6309  -18.5664   24.5943 C   0  0  0  0  0  0  0  0  0  0  0  0
    7.4468  -17.5847   23.8050 C   0  0  2  0  0  0  0  0  0  0  0  0
    8.0448  -18.0613   22.5979 N   0  0  0  0  0  0  0  0  0  0  0  0
    8.3377  -16.7328   24.6346 C   0  0  0  0  0  0  0  0  0  0  0  0
    9.4581  -17.2084   24.8681 O   0  0  0  0  0  0  0  0  0  0  0  0
    5.9298  -11.7420   26.6422 C   0  0  0  0  0  0  0  0  0  0  0  0
    6.4416  -13.1274   26.3433 C   0  0  0  0  0  0  0  0  0  0  0  0
    7.8383  -13.1227   25.7321 C   0  0  2  0  0  0  0  0  0  0  0  0
    7.8023  -12.7957   24.2713 C   0  0  0  0  0  0  0  0  0  0  0  0
    8.4912  -14.4868   25.8911 C   0  0  2  0  0  0  0  0  0  0  0  0
    7.8954  -15.4886   25.0936 N   0  0  0  0  0  0  0  0  0  0  0  0
    8.8132  -14.7695   27.2997 C   0  0  0  0  0  0  0  0  0  0  0  0
    8.3238  -15.9628   27.8920 O   0  0  0  0  0  0  0  0  0  0  0  0
    9.4785  -14.0513   28.0234 O   0  0  0  0  0  0  0  0  0  0  0  0
  2  1  1  6
  2  3  1  0
  3  4  1  0
  4  5  1  0
  5  6  2  0
  7  8  2  0
  7  2  1  0
  9  5  1  0
 10 11  1  0
 11 13  1  0
 12 11  2  0
 13 14  1  0
 15 14  1  1
 15 16  1  0
 16  7  1  0
 17 18  2  0
 17 15  1  0
 20 19  1  0
 21 20  1  0
 21 22  1  6
 23 24  1  1
 23 21  1  0
 24 17  1  0
 25 23  1  0
 26 25  1  0
 27 25  2  0
M  END
$$$$
