VDW.pdb
     RDKit          3D

 30 31  0  0  1  0  0  0  0  0999 V2000
    8.8481  -12.8485   21.1907 C   0  0  0  0  0  0  0  0  0  0  0  0
    7.7300  -13.6934   20.6566 C   0  0  1  0  0  0  0  0  0  0  0  0
    7.0591  -13.0112   19.4894 C   0  0  0  0  0  0  0  0  0  0  0  0
    8.1850  -15.0563   20.2150 C   0  0  2  0  0  0  0  0  0  0  0  0
    7.0717  -15.7311   19.5782 N   0  0  0  0  0  0  0  0  0  0  0  0
    8.7822  -15.8720   21.2804 C   0  0  0  0  0  0  0  0  0  0  0  0
    8.0345  -16.5075   22.0752 O   0  0  0  0  0  0  0  0  0  0  0  0
   10.1864  -16.0160   21.5067 N   0  0  0  0  0  0  0  0  0  0  0  0
   10.7455  -16.9053   22.4925 C   0  0  1  0  0  0  0  0  0  0  0  0
   12.1424  -17.3233   22.1350 C   0  0  0  0  0  0  0  0  0  0  0  0
   12.2063  -18.0698   20.8760 C   0  0  0  0  0  0  0  0  0  0  0  0
   12.9551  -17.7570   19.9005 O   0  0  0  0  0  0  0  0  0  0  0  0
   10.6844  -16.3537   23.8580 C   0  0  0  0  0  0  0  0  0  0  0  0
   11.3714  -15.3535   24.1621 O   0  0  0  0  0  0  0  0  0  0  0  0
   11.4257  -19.2120   20.6523 O   0  0  0  0  0  0  0  0  0  0  0  0
    9.8410  -16.9682   24.8159 N   0  0  0  0  0  0  0  0  0  0  0  0
    9.9091  -16.6116   26.2206 C   0  0  1  0  0  0  0  0  0  0  0  0
    8.5460  -16.7009   26.8337 C   0  0  0  0  0  0  0  0  0  0  0  0
    7.5853  -15.7215   26.2915 C   0  0  0  0  0  0  0  0  0  0  0  0
    6.5113  -16.0260   25.4911 C   0  0  0  0  0  0  0  0  0  0  0  0
    5.8564  -14.8984   25.1875 N   0  0  0  0  0  0  0  0  0  0  0  0
    6.4881  -13.8513   25.7803 C   0  0  0  0  0  0  0  0  0  0  0  0
    6.1922  -12.4945   25.7626 C   0  0  0  0  0  0  0  0  0  0  0  0
    7.0022  -11.6242   26.4559 C   0  0  0  0  0  0  0  0  0  0  0  0
    8.0798  -12.1444   27.1425 C   0  0  0  0  0  0  0  0  0  0  0  0
    8.3855  -13.4796   27.1704 C   0  0  0  0  0  0  0  0  0  0  0  0
    7.5657  -14.3610   26.4685 C   0  0  0  0  0  0  0  0  0  0  0  0
   10.8412  -17.5508   26.9471 C   0  0  0  0  0  0  0  0  0  0  0  0
   11.0845  -17.3908   28.1646 O   0  0  0  0  0  0  0  0  0  0  0  0
   11.4371  -18.5989   26.2756 O   0  0  0  0  0  0  0  0  0  0  0  0
  2  1  1  6
  3  2  1  0
  4  5  1  1
  4  2  1  0
  6  4  1  0
  7  6  2  0
  8  6  1  0
  9 10  1  6
  9  8  1  0
 10 11  1  0
 11 12  2  0
 13  9  1  0
 14 13  2  0
 15 11  1  0
 16 13  1  0
 17 18  1  1
 17 16  1  0
 18 19  1  0
 19 20  2  0
 19 27  1  0
 20 21  1  0
 21 22  1  0
 22 23  2  0
 24 23  1  0
 25 24  2  0
 26 27  2  0
 26 25  1  0
 27 22  1  0
 28 30  1  0
 28 17  1  0
 29 28  2  0
M  END
$$$$
