VDW.pdb
     RDKit          3D

 30 31  0  0  1  0  0  0  0  0999 V2000
    6.9029  -12.9170   19.0176 C   0  0  0  0  0  0  0  0  0  0  0  0
    7.1923  -14.1300   19.8506 C   0  0  1  0  0  0  0  0  0  0  0  0
    7.5612  -15.3016   18.9735 C   0  0  0  0  0  0  0  0  0  0  0  0
    8.3005  -13.9092   20.8420 C   0  0  2  0  0  0  0  0  0  0  0  0
    9.4511  -13.3789   20.1382 N   0  0  0  0  0  0  0  0  0  0  0  0
    8.6453  -15.0923   21.6410 C   0  0  0  0  0  0  0  0  0  0  0  0
    7.7621  -15.6435   22.3556 O   0  0  0  0  0  0  0  0  0  0  0  0
    9.9395  -15.6981   21.6838 N   0  0  0  0  0  0  0  0  0  0  0  0
   10.2681  -16.8114   22.5369 C   0  0  1  0  0  0  0  0  0  0  0  0
   11.4896  -17.5391   22.0549 C   0  0  0  0  0  0  0  0  0  0  0  0
   11.7860  -18.7358   22.8464 C   0  0  0  0  0  0  0  0  0  0  0  0
   10.9170  -19.5932   23.1926 O   0  0  0  0  0  0  0  0  0  0  0  0
   10.3989  -16.4251   23.9534 C   0  0  0  0  0  0  0  0  0  0  0  0
   11.1980  -15.5222   24.2864 O   0  0  0  0  0  0  0  0  0  0  0  0
   13.0832  -19.0276   23.2894 O   0  0  0  0  0  0  0  0  0  0  0  0
    9.6110  -17.0867   24.9270 N   0  0  0  0  0  0  0  0  0  0  0  0
    9.7899  -16.8304   26.3438 C   0  0  1  0  0  0  0  0  0  0  0  0
    8.4548  -16.6895   27.0068 C   0  0  0  0  0  0  0  0  0  0  0  0
    7.6340  -15.5913   26.4624 C   0  0  0  0  0  0  0  0  0  0  0  0
    6.5760  -15.7463   25.6003 C   0  0  0  0  0  0  0  0  0  0  0  0
    6.0625  -14.5433   25.3146 N   0  0  0  0  0  0  0  0  0  0  0  0
    6.7720  -13.5945   25.9803 C   0  0  0  0  0  0  0  0  0  0  0  0
    6.6250  -12.2136   26.0066 C   0  0  0  0  0  0  0  0  0  0  0  0
    7.4873  -11.4637   26.7735 C   0  0  0  0  0  0  0  0  0  0  0  0
    8.4662  -12.1240   27.4872 C   0  0  0  0  0  0  0  0  0  0  0  0
    8.6247  -13.4848   27.4724 C   0  0  0  0  0  0  0  0  0  0  0  0
    7.7519  -14.2443   26.6960 C   0  0  0  0  0  0  0  0  0  0  0  0
   10.5425  -17.9717   26.9839 C   0  0  0  0  0  0  0  0  0  0  0  0
   10.8382  -17.9369   28.1999 O   0  0  0  0  0  0  0  0  0  0  0  0
   10.9141  -19.0690   26.2340 O   0  0  0  0  0  0  0  0  0  0  0  0
  2  1  1  6
  3  2  1  0
  4  5  1  6
  4  2  1  0
  6  4  1  0
  7  6  2  0
  8  6  1  0
  9 10  1  6
  9  8  1  0
 10 11  1  0
 11 12  2  0
 13  9  1  0
 14 13  2  0
 15 11  1  0
 16 13  1  0
 17 18  1  1
 17 16  1  0
 18 19  1  0
 19 20  2  0
 19 27  1  0
 20 21  1  0
 21 22  1  0
 22 23  2  0
 24 23  1  0
 25 24  2  0
 26 27  2  0
 26 25  1  0
 27 22  1  0
 28 30  1  0
 28 17  1  0
 29 28  2  0
M  END
$$$$
