VDW.pdb
     RDKit          3D

 30 31  0  0  1  0  0  0  0  0999 V2000
    8.0173  -12.2930   19.0359 C   0  0  0  0  0  0  0  0  0  0  0  0
    8.3078  -13.2298   20.1705 C   0  0  1  0  0  0  0  0  0  0  0  0
    7.3416  -13.0032   21.3076 C   0  0  0  0  0  0  0  0  0  0  0  0
    8.2395  -14.6764   19.7680 C   0  0  2  0  0  0  0  0  0  0  0  0
    6.9690  -14.9141   19.1125 N   0  0  0  0  0  0  0  0  0  0  0  0
    8.4748  -15.6240   20.8652 C   0  0  0  0  0  0  0  0  0  0  0  0
    7.5150  -15.9706   21.6089 O   0  0  0  0  0  0  0  0  0  0  0  0
    9.7404  -16.2104   21.1785 N   0  0  0  0  0  0  0  0  0  0  0  0
    9.9439  -17.1235   22.2740 C   0  0  1  0  0  0  0  0  0  0  0  0
   10.8161  -18.2798   21.8788 C   0  0  0  0  0  0  0  0  0  0  0  0
   10.0518  -19.4104   21.3458 C   0  0  0  0  0  0  0  0  0  0  0  0
    8.9892  -19.8622   21.8720 O   0  0  0  0  0  0  0  0  0  0  0  0
   10.4552  -16.4563   23.4848 C   0  0  0  0  0  0  0  0  0  0  0  0
   11.4958  -15.7644   23.4281 O   0  0  0  0  0  0  0  0  0  0  0  0
   10.4487  -20.0918   20.1872 O   0  0  0  0  0  0  0  0  0  0  0  0
    9.7553  -16.6082   24.7069 N   0  0  0  0  0  0  0  0  0  0  0  0
   10.4303  -16.4772   25.9845 C   0  0  1  0  0  0  0  0  0  0  0  0
    9.7814  -15.3971   26.7932 C   0  0  0  0  0  0  0  0  0  0  0  0
    8.4190  -15.0547   26.3427 C   0  0  0  0  0  0  0  0  0  0  0  0
    7.4752  -15.9581   25.9186 C   0  0  0  0  0  0  0  0  0  0  0  0
    6.3565  -15.3014   25.5874 N   0  0  0  0  0  0  0  0  0  0  0  0
    6.5526  -13.9718   25.7888 C   0  0  0  0  0  0  0  0  0  0  0  0
    5.6968  -12.8957   25.5926 C   0  0  0  0  0  0  0  0  0  0  0  0
    6.1436  -11.6253   25.8766 C   0  0  0  0  0  0  0  0  0  0  0  0
    7.4321  -11.4783   26.3473 C   0  0  0  0  0  0  0  0  0  0  0  0
    8.2888  -12.5287   26.5465 C   0  0  0  0  0  0  0  0  0  0  0  0
    7.8368  -13.8150   26.2590 C   0  0  0  0  0  0  0  0  0  0  0  0
   10.3535  -17.7790   26.7449 C   0  0  0  0  0  0  0  0  0  0  0  0
   11.0090  -17.9402   27.7992 O   0  0  0  0  0  0  0  0  0  0  0  0
    9.5578  -18.8086   26.2852 O   0  0  0  0  0  0  0  0  0  0  0  0
  2  1  1  6
  3  2  1  0
  4  5  1  1
  4  2  1  0
  6  4  1  0
  7  6  2  0
  8  6  1  0
  9 10  1  6
  9  8  1  0
 10 11  1  0
 11 12  2  0
 13  9  1  0
 14 13  2  0
 15 11  1  0
 16 13  1  0
 17 18  1  1
 17 16  1  0
 18 19  1  0
 19 20  2  0
 19 27  1  0
 20 21  1  0
 21 22  1  0
 22 23  2  0
 24 23  1  0
 25 24  2  0
 26 27  2  0
 26 25  1  0
 27 22  1  0
 28 30  1  0
 28 17  1  0
 29 28  2  0
M  END
$$$$
