VDW.pdb
     RDKit          3D

 30 31  0  0  1  0  0  0  0  0999 V2000
    8.8657  -12.9040   21.3675 C   0  0  0  0  0  0  0  0  0  0  0  0
    7.7065  -13.5467   20.6657 C   0  0  1  0  0  0  0  0  0  0  0  0
    7.1567  -12.6310   19.5993 C   0  0  0  0  0  0  0  0  0  0  0  0
    8.0628  -14.8607   20.0284 C   0  0  2  0  0  0  0  0  0  0  0  0
    6.9229  -15.3281   19.2653 N   0  0  0  0  0  0  0  0  0  0  0  0
    8.5473  -15.8800   20.9683 C   0  0  0  0  0  0  0  0  0  0  0  0
    7.7316  -16.4561   21.7412 O   0  0  0  0  0  0  0  0  0  0  0  0
    9.9103  -16.2933   21.0913 N   0  0  0  0  0  0  0  0  0  0  0  0
   10.3897  -17.1470   22.1480 C   0  0  1  0  0  0  0  0  0  0  0  0
   11.6711  -17.8321   21.7706 C   0  0  0  0  0  0  0  0  0  0  0  0
   11.5817  -18.5359   20.4888 C   0  0  0  0  0  0  0  0  0  0  0  0
   12.2195  -18.1976   19.4453 O   0  0  0  0  0  0  0  0  0  0  0  0
   10.5182  -16.4423   23.4362 C   0  0  0  0  0  0  0  0  0  0  0  0
   11.1635  -15.3728   23.5048 O   0  0  0  0  0  0  0  0  0  0  0  0
   10.7650  -19.6619   20.3180 O   0  0  0  0  0  0  0  0  0  0  0  0
    9.9039  -16.9897   24.5892 N   0  0  0  0  0  0  0  0  0  0  0  0
   10.3800  -16.6699   25.9219 C   0  0  1  0  0  0  0  0  0  0  0  0
   10.0395  -15.2506   26.2557 C   0  0  0  0  0  0  0  0  0  0  0  0
    8.6004  -14.9443   26.1505 C   0  0  0  0  0  0  0  0  0  0  0  0
    7.6091  -15.8679   25.9245 C   0  0  0  0  0  0  0  0  0  0  0  0
    6.4258  -15.2424   25.8903 N   0  0  0  0  0  0  0  0  0  0  0  0
    6.6263  -13.9135   26.0917 C   0  0  0  0  0  0  0  0  0  0  0  0
    5.7184  -12.8638   26.1434 C   0  0  0  0  0  0  0  0  0  0  0  0
    6.1835  -11.5874   26.3641 C   0  0  0  0  0  0  0  0  0  0  0  0
    7.5420  -11.4082   26.5253 C   0  0  0  0  0  0  0  0  0  0  0  0
    8.4507  -12.4324   26.4773 C   0  0  0  0  0  0  0  0  0  0  0  0
    7.9801  -13.7247   26.2538 C   0  0  0  0  0  0  0  0  0  0  0  0
    9.7346  -17.5851   26.9341 C   0  0  0  0  0  0  0  0  0  0  0  0
    8.8768  -18.4244   26.5778 O   0  0  0  0  0  0  0  0  0  0  0  0
   10.0839  -17.5068   28.2669 O   0  0  0  0  0  0  0  0  0  0  0  0
  2  1  1  6
  3  2  1  0
  4  5  1  1
  4  2  1  0
  6  4  1  0
  7  6  2  0
  8  6  1  0
  9 10  1  6
  9  8  1  0
 10 11  1  0
 11 12  2  0
 13  9  1  0
 14 13  2  0
 15 11  1  0
 16 13  1  0
 17 18  1  1
 17 16  1  0
 18 19  1  0
 19 20  2  0
 19 27  1  0
 20 21  1  0
 21 22  1  0
 22 23  2  0
 24 23  1  0
 25 24  2  0
 26 27  2  0
 26 25  1  0
 27 22  1  0
 28 30  1  0
 28 17  1  0
 29 28  2  0
M  END
$$$$
