VDW.pdb
     RDKit          3D

 30 31  0  0  1  0  0  0  0  0999 V2000
    9.1482  -12.7563   20.6433 C   0  0  0  0  0  0  0  0  0  0  0  0
    7.9349  -13.4029   20.0441 C   0  0  1  0  0  0  0  0  0  0  0  0
    7.4409  -12.6101   18.8586 C   0  0  0  0  0  0  0  0  0  0  0  0
    8.1834  -14.8177   19.6014 C   0  0  2  0  0  0  0  0  0  0  0  0
    6.9792  -15.3235   18.9733 N   0  0  0  0  0  0  0  0  0  0  0  0
    8.6630  -15.7112   20.6639 C   0  0  0  0  0  0  0  0  0  0  0  0
    7.8561  -16.1303   21.5402 O   0  0  0  0  0  0  0  0  0  0  0  0
   10.0116  -16.1654   20.7999 N   0  0  0  0  0  0  0  0  0  0  0  0
   10.4322  -17.1209   21.7927 C   0  0  1  0  0  0  0  0  0  0  0  0
   11.6064  -17.9299   21.3229 C   0  0  0  0  0  0  0  0  0  0  0  0
   11.9822  -18.9851   22.2671 C   0  0  0  0  0  0  0  0  0  0  0  0
   11.3490  -19.2418   23.3364 O   0  0  0  0  0  0  0  0  0  0  0  0
   10.6985  -16.5014   23.1034 C   0  0  0  0  0  0  0  0  0  0  0  0
   11.4726  -15.5225   23.1891 O   0  0  0  0  0  0  0  0  0  0  0  0
   13.0961  -19.8082   22.0524 O   0  0  0  0  0  0  0  0  0  0  0  0
   10.0687  -17.0267   24.2583 N   0  0  0  0  0  0  0  0  0  0  0  0
   10.4418  -16.5841   25.5886 C   0  0  1  0  0  0  0  0  0  0  0  0
   10.0778  -15.1425   25.7648 C   0  0  0  0  0  0  0  0  0  0  0  0
    8.6287  -14.9094   25.9128 C   0  0  0  0  0  0  0  0  0  0  0  0
    7.6517  -15.8571   25.7283 C   0  0  0  0  0  0  0  0  0  0  0  0
    6.4536  -15.3007   25.9460 N   0  0  0  0  0  0  0  0  0  0  0  0
    6.6301  -13.9934   26.2727 C   0  0  0  0  0  0  0  0  0  0  0  0
    5.7004  -13.0099   26.5844 C   0  0  0  0  0  0  0  0  0  0  0  0
    6.1432  -11.7418   26.8843 C   0  0  0  0  0  0  0  0  0  0  0  0
    7.5020  -11.5042   26.8615 C   0  0  0  0  0  0  0  0  0  0  0  0
    8.4322  -12.4627   26.5563 C   0  0  0  0  0  0  0  0  0  0  0  0
    7.9842  -13.7466   26.2526 C   0  0  0  0  0  0  0  0  0  0  0  0
    9.7203  -17.4075   26.6280 C   0  0  0  0  0  0  0  0  0  0  0  0
    8.8978  -18.2869   26.2850 O   0  0  0  0  0  0  0  0  0  0  0  0
    9.9598  -17.1997   27.9711 O   0  0  0  0  0  0  0  0  0  0  0  0
  2  1  1  6
  3  2  1  0
  4  5  1  1
  4  2  1  0
  6  4  1  0
  7  6  2  0
  8  6  1  0
  9 10  1  6
  9  8  1  0
 10 11  1  0
 11 12  2  0
 13  9  1  0
 14 13  2  0
 15 11  1  0
 16 13  1  0
 17 18  1  6
 17 16  1  0
 18 19  1  0
 19 20  2  0
 19 27  1  0
 20 21  1  0
 21 22  1  0
 22 23  2  0
 24 23  1  0
 25 24  2  0
 26 27  2  0
 26 25  1  0
 27 22  1  0
 28 30  1  0
 28 17  1  0
 29 28  2  0
M  END
$$$$
