VDW.pdb
     RDKit          3D

 30 31  0  0  1  0  0  0  0  0999 V2000
    8.6792  -13.0417   21.6979 C   0  0  0  0  0  0  0  0  0  0  0  0
    7.7246  -13.8244   20.8462 C   0  0  1  0  0  0  0  0  0  0  0  0
    7.1961  -12.9716   19.7187 C   0  0  0  0  0  0  0  0  0  0  0  0
    8.3432  -15.0619   20.2584 C   0  0  2  0  0  0  0  0  0  0  0  0
    7.3936  -15.6632   19.3434 N   0  0  0  0  0  0  0  0  0  0  0  0
    8.8322  -16.0270   21.2517 C   0  0  0  0  0  0  0  0  0  0  0  0
    8.0220  -16.8266   21.7984 O   0  0  0  0  0  0  0  0  0  0  0  0
   10.1937  -16.1463   21.6708 N   0  0  0  0  0  0  0  0  0  0  0  0
   10.6269  -17.0293   22.7235 C   0  0  1  0  0  0  0  0  0  0  0  0
   12.0210  -17.5336   22.4871 C   0  0  0  0  0  0  0  0  0  0  0  0
   12.4417  -18.5246   23.4808 C   0  0  0  0  0  0  0  0  0  0  0  0
   12.1305  -19.7540   23.4356 O   0  0  0  0  0  0  0  0  0  0  0  0
   10.4948  -16.4276   24.0626 C   0  0  0  0  0  0  0  0  0  0  0  0
   10.9503  -15.2839   24.2845 O   0  0  0  0  0  0  0  0  0  0  0  0
   13.2381  -18.1781   24.5807 O   0  0  0  0  0  0  0  0  0  0  0  0
    9.8479  -17.1584   25.0892 N   0  0  0  0  0  0  0  0  0  0  0  0
    9.8400  -16.6867   26.4613 C   0  0  1  0  0  0  0  0  0  0  0  0
    8.4309  -16.5996   26.9600 C   0  0  0  0  0  0  0  0  0  0  0  0
    7.5975  -15.6329   26.2204 C   0  0  0  0  0  0  0  0  0  0  0  0
    6.6992  -15.9554   25.2326 C   0  0  0  0  0  0  0  0  0  0  0  0
    6.1196  -14.8352   24.7834 N   0  0  0  0  0  0  0  0  0  0  0  0
    6.6271  -13.7751   25.4656 C   0  0  0  0  0  0  0  0  0  0  0  0
    6.3448  -12.4192   25.3618 C   0  0  0  0  0  0  0  0  0  0  0  0
    7.0069  -11.5335   26.1811 C   0  0  0  0  0  0  0  0  0  0  0  0
    7.9284  -12.0379   27.0756 C   0  0  0  0  0  0  0  0  0  0  0  0
    8.2184  -13.3720   27.1908 C   0  0  0  0  0  0  0  0  0  0  0  0
    7.5483  -14.2688   26.3613 C   0  0  0  0  0  0  0  0  0  0  0  0
   10.6178  -17.6376   27.3385 C   0  0  0  0  0  0  0  0  0  0  0  0
   10.7312  -17.4226   28.5666 O   0  0  0  0  0  0  0  0  0  0  0  0
   11.2140  -18.7574   26.7953 O   0  0  0  0  0  0  0  0  0  0  0  0
  2  1  1  6
  3  2  1  0
  4  5  1  1
  4  2  1  0
  6  4  1  0
  7  6  2  0
  8  6  1  0
  9 10  1  6
  9  8  1  0
 10 11  1  0
 11 12  2  0
 13  9  1  0
 14 13  2  0
 15 11  1  0
 16 13  1  0
 17 18  1  1
 17 16  1  0
 18 19  1  0
 19 20  2  0
 19 27  1  0
 20 21  1  0
 21 22  1  0
 22 23  2  0
 24 23  1  0
 25 24  2  0
 26 27  2  0
 26 25  1  0
 27 22  1  0
 28 30  1  0
 28 17  1  0
 29 28  2  0
M  END
$$$$
