VDW.pdb
     RDKit          3D

 30 31  0  0  1  0  0  0  0  0999 V2000
    8.3329  -12.9902   21.2363 C   0  0  0  0  0  0  0  0  0  0  0  0
    7.4352  -13.7641   20.3174 C   0  0  1  0  0  0  0  0  0  0  0  0
    6.9862  -12.9023   19.1626 C   0  0  0  0  0  0  0  0  0  0  0  0
    8.0881  -15.0000   19.7642 C   0  0  2  0  0  0  0  0  0  0  0  0
    7.1862  -15.6104   18.8080 N   0  0  0  0  0  0  0  0  0  0  0  0
    8.5357  -15.9584   20.7832 C   0  0  0  0  0  0  0  0  0  0  0  0
    7.7060  -16.7623   21.2929 O   0  0  0  0  0  0  0  0  0  0  0  0
    9.8763  -16.0662   21.2677 N   0  0  0  0  0  0  0  0  0  0  0  0
   10.2920  -17.0386   22.2461 C   0  0  1  0  0  0  0  0  0  0  0  0
   11.5659  -17.7229   21.8427 C   0  0  0  0  0  0  0  0  0  0  0  0
   11.9403  -18.8072   22.7540 C   0  0  0  0  0  0  0  0  0  0  0  0
   11.1427  -19.3528   23.5764 O   0  0  0  0  0  0  0  0  0  0  0  0
   10.3942  -16.4736   23.6036 C   0  0  0  0  0  0  0  0  0  0  0  0
   11.1576  -15.5078   23.8257 O   0  0  0  0  0  0  0  0  0  0  0  0
   13.2388  -19.3336   22.7842 O   0  0  0  0  0  0  0  0  0  0  0  0
    9.6196  -17.0360   24.6477 N   0  0  0  0  0  0  0  0  0  0  0  0
    9.8101  -16.6350   26.0290 C   0  0  1  0  0  0  0  0  0  0  0  0
    8.4885  -16.5882   26.7310 C   0  0  0  0  0  0  0  0  0  0  0  0
    7.5802  -15.5448   26.2186 C   0  0  0  0  0  0  0  0  0  0  0  0
    6.4479  -15.7762   25.4762 C   0  0  0  0  0  0  0  0  0  0  0  0
    5.8672  -14.6056   25.1847 N   0  0  0  0  0  0  0  0  0  0  0  0
    6.6058  -13.6025   25.7279 C   0  0  0  0  0  0  0  0  0  0  0  0
    6.4144  -12.2272   25.7007 C   0  0  0  0  0  0  0  0  0  0  0  0
    7.3219  -11.4127   26.3388 C   0  0  0  0  0  0  0  0  0  0  0  0
    8.3890  -12.0054   26.9819 C   0  0  0  0  0  0  0  0  0  0  0  0
    8.5924  -13.3598   27.0185 C   0  0  0  0  0  0  0  0  0  0  0  0
    7.6738  -14.1845   26.3724 C   0  0  0  0  0  0  0  0  0  0  0  0
   10.7102  -17.6212   26.7334 C   0  0  0  0  0  0  0  0  0  0  0  0
   11.0547  -18.6844   26.1692 O   0  0  0  0  0  0  0  0  0  0  0  0
   11.1646  -17.3611   28.0102 O   0  0  0  0  0  0  0  0  0  0  0  0
  2  1  1  1
  3  2  1  0
  4  5  1  6
  4  2  1  0
  6  4  1  0
  7  6  2  0
  8  6  1  0
  9 10  1  6
  9  8  1  0
 10 11  1  0
 11 12  2  0
 13  9  1  0
 14 13  2  0
 15 11  1  0
 16 13  1  0
 17 18  1  1
 17 16  1  0
 18 19  1  0
 19 20  2  0
 19 27  1  0
 20 21  1  0
 21 22  1  0
 22 23  2  0
 24 23  1  0
 25 24  2  0
 26 27  2  0
 26 25  1  0
 27 22  1  0
 28 30  1  0
 28 17  1  0
 29 28  2  0
M  END
$$$$
