VDW.pdb
     RDKit          3D

 30 31  0  0  1  0  0  0  0  0999 V2000
    7.6934  -12.5747   19.7494 C   0  0  0  0  0  0  0  0  0  0  0  0
    8.2157  -13.4761   20.8283 C   0  0  1  0  0  0  0  0  0  0  0  0
    7.3630  -13.3695   22.0690 C   0  0  0  0  0  0  0  0  0  0  0  0
    8.2711  -14.9189   20.4104 C   0  0  2  0  0  0  0  0  0  0  0  0
    6.9544  -15.3193   19.9561 N   0  0  0  0  0  0  0  0  0  0  0  0
    8.7959  -15.8288   21.4370 C   0  0  0  0  0  0  0  0  0  0  0  0
    8.0658  -16.7585   21.8809 O   0  0  0  0  0  0  0  0  0  0  0  0
   10.1079  -15.7530   21.9997 N   0  0  0  0  0  0  0  0  0  0  0  0
   10.8177  -16.8945   22.5179 C   0  0  1  0  0  0  0  0  0  0  0  0
   12.1760  -17.0342   21.8940 C   0  0  0  0  0  0  0  0  0  0  0  0
   12.9141  -18.1958   22.3963 C   0  0  0  0  0  0  0  0  0  0  0  0
   12.3710  -19.2909   22.7371 O   0  0  0  0  0  0  0  0  0  0  0  0
   10.9016  -16.8938   23.9895 C   0  0  0  0  0  0  0  0  0  0  0  0
   11.4737  -17.8329   24.5858 O   0  0  0  0  0  0  0  0  0  0  0  0
   14.3080  -18.1814   22.5404 O   0  0  0  0  0  0  0  0  0  0  0  0
   10.3291  -15.8204   24.7151 N   0  0  0  0  0  0  0  0  0  0  0  0
   10.0933  -15.9160   26.1435 C   0  0  1  0  0  0  0  0  0  0  0  0
    8.7592  -16.5467   26.3967 C   0  0  0  0  0  0  0  0  0  0  0  0
    7.6173  -15.6615   26.0992 C   0  0  0  0  0  0  0  0  0  0  0  0
    6.4203  -16.0675   25.5616 C   0  0  0  0  0  0  0  0  0  0  0  0
    5.6162  -15.0054   25.4282 N   0  0  0  0  0  0  0  0  0  0  0  0
    6.2712  -13.9009   25.8729 C   0  0  0  0  0  0  0  0  0  0  0  0
    5.8602  -12.5759   25.9385 C   0  0  0  0  0  0  0  0  0  0  0  0
    6.7268  -11.6307   26.4385 C   0  0  0  0  0  0  0  0  0  0  0  0
    7.9744  -12.0469   26.8552 C   0  0  0  0  0  0  0  0  0  0  0  0
    8.3954  -13.3494   26.7975 C   0  0  0  0  0  0  0  0  0  0  0  0
    7.5183  -14.3065   26.2913 C   0  0  0  0  0  0  0  0  0  0  0  0
   11.1687  -16.7558   26.7892 C   0  0  0  0  0  0  0  0  0  0  0  0
   11.1588  -16.9636   28.0238 O   0  0  0  0  0  0  0  0  0  0  0  0
   12.1771  -17.3054   26.0241 O   0  0  0  0  0  0  0  0  0  0  0  0
  2  1  1  6
  3  2  1  0
  4  5  1  1
  4  2  1  0
  6  4  1  0
  7  6  2  0
  8  6  1  0
  9 10  1  6
  9  8  1  0
 10 11  1  0
 11 12  2  0
 13  9  1  0
 14 13  2  0
 15 11  1  0
 16 13  1  0
 17 18  1  6
 17 16  1  0
 18 19  1  0
 19 20  2  0
 19 27  1  0
 20 21  1  0
 21 22  1  0
 22 23  2  0
 24 23  1  0
 25 24  2  0
 26 27  2  0
 26 25  1  0
 27 22  1  0
 28 30  1  0
 28 17  1  0
 29 28  2  0
M  END
$$$$
