VDW.pdb
     RDKit          3D

 30 31  0  0  1  0  0  0  0  0999 V2000
    8.8353  -12.8410   21.2171 C   0  0  0  0  0  0  0  0  0  0  0  0
    7.6265  -13.4329   20.5555 C   0  0  1  0  0  0  0  0  0  0  0  0
    7.1387  -12.5387   19.4418 C   0  0  0  0  0  0  0  0  0  0  0  0
    7.8794  -14.8028   19.9908 C   0  0  2  0  0  0  0  0  0  0  0  0
    6.6940  -15.2346   19.2775 N   0  0  0  0  0  0  0  0  0  0  0  0
    8.3148  -15.7968   20.9806 C   0  0  0  0  0  0  0  0  0  0  0  0
    7.4611  -16.3499   21.7288 O   0  0  0  0  0  0  0  0  0  0  0  0
    9.6690  -16.2091   21.1804 N   0  0  0  0  0  0  0  0  0  0  0  0
   10.0759  -17.1290   22.2117 C   0  0  1  0  0  0  0  0  0  0  0  0
   11.1854  -18.0278   21.7484 C   0  0  0  0  0  0  0  0  0  0  0  0
   11.6354  -18.9560   22.7889 C   0  0  0  0  0  0  0  0  0  0  0  0
   10.9220  -19.8910   23.2652 O   0  0  0  0  0  0  0  0  0  0  0  0
   10.4263  -16.4522   23.4734 C   0  0  0  0  0  0  0  0  0  0  0  0
   11.2954  -15.5526   23.4827 O   0  0  0  0  0  0  0  0  0  0  0  0
   12.9183  -18.8764   23.3472 O   0  0  0  0  0  0  0  0  0  0  0  0
    9.7683  -16.8323   24.6689 N   0  0  0  0  0  0  0  0  0  0  0  0
   10.3479  -16.5561   25.9699 C   0  0  1  0  0  0  0  0  0  0  0  0
    9.8929  -15.2142   26.4539 C   0  0  0  0  0  0  0  0  0  0  0  0
    8.4607  -14.9515   26.2172 C   0  0  0  0  0  0  0  0  0  0  0  0
    7.5233  -15.9039   25.8994 C   0  0  0  0  0  0  0  0  0  0  0  0
    6.3295  -15.3147   25.7575 N   0  0  0  0  0  0  0  0  0  0  0  0
    6.4696  -13.9813   25.9787 C   0  0  0  0  0  0  0  0  0  0  0  0
    5.5288  -12.9599   25.9484 C   0  0  0  0  0  0  0  0  0  0  0  0
    5.9322  -11.6710   26.2131 C   0  0  0  0  0  0  0  0  0  0  0  0
    7.2638  -11.4511   26.4990 C   0  0  0  0  0  0  0  0  0  0  0  0
    8.2043  -12.4469   26.5331 C   0  0  0  0  0  0  0  0  0  0  0  0
    7.7963  -13.7519   26.2650 C   0  0  0  0  0  0  0  0  0  0  0  0
    9.9192  -17.6113   26.9606 C   0  0  0  0  0  0  0  0  0  0  0  0
    9.1370  -18.5265   26.6175 O   0  0  0  0  0  0  0  0  0  0  0  0
   10.3859  -17.5788   28.2590 O   0  0  0  0  0  0  0  0  0  0  0  0
  2  1  1  6
  3  2  1  0
  4  5  1  1
  4  2  1  0
  6  4  1  0
  7  6  2  0
  8  6  1  0
  9 10  1  6
  9  8  1  0
 10 11  1  0
 11 12  2  0
 13  9  1  0
 14 13  2  0
 15 11  1  0
 16 13  1  0
 17 18  1  1
 17 16  1  0
 18 19  1  0
 19 20  2  0
 19 27  1  0
 20 21  1  0
 21 22  1  0
 22 23  2  0
 24 23  1  0
 25 24  2  0
 26 27  2  0
 26 25  1  0
 27 22  1  0
 28 30  1  0
 28 17  1  0
 29 28  2  0
M  END
$$$$
