VDW.pdb
     RDKit          3D

 30 31  0  0  1  0  0  0  0  0999 V2000
    7.0501  -12.7691   20.6547 C   0  0  0  0  0  0  0  0  0  0  0  0
    8.0152  -13.9096   20.5243 C   0  0  1  0  0  0  0  0  0  0  0  0
    9.4104  -13.4705   20.8965 C   0  0  0  0  0  0  0  0  0  0  0  0
    7.6442  -15.0913   21.3761 C   0  0  2  0  0  0  0  0  0  0  0  0
    7.6803  -14.6874   22.7675 N   0  0  0  0  0  0  0  0  0  0  0  0
    8.4538  -16.2926   21.1339 C   0  0  0  0  0  0  0  0  0  0  0  0
    8.6406  -16.6928   19.9509 O   0  0  0  0  0  0  0  0  0  0  0  0
    9.0718  -17.0787   22.1556 N   0  0  0  0  0  0  0  0  0  0  0  0
   10.4601  -16.9578   22.5209 C   0  0  1  0  0  0  0  0  0  0  0  0
   11.1649  -15.9240   21.6912 C   0  0  0  0  0  0  0  0  0  0  0  0
   12.0292  -16.5132   20.6653 C   0  0  0  0  0  0  0  0  0  0  0  0
   11.8635  -17.6717   20.1748 O   0  0  0  0  0  0  0  0  0  0  0  0
   10.6510  -16.7098   23.9613 C   0  0  0  0  0  0  0  0  0  0  0  0
   11.7812  -16.4023   24.4007 O   0  0  0  0  0  0  0  0  0  0  0  0
   13.1289  -15.8226   20.1381 O   0  0  0  0  0  0  0  0  0  0  0  0
    9.5429  -16.8233   24.8362 N   0  0  0  0  0  0  0  0  0  0  0  0
    9.6920  -16.6516   26.2691 C   0  0  1  0  0  0  0  0  0  0  0  0
    8.3466  -16.4751   26.9021 C   0  0  0  0  0  0  0  0  0  0  0  0
    7.4723  -15.5277   26.1851 C   0  0  0  0  0  0  0  0  0  0  0  0
    6.4090  -15.8787   25.3896 C   0  0  0  0  0  0  0  0  0  0  0  0
    5.8411  -14.7691   24.9009 N   0  0  0  0  0  0  0  0  0  0  0  0
    6.5199  -13.6877   25.3664 C   0  0  0  0  0  0  0  0  0  0  0  0
    6.3154  -12.3321   25.1438 C   0  0  0  0  0  0  0  0  0  0  0  0
    7.1567  -11.4217   25.7416 C   0  0  0  0  0  0  0  0  0  0  0  0
    8.1730  -11.9018   26.5416 C   0  0  0  0  0  0  0  0  0  0  0  0
    8.3884  -13.2352   26.7717 C   0  0  0  0  0  0  0  0  0  0  0  0
    7.5368  -14.1571   26.1665 C   0  0  0  0  0  0  0  0  0  0  0  0
   10.3653  -17.8632   26.8670 C   0  0  0  0  0  0  0  0  0  0  0  0
   10.7204  -17.8667   28.0675 O   0  0  0  0  0  0  0  0  0  0  0  0
   10.5976  -18.9832   26.0950 O   0  0  0  0  0  0  0  0  0  0  0  0
  2  1  1  1
  3  2  1  0
  4  5  1  1
  4  2  1  0
  6  4  1  0
  7  6  2  0
  8  6  1  0
  9 10  1  6
  9  8  1  0
 10 11  1  0
 11 12  2  0
 13  9  1  0
 14 13  2  0
 15 11  1  0
 16 13  1  0
 17 18  1  1
 17 16  1  0
 18 19  1  0
 19 20  2  0
 19 27  1  0
 20 21  1  0
 21 22  1  0
 22 23  2  0
 24 23  1  0
 25 24  2  0
 26 27  2  0
 26 25  1  0
 27 22  1  0
 28 30  1  0
 28 17  1  0
 29 28  2  0
M  END
$$$$
