VDW.pdb
     RDKit          3D

 30 31  0  0  1  0  0  0  0  0999 V2000
    8.9816  -12.9020   20.8481 C   0  0  0  0  0  0  0  0  0  0  0  0
    7.8323  -13.5313   20.1186 C   0  0  1  0  0  0  0  0  0  0  0  0
    7.2857  -12.5890   19.0740 C   0  0  0  0  0  0  0  0  0  0  0  0
    8.2020  -14.8245   19.4473 C   0  0  2  0  0  0  0  0  0  0  0  0
    7.0706  -15.2782   18.6636 N   0  0  0  0  0  0  0  0  0  0  0  0
    8.6872  -15.8664   20.3618 C   0  0  0  0  0  0  0  0  0  0  0  0
    7.8603  -16.5380   21.0398 O   0  0  0  0  0  0  0  0  0  0  0  0
   10.0629  -16.2004   20.5606 N   0  0  0  0  0  0  0  0  0  0  0  0
   10.5155  -17.1562   21.5389 C   0  0  1  0  0  0  0  0  0  0  0  0
   11.7009  -17.9354   21.0475 C   0  0  0  0  0  0  0  0  0  0  0  0
   12.1639  -18.9336   22.0147 C   0  0  0  0  0  0  0  0  0  0  0  0
   11.4181  -19.4847   22.8808 O   0  0  0  0  0  0  0  0  0  0  0  0
   10.7842  -16.5437   22.8525 C   0  0  0  0  0  0  0  0  0  0  0  0
   11.6005  -15.6008   22.9501 O   0  0  0  0  0  0  0  0  0  0  0  0
   13.4974  -19.3629   22.0544 O   0  0  0  0  0  0  0  0  0  0  0  0
   10.1086  -17.0347   23.9966 N   0  0  0  0  0  0  0  0  0  0  0  0
   10.3094  -16.4401   25.3046 C   0  0  1  0  0  0  0  0  0  0  0  0
    9.8955  -15.0015   25.2773 C   0  0  0  0  0  0  0  0  0  0  0  0
    8.4560  -14.7926   25.5227 C   0  0  0  0  0  0  0  0  0  0  0  0
    7.4838  -15.7546   25.3961 C   0  0  0  0  0  0  0  0  0  0  0  0
    6.2942  -15.2190   25.6969 N   0  0  0  0  0  0  0  0  0  0  0  0
    6.4716  -13.9112   26.0211 C   0  0  0  0  0  0  0  0  0  0  0  0
    5.5494  -12.9448   26.4011 C   0  0  0  0  0  0  0  0  0  0  0  0
    5.9913  -11.6717   26.6806 C   0  0  0  0  0  0  0  0  0  0  0  0
    7.3417  -11.4122   26.5696 C   0  0  0  0  0  0  0  0  0  0  0  0
    8.2645  -12.3536   26.1963 C   0  0  0  0  0  0  0  0  0  0  0  0
    7.8173  -13.6426   25.9132 C   0  0  0  0  0  0  0  0  0  0  0  0
    9.4864  -17.1726   26.3365 C   0  0  0  0  0  0  0  0  0  0  0  0
    8.6581  -18.0444   25.9884 O   0  0  0  0  0  0  0  0  0  0  0  0
    9.6381  -16.8888   27.6785 O   0  0  0  0  0  0  0  0  0  0  0  0
  2  1  1  6
  3  2  1  0
  4  5  1  1
  4  2  1  0
  6  4  1  0
  7  6  2  0
  8  6  1  0
  9 10  1  6
  9  8  1  0
 10 11  1  0
 11 12  2  0
 13  9  1  0
 14 13  2  0
 15 11  1  0
 16 13  1  0
 17 18  1  6
 17 16  1  0
 18 19  1  0
 19 20  2  0
 19 27  1  0
 20 21  1  0
 21 22  1  0
 22 23  2  0
 24 23  1  0
 25 24  2  0
 26 27  2  0
 26 25  1  0
 27 22  1  0
 28 30  1  0
 28 17  1  0
 29 28  2  0
M  END
$$$$
