VDW.pdb
     RDKit          3D

 30 31  0  0  1  0  0  0  0  0999 V2000
    8.4176  -13.5077   22.3566 C   0  0  0  0  0  0  0  0  0  0  0  0
    7.5671  -14.4465   21.5537 C   0  0  1  0  0  0  0  0  0  0  0  0
    6.6848  -13.6799   20.5989 C   0  0  0  0  0  0  0  0  0  0  0  0
    8.3745  -15.4389   20.7645 C   0  0  2  0  0  0  0  0  0  0  0  0
    7.4742  -16.2024   19.9237 N   0  0  0  0  0  0  0  0  0  0  0  0
    9.2322  -16.3091   21.5795 C   0  0  0  0  0  0  0  0  0  0  0  0
    8.8862  -17.5043   21.7946 O   0  0  0  0  0  0  0  0  0  0  0  0
   10.4696  -15.9091   22.1733 N   0  0  0  0  0  0  0  0  0  0  0  0
   11.3885  -16.8299   22.7924 C   0  0  1  0  0  0  0  0  0  0  0  0
   12.8156  -16.4872   22.4767 C   0  0  0  0  0  0  0  0  0  0  0  0
   13.2017  -16.8654   21.1149 C   0  0  0  0  0  0  0  0  0  0  0  0
   12.7232  -17.8608   20.4902 O   0  0  0  0  0  0  0  0  0  0  0  0
   11.1768  -16.9560   24.2456 C   0  0  0  0  0  0  0  0  0  0  0  0
   11.9215  -17.6954   24.9265 O   0  0  0  0  0  0  0  0  0  0  0  0
   14.1511  -16.1369   20.3854 O   0  0  0  0  0  0  0  0  0  0  0  0
   10.1243  -16.2318   24.8574 N   0  0  0  0  0  0  0  0  0  0  0  0
    9.9156  -16.2714   26.2926 C   0  0  1  0  0  0  0  0  0  0  0  0
    8.4842  -16.5956   26.5888 C   0  0  0  0  0  0  0  0  0  0  0  0
    7.5318  -15.5801   26.1013 C   0  0  0  0  0  0  0  0  0  0  0  0
    6.3590  -15.8486   25.4385 C   0  0  0  0  0  0  0  0  0  0  0  0
    5.7454  -14.6948   25.1470 N   0  0  0  0  0  0  0  0  0  0  0  0
    6.5024  -13.6662   25.6113 C   0  0  0  0  0  0  0  0  0  0  0  0
    6.2909  -12.2948   25.5527 C   0  0  0  0  0  0  0  0  0  0  0  0
    7.2249  -11.4496   26.1071 C   0  0  0  0  0  0  0  0  0  0  0  0
    8.3378  -12.0086   26.7009 C   0  0  0  0  0  0  0  0  0  0  0  0
    8.5615  -13.3587   26.7674 C   0  0  0  0  0  0  0  0  0  0  0  0
    7.6161  -14.2145   26.2060 C   0  0  0  0  0  0  0  0  0  0  0  0
   10.8007  -17.3246   26.9141 C   0  0  0  0  0  0  0  0  0  0  0  0
   11.5485  -18.0302   26.1999 O   0  0  0  0  0  0  0  0  0  0  0  0
   10.7955  -17.5218   28.2800 O   0  0  0  0  0  0  0  0  0  0  0  0
  2  1  1  6
  3  2  1  0
  4  5  1  1
  4  2  1  0
  6  4  1  0
  7  6  2  0
  8  6  1  0
  9 10  1  1
  9  8  1  0
 10 11  1  0
 11 12  2  0
 13  9  1  0
 14 13  2  0
 15 11  1  0
 16 13  1  0
 17 18  1  6
 17 16  1  0
 18 19  1  0
 19 20  2  0
 19 27  1  0
 20 21  1  0
 21 22  1  0
 22 23  2  0
 24 23  1  0
 25 24  2  0
 26 27  2  0
 26 25  1  0
 27 22  1  0
 28 30  1  0
 28 17  1  0
 29 28  2  0
M  END
$$$$
