VDW.pdb
     RDKit          3D

 30 31  0  0  1  0  0  0  0  0999 V2000
    6.8501  -13.1413   19.4479 C   0  0  0  0  0  0  0  0  0  0  0  0
    8.0293  -13.9464   19.9067 C   0  0  1  0  0  0  0  0  0  0  0  0
    8.5904  -13.3836   21.1898 C   0  0  0  0  0  0  0  0  0  0  0  0
    7.6991  -15.3963   20.1263 C   0  0  2  0  0  0  0  0  0  0  0  0
    6.5532  -15.4805   21.0096 N   0  0  0  0  0  0  0  0  0  0  0  0
    8.8232  -16.2088   20.6094 C   0  0  0  0  0  0  0  0  0  0  0  0
    9.3736  -17.0392   19.8335 O   0  0  0  0  0  0  0  0  0  0  0  0
    9.3699  -16.1414   21.9286 N   0  0  0  0  0  0  0  0  0  0  0  0
   10.5538  -16.8543   22.3357 C   0  0  1  0  0  0  0  0  0  0  0  0
   11.7282  -16.5270   21.4596 C   0  0  0  0  0  0  0  0  0  0  0  0
   12.9306  -17.2841   21.8169 C   0  0  0  0  0  0  0  0  0  0  0  0
   13.9454  -16.7798   22.3879 O   0  0  0  0  0  0  0  0  0  0  0  0
   10.8767  -16.6566   23.7603 C   0  0  0  0  0  0  0  0  0  0  0  0
   11.8328  -15.9208   24.0908 O   0  0  0  0  0  0  0  0  0  0  0  0
   13.0499  -18.6542   21.5474 O   0  0  0  0  0  0  0  0  0  0  0  0
   10.0931  -17.3076   24.7446 N   0  0  0  0  0  0  0  0  0  0  0  0
   10.2897  -17.0485   26.1585 C   0  0  1  0  0  0  0  0  0  0  0  0
   10.0641  -15.5963   26.4447 C   0  0  0  0  0  0  0  0  0  0  0  0
    8.6916  -15.1398   26.1551 C   0  0  0  0  0  0  0  0  0  0  0  0
    7.6723  -15.9381   25.6964 C   0  0  0  0  0  0  0  0  0  0  0  0
    6.5678  -15.1966   25.5454 N   0  0  0  0  0  0  0  0  0  0  0  0
    6.8482  -13.9151   25.9002 C   0  0  0  0  0  0  0  0  0  0  0  0
    6.0378  -12.7873   25.9154 C   0  0  0  0  0  0  0  0  0  0  0  0
    6.5709  -11.5860   26.3237 C   0  0  0  0  0  0  0  0  0  0  0  0
    7.8972  -11.5573   26.7026 C   0  0  0  0  0  0  0  0  0  0  0  0
    8.7101  -12.6602   26.6936 C   0  0  0  0  0  0  0  0  0  0  0  0
    8.1706  -13.8765   26.2802 C   0  0  0  0  0  0  0  0  0  0  0  0
    9.3206  -17.8701   26.9736 C   0  0  0  0  0  0  0  0  0  0  0  0
    8.4405  -18.5601   26.4108 O   0  0  0  0  0  0  0  0  0  0  0  0
    9.3941  -17.8700   28.3516 O   0  0  0  0  0  0  0  0  0  0  0  0
  2  1  1  1
  3  2  1  0
  4  5  1  1
  4  2  1  0
  6  4  1  0
  7  6  2  0
  8  6  1  0
  9 10  1  6
  9  8  1  0
 10 11  1  0
 11 12  2  0
 13  9  1  0
 14 13  2  0
 15 11  1  0
 16 13  1  0
 17 18  1  6
 17 16  1  0
 18 19  1  0
 19 20  2  0
 19 27  1  0
 20 21  1  0
 21 22  1  0
 22 23  2  0
 24 23  1  0
 25 24  2  0
 26 27  2  0
 26 25  1  0
 27 22  1  0
 28 30  1  0
 28 17  1  0
 29 28  2  0
M  END
$$$$
