VDW.pdb
     RDKit          3D

 30 31  0  0  1  0  0  0  0  0999 V2000
    5.8637  -15.5032   21.2356 C   0  0  0  0  0  0  0  0  0  0  0  0
    7.1403  -15.9772   21.8641 C   0  0  1  0  0  0  0  0  0  0  0  0
    6.8543  -16.9665   22.9674 C   0  0  0  0  0  0  0  0  0  0  0  0
    8.0755  -16.6197   20.8782 C   0  0  2  0  0  0  0  0  0  0  0  0
    7.4123  -17.7679   20.2931 N   0  0  0  0  0  0  0  0  0  0  0  0
    9.3915  -16.9695   21.4285 C   0  0  0  0  0  0  0  0  0  0  0  0
    9.6496  -18.1717   21.7161 O   0  0  0  0  0  0  0  0  0  0  0  0
   10.4453  -16.0361   21.6773 N   0  0  0  0  0  0  0  0  0  0  0  0
   11.7654  -16.4231   22.1052 C   0  0  1  0  0  0  0  0  0  0  0  0
   12.8222  -15.5294   21.5237 C   0  0  0  0  0  0  0  0  0  0  0  0
   14.1777  -15.9267   21.9125 C   0  0  0  0  0  0  0  0  0  0  0  0
   14.4761  -17.0629   22.3923 O   0  0  0  0  0  0  0  0  0  0  0  0
   11.8862  -16.5118   23.5715 C   0  0  0  0  0  0  0  0  0  0  0  0
   12.9750  -16.8398   24.0928 O   0  0  0  0  0  0  0  0  0  0  0  0
   15.2703  -15.0592   21.7792 O   0  0  0  0  0  0  0  0  0  0  0  0
   10.7585  -16.2214   24.3780 N   0  0  0  0  0  0  0  0  0  0  0  0
   10.8111  -16.3470   25.8224 C   0  0  1  0  0  0  0  0  0  0  0  0
   10.2272  -15.1247   26.4600 C   0  0  0  0  0  0  0  0  0  0  0  0
    8.7993  -14.9183   26.1519 C   0  0  0  0  0  0  0  0  0  0  0  0
    7.9092  -15.9113   25.8228 C   0  0  0  0  0  0  0  0  0  0  0  0
    6.7043  -15.3678   25.6098 N   0  0  0  0  0  0  0  0  0  0  0  0
    6.7903  -14.0243   25.7951 C   0  0  0  0  0  0  0  0  0  0  0  0
    5.8189  -13.0371   25.6912 C   0  0  0  0  0  0  0  0  0  0  0  0
    6.1672  -11.7278   25.9330 C   0  0  0  0  0  0  0  0  0  0  0  0
    7.4766  -11.4540   26.2706 C   0  0  0  0  0  0  0  0  0  0  0  0
    8.4467  -12.4156   26.3775 C   0  0  0  0  0  0  0  0  0  0  0  0
    8.0944  -13.7412   26.1327 C   0  0  0  0  0  0  0  0  0  0  0  0
   10.0266  -17.5587   26.2641 C   0  0  0  0  0  0  0  0  0  0  0  0
    9.2751  -18.1578   25.4619 O   0  0  0  0  0  0  0  0  0  0  0  0
   10.1293  -18.0208   27.5605 O   0  0  0  0  0  0  0  0  0  0  0  0
  2  1  1  6
  3  2  1  0
  4  5  1  1
  4  2  1  0
  6  4  1  0
  7  6  2  0
  8  6  1  0
  9 10  1  1
  9  8  1  0
 10 11  1  0
 11 12  2  0
 13  9  1  0
 14 13  2  0
 15 11  1  0
 16 13  1  0
 17 18  1  1
 17 16  1  0
 18 19  1  0
 19 20  2  0
 19 27  1  0
 20 21  1  0
 21 22  1  0
 22 23  2  0
 24 23  1  0
 25 24  2  0
 26 27  2  0
 26 25  1  0
 27 22  1  0
 28 30  1  0
 28 17  1  0
 29 28  2  0
M  END
$$$$
