ECL.pdb
     RDKit          3D

 24 23  0  0  1  0  0  0  0  0999 V2000
   16.1572  -12.9663  -15.2836 N   0  0  0  0  0  0  0  0  0  0  0  0
   17.4758  -13.0774  -15.8746 C   0  0  1  0  0  0  0  0  0  0  0  0
   17.4333  -14.1699  -16.9196 C   0  0  0  0  0  0  0  0  0  0  0  0
   17.6859  -15.4761  -16.1966 C   0  0  0  0  0  0  0  0  0  0  0  0
   16.4578  -16.0071  -15.5767 C   0  0  0  0  0  0  0  0  0  0  0  0
   15.6256  -16.6292  -16.2813 O   0  0  0  0  0  0  0  0  0  0  0  0
   17.8605  -11.7740  -16.4264 C   0  0  0  0  0  0  0  0  0  0  0  0
   17.4217  -11.4261  -17.5353 O   0  0  0  0  0  0  0  0  0  0  0  0
   16.1814  -15.8458  -14.2316 O   0  0  0  0  0  0  0  0  0  0  0  0
   18.7239  -10.8553  -15.7627 N   0  0  0  0  0  0  0  0  0  0  0  0
   19.0523   -9.5428  -16.1878 C   0  0  1  0  0  0  0  0  0  0  0  0
   17.8836   -8.6127  -16.3295 C   0  0  0  0  0  0  0  0  0  0  0  0
   17.0510   -8.2504  -14.7837 S   0  0  0  0  0  0  0  0  0  0  0  0
   20.1265   -8.9759  -15.3493 C   0  0  0  0  0  0  0  0  0  0  0  0
   20.0781   -9.1617  -14.1088 O   0  0  0  0  0  0  0  0  0  0  0  0
   25.3898   -9.2000  -16.9516 C   0  0  0  0  0  0  0  0  0  0  0  0
   24.0900   -9.2038  -16.1800 C   0  0  1  0  0  0  0  0  0  0  0  0
   24.0956  -10.2081  -15.0755 C   0  0  0  0  0  0  0  0  0  0  0  0
   23.6617   -7.8560  -15.7159 C   0  0  0  0  0  0  0  0  0  0  0  0
   22.3255   -7.7722  -15.0676 C   0  0  2  0  0  0  0  0  0  0  0  0
   21.2194   -8.2269  -15.8623 N   0  0  0  0  0  0  0  0  0  0  0  0
   22.1246   -6.3580  -14.6149 C   0  0  0  0  0  0  0  0  0  0  0  0
   21.2204   -5.6887  -15.1611 O   0  0  0  0  0  0  0  0  0  0  0  0
   22.8913   -5.7776  -13.6311 O   0  0  0  0  0  0  0  0  0  0  0  0
  2  1  1  6
  2  7  1  0
  3  2  1  0
  3  4  1  0
  4  5  1  0
  5  6  2  0
  5  9  1  0
  7  8  2  0
 10  7  1  0
 10 11  1  0
 11 14  1  0
 11 12  1  1
 13 12  1  0
 14 21  1  0
 15 14  2  0
 17 16  1  1
 18 17  1  0
 19 17  1  0
 20 19  1  6
 21 20  1  0
 22 24  1  0
 22 20  1  0
 23 22  2  0
M  END
$$$$
