ECL.pdb
     RDKit          3D

 24 23  0  0  1  0  0  0  0  0999 V2000
   24.6021  -21.4311  -15.8150 N   0  0  0  0  0  0  0  0  0  0  0  0
   24.7666  -19.9917  -15.8527 C   0  0  1  0  0  0  0  0  0  0  0  0
   23.7590  -19.4276  -16.8293 C   0  0  0  0  0  0  0  0  0  0  0  0
   22.4982  -20.2530  -16.6818 C   0  0  0  0  0  0  0  0  0  0  0  0
   21.4399  -19.5162  -15.9666 C   0  0  0  0  0  0  0  0  0  0  0  0
   20.7100  -20.1210  -15.1435 O   0  0  0  0  0  0  0  0  0  0  0  0
   24.6062  -19.4594  -14.4954 C   0  0  0  0  0  0  0  0  0  0  0  0
   24.6361  -18.2309  -14.3131 O   0  0  0  0  0  0  0  0  0  0  0  0
   21.2155  -18.1669  -16.1681 O   0  0  0  0  0  0  0  0  0  0  0  0
   24.4129  -20.2732  -13.3419 N   0  0  0  0  0  0  0  0  0  0  0  0
   24.1984  -19.8237  -12.0142 C   0  0  1  0  0  0  0  0  0  0  0  0
   22.7601  -19.7638  -11.5911 C   0  0  0  0  0  0  0  0  0  0  0  0
   21.9876  -21.3716  -11.4116 S   0  0  0  0  0  0  0  0  0  0  0  0
   25.0350  -20.5828  -11.0644 C   0  0  0  0  0  0  0  0  0  0  0  0
   25.4326  -21.7257  -11.3985 O   0  0  0  0  0  0  0  0  0  0  0  0
   29.0657  -19.5790   -6.6557 C   0  0  0  0  0  0  0  0  0  0  0  0
   27.6488  -19.9720   -7.0055 C   0  0  1  0  0  0  0  0  0  0  0  0
   26.6584  -18.9386   -6.5814 C   0  0  0  0  0  0  0  0  0  0  0  0
   27.4698  -20.3763   -8.4266 C   0  0  0  0  0  0  0  0  0  0  0  0
   26.1228  -20.8797   -8.8077 C   0  0  2  0  0  0  0  0  0  0  0  0
   25.4208  -20.0975   -9.7860 N   0  0  0  0  0  0  0  0  0  0  0  0
   25.3184  -21.0296   -7.5524 C   0  0  0  0  0  0  0  0  0  0  0  0
   24.2825  -20.3395   -7.4321 O   0  0  0  0  0  0  0  0  0  0  0  0
   25.6760  -21.8897   -6.5400 O   0  0  0  0  0  0  0  0  0  0  0  0
  2  1  1  1
  2  7  1  0
  3  2  1  0
  3  4  1  0
  4  5  1  0
  5  6  2  0
  5  9  1  0
  7  8  2  0
 10  7  1  0
 10 11  1  0
 11 14  1  0
 11 12  1  1
 13 12  1  0
 14 21  1  0
 15 14  2  0
 17 16  1  6
 18 17  1  0
 19 17  1  0
 20 19  1  1
 21 20  1  0
 22 24  1  0
 22 20  1  0
 23 22  2  0
M  END
$$$$
