ECL.pdb
     RDKit          3D

 24 23  0  0  1  0  0  0  0  0999 V2000
   27.6006  -10.9589  -20.3004 N   0  0  0  0  0  0  0  0  0  0  0  0
   28.6290  -11.1340  -19.2943 C   0  0  1  0  0  0  0  0  0  0  0  0
   29.2092  -12.5219  -19.4501 C   0  0  0  0  0  0  0  0  0  0  0  0
   28.1448  -13.4948  -18.9884 C   0  0  0  0  0  0  0  0  0  0  0  0
   28.5717  -14.8963  -19.1563 C   0  0  0  0  0  0  0  0  0  0  0  0
   29.7832  -15.1565  -19.3574 O   0  0  0  0  0  0  0  0  0  0  0  0
   29.6317  -10.0750  -19.4505 C   0  0  0  0  0  0  0  0  0  0  0  0
   29.9186   -9.6679  -20.5886 O   0  0  0  0  0  0  0  0  0  0  0  0
   27.6792  -15.9509  -19.1005 O   0  0  0  0  0  0  0  0  0  0  0  0
   30.3169   -9.4644  -18.3606 N   0  0  0  0  0  0  0  0  0  0  0  0
   31.1928   -8.3511  -18.4273 C   0  0  1  0  0  0  0  0  0  0  0  0
   30.6056   -7.1210  -19.0544 C   0  0  0  0  0  0  0  0  0  0  0  0
   28.8229   -7.0081  -18.9032 S   0  0  0  0  0  0  0  0  0  0  0  0
   31.7937   -8.0797  -17.1069 C   0  0  0  0  0  0  0  0  0  0  0  0
   31.0317   -7.9539  -16.1173 O   0  0  0  0  0  0  0  0  0  0  0  0
   36.7833  -10.1445  -15.7197 C   0  0  0  0  0  0  0  0  0  0  0  0
   35.3428   -9.6903  -15.7752 C   0  0  1  0  0  0  0  0  0  0  0  0
   34.4364  -10.6041  -15.0188 C   0  0  0  0  0  0  0  0  0  0  0  0
   35.1468   -8.2632  -15.4009 C   0  0  0  0  0  0  0  0  0  0  0  0
   33.7809   -7.7080  -15.5980 C   0  0  2  0  0  0  0  0  0  0  0  0
   33.1910   -7.9504  -16.8845 N   0  0  0  0  0  0  0  0  0  0  0  0
   33.8344   -6.2421  -15.2920 C   0  0  0  0  0  0  0  0  0  0  0  0
   34.1323   -5.8950  -14.1282 O   0  0  0  0  0  0  0  0  0  0  0  0
   33.5702   -5.2768  -16.2359 O   0  0  0  0  0  0  0  0  0  0  0  0
  2  1  1  6
  2  7  1  0
  3  2  1  0
  3  4  1  0
  4  5  1  0
  5  6  2  0
  5  9  1  0
  7  8  2  0
 10  7  1  0
 10 11  1  0
 11 14  1  0
 11 12  1  1
 13 12  1  0
 14 21  1  0
 15 14  2  0
 17 16  1  1
 18 17  1  0
 19 17  1  0
 20 19  1  6
 21 20  1  0
 22 24  1  0
 22 20  1  0
 23 22  2  0
M  END
$$$$
