ECL.pdb
     RDKit          3D

 24 23  0  0  1  0  0  0  0  0999 V2000
   16.9737  -10.8921  -14.3670 N   0  0  0  0  0  0  0  0  0  0  0  0
   17.6479  -10.0027  -15.2916 C   0  0  1  0  0  0  0  0  0  0  0  0
   16.6355   -9.0057  -15.8096 C   0  0  0  0  0  0  0  0  0  0  0  0
   15.6559   -9.7819  -16.6644 C   0  0  0  0  0  0  0  0  0  0  0  0
   14.5364   -8.9377  -17.1209 C   0  0  0  0  0  0  0  0  0  0  0  0
   14.4703   -7.7402  -16.7499 O   0  0  0  0  0  0  0  0  0  0  0  0
   18.7750   -9.3660  -14.6019 C   0  0  0  0  0  0  0  0  0  0  0  0
   18.5841   -8.7996  -13.5128 O   0  0  0  0  0  0  0  0  0  0  0  0
   13.5420   -9.4179  -17.9530 O   0  0  0  0  0  0  0  0  0  0  0  0
   20.1076   -9.3516  -15.1060 N   0  0  0  0  0  0  0  0  0  0  0  0
   21.2361   -8.7429  -14.5002 C   0  0  1  0  0  0  0  0  0  0  0  0
   22.3970   -9.6621  -14.2583 C   0  0  0  0  0  0  0  0  0  0  0  0
   22.9301  -10.5592  -15.7160 S   0  0  0  0  0  0  0  0  0  0  0  0
   21.6259   -7.5216  -15.2315 C   0  0  0  0  0  0  0  0  0  0  0  0
   22.5317   -6.7988  -14.7488 O   0  0  0  0  0  0  0  0  0  0  0  0
   21.9868   -4.9825  -20.8634 C   0  0  0  0  0  0  0  0  0  0  0  0
   21.8087   -4.7739  -19.3770 C   0  0  1  0  0  0  0  0  0  0  0  0
   20.8956   -3.6319  -19.0756 C   0  0  0  0  0  0  0  0  0  0  0  0
   21.4320   -6.0089  -18.6368 C   0  0  0  0  0  0  0  0  0  0  0  0
   21.3882   -5.9051  -17.1535 C   0  0  2  0  0  0  0  0  0  0  0  0
   21.0352   -7.1097  -16.4562 N   0  0  0  0  0  0  0  0  0  0  0  0
   20.4617   -4.7815  -16.8008 C   0  0  0  0  0  0  0  0  0  0  0  0
   19.2311   -4.9820  -16.8967 O   0  0  0  0  0  0  0  0  0  0  0  0
   20.9128   -3.5517  -16.3803 O   0  0  0  0  0  0  0  0  0  0  0  0
  2  1  1  1
  2  7  1  0
  3  2  1  0
  3  4  1  0
  4  5  1  0
  5  6  2  0
  5  9  1  0
  7  8  2  0
 10  7  1  0
 10 11  1  0
 11 14  1  0
 11 12  1  6
 13 12  1  0
 14 21  1  0
 15 14  2  0
 17 16  1  6
 18 17  1  0
 19 17  1  0
 20 19  1  6
 21 20  1  0
 22 24  1  0
 22 20  1  0
 23 22  2  0
M  END
$$$$
