ECL.pdb
     RDKit          3D

 24 23  0  0  1  0  0  0  0  0999 V2000
   19.9699  -10.5817  -14.9691 N   0  0  0  0  0  0  0  0  0  0  0  0
   19.0723   -9.4439  -14.9687 C   0  0  1  0  0  0  0  0  0  0  0  0
   17.7085   -9.9193  -15.4173 C   0  0  0  0  0  0  0  0  0  0  0  0
   17.7335   -9.9526  -16.9309 C   0  0  0  0  0  0  0  0  0  0  0  0
   16.4584   -9.4929  -17.5115 C   0  0  0  0  0  0  0  0  0  0  0  0
   15.4101  -10.1535  -17.3093 O   0  0  0  0  0  0  0  0  0  0  0  0
   19.0576   -8.8508  -13.6272 C   0  0  0  0  0  0  0  0  0  0  0  0
   18.9113   -9.5851  -12.6359 O   0  0  0  0  0  0  0  0  0  0  0  0
   16.3685   -8.3474  -18.2805 O   0  0  0  0  0  0  0  0  0  0  0  0
   19.2035   -7.4562  -13.3749 N   0  0  0  0  0  0  0  0  0  0  0  0
   19.2271   -6.8226  -12.1064 C   0  0  1  0  0  0  0  0  0  0  0  0
   20.1088   -5.6116  -12.0204 C   0  0  0  0  0  0  0  0  0  0  0  0
   21.7864   -5.8920  -12.5869 S   0  0  0  0  0  0  0  0  0  0  0  0
   17.8558   -6.5574  -11.6297 C   0  0  0  0  0  0  0  0  0  0  0  0
   16.9874   -6.2119  -12.4677 O   0  0  0  0  0  0  0  0  0  0  0  0
   13.3208   -7.2341   -8.5558 C   0  0  0  0  0  0  0  0  0  0  0  0
   14.4590   -6.4777   -7.9100 C   0  0  1  0  0  0  0  0  0  0  0  0
   14.4001   -6.5395   -6.4196 C   0  0  0  0  0  0  0  0  0  0  0  0
   15.8014   -6.8442   -8.4380 C   0  0  0  0  0  0  0  0  0  0  0  0
   16.1460   -6.3261   -9.7892 C   0  0  2  0  0  0  0  0  0  0  0  0
   17.4544   -6.6690  -10.2713 N   0  0  0  0  0  0  0  0  0  0  0  0
   15.9437   -4.8415   -9.7752 C   0  0  0  0  0  0  0  0  0  0  0  0
   16.8661   -4.1267   -9.3260 O   0  0  0  0  0  0  0  0  0  0  0  0
   14.7919   -4.2451  -10.2339 O   0  0  0  0  0  0  0  0  0  0  0  0
  2  1  1  1
  2  7  1  0
  3  2  1  0
  3  4  1  0
  4  5  1  0
  5  6  2  0
  5  9  1  0
  7  8  2  0
 10  7  1  0
 10 11  1  0
 11 14  1  0
 11 12  1  6
 13 12  1  0
 14 21  1  0
 15 14  2  0
 17 16  1  6
 18 17  1  0
 19 17  1  0
 20 19  1  1
 21 20  1  0
 22 24  1  0
 22 20  1  0
 23 22  2  0
M  END
$$$$
