ECL.pdb
     RDKit          3D

 24 23  0  0  1  0  0  0  0  0999 V2000
   27.9778  -21.6352  -15.3219 N   0  0  0  0  0  0  0  0  0  0  0  0
   27.8076  -20.8415  -14.1212 C   0  0  1  0  0  0  0  0  0  0  0  0
   27.9495  -19.3833  -14.4962 C   0  0  0  0  0  0  0  0  0  0  0  0
   27.0033  -19.1353  -15.6520 C   0  0  0  0  0  0  0  0  0  0  0  0
   27.0307  -17.7281  -16.0919 C   0  0  0  0  0  0  0  0  0  0  0  0
   27.8344  -16.9258  -15.5569 O   0  0  0  0  0  0  0  0  0  0  0  0
   26.5039  -21.1538  -13.5261 C   0  0  0  0  0  0  0  0  0  0  0  0
   25.6306  -21.7009  -14.2198 O   0  0  0  0  0  0  0  0  0  0  0  0
   26.1953  -17.2491  -17.0842 O   0  0  0  0  0  0  0  0  0  0  0  0
   26.1602  -20.8669  -12.1734 N   0  0  0  0  0  0  0  0  0  0  0  0
   24.9328  -21.1660  -11.5293 C   0  0  1  0  0  0  0  0  0  0  0  0
   24.9279  -20.9486  -10.0448 C   0  0  0  0  0  0  0  0  0  0  0  0
   26.5366  -20.5462   -9.3636 S   0  0  0  0  0  0  0  0  0  0  0  0
   23.8100  -20.4853  -12.2033 C   0  0  0  0  0  0  0  0  0  0  0  0
   23.9919  -19.3235  -12.6428 O   0  0  0  0  0  0  0  0  0  0  0  0
   22.1661  -21.8924  -16.6654 C   0  0  0  0  0  0  0  0  0  0  0  0
   22.3218  -20.9650  -15.4821 C   0  0  1  0  0  0  0  0  0  0  0  0
   22.5754  -19.5553  -15.9030 C   0  0  0  0  0  0  0  0  0  0  0  0
   21.2193  -21.0679  -14.4875 C   0  0  0  0  0  0  0  0  0  0  0  0
   21.4728  -20.4631  -13.1523 C   0  0  2  0  0  0  0  0  0  0  0  0
   22.5267  -21.0667  -12.3864 N   0  0  0  0  0  0  0  0  0  0  0  0
   20.1796  -20.4671  -12.3954 C   0  0  0  0  0  0  0  0  0  0  0  0
   20.0848  -21.2150  -11.3976 O   0  0  0  0  0  0  0  0  0  0  0  0
   19.1061  -19.6860  -12.7559 O   0  0  0  0  0  0  0  0  0  0  0  0
  2  1  1  6
  2  7  1  0
  3  2  1  0
  3  4  1  0
  4  5  1  0
  5  6  2  0
  5  9  1  0
  7  8  2  0
 10  7  1  0
 10 11  1  0
 11 14  1  0
 11 12  1  1
 13 12  1  0
 14 21  1  0
 15 14  2  0
 17 16  1  6
 18 17  1  0
 19 17  1  0
 20 19  1  6
 21 20  1  0
 22 24  1  0
 22 20  1  0
 23 22  2  0
M  END
$$$$
