ECL.pdb
     RDKit          3D

 24 23  0  0  1  0  0  0  0  0999 V2000
   23.6530  -12.7487  -18.1659 N   0  0  0  0  0  0  0  0  0  0  0  0
   22.2329  -12.5132  -18.3350 C   0  0  1  0  0  0  0  0  0  0  0  0
   21.5000  -13.7933  -18.0014 C   0  0  0  0  0  0  0  0  0  0  0  0
   22.3041  -14.9267  -18.6026 C   0  0  0  0  0  0  0  0  0  0  0  0
   21.6273  -16.2267  -18.4404 C   0  0  0  0  0  0  0  0  0  0  0  0
   20.8771  -16.6541  -19.3517 O   0  0  0  0  0  0  0  0  0  0  0  0
   21.8333  -11.3877  -17.4835 C   0  0  0  0  0  0  0  0  0  0  0  0
   20.6324  -11.0810  -17.3997 O   0  0  0  0  0  0  0  0  0  0  0  0
   21.7876  -17.0056  -17.3093 O   0  0  0  0  0  0  0  0  0  0  0  0
   22.7491  -10.6018  -16.7261 N   0  0  0  0  0  0  0  0  0  0  0  0
   22.4282   -9.5218  -15.8649 C   0  0  1  0  0  0  0  0  0  0  0  0
   23.1898   -9.4954  -14.5724 C   0  0  0  0  0  0  0  0  0  0  0  0
   23.9867  -11.0491  -14.1663 S   0  0  0  0  0  0  0  0  0  0  0  0
   22.5002   -8.2377  -16.5888 C   0  0  0  0  0  0  0  0  0  0  0  0
   23.4389   -8.0621  -17.4036 O   0  0  0  0  0  0  0  0  0  0  0  0
   21.3994   -5.5831  -21.1180 C   0  0  0  0  0  0  0  0  0  0  0  0
   21.2491   -5.1950  -19.6650 C   0  0  1  0  0  0  0  0  0  0  0  0
   20.0851   -4.2868  -19.4438 C   0  0  0  0  0  0  0  0  0  0  0  0
   21.2480   -6.3528  -18.7298 C   0  0  0  0  0  0  0  0  0  0  0  0
   21.4729   -6.0436  -17.2922 C   0  0  2  0  0  0  0  0  0  0  0  0
   21.5670   -7.1799  -16.4193 N   0  0  0  0  0  0  0  0  0  0  0  0
   20.3895   -5.1073  -16.8507 C   0  0  0  0  0  0  0  0  0  0  0  0
   19.2573   -5.5853  -16.6199 O   0  0  0  0  0  0  0  0  0  0  0  0
   20.5951   -3.7562  -16.6926 O   0  0  0  0  0  0  0  0  0  0  0  0
  2  1  1  1
  2  7  1  0
  3  2  1  0
  3  4  1  0
  4  5  1  0
  5  6  2  0
  5  9  1  0
  7  8  2  0
 10  7  1  0
 10 11  1  0
 11 14  1  0
 11 12  1  1
 13 12  1  0
 14 21  1  0
 15 14  2  0
 17 16  1  6
 18 17  1  0
 19 17  1  0
 20 19  1  6
 21 20  1  0
 22 24  1  0
 22 20  1  0
 23 22  2  0
M  END
$$$$
