ECL.pdb
     RDKit          3D

 24 23  0  0  1  0  0  0  0  0999 V2000
   19.8423  -15.2892  -17.2698 N   0  0  0  0  0  0  0  0  0  0  0  0
   19.6979  -14.1219  -18.1165 C   0  0  1  0  0  0  0  0  0  0  0  0
   18.2276  -13.7767  -18.1963 C   0  0  0  0  0  0  0  0  0  0  0  0
   17.5957  -14.7731  -19.1453 C   0  0  0  0  0  0  0  0  0  0  0  0
   16.1504  -14.5327  -19.3117 C   0  0  0  0  0  0  0  0  0  0  0  0
   15.5949  -13.6138  -18.6613 O   0  0  0  0  0  0  0  0  0  0  0  0
   20.5112  -13.0323  -17.5663 C   0  0  0  0  0  0  0  0  0  0  0  0
   20.7155  -12.9802  -16.3421 O   0  0  0  0  0  0  0  0  0  0  0  0
   15.3706  -15.2887  -20.1673 O   0  0  0  0  0  0  0  0  0  0  0  0
   21.0989  -12.0036  -18.3578 N   0  0  0  0  0  0  0  0  0  0  0  0
   21.7982  -10.8647  -17.8835 C   0  0  1  0  0  0  0  0  0  0  0  0
   22.5466  -10.0988  -18.9345 C   0  0  0  0  0  0  0  0  0  0  0  0
   23.3588   -8.6238  -18.3191 S   0  0  0  0  0  0  0  0  0  0  0  0
   20.9082  -10.0018  -17.0825 C   0  0  0  0  0  0  0  0  0  0  0  0
   19.7156   -9.8671  -17.4504 O   0  0  0  0  0  0  0  0  0  0  0  0
   17.4783   -8.1265  -13.7929 C   0  0  0  0  0  0  0  0  0  0  0  0
   18.8215   -8.4197  -13.1649 C   0  0  1  0  0  0  0  0  0  0  0  0
   18.6871   -8.9843  -11.7895 C   0  0  0  0  0  0  0  0  0  0  0  0
   19.7227   -9.2347  -14.0245 C   0  0  0  0  0  0  0  0  0  0  0  0
   20.4455   -8.5083  -15.1028 C   0  0  2  0  0  0  0  0  0  0  0  0
   21.3204   -9.3084  -15.9129 N   0  0  0  0  0  0  0  0  0  0  0  0
   21.1824   -7.3668  -14.4709 C   0  0  0  0  0  0  0  0  0  0  0  0
   22.4295   -7.3502  -14.5612 O   0  0  0  0  0  0  0  0  0  0  0  0
   20.5419   -6.3488  -13.8029 O   0  0  0  0  0  0  0  0  0  0  0  0
  2  1  1  1
  2  7  1  0
  3  2  1  0
  3  4  1  0
  4  5  1  0
  5  6  2  0
  5  9  1  0
  7  8  2  0
 10  7  1  0
 10 11  1  0
 11 14  1  0
 11 12  1  6
 13 12  1  0
 14 21  1  0
 15 14  2  0
 17 16  1  6
 18 17  1  0
 19 17  1  0
 20 19  1  1
 21 20  1  0
 22 24  1  0
 22 20  1  0
 23 22  2  0
M  END
$$$$
