ECL.pdb
     RDKit          3D

 24 23  0  0  1  0  0  0  0  0999 V2000
   15.0583  -10.4240  -17.6142 N   0  0  0  0  0  0  0  0  0  0  0  0
   15.6936   -9.9280  -16.4097 C   0  0  1  0  0  0  0  0  0  0  0  0
   16.3328  -11.0991  -15.6976 C   0  0  0  0  0  0  0  0  0  0  0  0
   15.2063  -11.9106  -15.0931 C   0  0  0  0  0  0  0  0  0  0  0  0
   15.7111  -13.0605  -14.3202 C   0  0  0  0  0  0  0  0  0  0  0  0
   14.9005  -13.8164  -13.7308 O   0  0  0  0  0  0  0  0  0  0  0  0
   16.6592   -8.8864  -16.7762 C   0  0  0  0  0  0  0  0  0  0  0  0
   17.0299   -8.7850  -17.9575 O   0  0  0  0  0  0  0  0  0  0  0  0
   17.0603  -13.3444  -14.2167 O   0  0  0  0  0  0  0  0  0  0  0  0
   17.2155   -7.9589  -15.8487 N   0  0  0  0  0  0  0  0  0  0  0  0
   18.1379   -6.9214  -16.1382 C   0  0  1  0  0  0  0  0  0  0  0  0
   17.5163   -5.5979  -16.4749 C   0  0  0  0  0  0  0  0  0  0  0  0
   16.6563   -5.5778  -18.0478 S   0  0  0  0  0  0  0  0  0  0  0  0
   19.1533   -6.8132  -15.0726 C   0  0  0  0  0  0  0  0  0  0  0  0
   18.7679   -6.5858  -13.8998 O   0  0  0  0  0  0  0  0  0  0  0  0
   23.6502  -10.1034  -14.8051 C   0  0  0  0  0  0  0  0  0  0  0  0
   22.4318   -9.2605  -14.5059 C   0  0  1  0  0  0  0  0  0  0  0  0
   21.6906   -9.7508  -13.3064 C   0  0  0  0  0  0  0  0  0  0  0  0
   22.7118   -7.8002  -14.4389 C   0  0  0  0  0  0  0  0  0  0  0  0
   21.5364   -6.9081  -14.2505 C   0  0  2  0  0  0  0  0  0  0  0  0
   20.5501   -6.9507  -15.2932 N   0  0  0  0  0  0  0  0  0  0  0  0
   22.0480   -5.5152  -14.0426 C   0  0  0  0  0  0  0  0  0  0  0  0
   21.9080   -4.6924  -14.9739 O   0  0  0  0  0  0  0  0  0  0  0  0
   22.6591   -5.1151  -12.8768 O   0  0  0  0  0  0  0  0  0  0  0  0
  2  1  1  6
  2  7  1  0
  3  2  1  0
  3  4  1  0
  4  5  1  0
  5  6  2  0
  5  9  1  0
  7  8  2  0
 10  7  1  0
 10 11  1  0
 11 14  1  0
 11 12  1  1
 13 12  1  0
 14 21  1  0
 15 14  2  0
 17 16  1  1
 18 17  1  0
 19 17  1  0
 20 19  1  6
 21 20  1  0
 22 24  1  0
 22 20  1  0
 23 22  2  0
M  END
$$$$
