ECL.pdb
     RDKit          3D

 24 23  0  0  1  0  0  0  0  0999 V2000
   26.8555  -22.9074  -16.1555 N   0  0  0  0  0  0  0  0  0  0  0  0
   25.9637  -22.8177  -15.0166 C   0  0  1  0  0  0  0  0  0  0  0  0
   25.6110  -24.2228  -14.5825 C   0  0  0  0  0  0  0  0  0  0  0  0
   24.6902  -24.7895  -15.6426 C   0  0  0  0  0  0  0  0  0  0  0  0
   23.3398  -24.2018  -15.5683 C   0  0  0  0  0  0  0  0  0  0  0  0
   22.7085  -24.2316  -14.4837 O   0  0  0  0  0  0  0  0  0  0  0  0
   26.6199  -22.0411  -13.9594 C   0  0  0  0  0  0  0  0  0  0  0  0
   27.8600  -21.9748  -13.9298 O   0  0  0  0  0  0  0  0  0  0  0  0
   22.7317  -23.6104  -16.6602 O   0  0  0  0  0  0  0  0  0  0  0  0
   25.9167  -21.3392  -12.9382 N   0  0  0  0  0  0  0  0  0  0  0  0
   26.4813  -20.5000  -11.9442 C   0  0  1  0  0  0  0  0  0  0  0  0
   26.3363  -19.0288  -12.2013 C   0  0  0  0  0  0  0  0  0  0  0  0
   26.1070  -18.0505  -10.7166 S   0  0  0  0  0  0  0  0  0  0  0  0
   26.0061  -20.8879  -10.6018 C   0  0  0  0  0  0  0  0  0  0  0  0
   24.8494  -21.3626  -10.4908 O   0  0  0  0  0  0  0  0  0  0  0  0
   28.7348  -18.6841   -6.1435 C   0  0  0  0  0  0  0  0  0  0  0  0
   28.2543  -19.6719   -7.1817 C   0  0  1  0  0  0  0  0  0  0  0  0
   29.1302  -20.8784   -7.2568 C   0  0  0  0  0  0  0  0  0  0  0  0
   26.8143  -20.0263   -7.0543 C   0  0  0  0  0  0  0  0  0  0  0  0
   26.2617  -20.9370   -8.0926 C   0  0  2  0  0  0  0  0  0  0  0  0
   26.7817  -20.7560   -9.4187 N   0  0  0  0  0  0  0  0  0  0  0  0
   24.7694  -20.8033   -8.0709 C   0  0  0  0  0  0  0  0  0  0  0  0
   24.2412  -19.9836   -8.8537 O   0  0  0  0  0  0  0  0  0  0  0  0
   23.9702  -21.5423   -7.2296 O   0  0  0  0  0  0  0  0  0  0  0  0
  2  1  1  6
  2  7  1  0
  3  2  1  0
  3  4  1  0
  4  5  1  0
  5  6  2  0
  5  9  1  0
  7  8  2  0
 10  7  1  0
 10 11  1  0
 11 14  1  0
 11 12  1  6
 13 12  1  0
 14 21  1  0
 15 14  2  0
 17 16  1  1
 18 17  1  0
 19 17  1  0
 20 19  1  1
 21 20  1  0
 22 24  1  0
 22 20  1  0
 23 22  2  0
M  END
$$$$
