ECL.pdb
     RDKit          3D

 24 23  0  0  1  0  0  0  0  0999 V2000
   20.8515  -12.6034  -16.8460 N   0  0  0  0  0  0  0  0  0  0  0  0
   19.9090  -11.5421  -17.1390 C   0  0  1  0  0  0  0  0  0  0  0  0
   18.5155  -12.0591  -16.8598 C   0  0  0  0  0  0  0  0  0  0  0  0
   18.2196  -13.1077  -17.9113 C   0  0  0  0  0  0  0  0  0  0  0  0
   16.9077  -13.7459  -17.6967 C   0  0  0  0  0  0  0  0  0  0  0  0
   16.4791  -14.5801  -18.5312 O   0  0  0  0  0  0  0  0  0  0  0  0
   20.2534  -10.3653  -16.3342 C   0  0  0  0  0  0  0  0  0  0  0  0
   19.7198  -10.2068  -15.2236 O   0  0  0  0  0  0  0  0  0  0  0  0
   16.1188  -13.4590  -16.5980 O   0  0  0  0  0  0  0  0  0  0  0  0
   21.1811   -9.3658  -16.7471 N   0  0  0  0  0  0  0  0  0  0  0  0
   21.5364   -8.1930  -16.0335 C   0  0  1  0  0  0  0  0  0  0  0  0
   22.9321   -8.1861  -15.4826 C   0  0  0  0  0  0  0  0  0  0  0  0
   23.2356   -9.4571  -14.2554 S   0  0  0  0  0  0  0  0  0  0  0  0
   21.2379   -6.9868  -16.8297 C   0  0  0  0  0  0  0  0  0  0  0  0
   21.6060   -6.9557  -18.0295 O   0  0  0  0  0  0  0  0  0  0  0  0
   19.5980   -3.5058  -20.0400 C   0  0  0  0  0  0  0  0  0  0  0  0
   18.6606   -3.7410  -18.8778 C   0  0  1  0  0  0  0  0  0  0  0  0
   17.2325   -3.7922  -19.3097 C   0  0  0  0  0  0  0  0  0  0  0  0
   19.0358   -4.9037  -18.0278 C   0  0  0  0  0  0  0  0  0  0  0  0
   20.1909   -4.7089  -17.1109 C   0  0  2  0  0  0  0  0  0  0  0  0
   20.5555   -5.8500  -16.3192 N   0  0  0  0  0  0  0  0  0  0  0  0
   19.8943   -3.5207  -16.2476 C   0  0  0  0  0  0  0  0  0  0  0  0
   19.3245   -3.7176  -15.1520 O   0  0  0  0  0  0  0  0  0  0  0  0
   20.2231   -2.2361  -16.6144 O   0  0  0  0  0  0  0  0  0  0  0  0
  2  1  1  1
  2  7  1  0
  3  2  1  0
  3  4  1  0
  4  5  1  0
  5  6  2  0
  5  9  1  0
  7  8  2  0
 10  7  1  0
 10 11  1  0
 11 14  1  0
 11 12  1  6
 13 12  1  0
 14 21  1  0
 15 14  2  0
 17 16  1  6
 18 17  1  0
 19 17  1  0
 20 19  1  1
 21 20  1  0
 22 24  1  0
 22 20  1  0
 23 22  2  0
M  END
$$$$
