ECL.pdb
     RDKit          3D

 24 23  0  0  1  0  0  0  0  0999 V2000
   30.0560  -23.2315  -18.3433 N   0  0  0  0  0  0  0  0  0  0  0  0
   30.1204  -24.5717  -17.7954 C   0  0  1  0  0  0  0  0  0  0  0  0
   31.3809  -24.6820  -16.9671 C   0  0  0  0  0  0  0  0  0  0  0  0
   32.5296  -24.2665  -17.8619 C   0  0  0  0  0  0  0  0  0  0  0  0
   33.7508  -25.0454  -17.5854 C   0  0  0  0  0  0  0  0  0  0  0  0
   33.7326  -25.9351  -16.6999 O   0  0  0  0  0  0  0  0  0  0  0  0
   28.9025  -24.8264  -17.0187 C   0  0  0  0  0  0  0  0  0  0  0  0
   28.8505  -25.8171  -16.2710 O   0  0  0  0  0  0  0  0  0  0  0  0
   34.9322  -24.8330  -18.2716 O   0  0  0  0  0  0  0  0  0  0  0  0
   27.7457  -23.9958  -17.0623 N   0  0  0  0  0  0  0  0  0  0  0  0
   26.5727  -24.1349  -16.2775 C   0  0  1  0  0  0  0  0  0  0  0  0
   26.0098  -22.8489  -15.7478 C   0  0  0  0  0  0  0  0  0  0  0  0
   24.6745  -23.0694  -14.5722 S   0  0  0  0  0  0  0  0  0  0  0  0
   25.5624  -24.9434  -16.9874 C   0  0  0  0  0  0  0  0  0  0  0  0
   25.1959  -24.5742  -18.1299 O   0  0  0  0  0  0  0  0  0  0  0  0
   25.7102  -30.4065  -17.2921 C   0  0  0  0  0  0  0  0  0  0  0  0
   25.4624  -28.9550  -17.6332 C   0  0  1  0  0  0  0  0  0  0  0  0
   25.5544  -28.6994  -19.1011 C   0  0  0  0  0  0  0  0  0  0  0  0
   24.2138  -28.4023  -17.0408 C   0  0  0  0  0  0  0  0  0  0  0  0
   24.0196  -26.9321  -17.1569 C   0  0  2  0  0  0  0  0  0  0  0  0
   24.9740  -26.1215  -16.4541 N   0  0  0  0  0  0  0  0  0  0  0  0
   22.6190  -26.6201  -16.7254 C   0  0  0  0  0  0  0  0  0  0  0  0
   21.6780  -27.1542  -17.3523 O   0  0  0  0  0  0  0  0  0  0  0  0
   22.3362  -25.7766  -15.6761 O   0  0  0  0  0  0  0  0  0  0  0  0
  2  1  1  1
  2  7  1  0
  3  2  1  0
  3  4  1  0
  4  5  1  0
  5  6  2  0
  5  9  1  0
  7  8  2  0
 10  7  1  0
 10 11  1  0
 11 14  1  0
 11 12  1  6
 13 12  1  0
 14 21  1  0
 15 14  2  0
 17 16  1  6
 18 17  1  0
 19 17  1  0
 20 19  1  1
 21 20  1  0
 22 24  1  0
 22 20  1  0
 23 22  2  0
M  END
$$$$
