ECL.pdb
     RDKit          3D

 24 23  0  0  1  0  0  0  0  0999 V2000
   23.8625  -18.2591  -15.1714 N   0  0  0  0  0  0  0  0  0  0  0  0
   23.6479  -19.6413  -15.5508 C   0  0  1  0  0  0  0  0  0  0  0  0
   24.8558  -20.1085  -16.3318 C   0  0  0  0  0  0  0  0  0  0  0  0
   25.8801  -18.9958  -16.2594 C   0  0  0  0  0  0  0  0  0  0  0  0
   26.6399  -18.8660  -17.5165 C   0  0  0  0  0  0  0  0  0  0  0  0
   27.5350  -17.9912  -17.6136 O   0  0  0  0  0  0  0  0  0  0  0  0
   23.4085  -20.4345  -14.3405 C   0  0  0  0  0  0  0  0  0  0  0  0
   23.0445  -21.6175  -14.4472 O   0  0  0  0  0  0  0  0  0  0  0  0
   26.4035  -19.6804  -18.6086 O   0  0  0  0  0  0  0  0  0  0  0  0
   23.5688  -19.9308  -13.0174 N   0  0  0  0  0  0  0  0  0  0  0  0
   23.3589  -20.6423  -11.8088 C   0  0  1  0  0  0  0  0  0  0  0  0
   24.3042  -20.2935  -10.6970 C   0  0  0  0  0  0  0  0  0  0  0  0
   23.9086  -21.0768   -9.1338 S   0  0  0  0  0  0  0  0  0  0  0  0
   21.9449  -20.5608  -11.3939 C   0  0  0  0  0  0  0  0  0  0  0  0
   21.2494  -19.6081  -11.8232 O   0  0  0  0  0  0  0  0  0  0  0  0
   17.0668  -21.2712  -11.9555 C   0  0  0  0  0  0  0  0  0  0  0  0
   17.8908  -22.5349  -11.8620 C   0  0  1  0  0  0  0  0  0  0  0  0
   17.5102  -23.5320  -12.9059 C   0  0  0  0  0  0  0  0  0  0  0  0
   19.3589  -22.2944  -11.8193 C   0  0  0  0  0  0  0  0  0  0  0  0
   19.9089  -21.7791  -10.5368 C   0  0  2  0  0  0  0  0  0  0  0  0
   21.3174  -21.4999  -10.5319 N   0  0  0  0  0  0  0  0  0  0  0  0
   19.5441  -22.7532   -9.4583 C   0  0  0  0  0  0  0  0  0  0  0  0
   18.4309  -22.6258   -8.9030 O   0  0  0  0  0  0  0  0  0  0  0  0
   20.3814  -23.7706   -9.0627 O   0  0  0  0  0  0  0  0  0  0  0  0
  2  1  1  1
  2  7  1  0
  3  2  1  0
  3  4  1  0
  4  5  1  0
  5  6  2  0
  5  9  1  0
  7  8  2  0
 10  7  1  0
 10 11  1  0
 11 14  1  0
 11 12  1  1
 13 12  1  0
 14 21  1  0
 15 14  2  0
 17 16  1  6
 18 17  1  0
 19 17  1  0
 20 19  1  6
 21 20  1  0
 22 24  1  0
 22 20  1  0
 23 22  2  0
M  END
$$$$
