ECL.pdb
     RDKit          3D

 24 23  0  0  1  0  0  0  0  0999 V2000
   24.1562  -20.9473  -17.0620 N   0  0  0  0  0  0  0  0  0  0  0  0
   24.8223  -19.9541  -16.2433 C   0  0  1  0  0  0  0  0  0  0  0  0
   23.8297  -18.8559  -15.9337 C   0  0  0  0  0  0  0  0  0  0  0  0
   23.4167  -18.2535  -17.2601 C   0  0  0  0  0  0  0  0  0  0  0  0
   21.9657  -17.9978  -17.3192 C   0  0  0  0  0  0  0  0  0  0  0  0
   21.4563  -17.1336  -16.5644 O   0  0  0  0  0  0  0  0  0  0  0  0
   25.3471  -20.6058  -15.0386 C   0  0  0  0  0  0  0  0  0  0  0  0
   24.6711  -21.4817  -14.4737 O   0  0  0  0  0  0  0  0  0  0  0  0
   21.1310  -18.6806  -18.1845 O   0  0  0  0  0  0  0  0  0  0  0  0
   26.6104  -20.2973  -14.4563 N   0  0  0  0  0  0  0  0  0  0  0  0
   27.1487  -20.8418  -13.2626 C   0  0  1  0  0  0  0  0  0  0  0  0
   28.6475  -20.8583  -13.1945 C   0  0  0  0  0  0  0  0  0  0  0  0
   29.3209  -19.9805  -11.7838 S   0  0  0  0  0  0  0  0  0  0  0  0
   26.5368  -20.2092  -12.0778 C   0  0  0  0  0  0  0  0  0  0  0  0
   26.4089  -18.9605  -12.0654 O   0  0  0  0  0  0  0  0  0  0  0  0
   21.9210  -21.3138   -9.4144 C   0  0  0  0  0  0  0  0  0  0  0  0
   23.1512  -20.6383   -9.9756 C   0  0  1  0  0  0  0  0  0  0  0  0
   22.9071  -19.1999  -10.2919 C   0  0  0  0  0  0  0  0  0  0  0  0
   24.3749  -20.8357   -9.1516 C   0  0  0  0  0  0  0  0  0  0  0  0
   25.6473  -20.3147   -9.7195 C   0  0  2  0  0  0  0  0  0  0  0  0
   26.0806  -20.9307  -10.9420 N   0  0  0  0  0  0  0  0  0  0  0  0
   26.6985  -20.4173   -8.6567 C   0  0  0  0  0  0  0  0  0  0  0  0
   27.7102  -21.1124   -8.8956 O   0  0  0  0  0  0  0  0  0  0  0  0
   26.5903  -19.7809   -7.4418 O   0  0  0  0  0  0  0  0  0  0  0  0
  2  1  1  6
  2  7  1  0
  3  2  1  0
  3  4  1  0
  4  5  1  0
  5  6  2  0
  5  9  1  0
  7  8  2  0
 10  7  1  0
 10 11  1  0
 11 14  1  0
 11 12  1  6
 13 12  1  0
 14 21  1  0
 15 14  2  0
 17 16  1  1
 18 17  1  0
 19 17  1  0
 20 19  1  1
 21 20  1  0
 22 24  1  0
 22 20  1  0
 23 22  2  0
M  END
$$$$
