ECL.pdb
     RDKit          3D

 24 23  0  0  1  0  0  0  0  0999 V2000
   16.8638  -11.8623  -15.5461 N   0  0  0  0  0  0  0  0  0  0  0  0
   16.0227  -11.1825  -14.5812 C   0  0  1  0  0  0  0  0  0  0  0  0
   15.1714  -12.2202  -13.8844 C   0  0  0  0  0  0  0  0  0  0  0  0
   14.9942  -13.3657  -14.8586 C   0  0  0  0  0  0  0  0  0  0  0  0
   14.2198  -14.4735  -14.2688 C   0  0  0  0  0  0  0  0  0  0  0  0
   14.8221  -15.4346  -13.7307 O   0  0  0  0  0  0  0  0  0  0  0  0
   16.8751  -10.4282  -13.6560 C   0  0  0  0  0  0  0  0  0  0  0  0
   18.0895  -10.6835  -13.5977 O   0  0  0  0  0  0  0  0  0  0  0  0
   12.8374  -14.4972  -14.2842 O   0  0  0  0  0  0  0  0  0  0  0  0
   16.3959   -9.3967  -12.7979 N   0  0  0  0  0  0  0  0  0  0  0  0
   17.1816   -8.4723  -12.0636 C   0  0  1  0  0  0  0  0  0  0  0  0
   18.2934   -7.8301  -12.8400 C   0  0  0  0  0  0  0  0  0  0  0  0
   19.1571   -6.5412  -11.9419 S   0  0  0  0  0  0  0  0  0  0  0  0
   16.3237   -7.4828  -11.3830 C   0  0  0  0  0  0  0  0  0  0  0  0
   15.6610   -6.6814  -12.0861 O   0  0  0  0  0  0  0  0  0  0  0  0
   12.6943   -8.3048   -7.3035 C   0  0  0  0  0  0  0  0  0  0  0  0
   13.4735   -7.8203   -8.5046 C   0  0  1  0  0  0  0  0  0  0  0  0
   12.5810   -7.2785   -9.5717 C   0  0  0  0  0  0  0  0  0  0  0  0
   14.5813   -6.8857   -8.1664 C   0  0  0  0  0  0  0  0  0  0  0  0
   15.4014   -6.3906   -9.3045 C   0  0  2  0  0  0  0  0  0  0  0  0
   16.2007   -7.3797   -9.9713 N   0  0  0  0  0  0  0  0  0  0  0  0
   16.2448   -5.2585   -8.8022 C   0  0  0  0  0  0  0  0  0  0  0  0
   17.4602   -5.4745   -8.6025 O   0  0  0  0  0  0  0  0  0  0  0  0
   15.7342   -4.0050   -8.5560 O   0  0  0  0  0  0  0  0  0  0  0  0
  2  1  1  6
  2  7  1  0
  3  2  1  0
  3  4  1  0
  4  5  1  0
  5  6  2  0
  5  9  1  0
  7  8  2  0
 10  7  1  0
 10 11  1  0
 11 14  1  0
 11 12  1  6
 13 12  1  0
 14 21  1  0
 15 14  2  0
 17 16  1  1
 18 17  1  0
 19 17  1  0
 20 19  1  1
 21 20  1  0
 22 24  1  0
 22 20  1  0
 23 22  2  0
M  END
$$$$
