ECL.pdb
     RDKit          3D

 24 23  0  0  1  0  0  0  0  0999 V2000
   25.9875  -17.8868  -19.3616 N   0  0  0  0  0  0  0  0  0  0  0  0
   25.9214  -18.9258  -18.3533 C   0  0  1  0  0  0  0  0  0  0  0  0
   27.3352  -19.2894  -17.9579 C   0  0  0  0  0  0  0  0  0  0  0  0
   27.7704  -20.4123  -18.8756 C   0  0  0  0  0  0  0  0  0  0  0  0
   29.1671  -20.8148  -18.6269 C   0  0  0  0  0  0  0  0  0  0  0  0
   29.4082  -21.7798  -17.8610 O   0  0  0  0  0  0  0  0  0  0  0  0
   25.1192  -18.4421  -17.2246 C   0  0  0  0  0  0  0  0  0  0  0  0
   25.2147  -17.2550  -16.8711 O   0  0  0  0  0  0  0  0  0  0  0  0
   30.2376  -20.1635  -19.2113 O   0  0  0  0  0  0  0  0  0  0  0  0
   24.2147  -19.2590  -16.4867 N   0  0  0  0  0  0  0  0  0  0  0  0
   23.3888  -18.8490  -15.4092 C   0  0  1  0  0  0  0  0  0  0  0  0
   22.1146  -18.1671  -15.8128 C   0  0  0  0  0  0  0  0  0  0  0  0
   20.7060  -19.2697  -15.9314 S   0  0  0  0  0  0  0  0  0  0  0  0
   23.1590  -19.9665  -14.4729 C   0  0  0  0  0  0  0  0  0  0  0  0
   22.9650  -21.1130  -14.9459 O   0  0  0  0  0  0  0  0  0  0  0  0
   25.5281  -20.3227   -9.4405 C   0  0  0  0  0  0  0  0  0  0  0  0
   24.9580  -20.6675  -10.7973 C   0  0  1  0  0  0  0  0  0  0  0  0
   25.6397  -21.8459  -11.4099 C   0  0  0  0  0  0  0  0  0  0  0  0
   23.4759  -20.8024  -10.8107 C   0  0  0  0  0  0  0  0  0  0  0  0
   22.8305  -20.8892  -12.1482 C   0  0  2  0  0  0  0  0  0  0  0  0
   23.1428  -19.8243  -13.0594 N   0  0  0  0  0  0  0  0  0  0  0  0
   21.3519  -21.0068  -11.9358 C   0  0  0  0  0  0  0  0  0  0  0  0
   20.6307  -20.0431  -12.2748 O   0  0  0  0  0  0  0  0  0  0  0  0
   20.7674  -22.1250  -11.3873 O   0  0  0  0  0  0  0  0  0  0  0  0
  2  1  1  6
  2  7  1  0
  3  2  1  0
  3  4  1  0
  4  5  1  0
  5  6  2  0
  5  9  1  0
  7  8  2  0
 10  7  1  0
 10 11  1  0
 11 14  1  0
 11 12  1  6
 13 12  1  0
 14 21  1  0
 15 14  2  0
 17 16  1  1
 18 17  1  0
 19 17  1  0
 20 19  1  1
 21 20  1  0
 22 24  1  0
 22 20  1  0
 23 22  2  0
M  END
$$$$
