ECL.pdb
     RDKit          3D

 24 23  0  0  1  0  0  0  0  0999 V2000
   20.3904  -21.4298  -15.3133 N   0  0  0  0  0  0  0  0  0  0  0  0
   20.7712  -22.8088  -15.0812 C   0  0  1  0  0  0  0  0  0  0  0  0
   22.1654  -23.0116  -15.6310 C   0  0  0  0  0  0  0  0  0  0  0  0
   22.0625  -22.8944  -17.1371 C   0  0  0  0  0  0  0  0  0  0  0  0
   23.3891  -22.9061  -17.7808 C   0  0  0  0  0  0  0  0  0  0  0  0
   23.4719  -22.8785  -19.0332 O   0  0  0  0  0  0  0  0  0  0  0  0
   20.6767  -23.0926  -13.6453 C   0  0  0  0  0  0  0  0  0  0  0  0
   21.3124  -22.3915  -12.8405 O   0  0  0  0  0  0  0  0  0  0  0  0
   24.5628  -22.9465  -17.0510 O   0  0  0  0  0  0  0  0  0  0  0  0
   19.8864  -24.1424  -13.0945 N   0  0  0  0  0  0  0  0  0  0  0  0
   19.6437  -24.3881  -11.7191 C   0  0  1  0  0  0  0  0  0  0  0  0
   19.1505  -23.2030  -10.9422 C   0  0  0  0  0  0  0  0  0  0  0  0
   17.6051  -22.5274  -11.5498 S   0  0  0  0  0  0  0  0  0  0  0  0
   18.7842  -25.5751  -11.5445 C   0  0  0  0  0  0  0  0  0  0  0  0
   17.8067  -25.7248  -12.3178 O   0  0  0  0  0  0  0  0  0  0  0  0
   20.6001  -30.6864  -10.5352 C   0  0  0  0  0  0  0  0  0  0  0  0
   19.7848  -29.5105  -11.0221 C   0  0  1  0  0  0  0  0  0  0  0  0
   19.1198  -29.7908  -12.3290 C   0  0  0  0  0  0  0  0  0  0  0  0
   18.8353  -28.9755  -10.0085 C   0  0  0  0  0  0  0  0  0  0  0  0
   18.1431  -27.7051  -10.3545 C   0  0  2  0  0  0  0  0  0  0  0  0
   18.9951  -26.5656  -10.5480 N   0  0  0  0  0  0  0  0  0  0  0  0
   17.1148  -27.4417   -9.2969 C   0  0  0  0  0  0  0  0  0  0  0  0
   17.3345  -26.5209   -8.4798 O   0  0  0  0  0  0  0  0  0  0  0  0
   15.9516  -28.1692   -9.1950 O   0  0  0  0  0  0  0  0  0  0  0  0
  2  1  1  1
  2  7  1  0
  3  2  1  0
  3  4  1  0
  4  5  1  0
  5  6  2  0
  5  9  1  0
  7  8  2  0
 10  7  1  0
 10 11  1  0
 11 14  1  0
 11 12  1  6
 13 12  1  0
 14 21  1  0
 15 14  2  0
 17 16  1  1
 18 17  1  0
 19 17  1  0
 20 19  1  1
 21 20  1  0
 22 24  1  0
 22 20  1  0
 23 22  2  0
M  END
$$$$
