SME.pdb
     RDKit          3D

 24 23  0  0  1  0  0  0  0  0999 V2000
   16.9159  -11.4982  -19.5939 O   0  0  0  0  0  0  0  0  0  0  0  0
   17.7205  -10.9839  -18.6074 C   0  0  0  0  0  0  0  0  0  0  0  0
   18.8699  -11.8709  -18.2344 C   0  0  2  0  0  0  0  0  0  0  0  0
   18.4993  -13.1502  -17.7399 N   0  0  0  0  0  0  0  0  0  0  0  0
   19.7667  -11.2120  -17.2399 C   0  0  0  0  0  0  0  0  0  0  0  0
   19.3275  -10.8055  -16.1202 O   0  0  0  0  0  0  0  0  0  0  0  0
   26.9512  -10.5600  -14.3487 C   0  0  0  0  0  0  0  0  0  0  0  0
   26.0093  -11.0525  -15.8153 S   0  0  0  0  0  0  0  0  0  0  0  0
   24.3277  -10.3918  -15.6978 C   0  0  0  0  0  0  0  0  0  0  0  0
   23.4458  -10.9414  -16.7979 C   0  0  0  0  0  0  0  0  0  0  0  0
   22.0601  -10.3435  -16.5895 C   0  0  2  0  0  0  0  0  0  0  0  0
   21.1481  -11.0090  -17.4971 N   0  0  0  0  0  0  0  0  0  0  0  0
   22.0716   -8.8645  -16.8408 C   0  0  0  0  0  0  0  0  0  0  0  0
   22.3120   -8.4247  -17.9845 O   0  0  0  0  0  0  0  0  0  0  0  0
   21.8091   -7.9827  -15.7729 N   0  0  0  0  0  0  0  0  0  0  0  0
   21.7320   -6.5402  -15.9500 C   0  0  1  0  0  0  0  0  0  0  0  0
   20.2919   -6.1087  -15.9254 C   0  0  0  0  0  0  0  0  0  0  0  0
   20.1176   -4.6282  -15.8714 C   0  0  0  0  0  0  0  0  0  0  0  0
   18.7103   -4.1828  -15.8262 C   0  0  0  0  0  0  0  0  0  0  0  0
   17.7219   -4.9585  -15.8343 O   0  0  0  0  0  0  0  0  0  0  0  0
   22.4577   -5.9077  -14.7909 C   0  0  0  0  0  0  0  0  0  0  0  0
   22.5767   -6.4889  -13.6815 O   0  0  0  0  0  0  0  0  0  0  0  0
   18.4528   -2.8204  -15.7707 O   0  0  0  0  0  0  0  0  0  0  0  0
   23.0201   -4.6514  -14.9212 O   0  0  0  0  0  0  0  0  0  0  0  0
  2  3  1  0
  2  1  1  0
  3  4  1  1
  5  6  2  0
  5  3  1  0
  7  8  1  0
  8  9  1  0
  9 10  1  0
 11 10  1  6
 11 13  1  0
 11 12  1  0
 12  5  1  0
 13 15  1  0
 14 13  2  0
 15 16  1  0
 16 21  1  0
 16 17  1  1
 18 17  1  0
 19 18  1  0
 20 19  2  0
 21 22  2  0
 21 24  1  0
 23 19  1  0
M  END
$$$$
