SME.pdb
     RDKit          3D

 24 23  0  0  1  0  0  0  0  0999 V2000
   27.7040  -12.2171  -15.6975 O   0  0  0  0  0  0  0  0  0  0  0  0
   26.6718  -11.3299  -15.8776 C   0  0  0  0  0  0  0  0  0  0  0  0
   25.7289  -11.7078  -16.9800 C   0  0  2  0  0  0  0  0  0  0  0  0
   26.3083  -11.7332  -18.2770 N   0  0  0  0  0  0  0  0  0  0  0  0
   24.5331  -10.8152  -17.0047 C   0  0  0  0  0  0  0  0  0  0  0  0
   24.5526   -9.6995  -17.6101 O   0  0  0  0  0  0  0  0  0  0  0  0
   18.9024  -13.4232  -15.0837 C   0  0  0  0  0  0  0  0  0  0  0  0
   19.8394  -13.6739  -16.6132 S   0  0  0  0  0  0  0  0  0  0  0  0
   20.5702  -12.1011  -17.1334 C   0  0  0  0  0  0  0  0  0  0  0  0
   20.9567  -11.2559  -15.9390 C   0  0  0  0  0  0  0  0  0  0  0  0
   22.1136  -10.3703  -16.3841 C   0  0  2  0  0  0  0  0  0  0  0  0
   23.3215  -11.1694  -16.3550 N   0  0  0  0  0  0  0  0  0  0  0  0
   22.2484   -9.1745  -15.4880 C   0  0  0  0  0  0  0  0  0  0  0  0
   22.9026   -9.2565  -14.4275 O   0  0  0  0  0  0  0  0  0  0  0  0
   21.6288   -7.9637  -15.8578 N   0  0  0  0  0  0  0  0  0  0  0  0
   21.6327   -6.7885  -14.9993 C   0  0  1  0  0  0  0  0  0  0  0  0
   22.1431   -5.6047  -15.7730 C   0  0  0  0  0  0  0  0  0  0  0  0
   22.1290   -4.3346  -14.9907 C   0  0  0  0  0  0  0  0  0  0  0  0
   22.5833   -3.1499  -15.7464 C   0  0  0  0  0  0  0  0  0  0  0  0
   23.7875   -2.8805  -15.9833 O   0  0  0  0  0  0  0  0  0  0  0  0
   20.2068   -6.5317  -14.5859 C   0  0  0  0  0  0  0  0  0  0  0  0
   19.2328   -6.8580  -15.3124 O   0  0  0  0  0  0  0  0  0  0  0  0
   21.6248   -2.2711  -16.2306 O   0  0  0  0  0  0  0  0  0  0  0  0
   19.9297   -5.9207  -13.3771 O   0  0  0  0  0  0  0  0  0  0  0  0
  2  3  1  0
  2  1  1  0
  3  4  1  6
  5  6  2  0
  5  3  1  0
  7  8  1  0
  8  9  1  0
  9 10  1  0
 11 10  1  1
 11 13  1  0
 11 12  1  0
 12  5  1  0
 13 15  1  0
 14 13  2  0
 15 16  1  0
 16 21  1  0
 16 17  1  6
 18 17  1  0
 19 18  1  0
 20 19  2  0
 21 22  2  0
 21 24  1  0
 23 19  1  0
M  END
$$$$
