SME.pdb
     RDKit          3D

 24 23  0  0  1  0  0  0  0  0999 V2000
   26.8581  -18.8286  -16.5284 O   0  0  0  0  0  0  0  0  0  0  0  0
   28.0521  -19.1365  -15.9247 C   0  0  0  0  0  0  0  0  0  0  0  0
   28.2075  -20.5887  -15.5871 C   0  0  2  0  0  0  0  0  0  0  0  0
   28.2717  -21.4577  -16.7092 N   0  0  0  0  0  0  0  0  0  0  0  0
   27.1205  -21.0566  -14.6779 C   0  0  0  0  0  0  0  0  0  0  0  0
   26.2687  -21.9195  -15.0542 O   0  0  0  0  0  0  0  0  0  0  0  0
   24.4074  -21.2957   -7.2901 C   0  0  0  0  0  0  0  0  0  0  0  0
   25.6262  -20.5278   -8.3880 S   0  0  0  0  0  0  0  0  0  0  0  0
   25.2365  -20.9499  -10.1051 C   0  0  0  0  0  0  0  0  0  0  0  0
   26.3347  -20.4969  -11.0426 C   0  0  0  0  0  0  0  0  0  0  0  0
   25.9264  -20.9381  -12.4424 C   0  0  2  0  0  0  0  0  0  0  0  0
   26.9872  -20.5612  -13.3541 N   0  0  0  0  0  0  0  0  0  0  0  0
   24.6295  -20.3019  -12.8476 C   0  0  0  0  0  0  0  0  0  0  0  0
   24.5936  -19.0919  -13.1542 O   0  0  0  0  0  0  0  0  0  0  0  0
   23.4579  -21.0851  -12.8765 N   0  0  0  0  0  0  0  0  0  0  0  0
   22.1737  -20.5564  -13.3117 C   0  0  1  0  0  0  0  0  0  0  0  0
   21.8532  -21.0841  -14.6826 C   0  0  0  0  0  0  0  0  0  0  0  0
   22.2883  -20.1765  -15.7836 C   0  0  0  0  0  0  0  0  0  0  0  0
   21.9018  -20.6307  -17.1347 C   0  0  0  0  0  0  0  0  0  0  0  0
   22.0758  -21.7982  -17.5655 O   0  0  0  0  0  0  0  0  0  0  0  0
   21.1345  -21.0472  -12.3374 C   0  0  0  0  0  0  0  0  0  0  0  0
   21.3602  -21.9971  -11.5439 O   0  0  0  0  0  0  0  0  0  0  0  0
   21.3069  -19.7156  -17.9913 O   0  0  0  0  0  0  0  0  0  0  0  0
   19.8860  -20.4549  -12.2912 O   0  0  0  0  0  0  0  0  0  0  0  0
  2  3  1  0
  2  1  1  0
  3  4  1  6
  5  6  2  0
  5  3  1  0
  7  8  1  0
  8  9  1  0
  9 10  1  0
 11 10  1  1
 11 13  1  0
 11 12  1  0
 12  5  1  0
 13 15  1  0
 14 13  2  0
 15 16  1  0
 16 21  1  0
 16 17  1  6
 18 17  1  0
 19 18  1  0
 20 19  2  0
 21 22  2  0
 21 24  1  0
 23 19  1  0
M  END
$$$$
