SME.pdb
     RDKit          3D

 24 23  0  0  1  0  0  0  0  0999 V2000
   17.9714  -10.3725  -18.2798 O   0  0  0  0  0  0  0  0  0  0  0  0
   18.8197  -11.3589  -18.7182 C   0  0  0  0  0  0  0  0  0  0  0  0
   19.3533  -12.2342  -17.6244 C   0  0  2  0  0  0  0  0  0  0  0  0
   18.3605  -12.8463  -16.8133 N   0  0  0  0  0  0  0  0  0  0  0  0
   20.3018  -11.4902  -16.7445 C   0  0  0  0  0  0  0  0  0  0  0  0
   20.0676  -11.3273  -15.5074 O   0  0  0  0  0  0  0  0  0  0  0  0
   27.7273  -10.3006  -15.0268 C   0  0  0  0  0  0  0  0  0  0  0  0
   26.5624  -10.8997  -16.2776 S   0  0  0  0  0  0  0  0  0  0  0  0
   24.8933  -10.3343  -15.8622 C   0  0  0  0  0  0  0  0  0  0  0  0
   23.8749  -10.8644  -16.8481 C   0  0  0  0  0  0  0  0  0  0  0  0
   22.5223  -10.3051  -16.4253 C   0  0  2  0  0  0  0  0  0  0  0  0
   21.5064  -10.9312  -17.2465 N   0  0  0  0  0  0  0  0  0  0  0  0
   22.4862   -8.8137  -16.5839 C   0  0  0  0  0  0  0  0  0  0  0  0
   22.3861   -8.3063  -17.7206 O   0  0  0  0  0  0  0  0  0  0  0  0
   22.5669   -7.9973  -15.4376 N   0  0  0  0  0  0  0  0  0  0  0  0
   22.2839   -6.5701  -15.4718 C   0  0  1  0  0  0  0  0  0  0  0  0
   20.8716   -6.3506  -15.9385 C   0  0  0  0  0  0  0  0  0  0  0  0
   20.4467   -4.9215  -15.8899 C   0  0  0  0  0  0  0  0  0  0  0  0
   19.0545   -4.6859  -16.3229 C   0  0  0  0  0  0  0  0  0  0  0  0
   18.1645   -4.1759  -15.5973 O   0  0  0  0  0  0  0  0  0  0  0  0
   22.4259   -6.0520  -14.0642 C   0  0  0  0  0  0  0  0  0  0  0  0
   22.2064   -6.7787  -13.0609 O   0  0  0  0  0  0  0  0  0  0  0  0
   18.6968   -5.0479  -17.6137 O   0  0  0  0  0  0  0  0  0  0  0  0
   22.8075   -4.7426  -13.8375 O   0  0  0  0  0  0  0  0  0  0  0  0
  2  3  1  0
  2  1  1  0
  3  4  1  1
  5  6  2  0
  5  3  1  0
  7  8  1  0
  8  9  1  0
  9 10  1  0
 11 10  1  6
 11 13  1  0
 11 12  1  0
 12  5  1  0
 13 15  1  0
 14 13  2  0
 15 16  1  0
 16 21  1  0
 16 17  1  1
 18 17  1  0
 19 18  1  0
 20 19  2  0
 21 22  2  0
 21 24  1  0
 23 19  1  0
M  END
$$$$
