SME.pdb
     RDKit          3D

 24 23  0  0  1  0  0  0  0  0999 V2000
   21.6304  -16.9036  -16.0264 O   0  0  0  0  0  0  0  0  0  0  0  0
   20.7892  -16.0439  -16.6885 C   0  0  0  0  0  0  0  0  0  0  0  0
   21.4827  -15.1485  -17.6705 C   0  0  2  0  0  0  0  0  0  0  0  0
   22.4432  -15.7966  -18.4926 N   0  0  0  0  0  0  0  0  0  0  0  0
   22.1351  -13.9926  -16.9881 C   0  0  0  0  0  0  0  0  0  0  0  0
   21.5004  -13.2686  -16.1607 O   0  0  0  0  0  0  0  0  0  0  0  0
   26.7008  -16.0698  -14.5157 C   0  0  0  0  0  0  0  0  0  0  0  0
   26.0427  -15.2003  -15.9617 S   0  0  0  0  0  0  0  0  0  0  0  0
   26.1619  -13.4138  -15.6928 C   0  0  0  0  0  0  0  0  0  0  0  0
   25.6472  -12.6447  -16.8902 C   0  0  0  0  0  0  0  0  0  0  0  0
   24.1464  -12.4750  -16.6907 C   0  0  2  0  0  0  0  0  0  0  0  0
   23.4910  -13.6487  -17.2305 N   0  0  0  0  0  0  0  0  0  0  0  0
   23.6526  -11.2327  -17.3718 C   0  0  0  0  0  0  0  0  0  0  0  0
   23.6192  -11.1725  -18.6187 O   0  0  0  0  0  0  0  0  0  0  0  0
   23.2296  -10.1399  -16.5884 N   0  0  0  0  0  0  0  0  0  0  0  0
   22.6709   -8.9290  -17.1712 C   0  0  1  0  0  0  0  0  0  0  0  0
   22.2254   -8.0039  -16.0730 C   0  0  0  0  0  0  0  0  0  0  0  0
   21.0280   -8.4966  -15.3323 C   0  0  0  0  0  0  0  0  0  0  0  0
   20.5420   -7.5786  -14.2824 C   0  0  0  0  0  0  0  0  0  0  0  0
   20.5696   -7.8326  -13.0522 O   0  0  0  0  0  0  0  0  0  0  0  0
   23.7684   -8.2656  -17.9621 C   0  0  0  0  0  0  0  0  0  0  0  0
   23.5439   -7.2930  -18.7280 O   0  0  0  0  0  0  0  0  0  0  0  0
   20.0194   -6.3531  -14.6703 O   0  0  0  0  0  0  0  0  0  0  0  0
   25.0712   -8.7176  -17.8632 O   0  0  0  0  0  0  0  0  0  0  0  0
  2  3  1  0
  2  1  1  0
  3  4  1  1
  5  6  2  0
  5  3  1  0
  7  8  1  0
  8  9  1  0
  9 10  1  0
 11 10  1  6
 11 13  1  0
 11 12  1  0
 12  5  1  0
 13 15  1  0
 14 13  2  0
 15 16  1  0
 16 21  1  0
 16 17  1  1
 18 17  1  0
 19 18  1  0
 20 19  2  0
 21 22  2  0
 21 24  1  0
 23 19  1  0
M  END
$$$$
