SME.pdb
     RDKit          3D

 24 23  0  0  1  0  0  0  0  0999 V2000
   26.5416  -18.5498  -16.0032 O   0  0  0  0  0  0  0  0  0  0  0  0
   27.6978  -18.7840  -15.3008 C   0  0  0  0  0  0  0  0  0  0  0  0
   27.9635  -20.2344  -15.0310 C   0  0  2  0  0  0  0  0  0  0  0  0
   28.1095  -21.0395  -16.1923 N   0  0  0  0  0  0  0  0  0  0  0  0
   26.9062  -20.8300  -14.1624 C   0  0  0  0  0  0  0  0  0  0  0  0
   26.0805  -21.6817  -14.6147 O   0  0  0  0  0  0  0  0  0  0  0  0
   26.8332  -19.8033   -7.7075 C   0  0  0  0  0  0  0  0  0  0  0  0
   25.1967  -20.5563   -7.8944 S   0  0  0  0  0  0  0  0  0  0  0  0
   24.9702  -21.0799   -9.6128 C   0  0  0  0  0  0  0  0  0  0  0  0
   26.0027  -20.4450  -10.5189 C   0  0  0  0  0  0  0  0  0  0  0  0
   25.6979  -20.9218  -11.9333 C   0  0  2  0  0  0  0  0  0  0  0  0
   26.7735  -20.4743  -12.7943 N   0  0  0  0  0  0  0  0  0  0  0  0
   24.3807  -20.3829  -12.4081 C   0  0  0  0  0  0  0  0  0  0  0  0
   24.3064  -19.2241  -12.8677 O   0  0  0  0  0  0  0  0  0  0  0  0
   23.2340  -21.1985  -12.3280 N   0  0  0  0  0  0  0  0  0  0  0  0
   21.9856  -20.8614  -12.9959 C   0  0  1  0  0  0  0  0  0  0  0  0
   22.0556  -21.2908  -14.4350 C   0  0  0  0  0  0  0  0  0  0  0  0
   21.6136  -20.2344  -15.3910 C   0  0  0  0  0  0  0  0  0  0  0  0
   22.6212  -19.8754  -16.4092 C   0  0  0  0  0  0  0  0  0  0  0  0
   23.1771  -20.7007  -17.1764 O   0  0  0  0  0  0  0  0  0  0  0  0
   20.8873  -21.6266  -12.3043 C   0  0  0  0  0  0  0  0  0  0  0  0
   21.0058  -22.8442  -12.0105 O   0  0  0  0  0  0  0  0  0  0  0  0
   22.9838  -18.5419  -16.5344 O   0  0  0  0  0  0  0  0  0  0  0  0
   19.7022  -20.9979  -11.9701 O   0  0  0  0  0  0  0  0  0  0  0  0
  2  3  1  0
  2  1  1  0
  3  4  1  6
  5  6  2  0
  5  3  1  0
  7  8  1  0
  8  9  1  0
  9 10  1  0
 11 10  1  1
 11 13  1  0
 11 12  1  0
 12  5  1  0
 13 15  1  0
 14 13  2  0
 15 16  1  0
 16 21  1  0
 16 17  1  6
 18 17  1  0
 19 18  1  0
 20 19  2  0
 21 22  2  0
 21 24  1  0
 23 19  1  0
M  END
$$$$
