SME.pdb
     RDKit          3D

 24 23  0  0  1  0  0  0  0  0999 V2000
   15.9410   -9.9813  -17.0791 O   0  0  0  0  0  0  0  0  0  0  0  0
   17.0031   -9.6069  -16.2938 C   0  0  0  0  0  0  0  0  0  0  0  0
   17.7798  -10.7584  -15.7300 C   0  0  2  0  0  0  0  0  0  0  0  0
   17.1115  -11.4842  -14.7077 N   0  0  0  0  0  0  0  0  0  0  0  0
   19.1106  -10.3193  -15.2168 C   0  0  0  0  0  0  0  0  0  0  0  0
   19.2941  -10.0640  -13.9868 O   0  0  0  0  0  0  0  0  0  0  0  0
   26.5879  -11.1624  -14.7566 C   0  0  0  0  0  0  0  0  0  0  0  0
   25.0291  -11.6986  -15.5068 S   0  0  0  0  0  0  0  0  0  0  0  0
   23.9145  -10.2792  -15.6531 C   0  0  0  0  0  0  0  0  0  0  0  0
   22.5707  -10.6941  -16.2119 C   0  0  0  0  0  0  0  0  0  0  0  0
   21.5408   -9.7271  -15.6416 C   0  0  2  0  0  0  0  0  0  0  0  0
   20.2306  -10.1666  -16.0758 N   0  0  0  0  0  0  0  0  0  0  0  0
   21.8089   -8.3252  -16.1037 C   0  0  0  0  0  0  0  0  0  0  0  0
   21.8599   -8.0663  -17.3243 O   0  0  0  0  0  0  0  0  0  0  0  0
   22.0019   -7.3095  -15.1456 N   0  0  0  0  0  0  0  0  0  0  0  0
   22.1567   -5.9090  -15.5100 C   0  0  1  0  0  0  0  0  0  0  0  0
   20.8735   -5.4021  -16.1073 C   0  0  0  0  0  0  0  0  0  0  0  0
   19.7312   -5.4057  -15.1480 C   0  0  0  0  0  0  0  0  0  0  0  0
   18.4723   -4.8648  -15.6992 C   0  0  0  0  0  0  0  0  0  0  0  0
   18.0869   -3.6782  -15.5507 O   0  0  0  0  0  0  0  0  0  0  0  0
   22.4479   -5.1467  -14.2435 C   0  0  0  0  0  0  0  0  0  0  0  0
   22.3184   -5.6687  -13.1062 O   0  0  0  0  0  0  0  0  0  0  0  0
   17.6554   -5.7152  -16.4306 O   0  0  0  0  0  0  0  0  0  0  0  0
   22.8720   -3.8320  -14.3020 O   0  0  0  0  0  0  0  0  0  0  0  0
  2  3  1  0
  2  1  1  0
  3  4  1  1
  5  6  2  0
  5  3  1  0
  7  8  1  0
  8  9  1  0
  9 10  1  0
 11 10  1  6
 11 13  1  0
 11 12  1  0
 12  5  1  0
 13 15  1  0
 14 13  2  0
 15 16  1  0
 16 21  1  0
 16 17  1  1
 18 17  1  0
 19 18  1  0
 20 19  2  0
 21 22  2  0
 21 24  1  0
 23 19  1  0
M  END
$$$$
