SME.pdb
     RDKit          3D

 24 23  0  0  1  0  0  0  0  0999 V2000
   28.0720  -17.9789  -15.1800 O   0  0  0  0  0  0  0  0  0  0  0  0
   27.5162  -19.1790  -15.5484 C   0  0  0  0  0  0  0  0  0  0  0  0
   28.1562  -20.3708  -14.9025 C   0  0  2  0  0  0  0  0  0  0  0  0
   28.5294  -21.4065  -15.8005 N   0  0  0  0  0  0  0  0  0  0  0  0
   27.2841  -20.9481  -13.8379 C   0  0  0  0  0  0  0  0  0  0  0  0
   26.4431  -21.8635  -14.0957 O   0  0  0  0  0  0  0  0  0  0  0  0
   25.3076  -21.0186   -6.2054 C   0  0  0  0  0  0  0  0  0  0  0  0
   26.4987  -20.3919   -7.4173 S   0  0  0  0  0  0  0  0  0  0  0  0
   25.8914  -20.7355   -9.0881 C   0  0  0  0  0  0  0  0  0  0  0  0
   26.9209  -20.3611  -10.1322 C   0  0  0  0  0  0  0  0  0  0  0  0
   26.3634  -20.8075  -11.4779 C   0  0  2  0  0  0  0  0  0  0  0  0
   27.3526  -20.5031  -12.4915 N   0  0  0  0  0  0  0  0  0  0  0  0
   25.0675  -20.1134  -11.7777 C   0  0  0  0  0  0  0  0  0  0  0  0
   25.0609  -18.9026  -12.0832 O   0  0  0  0  0  0  0  0  0  0  0  0
   23.8637  -20.8434  -11.7094 N   0  0  0  0  0  0  0  0  0  0  0  0
   22.6598  -20.4355  -12.4182 C   0  0  1  0  0  0  0  0  0  0  0  0
   22.4792  -21.2979  -13.6364 C   0  0  0  0  0  0  0  0  0  0  0  0
   21.2271  -21.0026  -14.3915 C   0  0  0  0  0  0  0  0  0  0  0  0
   21.0256  -21.8442  -15.5882 C   0  0  0  0  0  0  0  0  0  0  0  0
   20.9396  -23.0976  -15.5655 O   0  0  0  0  0  0  0  0  0  0  0  0
   21.4968  -20.6488  -11.4844 C   0  0  0  0  0  0  0  0  0  0  0  0
   21.6026  -21.3311  -10.4326 O   0  0  0  0  0  0  0  0  0  0  0  0
   20.9233  -21.2189  -16.8226 O   0  0  0  0  0  0  0  0  0  0  0  0
   20.2640  -20.0899  -11.7659 O   0  0  0  0  0  0  0  0  0  0  0  0
  2  3  1  0
  2  1  1  0
  3  4  1  6
  5  6  2  0
  5  3  1  0
  7  8  1  0
  8  9  1  0
  9 10  1  0
 11 10  1  1
 11 13  1  0
 11 12  1  0
 12  5  1  0
 13 15  1  0
 14 13  2  0
 15 16  1  0
 16 21  1  0
 16 17  1  6
 18 17  1  0
 19 18  1  0
 20 19  2  0
 21 22  2  0
 21 24  1  0
 23 19  1  0
M  END
$$$$
