SME.pdb
     RDKit          3D

 24 23  0  0  1  0  0  0  0  0999 V2000
   28.0874  -18.1024  -15.9631 O   0  0  0  0  0  0  0  0  0  0  0  0
   27.0856  -18.9313  -15.5224 C   0  0  0  0  0  0  0  0  0  0  0  0
   27.5769  -20.2028  -14.8987 C   0  0  2  0  0  0  0  0  0  0  0  0
   28.1644  -21.1237  -15.8070 N   0  0  0  0  0  0  0  0  0  0  0  0
   26.4907  -20.8960  -14.1458 C   0  0  0  0  0  0  0  0  0  0  0  0
   25.8455  -21.8632  -14.6558 O   0  0  0  0  0  0  0  0  0  0  0  0
   25.0341  -20.5445   -7.6229 C   0  0  0  0  0  0  0  0  0  0  0  0
   26.6318  -20.8428   -8.4221 S   0  0  0  0  0  0  0  0  0  0  0  0
   26.3670  -21.1975  -10.1778 C   0  0  0  0  0  0  0  0  0  0  0  0
   25.0743  -20.5844  -10.6710 C   0  0  0  0  0  0  0  0  0  0  0  0
   24.9394  -20.9670  -12.1395 C   0  0  2  0  0  0  0  0  0  0  0  0
   26.1282  -20.5089  -12.8289 N   0  0  0  0  0  0  0  0  0  0  0  0
   23.7093  -20.3547  -12.7417 C   0  0  0  0  0  0  0  0  0  0  0  0
   23.7641  -19.2214  -13.2633 O   0  0  0  0  0  0  0  0  0  0  0  0
   22.4967  -21.0728  -12.7101 N   0  0  0  0  0  0  0  0  0  0  0  0
   21.4185  -20.8300  -13.6570 C   0  0  1  0  0  0  0  0  0  0  0  0
   21.8783  -21.1897  -15.0426 C   0  0  0  0  0  0  0  0  0  0  0  0
   20.8069  -21.0668  -16.0731 C   0  0  0  0  0  0  0  0  0  0  0  0
   21.2171  -20.3438  -17.2938 C   0  0  0  0  0  0  0  0  0  0  0  0
   22.3896  -20.3257  -17.7452 O   0  0  0  0  0  0  0  0  0  0  0  0
   20.2714  -21.7261  -13.2683 C   0  0  0  0  0  0  0  0  0  0  0  0
   19.0725  -21.3933  -13.4546 O   0  0  0  0  0  0  0  0  0  0  0  0
   20.2515  -19.6355  -17.9948 O   0  0  0  0  0  0  0  0  0  0  0  0
   20.5132  -22.9572  -12.6873 O   0  0  0  0  0  0  0  0  0  0  0  0
  2  3  1  0
  2  1  1  0
  3  4  1  6
  5  6  2  0
  5  3  1  0
  7  8  1  0
  8  9  1  0
  9 10  1  0
 11 10  1  1
 11 13  1  0
 11 12  1  0
 12  5  1  0
 13 15  1  0
 14 13  2  0
 15 16  1  0
 16 21  1  0
 16 17  1  6
 18 17  1  0
 19 18  1  0
 20 19  2  0
 21 22  2  0
 21 24  1  0
 23 19  1  0
M  END
$$$$
