SME.pdb
     RDKit          3D

 24 23  0  0  1  0  0  0  0  0999 V2000
   17.8380  -11.1941  -19.5148 O   0  0  0  0  0  0  0  0  0  0  0  0
   18.7315  -12.1876  -19.8303 C   0  0  0  0  0  0  0  0  0  0  0  0
   19.1560  -13.0201  -18.6581 C   0  0  2  0  0  0  0  0  0  0  0  0
   18.1082  -13.7497  -18.0349 N   0  0  0  0  0  0  0  0  0  0  0  0
   19.8480  -12.1947  -17.6252 C   0  0  0  0  0  0  0  0  0  0  0  0
   19.2788  -11.8887  -16.5324 O   0  0  0  0  0  0  0  0  0  0  0  0
   26.7157   -9.8846  -14.6514 C   0  0  0  0  0  0  0  0  0  0  0  0
   25.8924  -10.8265  -15.9610 S   0  0  0  0  0  0  0  0  0  0  0  0
   24.1110  -10.5088  -15.8989 C   0  0  0  0  0  0  0  0  0  0  0  0
   23.3808  -11.2729  -16.9820 C   0  0  0  0  0  0  0  0  0  0  0  0
   21.9031  -10.9306  -16.8405 C   0  0  2  0  0  0  0  0  0  0  0  0
   21.1704  -11.7140  -17.8141 N   0  0  0  0  0  0  0  0  0  0  0  0
   21.6698   -9.4645  -17.0572 C   0  0  0  0  0  0  0  0  0  0  0  0
   21.8126   -8.9683  -18.1943 O   0  0  0  0  0  0  0  0  0  0  0  0
   21.2896   -8.6590  -15.9648 N   0  0  0  0  0  0  0  0  0  0  0  0
   21.0360   -7.2318  -16.0956 C   0  0  1  0  0  0  0  0  0  0  0  0
   19.5887   -6.9511  -15.8004 C   0  0  0  0  0  0  0  0  0  0  0  0
   19.2294   -5.5079  -15.9157 C   0  0  0  0  0  0  0  0  0  0  0  0
   17.7917   -5.2228  -15.7353 C   0  0  0  0  0  0  0  0  0  0  0  0
   16.9245   -6.0943  -15.4759 O   0  0  0  0  0  0  0  0  0  0  0  0
   21.8941   -6.5296  -15.0755 C   0  0  0  0  0  0  0  0  0  0  0  0
   22.2529   -7.0891  -14.0072 O   0  0  0  0  0  0  0  0  0  0  0  0
   17.3609   -3.9095  -15.8581 O   0  0  0  0  0  0  0  0  0  0  0  0
   22.3152   -5.2308  -15.2928 O   0  0  0  0  0  0  0  0  0  0  0  0
  2  3  1  0
  2  1  1  0
  3  4  1  1
  5  6  2  0
  5  3  1  0
  7  8  1  0
  8  9  1  0
  9 10  1  0
 11 10  1  6
 11 13  1  0
 11 12  1  0
 12  5  1  0
 13 15  1  0
 14 13  2  0
 15 16  1  0
 16 21  1  0
 16 17  1  1
 18 17  1  0
 19 18  1  0
 20 19  2  0
 21 22  2  0
 21 24  1  0
 23 19  1  0
M  END
$$$$
