WNL.pdb
     RDKit          3D

 31 32  0  0  1  0  0  0  0  0999 V2000
    6.6583  -17.3984   24.3186 N   0  0  0  0  0  0  0  0  0  0  0  0
    7.8217  -16.4938   24.2143 C   0  0  1  0  0  0  0  0  0  0  0  0
    7.9114  -15.6717   25.4114 C   0  0  0  0  0  0  0  0  0  0  0  0
    6.8488  -14.6986   25.6641 C   0  0  0  0  0  0  0  0  0  0  0  0
    5.6837  -15.0392   26.3695 C   0  0  0  0  0  0  0  0  0  0  0  0
    4.9212  -13.9429   26.5249 N   0  0  0  0  0  0  0  0  0  0  0  0
    5.5858  -12.9152   25.9279 C   0  0  0  0  0  0  0  0  0  0  0  0
    5.2390  -11.5873   25.7801 C   0  0  0  0  0  0  0  0  0  0  0  0
    6.0584  -10.6898   25.1014 C   0  0  0  0  0  0  0  0  0  0  0  0
    7.2372  -11.1639   24.5734 C   0  0  0  0  0  0  0  0  0  0  0  0
    7.5839  -12.4869   24.7220 C   0  0  0  0  0  0  0  0  0  0  0  0
    6.7740  -13.3745   25.3951 C   0  0  0  0  0  0  0  0  0  0  0  0
    8.9891  -17.1573   23.6536 C   0  0  0  0  0  0  0  0  0  0  0  0
    9.1825  -18.3977   23.6695 O   0  0  0  0  0  0  0  0  0  0  0  0
   13.5239  -17.7486   20.7639 N   0  0  0  0  0  0  0  0  0  0  0  0
   13.5319  -16.6245   21.6601 C   0  0  0  0  0  0  0  0  0  0  0  0
   14.5969  -16.2718   22.1915 O   0  0  0  0  0  0  0  0  0  0  0  0
   12.2174  -15.9861   21.8583 C   0  0  0  0  0  0  0  0  0  0  0  0
   11.3912  -16.7617   22.7999 C   0  0  2  0  0  0  0  0  0  0  0  0
   10.0505  -16.3963   23.0296 N   0  0  0  0  0  0  0  0  0  0  0  0
   12.1162  -17.1079   24.0625 C   0  0  0  0  0  0  0  0  0  0  0  0
   12.3771  -18.3205   24.2412 O   0  0  0  0  0  0  0  0  0  0  0  0
    8.9375  -14.6804   28.1232 C   0  0  0  0  0  0  0  0  0  0  0  0
   10.1796  -15.4670   27.9445 C   0  0  2  0  0  0  0  0  0  0  0  0
   11.1787  -15.0722   29.0501 C   0  0  0  0  0  0  0  0  0  0  0  0
   10.8277  -15.4994   26.6196 C   0  0  0  0  0  0  0  0  0  0  0  0
   12.0453  -16.2983   26.4635 C   0  0  2  0  0  0  0  0  0  0  0  0
   12.5152  -16.1757   25.0396 N   0  0  0  0  0  0  0  0  0  0  0  0
   12.0678  -17.6857   26.7977 C   0  0  0  0  0  0  0  0  0  0  0  0
   12.8057  -18.1014   27.7577 O   0  0  0  0  0  0  0  0  0  0  0  0
   11.3344  -18.7119   26.1779 O   0  0  0  0  0  0  0  0  0  0  0  0
  2  1  1  1
  2  3  1  0
  2 13  1  0
  3  4  1  0
  4  5  2  0
  5  6  1  0
  7  8  2  0
  7  6  1  0
  9  8  1  0
 10  9  2  0
 11 10  1  0
 11 12  2  0
 12  4  1  0
 12  7  1  0
 13 20  1  0
 13 14  2  0
 16 15  1  0
 17 16  2  0
 18 16  1  0
 19 18  1  1
 20 19  1  0
 21 19  1  0
 21 22  2  0
 24 26  1  0
 24 23  1  6
 25 24  1  0
 27 26  1  6
 27 28  1  0
 28 21  1  0
 29 27  1  0
 30 29  2  0
 31 29  1  0
M  END
$$$$
