WNL.pdb
     RDKit          3D

 31 32  0  0  1  0  0  0  0  0999 V2000
    7.6786  -18.7032   22.0031 N   0  0  0  0  0  0  0  0  0  0  0  0
    8.6464  -17.6298   22.3099 C   0  0  1  0  0  0  0  0  0  0  0  0
    7.9409  -16.4689   22.8309 C   0  0  0  0  0  0  0  0  0  0  0  0
    7.3280  -15.5454   21.8762 C   0  0  0  0  0  0  0  0  0  0  0  0
    5.9361  -15.3825   21.7909 C   0  0  0  0  0  0  0  0  0  0  0  0
    5.6548  -14.4211   20.8942 N   0  0  0  0  0  0  0  0  0  0  0  0
    6.8470  -13.9747   20.4109 C   0  0  0  0  0  0  0  0  0  0  0  0
    7.1271  -13.0161   19.4579 C   0  0  0  0  0  0  0  0  0  0  0  0
    8.4341  -12.7226   19.0796 C   0  0  0  0  0  0  0  0  0  0  0  0
    9.4537  -13.4206   19.6850 C   0  0  0  0  0  0  0  0  0  0  0  0
    9.1749  -14.3748   20.6359 C   0  0  0  0  0  0  0  0  0  0  0  0
    7.8817  -14.6639   21.0116 C   0  0  0  0  0  0  0  0  0  0  0  0
    9.8534  -18.1384   22.9436 C   0  0  0  0  0  0  0  0  0  0  0  0
    9.9059  -19.1715   23.6552 O   0  0  0  0  0  0  0  0  0  0  0  0
   13.8185  -18.4339   21.1642 N   0  0  0  0  0  0  0  0  0  0  0  0
   13.6342  -17.0968   21.6591 C   0  0  0  0  0  0  0  0  0  0  0  0
   13.5593  -16.1514   20.8579 O   0  0  0  0  0  0  0  0  0  0  0  0
   13.5504  -16.9902   23.1276 C   0  0  0  0  0  0  0  0  0  0  0  0
   12.2605  -17.5038   23.6207 C   0  0  2  0  0  0  0  0  0  0  0  0
   11.1179  -17.4491   22.7990 N   0  0  0  0  0  0  0  0  0  0  0  0
   11.9727  -17.0973   25.0320 C   0  0  0  0  0  0  0  0  0  0  0  0
   12.8595  -17.3562   25.8787 O   0  0  0  0  0  0  0  0  0  0  0  0
    8.0599  -13.5843   28.3902 C   0  0  0  0  0  0  0  0  0  0  0  0
    9.2730  -14.4265   28.2783 C   0  0  2  0  0  0  0  0  0  0  0  0
   10.4389  -13.7121   28.9901 C   0  0  0  0  0  0  0  0  0  0  0  0
    9.6797  -14.9316   26.9532 C   0  0  0  0  0  0  0  0  0  0  0  0
   10.5984  -16.0710   26.8983 C   0  0  2  0  0  0  0  0  0  0  0  0
   10.7937  -16.4554   25.4569 N   0  0  0  0  0  0  0  0  0  0  0  0
   10.3324  -17.2714   27.6232 C   0  0  0  0  0  0  0  0  0  0  0  0
    9.4644  -18.1047   27.1858 O   0  0  0  0  0  0  0  0  0  0  0  0
   10.9431  -17.6840   28.8197 O   0  0  0  0  0  0  0  0  0  0  0  0
  2  1  1  1
  2  3  1  0
  2 13  1  0
  3  4  1  0
  4  5  2  0
  5  6  1  0
  7  8  2  0
  7  6  1  0
  9  8  1  0
 10  9  2  0
 11 10  1  0
 11 12  2  0
 12  4  1  0
 12  7  1  0
 13 20  1  0
 13 14  2  0
 16 15  1  0
 17 16  2  0
 18 16  1  0
 19 18  1  6
 20 19  1  0
 21 19  1  0
 21 22  2  0
 24 26  1  0
 24 23  1  6
 25 24  1  0
 27 26  1  6
 27 28  1  0
 28 21  1  0
 29 27  1  0
 30 29  2  0
 31 29  1  0
M  END
$$$$
