WNL.pdb
     RDKit          3D

 31 32  0  0  1  0  0  0  0  0999 V2000
    6.8234  -17.7061   23.6316 N   0  0  0  0  0  0  0  0  0  0  0  0
    7.9952  -16.8664   23.9547 C   0  0  1  0  0  0  0  0  0  0  0  0
    7.8333  -16.2893   25.2805 C   0  0  0  0  0  0  0  0  0  0  0  0
    6.9483  -15.1341   25.4292 C   0  0  0  0  0  0  0  0  0  0  0  0
    5.7811  -15.1893   26.2075 C   0  0  0  0  0  0  0  0  0  0  0  0
    5.2065  -13.9741   26.2345 N   0  0  0  0  0  0  0  0  0  0  0  0
    5.9917  -13.1523   25.4847 C   0  0  0  0  0  0  0  0  0  0  0  0
    5.8480  -11.8165   25.1680 C   0  0  0  0  0  0  0  0  0  0  0  0
    6.7617  -11.1574   24.3505 C   0  0  0  0  0  0  0  0  0  0  0  0
    7.8249  -11.8787   23.8581 C   0  0  0  0  0  0  0  0  0  0  0  0
    7.9694  -13.2095   24.1749 C   0  0  0  0  0  0  0  0  0  0  0  0
    7.0662  -13.8612   24.9853 C   0  0  0  0  0  0  0  0  0  0  0  0
    9.2467  -17.4792   23.5356 C   0  0  0  0  0  0  0  0  0  0  0  0
    9.4516  -18.7164   23.4753 O   0  0  0  0  0  0  0  0  0  0  0  0
   12.0174  -14.6674   20.9353 N   0  0  0  0  0  0  0  0  0  0  0  0
   12.5840  -15.8995   21.4127 C   0  0  0  0  0  0  0  0  0  0  0  0
   12.8754  -16.7944   20.6032 O   0  0  0  0  0  0  0  0  0  0  0  0
   12.7649  -15.9680   22.8746 C   0  0  0  0  0  0  0  0  0  0  0  0
   11.7436  -16.8319   23.4923 C   0  0  2  0  0  0  0  0  0  0  0  0
   10.3848  -16.6674   23.1603 N   0  0  0  0  0  0  0  0  0  0  0  0
   11.9563  -17.0271   24.9607 C   0  0  0  0  0  0  0  0  0  0  0  0
   13.1365  -17.2273   25.3315 O   0  0  0  0  0  0  0  0  0  0  0  0
   10.5552  -14.0409   27.8343 C   0  0  0  0  0  0  0  0  0  0  0  0
    9.6405  -15.2039   27.7691 C   0  0  2  0  0  0  0  0  0  0  0  0
    8.3391  -14.8525   28.5170 C   0  0  0  0  0  0  0  0  0  0  0  0
   10.1407  -16.5367   28.1560 C   0  0  0  0  0  0  0  0  0  0  0  0
   11.2558  -17.1055   27.3956 C   0  0  2  0  0  0  0  0  0  0  0  0
   10.9349  -16.9992   25.9296 N   0  0  0  0  0  0  0  0  0  0  0  0
   11.7099  -18.4377   27.6329 C   0  0  0  0  0  0  0  0  0  0  0  0
   11.4459  -19.3641   26.7896 O   0  0  0  0  0  0  0  0  0  0  0  0
   12.4607  -18.8868   28.7326 O   0  0  0  0  0  0  0  0  0  0  0  0
  2  1  1  1
  2  3  1  0
  2 13  1  0
  3  4  1  0
  4  5  2  0
  5  6  1  0
  7  8  2  0
  7  6  1  0
  9  8  1  0
 10  9  2  0
 11 10  1  0
 11 12  2  0
 12  4  1  0
 12  7  1  0
 13 20  1  0
 13 14  2  0
 16 15  1  0
 17 16  2  0
 18 16  1  0
 19 18  1  1
 20 19  1  0
 21 19  1  0
 21 22  2  0
 24 26  1  0
 24 23  1  1
 25 24  1  0
 27 26  1  1
 27 28  1  0
 28 21  1  0
 29 27  1  0
 30 29  2  0
 31 29  1  0
M  END
$$$$
