WNL.pdb
     RDKit          3D

 31 32  0  0  1  0  0  0  0  0999 V2000
    9.7753  -17.2809   20.4088 N   0  0  0  0  0  0  0  0  0  0  0  0
    9.2566  -16.7803   21.6984 C   0  0  1  0  0  0  0  0  0  0  0  0
    7.8318  -16.5098   21.5810 C   0  0  0  0  0  0  0  0  0  0  0  0
    7.3844  -15.6011   20.5256 C   0  0  0  0  0  0  0  0  0  0  0  0
    6.5573  -16.0328   19.4765 C   0  0  0  0  0  0  0  0  0  0  0  0
    6.2371  -14.9822   18.7011 N   0  0  0  0  0  0  0  0  0  0  0  0
    6.8498  -13.8936   19.2433 C   0  0  0  0  0  0  0  0  0  0  0  0
    6.8690  -12.5763   18.8313 C   0  0  0  0  0  0  0  0  0  0  0  0
    7.5905  -11.6060   19.5209 C   0  0  0  0  0  0  0  0  0  0  0  0
    8.2944  -11.9963   20.6369 C   0  0  0  0  0  0  0  0  0  0  0  0
    8.2741  -13.3088   21.0486 C   0  0  0  0  0  0  0  0  0  0  0  0
    7.5587  -14.2685   20.3673 C   0  0  0  0  0  0  0  0  0  0  0  0
    9.8057  -17.5056   22.8340 C   0  0  0  0  0  0  0  0  0  0  0  0
    9.1194  -18.0666   23.7232 O   0  0  0  0  0  0  0  0  0  0  0  0
   13.7377  -20.7751   25.2102 N   0  0  0  0  0  0  0  0  0  0  0  0
   13.8204  -19.3423   25.1257 C   0  0  0  0  0  0  0  0  0  0  0  0
   14.3180  -18.7006   26.0646 O   0  0  0  0  0  0  0  0  0  0  0  0
   13.2820  -18.7673   23.8790 C   0  0  0  0  0  0  0  0  0  0  0  0
   11.9486  -18.1812   24.1016 C   0  0  2  0  0  0  0  0  0  0  0  0
   11.2360  -17.6181   23.0251 N   0  0  0  0  0  0  0  0  0  0  0  0
   11.8809  -17.3399   25.3375 C   0  0  0  0  0  0  0  0  0  0  0  0
   12.6442  -16.3469   25.3785 O   0  0  0  0  0  0  0  0  0  0  0  0
    8.4807  -13.6327   27.9771 C   0  0  0  0  0  0  0  0  0  0  0  0
    9.6220  -14.5480   28.2080 C   0  0  2  0  0  0  0  0  0  0  0  0
   10.8955  -13.7064   28.4239 C   0  0  0  0  0  0  0  0  0  0  0  0
    9.8616  -15.6540   27.2615 C   0  0  0  0  0  0  0  0  0  0  0  0
   10.9267  -16.6109   27.5698 C   0  0  2  0  0  0  0  0  0  0  0  0
   11.0307  -17.5895   26.4318 N   0  0  0  0  0  0  0  0  0  0  0  0
   10.9130  -17.3691   28.7789 C   0  0  0  0  0  0  0  0  0  0  0  0
   10.7662  -18.6402   28.7361 O   0  0  0  0  0  0  0  0  0  0  0  0
   11.0572  -16.8716   30.0852 O   0  0  0  0  0  0  0  0  0  0  0  0
  2  1  1  6
  2  3  1  0
  2 13  1  0
  3  4  1  0
  4  5  2  0
  5  6  1  0
  7  8  2  0
  7  6  1  0
  9  8  1  0
 10  9  2  0
 11 10  1  0
 11 12  2  0
 12  4  1  0
 12  7  1  0
 13 20  1  0
 13 14  2  0
 16 15  1  0
 17 16  2  0
 18 16  1  0
 19 18  1  6
 20 19  1  0
 21 19  1  0
 21 22  2  0
 24 26  1  0
 24 23  1  6
 25 24  1  0
 27 26  1  6
 27 28  1  0
 28 21  1  0
 29 27  1  0
 30 29  2  0
 31 29  1  0
M  END
$$$$
