WNL.pdb
     RDKit          3D

 31 32  0  0  1  0  0  0  0  0999 V2000
   10.1500  -16.4704   20.0549 N   0  0  0  0  0  0  0  0  0  0  0  0
    9.7770  -16.5544   21.4819 C   0  0  1  0  0  0  0  0  0  0  0  0
    8.3452  -16.3400   21.6271 C   0  0  0  0  0  0  0  0  0  0  0  0
    7.7551  -15.1579   20.9991 C   0  0  0  0  0  0  0  0  0  0  0  0
    6.3738  -14.9100   21.0361 C   0  0  0  0  0  0  0  0  0  0  0  0
    6.1189  -13.7239   20.4566 N   0  0  0  0  0  0  0  0  0  0  0  0
    7.3174  -13.2191   20.0532 C   0  0  0  0  0  0  0  0  0  0  0  0
    7.6202  -12.0474   19.3892 C   0  0  0  0  0  0  0  0  0  0  0  0
    8.9278  -11.7240   19.0382 C   0  0  0  0  0  0  0  0  0  0  0  0
    9.9244  -12.6121   19.3719 C   0  0  0  0  0  0  0  0  0  0  0  0
    9.6230  -13.7791   20.0350 C   0  0  0  0  0  0  0  0  0  0  0  0
    8.3295  -14.0982   20.3840 C   0  0  0  0  0  0  0  0  0  0  0  0
   10.4607  -17.6397   22.1690 C   0  0  0  0  0  0  0  0  0  0  0  0
   10.7151  -18.7592   21.6608 O   0  0  0  0  0  0  0  0  0  0  0  0
   13.7025  -15.4938   21.0804 N   0  0  0  0  0  0  0  0  0  0  0  0
   13.5914  -16.3328   22.2425 C   0  0  0  0  0  0  0  0  0  0  0  0
   14.2118  -17.4072   22.2846 O   0  0  0  0  0  0  0  0  0  0  0  0
   12.7150  -15.8020   23.3031 C   0  0  0  0  0  0  0  0  0  0  0  0
   12.0655  -16.8956   24.0468 C   0  0  2  0  0  0  0  0  0  0  0  0
   10.8954  -17.4954   23.5420 N   0  0  0  0  0  0  0  0  0  0  0  0
   11.9874  -16.6336   25.5182 C   0  0  0  0  0  0  0  0  0  0  0  0
   13.0366  -16.2250   26.0683 O   0  0  0  0  0  0  0  0  0  0  0  0
   10.7271  -13.1521   27.6283 C   0  0  0  0  0  0  0  0  0  0  0  0
    9.8150  -14.2528   27.2408 C   0  0  2  0  0  0  0  0  0  0  0  0
    8.3934  -13.6811   27.0713 C   0  0  0  0  0  0  0  0  0  0  0  0
    9.8046  -15.4942   28.0378 C   0  0  0  0  0  0  0  0  0  0  0  0
   10.8414  -16.4948   27.7749 C   0  0  2  0  0  0  0  0  0  0  0  0
   10.8332  -16.8131   26.3045 N   0  0  0  0  0  0  0  0  0  0  0  0
   10.8648  -17.7378   28.4759 C   0  0  0  0  0  0  0  0  0  0  0  0
   10.5323  -18.8183   27.8750 O   0  0  0  0  0  0  0  0  0  0  0  0
   11.2362  -17.9406   29.8160 O   0  0  0  0  0  0  0  0  0  0  0  0
  2  1  1  6
  2  3  1  0
  2 13  1  0
  3  4  1  0
  4  5  2  0
  5  6  1  0
  7  8  2  0
  7  6  1  0
  9  8  1  0
 10  9  2  0
 11 10  1  0
 11 12  2  0
 12  4  1  0
 12  7  1  0
 13 20  1  0
 13 14  2  0
 16 15  1  0
 17 16  2  0
 18 16  1  0
 19 18  1  6
 20 19  1  0
 21 19  1  0
 21 22  2  0
 24 26  1  0
 24 23  1  1
 25 24  1  0
 27 26  1  1
 27 28  1  0
 28 21  1  0
 29 27  1  0
 30 29  2  0
 31 29  1  0
M  END
$$$$
