WNL.pdb
     RDKit          3D

 31 32  0  0  1  0  0  0  0  0999 V2000
    6.2865  -18.4196   24.0329 N   0  0  0  0  0  0  0  0  0  0  0  0
    7.1835  -17.2651   24.2455 C   0  0  1  0  0  0  0  0  0  0  0  0
    6.8691  -16.6284   25.5154 C   0  0  0  0  0  0  0  0  0  0  0  0
    6.1575  -15.3505   25.4916 C   0  0  0  0  0  0  0  0  0  0  0  0
    4.9411  -15.1664   26.1680 C   0  0  0  0  0  0  0  0  0  0  0  0
    4.5533  -13.8849   26.0453 N   0  0  0  0  0  0  0  0  0  0  0  0
    5.5051  -13.2568   25.3011 C   0  0  0  0  0  0  0  0  0  0  0  0
    5.5855  -11.9498   24.8644 C   0  0  0  0  0  0  0  0  0  0  0  0
    6.6448  -11.5067   24.0775 C   0  0  0  0  0  0  0  0  0  0  0  0
    7.6221  -12.4144   23.7398 C   0  0  0  0  0  0  0  0  0  0  0  0
    7.5431  -13.7166   24.1763 C   0  0  0  0  0  0  0  0  0  0  0  0
    6.4959  -14.1546   24.9564 C   0  0  0  0  0  0  0  0  0  0  0  0
    8.5551  -17.5513   23.8530 C   0  0  0  0  0  0  0  0  0  0  0  0
    9.1141  -18.6691   23.9723 O   0  0  0  0  0  0  0  0  0  0  0  0
   13.7205  -16.2474   21.7571 N   0  0  0  0  0  0  0  0  0  0  0  0
   12.3394  -16.1724   21.3648 C   0  0  0  0  0  0  0  0  0  0  0  0
   11.9815  -16.6665   20.2837 O   0  0  0  0  0  0  0  0  0  0  0  0
   11.4615  -15.4871   22.3315 C   0  0  0  0  0  0  0  0  0  0  0  0
   10.8054  -16.4561   23.2267 C   0  0  2  0  0  0  0  0  0  0  0  0
    9.3998  -16.5192   23.2905 N   0  0  0  0  0  0  0  0  0  0  0  0
   11.4451  -16.5269   24.5778 C   0  0  0  0  0  0  0  0  0  0  0  0
   12.6741  -16.2872   24.6260 O   0  0  0  0  0  0  0  0  0  0  0  0
   10.3399  -13.9439   29.1360 C   0  0  0  0  0  0  0  0  0  0  0  0
   11.2715  -14.9062   28.5038 C   0  0  2  0  0  0  0  0  0  0  0  0
   11.9948  -14.2023   27.3386 C   0  0  0  0  0  0  0  0  0  0  0  0
   10.7721  -16.2353   28.1032 C   0  0  0  0  0  0  0  0  0  0  0  0
   11.5091  -16.9703   27.0727 C   0  0  2  0  0  0  0  0  0  0  0  0
   10.7659  -16.8384   25.7713 N   0  0  0  0  0  0  0  0  0  0  0  0
   11.8318  -18.3509   27.2366 C   0  0  0  0  0  0  0  0  0  0  0  0
   12.5178  -18.7326   28.2480 O   0  0  0  0  0  0  0  0  0  0  0  0
   11.4641  -19.4072   26.3858 O   0  0  0  0  0  0  0  0  0  0  0  0
  2  1  1  1
  2  3  1  0
  2 13  1  0
  3  4  1  0
  4  5  2  0
  5  6  1  0
  7  8  2  0
  7  6  1  0
  9  8  1  0
 10  9  2  0
 11 10  1  0
 11 12  2  0
 12  4  1  0
 12  7  1  0
 13 20  1  0
 13 14  2  0
 16 15  1  0
 17 16  2  0
 18 16  1  0
 19 18  1  1
 20 19  1  0
 21 19  1  0
 21 22  2  0
 24 26  1  0
 24 23  1  6
 25 24  1  0
 27 26  1  1
 27 28  1  0
 28 21  1  0
 29 27  1  0
 30 29  2  0
 31 29  1  0
M  END
$$$$
