WNL.pdb
     RDKit          3D

 31 32  0  0  1  0  0  0  0  0999 V2000
    9.8012  -15.5934   21.8751 N   0  0  0  0  0  0  0  0  0  0  0  0
    9.1107  -15.7581   23.1707 C   0  0  1  0  0  0  0  0  0  0  0  0
    7.6785  -15.5770   22.9886 C   0  0  0  0  0  0  0  0  0  0  0  0
    7.1645  -14.2139   22.8560 C   0  0  0  0  0  0  0  0  0  0  0  0
    6.6397  -13.7337   21.6456 C   0  0  0  0  0  0  0  0  0  0  0  0
    6.1695  -12.4874   21.8278 N   0  0  0  0  0  0  0  0  0  0  0  0
    6.3900  -12.1723   23.1341 C   0  0  0  0  0  0  0  0  0  0  0  0
    6.1212  -11.0145   23.8359 C   0  0  0  0  0  0  0  0  0  0  0  0
    6.4553  -10.8815   25.1806 C   0  0  0  0  0  0  0  0  0  0  0  0
    7.0691  -11.9449   25.8016 C   0  0  0  0  0  0  0  0  0  0  0  0
    7.3355  -13.0995   25.1028 C   0  0  0  0  0  0  0  0  0  0  0  0
    7.0032  -13.2318   23.7728 C   0  0  0  0  0  0  0  0  0  0  0  0
    9.6484  -16.8653   23.9467 C   0  0  0  0  0  0  0  0  0  0  0  0
    9.0107  -17.5007   24.8220 O   0  0  0  0  0  0  0  0  0  0  0  0
   13.5074  -18.2920   21.6310 N   0  0  0  0  0  0  0  0  0  0  0  0
   12.7757  -19.1519   22.5210 C   0  0  0  0  0  0  0  0  0  0  0  0
   12.0599  -20.0519   22.0532 O   0  0  0  0  0  0  0  0  0  0  0  0
   12.9641  -18.8582   23.9538 C   0  0  0  0  0  0  0  0  0  0  0  0
   11.7612  -18.2280   24.5253 C   0  0  2  0  0  0  0  0  0  0  0  0
   11.0123  -17.3125   23.7605 N   0  0  0  0  0  0  0  0  0  0  0  0
   11.9575  -17.7712   25.9369 C   0  0  0  0  0  0  0  0  0  0  0  0
   13.1066  -17.3735   26.2395 O   0  0  0  0  0  0  0  0  0  0  0  0
   10.8113  -14.2891   27.7727 C   0  0  0  0  0  0  0  0  0  0  0  0
    9.9049  -15.4349   28.0160 C   0  0  2  0  0  0  0  0  0  0  0  0
    8.5244  -14.8931   28.4369 C   0  0  0  0  0  0  0  0  0  0  0  0
   10.3473  -16.5280   28.9023 C   0  0  0  0  0  0  0  0  0  0  0  0
   11.2899  -17.5140   28.3686 C   0  0  2  0  0  0  0  0  0  0  0  0
   10.9526  -17.7603   26.9233 N   0  0  0  0  0  0  0  0  0  0  0  0
   11.4554  -18.7896   28.9870 C   0  0  0  0  0  0  0  0  0  0  0  0
   10.9808  -19.8389   28.4276 O   0  0  0  0  0  0  0  0  0  0  0  0
   12.1187  -19.0581   30.1964 O   0  0  0  0  0  0  0  0  0  0  0  0
  2  1  1  6
  2  3  1  0
  2 13  1  0
  3  4  1  0
  4  5  2  0
  5  6  1  0
  7  8  2  0
  7  6  1  0
  9  8  1  0
 10  9  2  0
 11 10  1  0
 11 12  2  0
 12  4  1  0
 12  7  1  0
 13 20  1  0
 13 14  2  0
 16 15  1  0
 17 16  2  0
 18 16  1  0
 19 18  1  6
 20 19  1  0
 21 19  1  0
 21 22  2  0
 24 26  1  0
 24 23  1  1
 25 24  1  0
 27 26  1  1
 27 28  1  0
 28 21  1  0
 29 27  1  0
 30 29  2  0
 31 29  1  0
M  END
$$$$
