WNL.pdb
     RDKit          3D

 31 32  0  0  1  0  0  0  0  0999 V2000
    8.0518  -16.8508   20.4562 N   0  0  0  0  0  0  0  0  0  0  0  0
    8.2127  -16.6085   21.9046 C   0  0  1  0  0  0  0  0  0  0  0  0
    6.9120  -16.6503   22.5554 C   0  0  0  0  0  0  0  0  0  0  0  0
    6.6992  -15.8074   23.7318 C   0  0  0  0  0  0  0  0  0  0  0  0
    6.3482  -16.3491   24.9786 C   0  0  0  0  0  0  0  0  0  0  0  0
    6.2961  -15.3646   25.8927 N   0  0  0  0  0  0  0  0  0  0  0  0
    6.6077  -14.2093   25.2428 C   0  0  0  0  0  0  0  0  0  0  0  0
    6.6772  -12.9103   25.7045 C   0  0  0  0  0  0  0  0  0  0  0  0
    6.9916  -11.8505   24.8586 C   0  0  0  0  0  0  0  0  0  0  0  0
    7.2334  -12.1318   23.5336 C   0  0  0  0  0  0  0  0  0  0  0  0
    7.1658  -13.4266   23.0736 C   0  0  0  0  0  0  0  0  0  0  0  0
    6.8566  -14.4754   23.9110 C   0  0  0  0  0  0  0  0  0  0  0  0
    9.3659  -17.3033   22.4565 C   0  0  0  0  0  0  0  0  0  0  0  0
    9.8514  -18.3635   21.9912 O   0  0  0  0  0  0  0  0  0  0  0  0
   12.5119  -17.9327   21.6047 N   0  0  0  0  0  0  0  0  0  0  0  0
   12.3787  -16.5051   21.7089 C   0  0  0  0  0  0  0  0  0  0  0  0
   12.3051  -15.8193   20.6767 O   0  0  0  0  0  0  0  0  0  0  0  0
   12.3423  -15.9896   23.0900 C   0  0  0  0  0  0  0  0  0  0  0  0
   11.4224  -16.7822   23.9245 C   0  0  2  0  0  0  0  0  0  0  0  0
   10.0445  -16.8027   23.6329 N   0  0  0  0  0  0  0  0  0  0  0  0
   11.6972  -16.6424   25.3890 C   0  0  0  0  0  0  0  0  0  0  0  0
   12.9019  -16.6542   25.7338 O   0  0  0  0  0  0  0  0  0  0  0  0
   11.5866  -13.3493   27.5317 C   0  0  0  0  0  0  0  0  0  0  0  0
   10.3955  -14.1949   27.7762 C   0  0  2  0  0  0  0  0  0  0  0  0
    9.2729  -13.3125   28.3571 C   0  0  0  0  0  0  0  0  0  0  0  0
   10.5458  -15.4476   28.5407 C   0  0  0  0  0  0  0  0  0  0  0  0
   11.0502  -16.6306   27.8398 C   0  0  2  0  0  0  0  0  0  0  0  0
   10.7076  -16.5008   26.3806 N   0  0  0  0  0  0  0  0  0  0  0  0
   10.6762  -17.9467   28.2459 C   0  0  0  0  0  0  0  0  0  0  0  0
   10.9405  -18.3504   29.4318 O   0  0  0  0  0  0  0  0  0  0  0  0
   10.0085  -18.9087   27.4689 O   0  0  0  0  0  0  0  0  0  0  0  0
  2  1  1  6
  2  3  1  0
  2 13  1  0
  3  4  1  0
  4  5  2  0
  5  6  1  0
  7  8  2  0
  7  6  1  0
  9  8  1  0
 10  9  2  0
 11 10  1  0
 11 12  2  0
 12  4  1  0
 12  7  1  0
 13 20  1  0
 13 14  2  0
 16 15  1  0
 17 16  2  0
 18 16  1  0
 19 18  1  6
 20 19  1  0
 21 19  1  0
 21 22  2  0
 24 26  1  0
 24 23  1  1
 25 24  1  0
 27 26  1  1
 27 28  1  0
 28 21  1  0
 29 27  1  0
 30 29  2  0
 31 29  1  0
M  END
$$$$
