WNL.pdb
     RDKit          3D

 31 32  0  0  1  0  0  0  0  0999 V2000
    6.4213  -17.4607   24.2806 N   0  0  0  0  0  0  0  0  0  0  0  0
    7.7144  -16.8232   23.9580 C   0  0  1  0  0  0  0  0  0  0  0  0
    7.6932  -15.4315   24.3817 C   0  0  0  0  0  0  0  0  0  0  0  0
    7.1471  -14.4355   23.4599 C   0  0  0  0  0  0  0  0  0  0  0  0
    6.1114  -13.5656   23.8363 C   0  0  0  0  0  0  0  0  0  0  0  0
    5.8628  -12.7084   22.8308 N   0  0  0  0  0  0  0  0  0  0  0  0
    6.7246  -13.0237   21.8247 C   0  0  0  0  0  0  0  0  0  0  0  0
    6.8759  -12.4746   20.5673 C   0  0  0  0  0  0  0  0  0  0  0  0
    7.8123  -12.9678   19.6631 C   0  0  0  0  0  0  0  0  0  0  0  0
    8.5929  -14.0302   20.0569 C   0  0  0  0  0  0  0  0  0  0  0  0
    8.4434  -14.5765   21.3106 C   0  0  0  0  0  0  0  0  0  0  0  0
    7.5182  -14.0874   22.2060 C   0  0  0  0  0  0  0  0  0  0  0  0
    8.8458  -17.6922   24.2448 C   0  0  0  0  0  0  0  0  0  0  0  0
    8.7738  -18.7731   24.8795 O   0  0  0  0  0  0  0  0  0  0  0  0
   12.3770  -15.5041   22.2241 N   0  0  0  0  0  0  0  0  0  0  0  0
   12.3619  -16.9415   22.2477 C   0  0  0  0  0  0  0  0  0  0  0  0
   12.1112  -17.5691   21.2063 O   0  0  0  0  0  0  0  0  0  0  0  0
   12.6590  -17.5385   23.5630 C   0  0  0  0  0  0  0  0  0  0  0  0
   11.4233  -17.7505   24.3369 C   0  0  2  0  0  0  0  0  0  0  0  0
   10.1818  -17.3434   23.8108 N   0  0  0  0  0  0  0  0  0  0  0  0
   11.5754  -17.4021   25.7844 C   0  0  0  0  0  0  0  0  0  0  0  0
   12.6671  -17.7058   26.3193 O   0  0  0  0  0  0  0  0  0  0  0  0
   11.1599  -13.3672   28.2794 C   0  0  0  0  0  0  0  0  0  0  0  0
    9.9759  -14.1866   27.9327 C   0  0  2  0  0  0  0  0  0  0  0  0
    8.7052  -13.3495   28.1798 C   0  0  0  0  0  0  0  0  0  0  0  0
    9.8465  -15.5422   28.5002 C   0  0  0  0  0  0  0  0  0  0  0  0
   10.7787  -16.5758   28.0444 C   0  0  2  0  0  0  0  0  0  0  0  0
   10.5897  -16.7672   26.5642 N   0  0  0  0  0  0  0  0  0  0  0  0
   10.7938  -17.8730   28.6395 C   0  0  0  0  0  0  0  0  0  0  0  0
   10.1374  -18.8318   28.1020 O   0  0  0  0  0  0  0  0  0  0  0  0
   11.4841  -18.2570   29.8018 O   0  0  0  0  0  0  0  0  0  0  0  0
  2  1  1  1
  2  3  1  0
  2 13  1  0
  3  4  1  0
  4  5  2  0
  5  6  1  0
  7  8  2  0
  7  6  1  0
  9  8  1  0
 10  9  2  0
 11 10  1  0
 11 12  2  0
 12  4  1  0
 12  7  1  0
 13 20  1  0
 13 14  2  0
 16 15  1  0
 17 16  2  0
 18 16  1  0
 19 18  1  6
 20 19  1  0
 21 19  1  0
 21 22  2  0
 24 26  1  0
 24 23  1  1
 25 24  1  0
 27 26  1  1
 27 28  1  0
 28 21  1  0
 29 27  1  0
 30 29  2  0
 31 29  1  0
M  END
$$$$
