WNL.pdb
     RDKit          3D

 31 32  0  0  1  0  0  0  0  0999 V2000
    7.7972  -17.8173   22.2320 N   0  0  0  0  0  0  0  0  0  0  0  0
    8.8165  -16.8376   22.6610 C   0  0  1  0  0  0  0  0  0  0  0  0
    8.1659  -15.6037   23.0748 C   0  0  0  0  0  0  0  0  0  0  0  0
    7.5182  -14.7853   22.0499 C   0  0  0  0  0  0  0  0  0  0  0  0
    6.1501  -14.4745   22.1040 C   0  0  0  0  0  0  0  0  0  0  0  0
    5.8409  -13.6488   21.0891 N   0  0  0  0  0  0  0  0  0  0  0  0
    6.9919  -13.4337   20.3940 C   0  0  0  0  0  0  0  0  0  0  0  0
    7.2280  -12.6867   19.2575 C   0  0  0  0  0  0  0  0  0  0  0  0
    8.4920  -12.6175   18.6787 C   0  0  0  0  0  0  0  0  0  0  0  0
    9.5138  -13.3215   19.2733 C   0  0  0  0  0  0  0  0  0  0  0  0
    9.2792  -14.0646   20.4070 C   0  0  0  0  0  0  0  0  0  0  0  0
    8.0289  -14.1317   20.9807 C   0  0  0  0  0  0  0  0  0  0  0  0
    9.8709  -17.4492   23.4556 C   0  0  0  0  0  0  0  0  0  0  0  0
    9.6992  -18.3926   24.2661 O   0  0  0  0  0  0  0  0  0  0  0  0
   14.3904  -18.5571   22.0303 N   0  0  0  0  0  0  0  0  0  0  0  0
   13.8639  -17.2523   22.3252 C   0  0  0  0  0  0  0  0  0  0  0  0
   13.5872  -16.4783   21.3949 O   0  0  0  0  0  0  0  0  0  0  0  0
   13.7030  -16.9641   23.7625 C   0  0  0  0  0  0  0  0  0  0  0  0
   12.3310  -17.2616   24.2095 C   0  0  2  0  0  0  0  0  0  0  0  0
   11.2373  -16.9795   23.3681 N   0  0  0  0  0  0  0  0  0  0  0  0
   12.0811  -16.8607   25.6296 C   0  0  0  0  0  0  0  0  0  0  0  0
   13.0604  -16.3959   26.2583 O   0  0  0  0  0  0  0  0  0  0  0  0
   10.3909  -13.3249   27.9761 C   0  0  0  0  0  0  0  0  0  0  0  0
    9.5973  -14.3722   27.2929 C   0  0  2  0  0  0  0  0  0  0  0  0
    8.1891  -13.8160   27.0030 C   0  0  0  0  0  0  0  0  0  0  0  0
    9.5319  -15.7243   27.8795 C   0  0  0  0  0  0  0  0  0  0  0  0
   10.6989  -16.5979   27.7381 C   0  0  2  0  0  0  0  0  0  0  0  0
   10.8409  -16.9704   26.2874 N   0  0  0  0  0  0  0  0  0  0  0  0
   10.8190  -17.8008   28.4967 C   0  0  0  0  0  0  0  0  0  0  0  0
   10.9321  -17.7459   29.7708 O   0  0  0  0  0  0  0  0  0  0  0  0
   10.8198  -19.1140   27.9963 O   0  0  0  0  0  0  0  0  0  0  0  0
  2  1  1  1
  2  3  1  0
  2 13  1  0
  3  4  1  0
  4  5  2  0
  5  6  1  0
  7  8  2  0
  7  6  1  0
  9  8  1  0
 10  9  2  0
 11 10  1  0
 11 12  2  0
 12  4  1  0
 12  7  1  0
 13 20  1  0
 13 14  2  0
 16 15  1  0
 17 16  2  0
 18 16  1  0
 19 18  1  6
 20 19  1  0
 21 19  1  0
 21 22  2  0
 24 26  1  0
 24 23  1  1
 25 24  1  0
 27 26  1  6
 27 28  1  0
 28 21  1  0
 29 27  1  0
 30 29  2  0
 31 29  1  0
M  END
$$$$
