WNL.pdb
     RDKit          3D

 31 32  0  0  1  0  0  0  0  0999 V2000
    7.6280  -17.2600   24.0504 N   0  0  0  0  0  0  0  0  0  0  0  0
    8.3175  -15.9939   23.7275 C   0  0  1  0  0  0  0  0  0  0  0  0
    8.4719  -15.1986   24.9360 C   0  0  0  0  0  0  0  0  0  0  0  0
    7.3167  -14.4420   25.4190 C   0  0  0  0  0  0  0  0  0  0  0  0
    6.3599  -15.0138   26.2724 C   0  0  0  0  0  0  0  0  0  0  0  0
    5.4592  -14.0785   26.6212 N   0  0  0  0  0  0  0  0  0  0  0  0
    5.8316  -12.9250   26.0007 C   0  0  0  0  0  0  0  0  0  0  0  0
    5.2452  -11.6754   26.0018 C   0  0  0  0  0  0  0  0  0  0  0  0
    5.7763  -10.6189   25.2675 C   0  0  0  0  0  0  0  0  0  0  0  0
    6.9140  -10.8529   24.5299 C   0  0  0  0  0  0  0  0  0  0  0  0
    7.4996  -12.0977   24.5299 C   0  0  0  0  0  0  0  0  0  0  0  0
    6.9751  -13.1426   25.2579 C   0  0  0  0  0  0  0  0  0  0  0  0
    9.4166  -16.1858   22.7935 C   0  0  0  0  0  0  0  0  0  0  0  0
    9.6673  -15.4330   21.8205 O   0  0  0  0  0  0  0  0  0  0  0  0
   12.3329  -16.0403   19.9902 N   0  0  0  0  0  0  0  0  0  0  0  0
   12.4995  -17.0951   20.9528 C   0  0  0  0  0  0  0  0  0  0  0  0
   12.5050  -18.2768   20.5725 O   0  0  0  0  0  0  0  0  0  0  0  0
   12.6523  -16.6378   22.3464 C   0  0  0  0  0  0  0  0  0  0  0  0
   11.6924  -17.3186   23.2329 C   0  0  2  0  0  0  0  0  0  0  0  0
   10.3181  -17.3107   22.9247 N   0  0  0  0  0  0  0  0  0  0  0  0
   11.9568  -17.0634   24.6837 C   0  0  0  0  0  0  0  0  0  0  0  0
   13.0410  -16.5000   24.9621 O   0  0  0  0  0  0  0  0  0  0  0  0
   11.3849  -14.3490   27.9567 C   0  0  0  0  0  0  0  0  0  0  0  0
   10.3185  -15.3505   27.7253 C   0  0  2  0  0  0  0  0  0  0  0  0
    9.0334  -14.8776   28.4332 C   0  0  0  0  0  0  0  0  0  0  0  0
   10.5936  -16.7731   28.0027 C   0  0  0  0  0  0  0  0  0  0  0  0
   11.5643  -17.4690   27.1548 C   0  0  2  0  0  0  0  0  0  0  0  0
   11.0815  -17.4087   25.7312 N   0  0  0  0  0  0  0  0  0  0  0  0
   11.9401  -18.8208   27.4164 C   0  0  0  0  0  0  0  0  0  0  0  0
   12.5162  -19.1235   28.5190 O   0  0  0  0  0  0  0  0  0  0  0  0
   11.7389  -19.9275   26.5741 O   0  0  0  0  0  0  0  0  0  0  0  0
  2  1  1  1
  2  3  1  0
  2 13  1  0
  3  4  1  0
  4  5  2  0
  5  6  1  0
  7  8  2  0
  7  6  1  0
  9  8  1  0
 10  9  2  0
 11 10  1  0
 11 12  2  0
 12  4  1  0
 12  7  1  0
 13 20  1  0
 13 14  2  0
 16 15  1  0
 17 16  2  0
 18 16  1  0
 19 18  1  6
 20 19  1  0
 21 19  1  0
 21 22  2  0
 24 26  1  0
 24 23  1  1
 25 24  1  0
 27 26  1  1
 27 28  1  0
 28 21  1  0
 29 27  1  0
 30 29  2  0
 31 29  1  0
M  END
$$$$
