WNL.pdb
     RDKit          3D

 31 32  0  0  1  0  0  0  0  0999 V2000
    8.7967  -17.7916   21.1024 N   0  0  0  0  0  0  0  0  0  0  0  0
    9.4333  -16.7841   21.9754 C   0  0  1  0  0  0  0  0  0  0  0  0
    8.4221  -15.8736   22.4906 C   0  0  0  0  0  0  0  0  0  0  0  0
    7.7008  -15.0296   21.5382 C   0  0  0  0  0  0  0  0  0  0  0  0
    6.3499  -15.2508   21.2262 C   0  0  0  0  0  0  0  0  0  0  0  0
    5.9222  -14.2867   20.3923 N   0  0  0  0  0  0  0  0  0  0  0  0
    6.9820  -13.4605   20.1719 C   0  0  0  0  0  0  0  0  0  0  0  0
    7.0930  -12.3344   19.3813 C   0  0  0  0  0  0  0  0  0  0  0  0
    8.2921  -11.6365   19.2689 C   0  0  0  0  0  0  0  0  0  0  0  0
    9.3788  -12.1024   19.9728 C   0  0  0  0  0  0  0  0  0  0  0  0
    9.2679  -13.2237   20.7620 C   0  0  0  0  0  0  0  0  0  0  0  0
    8.0809  -13.9132   20.8747 C   0  0  0  0  0  0  0  0  0  0  0  0
   10.4501  -17.3647   22.8393 C   0  0  0  0  0  0  0  0  0  0  0  0
   10.2305  -18.2373   23.7149 O   0  0  0  0  0  0  0  0  0  0  0  0
   14.7426  -15.3568   21.3509 N   0  0  0  0  0  0  0  0  0  0  0  0
   14.4221  -16.6355   21.9244 C   0  0  0  0  0  0  0  0  0  0  0  0
   14.3336  -17.6321   21.1895 O   0  0  0  0  0  0  0  0  0  0  0  0
   14.2254  -16.6226   23.3859 C   0  0  0  0  0  0  0  0  0  0  0  0
   12.8385  -16.9774   23.7343 C   0  0  2  0  0  0  0  0  0  0  0  0
   11.8325  -16.9452   22.7491 N   0  0  0  0  0  0  0  0  0  0  0  0
   12.3918  -16.3776   25.0306 C   0  0  0  0  0  0  0  0  0  0  0  0
   12.6083  -15.1526   25.1822 O   0  0  0  0  0  0  0  0  0  0  0  0
    8.4909  -13.6214   27.3777 C   0  0  0  0  0  0  0  0  0  0  0  0
    9.5952  -14.5072   27.8130 C   0  0  2  0  0  0  0  0  0  0  0  0
   10.5607  -13.6954   28.6991 C   0  0  0  0  0  0  0  0  0  0  0  0
   10.3258  -15.2970   26.8037 C   0  0  0  0  0  0  0  0  0  0  0  0
   11.2022  -16.3744   27.2690 C   0  0  2  0  0  0  0  0  0  0  0  0
   11.7567  -17.0889   26.0667 N   0  0  0  0  0  0  0  0  0  0  0  0
   10.7310  -17.3729   28.1735 C   0  0  0  0  0  0  0  0  0  0  0  0
   10.7233  -17.1437   29.4330 O   0  0  0  0  0  0  0  0  0  0  0  0
   10.2375  -18.6454   27.8386 O   0  0  0  0  0  0  0  0  0  0  0  0
  2  1  1  1
  2  3  1  0
  2 13  1  0
  3  4  1  0
  4  5  2  0
  5  6  1  0
  7  8  2  0
  7  6  1  0
  9  8  1  0
 10  9  2  0
 11 10  1  0
 11 12  2  0
 12  4  1  0
 12  7  1  0
 13 20  1  0
 13 14  2  0
 16 15  1  0
 17 16  2  0
 18 16  1  0
 19 18  1  6
 20 19  1  0
 21 19  1  0
 21 22  2  0
 24 26  1  0
 24 23  1  6
 25 24  1  0
 27 26  1  6
 27 28  1  0
 28 21  1  0
 29 27  1  0
 30 29  2  0
 31 29  1  0
M  END
$$$$
