WNL.pdb
     RDKit          3D

 31 32  0  0  1  0  0  0  0  0999 V2000
    8.3367  -18.1620   21.1904 N   0  0  0  0  0  0  0  0  0  0  0  0
    8.9355  -17.3661   22.2816 C   0  0  1  0  0  0  0  0  0  0  0  0
    7.9892  -16.3540   22.7255 C   0  0  0  0  0  0  0  0  0  0  0  0
    7.2938  -15.5636   21.7099 C   0  0  0  0  0  0  0  0  0  0  0  0
    6.0092  -15.9034   21.2568 C   0  0  0  0  0  0  0  0  0  0  0  0
    5.5811  -14.9684   20.3908 N   0  0  0  0  0  0  0  0  0  0  0  0
    6.5755  -14.0437   20.2888 C   0  0  0  0  0  0  0  0  0  0  0  0
    6.6611  -12.8982   19.5234 C   0  0  0  0  0  0  0  0  0  0  0  0
    7.7944  -12.0903   19.5424 C   0  0  0  0  0  0  0  0  0  0  0  0
    8.8417  -12.4660   20.3520 C   0  0  0  0  0  0  0  0  0  0  0  0
    8.7559  -13.6067   21.1162 C   0  0  0  0  0  0  0  0  0  0  0  0
    7.6338  -14.4051   21.0988 C   0  0  0  0  0  0  0  0  0  0  0  0
    9.6719  -18.1910   23.2274 C   0  0  0  0  0  0  0  0  0  0  0  0
    9.8931  -19.4186   23.0840 O   0  0  0  0  0  0  0  0  0  0  0  0
   13.2574  -18.4104   21.8890 N   0  0  0  0  0  0  0  0  0  0  0  0
   13.2027  -18.3974   23.3255 C   0  0  0  0  0  0  0  0  0  0  0  0
   13.6446  -19.3655   23.9646 O   0  0  0  0  0  0  0  0  0  0  0  0
   12.6017  -17.1829   23.9074 C   0  0  0  0  0  0  0  0  0  0  0  0
   11.5446  -17.5288   24.8737 C   0  0  2  0  0  0  0  0  0  0  0  0
   10.2051  -17.6279   24.4496 N   0  0  0  0  0  0  0  0  0  0  0  0
   11.6826  -16.8007   26.1739 C   0  0  0  0  0  0  0  0  0  0  0  0
   11.8401  -17.5090   27.1955 O   0  0  0  0  0  0  0  0  0  0  0  0
    8.1622  -13.6955   28.3324 C   0  0  0  0  0  0  0  0  0  0  0  0
    8.2926  -13.7265   26.8574 C   0  0  2  0  0  0  0  0  0  0  0  0
    7.0478  -14.4162   26.2648 C   0  0  0  0  0  0  0  0  0  0  0  0
    9.5346  -14.2468   26.2547 C   0  0  0  0  0  0  0  0  0  0  0  0
   10.5876  -14.7331   27.1491 C   0  0  2  0  0  0  0  0  0  0  0  0
   11.6482  -15.4002   26.3163 N   0  0  0  0  0  0  0  0  0  0  0  0
   10.2895  -15.6101   28.2349 C   0  0  0  0  0  0  0  0  0  0  0  0
   10.6366  -15.2952   29.4263 O   0  0  0  0  0  0  0  0  0  0  0  0
    9.6169  -16.8417   28.1608 O   0  0  0  0  0  0  0  0  0  0  0  0
  2  1  1  6
  2  3  1  0
  2 13  1  0
  3  4  1  0
  4  5  2  0
  5  6  1  0
  7  8  2  0
  7  6  1  0
  9  8  1  0
 10  9  2  0
 11 10  1  0
 11 12  2  0
 12  4  1  0
 12  7  1  0
 13 20  1  0
 13 14  2  0
 16 15  1  0
 17 16  2  0
 18 16  1  0
 19 18  1  6
 20 19  1  0
 21 19  1  0
 21 22  2  0
 24 26  1  0
 24 23  1  1
 25 24  1  0
 27 26  1  6
 27 28  1  0
 28 21  1  0
 29 27  1  0
 30 29  2  0
 31 29  1  0
M  END
$$$$
