WNL.pdb
     RDKit          3D

 31 32  0  0  1  0  0  0  0  0999 V2000
    5.9925  -18.6025   24.2977 N   0  0  0  0  0  0  0  0  0  0  0  0
    7.1260  -17.6660   24.1533 C   0  0  1  0  0  0  0  0  0  0  0  0
    7.1337  -16.7311   25.2681 C   0  0  0  0  0  0  0  0  0  0  0  0
    6.7303  -15.3480   25.0144 C   0  0  0  0  0  0  0  0  0  0  0  0
    5.7846  -14.6919   25.8183 C   0  0  0  0  0  0  0  0  0  0  0  0
    5.6643  -13.4159   25.4123 N   0  0  0  0  0  0  0  0  0  0  0  0
    6.5184  -13.2558   24.3639 C   0  0  0  0  0  0  0  0  0  0  0  0
    6.7697  -12.1542   23.5709 C   0  0  0  0  0  0  0  0  0  0  0  0
    7.6751  -12.2060   22.5149 C   0  0  0  0  0  0  0  0  0  0  0  0
    8.3213  -13.3971   22.2763 C   0  0  0  0  0  0  0  0  0  0  0  0
    8.0723  -14.4946   23.0675 C   0  0  0  0  0  0  0  0  0  0  0  0
    7.1777  -14.4428   24.1135 C   0  0  0  0  0  0  0  0  0  0  0  0
    8.3400  -18.3323   23.7065 C   0  0  0  0  0  0  0  0  0  0  0  0
    8.6648  -19.5060   24.0120 O   0  0  0  0  0  0  0  0  0  0  0  0
   10.6234  -15.8840   19.8845 N   0  0  0  0  0  0  0  0  0  0  0  0
   10.7557  -17.1385   20.5741 C   0  0  0  0  0  0  0  0  0  0  0  0
   10.2576  -18.1638   20.0825 O   0  0  0  0  0  0  0  0  0  0  0  0
   11.5009  -17.0667   21.8446 C   0  0  0  0  0  0  0  0  0  0  0  0
   10.6992  -17.6054   22.9572 C   0  0  2  0  0  0  0  0  0  0  0  0
    9.2949  -17.6509   22.8586 N   0  0  0  0  0  0  0  0  0  0  0  0
   11.1653  -17.1270   24.2964 C   0  0  0  0  0  0  0  0  0  0  0  0
   12.4054  -17.0563   24.4627 O   0  0  0  0  0  0  0  0  0  0  0  0
    9.4011  -13.7905   29.1871 C   0  0  0  0  0  0  0  0  0  0  0  0
   10.4312  -14.5435   28.4350 C   0  0  2  0  0  0  0  0  0  0  0  0
   11.6905  -13.6639   28.3047 C   0  0  0  0  0  0  0  0  0  0  0  0
   10.0722  -15.1642   27.1458 C   0  0  0  0  0  0  0  0  0  0  0  0
   10.8767  -16.2930   26.6727 C   0  0  2  0  0  0  0  0  0  0  0  0
   10.3153  -16.7586   25.3569 N   0  0  0  0  0  0  0  0  0  0  0  0
   11.0731  -17.4522   27.4819 C   0  0  0  0  0  0  0  0  0  0  0  0
   12.1035  -17.5391   28.2369 O   0  0  0  0  0  0  0  0  0  0  0  0
   10.2270  -18.5709   27.5679 O   0  0  0  0  0  0  0  0  0  0  0  0
  2  1  1  1
  2  3  1  0
  2 13  1  0
  3  4  1  0
  4  5  2  0
  5  6  1  0
  7  8  2  0
  7  6  1  0
  9  8  1  0
 10  9  2  0
 11 10  1  0
 11 12  2  0
 12  4  1  0
 12  7  1  0
 13 20  1  0
 13 14  2  0
 16 15  1  0
 17 16  2  0
 18 16  1  0
 19 18  1  6
 20 19  1  0
 21 19  1  0
 21 22  2  0
 24 26  1  0
 24 23  1  6
 25 24  1  0
 27 26  1  1
 27 28  1  0
 28 21  1  0
 29 27  1  0
 30 29  2  0
 31 29  1  0
M  END
$$$$
