WNL.pdb
     RDKit          3D

 31 32  0  0  1  0  0  0  0  0999 V2000
    6.5506  -16.9777   23.5956 N   0  0  0  0  0  0  0  0  0  0  0  0
    7.8440  -16.3310   23.8982 C   0  0  1  0  0  0  0  0  0  0  0  0
    7.7529  -15.6241   25.1666 C   0  0  0  0  0  0  0  0  0  0  0  0
    6.7117  -14.6081   25.3197 C   0  0  0  0  0  0  0  0  0  0  0  0
    5.5017  -14.8795   25.9779 C   0  0  0  0  0  0  0  0  0  0  0  0
    4.7690  -13.7542   26.0441 N   0  0  0  0  0  0  0  0  0  0  0  0
    5.4967  -12.7763   25.4371 C   0  0  0  0  0  0  0  0  0  0  0  0
    5.2019  -11.4467   25.2120 C   0  0  0  0  0  0  0  0  0  0  0  0
    6.0839  -10.6074   24.5374 C   0  0  0  0  0  0  0  0  0  0  0  0
    7.2716  -11.1415   24.0934 C   0  0  0  0  0  0  0  0  0  0  0  0
    7.5663  -12.4662   24.3190 C   0  0  0  0  0  0  0  0  0  0  0  0
    6.6944  -13.2963   24.9881 C   0  0  0  0  0  0  0  0  0  0  0  0
    8.9774  -17.1861   23.5795 C   0  0  0  0  0  0  0  0  0  0  0  0
    8.9343  -18.1682   22.7985 O   0  0  0  0  0  0  0  0  0  0  0  0
   13.2469  -18.5039   21.2626 N   0  0  0  0  0  0  0  0  0  0  0  0
   13.1886  -17.1851   21.8318 C   0  0  0  0  0  0  0  0  0  0  0  0
   14.2294  -16.5169   21.9387 O   0  0  0  0  0  0  0  0  0  0  0  0
   11.8406  -16.7518   22.2440 C   0  0  0  0  0  0  0  0  0  0  0  0
   11.5566  -17.1604   23.6308 C   0  0  2  0  0  0  0  0  0  0  0  0
   10.2750  -16.9571   24.1786 N   0  0  0  0  0  0  0  0  0  0  0  0
   12.6522  -16.7941   24.5822 C   0  0  0  0  0  0  0  0  0  0  0  0
   13.8082  -17.1640   24.2705 O   0  0  0  0  0  0  0  0  0  0  0  0
   11.4846  -14.1991   28.4903 C   0  0  0  0  0  0  0  0  0  0  0  0
   10.6328  -15.2527   27.8919 C   0  0  2  0  0  0  0  0  0  0  0  0
    9.2758  -15.2667   28.6232 C   0  0  0  0  0  0  0  0  0  0  0  0
   11.1750  -16.6159   27.7371 C   0  0  0  0  0  0  0  0  0  0  0  0
   12.4903  -16.7713   27.1117 C   0  0  2  0  0  0  0  0  0  0  0  0
   12.4681  -16.0745   25.7785 N   0  0  0  0  0  0  0  0  0  0  0  0
   13.0631  -18.0620   26.9042 C   0  0  0  0  0  0  0  0  0  0  0  0
   12.8571  -18.6848   25.8047 O   0  0  0  0  0  0  0  0  0  0  0  0
   13.8787  -18.7739   27.8001 O   0  0  0  0  0  0  0  0  0  0  0  0
  2  1  1  1
  2  3  1  0
  2 13  1  0
  3  4  1  0
  4  5  2  0
  5  6  1  0
  7  8  2  0
  7  6  1  0
  9  8  1  0
 10  9  2  0
 11 10  1  0
 11 12  2  0
 12  4  1  0
 12  7  1  0
 13 20  1  0
 13 14  2  0
 16 15  1  0
 17 16  2  0
 18 16  1  0
 19 18  1  6
 20 19  1  0
 21 19  1  0
 21 22  2  0
 24 26  1  0
 24 23  1  1
 25 24  1  0
 27 26  1  6
 27 28  1  0
 28 21  1  0
 29 27  1  0
 30 29  2  0
 31 29  1  0
M  END
$$$$
