RVM.pdb
     RDKit          3D

 27 26  0  0  1  0  0  0  0  0999 V2000
   14.9213  -18.1407   18.5450 N   0  0  0  0  0  0  0  0  0  0  0  0
   15.1151  -18.7506   19.8244 C   0  0  0  0  0  0  0  0  0  0  0  0
   16.1969  -19.3975   20.0563 N   0  0  0  0  0  0  0  0  0  0  0  0
   14.1368  -18.6584   20.8482 N   0  0  0  0  0  0  0  0  0  0  0  0
   12.8535  -18.0510   20.7070 C   0  0  0  0  0  0  0  0  0  0  0  0
   11.9605  -18.7351   19.7350 C   0  0  0  0  0  0  0  0  0  0  0  0
   11.0490  -19.7717   20.2701 C   0  0  0  0  0  0  0  0  0  0  0  0
    9.6001  -19.6182   19.9176 C   0  0  2  0  0  0  0  0  0  0  0  0
    9.3991  -19.2594   18.5294 N   0  0  0  0  0  0  0  0  0  0  0  0
    8.8928  -18.6548   20.7714 C   0  0  0  0  0  0  0  0  0  0  0  0
    8.5351  -17.5103   20.3207 O   0  0  0  0  0  0  0  0  0  0  0  0
   16.3864  -19.8372   20.9618 C   0  0  0  0  0  0  0  0  0  0  0  0
    5.7145  -19.7888   22.8857 C   0  0  2  0  0  0  0  0  0  0  0  0
    6.7532  -19.1210   23.7427 C   0  0  0  0  0  0  0  0  0  0  0  0
    7.5692  -20.1180   24.5367 C   0  0  2  0  0  0  0  0  0  0  0  0
    7.6599  -18.2085   22.9211 N   0  0  0  0  0  0  0  0  0  0  0  0
    8.5895  -18.9760   22.1208 C   0  0  0  0  0  0  0  0  0  0  0  0
    8.4260  -17.4064   23.9010 O   0  0  0  0  0  0  0  0  0  0  0  0
    9.4828  -17.8777   24.3775 C   0  0  0  0  0  0  0  0  0  0  0  0
    6.4715  -11.4873   25.5700 S   0  0  0  0  0  0  0  0  0  0  0  0
    7.9837  -11.5495   26.5491 C   0  0  0  0  0  0  0  0  0  0  0  0
    8.5119  -13.3083   26.7314 C   0  0  0  0  0  0  0  0  0  0  0  0
    7.8978  -14.1207   25.6240 C   0  0  1  0  0  0  0  0  0  0  0  0
    8.7029  -15.3646   25.3727 N   0  0  0  0  0  0  0  0  0  0  0  0
    8.0022  -16.1170   24.3201 C   0  0  0  0  0  0  0  0  0  0  0  0
    8.8061  -16.1590   26.6064 O   0  0  0  0  0  0  0  0  0  0  0  0
    7.9731  -16.9659   27.0533 O   0  0  0  0  0  0  0  0  0  0  0  0
  2  1  1  0
  3  2  2  0
  4  2  1  0
  5  6  1  0
  5  4  1  0
  6  7  1  0
  7  8  1  0
  8  9  1  6
  8 10  1  0
 10 11  2  0
 10 16  1  0
 13 12  1  1
 13 15  1  0
 13 14  1  0
 15 17  1  0
 15 16  1  1
 17 24  1  0
 17 18  2  0
 19 20  1  0
 20 21  1  0
 21 22  1  0
 23 22  1  6
 23 25  1  0
 24 23  1  0
 25 27  1  0
 26 25  2  0
M  END
$$$$
