RVM.pdb
     RDKit          3D

 27 26  0  0  1  0  0  0  0  0999 V2000
    7.4336  -17.9266   15.6907 N   0  0  0  0  0  0  0  0  0  0  0  0
    8.7959  -17.7253   15.3033 C   0  0  0  0  0  0  0  0  0  0  0  0
    9.0723  -17.4824   14.0757 N   0  0  0  0  0  0  0  0  0  0  0  0
    9.8543  -17.7882   16.2465 N   0  0  0  0  0  0  0  0  0  0  0  0
    9.6911  -17.9019   17.6594 C   0  0  0  0  0  0  0  0  0  0  0  0
    8.8158  -16.8589   18.2563 C   0  0  0  0  0  0  0  0  0  0  0  0
    9.3822  -16.0557   19.3635 C   0  0  0  0  0  0  0  0  0  0  0  0
    8.4352  -15.1128   20.0428 C   0  0  2  0  0  0  0  0  0  0  0  0
    8.1003  -13.9699   19.2196 N   0  0  0  0  0  0  0  0  0  0  0  0
    8.9193  -14.6419   21.3471 C   0  0  0  0  0  0  0  0  0  0  0  0
    9.8323  -13.7470   21.4294 O   0  0  0  0  0  0  0  0  0  0  0  0
   10.0356  -17.4520   13.7289 C   0  0  0  0  0  0  0  0  0  0  0  0
    6.6719  -13.3958   24.3147 C   0  0  2  0  0  0  0  0  0  0  0  0
    7.5502  -14.5286   24.7671 C   0  0  0  0  0  0  0  0  0  0  0  0
    6.7885  -15.8303   24.8924 C   0  0  2  0  0  0  0  0  0  0  0  0
    8.7662  -14.6958   23.8599 N   0  0  0  0  0  0  0  0  0  0  0  0
    8.3807  -15.1721   22.5490 C   0  0  0  0  0  0  0  0  0  0  0  0
    9.6183  -15.7192   24.5057 O   0  0  0  0  0  0  0  0  0  0  0  0
    9.6992  -16.8560   23.9889 C   0  0  0  0  0  0  0  0  0  0  0  0
   12.0085  -13.6714   30.2797 S   0  0  0  0  0  0  0  0  0  0  0  0
   10.5698  -13.8357   29.2062 C   0  0  0  0  0  0  0  0  0  0  0  0
   10.4343  -15.5881   28.6437 C   0  0  0  0  0  0  0  0  0  0  0  0
   11.5676  -15.8881   27.7007 C   0  0  1  0  0  0  0  0  0  0  0  0
   11.0507  -16.5146   26.4363 N   0  0  0  0  0  0  0  0  0  0  0  0
   10.3493  -15.4549   25.6946 C   0  0  0  0  0  0  0  0  0  0  0  0
   10.1387  -17.6236   26.7566 O   0  0  0  0  0  0  0  0  0  0  0  0
    8.9063  -17.5646   26.9061 O   0  0  0  0  0  0  0  0  0  0  0  0
  2  1  1  0
  3  2  2  0
  4  2  1  0
  5  6  1  0
  5  4  1  0
  6  7  1  0
  7  8  1  0
  8  9  1  6
  8 10  1  0
 10 11  2  0
 10 16  1  0
 13 12  1  1
 13 15  1  0
 13 14  1  0
 15 17  1  0
 15 16  1  1
 17 24  1  0
 17 18  2  0
 19 20  1  0
 20 21  1  0
 21 22  1  0
 23 22  1  6
 23 25  1  0
 24 23  1  0
 25 27  1  0
 26 25  2  0
M  END
$$$$
