RVM.pdb
     RDKit          3D

 27 26  0  0  1  0  0  0  0  0999 V2000
   10.7609  -20.3890   24.7401 N   0  0  0  0  0  0  0  0  0  0  0  0
   11.2744  -21.4195   23.8910 C   0  0  0  0  0  0  0  0  0  0  0  0
   11.8835  -22.4195   24.4120 N   0  0  0  0  0  0  0  0  0  0  0  0
   11.1271  -21.3634   22.4808 N   0  0  0  0  0  0  0  0  0  0  0  0
   10.6945  -20.2207   21.7439 C   0  0  0  0  0  0  0  0  0  0  0  0
   11.5308  -19.0096   21.9534 C   0  0  0  0  0  0  0  0  0  0  0  0
   12.1927  -18.4324   20.7616 C   0  0  0  0  0  0  0  0  0  0  0  0
   11.3477  -17.5315   19.9122 C   0  0  2  0  0  0  0  0  0  0  0  0
   12.0147  -17.1289   18.6919 N   0  0  0  0  0  0  0  0  0  0  0  0
   10.8787  -16.3344   20.6224 C   0  0  0  0  0  0  0  0  0  0  0  0
   11.7044  -15.5397   21.1951 O   0  0  0  0  0  0  0  0  0  0  0  0
   12.2800  -23.1736   23.8434 C   0  0  0  0  0  0  0  0  0  0  0  0
    6.8953  -13.5338   21.7805 C   0  0  2  0  0  0  0  0  0  0  0  0
    7.6201  -14.4536   20.8380 C   0  0  0  0  0  0  0  0  0  0  0  0
    7.7794  -13.8519   19.4586 C   0  0  1  0  0  0  0  0  0  0  0  0
    8.9709  -14.8872   21.4011 N   0  0  0  0  0  0  0  0  0  0  0  0
    9.4928  -16.0328   20.6876 C   0  0  0  0  0  0  0  0  0  0  0  0
    8.7199  -15.2767   22.8067 O   0  0  0  0  0  0  0  0  0  0  0  0
    8.5058  -16.4802   23.0742 C   0  0  0  0  0  0  0  0  0  0  0  0
    5.9769  -11.2422   26.9873 S   0  0  0  0  0  0  0  0  0  0  0  0
    6.9610  -12.1896   28.1634 C   0  0  0  0  0  0  0  0  0  0  0  0
    7.5219  -13.7528   27.3586 C   0  0  0  0  0  0  0  0  0  0  0  0
    7.9525  -13.4501   25.9492 C   0  0  1  0  0  0  0  0  0  0  0  0
    8.3984  -14.7047   25.2523 N   0  0  0  0  0  0  0  0  0  0  0  0
    8.7139  -14.3292   23.8650 C   0  0  0  0  0  0  0  0  0  0  0  0
    7.3290  -15.7141   25.2932 O   0  0  0  0  0  0  0  0  0  0  0  0
    6.3170  -15.7672   24.5735 O   0  0  0  0  0  0  0  0  0  0  0  0
  2  1  1  0
  3  2  2  0
  4  2  1  0
  5  6  1  0
  5  4  1  0
  6  7  1  0
  7  8  1  0
  8  9  1  6
  8 10  1  0
 10 11  2  0
 10 16  1  0
 13 12  1  6
 13 15  1  0
 13 14  1  0
 15 17  1  0
 15 16  1  6
 17 24  1  0
 17 18  2  0
 19 20  1  0
 20 21  1  0
 21 22  1  0
 23 22  1  1
 23 25  1  0
 24 23  1  0
 25 27  1  0
 26 25  2  0
M  END
$$$$
