RVM.pdb
     RDKit          3D

 27 26  0  0  1  0  0  0  0  0999 V2000
    7.7106  -11.9971   14.0855 N   0  0  0  0  0  0  0  0  0  0  0  0
    7.6602  -13.2769   14.7226 C   0  0  0  0  0  0  0  0  0  0  0  0
    7.9059  -14.3317   14.0373 N   0  0  0  0  0  0  0  0  0  0  0  0
    7.3434  -13.4104   16.0993 N   0  0  0  0  0  0  0  0  0  0  0  0
    8.1756  -14.0309   17.0782 C   0  0  0  0  0  0  0  0  0  0  0  0
    8.2080  -15.5150   16.9964 C   0  0  0  0  0  0  0  0  0  0  0  0
    7.9964  -16.2649   18.2552 C   0  0  0  0  0  0  0  0  0  0  0  0
    9.0724  -16.1287   19.2901 C   0  0  2  0  0  0  0  0  0  0  0  0
   10.2251  -16.9583   19.0083 N   0  0  0  0  0  0  0  0  0  0  0  0
    8.6042  -16.4020   20.6552 C   0  0  0  0  0  0  0  0  0  0  0  0
    7.6075  -15.7683   21.1513 O   0  0  0  0  0  0  0  0  0  0  0  0
    7.8164  -15.2724   14.4324 C   0  0  0  0  0  0  0  0  0  0  0  0
    9.0109  -20.1767   22.3261 C   0  0  2  0  0  0  0  0  0  0  0  0
    9.3992  -19.0528   23.2457 C   0  0  0  0  0  0  0  0  0  0  0  0
   10.8988  -18.9448   23.4180 C   0  0  2  0  0  0  0  0  0  0  0  0
    8.8074  -17.7217   22.7900 N   0  0  0  0  0  0  0  0  0  0  0  0
    9.2508  -17.3804   21.4555 C   0  0  0  0  0  0  0  0  0  0  0  0
    9.3184  -16.7041   23.7353 O   0  0  0  0  0  0  0  0  0  0  0  0
   10.5404  -16.4348   23.7354 C   0  0  0  0  0  0  0  0  0  0  0  0
    6.1495  -11.4173   25.9190 S   0  0  0  0  0  0  0  0  0  0  0  0
    6.8346  -12.0740   27.4515 C   0  0  0  0  0  0  0  0  0  0  0  0
    8.2651  -13.1693   27.0516 C   0  0  0  0  0  0  0  0  0  0  0  0
    7.8233  -14.2069   26.0557 C   0  0  2  0  0  0  0  0  0  0  0  0
    8.9847  -15.0623   25.6340 N   0  0  0  0  0  0  0  0  0  0  0  0
    8.4674  -16.0207   24.6445 C   0  0  0  0  0  0  0  0  0  0  0  0
    9.5477  -15.7622   26.7990 O   0  0  0  0  0  0  0  0  0  0  0  0
    9.2905  -16.9173   27.1790 O   0  0  0  0  0  0  0  0  0  0  0  0
  2  1  1  0
  3  2  2  0
  4  2  1  0
  5  6  1  0
  5  4  1  0
  6  7  1  0
  7  8  1  0
  8  9  1  6
  8 10  1  0
 10 11  2  0
 10 16  1  0
 13 12  1  1
 13 15  1  0
 13 14  1  0
 15 17  1  0
 15 16  1  1
 17 24  1  0
 17 18  2  0
 19 20  1  0
 20 21  1  0
 21 22  1  0
 23 22  1  6
 23 25  1  0
 24 23  1  0
 25 27  1  0
 26 25  2  0
M  END
$$$$
