RVM.pdb
     RDKit          3D

 27 26  0  0  1  0  0  0  0  0999 V2000
    8.4651  -21.8461   17.6434 N   0  0  0  0  0  0  0  0  0  0  0  0
    7.8037  -22.1436   18.8764 C   0  0  0  0  0  0  0  0  0  0  0  0
    7.4315  -23.3461   19.1173 N   0  0  0  0  0  0  0  0  0  0  0  0
    7.5471  -21.1381   19.8442 N   0  0  0  0  0  0  0  0  0  0  0  0
    7.8864  -19.7590   19.7071 C   0  0  0  0  0  0  0  0  0  0  0  0
    9.2555  -19.4199   20.1770 C   0  0  0  0  0  0  0  0  0  0  0  0
   10.2019  -18.8883   19.1704 C   0  0  0  0  0  0  0  0  0  0  0  0
    9.9079  -17.5119   18.6544 C   0  0  2  0  0  0  0  0  0  0  0  0
   10.7556  -17.1411   17.5408 N   0  0  0  0  0  0  0  0  0  0  0  0
    9.9902  -16.4730   19.6894 C   0  0  0  0  0  0  0  0  0  0  0  0
   11.1204  -16.1014   20.1644 O   0  0  0  0  0  0  0  0  0  0  0  0
    6.9903  -23.6140   20.0020 C   0  0  0  0  0  0  0  0  0  0  0  0
    7.6997  -13.0288   19.8183 C   0  0  2  0  0  0  0  0  0  0  0  0
    7.6160  -13.8929   21.0455 C   0  0  0  0  0  0  0  0  0  0  0  0
    6.3347  -14.6967   21.0946 C   0  0  2  0  0  0  0  0  0  0  0  0
    8.8340  -14.8032   21.1778 N   0  0  0  0  0  0  0  0  0  0  0  0
    8.8115  -15.8563   20.1857 C   0  0  0  0  0  0  0  0  0  0  0  0
    8.7409  -15.4148   22.5223 O   0  0  0  0  0  0  0  0  0  0  0  0
    8.2191  -16.5462   22.6398 C   0  0  0  0  0  0  0  0  0  0  0  0
   11.0693  -13.3714   29.2546 S   0  0  0  0  0  0  0  0  0  0  0  0
    9.4041  -13.2705   28.5717 C   0  0  0  0  0  0  0  0  0  0  0  0
    9.1377  -14.6884   27.4209 C   0  0  0  0  0  0  0  0  0  0  0  0
    9.2120  -14.1888   26.0037 C   0  0  2  0  0  0  0  0  0  0  0  0
    9.0493  -15.3252   25.0340 N   0  0  0  0  0  0  0  0  0  0  0  0
    9.2248  -14.7606   23.6866 C   0  0  0  0  0  0  0  0  0  0  0  0
    7.7161  -15.9296   25.1809 O   0  0  0  0  0  0  0  0  0  0  0  0
    6.6513  -15.5337   24.6768 O   0  0  0  0  0  0  0  0  0  0  0  0
  2  1  1  0
  3  2  2  0
  4  2  1  0
  5  6  1  0
  5  4  1  0
  6  7  1  0
  7  8  1  0
  8  9  1  6
  8 10  1  0
 10 11  2  0
 10 16  1  0
 13 12  1  1
 13 15  1  0
 13 14  1  0
 15 17  1  0
 15 16  1  1
 17 24  1  0
 17 18  2  0
 19 20  1  0
 20 21  1  0
 21 22  1  0
 23 22  1  1
 23 25  1  0
 24 23  1  0
 25 27  1  0
 26 25  2  0
M  END
$$$$
