RVM.pdb
     RDKit          3D

 27 26  0  0  1  0  0  0  0  0999 V2000
    9.9598  -18.6385   13.4649 N   0  0  0  0  0  0  0  0  0  0  0  0
    8.5821  -18.6650   13.8493 C   0  0  0  0  0  0  0  0  0  0  0  0
    7.7075  -18.1069   13.0969 N   0  0  0  0  0  0  0  0  0  0  0  0
    8.1562  -19.2952   15.0472 N   0  0  0  0  0  0  0  0  0  0  0  0
    8.6673  -19.0164   16.3498 C   0  0  0  0  0  0  0  0  0  0  0  0
    9.2027  -17.6388   16.5110 C   0  0  0  0  0  0  0  0  0  0  0  0
   10.1548  -17.4107   17.6215 C   0  0  0  0  0  0  0  0  0  0  0  0
    9.6724  -17.7899   18.9892 C   0  0  2  0  0  0  0  0  0  0  0  0
    8.2868  -18.2096   18.9951 N   0  0  0  0  0  0  0  0  0  0  0  0
    9.8584  -16.7279   19.9866 C   0  0  0  0  0  0  0  0  0  0  0  0
   11.0243  -16.2694   20.2542 O   0  0  0  0  0  0  0  0  0  0  0  0
    6.7150  -18.0716   13.3472 C   0  0  0  0  0  0  0  0  0  0  0  0
    7.4251  -13.4642   20.5241 C   0  0  2  0  0  0  0  0  0  0  0  0
    7.6054  -14.2995   21.7607 C   0  0  0  0  0  0  0  0  0  0  0  0
    6.3927  -15.1551   22.0567 C   0  0  2  0  0  0  0  0  0  0  0  0
    8.8677  -15.1541   21.6844 N   0  0  0  0  0  0  0  0  0  0  0  0
    8.7426  -16.1852   20.6768 C   0  0  0  0  0  0  0  0  0  0  0  0
    9.0036  -15.7988   23.0096 O   0  0  0  0  0  0  0  0  0  0  0  0
    8.4982  -16.9293   23.1895 C   0  0  0  0  0  0  0  0  0  0  0  0
    9.9711  -12.3159   28.1721 S   0  0  0  0  0  0  0  0  0  0  0  0
   10.3649  -13.8760   28.9846 C   0  0  0  0  0  0  0  0  0  0  0  0
   10.0672  -15.2627   27.8037 C   0  0  0  0  0  0  0  0  0  0  0  0
    9.9678  -14.7052   26.4098 C   0  0  1  0  0  0  0  0  0  0  0  0
    9.8188  -15.8144   25.4069 N   0  0  0  0  0  0  0  0  0  0  0  0
    9.6899  -15.1772   24.0869 C   0  0  0  0  0  0  0  0  0  0  0  0
    8.6298  -16.6227   25.7186 O   0  0  0  0  0  0  0  0  0  0  0  0
    7.4555  -16.3938   25.3821 O   0  0  0  0  0  0  0  0  0  0  0  0
  2  1  1  0
  3  2  2  0
  4  2  1  0
  5  6  1  0
  5  4  1  0
  6  7  1  0
  7  8  1  0
  8  9  1  6
  8 10  1  0
 10 11  2  0
 10 16  1  0
 13 12  1  1
 13 15  1  0
 13 14  1  0
 15 17  1  0
 15 16  1  1
 17 24  1  0
 17 18  2  0
 19 20  1  0
 20 21  1  0
 21 22  1  0
 23 22  1  6
 23 25  1  0
 24 23  1  0
 25 27  1  0
 26 25  2  0
M  END
$$$$
