RVM.pdb
     RDKit          3D

 27 26  0  0  1  0  0  0  0  0999 V2000
   10.0538  -22.2812   16.9935 N   0  0  0  0  0  0  0  0  0  0  0  0
    9.0975  -21.8184   16.0356 C   0  0  0  0  0  0  0  0  0  0  0  0
    8.9873  -22.4249   14.9121 N   0  0  0  0  0  0  0  0  0  0  0  0
    8.2640  -20.7001   16.2974 N   0  0  0  0  0  0  0  0  0  0  0  0
    8.5897  -19.6176   17.1678 C   0  0  0  0  0  0  0  0  0  0  0  0
   10.0225  -19.5630   17.5607 C   0  0  0  0  0  0  0  0  0  0  0  0
   10.4364  -18.4541   18.4500 C   0  0  0  0  0  0  0  0  0  0  0  0
    9.6299  -18.2793   19.7015 C   0  0  2  0  0  0  0  0  0  0  0  0
    8.2240  -18.5621   19.5026 N   0  0  0  0  0  0  0  0  0  0  0  0
    9.7730  -16.9475   20.3042 C   0  0  0  0  0  0  0  0  0  0  0  0
   10.9218  -16.3912   20.4127 O   0  0  0  0  0  0  0  0  0  0  0  0
    8.4024  -22.0646   14.1524 C   0  0  0  0  0  0  0  0  0  0  0  0
    6.2575  -14.5377   21.1677 C   0  0  1  0  0  0  0  0  0  0  0  0
    7.6364  -14.0069   20.8912 C   0  0  0  0  0  0  0  0  0  0  0  0
    7.8318  -12.6078   21.4340 C   0  0  1  0  0  0  0  0  0  0  0  0
    8.7181  -14.9484   21.4138 N   0  0  0  0  0  0  0  0  0  0  0  0
    8.6337  -16.2467   20.7802 C   0  0  0  0  0  0  0  0  0  0  0  0
    8.4542  -15.1081   22.8613 O   0  0  0  0  0  0  0  0  0  0  0  0
    7.4122  -15.6966   23.2273 C   0  0  0  0  0  0  0  0  0  0  0  0
    5.2276  -11.7078   26.4159 S   0  0  0  0  0  0  0  0  0  0  0  0
    6.9089  -11.9411   27.0227 C   0  0  0  0  0  0  0  0  0  0  0  0
    7.9579  -12.5983   25.6539 C   0  0  0  0  0  0  0  0  0  0  0  0
    7.7706  -14.0886   25.5664 C   0  0  2  0  0  0  0  0  0  0  0  0
    9.0813  -14.7702   25.2912 N   0  0  0  0  0  0  0  0  0  0  0  0
    9.3451  -14.6154   23.8519 C   0  0  0  0  0  0  0  0  0  0  0  0
    9.0003  -16.1919   25.6606 O   0  0  0  0  0  0  0  0  0  0  0  0
    9.6249  -16.7704   26.5661 O   0  0  0  0  0  0  0  0  0  0  0  0
  2  1  1  0
  3  2  2  0
  4  2  1  0
  5  6  1  0
  5  4  1  0
  6  7  1  0
  7  8  1  0
  8  9  1  6
  8 10  1  0
 10 11  2  0
 10 16  1  0
 13 12  1  6
 13 15  1  0
 13 14  1  0
 15 17  1  0
 15 16  1  6
 17 24  1  0
 17 18  2  0
 19 20  1  0
 20 21  1  0
 21 22  1  0
 23 22  1  1
 23 25  1  0
 24 23  1  0
 25 27  1  0
 26 25  2  0
M  END
$$$$
