RVM.pdb
     RDKit          3D

 27 26  0  0  1  0  0  0  0  0999 V2000
    9.8747  -22.0479   16.3556 N   0  0  0  0  0  0  0  0  0  0  0  0
    8.8190  -22.6835   17.0821 C   0  0  0  0  0  0  0  0  0  0  0  0
    8.3119  -23.7716   16.6335 N   0  0  0  0  0  0  0  0  0  0  0  0
    8.3155  -22.1384   18.2917 N   0  0  0  0  0  0  0  0  0  0  0  0
    8.6741  -20.8680   18.8332 C   0  0  0  0  0  0  0  0  0  0  0  0
    9.0327  -19.8502   17.8105 C   0  0  0  0  0  0  0  0  0  0  0  0
    9.4632  -18.5220   18.3026 C   0  0  0  0  0  0  0  0  0  0  0  0
    8.9982  -18.1482   19.6778 C   0  0  2  0  0  0  0  0  0  0  0  0
    7.5686  -18.3048   19.8446 N   0  0  0  0  0  0  0  0  0  0  0  0
    9.3830  -16.7865   20.0717 C   0  0  0  0  0  0  0  0  0  0  0  0
   10.5889  -16.3756   19.9374 O   0  0  0  0  0  0  0  0  0  0  0  0
    7.5331  -24.2444   17.1014 C   0  0  0  0  0  0  0  0  0  0  0  0
    6.2511  -14.1437   21.2117 C   0  0  2  0  0  0  0  0  0  0  0  0
    7.5171  -13.6117   20.6004 C   0  0  0  0  0  0  0  0  0  0  0  0
    7.7956  -12.1820   21.0110 C   0  0  1  0  0  0  0  0  0  0  0  0
    8.7126  -14.5087   20.9099 N   0  0  0  0  0  0  0  0  0  0  0  0
    8.4197  -15.8940   20.6114 C   0  0  0  0  0  0  0  0  0  0  0  0
    8.9548  -14.3769   22.3639 O   0  0  0  0  0  0  0  0  0  0  0  0
    9.3076  -13.2673   22.8226 C   0  0  0  0  0  0  0  0  0  0  0  0
    7.1742  -11.1966   26.0496 S   0  0  0  0  0  0  0  0  0  0  0  0
    6.3546  -12.6518   26.7278 C   0  0  0  0  0  0  0  0  0  0  0  0
    7.4328  -14.1269   26.4677 C   0  0  0  0  0  0  0  0  0  0  0  0
    7.5758  -14.3738   24.9905 C   0  0  1  0  0  0  0  0  0  0  0  0
    8.7391  -15.2852   24.7177 N   0  0  0  0  0  0  0  0  0  0  0  0
    8.8001  -15.4690   23.2590 C   0  0  0  0  0  0  0  0  0  0  0  0
    8.5450  -16.5730   25.4018 O   0  0  0  0  0  0  0  0  0  0  0  0
    8.1056  -17.6268   24.9107 O   0  0  0  0  0  0  0  0  0  0  0  0
  2  1  1  0
  3  2  2  0
  4  2  1  0
  5  6  1  0
  5  4  1  0
  6  7  1  0
  7  8  1  0
  8  9  1  6
  8 10  1  0
 10 11  2  0
 10 16  1  0
 13 12  1  6
 13 15  1  0
 13 14  1  0
 15 17  1  0
 15 16  1  6
 17 24  1  0
 17 18  2  0
 19 20  1  0
 20 21  1  0
 21 22  1  0
 23 22  1  6
 23 25  1  0
 24 23  1  0
 25 27  1  0
 26 25  2  0
M  END
$$$$
