RVM.pdb
     RDKit          3D

 27 26  0  0  1  0  0  0  0  0999 V2000
    6.8874  -14.4508   18.7886 N   0  0  0  0  0  0  0  0  0  0  0  0
    7.6788  -13.3700   18.2868 C   0  0  0  0  0  0  0  0  0  0  0  0
    7.3226  -12.1630   18.5291 N   0  0  0  0  0  0  0  0  0  0  0  0
    8.8531  -13.5997   17.5238 N   0  0  0  0  0  0  0  0  0  0  0  0
    9.5573  -14.8385   17.4511 C   0  0  0  0  0  0  0  0  0  0  0  0
    9.9019  -15.4207   18.7749 C   0  0  0  0  0  0  0  0  0  0  0  0
    9.9005  -16.8972   18.8835 C   0  0  0  0  0  0  0  0  0  0  0  0
   10.2333  -17.4572   20.2336 C   0  0  2  0  0  0  0  0  0  0  0  0
   10.3359  -18.9014   20.2282 N   0  0  0  0  0  0  0  0  0  0  0  0
    9.2911  -17.0451   21.2824 C   0  0  0  0  0  0  0  0  0  0  0  0
    9.0171  -15.8087   21.4759 O   0  0  0  0  0  0  0  0  0  0  0  0
    7.8170  -11.3581   18.1333 C   0  0  0  0  0  0  0  0  0  0  0  0
    6.3398  -19.7218   23.0034 C   0  0  2  0  0  0  0  0  0  0  0  0
    7.2393  -18.9114   23.8943 C   0  0  0  0  0  0  0  0  0  0  0  0
    8.3815  -19.7310   24.4545 C   0  0  2  0  0  0  0  0  0  0  0  0
    7.7618  -17.6654   23.1842 N   0  0  0  0  0  0  0  0  0  0  0  0
    8.6618  -18.0151   22.1063 C   0  0  0  0  0  0  0  0  0  0  0  0
    8.5154  -16.9017   24.2036 O   0  0  0  0  0  0  0  0  0  0  0  0
    9.7248  -17.1647   24.3880 C   0  0  0  0  0  0  0  0  0  0  0  0
    6.1415  -11.5674   26.7709 S   0  0  0  0  0  0  0  0  0  0  0  0
    7.6107  -11.6499   27.8120 C   0  0  0  0  0  0  0  0  0  0  0  0
    8.3491  -13.3360   27.6800 C   0  0  0  0  0  0  0  0  0  0  0  0
    7.7400  -14.0459   26.5016 C   0  0  1  0  0  0  0  0  0  0  0  0
    8.6563  -15.1292   26.0063 N   0  0  0  0  0  0  0  0  0  0  0  0
    7.9118  -15.8779   24.9816 C   0  0  0  0  0  0  0  0  0  0  0  0
    9.0486  -16.0085   27.1184 O   0  0  0  0  0  0  0  0  0  0  0  0
    9.9526  -15.8133   27.9487 O   0  0  0  0  0  0  0  0  0  0  0  0
  2  1  1  0
  3  2  2  0
  4  2  1  0
  5  6  1  0
  5  4  1  0
  6  7  1  0
  7  8  1  0
  8  9  1  6
  8 10  1  0
 10 11  2  0
 10 16  1  0
 13 12  1  1
 13 15  1  0
 13 14  1  0
 15 17  1  0
 15 16  1  1
 17 24  1  0
 17 18  2  0
 19 20  1  0
 20 21  1  0
 21 22  1  0
 23 22  1  6
 23 25  1  0
 24 23  1  0
 25 27  1  0
 26 25  2  0
M  END
$$$$
