RVM.pdb
     RDKit          3D

 27 26  0  0  1  0  0  0  0  0999 V2000
    8.2922  -14.4170   15.3438 N   0  0  0  0  0  0  0  0  0  0  0  0
    7.9564  -13.9494   16.6533 C   0  0  0  0  0  0  0  0  0  0  0  0
    8.5237  -12.8950   17.1102 N   0  0  0  0  0  0  0  0  0  0  0  0
    7.0079  -14.6254   17.4640 N   0  0  0  0  0  0  0  0  0  0  0  0
    7.1644  -15.9434   17.9876 C   0  0  0  0  0  0  0  0  0  0  0  0
    8.5489  -16.4762   17.8900 C   0  0  0  0  0  0  0  0  0  0  0  0
    9.3109  -16.6097   19.1522 C   0  0  0  0  0  0  0  0  0  0  0  0
    8.5002  -16.6035   20.4131 C   0  0  2  0  0  0  0  0  0  0  0  0
    7.1511  -16.1205   20.2060 N   0  0  0  0  0  0  0  0  0  0  0  0
    9.1237  -15.8394   21.5016 C   0  0  0  0  0  0  0  0  0  0  0  0
   10.2364  -15.2289   21.3275 O   0  0  0  0  0  0  0  0  0  0  0  0
    8.3804  -12.5710   18.0713 C   0  0  0  0  0  0  0  0  0  0  0  0
    7.4397  -13.0359   23.5183 C   0  0  2  0  0  0  0  0  0  0  0  0
    7.9253  -14.0882   24.4756 C   0  0  0  0  0  0  0  0  0  0  0  0
    6.7971  -14.9469   25.0047 C   0  0  2  0  0  0  0  0  0  0  0  0
    9.0207  -14.9517   23.8557 N   0  0  0  0  0  0  0  0  0  0  0  0
    8.5009  -15.7618   22.7752 C   0  0  0  0  0  0  0  0  0  0  0  0
    9.4936  -15.8466   24.9355 O   0  0  0  0  0  0  0  0  0  0  0  0
    8.7050  -16.6941   25.4107 C   0  0  0  0  0  0  0  0  0  0  0  0
   10.0485  -13.1228   29.7585 S   0  0  0  0  0  0  0  0  0  0  0  0
   10.1027  -14.7989   30.4195 C   0  0  0  0  0  0  0  0  0  0  0  0
   10.9113  -15.9077   29.1856 C   0  0  0  0  0  0  0  0  0  0  0  0
   10.5742  -15.4263   27.8006 C   0  0  2  0  0  0  0  0  0  0  0  0
   11.1745  -16.3350   26.7651 N   0  0  0  0  0  0  0  0  0  0  0  0
   10.8149  -15.7767   25.4521 C   0  0  0  0  0  0  0  0  0  0  0  0
   10.6444  -17.6986   26.9192 O   0  0  0  0  0  0  0  0  0  0  0  0
    9.4598  -18.0609   26.8177 O   0  0  0  0  0  0  0  0  0  0  0  0
  2  1  1  0
  3  2  2  0
  4  2  1  0
  5  6  1  0
  5  4  1  0
  6  7  1  0
  7  8  1  0
  8  9  1  6
  8 10  1  0
 10 11  2  0
 10 16  1  0
 13 12  1  1
 13 15  1  0
 13 14  1  0
 15 17  1  0
 15 16  1  1
 17 24  1  0
 17 18  2  0
 19 20  1  0
 20 21  1  0
 21 22  1  0
 23 22  1  1
 23 25  1  0
 24 23  1  0
 25 27  1  0
 26 25  2  0
M  END
$$$$
