RVM.pdb
     RDKit          3D

 27 26  0  0  1  0  0  0  0  0999 V2000
    6.8863  -13.1061   14.6377 N   0  0  0  0  0  0  0  0  0  0  0  0
    7.9385  -14.0549   14.4402 C   0  0  0  0  0  0  0  0  0  0  0  0
    8.3495  -14.3012   13.2517 N   0  0  0  0  0  0  0  0  0  0  0  0
    8.5417  -14.7342   15.5304 N   0  0  0  0  0  0  0  0  0  0  0  0
    8.8333  -14.1541   16.8009 C   0  0  0  0  0  0  0  0  0  0  0  0
    7.6305  -13.7501   17.5756 C   0  0  0  0  0  0  0  0  0  0  0  0
    7.3869  -14.4504   18.8571 C   0  0  0  0  0  0  0  0  0  0  0  0
    8.6074  -14.8425   19.6341 C   0  0  2  0  0  0  0  0  0  0  0  0
    9.4447  -15.7831   18.9197 N   0  0  0  0  0  0  0  0  0  0  0  0
    8.3006  -15.3843   20.9644 C   0  0  0  0  0  0  0  0  0  0  0  0
    7.3227  -14.9278   21.6546 O   0  0  0  0  0  0  0  0  0  0  0  0
    9.0910  -14.9816   13.0606 C   0  0  0  0  0  0  0  0  0  0  0  0
    9.2655  -19.3491   22.0959 C   0  0  2  0  0  0  0  0  0  0  0  0
    9.6642  -18.2572   23.0489 C   0  0  0  0  0  0  0  0  0  0  0  0
   11.1466  -17.9581   22.9907 C   0  0  2  0  0  0  0  0  0  0  0  0
    8.8448  -16.9887   22.8273 N   0  0  0  0  0  0  0  0  0  0  0  0
    9.0864  -16.4315   21.5139 C   0  0  0  0  0  0  0  0  0  0  0  0
    9.3087  -16.0211   23.8466 O   0  0  0  0  0  0  0  0  0  0  0  0
   10.4542  -15.5290   23.7397 C   0  0  0  0  0  0  0  0  0  0  0  0
    6.2456  -10.9669   25.9173 S   0  0  0  0  0  0  0  0  0  0  0  0
    6.7195  -11.5981   27.5379 C   0  0  0  0  0  0  0  0  0  0  0  0
    8.1158  -12.7878   27.3367 C   0  0  0  0  0  0  0  0  0  0  0  0
    7.7873  -13.7435   26.2220 C   0  0  1  0  0  0  0  0  0  0  0  0
    8.9501  -14.6553   25.9484 N   0  0  0  0  0  0  0  0  0  0  0  0
    8.4963  -15.6307   24.9445 C   0  0  0  0  0  0  0  0  0  0  0  0
    9.3663  -15.3312   27.1871 O   0  0  0  0  0  0  0  0  0  0  0  0
    9.9385  -14.8219   28.1658 O   0  0  0  0  0  0  0  0  0  0  0  0
  2  1  1  0
  3  2  2  0
  4  2  1  0
  5  6  1  0
  5  4  1  0
  6  7  1  0
  7  8  1  0
  8  9  1  6
  8 10  1  0
 10 11  2  0
 10 16  1  0
 13 12  1  1
 13 15  1  0
 13 14  1  0
 15 17  1  0
 15 16  1  1
 17 24  1  0
 17 18  2  0
 19 20  1  0
 20 21  1  0
 21 22  1  0
 23 22  1  6
 23 25  1  0
 24 23  1  0
 25 27  1  0
 26 25  2  0
M  END
$$$$
