RVM.pdb
     RDKit          3D

 27 26  0  0  1  0  0  0  0  0999 V2000
    5.3832  -20.2296   16.9275 N   0  0  0  0  0  0  0  0  0  0  0  0
    6.5366  -19.5705   16.3968 C   0  0  0  0  0  0  0  0  0  0  0  0
    6.4376  -18.9122   15.3017 N   0  0  0  0  0  0  0  0  0  0  0  0
    7.7933  -19.6269   17.0534 N   0  0  0  0  0  0  0  0  0  0  0  0
    8.2900  -18.6473   17.9642 C   0  0  0  0  0  0  0  0  0  0  0  0
    7.8012  -18.8103   19.3587 C   0  0  0  0  0  0  0  0  0  0  0  0
    8.4276  -17.9606   20.3967 C   0  0  0  0  0  0  0  0  0  0  0  0
    7.8215  -16.6031   20.5887 C   0  0  2  0  0  0  0  0  0  0  0  0
    7.6861  -15.8723   19.3461 N   0  0  0  0  0  0  0  0  0  0  0  0
    8.5484  -15.7736   21.5587 C   0  0  0  0  0  0  0  0  0  0  0  0
    9.7156  -15.3168   21.2942 O   0  0  0  0  0  0  0  0  0  0  0  0
    7.2443  -18.4586   14.8628 C   0  0  0  0  0  0  0  0  0  0  0  0
    6.5663  -14.5350   25.2345 C   0  0  2  0  0  0  0  0  0  0  0  0
    7.5937  -13.7171   24.5031 C   0  0  0  0  0  0  0  0  0  0  0  0
    8.2873  -12.7235   25.4096 C   0  0  1  0  0  0  0  0  0  0  0  0
    8.6110  -14.6007   23.7860 N   0  0  0  0  0  0  0  0  0  0  0  0
    7.9673  -15.4597   22.8156 C   0  0  0  0  0  0  0  0  0  0  0  0
    9.2268  -15.4453   24.8338 O   0  0  0  0  0  0  0  0  0  0  0  0
    8.5008  -16.2268   25.4881 C   0  0  0  0  0  0  0  0  0  0  0  0
   10.2899  -13.0888   29.6340 S   0  0  0  0  0  0  0  0  0  0  0  0
   10.5374  -14.7831   30.1973 C   0  0  0  0  0  0  0  0  0  0  0  0
   11.1807  -15.7965   28.7955 C   0  0  0  0  0  0  0  0  0  0  0  0
   10.6862  -15.2104   27.5010 C   0  0  1  0  0  0  0  0  0  0  0  0
   11.1870  -16.0123   26.3329 N   0  0  0  0  0  0  0  0  0  0  0  0
   10.6168  -15.3994   25.1228 C   0  0  0  0  0  0  0  0  0  0  0  0
   10.7621  -17.4148   26.4618 O   0  0  0  0  0  0  0  0  0  0  0  0
    9.6068  -17.8372   26.6399 O   0  0  0  0  0  0  0  0  0  0  0  0
  2  1  1  0
  3  2  2  0
  4  2  1  0
  5  6  1  0
  5  4  1  0
  6  7  1  0
  7  8  1  0
  8  9  1  6
  8 10  1  0
 10 11  2  0
 10 16  1  0
 13 12  1  6
 13 15  1  0
 13 14  1  0
 15 17  1  0
 15 16  1  6
 17 24  1  0
 17 18  2  0
 19 20  1  0
 20 21  1  0
 21 22  1  0
 23 22  1  6
 23 25  1  0
 24 23  1  0
 25 27  1  0
 26 25  2  0
M  END
$$$$
