RVM.pdb
     RDKit          3D

 27 26  0  0  1  0  0  0  0  0999 V2000
   14.3305  -19.2861   15.2910 N   0  0  0  0  0  0  0  0  0  0  0  0
   13.8137  -20.1825   16.2787 C   0  0  0  0  0  0  0  0  0  0  0  0
   13.1742  -21.2289   15.9066 N   0  0  0  0  0  0  0  0  0  0  0  0
   13.9908  -19.9427   17.6661 N   0  0  0  0  0  0  0  0  0  0  0  0
   13.1336  -19.1417   18.4782 C   0  0  0  0  0  0  0  0  0  0  0  0
   11.6984  -19.5234   18.4082 C   0  0  0  0  0  0  0  0  0  0  0  0
   10.7661  -18.8109   19.3110 C   0  0  0  0  0  0  0  0  0  0  0  0
    9.9775  -17.6954   18.6938 C   0  0  2  0  0  0  0  0  0  0  0  0
   10.4237  -17.3714   17.3551 N   0  0  0  0  0  0  0  0  0  0  0  0
    9.9658  -16.4723   19.5071 C   0  0  0  0  0  0  0  0  0  0  0  0
   10.9517  -15.6546   19.4850 O   0  0  0  0  0  0  0  0  0  0  0  0
   12.7739  -21.8913   16.5774 C   0  0  0  0  0  0  0  0  0  0  0  0
    7.5804  -13.4934   19.5050 C   0  0  2  0  0  0  0  0  0  0  0  0
    7.5034  -14.1839   20.8380 C   0  0  0  0  0  0  0  0  0  0  0  0
    6.2829  -15.0709   20.9549 C   0  0  2  0  0  0  0  0  0  0  0  0
    8.7768  -14.9692   21.1403 N   0  0  0  0  0  0  0  0  0  0  0  0
    8.8545  -16.1707   20.3377 C   0  0  0  0  0  0  0  0  0  0  0  0
    8.6883  -15.3551   22.5663 O   0  0  0  0  0  0  0  0  0  0  0  0
    8.7474  -16.5671   22.8721 C   0  0  0  0  0  0  0  0  0  0  0  0
    5.9842  -11.4691   27.0511 S   0  0  0  0  0  0  0  0  0  0  0  0
    7.1974  -12.3217   28.0760 C   0  0  0  0  0  0  0  0  0  0  0  0
    7.7420  -13.8591   27.2125 C   0  0  0  0  0  0  0  0  0  0  0  0
    8.0084  -13.5398   25.7666 C   0  0  1  0  0  0  0  0  0  0  0  0
    8.4019  -14.7807   25.0157 N   0  0  0  0  0  0  0  0  0  0  0  0
    8.5383  -14.3949   23.6023 C   0  0  0  0  0  0  0  0  0  0  0  0
    7.3735  -15.8197   25.1800 O   0  0  0  0  0  0  0  0  0  0  0  0
    6.3400  -15.9680   24.5059 O   0  0  0  0  0  0  0  0  0  0  0  0
  2  1  1  0
  3  2  2  0
  4  2  1  0
  5  6  1  0
  5  4  1  0
  6  7  1  0
  7  8  1  0
  8  9  1  6
  8 10  1  0
 10 11  2  0
 10 16  1  0
 13 12  1  1
 13 15  1  0
 13 14  1  0
 15 17  1  0
 15 16  1  1
 17 24  1  0
 17 18  2  0
 19 20  1  0
 20 21  1  0
 21 22  1  0
 23 22  1  1
 23 25  1  0
 24 23  1  0
 25 27  1  0
 26 25  2  0
M  END
$$$$
