AGS.pdb
     RDKit          3D

 16 15  0  0  1  0  0  0  0  0999 V2000
   19.5989  -13.7355  -18.1399 C   0  0  0  0  0  0  0  0  0  0  0  0
   20.0739  -12.3555  -18.4989 C   0  0  2  0  0  0  0  0  0  0  0  0
   21.4726  -12.2033  -18.2080 N   0  0  0  0  0  0  0  0  0  0  0  0
   19.2769  -11.3674  -17.7497 C   0  0  0  0  0  0  0  0  0  0  0  0
   18.0311  -11.2885  -17.9050 O   0  0  0  0  0  0  0  0  0  0  0  0
   19.9169  -10.4870  -16.8365 N   0  0  0  0  0  0  0  0  0  0  0  0
   19.1141   -9.5856  -16.0110 C   0  0  0  0  0  0  0  0  0  0  0  0
   19.0560   -8.2586  -16.6393 C   0  0  0  0  0  0  0  0  0  0  0  0
   20.0097   -7.8129  -17.3221 O   0  0  0  0  0  0  0  0  0  0  0  0
   15.5569   -6.7673  -17.6149 O   0  0  0  0  0  0  0  0  0  0  0  0
   16.3559   -5.7459  -17.0982 C   0  0  0  0  0  0  0  0  0  0  0  0
   17.7859   -6.1906  -17.2201 C   0  0  2  0  0  0  0  0  0  0  0  0
   17.9095   -7.4555  -16.4810 N   0  0  0  0  0  0  0  0  0  0  0  0
   18.7163   -5.1750  -16.6518 C   0  0  0  0  0  0  0  0  0  0  0  0
   19.0559   -4.0978  -17.4415 O   0  0  0  0  0  0  0  0  0  0  0  0
   19.2009   -5.2569  -15.4941 O   0  0  0  0  0  0  0  0  0  0  0  0
  2  1  1  1
  2  3  1  0
  4  5  2  0
  4  2  1  0
  6  4  1  0
  7  6  1  0
  8  7  1  0
  9  8  2  0
 10 11  1  0
 12 11  1  1
 12 14  1  0
 12 13  1  0
 13  8  1  0
 14 15  1  0
 16 14  2  0
M  END
$$$$
