AGS.pdb
     RDKit          3D

 16 15  0  0  1  0  0  0  0  0999 V2000
   28.8310  -19.8208  -18.5195 C   0  0  0  0  0  0  0  0  0  0  0  0
   27.7625  -20.5416  -17.7464 C   0  0  2  0  0  0  0  0  0  0  0  0
   26.4698  -19.9702  -18.0041 N   0  0  0  0  0  0  0  0  0  0  0  0
   28.0846  -20.4714  -16.3097 C   0  0  0  0  0  0  0  0  0  0  0  0
   29.1085  -21.0372  -15.8472 O   0  0  0  0  0  0  0  0  0  0  0  0
   27.2315  -19.7563  -15.4268 N   0  0  0  0  0  0  0  0  0  0  0  0
   27.5175  -19.7401  -13.9927 C   0  0  0  0  0  0  0  0  0  0  0  0
   26.5283  -20.5612  -13.2812 C   0  0  0  0  0  0  0  0  0  0  0  0
   25.8348  -21.4191  -13.8791 O   0  0  0  0  0  0  0  0  0  0  0  0
   25.5982  -19.6708   -9.4456 O   0  0  0  0  0  0  0  0  0  0  0  0
   25.6281  -21.0418   -9.7069 C   0  0  0  0  0  0  0  0  0  0  0  0
   25.3654  -21.2238  -11.1751 C   0  0  2  0  0  0  0  0  0  0  0  0
   26.3420  -20.3934  -11.8950 N   0  0  0  0  0  0  0  0  0  0  0  0
   23.9802  -20.8055  -11.5305 C   0  0  0  0  0  0  0  0  0  0  0  0
   22.9411  -21.6288  -11.1540 O   0  0  0  0  0  0  0  0  0  0  0  0
   23.7200  -19.7441  -12.1531 O   0  0  0  0  0  0  0  0  0  0  0  0
  2  1  1  6
  2  3  1  0
  4  5  2  0
  4  2  1  0
  6  4  1  0
  7  6  1  0
  8  7  1  0
  9  8  2  0
 10 11  1  0
 12 11  1  1
 12 14  1  0
 12 13  1  0
 13  8  1  0
 14 15  1  0
 16 14  2  0
M  END
$$$$
