AGS.pdb
     RDKit          3D

 16 15  0  0  1  0  0  0  0  0999 V2000
   15.6304  -11.5801  -15.1283 C   0  0  0  0  0  0  0  0  0  0  0  0
   16.8326  -11.1167  -15.9022 C   0  0  2  0  0  0  0  0  0  0  0  0
   18.0196  -11.7940  -15.4589 N   0  0  0  0  0  0  0  0  0  0  0  0
   16.9734   -9.6589  -15.7358 C   0  0  0  0  0  0  0  0  0  0  0  0
   16.0531   -8.8755  -16.0846 O   0  0  0  0  0  0  0  0  0  0  0  0
   18.1629   -9.1218  -15.1741 N   0  0  0  0  0  0  0  0  0  0  0  0
   18.3524   -7.6727  -15.1208 C   0  0  0  0  0  0  0  0  0  0  0  0
   19.6103   -7.3631  -14.4274 C   0  0  0  0  0  0  0  0  0  0  0  0
   19.7973   -7.6877  -13.2298 O   0  0  0  0  0  0  0  0  0  0  0  0
   22.9109   -7.5359  -16.1692 O   0  0  0  0  0  0  0  0  0  0  0  0
   22.9795   -6.3348  -15.4611 C   0  0  0  0  0  0  0  0  0  0  0  0
   21.8985   -6.3674  -14.4180 C   0  0  2  0  0  0  0  0  0  0  0  0
   20.6406   -6.6863  -15.1092 N   0  0  0  0  0  0  0  0  0  0  0  0
   21.7800   -5.0544  -13.7237 C   0  0  0  0  0  0  0  0  0  0  0  0
   20.8788   -4.1394  -14.2235 O   0  0  0  0  0  0  0  0  0  0  0  0
   22.4598   -4.7475  -12.7110 O   0  0  0  0  0  0  0  0  0  0  0  0
  2  1  1  1
  2  3  1  0
  4  5  2  0
  4  2  1  0
  6  4  1  0
  7  6  1  0
  8  7  1  0
  9  8  2  0
 10 11  1  0
 12 11  1  6
 12 14  1  0
 12 13  1  0
 13  8  1  0
 14 15  1  0
 16 14  2  0
M  END
$$$$
