AGS.pdb
     RDKit          3D

 16 15  0  0  1  0  0  0  0  0999 V2000
   17.8421  -12.9031  -17.4680 C   0  0  0  0  0  0  0  0  0  0  0  0
   18.4057  -12.3877  -16.1736 C   0  0  2  0  0  0  0  0  0  0  0  0
   17.3771  -11.7881  -15.3695 N   0  0  0  0  0  0  0  0  0  0  0  0
   19.4678  -11.4101  -16.4721 C   0  0  0  0  0  0  0  0  0  0  0  0
   20.5366  -11.7659  -17.0321 O   0  0  0  0  0  0  0  0  0  0  0  0
   19.2903  -10.0436  -16.1258 N   0  0  0  0  0  0  0  0  0  0  0  0
   20.3842   -9.0941  -16.3269 C   0  0  0  0  0  0  0  0  0  0  0  0
   20.2224   -7.9522  -15.4165 C   0  0  0  0  0  0  0  0  0  0  0  0
   19.0988   -7.6304  -14.9599 O   0  0  0  0  0  0  0  0  0  0  0  0
   22.3953   -4.5791  -12.7821 O   0  0  0  0  0  0  0  0  0  0  0  0
   22.5529   -5.6283  -13.6893 C   0  0  0  0  0  0  0  0  0  0  0  0
   21.1825   -6.0176  -14.1665 C   0  0  2  0  0  0  0  0  0  0  0  0
   21.3453   -7.1906  -15.0378 N   0  0  0  0  0  0  0  0  0  0  0  0
   20.5393   -4.9063  -14.9224 C   0  0  0  0  0  0  0  0  0  0  0  0
   19.6739   -4.0783  -14.2406 O   0  0  0  0  0  0  0  0  0  0  0  0
   20.7495   -4.6926  -16.1439 O   0  0  0  0  0  0  0  0  0  0  0  0
  2  1  1  6
  2  3  1  0
  4  5  2  0
  4  2  1  0
  6  4  1  0
  7  6  1  0
  8  7  1  0
  9  8  2  0
 10 11  1  0
 12 11  1  6
 12 14  1  0
 12 13  1  0
 13  8  1  0
 14 15  1  0
 16 14  2  0
M  END
$$$$
