AGS.pdb
     RDKit          3D

 16 15  0  0  1  0  0  0  0  0999 V2000
   22.9284  -11.4973  -21.1925 C   0  0  0  0  0  0  0  0  0  0  0  0
   22.7381  -11.4519  -19.7023 C   0  0  2  0  0  0  0  0  0  0  0  0
   21.3437  -11.5127  -19.3617 N   0  0  0  0  0  0  0  0  0  0  0  0
   23.3466  -10.2143  -19.1819 C   0  0  0  0  0  0  0  0  0  0  0  0
   24.5788   -9.9956  -19.3087 O   0  0  0  0  0  0  0  0  0  0  0  0
   22.5368   -9.2485  -18.5259 N   0  0  0  0  0  0  0  0  0  0  0  0
   23.1611   -8.1001  -17.8703 C   0  0  0  0  0  0  0  0  0  0  0  0
   22.1628   -7.3900  -17.0590 C   0  0  0  0  0  0  0  0  0  0  0  0
   20.9348   -7.4831  -17.2992 O   0  0  0  0  0  0  0  0  0  0  0  0
   19.9066   -6.4927  -13.5587 O   0  0  0  0  0  0  0  0  0  0  0  0
   20.8881   -7.0734  -14.3638 C   0  0  0  0  0  0  0  0  0  0  0  0
   21.5813   -5.9607  -15.0978 C   0  0  2  0  0  0  0  0  0  0  0  0
   22.5780   -6.5817  -15.9825 N   0  0  0  0  0  0  0  0  0  0  0  0
   22.2521   -5.0263  -14.1507 C   0  0  0  0  0  0  0  0  0  0  0  0
   21.5141   -3.9758  -13.6496 O   0  0  0  0  0  0  0  0  0  0  0  0
   23.4509   -5.1528  -13.7919 O   0  0  0  0  0  0  0  0  0  0  0  0
  2  1  1  6
  2  3  1  0
  4  5  2  0
  4  2  1  0
  6  4  1  0
  7  6  1  0
  8  7  1  0
  9  8  2  0
 10 11  1  0
 12 11  1  1
 12 14  1  0
 12 13  1  0
 13  8  1  0
 14 15  1  0
 16 14  2  0
M  END
$$$$
