AGS.pdb
     RDKit          3D

 16 15  0  0  1  0  0  0  0  0999 V2000
   19.0402  -12.0738  -18.2204 C   0  0  0  0  0  0  0  0  0  0  0  0
   18.8223  -11.3384  -16.9278 C   0  0  2  0  0  0  0  0  0  0  0  0
   17.8140  -10.3260  -17.0780 N   0  0  0  0  0  0  0  0  0  0  0  0
   20.0994  -10.7403  -16.4989 C   0  0  0  0  0  0  0  0  0  0  0  0
   21.0910  -11.4621  -16.2193 O   0  0  0  0  0  0  0  0  0  0  0  0
   20.2212   -9.3283  -16.3969 N   0  0  0  0  0  0  0  0  0  0  0  0
   21.5365   -8.7250  -16.1857 C   0  0  0  0  0  0  0  0  0  0  0  0
   21.4014   -7.2653  -16.0863 C   0  0  0  0  0  0  0  0  0  0  0  0
   20.8843   -6.5892  -17.0082 O   0  0  0  0  0  0  0  0  0  0  0  0
   19.7550   -3.7356  -14.2963 O   0  0  0  0  0  0  0  0  0  0  0  0
   20.0505   -5.0613  -14.6187 C   0  0  0  0  0  0  0  0  0  0  0  0
   21.5443   -5.1714  -14.7362 C   0  0  2  0  0  0  0  0  0  0  0  0
   21.8584   -6.5939  -14.9352 N   0  0  0  0  0  0  0  0  0  0  0  0
   22.2201   -4.6671  -13.5078 C   0  0  0  0  0  0  0  0  0  0  0  0
   22.4147   -3.3078  -13.3905 O   0  0  0  0  0  0  0  0  0  0  0  0
   22.6170   -5.4202  -12.5820 O   0  0  0  0  0  0  0  0  0  0  0  0
  2  1  1  6
  2  3  1  0
  4  5  2  0
  4  2  1  0
  6  4  1  0
  7  6  1  0
  8  7  1  0
  9  8  2  0
 10 11  1  0
 12 11  1  1
 12 14  1  0
 12 13  1  0
 13  8  1  0
 14 15  1  0
 16 14  2  0
M  END
$$$$
