AGS.pdb
     RDKit          3D

 16 15  0  0  1  0  0  0  0  0999 V2000
   15.4551  -11.4762  -14.8786 C   0  0  0  0  0  0  0  0  0  0  0  0
   16.8055  -11.4129  -15.5354 C   0  0  2  0  0  0  0  0  0  0  0  0
   17.8039  -12.0418  -14.7157 N   0  0  0  0  0  0  0  0  0  0  0  0
   17.1497  -10.0010  -15.7820 C   0  0  0  0  0  0  0  0  0  0  0  0
   16.4343   -9.2803  -16.5244 O   0  0  0  0  0  0  0  0  0  0  0  0
   18.3048   -9.4374  -15.1763 N   0  0  0  0  0  0  0  0  0  0  0  0
   18.6320   -8.0302  -15.4031 C   0  0  0  0  0  0  0  0  0  0  0  0
   19.8991   -7.7027  -14.7352 C   0  0  0  0  0  0  0  0  0  0  0  0
   20.3050   -8.3526  -13.7417 O   0  0  0  0  0  0  0  0  0  0  0  0
   22.9890   -6.9401  -16.6054 O   0  0  0  0  0  0  0  0  0  0  0  0
   22.9147   -5.9000  -15.6773 C   0  0  0  0  0  0  0  0  0  0  0  0
   21.9854   -6.3420  -14.5826 C   0  0  2  0  0  0  0  0  0  0  0  0
   20.6885   -6.6366  -15.2094 N   0  0  0  0  0  0  0  0  0  0  0  0
   21.8234   -5.2789  -13.5513 C   0  0  0  0  0  0  0  0  0  0  0  0
   20.8535   -4.3220  -13.7580 O   0  0  0  0  0  0  0  0  0  0  0  0
   22.5264   -5.2170  -12.5102 O   0  0  0  0  0  0  0  0  0  0  0  0
  2  1  1  1
  2  3  1  0
  4  5  2  0
  4  2  1  0
  6  4  1  0
  7  6  1  0
  8  7  1  0
  9  8  2  0
 10 11  1  0
 12 11  1  6
 12 14  1  0
 12 13  1  0
 13  8  1  0
 14 15  1  0
 16 14  2  0
M  END
$$$$
