AGS.pdb
     RDKit          3D

 16 15  0  0  1  0  0  0  0  0999 V2000
   23.3898  -11.8662  -20.5301 C   0  0  0  0  0  0  0  0  0  0  0  0
   22.3117  -11.0965  -19.8201 C   0  0  2  0  0  0  0  0  0  0  0  0
   21.6740  -10.1673  -20.7112 N   0  0  0  0  0  0  0  0  0  0  0  0
   22.9080  -10.3897  -18.6722 C   0  0  0  0  0  0  0  0  0  0  0  0
   23.4630  -11.0241  -17.7384 O   0  0  0  0  0  0  0  0  0  0  0  0
   22.8597   -8.9710  -18.6112 N   0  0  0  0  0  0  0  0  0  0  0  0
   23.4104   -8.2737  -17.4497 C   0  0  0  0  0  0  0  0  0  0  0  0
   22.4505   -7.2673  -16.9755 C   0  0  0  0  0  0  0  0  0  0  0  0
   21.6253   -6.7293  -17.7526 O   0  0  0  0  0  0  0  0  0  0  0  0
   19.6725   -5.5524  -13.7325 O   0  0  0  0  0  0  0  0  0  0  0  0
   20.5917   -6.5151  -14.1532 C   0  0  0  0  0  0  0  0  0  0  0  0
   21.5074   -5.8566  -15.1458 C   0  0  2  0  0  0  0  0  0  0  0  0
   22.4438   -6.8866  -15.6192 N   0  0  0  0  0  0  0  0  0  0  0  0
   22.2595   -4.7320  -14.5215 C   0  0  0  0  0  0  0  0  0  0  0  0
   21.6972   -3.4747  -14.5695 O   0  0  0  0  0  0  0  0  0  0  0  0
   23.3744   -4.8783  -13.9580 O   0  0  0  0  0  0  0  0  0  0  0  0
  2  1  1  6
  2  3  1  0
  4  5  2  0
  4  2  1  0
  6  4  1  0
  7  6  1  0
  8  7  1  0
  9  8  2  0
 10 11  1  0
 12 11  1  1
 12 14  1  0
 12 13  1  0
 13  8  1  0
 14 15  1  0
 16 14  2  0
M  END
$$$$
