AGS.pdb
     RDKit          3D

 16 15  0  0  1  0  0  0  0  0999 V2000
   23.1307  -13.3416  -21.0573 C   0  0  0  0  0  0  0  0  0  0  0  0
   24.3117  -14.0983  -20.5174 C   0  0  2  0  0  0  0  0  0  0  0  0
   24.2246  -14.2333  -19.0897 N   0  0  0  0  0  0  0  0  0  0  0  0
   25.5465  -13.3886  -20.8978 C   0  0  0  0  0  0  0  0  0  0  0  0
   25.8445  -13.2102  -22.1068 O   0  0  0  0  0  0  0  0  0  0  0  0
   26.4188  -12.8955  -19.8905 N   0  0  0  0  0  0  0  0  0  0  0  0
   27.6566  -12.2152  -20.2694 C   0  0  0  0  0  0  0  0  0  0  0  0
   27.8613  -11.0430  -19.4074 C   0  0  0  0  0  0  0  0  0  0  0  0
   26.9140  -10.5240  -18.7688 O   0  0  0  0  0  0  0  0  0  0  0  0
   30.7766   -8.7373  -16.5828 O   0  0  0  0  0  0  0  0  0  0  0  0
   30.6473   -9.6825  -17.6018 C   0  0  0  0  0  0  0  0  0  0  0  0
   29.3779   -9.3714  -18.3430 C   0  0  2  0  0  0  0  0  0  0  0  0
   29.1452  -10.4766  -19.2843 N   0  0  0  0  0  0  0  0  0  0  0  0
   29.4888   -8.0843  -19.0852 C   0  0  0  0  0  0  0  0  0  0  0  0
   28.9391   -6.9587  -18.5105 O   0  0  0  0  0  0  0  0  0  0  0  0
   30.0567   -7.9807  -20.2026 O   0  0  0  0  0  0  0  0  0  0  0  0
  2  1  1  1
  2  3  1  0
  4  5  2  0
  4  2  1  0
  6  4  1  0
  7  6  1  0
  8  7  1  0
  9  8  2  0
 10 11  1  0
 12 11  1  6
 12 14  1  0
 12 13  1  0
 13  8  1  0
 14 15  1  0
 16 14  2  0
M  END
$$$$
