AGS.pdb
     RDKit          3D

 16 15  0  0  1  0  0  0  0  0999 V2000
   17.9546  -11.8158  -16.5819 C   0  0  0  0  0  0  0  0  0  0  0  0
   18.4677  -10.4521  -16.9509 C   0  0  2  0  0  0  0  0  0  0  0  0
   19.1521  -10.4866  -18.2137 N   0  0  0  0  0  0  0  0  0  0  0  0
   19.3681   -9.9774  -15.8848 C   0  0  0  0  0  0  0  0  0  0  0  0
   18.9508   -9.8152  -14.7092 O   0  0  0  0  0  0  0  0  0  0  0  0
   20.7292   -9.6963  -16.1803 N   0  0  0  0  0  0  0  0  0  0  0  0
   21.6122   -9.1903  -15.1301 C   0  0  0  0  0  0  0  0  0  0  0  0
   21.7611   -7.7350  -15.2671 C   0  0  0  0  0  0  0  0  0  0  0  0
   22.5280   -7.2309  -16.1227 O   0  0  0  0  0  0  0  0  0  0  0  0
   19.9150   -3.4455  -14.2825 O   0  0  0  0  0  0  0  0  0  0  0  0
   19.7943   -4.8353  -14.2310 C   0  0  0  0  0  0  0  0  0  0  0  0
   21.1310   -5.4148  -14.5983 C   0  0  2  0  0  0  0  0  0  0  0  0
   21.0325   -6.8716  -14.4254 N   0  0  0  0  0  0  0  0  0  0  0  0
   22.2117   -4.8702  -13.7291 C   0  0  0  0  0  0  0  0  0  0  0  0
   22.4075   -5.4584  -12.4982 O   0  0  0  0  0  0  0  0  0  0  0  0
   22.9461   -3.9064  -14.0660 O   0  0  0  0  0  0  0  0  0  0  0  0
  2  1  1  1
  2  3  1  0
  4  5  2  0
  4  2  1  0
  6  4  1  0
  7  6  1  0
  8  7  1  0
  9  8  2  0
 10 11  1  0
 12 11  1  1
 12 14  1  0
 12 13  1  0
 13  8  1  0
 14 15  1  0
 16 14  2  0
M  END
$$$$
