AGS.pdb
     RDKit          3D

 16 15  0  0  1  0  0  0  0  0999 V2000
   33.7660  -26.9568  -19.1527 C   0  0  0  0  0  0  0  0  0  0  0  0
   32.7408  -28.0469  -19.0131 C   0  0  2  0  0  0  0  0  0  0  0  0
   31.9392  -28.1516  -20.2009 N   0  0  0  0  0  0  0  0  0  0  0  0
   31.8960  -27.7590  -17.8400 C   0  0  0  0  0  0  0  0  0  0  0  0
   32.4049  -27.5821  -16.7033 O   0  0  0  0  0  0  0  0  0  0  0  0
   30.4850  -27.6783  -17.9860 N   0  0  0  0  0  0  0  0  0  0  0  0
   29.6599  -27.2525  -16.8562 C   0  0  0  0  0  0  0  0  0  0  0  0
   28.3914  -26.6995  -17.3501 C   0  0  0  0  0  0  0  0  0  0  0  0
   28.3637  -25.7443  -18.1634 O   0  0  0  0  0  0  0  0  0  0  0  0
   25.7779  -28.4620  -18.9132 O   0  0  0  0  0  0  0  0  0  0  0  0
   25.0683  -27.8459  -17.8809 C   0  0  0  0  0  0  0  0  0  0  0  0
   25.8963  -26.6897  -17.3961 C   0  0  2  0  0  0  0  0  0  0  0  0
   27.1686  -27.2433  -16.9099 N   0  0  0  0  0  0  0  0  0  0  0  0
   25.2067  -25.9560  -16.2979 C   0  0  0  0  0  0  0  0  0  0  0  0
   24.2764  -25.0004  -16.6453 O   0  0  0  0  0  0  0  0  0  0  0  0
   25.4340  -26.1684  -15.0793 O   0  0  0  0  0  0  0  0  0  0  0  0
  2  1  1  6
  2  3  1  0
  4  5  2  0
  4  2  1  0
  6  4  1  0
  7  6  1  0
  8  7  1  0
  9  8  2  0
 10 11  1  0
 12 11  1  1
 12 14  1  0
 12 13  1  0
 13  8  1  0
 14 15  1  0
 16 14  2  0
M  END
$$$$
