AGS.pdb
     RDKit          3D

 16 15  0  0  1  0  0  0  0  0999 V2000
   19.1754  -21.1646  -13.2832 C   0  0  0  0  0  0  0  0  0  0  0  0
   20.2624  -20.2060  -13.6812 C   0  0  2  0  0  0  0  0  0  0  0  0
   20.2963  -20.0331  -15.1070 N   0  0  0  0  0  0  0  0  0  0  0  0
   21.5537  -20.7192  -13.1892 C   0  0  0  0  0  0  0  0  0  0  0  0
   21.7688  -20.8571  -11.9575 O   0  0  0  0  0  0  0  0  0  0  0  0
   22.5763  -21.0657  -14.1128 N   0  0  0  0  0  0  0  0  0  0  0  0
   23.8819  -21.5048  -13.6217 C   0  0  0  0  0  0  0  0  0  0  0  0
   24.9178  -20.5565  -14.0533 C   0  0  0  0  0  0  0  0  0  0  0  0
   24.6307  -19.3897  -14.4147 O   0  0  0  0  0  0  0  0  0  0  0  0
   28.7111  -21.8773  -14.4483 O   0  0  0  0  0  0  0  0  0  0  0  0
   28.6269  -20.5493  -14.0266 C   0  0  0  0  0  0  0  0  0  0  0  0
   27.3098  -20.0092  -14.5074 C   0  0  2  0  0  0  0  0  0  0  0  0
   26.2701  -20.9511  -14.0676 N   0  0  0  0  0  0  0  0  0  0  0  0
   27.2887  -19.8834  -15.9919 C   0  0  0  0  0  0  0  0  0  0  0  0
   28.0605  -18.8968  -16.5667 O   0  0  0  0  0  0  0  0  0  0  0  0
   26.6040  -20.6308  -16.7365 O   0  0  0  0  0  0  0  0  0  0  0  0
  2  1  1  6
  2  3  1  0
  4  5  2  0
  4  2  1  0
  6  4  1  0
  7  6  1  0
  8  7  1  0
  9  8  2  0
 10 11  1  0
 12 11  1  6
 12 14  1  0
 12 13  1  0
 13  8  1  0
 14 15  1  0
 16 14  2  0
M  END
$$$$
