AGS.pdb
     RDKit          3D

 16 15  0  0  1  0  0  0  0  0999 V2000
   22.3577  -11.8107  -21.6495 C   0  0  0  0  0  0  0  0  0  0  0  0
   22.1886  -12.2124  -20.2111 C   0  0  2  0  0  0  0  0  0  0  0  0
   20.8100  -12.4870  -19.9144 N   0  0  0  0  0  0  0  0  0  0  0  0
   22.6996  -11.1299  -19.3509 C   0  0  0  0  0  0  0  0  0  0  0  0
   23.9274  -10.8592  -19.3112 O   0  0  0  0  0  0  0  0  0  0  0  0
   21.7990  -10.3758  -18.5514 N   0  0  0  0  0  0  0  0  0  0  0  0
   22.3139   -9.3456  -17.6503 C   0  0  0  0  0  0  0  0  0  0  0  0
   21.1963   -8.6912  -16.9563 C   0  0  0  0  0  0  0  0  0  0  0  0
   20.0244   -8.7461  -17.4012 O   0  0  0  0  0  0  0  0  0  0  0  0
   20.4042   -8.8777  -13.3391 O   0  0  0  0  0  0  0  0  0  0  0  0
   20.5296   -7.5115  -13.5970 C   0  0  0  0  0  0  0  0  0  0  0  0
   20.3172   -7.3126  -15.0710 C   0  0  2  0  0  0  0  0  0  0  0  0
   21.4294   -7.9814  -15.7619 N   0  0  0  0  0  0  0  0  0  0  0  0
   20.2960   -5.8647  -15.4219 C   0  0  0  0  0  0  0  0  0  0  0  0
   19.1274   -5.1662  -15.2081 O   0  0  0  0  0  0  0  0  0  0  0  0
   21.2883   -5.2576  -15.9000 O   0  0  0  0  0  0  0  0  0  0  0  0
  2  1  1  6
  2  3  1  0
  4  5  2  0
  4  2  1  0
  6  4  1  0
  7  6  1  0
  8  7  1  0
  9  8  2  0
 10 11  1  0
 12 11  1  1
 12 14  1  0
 12 13  1  0
 13  8  1  0
 14 15  1  0
 16 14  2  0
M  END
$$$$
