HEG.pdb
     RDKit          3D

 24 24  0  0  1  0  0  0  0  0999 V2000
   26.9231  -18.9290  -17.2342 N   0  0  0  0  0  0  0  0  0  0  0  0
   26.2729  -18.4563  -16.0255 C   0  0  1  0  0  0  0  0  0  0  0  0
   25.3318  -17.3587  -16.3771 C   0  0  0  0  0  0  0  0  0  0  0  0
   26.0544  -16.0806  -16.5875 C   0  0  0  0  0  0  0  0  0  0  0  0
   26.8444  -15.4257  -15.6739 C   0  0  0  0  0  0  0  0  0  0  0  0
   27.2927  -14.3240  -16.2805 N   0  0  0  0  0  0  0  0  0  0  0  0
   26.8195  -14.2584  -17.5332 C   0  0  0  0  0  0  0  0  0  0  0  0
   26.0446  -15.3648  -17.7144 N   0  0  0  0  0  0  0  0  0  0  0  0
   25.6341  -19.5448  -15.2725 C   0  0  0  0  0  0  0  0  0  0  0  0
   25.2903  -20.5853  -15.8955 O   0  0  0  0  0  0  0  0  0  0  0  0
   25.4129  -19.4297  -13.8765 N   0  0  0  0  0  0  0  0  0  0  0  0
   25.0093  -20.5266  -13.0309 C   0  0  1  0  0  0  0  0  0  0  0  0
   25.5446  -20.5337  -11.6414 C   0  0  0  0  0  0  0  0  0  0  0  0
   25.1607  -21.6894  -10.7751 C   0  0  0  0  0  0  0  0  0  0  0  0
   25.6034  -21.5291   -9.4014 C   0  0  0  0  0  0  0  0  0  0  0  0
   26.7346  -20.9934   -9.1718 O   0  0  0  0  0  0  0  0  0  0  0  0
   23.5503  -20.6603  -13.0319 C   0  0  0  0  0  0  0  0  0  0  0  0
   22.9887  -21.6442  -12.4493 O   0  0  0  0  0  0  0  0  0  0  0  0
   24.8168  -21.9499   -8.3526 O   0  0  0  0  0  0  0  0  0  0  0  0
   22.6685  -19.7389  -13.6590 N   0  0  0  0  0  0  0  0  0  0  0  0
   21.2225  -19.9103  -13.6308 C   0  0  0  0  0  0  0  0  0  0  0  0
   20.5438  -18.8172  -14.3540 C   0  0  0  0  0  0  0  0  0  0  0  0
   21.2423  -17.9979  -14.9939 O   0  0  0  0  0  0  0  0  0  0  0  0
   19.1648  -18.7431  -14.2950 O   0  0  0  0  0  0  0  0  0  0  0  0
  2  1  1  6
  2  9  1  0
  3  4  1  0
  3  2  1  0
  4  5  2  0
  5  6  1  0
  7  6  1  0
  8  4  1  0
  8  7  2  0
  9 11  1  0
  9 10  2  0
 11 12  1  0
 12 17  1  0
 13 14  1  0
 12 13  1  1
 14 15  1  0
 15 16  2  0
 15 19  1  0
 17 18  2  0
 17 20  1  0
 20 21  1  0
 21 22  1  0
 22 24  1  0
 23 22  2  0
M  END
$$$$
