HEG.pdb
     RDKit          3D

 24 24  0  0  1  0  0  0  0  0999 V2000
   20.4118  -11.9242  -16.9870 N   0  0  0  0  0  0  0  0  0  0  0  0
   20.0295  -10.6959  -16.3143 C   0  0  1  0  0  0  0  0  0  0  0  0
   19.4068  -11.0320  -15.0054 C   0  0  0  0  0  0  0  0  0  0  0  0
   18.1897  -11.8599  -15.1882 C   0  0  0  0  0  0  0  0  0  0  0  0
   17.6008  -12.1985  -16.3824 C   0  0  0  0  0  0  0  0  0  0  0  0
   16.5373  -12.9480  -16.0820 N   0  0  0  0  0  0  0  0  0  0  0  0
   16.4329  -13.0944  -14.7534 C   0  0  0  0  0  0  0  0  0  0  0  0
   17.4740  -12.4082  -14.2036 N   0  0  0  0  0  0  0  0  0  0  0  0
   21.1501   -9.7525  -16.1947 C   0  0  0  0  0  0  0  0  0  0  0  0
   22.2847  -10.1114  -16.6102 O   0  0  0  0  0  0  0  0  0  0  0  0
   20.9592   -8.4663  -15.6287 N   0  0  0  0  0  0  0  0  0  0  0  0
   21.8944   -7.3770  -15.7686 C   0  0  1  0  0  0  0  0  0  0  0  0
   22.3353   -7.0456  -17.1518 C   0  0  0  0  0  0  0  0  0  0  0  0
   23.3437   -5.9522  -17.2961 C   0  0  0  0  0  0  0  0  0  0  0  0
   23.6188   -5.6256  -18.6840 C   0  0  0  0  0  0  0  0  0  0  0  0
   23.0836   -4.5912  -19.1966 O   0  0  0  0  0  0  0  0  0  0  0  0
   21.3955   -6.1855  -15.0772 C   0  0  0  0  0  0  0  0  0  0  0  0
   20.2945   -5.6472  -15.4248 O   0  0  0  0  0  0  0  0  0  0  0  0
   24.4462   -6.4201  -19.4455 O   0  0  0  0  0  0  0  0  0  0  0  0
   22.0709   -5.5511  -13.9997 N   0  0  0  0  0  0  0  0  0  0  0  0
   21.5050   -4.4069  -13.2983 C   0  0  0  0  0  0  0  0  0  0  0  0
   21.4823   -3.2115  -14.1637 C   0  0  0  0  0  0  0  0  0  0  0  0
   21.9356   -3.3056  -15.3274 O   0  0  0  0  0  0  0  0  0  0  0  0
   20.9614   -2.0372  -13.6535 O   0  0  0  0  0  0  0  0  0  0  0  0
  2  1  1  1
  2  9  1  0
  3  4  1  0
  3  2  1  0
  4  5  2  0
  5  6  1  0
  7  6  1  0
  8  4  1  0
  8  7  2  0
  9 11  1  0
  9 10  2  0
 11 12  1  0
 12 17  1  0
 13 14  1  0
 12 13  1  6
 14 15  1  0
 15 16  2  0
 15 19  1  0
 17 18  2  0
 17 20  1  0
 20 21  1  0
 21 22  1  0
 22 24  1  0
 23 22  2  0
M  END
$$$$
