HEG.pdb
     RDKit          3D

 24 24  0  0  1  0  0  0  0  0999 V2000
   25.3481  -10.5974  -18.1469 N   0  0  0  0  0  0  0  0  0  0  0  0
   24.5929  -10.6904  -16.9106 C   0  0  1  0  0  0  0  0  0  0  0  0
   25.5300  -10.5856  -15.7595 C   0  0  0  0  0  0  0  0  0  0  0  0
   26.5555  -11.6562  -15.8047 C   0  0  0  0  0  0  0  0  0  0  0  0
   26.3447  -13.0012  -15.6203 C   0  0  0  0  0  0  0  0  0  0  0  0
   27.5352  -13.5927  -15.7457 N   0  0  0  0  0  0  0  0  0  0  0  0
   28.4829  -12.6792  -16.0004 C   0  0  0  0  0  0  0  0  0  0  0  0
   27.8572  -11.4691  -16.0351 N   0  0  0  0  0  0  0  0  0  0  0  0
   23.4954   -9.7148  -16.8516 C   0  0  0  0  0  0  0  0  0  0  0  0
   23.6217   -8.6295  -17.4803 O   0  0  0  0  0  0  0  0  0  0  0  0
   22.3193   -9.9889  -16.1082 N   0  0  0  0  0  0  0  0  0  0  0  0
   21.1481   -9.1467  -16.1124 C   0  0  1  0  0  0  0  0  0  0  0  0
   19.8295   -9.8321  -16.0179 C   0  0  0  0  0  0  0  0  0  0  0  0
   19.5385  -10.8820  -17.0409 C   0  0  0  0  0  0  0  0  0  0  0  0
   18.6784  -11.9352  -16.5315 C   0  0  0  0  0  0  0  0  0  0  0  0
   17.5677  -12.1639  -17.1088 O   0  0  0  0  0  0  0  0  0  0  0  0
   21.2697   -8.1001  -15.0944 C   0  0  0  0  0  0  0  0  0  0  0  0
   21.8897   -8.3245  -14.0043 O   0  0  0  0  0  0  0  0  0  0  0  0
   19.0501  -12.6822  -15.4363 O   0  0  0  0  0  0  0  0  0  0  0  0
   20.7273   -6.7936  -15.2295 N   0  0  0  0  0  0  0  0  0  0  0  0
   20.8525   -5.7915  -14.1800 C   0  0  0  0  0  0  0  0  0  0  0  0
   22.1082   -5.0288  -14.3210 C   0  0  0  0  0  0  0  0  0  0  0  0
   22.9364   -5.3929  -15.1871 O   0  0  0  0  0  0  0  0  0  0  0  0
   22.3180   -3.9436  -13.4908 O   0  0  0  0  0  0  0  0  0  0  0  0
  2  1  1  6
  2  9  1  0
  3  4  1  0
  3  2  1  0
  4  5  2  0
  5  6  1  0
  7  6  1  0
  8  4  1  0
  8  7  2  0
  9 11  1  0
  9 10  2  0
 11 12  1  0
 12 17  1  0
 13 14  1  0
 12 13  1  1
 14 15  1  0
 15 16  2  0
 15 19  1  0
 17 18  2  0
 17 20  1  0
 20 21  1  0
 21 22  1  0
 22 24  1  0
 23 22  2  0
M  END
$$$$
