HEG.pdb
     RDKit          3D

 24 24  0  0  1  0  0  0  0  0999 V2000
   22.1826  -11.5802  -17.9636 N   0  0  0  0  0  0  0  0  0  0  0  0
   21.3385  -10.6952  -18.7457 C   0  0  1  0  0  0  0  0  0  0  0  0
   20.5800  -11.5005  -19.7407 C   0  0  0  0  0  0  0  0  0  0  0  0
   21.4968  -12.2500  -20.6338 C   0  0  0  0  0  0  0  0  0  0  0  0
   22.4229  -11.7129  -21.4948 C   0  0  0  0  0  0  0  0  0  0  0  0
   23.0234  -12.7425  -22.0967 N   0  0  0  0  0  0  0  0  0  0  0  0
   22.5157  -13.9008  -21.6519 C   0  0  0  0  0  0  0  0  0  0  0  0
   21.5596  -13.5798  -20.7353 N   0  0  0  0  0  0  0  0  0  0  0  0
   20.4743   -9.8576  -17.9022 C   0  0  0  0  0  0  0  0  0  0  0  0
   19.6782   -9.0583  -18.4645 O   0  0  0  0  0  0  0  0  0  0  0  0
   20.5310   -9.9490  -16.4881 N   0  0  0  0  0  0  0  0  0  0  0  0
   19.7169   -9.1603  -15.5958 C   0  0  1  0  0  0  0  0  0  0  0  0
   18.7380   -9.8999  -14.7518 C   0  0  0  0  0  0  0  0  0  0  0  0
   17.6649  -10.6558  -15.4661 C   0  0  0  0  0  0  0  0  0  0  0  0
   16.7961  -11.3842  -14.5588 C   0  0  0  0  0  0  0  0  0  0  0  0
   16.6217  -12.6324  -14.7336 O   0  0  0  0  0  0  0  0  0  0  0  0
   20.5596   -8.2850  -14.7773 C   0  0  0  0  0  0  0  0  0  0  0  0
   21.7148   -8.6658  -14.3983 O   0  0  0  0  0  0  0  0  0  0  0  0
   16.1625  -10.7408  -13.5194 O   0  0  0  0  0  0  0  0  0  0  0  0
   20.1762   -6.9845  -14.3514 N   0  0  0  0  0  0  0  0  0  0  0  0
   21.0898   -6.1038  -13.6367 C   0  0  0  0  0  0  0  0  0  0  0  0
   21.8307   -5.2350  -14.5720 C   0  0  0  0  0  0  0  0  0  0  0  0
   21.7121   -5.4399  -15.8018 O   0  0  0  0  0  0  0  0  0  0  0  0
   22.6251   -4.2307  -14.0513 O   0  0  0  0  0  0  0  0  0  0  0  0
  2  1  1  1
  2  9  1  0
  3  4  1  0
  3  2  1  0
  4  5  2  0
  5  6  1  0
  7  6  1  0
  8  4  1  0
  8  7  2  0
  9 11  1  0
  9 10  2  0
 11 12  1  0
 12 17  1  0
 13 14  1  0
 12 13  1  1
 14 15  1  0
 15 16  2  0
 15 19  1  0
 17 18  2  0
 17 20  1  0
 20 21  1  0
 21 22  1  0
 22 24  1  0
 23 22  2  0
M  END
$$$$
