HEG.pdb
     RDKit          3D

 24 24  0  0  1  0  0  0  0  0999 V2000
   17.9619  -12.3392  -15.9173 N   0  0  0  0  0  0  0  0  0  0  0  0
   17.6412  -10.9241  -15.8737 C   0  0  1  0  0  0  0  0  0  0  0  0
   16.8178  -10.6492  -14.6652 C   0  0  0  0  0  0  0  0  0  0  0  0
   15.5073  -11.3396  -14.7418 C   0  0  0  0  0  0  0  0  0  0  0  0
   14.4479  -10.9998  -15.5480 C   0  0  0  0  0  0  0  0  0  0  0  0
   13.4796  -11.8836  -15.2949 N   0  0  0  0  0  0  0  0  0  0  0  0
   13.8840  -12.7623  -14.3665 C   0  0  0  0  0  0  0  0  0  0  0  0
   15.1565  -12.4114  -14.0273 N   0  0  0  0  0  0  0  0  0  0  0  0
   18.8390  -10.0769  -15.9604 C   0  0  0  0  0  0  0  0  0  0  0  0
   19.8297  -10.3609  -15.2345 O   0  0  0  0  0  0  0  0  0  0  0  0
   18.8818   -8.9680  -16.8432 N   0  0  0  0  0  0  0  0  0  0  0  0
   20.0465   -8.1404  -17.0426 C   0  0  1  0  0  0  0  0  0  0  0  0
   20.3026   -7.6671  -18.4310 C   0  0  0  0  0  0  0  0  0  0  0  0
   20.5194   -8.7158  -19.4735 C   0  0  0  0  0  0  0  0  0  0  0  0
   20.4648   -8.1819  -20.8228 C   0  0  0  0  0  0  0  0  0  0  0  0
   19.5785   -8.6148  -21.6267 O   0  0  0  0  0  0  0  0  0  0  0  0
   20.0428   -7.0200  -16.0985 C   0  0  0  0  0  0  0  0  0  0  0  0
   19.0329   -6.2483  -16.0118 O   0  0  0  0  0  0  0  0  0  0  0  0
   21.3578   -7.2197  -21.2378 O   0  0  0  0  0  0  0  0  0  0  0  0
   21.1242   -6.7089  -15.2306 N   0  0  0  0  0  0  0  0  0  0  0  0
   21.0947   -5.5569  -14.3400 C   0  0  0  0  0  0  0  0  0  0  0  0
   22.3963   -5.3705  -13.6695 C   0  0  0  0  0  0  0  0  0  0  0  0
   23.2468   -6.2866  -13.7468 O   0  0  0  0  0  0  0  0  0  0  0  0
   22.6226   -4.1918  -12.9837 O   0  0  0  0  0  0  0  0  0  0  0  0
  2  1  1  1
  2  9  1  0
  3  4  1  0
  3  2  1  0
  4  5  2  0
  5  6  1  0
  7  6  1  0
  8  4  1  0
  8  7  2  0
  9 11  1  0
  9 10  2  0
 11 12  1  0
 12 17  1  0
 13 14  1  0
 12 13  1  6
 14 15  1  0
 15 16  2  0
 15 19  1  0
 17 18  2  0
 17 20  1  0
 20 21  1  0
 21 22  1  0
 22 24  1  0
 23 22  2  0
M  END
$$$$
