HEG.pdb
     RDKit          3D

 24 24  0  0  1  0  0  0  0  0999 V2000
   24.9027  -22.5254  -12.8560 N   0  0  0  0  0  0  0  0  0  0  0  0
   24.3209  -21.1956  -12.8324 C   0  0  1  0  0  0  0  0  0  0  0  0
   25.3397  -20.2279  -12.3430 C   0  0  0  0  0  0  0  0  0  0  0  0
   25.3945  -20.2118  -10.8609 C   0  0  0  0  0  0  0  0  0  0  0  0
   24.6050  -20.9393  -10.0037 C   0  0  0  0  0  0  0  0  0  0  0  0
   24.9926  -20.6193   -8.7667 N   0  0  0  0  0  0  0  0  0  0  0  0
   25.9896  -19.7240   -8.8096 C   0  0  0  0  0  0  0  0  0  0  0  0
   26.2331  -19.4761  -10.1274 N   0  0  0  0  0  0  0  0  0  0  0  0
   23.7411  -20.8165  -14.1286 C   0  0  0  0  0  0  0  0  0  0  0  0
   24.1032  -21.4492  -15.1570 O   0  0  0  0  0  0  0  0  0  0  0  0
   22.7927  -19.7662  -14.2205 N   0  0  0  0  0  0  0  0  0  0  0  0
   21.9860  -19.5081  -15.3882 C   0  0  1  0  0  0  0  0  0  0  0  0
   20.5096  -19.5007  -15.1944 C   0  0  0  0  0  0  0  0  0  0  0  0
   19.9100  -20.6938  -14.5232 C   0  0  0  0  0  0  0  0  0  0  0  0
   18.4626  -20.6164  -14.4347 C   0  0  0  0  0  0  0  0  0  0  0  0
   17.8685  -19.5778  -14.8679 O   0  0  0  0  0  0  0  0  0  0  0  0
   22.4337  -18.2833  -16.0559 C   0  0  0  0  0  0  0  0  0  0  0  0
   22.2316  -17.1435  -15.5241 O   0  0  0  0  0  0  0  0  0  0  0  0
   17.7326  -21.6483  -13.8889 O   0  0  0  0  0  0  0  0  0  0  0  0
   23.1069  -18.2613  -17.3073 N   0  0  0  0  0  0  0  0  0  0  0  0
   23.6176  -17.0279  -17.8896 C   0  0  0  0  0  0  0  0  0  0  0  0
   22.6332  -16.4282  -18.8114 C   0  0  0  0  0  0  0  0  0  0  0  0
   21.5138  -16.9768  -18.9322 O   0  0  0  0  0  0  0  0  0  0  0  0
   22.9878  -15.2853  -19.5033 O   0  0  0  0  0  0  0  0  0  0  0  0
  2  1  1  6
  2  9  1  0
  3  4  1  0
  3  2  1  0
  4  5  2  0
  5  6  1  0
  7  6  1  0
  8  4  1  0
  8  7  2  0
  9 11  1  0
  9 10  2  0
 11 12  1  0
 12 17  1  0
 13 14  1  0
 12 13  1  1
 14 15  1  0
 15 16  2  0
 15 19  1  0
 17 18  2  0
 17 20  1  0
 20 21  1  0
 21 22  1  0
 22 24  1  0
 23 22  2  0
M  END
$$$$
