HEG.pdb
     RDKit          3D

 24 24  0  0  1  0  0  0  0  0999 V2000
   18.9473  -13.6086  -16.4909 N   0  0  0  0  0  0  0  0  0  0  0  0
   18.6322  -12.2533  -16.0771 C   0  0  1  0  0  0  0  0  0  0  0  0
   17.9150  -12.2971  -14.7742 C   0  0  0  0  0  0  0  0  0  0  0  0
   16.6057  -12.9815  -14.9064 C   0  0  0  0  0  0  0  0  0  0  0  0
   15.4760  -12.4805  -15.5065 C   0  0  0  0  0  0  0  0  0  0  0  0
   14.5384  -13.4250  -15.3990 N   0  0  0  0  0  0  0  0  0  0  0  0
   15.0293  -14.4956  -14.7585 C   0  0  0  0  0  0  0  0  0  0  0  0
   16.3259  -14.2062  -14.4546 N   0  0  0  0  0  0  0  0  0  0  0  0
   19.8186  -11.3862  -16.0536 C   0  0  0  0  0  0  0  0  0  0  0  0
   20.9191  -11.8834  -15.6919 O   0  0  0  0  0  0  0  0  0  0  0  0
   19.7292  -10.0227  -16.4329 N   0  0  0  0  0  0  0  0  0  0  0  0
   20.8712   -9.1621  -16.6231 C   0  0  1  0  0  0  0  0  0  0  0  0
   21.0222   -8.5358  -17.9656 C   0  0  0  0  0  0  0  0  0  0  0  0
   22.2117   -7.6546  -18.1705 C   0  0  0  0  0  0  0  0  0  0  0  0
   22.2450   -7.0602  -19.4950 C   0  0  0  0  0  0  0  0  0  0  0  0
   22.1153   -5.7999  -19.6137 O   0  0  0  0  0  0  0  0  0  0  0  0
   20.9300   -8.1522  -15.5633 C   0  0  0  0  0  0  0  0  0  0  0  0
   19.8845   -7.5101  -15.2204 O   0  0  0  0  0  0  0  0  0  0  0  0
   22.4127   -7.8422  -20.6156 O   0  0  0  0  0  0  0  0  0  0  0  0
   22.1134   -7.8142  -14.8527 N   0  0  0  0  0  0  0  0  0  0  0  0
   22.1123   -6.8477  -13.7633 C   0  0  0  0  0  0  0  0  0  0  0  0
   22.0341   -5.4667  -14.2784 C   0  0  0  0  0  0  0  0  0  0  0  0
   21.9704   -5.2920  -15.5169 O   0  0  0  0  0  0  0  0  0  0  0  0
   22.0342   -4.4231  -13.3719 O   0  0  0  0  0  0  0  0  0  0  0  0
  2  1  1  1
  2  9  1  0
  3  4  1  0
  3  2  1  0
  4  5  2  0
  5  6  1  0
  7  6  1  0
  8  4  1  0
  8  7  2  0
  9 11  1  0
  9 10  2  0
 11 12  1  0
 12 17  1  0
 13 14  1  0
 12 13  1  6
 14 15  1  0
 15 16  2  0
 15 19  1  0
 17 18  2  0
 17 20  1  0
 20 21  1  0
 21 22  1  0
 22 24  1  0
 23 22  2  0
M  END
$$$$
