HEG.pdb
     RDKit          3D

 24 24  0  0  1  0  0  0  0  0999 V2000
   20.6566  -13.3137  -16.6457 N   0  0  0  0  0  0  0  0  0  0  0  0
   20.0787  -11.9869  -16.5315 C   0  0  1  0  0  0  0  0  0  0  0  0
   18.7736  -12.0844  -15.8237 C   0  0  0  0  0  0  0  0  0  0  0  0
   17.7958  -12.8754  -16.6099 C   0  0  0  0  0  0  0  0  0  0  0  0
   17.6056  -14.2348  -16.5518 C   0  0  0  0  0  0  0  0  0  0  0  0
   16.6332  -14.5196  -17.4213 N   0  0  0  0  0  0  0  0  0  0  0  0
   16.2050  -13.4001  -18.0220 C   0  0  0  0  0  0  0  0  0  0  0  0
   16.9409  -12.3759  -17.5055 N   0  0  0  0  0  0  0  0  0  0  0  0
   21.0018  -11.0271  -15.9098 C   0  0  0  0  0  0  0  0  0  0  0  0
   21.6723  -11.3998  -14.9095 O   0  0  0  0  0  0  0  0  0  0  0  0
   21.1388   -9.7131  -16.4252 N   0  0  0  0  0  0  0  0  0  0  0  0
   22.0883   -8.7472  -15.9287 C   0  0  1  0  0  0  0  0  0  0  0  0
   23.3383   -8.5692  -16.7182 C   0  0  0  0  0  0  0  0  0  0  0  0
   24.3555   -7.6221  -16.1690 C   0  0  0  0  0  0  0  0  0  0  0  0
   25.5417   -7.5317  -17.0018 C   0  0  0  0  0  0  0  0  0  0  0  0
   25.4148   -7.2409  -18.2341 O   0  0  0  0  0  0  0  0  0  0  0  0
   21.4291   -7.4602  -15.6924 C   0  0  0  0  0  0  0  0  0  0  0  0
   20.7601   -6.8946  -16.6173 O   0  0  0  0  0  0  0  0  0  0  0  0
   26.7933   -7.7578  -16.4745 O   0  0  0  0  0  0  0  0  0  0  0  0
   21.4770   -6.7580  -14.4578 N   0  0  0  0  0  0  0  0  0  0  0  0
   20.8208   -5.4708  -14.2739 C   0  0  0  0  0  0  0  0  0  0  0  0
   21.5854   -4.3874  -14.9222 C   0  0  0  0  0  0  0  0  0  0  0  0
   22.6524   -4.6763  -15.5108 O   0  0  0  0  0  0  0  0  0  0  0  0
   21.0915   -3.0982  -14.8526 O   0  0  0  0  0  0  0  0  0  0  0  0
  2  1  1  1
  2  9  1  0
  3  4  1  0
  3  2  1  0
  4  5  2  0
  5  6  1  0
  7  6  1  0
  8  4  1  0
  8  7  2  0
  9 11  1  0
  9 10  2  0
 11 12  1  0
 12 17  1  0
 13 14  1  0
 12 13  1  6
 14 15  1  0
 15 16  2  0
 15 19  1  0
 17 18  2  0
 17 20  1  0
 20 21  1  0
 21 22  1  0
 22 24  1  0
 23 22  2  0
M  END
$$$$
