HEG.pdb
     RDKit          3D

 24 24  0  0  1  0  0  0  0  0999 V2000
   23.7214  -12.3143  -16.7877 N   0  0  0  0  0  0  0  0  0  0  0  0
   24.2775  -11.0843  -16.2536 C   0  0  1  0  0  0  0  0  0  0  0  0
   25.6560  -10.9037  -16.7837 C   0  0  0  0  0  0  0  0  0  0  0  0
   26.5007  -12.0879  -16.4939 C   0  0  0  0  0  0  0  0  0  0  0  0
   26.2083  -13.1099  -15.6235 C   0  0  0  0  0  0  0  0  0  0  0  0
   27.2383  -13.9580  -15.6742 N   0  0  0  0  0  0  0  0  0  0  0  0
   28.1633  -13.5140  -16.5370 C   0  0  0  0  0  0  0  0  0  0  0  0
   27.6902  -12.3411  -17.0447 N   0  0  0  0  0  0  0  0  0  0  0  0
   23.4084   -9.9251  -16.4997 C   0  0  0  0  0  0  0  0  0  0  0  0
   22.2517  -10.1279  -16.9578 O   0  0  0  0  0  0  0  0  0  0  0  0
   23.8583   -8.6087  -16.2244 N   0  0  0  0  0  0  0  0  0  0  0  0
   23.0042   -7.4462  -16.2341 C   0  0  1  0  0  0  0  0  0  0  0  0
   21.8028   -7.4899  -15.3555 C   0  0  0  0  0  0  0  0  0  0  0  0
   20.8761   -6.3192  -15.4188 C   0  0  0  0  0  0  0  0  0  0  0  0
   19.7546   -6.4444  -14.5049 C   0  0  0  0  0  0  0  0  0  0  0  0
   19.8524   -5.9616  -13.3317 O   0  0  0  0  0  0  0  0  0  0  0  0
   23.7904   -6.2346  -15.9881 C   0  0  0  0  0  0  0  0  0  0  0  0
   24.4478   -6.0966  -14.9056 O   0  0  0  0  0  0  0  0  0  0  0  0
   18.5952   -7.0776  -14.8929 O   0  0  0  0  0  0  0  0  0  0  0  0
   23.8844   -5.1496  -16.9010 N   0  0  0  0  0  0  0  0  0  0  0  0
   24.7000   -3.9748  -16.6252 C   0  0  0  0  0  0  0  0  0  0  0  0
   24.7521   -3.0776  -17.7960 C   0  0  0  0  0  0  0  0  0  0  0  0
   24.1639   -3.4268  -18.8451 O   0  0  0  0  0  0  0  0  0  0  0  0
   25.4485   -1.8886  -17.6858 O   0  0  0  0  0  0  0  0  0  0  0  0
  2  1  1  6
  2  9  1  0
  3  4  1  0
  3  2  1  0
  4  5  2  0
  5  6  1  0
  7  6  1  0
  8  4  1  0
  8  7  2  0
  9 11  1  0
  9 10  2  0
 11 12  1  0
 12 17  1  0
 13 14  1  0
 12 13  1  1
 14 15  1  0
 15 16  2  0
 15 19  1  0
 17 18  2  0
 17 20  1  0
 20 21  1  0
 21 22  1  0
 22 24  1  0
 23 22  2  0
M  END
$$$$
