HEG.pdb
     RDKit          3D

 24 24  0  0  1  0  0  0  0  0999 V2000
   23.5983  -10.1640  -16.1680 N   0  0  0  0  0  0  0  0  0  0  0  0
   24.2133   -9.4954  -15.0357 C   0  0  1  0  0  0  0  0  0  0  0  0
   25.5933   -9.0810  -15.4067 C   0  0  0  0  0  0  0  0  0  0  0  0
   26.4226  -10.2530  -15.7789 C   0  0  0  0  0  0  0  0  0  0  0  0
   25.9971  -11.5540  -15.8958 C   0  0  0  0  0  0  0  0  0  0  0  0
   27.0660  -12.2728  -16.2475 N   0  0  0  0  0  0  0  0  0  0  0  0
   28.1425  -11.4812  -16.3563 C   0  0  0  0  0  0  0  0  0  0  0  0
   27.7272  -10.2174  -16.0603 N   0  0  0  0  0  0  0  0  0  0  0  0
   23.3939   -8.3851  -14.5300 C   0  0  0  0  0  0  0  0  0  0  0  0
   23.8060   -7.7425  -13.5269 O   0  0  0  0  0  0  0  0  0  0  0  0
   22.1697   -8.0413  -15.1579 N   0  0  0  0  0  0  0  0  0  0  0  0
   21.2928   -6.9933  -14.6956 C   0  0  1  0  0  0  0  0  0  0  0  0
   21.2299   -5.7579  -15.5246 C   0  0  0  0  0  0  0  0  0  0  0  0
   22.3938   -4.8247  -15.4365 C   0  0  0  0  0  0  0  0  0  0  0  0
   22.0929   -3.5051  -15.9625 C   0  0  0  0  0  0  0  0  0  0  0  0
   20.9328   -3.2728  -16.4309 O   0  0  0  0  0  0  0  0  0  0  0  0
   19.9512   -7.5257  -14.4444 C   0  0  0  0  0  0  0  0  0  0  0  0
   19.0551   -6.7981  -13.9053 O   0  0  0  0  0  0  0  0  0  0  0  0
   23.0450   -2.5105  -15.9607 O   0  0  0  0  0  0  0  0  0  0  0  0
   19.5484   -8.8495  -14.7681 N   0  0  0  0  0  0  0  0  0  0  0  0
   18.1820   -9.3129  -14.5694 C   0  0  0  0  0  0  0  0  0  0  0  0
   17.3650   -9.0917  -15.7786 C   0  0  0  0  0  0  0  0  0  0  0  0
   17.8659   -8.4513  -16.7312 O   0  0  0  0  0  0  0  0  0  0  0  0
   16.0803   -9.6009  -15.8093 O   0  0  0  0  0  0  0  0  0  0  0  0
  2  1  1  6
  2  9  1  0
  3  4  1  0
  3  2  1  0
  4  5  2  0
  5  6  1  0
  7  6  1  0
  8  4  1  0
  8  7  2  0
  9 11  1  0
  9 10  2  0
 11 12  1  0
 12 17  1  0
 13 14  1  0
 12 13  1  6
 14 15  1  0
 15 16  2  0
 15 19  1  0
 17 18  2  0
 17 20  1  0
 20 21  1  0
 21 22  1  0
 22 24  1  0
 23 22  2  0
M  END
$$$$
