HEG.pdb
     RDKit          3D

 24 24  0  0  1  0  0  0  0  0999 V2000
   26.6610  -22.2601  -16.0436 N   0  0  0  0  0  0  0  0  0  0  0  0
   27.3918  -21.0074  -16.1075 C   0  0  1  0  0  0  0  0  0  0  0  0
   28.0404  -20.8906  -17.4415 C   0  0  0  0  0  0  0  0  0  0  0  0
   28.8542  -22.0921  -17.7484 C   0  0  0  0  0  0  0  0  0  0  0  0
   29.6817  -22.7645  -16.8821 C   0  0  0  0  0  0  0  0  0  0  0  0
   30.2122  -23.7767  -17.5726 N   0  0  0  0  0  0  0  0  0  0  0  0
   29.7548  -23.7692  -18.8328 C   0  0  0  0  0  0  0  0  0  0  0  0
   28.9043  -22.7089  -18.9314 N   0  0  0  0  0  0  0  0  0  0  0  0
   26.5488  -19.8511  -15.7728 C   0  0  0  0  0  0  0  0  0  0  0  0
   26.9943  -18.6952  -16.0055 O   0  0  0  0  0  0  0  0  0  0  0  0
   25.2618  -20.0309  -15.2048 N   0  0  0  0  0  0  0  0  0  0  0  0
   24.3265  -18.9577  -14.9712 C   0  0  1  0  0  0  0  0  0  0  0  0
   23.9837  -18.1012  -16.1400 C   0  0  0  0  0  0  0  0  0  0  0  0
   23.2365  -18.7518  -17.2588 C   0  0  0  0  0  0  0  0  0  0  0  0
   22.1207  -17.9489  -17.7267 C   0  0  0  0  0  0  0  0  0  0  0  0
   21.4276  -18.3619  -18.7107 O   0  0  0  0  0  0  0  0  0  0  0  0
   23.1165  -19.4690  -14.3224 C   0  0  0  0  0  0  0  0  0  0  0  0
   22.2839  -18.6708  -13.7815 O   0  0  0  0  0  0  0  0  0  0  0  0
   21.8089  -16.7525  -17.1207 O   0  0  0  0  0  0  0  0  0  0  0  0
   22.7793  -20.8473  -14.2434 N   0  0  0  0  0  0  0  0  0  0  0  0
   21.9753  -21.3859  -13.1550 C   0  0  0  0  0  0  0  0  0  0  0  0
   20.5370  -21.3369  -13.4825 C   0  0  0  0  0  0  0  0  0  0  0  0
   20.1924  -20.8985  -14.6040 O   0  0  0  0  0  0  0  0  0  0  0  0
   19.6295  -21.7772  -12.5373 O   0  0  0  0  0  0  0  0  0  0  0  0
  2  1  1  6
  2  9  1  0
  3  4  1  0
  3  2  1  0
  4  5  2  0
  5  6  1  0
  7  6  1  0
  8  4  1  0
  8  7  2  0
  9 11  1  0
  9 10  2  0
 11 12  1  0
 12 17  1  0
 13 14  1  0
 12 13  1  6
 14 15  1  0
 15 16  2  0
 15 19  1  0
 17 18  2  0
 17 20  1  0
 20 21  1  0
 21 22  1  0
 22 24  1  0
 23 22  2  0
M  END
$$$$
