HEG.pdb
     RDKit          3D

 24 24  0  0  1  0  0  0  0  0999 V2000
   18.7735  -13.6978  -16.9312 N   0  0  0  0  0  0  0  0  0  0  0  0
   18.7482  -12.5727  -16.0142 C   0  0  1  0  0  0  0  0  0  0  0  0
   18.8323  -13.0812  -14.6184 C   0  0  0  0  0  0  0  0  0  0  0  0
   17.6210  -13.8573  -14.2573 C   0  0  0  0  0  0  0  0  0  0  0  0
   16.3667  -13.7187  -14.8005 C   0  0  0  0  0  0  0  0  0  0  0  0
   15.5863  -14.6111  -14.1862 N   0  0  0  0  0  0  0  0  0  0  0  0
   16.2947  -15.3030  -13.2823 C   0  0  0  0  0  0  0  0  0  0  0  0
   17.5686  -14.8219  -13.3358 N   0  0  0  0  0  0  0  0  0  0  0  0
   19.7795  -11.5736  -16.3273 C   0  0  0  0  0  0  0  0  0  0  0  0
   20.9009  -11.9762  -16.7387 O   0  0  0  0  0  0  0  0  0  0  0  0
   19.5185  -10.1881  -16.1745 N   0  0  0  0  0  0  0  0  0  0  0  0
   20.4659   -9.1488  -16.4959 C   0  0  1  0  0  0  0  0  0  0  0  0
   20.1453   -8.2891  -17.6687 C   0  0  0  0  0  0  0  0  0  0  0  0
   19.8929   -8.9841  -18.9674 C   0  0  0  0  0  0  0  0  0  0  0  0
   19.0303   -8.2203  -19.8513 C   0  0  0  0  0  0  0  0  0  0  0  0
   18.6980   -7.0363  -19.5244 O   0  0  0  0  0  0  0  0  0  0  0  0
   20.7509   -8.3353  -15.3111 C   0  0  0  0  0  0  0  0  0  0  0  0
   19.8145   -7.9958  -14.5169 O   0  0  0  0  0  0  0  0  0  0  0  0
   18.5707   -8.7622  -21.0306 O   0  0  0  0  0  0  0  0  0  0  0  0
   22.0473   -7.8721  -14.9586 N   0  0  0  0  0  0  0  0  0  0  0  0
   22.3012   -7.1537  -13.7174 C   0  0  0  0  0  0  0  0  0  0  0  0
   21.8753   -5.7444  -13.8227 C   0  0  0  0  0  0  0  0  0  0  0  0
   21.3794   -5.3474  -14.9021 O   0  0  0  0  0  0  0  0  0  0  0  0
   22.0415   -4.9209  -12.7250 O   0  0  0  0  0  0  0  0  0  0  0  0
  2  1  1  6
  2  9  1  0
  3  4  1  0
  3  2  1  0
  4  5  2  0
  5  6  1  0
  7  6  1  0
  8  4  1  0
  8  7  2  0
  9 11  1  0
  9 10  2  0
 11 12  1  0
 12 17  1  0
 13 14  1  0
 12 13  1  6
 14 15  1  0
 15 16  2  0
 15 19  1  0
 17 18  2  0
 17 20  1  0
 20 21  1  0
 21 22  1  0
 22 24  1  0
 23 22  2  0
M  END
$$$$
