HEG.pdb
     RDKit          3D

 24 24  0  0  1  0  0  0  0  0999 V2000
   17.6110   -9.3679  -19.9951 N   0  0  0  0  0  0  0  0  0  0  0  0
   18.1596   -8.1081  -19.5267 C   0  0  1  0  0  0  0  0  0  0  0  0
   17.7720   -7.0273  -20.4730 C   0  0  0  0  0  0  0  0  0  0  0  0
   18.2553   -7.3178  -21.8448 C   0  0  0  0  0  0  0  0  0  0  0  0
   19.5647   -7.3870  -22.2549 C   0  0  0  0  0  0  0  0  0  0  0  0
   19.5395   -7.6707  -23.5594 N   0  0  0  0  0  0  0  0  0  0  0  0
   18.2733   -7.7824  -23.9858 C   0  0  0  0  0  0  0  0  0  0  0  0
   17.4771   -7.5592  -22.9024 N   0  0  0  0  0  0  0  0  0  0  0  0
   17.7850   -7.8185  -18.1354 C   0  0  0  0  0  0  0  0  0  0  0  0
   16.5618   -7.7006  -17.8546 O   0  0  0  0  0  0  0  0  0  0  0  0
   18.7759   -7.6790  -17.1306 N   0  0  0  0  0  0  0  0  0  0  0  0
   18.4876   -7.3698  -15.7513 C   0  0  1  0  0  0  0  0  0  0  0  0
   18.5061   -8.5081  -14.7914 C   0  0  0  0  0  0  0  0  0  0  0  0
   17.4256   -9.5306  -14.9344 C   0  0  0  0  0  0  0  0  0  0  0  0
   17.5900  -10.6483  -14.0221 C   0  0  0  0  0  0  0  0  0  0  0  0
   17.9545  -10.4238  -12.8238 O   0  0  0  0  0  0  0  0  0  0  0  0
   19.3436   -6.2761  -15.2850 C   0  0  0  0  0  0  0  0  0  0  0  0
   19.1393   -5.7304  -14.1521 O   0  0  0  0  0  0  0  0  0  0  0  0
   17.3584  -11.9398  -14.4392 O   0  0  0  0  0  0  0  0  0  0  0  0
   20.4346   -5.7491  -16.0277 N   0  0  0  0  0  0  0  0  0  0  0  0
   21.2454   -4.6448  -15.5334 C   0  0  0  0  0  0  0  0  0  0  0  0
   21.8785   -4.9859  -14.2445 C   0  0  0  0  0  0  0  0  0  0  0  0
   21.6885   -6.1282  -13.7674 O   0  0  0  0  0  0  0  0  0  0  0  0
   22.6552   -4.0299  -13.6172 O   0  0  0  0  0  0  0  0  0  0  0  0
  2  1  1  6
  2  9  1  0
  3  4  1  0
  3  2  1  0
  4  5  2  0
  5  6  1  0
  7  6  1  0
  8  4  1  0
  8  7  2  0
  9 11  1  0
  9 10  2  0
 11 12  1  0
 12 17  1  0
 13 14  1  0
 12 13  1  1
 14 15  1  0
 15 16  2  0
 15 19  1  0
 17 18  2  0
 17 20  1  0
 20 21  1  0
 21 22  1  0
 22 24  1  0
 23 22  2  0
M  END
$$$$
