HEG.pdb
     RDKit          3D

 24 24  0  0  1  0  0  0  0  0999 V2000
   23.9669  -12.6932  -17.7934 N   0  0  0  0  0  0  0  0  0  0  0  0
   23.8834  -11.9558  -16.5458 C   0  0  1  0  0  0  0  0  0  0  0  0
   25.2486  -11.8170  -15.9708 C   0  0  0  0  0  0  0  0  0  0  0  0
   25.8611  -13.1442  -15.7189 C   0  0  0  0  0  0  0  0  0  0  0  0
   25.2958  -14.3697  -15.9760 C   0  0  0  0  0  0  0  0  0  0  0  0
   26.1897  -15.2868  -15.5982 N   0  0  0  0  0  0  0  0  0  0  0  0
   27.2899  -14.6916  -15.1158 C   0  0  0  0  0  0  0  0  0  0  0  0
   27.0725  -13.3486  -15.1964 N   0  0  0  0  0  0  0  0  0  0  0  0
   23.1900  -10.6695  -16.7025 C   0  0  0  0  0  0  0  0  0  0  0  0
   23.3005  -10.0569  -17.7986 O   0  0  0  0  0  0  0  0  0  0  0  0
   22.4109  -10.1312  -15.6469 N   0  0  0  0  0  0  0  0  0  0  0  0
   21.5928   -8.9494  -15.7701 C   0  0  1  0  0  0  0  0  0  0  0  0
   20.1225   -9.1601  -15.8752 C   0  0  0  0  0  0  0  0  0  0  0  0
   19.6386   -9.9894  -17.0204 C   0  0  0  0  0  0  0  0  0  0  0  0
   18.4442  -10.7486  -16.6949 C   0  0  0  0  0  0  0  0  0  0  0  0
   17.4221  -10.1369  -16.2474 O   0  0  0  0  0  0  0  0  0  0  0  0
   21.9115   -7.9960  -14.7042 C   0  0  0  0  0  0  0  0  0  0  0  0
   22.2319   -8.4063  -13.5415 O   0  0  0  0  0  0  0  0  0  0  0  0
   18.4084  -12.1146  -16.8634 O   0  0  0  0  0  0  0  0  0  0  0  0
   21.8917   -6.5846  -14.8687 N   0  0  0  0  0  0  0  0  0  0  0  0
   22.1984   -5.6738  -13.7744 C   0  0  0  0  0  0  0  0  0  0  0  0
   22.1349   -4.2680  -14.2197 C   0  0  0  0  0  0  0  0  0  0  0  0
   21.8771   -4.0316  -15.4223 O   0  0  0  0  0  0  0  0  0  0  0  0
   22.3627   -3.2704  -13.2904 O   0  0  0  0  0  0  0  0  0  0  0  0
  2  1  1  6
  2  9  1  0
  3  4  1  0
  3  2  1  0
  4  5  2  0
  5  6  1  0
  7  6  1  0
  8  4  1  0
  8  7  2  0
  9 11  1  0
  9 10  2  0
 11 12  1  0
 12 17  1  0
 13 14  1  0
 12 13  1  1
 14 15  1  0
 15 16  2  0
 15 19  1  0
 17 18  2  0
 17 20  1  0
 20 21  1  0
 21 22  1  0
 22 24  1  0
 23 22  2  0
M  END
$$$$
