HEG.pdb
     RDKit          3D

 24 24  0  0  1  0  0  0  0  0999 V2000
   24.2674  -13.4474  -17.7222 N   0  0  0  0  0  0  0  0  0  0  0  0
   24.0261  -12.7958  -16.4476 C   0  0  1  0  0  0  0  0  0  0  0  0
   25.2804  -12.8136  -15.6474 C   0  0  0  0  0  0  0  0  0  0  0  0
   25.7724  -14.1993  -15.4535 C   0  0  0  0  0  0  0  0  0  0  0  0
   25.2214  -15.3449  -15.9746 C   0  0  0  0  0  0  0  0  0  0  0  0
   25.9798  -16.3583  -15.5493 N   0  0  0  0  0  0  0  0  0  0  0  0
   26.9813  -15.8997  -14.7850 C   0  0  0  0  0  0  0  0  0  0  0  0
   26.8411  -14.5452  -14.7321 N   0  0  0  0  0  0  0  0  0  0  0  0
   23.4628  -11.4478  -16.6072 C   0  0  0  0  0  0  0  0  0  0  0  0
   23.9291  -10.7049  -17.5125 O   0  0  0  0  0  0  0  0  0  0  0  0
   22.4157  -10.9941  -15.7652 N   0  0  0  0  0  0  0  0  0  0  0  0
   21.6833   -9.7696  -15.9779 C   0  0  1  0  0  0  0  0  0  0  0  0
   20.2365   -9.9022  -16.3044 C   0  0  0  0  0  0  0  0  0  0  0  0
   19.8916  -10.6300  -17.5632 C   0  0  0  0  0  0  0  0  0  0  0  0
   18.9206  -11.6882  -17.3485 C   0  0  0  0  0  0  0  0  0  0  0  0
   17.8752  -11.4429  -16.6657 O   0  0  0  0  0  0  0  0  0  0  0  0
   21.8855   -8.8533  -14.8527 C   0  0  0  0  0  0  0  0  0  0  0  0
   22.0018   -9.2999  -13.6653 O   0  0  0  0  0  0  0  0  0  0  0  0
   19.1200  -12.9460  -17.8718 O   0  0  0  0  0  0  0  0  0  0  0  0
   21.9664   -7.4405  -14.9833 N   0  0  0  0  0  0  0  0  0  0  0  0
   22.0879   -6.5624  -13.8278 C   0  0  0  0  0  0  0  0  0  0  0  0
   22.0044   -5.1440  -14.2274 C   0  0  0  0  0  0  0  0  0  0  0  0
   21.9265   -4.8686  -15.4467 O   0  0  0  0  0  0  0  0  0  0  0  0
   22.0158   -4.1780  -13.2388 O   0  0  0  0  0  0  0  0  0  0  0  0
  2  1  1  6
  2  9  1  0
  3  4  1  0
  3  2  1  0
  4  5  2  0
  5  6  1  0
  7  6  1  0
  8  4  1  0
  8  7  2  0
  9 11  1  0
  9 10  2  0
 11 12  1  0
 12 17  1  0
 13 14  1  0
 12 13  1  1
 14 15  1  0
 15 16  2  0
 15 19  1  0
 17 18  2  0
 17 20  1  0
 20 21  1  0
 21 22  1  0
 22 24  1  0
 23 22  2  0
M  END
$$$$
