SMS.pdb
     RDKit          3D

 21 20  0  0  1  0  0  0  0  0999 V2000
    7.6088  -18.3934   19.5630 O   0  0  0  0  0  0  0  0  0  0  0  0
    7.0011  -17.3703   20.2447 C   0  0  0  0  0  0  0  0  0  0  0  0
    7.6563  -16.0250   20.0553 C   0  0  2  0  0  0  0  0  0  0  0  0
    8.6242  -16.1736   18.9933 N   0  0  0  0  0  0  0  0  0  0  0  0
    8.2933  -15.5261   21.2980 C   0  0  0  0  0  0  0  0  0  0  0  0
    9.5320  -15.5770   21.3858 O   0  0  0  0  0  0  0  0  0  0  0  0
    7.2777  -11.4886   28.0636 C   0  0  0  0  0  0  0  0  0  0  0  0
    6.4548  -12.1979   26.6034 S   0  0  0  0  0  0  0  0  0  0  0  0
    7.6570  -13.3086   25.7722 C   0  0  0  0  0  0  0  0  0  0  0  0
    7.0923  -13.7656   24.4678 C   0  0  0  0  0  0  0  0  0  0  0  0
    8.0467  -14.6286   23.6567 C   0  0  2  0  0  0  0  0  0  0  0  0
    7.5313  -15.0053   22.3598 N   0  0  0  0  0  0  0  0  0  0  0  0
    8.3593  -15.8313   24.4509 C   0  0  0  0  0  0  0  0  0  0  0  0
    7.5391  -16.7359   24.7071 O   0  0  0  0  0  0  0  0  0  0  0  0
   12.3170  -16.8443   24.9029 O   0  0  0  0  0  0  0  0  0  0  0  0
   11.3334  -17.8126   25.0569 C   0  0  0  0  0  0  0  0  0  0  0  0
   10.0695  -17.2039   25.6592 C   0  0  2  0  0  0  0  0  0  0  0  0
    9.6874  -16.0018   24.9782 N   0  0  0  0  0  0  0  0  0  0  0  0
   10.2680  -17.0010   27.1007 C   0  0  0  0  0  0  0  0  0  0  0  0
   10.6610  -18.0211   27.9340 O   0  0  0  0  0  0  0  0  0  0  0  0
   10.0803  -15.8688   27.6198 O   0  0  0  0  0  0  0  0  0  0  0  0
  2  3  1  0
  2  1  1  0
  3  4  1  6
  3  5  1  0
  5  6  2  0
  7  8  1  0
  9  8  1  0
 11 10  1  1
 10  9  1  0
 11 13  1  0
 12  5  1  0
 12 11  1  0
 13 14  2  0
 15 16  1  0
 17 16  1  6
 17 19  1  0
 18 17  1  0
 18 13  1  0
 19 20  1  0
 21 19  2  0
M  END
$$$$
