SMS.pdb
     RDKit          3D

 21 20  0  0  1  0  0  0  0  0999 V2000
    8.3536  -18.7325   21.4949 O   0  0  0  0  0  0  0  0  0  0  0  0
    7.3064  -18.0238   20.9642 C   0  0  0  0  0  0  0  0  0  0  0  0
    7.6369  -16.5919   20.6241 C   0  0  2  0  0  0  0  0  0  0  0  0
    8.5011  -16.6224   19.4670 N   0  0  0  0  0  0  0  0  0  0  0  0
    8.2761  -15.8752   21.7542 C   0  0  0  0  0  0  0  0  0  0  0  0
    9.4984  -15.6579   21.6973 O   0  0  0  0  0  0  0  0  0  0  0  0
    7.0997  -11.3194   28.1508 C   0  0  0  0  0  0  0  0  0  0  0  0
    6.3224  -12.2759   26.8116 S   0  0  0  0  0  0  0  0  0  0  0  0
    7.6456  -13.2286   25.9682 C   0  0  0  0  0  0  0  0  0  0  0  0
    7.0573  -13.9982   24.8321 C   0  0  0  0  0  0  0  0  0  0  0  0
    8.0796  -14.8020   24.0431 C   0  0  2  0  0  0  0  0  0  0  0  0
    7.5338  -15.4452   22.8693 N   0  0  0  0  0  0  0  0  0  0  0  0
    8.6662  -15.8065   24.9495 C   0  0  0  0  0  0  0  0  0  0  0  0
    8.0334  -16.7629   25.4411 O   0  0  0  0  0  0  0  0  0  0  0  0
   12.8125  -15.6868   25.6473 O   0  0  0  0  0  0  0  0  0  0  0  0
   12.1510  -16.9063   25.7112 C   0  0  0  0  0  0  0  0  0  0  0  0
   10.6921  -16.7061   26.1139 C   0  0  2  0  0  0  0  0  0  0  0  0
   10.0559  -15.7048   25.3092 N   0  0  0  0  0  0  0  0  0  0  0  0
   10.6218  -16.4085   27.5508 C   0  0  0  0  0  0  0  0  0  0  0  0
   11.1636  -17.2457   28.4969 O   0  0  0  0  0  0  0  0  0  0  0  0
   10.0540  -15.3616   27.9608 O   0  0  0  0  0  0  0  0  0  0  0  0
  2  3  1  0
  2  1  1  0
  3  4  1  6
  3  5  1  0
  5  6  2  0
  7  8  1  0
  9  8  1  0
 11 10  1  1
 10  9  1  0
 11 13  1  0
 12  5  1  0
 12 11  1  0
 13 14  2  0
 15 16  1  0
 17 16  1  6
 17 19  1  0
 18 17  1  0
 18 13  1  0
 19 20  1  0
 21 19  2  0
M  END
$$$$
