SMS.pdb
     RDKit          3D

 21 20  0  0  1  0  0  0  0  0999 V2000
    8.0486  -18.0691   20.5052 O   0  0  0  0  0  0  0  0  0  0  0  0
    7.0694  -17.1757   20.1534 C   0  0  0  0  0  0  0  0  0  0  0  0
    7.4948  -15.7304   20.2261 C   0  0  2  0  0  0  0  0  0  0  0  0
    8.3913  -15.4989   19.1173 N   0  0  0  0  0  0  0  0  0  0  0  0
    8.1397  -15.3949   21.5187 C   0  0  0  0  0  0  0  0  0  0  0  0
    9.3798  -15.3222   21.5562 O   0  0  0  0  0  0  0  0  0  0  0  0
    7.8041  -11.3826   27.9596 C   0  0  0  0  0  0  0  0  0  0  0  0
    7.0296  -11.9566   26.4159 S   0  0  0  0  0  0  0  0  0  0  0  0
    7.4372  -13.7354   26.2171 C   0  0  0  0  0  0  0  0  0  0  0  0
    6.8705  -14.2346   24.9291 C   0  0  0  0  0  0  0  0  0  0  0  0
    7.9188  -14.7709   23.9663 C   0  0  2  0  0  0  0  0  0  0  0  0
    7.3835  -15.1618   22.6818 N   0  0  0  0  0  0  0  0  0  0  0  0
    8.5854  -15.9171   24.6119 C   0  0  0  0  0  0  0  0  0  0  0  0
    8.0111  -16.9816   24.9181 O   0  0  0  0  0  0  0  0  0  0  0  0
   12.7338  -15.6829   25.5025 O   0  0  0  0  0  0  0  0  0  0  0  0
   12.1959  -16.8835   25.0576 C   0  0  0  0  0  0  0  0  0  0  0  0
   10.7125  -16.9707   25.4081 C   0  0  2  0  0  0  0  0  0  0  0  0
    9.9883  -15.8335   24.9213 N   0  0  0  0  0  0  0  0  0  0  0  0
   10.5667  -17.1584   26.8579 C   0  0  0  0  0  0  0  0  0  0  0  0
   11.2082  -18.1709   27.5309 O   0  0  0  0  0  0  0  0  0  0  0  0
    9.8384  -16.3842   27.5337 O   0  0  0  0  0  0  0  0  0  0  0  0
  2  3  1  0
  2  1  1  0
  3  4  1  6
  3  5  1  0
  5  6  2  0
  7  8  1  0
  9  8  1  0
 11 10  1  1
 10  9  1  0
 11 13  1  0
 12  5  1  0
 12 11  1  0
 13 14  2  0
 15 16  1  0
 17 16  1  1
 17 19  1  0
 18 17  1  0
 18 13  1  0
 19 20  1  0
 21 19  2  0
M  END
$$$$
