SMS.pdb
     RDKit          3D

 21 20  0  0  1  0  0  0  0  0999 V2000
    6.9734  -18.3780   19.2097 O   0  0  0  0  0  0  0  0  0  0  0  0
    7.7337  -17.8273   20.2093 C   0  0  0  0  0  0  0  0  0  0  0  0
    7.9141  -16.3339   20.0988 C   0  0  2  0  0  0  0  0  0  0  0  0
    8.7371  -16.0938   18.9362 N   0  0  0  0  0  0  0  0  0  0  0  0
    8.5201  -15.7456   21.3178 C   0  0  0  0  0  0  0  0  0  0  0  0
    9.7596  -15.7018   21.3964 O   0  0  0  0  0  0  0  0  0  0  0  0
    7.0847  -11.9051   28.1623 C   0  0  0  0  0  0  0  0  0  0  0  0
    6.3846  -12.5490   26.6107 S   0  0  0  0  0  0  0  0  0  0  0  0
    7.7010  -13.5055   25.7612 C   0  0  0  0  0  0  0  0  0  0  0  0
    7.1995  -13.9720   24.4345 C   0  0  0  0  0  0  0  0  0  0  0  0
    8.2242  -14.7642   23.6370 C   0  0  2  0  0  0  0  0  0  0  0  0
    7.7281  -15.2452   22.3674 N   0  0  0  0  0  0  0  0  0  0  0  0
    8.6746  -15.8943   24.4706 C   0  0  0  0  0  0  0  0  0  0  0  0
    7.9676  -16.8823   24.7547 O   0  0  0  0  0  0  0  0  0  0  0  0
   12.1248  -17.3455   24.0552 O   0  0  0  0  0  0  0  0  0  0  0  0
   11.9532  -17.3143   25.4330 C   0  0  0  0  0  0  0  0  0  0  0  0
   10.5058  -16.9817   25.7871 C   0  0  2  0  0  0  0  0  0  0  0  0
   10.0105  -15.8868   25.0056 N   0  0  0  0  0  0  0  0  0  0  0  0
   10.4032  -16.7396   27.2325 C   0  0  0  0  0  0  0  0  0  0  0  0
   10.7989  -17.6746   28.1590 O   0  0  0  0  0  0  0  0  0  0  0  0
    9.9424  -15.6513   27.6683 O   0  0  0  0  0  0  0  0  0  0  0  0
  2  3  1  0
  2  1  1  0
  3  4  1  6
  3  5  1  0
  5  6  2  0
  7  8  1  0
  9  8  1  0
 11 10  1  1
 10  9  1  0
 11 13  1  0
 12  5  1  0
 12 11  1  0
 13 14  2  0
 15 16  1  0
 17 16  1  6
 17 19  1  0
 18 17  1  0
 18 13  1  0
 19 20  1  0
 21 19  2  0
M  END
$$$$
