SMS.pdb
     RDKit          3D

 21 20  0  0  1  0  0  0  0  0999 V2000
    7.6393  -18.3302   20.8637 O   0  0  0  0  0  0  0  0  0  0  0  0
    6.8598  -17.3155   20.3703 C   0  0  0  0  0  0  0  0  0  0  0  0
    7.5801  -15.9988   20.2193 C   0  0  2  0  0  0  0  0  0  0  0  0
    8.5383  -16.1628   19.1509 N   0  0  0  0  0  0  0  0  0  0  0  0
    8.2424  -15.5692   21.4747 C   0  0  0  0  0  0  0  0  0  0  0  0
    9.4707  -15.7287   21.5765 O   0  0  0  0  0  0  0  0  0  0  0  0
    7.3252  -11.5777   28.3107 C   0  0  0  0  0  0  0  0  0  0  0  0
    6.5156  -12.1948   26.8020 S   0  0  0  0  0  0  0  0  0  0  0  0
    7.7069  -13.2948   25.9417 C   0  0  0  0  0  0  0  0  0  0  0  0
    7.1221  -13.7425   24.6429 C   0  0  0  0  0  0  0  0  0  0  0  0
    8.0637  -14.5994   23.8107 C   0  0  2  0  0  0  0  0  0  0  0  0
    7.5152  -14.9942   22.5330 N   0  0  0  0  0  0  0  0  0  0  0  0
    8.4163  -15.7908   24.6051 C   0  0  0  0  0  0  0  0  0  0  0  0
    7.6339  -16.7336   24.8415 O   0  0  0  0  0  0  0  0  0  0  0  0
   11.5999  -17.6991   24.0566 O   0  0  0  0  0  0  0  0  0  0  0  0
   11.5457  -17.5340   25.4345 C   0  0  0  0  0  0  0  0  0  0  0  0
   10.1544  -17.0777   25.8669 C   0  0  2  0  0  0  0  0  0  0  0  0
    9.7407  -15.9032   25.1568 N   0  0  0  0  0  0  0  0  0  0  0  0
   10.1345  -16.8961   27.3247 C   0  0  0  0  0  0  0  0  0  0  0  0
   10.3787  -17.9336   28.1928 O   0  0  0  0  0  0  0  0  0  0  0  0
    9.8893  -15.7669   27.8260 O   0  0  0  0  0  0  0  0  0  0  0  0
  2  3  1  0
  2  1  1  0
  3  4  1  6
  3  5  1  0
  5  6  2  0
  7  8  1  0
  9  8  1  0
 11 10  1  1
 10  9  1  0
 11 13  1  0
 12  5  1  0
 12 11  1  0
 13 14  2  0
 15 16  1  0
 17 16  1  6
 17 19  1  0
 18 17  1  0
 18 13  1  0
 19 20  1  0
 21 19  2  0
M  END
$$$$
