SMS.pdb
     RDKit          3D

 21 20  0  0  1  0  0  0  0  0999 V2000
    7.8497  -12.8895   18.2724 O   0  0  0  0  0  0  0  0  0  0  0  0
    8.3472  -12.9642   19.5482 C   0  0  0  0  0  0  0  0  0  0  0  0
    8.1799  -14.3142   20.1999 C   0  0  2  0  0  0  0  0  0  0  0  0
    6.7745  -14.6417   20.1357 N   0  0  0  0  0  0  0  0  0  0  0  0
    8.6733  -14.3322   21.5983 C   0  0  0  0  0  0  0  0  0  0  0  0
    9.8789  -14.1079   21.7999 O   0  0  0  0  0  0  0  0  0  0  0  0
    6.5825  -10.3850   26.7905 C   0  0  0  0  0  0  0  0  0  0  0  0
    6.7157  -12.2001   26.8063 S   0  0  0  0  0  0  0  0  0  0  0  0
    6.9202  -12.7579   25.0694 C   0  0  0  0  0  0  0  0  0  0  0  0
    7.1341  -14.2353   25.0434 C   0  0  0  0  0  0  0  0  0  0  0  0
    8.2123  -14.6805   24.0672 C   0  0  2  0  0  0  0  0  0  0  0  0
    7.8134  -14.5943   22.6806 N   0  0  0  0  0  0  0  0  0  0  0  0
    8.5881  -16.0658   24.4053 C   0  0  0  0  0  0  0  0  0  0  0  0
    7.7869  -17.0216   24.4409 O   0  0  0  0  0  0  0  0  0  0  0  0
   12.5023  -17.1242   24.0381 O   0  0  0  0  0  0  0  0  0  0  0  0
   11.5444  -18.1279   24.0996 C   0  0  0  0  0  0  0  0  0  0  0  0
   10.3829  -17.7082   24.9972 C   0  0  2  0  0  0  0  0  0  0  0  0
    9.9599  -16.3671   24.7191 N   0  0  0  0  0  0  0  0  0  0  0  0
   10.7609  -17.9041   26.4033 C   0  0  0  0  0  0  0  0  0  0  0  0
   10.6960  -16.8864   27.3251 O   0  0  0  0  0  0  0  0  0  0  0  0
   11.1611  -19.0277   26.8082 O   0  0  0  0  0  0  0  0  0  0  0  0
  2  3  1  0
  2  1  1  0
  3  4  1  1
  3  5  1  0
  5  6  2  0
  7  8  1  0
  9  8  1  0
 11 10  1  1
 10  9  1  0
 11 13  1  0
 12  5  1  0
 12 11  1  0
 13 14  2  0
 15 16  1  0
 17 16  1  6
 17 19  1  0
 18 17  1  0
 18 13  1  0
 19 20  1  0
 21 19  2  0
M  END
$$$$
