SMS.pdb
     RDKit          3D

 21 20  0  0  1  0  0  0  0  0999 V2000
    8.2448  -18.5077   20.7148 O   0  0  0  0  0  0  0  0  0  0  0  0
    7.3324  -17.6686   20.1282 C   0  0  0  0  0  0  0  0  0  0  0  0
    7.8072  -16.2448   19.9789 C   0  0  2  0  0  0  0  0  0  0  0  0
    8.7480  -16.2271   18.8829 N   0  0  0  0  0  0  0  0  0  0  0  0
    8.4205  -15.7196   21.2229 C   0  0  0  0  0  0  0  0  0  0  0  0
    9.6605  -15.6832   21.2977 O   0  0  0  0  0  0  0  0  0  0  0  0
    7.0085  -11.8043   28.0219 C   0  0  0  0  0  0  0  0  0  0  0  0
    6.2826  -12.5820   26.5452 S   0  0  0  0  0  0  0  0  0  0  0  0
    7.6402  -13.4112   25.6291 C   0  0  0  0  0  0  0  0  0  0  0  0
    7.0969  -14.0206   24.3790 C   0  0  0  0  0  0  0  0  0  0  0  0
    8.1427  -14.7494   23.5490 C   0  0  2  0  0  0  0  0  0  0  0  0
    7.6348  -15.2700   22.2998 N   0  0  0  0  0  0  0  0  0  0  0  0
    8.6949  -15.8423   24.3708 C   0  0  0  0  0  0  0  0  0  0  0  0
    8.0829  -16.8955   24.6409 O   0  0  0  0  0  0  0  0  0  0  0  0
   12.8085  -17.8778   25.8888 O   0  0  0  0  0  0  0  0  0  0  0  0
   12.1972  -16.7478   25.3613 C   0  0  0  0  0  0  0  0  0  0  0  0
   10.6823  -16.8263   25.5332 C   0  0  2  0  0  0  0  0  0  0  0  0
   10.0230  -15.7162   24.9104 N   0  0  0  0  0  0  0  0  0  0  0  0
   10.3616  -16.9482   26.9617 C   0  0  0  0  0  0  0  0  0  0  0  0
   10.7276  -18.0480   27.7006 O   0  0  0  0  0  0  0  0  0  0  0  0
    9.7327  -16.0336   27.5571 O   0  0  0  0  0  0  0  0  0  0  0  0
  2  3  1  0
  2  1  1  0
  3  4  1  6
  3  5  1  0
  5  6  2  0
  7  8  1  0
  9  8  1  0
 11 10  1  1
 10  9  1  0
 11 13  1  0
 12  5  1  0
 12 11  1  0
 13 14  2  0
 15 16  1  0
 17 16  1  1
 17 19  1  0
 18 17  1  0
 18 13  1  0
 19 20  1  0
 21 19  2  0
M  END
$$$$
