SMS.pdb
     RDKit          3D

 21 20  0  0  1  0  0  0  0  0999 V2000
    7.1504  -17.9616   20.6011 O   0  0  0  0  0  0  0  0  0  0  0  0
    6.5384  -16.9172   19.9566 C   0  0  0  0  0  0  0  0  0  0  0  0
    7.3702  -15.6610   19.8852 C   0  0  2  0  0  0  0  0  0  0  0  0
    8.3366  -15.8550   18.8292 N   0  0  0  0  0  0  0  0  0  0  0  0
    8.0358  -15.3492   21.1732 C   0  0  0  0  0  0  0  0  0  0  0  0
    9.2577  -15.5547   21.2690 O   0  0  0  0  0  0  0  0  0  0  0  0
    7.1096  -11.7123   28.2121 C   0  0  0  0  0  0  0  0  0  0  0  0
    6.2843  -12.3425   26.7174 S   0  0  0  0  0  0  0  0  0  0  0  0
    7.5401  -13.2424   25.7261 C   0  0  0  0  0  0  0  0  0  0  0  0
    6.9248  -13.7075   24.4477 C   0  0  0  0  0  0  0  0  0  0  0  0
    7.8880  -14.4617   23.5438 C   0  0  2  0  0  0  0  0  0  0  0  0
    7.3187  -14.8337   22.2683 N   0  0  0  0  0  0  0  0  0  0  0  0
    8.3463  -15.6618   24.2679 C   0  0  0  0  0  0  0  0  0  0  0  0
    7.6536  -16.6853   24.4394 O   0  0  0  0  0  0  0  0  0  0  0  0
   12.2244  -18.2132   25.5238 O   0  0  0  0  0  0  0  0  0  0  0  0
   11.6734  -17.0946   24.9124 C   0  0  0  0  0  0  0  0  0  0  0  0
   10.2313  -16.8880   25.3690 C   0  0  2  0  0  0  0  0  0  0  0  0
    9.6732  -15.6852   24.8243 N   0  0  0  0  0  0  0  0  0  0  0  0
   10.1769  -16.9251   26.8367 C   0  0  0  0  0  0  0  0  0  0  0  0
   10.5632  -18.0325   27.5536 O   0  0  0  0  0  0  0  0  0  0  0  0
    9.7684  -15.9272   27.4876 O   0  0  0  0  0  0  0  0  0  0  0  0
  2  3  1  0
  2  1  1  0
  3  4  1  6
  3  5  1  0
  5  6  2  0
  7  8  1  0
  9  8  1  0
 11 10  1  1
 10  9  1  0
 11 13  1  0
 12  5  1  0
 12 11  1  0
 13 14  2  0
 15 16  1  0
 17 16  1  1
 17 19  1  0
 18 17  1  0
 18 13  1  0
 19 20  1  0
 21 19  2  0
M  END
$$$$
