SMS.pdb
     RDKit          3D

 21 20  0  0  1  0  0  0  0  0999 V2000
    8.3252  -17.9356   20.6045 O   0  0  0  0  0  0  0  0  0  0  0  0
    7.5659  -16.8721   20.1884 C   0  0  0  0  0  0  0  0  0  0  0  0
    8.2331  -15.5303   20.3595 C   0  0  2  0  0  0  0  0  0  0  0  0
    9.3886  -15.5208   19.4926 N   0  0  0  0  0  0  0  0  0  0  0  0
    8.6147  -15.2637   21.7676 C   0  0  0  0  0  0  0  0  0  0  0  0
    9.7924  -15.4693   22.1071 O   0  0  0  0  0  0  0  0  0  0  0  0
    7.8384  -11.8721   28.3741 C   0  0  0  0  0  0  0  0  0  0  0  0
    7.5198  -12.0967   26.5963 S   0  0  0  0  0  0  0  0  0  0  0  0
    7.0064  -13.8403   26.3391 C   0  0  0  0  0  0  0  0  0  0  0  0
    6.7346  -14.0700   24.8891 C   0  0  0  0  0  0  0  0  0  0  0  0
    7.9340  -14.5999   24.1182 C   0  0  2  0  0  0  0  0  0  0  0  0
    7.6813  -14.7902   22.7077 N   0  0  0  0  0  0  0  0  0  0  0  0
    8.3480  -15.8719   24.7389 C   0  0  0  0  0  0  0  0  0  0  0  0
    7.6629  -16.9146   24.7265 O   0  0  0  0  0  0  0  0  0  0  0  0
   12.3875  -16.6865   25.5308 O   0  0  0  0  0  0  0  0  0  0  0  0
   11.3910  -17.6361   25.3472 C   0  0  0  0  0  0  0  0  0  0  0  0
   10.0840  -17.1746   25.9873 C   0  0  2  0  0  0  0  0  0  0  0  0
    9.6189  -15.9478   25.4097 N   0  0  0  0  0  0  0  0  0  0  0  0
   10.2616  -17.0852   27.4429 C   0  0  0  0  0  0  0  0  0  0  0  0
   10.6900  -18.1545   28.1929 O   0  0  0  0  0  0  0  0  0  0  0  0
   10.0222  -16.0092   28.0523 O   0  0  0  0  0  0  0  0  0  0  0  0
  2  3  1  0
  2  1  1  0
  3  4  1  6
  3  5  1  0
  5  6  2  0
  7  8  1  0
  9  8  1  0
 11 10  1  1
 10  9  1  0
 11 13  1  0
 12  5  1  0
 12 11  1  0
 13 14  2  0
 15 16  1  0
 17 16  1  6
 17 19  1  0
 18 17  1  0
 18 13  1  0
 19 20  1  0
 21 19  2  0
M  END
$$$$
