SMS.pdb
     RDKit          3D

 21 20  0  0  1  0  0  0  0  0999 V2000
    8.3549  -18.8045   21.1695 O   0  0  0  0  0  0  0  0  0  0  0  0
    7.7584  -17.8558   20.3790 C   0  0  0  0  0  0  0  0  0  0  0  0
    8.4451  -16.5130   20.3982 C   0  0  2  0  0  0  0  0  0  0  0  0
    9.5691  -16.6017   19.4952 N   0  0  0  0  0  0  0  0  0  0  0  0
    8.8790  -16.1190   21.7604 C   0  0  0  0  0  0  0  0  0  0  0  0
   10.0451  -16.3771   22.1042 O   0  0  0  0  0  0  0  0  0  0  0  0
    7.0358  -11.6248   28.0591 C   0  0  0  0  0  0  0  0  0  0  0  0
    6.4096  -12.4168   26.5448 S   0  0  0  0  0  0  0  0  0  0  0  0
    7.7044  -13.5713   25.9447 C   0  0  0  0  0  0  0  0  0  0  0  0
    7.2940  -14.1365   24.6251 C   0  0  0  0  0  0  0  0  0  0  0  0
    8.3476  -15.0290   23.9873 C   0  0  2  0  0  0  0  0  0  0  0  0
    8.0072  -15.4693   22.6532 N   0  0  0  0  0  0  0  0  0  0  0  0
    8.5549  -16.1912   24.8711 C   0  0  0  0  0  0  0  0  0  0  0  0
    7.7012  -17.0776   25.0769 O   0  0  0  0  0  0  0  0  0  0  0  0
   12.4140  -17.4327   25.7642 O   0  0  0  0  0  0  0  0  0  0  0  0
   11.3030  -18.2631   25.8351 C   0  0  0  0  0  0  0  0  0  0  0  0
   10.0907  -17.4959   26.3571 C   0  0  2  0  0  0  0  0  0  0  0  0
    9.8124  -16.3412   25.5546 N   0  0  0  0  0  0  0  0  0  0  0  0
   10.2982  -17.1661   27.7736 C   0  0  0  0  0  0  0  0  0  0  0  0
   10.5752  -18.1294   28.7142 O   0  0  0  0  0  0  0  0  0  0  0  0
   10.2267  -15.9728   28.1703 O   0  0  0  0  0  0  0  0  0  0  0  0
  2  3  1  0
  2  1  1  0
  3  4  1  6
  3  5  1  0
  5  6  2  0
  7  8  1  0
  9  8  1  0
 11 10  1  1
 10  9  1  0
 11 13  1  0
 12  5  1  0
 12 11  1  0
 13 14  2  0
 15 16  1  0
 17 16  1  6
 17 19  1  0
 18 17  1  0
 18 13  1  0
 19 20  1  0
 21 19  2  0
M  END
$$$$
