SMS.pdb
     RDKit          3D

 21 20  0  0  1  0  0  0  0  0999 V2000
    8.4060  -17.9456   20.6170 O   0  0  0  0  0  0  0  0  0  0  0  0
    7.5927  -16.8605   20.4128 C   0  0  0  0  0  0  0  0  0  0  0  0
    8.2749  -15.5297   20.6095 C   0  0  2  0  0  0  0  0  0  0  0  0
    9.3261  -15.4451   19.6223 N   0  0  0  0  0  0  0  0  0  0  0  0
    8.8116  -15.3665   21.9823 C   0  0  0  0  0  0  0  0  0  0  0  0
   10.0420  -15.4324   22.1447 O   0  0  0  0  0  0  0  0  0  0  0  0
    6.4161  -10.4229   26.5628 C   0  0  0  0  0  0  0  0  0  0  0  0
    6.3873  -12.2368   26.7093 S   0  0  0  0  0  0  0  0  0  0  0  0
    7.2412  -12.9272   25.2383 C   0  0  0  0  0  0  0  0  0  0  0  0
    7.3497  -14.4099   25.3764 C   0  0  0  0  0  0  0  0  0  0  0  0
    8.3908  -15.0353   24.4607 C   0  0  2  0  0  0  0  0  0  0  0  0
    7.9652  -15.1423   23.0834 N   0  0  0  0  0  0  0  0  0  0  0  0
    8.7263  -16.3676   24.9964 C   0  0  0  0  0  0  0  0  0  0  0  0
    7.9700  -17.3583   24.9383 O   0  0  0  0  0  0  0  0  0  0  0  0
   12.6459  -17.5281   25.4473 O   0  0  0  0  0  0  0  0  0  0  0  0
   11.5856  -18.4246   25.4188 C   0  0  0  0  0  0  0  0  0  0  0  0
   10.3770  -17.8516   26.1548 C   0  0  2  0  0  0  0  0  0  0  0  0
   10.0009  -16.5706   25.6329 N   0  0  0  0  0  0  0  0  0  0  0  0
   10.6585  -17.8167   27.5963 C   0  0  0  0  0  0  0  0  0  0  0  0
   10.5430  -16.6631   28.3348 O   0  0  0  0  0  0  0  0  0  0  0  0
   11.0188  -18.8597   28.2037 O   0  0  0  0  0  0  0  0  0  0  0  0
  2  3  1  0
  2  1  1  0
  3  4  1  6
  3  5  1  0
  5  6  2  0
  7  8  1  0
  9  8  1  0
 11 10  1  1
 10  9  1  0
 11 13  1  0
 12  5  1  0
 12 11  1  0
 13 14  2  0
 15 16  1  0
 17 16  1  6
 17 19  1  0
 18 17  1  0
 18 13  1  0
 19 20  1  0
 21 19  2  0
M  END
$$$$
