SMS.pdb
     RDKit          3D

 21 20  0  0  1  0  0  0  0  0999 V2000
    8.2845  -18.5652   19.6986 O   0  0  0  0  0  0  0  0  0  0  0  0
    8.3215  -17.8476   20.8667 C   0  0  0  0  0  0  0  0  0  0  0  0
    8.5169  -16.3642   20.6760 C   0  0  2  0  0  0  0  0  0  0  0  0
    9.4880  -16.1995   19.6194 N   0  0  0  0  0  0  0  0  0  0  0  0
    8.9555  -15.6869   21.9203 C   0  0  0  0  0  0  0  0  0  0  0  0
   10.1746  -15.6057   22.1477 O   0  0  0  0  0  0  0  0  0  0  0  0
    6.7682  -11.4081   28.2574 C   0  0  0  0  0  0  0  0  0  0  0  0
    6.2267  -12.1747   26.6981 S   0  0  0  0  0  0  0  0  0  0  0  0
    7.5694  -13.2907   26.1313 C   0  0  0  0  0  0  0  0  0  0  0  0
    7.2268  -13.8371   24.7846 C   0  0  0  0  0  0  0  0  0  0  0  0
    8.3431  -14.6557   24.1543 C   0  0  2  0  0  0  0  0  0  0  0  0
    8.0300  -15.1447   22.8306 N   0  0  0  0  0  0  0  0  0  0  0  0
    8.6461  -15.7824   25.0564 C   0  0  0  0  0  0  0  0  0  0  0  0
    7.9071  -16.7757   25.2113 O   0  0  0  0  0  0  0  0  0  0  0  0
   12.5696  -16.5728   26.1120 O   0  0  0  0  0  0  0  0  0  0  0  0
   11.5482  -17.5133   26.1439 C   0  0  0  0  0  0  0  0  0  0  0  0
   10.2492  -16.8796   26.6359 C   0  0  2  0  0  0  0  0  0  0  0  0
    9.8651  -15.7646   25.8210 N   0  0  0  0  0  0  0  0  0  0  0  0
   10.3896  -16.5242   28.0545 C   0  0  0  0  0  0  0  0  0  0  0  0
   10.7609  -17.4456   29.0045 O   0  0  0  0  0  0  0  0  0  0  0  0
   10.1699  -15.3468   28.4443 O   0  0  0  0  0  0  0  0  0  0  0  0
  2  3  1  0
  2  1  1  0
  3  4  1  6
  3  5  1  0
  5  6  2  0
  7  8  1  0
  9  8  1  0
 11 10  1  1
 10  9  1  0
 11 13  1  0
 12  5  1  0
 12 11  1  0
 13 14  2  0
 15 16  1  0
 17 16  1  6
 17 19  1  0
 18 17  1  0
 18 13  1  0
 19 20  1  0
 21 19  2  0
M  END
$$$$
