SMS.pdb
     RDKit          3D

 21 20  0  0  1  0  0  0  0  0999 V2000
    8.1088  -17.4037   20.2341 O   0  0  0  0  0  0  0  0  0  0  0  0
    7.1542  -16.4192   20.2214 C   0  0  0  0  0  0  0  0  0  0  0  0
    7.6869  -15.0366   20.5038 C   0  0  2  0  0  0  0  0  0  0  0  0
    8.6440  -14.7335   19.4651 N   0  0  0  0  0  0  0  0  0  0  0  0
    8.3015  -14.9311   21.8493 C   0  0  0  0  0  0  0  0  0  0  0  0
    9.5364  -14.8128   21.9245 O   0  0  0  0  0  0  0  0  0  0  0  0
    6.2663  -10.8003   27.1298 C   0  0  0  0  0  0  0  0  0  0  0  0
    7.3745  -12.1682   26.6682 S   0  0  0  0  0  0  0  0  0  0  0  0
    6.5459  -13.1327   25.3443 C   0  0  0  0  0  0  0  0  0  0  0  0
    6.9908  -14.5563   25.4133 C   0  0  0  0  0  0  0  0  0  0  0  0
    8.0365  -14.9218   24.3710 C   0  0  2  0  0  0  0  0  0  0  0  0
    7.5227  -14.9621   23.0205 N   0  0  0  0  0  0  0  0  0  0  0  0
    8.6078  -16.2306   24.7392 C   0  0  0  0  0  0  0  0  0  0  0  0
    7.9529  -17.2910   24.7969 O   0  0  0  0  0  0  0  0  0  0  0  0
   11.9754  -17.5586   23.5511 O   0  0  0  0  0  0  0  0  0  0  0  0
   11.9843  -17.7628   24.9248 C   0  0  0  0  0  0  0  0  0  0  0  0
   10.5891  -17.5541   25.5084 C   0  0  2  0  0  0  0  0  0  0  0  0
   10.0081  -16.3236   25.0578 N   0  0  0  0  0  0  0  0  0  0  0  0
   10.6567  -17.6471   26.9730 C   0  0  0  0  0  0  0  0  0  0  0  0
   10.2306  -16.6268   27.7895 O   0  0  0  0  0  0  0  0  0  0  0  0
   11.1143  -18.6808   27.5285 O   0  0  0  0  0  0  0  0  0  0  0  0
  2  3  1  0
  2  1  1  0
  3  4  1  6
  3  5  1  0
  5  6  2  0
  7  8  1  0
  9  8  1  0
 11 10  1  1
 10  9  1  0
 11 13  1  0
 12  5  1  0
 12 11  1  0
 13 14  2  0
 15 16  1  0
 17 16  1  6
 17 19  1  0
 18 17  1  0
 18 13  1  0
 19 20  1  0
 21 19  2  0
M  END
$$$$
