WTK.pdb
     RDKit          3D

 31 32  0  0  1  0  0  0  0  0999 V2000
   27.5818  -19.6684   -9.8683 N   0  0  0  0  0  0  0  0  0  0  0  0
   26.6438  -20.8221   -9.8672 C   0  0  1  0  0  0  0  0  0  0  0  0
   25.9326  -20.7564   -8.5685 C   0  0  0  0  0  0  0  0  0  0  0  0
   26.6129  -20.0950   -7.4667 C   0  0  0  0  0  0  0  0  0  0  0  0
   26.2755  -18.8768   -6.9116 C   0  0  0  0  0  0  0  0  0  0  0  0
   27.1744  -18.6447   -5.9415 N   0  0  0  0  0  0  0  0  0  0  0  0
   28.0495  -19.6484   -5.8624 C   0  0  0  0  0  0  0  0  0  0  0  0
   29.1348  -19.9087   -5.0438 C   0  0  0  0  0  0  0  0  0  0  0  0
   29.8498  -21.0841   -5.2016 C   0  0  0  0  0  0  0  0  0  0  0  0
   29.5124  -22.0247   -6.1662 C   0  0  0  0  0  0  0  0  0  0  0  0
   28.4359  -21.7616   -6.9763 C   0  0  0  0  0  0  0  0  0  0  0  0
   27.7268  -20.5875   -6.8138 C   0  0  0  0  0  0  0  0  0  0  0  0
   25.8470  -20.7187  -11.0907 C   0  0  0  0  0  0  0  0  0  0  0  0
   25.5398  -19.5714  -11.5664 O   0  0  0  0  0  0  0  0  0  0  0  0
   26.7324  -21.9116  -14.4801 C   0  0  0  0  0  0  0  0  0  0  0  0
   25.3466  -22.3880  -14.2126 C   0  0  1  0  0  0  0  0  0  0  0  0
   25.3424  -23.7386  -13.8174 O   0  0  0  0  0  0  0  0  0  0  0  0
   24.6175  -21.6061  -13.1187 C   0  0  2  0  0  0  0  0  0  0  0  0
   25.3572  -21.8261  -11.8536 N   0  0  0  0  0  0  0  0  0  0  0  0
   23.2630  -22.1105  -12.9400 C   0  0  0  0  0  0  0  0  0  0  0  0
   23.0433  -22.9634  -12.0018 O   0  0  0  0  0  0  0  0  0  0  0  0
   22.1409  -21.7383  -13.7175 N   0  0  0  0  0  0  0  0  0  0  0  0
   20.8095  -22.2546  -13.3789 C   0  0  1  0  0  0  0  0  0  0  0  0
   19.7591  -21.2735  -13.7935 C   0  0  0  0  0  0  0  0  0  0  0  0
   18.3840  -21.8032  -13.5473 C   0  0  0  0  0  0  0  0  0  0  0  0
   17.3050  -20.7871  -13.8846 C   0  0  0  0  0  0  0  0  0  0  0  0
   15.9272  -21.3740  -13.6266 C   0  0  0  0  0  0  0  0  0  0  0  0
   14.9234  -20.3515  -13.8224 N   0  0  0  0  0  0  0  0  0  0  0  0
   20.6105  -23.5443  -14.0706 C   0  0  0  0  0  0  0  0  0  0  0  0
   21.2054  -23.7890  -15.1655 O   0  0  0  0  0  0  0  0  0  0  0  0
   19.7944  -24.5524  -13.5998 O   0  0  0  0  0  0  0  0  0  0  0  0
  2  1  1  1
  3  2  1  0
  4  5  2  0
  4  3  1  0
  6  5  1  0
  7 12  2  0
  7  6  1  0
  8  7  1  0
  9 10  1  0
  9  8  2  0
 10 11  2  0
 11 12  1  0
 12  4  1  0
 13 14  2  0
 13  2  1  0
 16 15  1  1
 16 18  1  0
 17 16  1  0
 18 19  1  1
 19 13  1  0
 20 18  1  0
 21 20  2  0
 22 20  1  0
 23 29  1  0
 23 22  1  0
 23 24  1  6
 25 24  1  0
 26 27  1  0
 26 25  1  0
 27 28  1  0
 29 31  1  0
 30 29  2  0
M  END
$$$$
