WTK.pdb
     RDKit          3D

 31 32  0  0  1  0  0  0  0  0999 V2000
   27.5060  -21.9065   -9.4817 N   0  0  0  0  0  0  0  0  0  0  0  0
   26.4389  -20.8778   -9.5998 C   0  0  1  0  0  0  0  0  0  0  0  0
   26.7960  -19.8192   -8.6258 C   0  0  0  0  0  0  0  0  0  0  0  0
   26.7829  -20.1762   -7.2163 C   0  0  0  0  0  0  0  0  0  0  0  0
   25.8044  -20.9013   -6.5662 C   0  0  0  0  0  0  0  0  0  0  0  0
   26.1858  -20.9783   -5.2811 N   0  0  0  0  0  0  0  0  0  0  0  0
   27.3444  -20.3435   -5.0964 C   0  0  0  0  0  0  0  0  0  0  0  0
   28.1609  -20.1442   -3.9968 C   0  0  0  0  0  0  0  0  0  0  0  0
   29.3450  -19.4400   -4.1373 C   0  0  0  0  0  0  0  0  0  0  0  0
   29.7483  -18.9185   -5.3598 C   0  0  0  0  0  0  0  0  0  0  0  0
   28.9346  -19.1179   -6.4471 C   0  0  0  0  0  0  0  0  0  0  0  0
   27.7550  -19.8212   -6.3005 C   0  0  0  0  0  0  0  0  0  0  0  0
   26.3629  -20.5098  -11.0144 C   0  0  0  0  0  0  0  0  0  0  0  0
   27.4263  -20.4433  -11.7226 O   0  0  0  0  0  0  0  0  0  0  0  0
   27.2180  -21.3498  -13.5882 C   0  0  0  0  0  0  0  0  0  0  0  0
   25.7823  -21.0971  -13.8945 C   0  0  1  0  0  0  0  0  0  0  0  0
   24.9868  -22.2038  -13.5444 O   0  0  0  0  0  0  0  0  0  0  0  0
   25.1936  -19.8843  -13.1717 C   0  0  2  0  0  0  0  0  0  0  0  0
   25.1582  -20.2085  -11.7261 N   0  0  0  0  0  0  0  0  0  0  0  0
   23.8268  -19.6367  -13.6094 C   0  0  0  0  0  0  0  0  0  0  0  0
   22.8596  -20.0212  -12.8528 O   0  0  0  0  0  0  0  0  0  0  0  0
   23.4562  -18.9947  -14.8148 N   0  0  0  0  0  0  0  0  0  0  0  0
   22.0507  -18.6520  -15.0617 C   0  0  1  0  0  0  0  0  0  0  0  0
   21.9512  -17.6885  -16.2017 C   0  0  0  0  0  0  0  0  0  0  0  0
   21.5916  -16.3165  -15.7324 C   0  0  0  0  0  0  0  0  0  0  0  0
   21.4152  -15.3401  -16.8839 C   0  0  0  0  0  0  0  0  0  0  0  0
   21.0077  -13.9731  -16.3601 C   0  0  0  0  0  0  0  0  0  0  0  0
   21.0818  -13.0047  -17.4316 N   0  0  0  0  0  0  0  0  0  0  0  0
   21.3069  -19.8905  -15.3685 C   0  0  0  0  0  0  0  0  0  0  0  0
   21.8723  -20.8493  -15.9797 O   0  0  0  0  0  0  0  0  0  0  0  0
   19.9867  -20.1004  -15.0263 O   0  0  0  0  0  0  0  0  0  0  0  0
  2  1  1  6
  3  2  1  0
  4  5  2  0
  4  3  1  0
  6  5  1  0
  7 12  2  0
  7  6  1  0
  8  7  1  0
  9 10  1  0
  9  8  2  0
 10 11  2  0
 11 12  1  0
 12  4  1  0
 13 14  2  0
 13  2  1  0
 16 15  1  1
 16 18  1  0
 17 16  1  0
 18 19  1  1
 19 13  1  0
 20 18  1  0
 21 20  2  0
 22 20  1  0
 23 29  1  0
 23 22  1  0
 23 24  1  6
 25 24  1  0
 26 27  1  0
 26 25  1  0
 27 28  1  0
 29 31  1  0
 30 29  2  0
M  END
$$$$
