WTK.pdb
     RDKit          3D

 31 32  0  0  1  0  0  0  0  0999 V2000
   24.2450  -19.5224  -14.4299 N   0  0  0  0  0  0  0  0  0  0  0  0
   22.7712  -19.6253  -14.2620 C   0  0  1  0  0  0  0  0  0  0  0  0
   22.2662  -20.2138  -15.5252 C   0  0  0  0  0  0  0  0  0  0  0  0
   22.4331  -19.4325  -16.7401 C   0  0  0  0  0  0  0  0  0  0  0  0
   23.5684  -19.3725  -17.5232 C   0  0  0  0  0  0  0  0  0  0  0  0
   23.2885  -18.5237  -18.5254 N   0  0  0  0  0  0  0  0  0  0  0  0
   22.0453  -18.0542  -18.4096 C   0  0  0  0  0  0  0  0  0  0  0  0
   21.2756  -17.1885  -19.1669 C   0  0  0  0  0  0  0  0  0  0  0  0
   19.9743  -16.9100  -18.7839 C   0  0  0  0  0  0  0  0  0  0  0  0
   19.4056  -17.4761  -17.6504 C   0  0  0  0  0  0  0  0  0  0  0  0
   20.1732  -18.3334  -16.9020 C   0  0  0  0  0  0  0  0  0  0  0  0
   21.4704  -18.6071  -17.2893 C   0  0  0  0  0  0  0  0  0  0  0  0
   22.5389  -20.3650  -13.0206 C   0  0  0  0  0  0  0  0  0  0  0  0
   23.4541  -20.4349  -12.1294 O   0  0  0  0  0  0  0  0  0  0  0  0
   22.5419  -19.8313  -10.2545 C   0  0  0  0  0  0  0  0  0  0  0  0
   21.2193  -20.5138  -10.3166 C   0  0  1  0  0  0  0  0  0  0  0  0
   20.1960  -19.6068  -10.6489 O   0  0  0  0  0  0  0  0  0  0  0  0
   21.1502  -21.6504  -11.3378 C   0  0  2  0  0  0  0  0  0  0  0  0
   21.3277  -21.0472  -12.6797 N   0  0  0  0  0  0  0  0  0  0  0  0
   19.8445  -22.2946  -11.3047 C   0  0  0  0  0  0  0  0  0  0  0  0
   18.8954  -21.7976  -12.0174 O   0  0  0  0  0  0  0  0  0  0  0  0
   19.5171  -23.4442  -10.5474 N   0  0  0  0  0  0  0  0  0  0  0  0
   18.2732  -24.1735  -10.8208 C   0  0  1  0  0  0  0  0  0  0  0  0
   18.2575  -25.4620  -10.0611 C   0  0  0  0  0  0  0  0  0  0  0  0
   16.9638  -26.1883  -10.2368 C   0  0  0  0  0  0  0  0  0  0  0  0
   16.9114  -27.4771   -9.4326 C   0  0  0  0  0  0  0  0  0  0  0  0
   15.6015  -28.2048   -9.6852 C   0  0  0  0  0  0  0  0  0  0  0  0
   15.5697  -29.4240   -8.9081 N   0  0  0  0  0  0  0  0  0  0  0  0
   17.1297  -23.3277  -10.4228 C   0  0  0  0  0  0  0  0  0  0  0  0
   16.0421  -23.3615  -11.0774 O   0  0  0  0  0  0  0  0  0  0  0  0
   17.1481  -22.4657   -9.3456 O   0  0  0  0  0  0  0  0  0  0  0  0
  2  1  1  6
  3  2  1  0
  4  5  2  0
  4  3  1  0
  6  5  1  0
  7 12  2  0
  7  6  1  0
  8  7  1  0
  9 10  1  0
  9  8  2  0
 10 11  2  0
 11 12  1  0
 12  4  1  0
 13 14  2  0
 13  2  1  0
 16 15  1  6
 16 18  1  0
 17 16  1  0
 18 19  1  6
 19 13  1  0
 20 18  1  0
 21 20  2  0
 22 20  1  0
 23 29  1  0
 23 22  1  0
 23 24  1  1
 25 24  1  0
 26 27  1  0
 26 25  1  0
 27 28  1  0
 29 31  1  0
 30 29  2  0
M  END
$$$$
