WTK.pdb
     RDKit          3D

 31 32  0  0  1  0  0  0  0  0999 V2000
   24.5044  -19.6002  -11.3976 N   0  0  0  0  0  0  0  0  0  0  0  0
   25.9167  -20.0154  -11.6069 C   0  0  1  0  0  0  0  0  0  0  0  0
   26.1703  -21.0829  -10.6103 C   0  0  0  0  0  0  0  0  0  0  0  0
   26.1776  -20.6995   -9.2077 C   0  0  0  0  0  0  0  0  0  0  0  0
   25.0690  -20.5052   -8.4082 C   0  0  0  0  0  0  0  0  0  0  0  0
   25.5351  -20.1462   -7.2012 N   0  0  0  0  0  0  0  0  0  0  0  0
   26.8685  -20.1070   -7.2055 C   0  0  0  0  0  0  0  0  0  0  0  0
   27.8199  -19.8218   -6.2418 C   0  0  0  0  0  0  0  0  0  0  0  0
   29.1656  -19.8913   -6.5611 C   0  0  0  0  0  0  0  0  0  0  0  0
   29.6012  -20.2415   -7.8326 C   0  0  0  0  0  0  0  0  0  0  0  0
   28.6538  -20.5225   -8.7853 C   0  0  0  0  0  0  0  0  0  0  0  0
   27.3132  -20.4515   -8.4605 C   0  0  0  0  0  0  0  0  0  0  0  0
   26.0504  -20.3556  -13.0242 C   0  0  0  0  0  0  0  0  0  0  0  0
   25.0280  -20.7243  -13.6993 O   0  0  0  0  0  0  0  0  0  0  0  0
   27.0229  -17.9233  -15.5725 C   0  0  0  0  0  0  0  0  0  0  0  0
   27.8531  -19.1362  -15.8147 C   0  0  1  0  0  0  0  0  0  0  0  0
   29.1312  -18.9982  -15.2424 O   0  0  0  0  0  0  0  0  0  0  0  0
   27.2542  -20.4258  -15.2509 C   0  0  2  0  0  0  0  0  0  0  0  0
   27.2688  -20.3083  -13.7737 N   0  0  0  0  0  0  0  0  0  0  0  0
   28.0690  -21.5760  -15.6175 C   0  0  0  0  0  0  0  0  0  0  0  0
   28.5442  -22.3170  -14.6789 O   0  0  0  0  0  0  0  0  0  0  0  0
   28.3902  -21.9645  -16.9397 N   0  0  0  0  0  0  0  0  0  0  0  0
   29.1135  -23.2185  -17.1810 C   0  0  1  0  0  0  0  0  0  0  0  0
   28.3012  -24.3788  -16.6997 C   0  0  0  0  0  0  0  0  0  0  0  0
   28.9738  -25.6802  -16.9928 C   0  0  0  0  0  0  0  0  0  0  0  0
   28.1240  -26.8736  -16.5877 C   0  0  0  0  0  0  0  0  0  0  0  0
   28.8277  -28.1708  -16.9495 C   0  0  0  0  0  0  0  0  0  0  0  0
   28.0649  -29.2904  -16.4434 N   0  0  0  0  0  0  0  0  0  0  0  0
   29.3797  -23.3420  -18.6284 C   0  0  0  0  0  0  0  0  0  0  0  0
   28.5610  -22.8731  -19.4784 O   0  0  0  0  0  0  0  0  0  0  0  0
   30.4994  -23.9518  -19.1559 O   0  0  0  0  0  0  0  0  0  0  0  0
  2  1  1  6
  3  2  1  0
  4  5  2  0
  4  3  1  0
  6  5  1  0
  7 12  2  0
  7  6  1  0
  8  7  1  0
  9 10  1  0
  9  8  2  0
 10 11  2  0
 11 12  1  0
 12  4  1  0
 13 14  2  0
 13  2  1  0
 16 15  1  1
 16 18  1  0
 17 16  1  0
 18 19  1  1
 19 13  1  0
 20 18  1  0
 21 20  2  0
 22 20  1  0
 23 29  1  0
 23 22  1  0
 23 24  1  6
 25 24  1  0
 26 27  1  0
 26 25  1  0
 27 28  1  0
 29 31  1  0
 30 29  2  0
M  END
$$$$
