WTK.pdb
     RDKit          3D

 31 32  0  0  1  0  0  0  0  0999 V2000
   25.1094  -20.3885  -17.1203 N   0  0  0  0  0  0  0  0  0  0  0  0
   23.6280  -20.4901  -17.1973 C   0  0  1  0  0  0  0  0  0  0  0  0
   23.3429  -21.2111  -18.4606 C   0  0  0  0  0  0  0  0  0  0  0  0
   23.8478  -20.6262  -19.6924 C   0  0  0  0  0  0  0  0  0  0  0  0
   24.9745  -21.0243  -20.3839 C   0  0  0  0  0  0  0  0  0  0  0  0
   25.0740  -20.2046  -21.4427 N   0  0  0  0  0  0  0  0  0  0  0  0
   24.0742  -19.3215  -21.4484 C   0  0  0  0  0  0  0  0  0  0  0  0
   23.7085  -18.2965  -22.3035 C   0  0  0  0  0  0  0  0  0  0  0  0
   22.5708  -17.5525  -22.0393 C   0  0  0  0  0  0  0  0  0  0  0  0
   21.7723  -17.8011  -20.9304 C   0  0  0  0  0  0  0  0  0  0  0  0
   22.1397  -18.8180  -20.0847 C   0  0  0  0  0  0  0  0  0  0  0  0
   23.2754  -19.5565  -20.3539 C   0  0  0  0  0  0  0  0  0  0  0  0
   23.1816  -21.1007  -15.9443 C   0  0  0  0  0  0  0  0  0  0  0  0
   23.9893  -21.2177  -14.9590 O   0  0  0  0  0  0  0  0  0  0  0  0
   22.9816  -20.4056  -13.2261 C   0  0  0  0  0  0  0  0  0  0  0  0
   21.6041  -20.9544  -13.3685 C   0  0  1  0  0  0  0  0  0  0  0  0
   20.7069  -19.9640  -13.8092 O   0  0  0  0  0  0  0  0  0  0  0  0
   21.4945  -22.1190  -14.3540 C   0  0  2  0  0  0  0  0  0  0  0  0
   21.8640  -21.5993  -15.6917 N   0  0  0  0  0  0  0  0  0  0  0  0
   20.1242  -22.6070  -14.4252 C   0  0  0  0  0  0  0  0  0  0  0  0
   19.3470  -22.1275  -15.3317 O   0  0  0  0  0  0  0  0  0  0  0  0
   19.5570  -23.5840  -13.5729 N   0  0  0  0  0  0  0  0  0  0  0  0
   18.1542  -23.9805  -13.7423 C   0  0  1  0  0  0  0  0  0  0  0  0
   17.8742  -25.2213  -12.9550 C   0  0  0  0  0  0  0  0  0  0  0  0
   16.4798  -25.7098  -13.1760 C   0  0  0  0  0  0  0  0  0  0  0  0
   16.1052  -26.8360  -12.2263 C   0  0  0  0  0  0  0  0  0  0  0  0
   14.7191  -27.3653  -12.5547 C   0  0  0  0  0  0  0  0  0  0  0  0
   14.3544  -28.3872  -11.5986 N   0  0  0  0  0  0  0  0  0  0  0  0
   17.2895  -22.8743  -13.2841 C   0  0  0  0  0  0  0  0  0  0  0  0
   17.6369  -22.1463  -12.3033 O   0  0  0  0  0  0  0  0  0  0  0  0
   16.0799  -22.5518  -13.8642 O   0  0  0  0  0  0  0  0  0  0  0  0
  2  1  1  1
  3  2  1  0
  4  5  2  0
  4  3  1  0
  6  5  1  0
  7 12  2  0
  7  6  1  0
  8  7  1  0
  9 10  1  0
  9  8  2  0
 10 11  2  0
 11 12  1  0
 12  4  1  0
 13 14  2  0
 13  2  1  0
 16 15  1  6
 16 18  1  0
 17 16  1  0
 18 19  1  6
 19 13  1  0
 20 18  1  0
 21 20  2  0
 22 20  1  0
 23 29  1  0
 23 22  1  0
 23 24  1  1
 25 24  1  0
 26 27  1  0
 26 25  1  0
 27 28  1  0
 29 31  1  0
 30 29  2  0
M  END
$$$$
