WTK.pdb
     RDKit          3D

 31 32  0  0  1  0  0  0  0  0999 V2000
   26.4592  -21.9080  -12.4715 N   0  0  0  0  0  0  0  0  0  0  0  0
   25.7494  -21.0548  -11.4820 C   0  0  1  0  0  0  0  0  0  0  0  0
   26.7122  -19.9911  -11.1094 C   0  0  0  0  0  0  0  0  0  0  0  0
   27.8269  -20.3681  -10.2552 C   0  0  0  0  0  0  0  0  0  0  0  0
   29.0872  -20.7438  -10.6751 C   0  0  0  0  0  0  0  0  0  0  0  0
   29.7863  -21.0206   -9.5626 N   0  0  0  0  0  0  0  0  0  0  0  0
   29.0330  -20.8378   -8.4770 C   0  0  0  0  0  0  0  0  0  0  0  0
   29.2673  -20.9611   -7.1186 C   0  0  0  0  0  0  0  0  0  0  0  0
   28.2578  -20.6691   -6.2166 C   0  0  0  0  0  0  0  0  0  0  0  0
   27.0002  -20.2513   -6.6324 C   0  0  0  0  0  0  0  0  0  0  0  0
   26.7723  -20.1315   -7.9807 C   0  0  0  0  0  0  0  0  0  0  0  0
   27.7833  -20.4241   -8.8752 C   0  0  0  0  0  0  0  0  0  0  0  0
   24.4875  -20.6497  -12.1029 C   0  0  0  0  0  0  0  0  0  0  0  0
   24.3738  -19.4944  -12.6408 O   0  0  0  0  0  0  0  0  0  0  0  0
   23.3907  -19.5453  -14.5124 C   0  0  0  0  0  0  0  0  0  0  0  0
   22.4566  -20.6892  -14.3179 C   0  0  1  0  0  0  0  0  0  0  0  0
   23.0053  -21.8831  -14.8215 O   0  0  0  0  0  0  0  0  0  0  0  0
   22.0894  -20.9543  -12.8569 C   0  0  2  0  0  0  0  0  0  0  0  0
   23.3086  -21.4575  -12.1814 N   0  0  0  0  0  0  0  0  0  0  0  0
   21.0657  -21.9858  -12.7616 C   0  0  0  0  0  0  0  0  0  0  0  0
   21.4356  -23.2035  -12.5714 O   0  0  0  0  0  0  0  0  0  0  0  0
   19.6709  -21.7672  -12.8573 N   0  0  0  0  0  0  0  0  0  0  0  0
   18.7372  -22.8789  -12.6418 C   0  0  1  0  0  0  0  0  0  0  0  0
   17.8103  -22.5575  -11.5125 C   0  0  0  0  0  0  0  0  0  0  0  0
   16.8715  -23.6857  -11.2335 C   0  0  0  0  0  0  0  0  0  0  0  0
   16.0150  -23.4334  -10.0034 C   0  0  0  0  0  0  0  0  0  0  0  0
   15.1441  -24.6432   -9.7086 C   0  0  0  0  0  0  0  0  0  0  0  0
   13.7619  -24.3216   -9.9871 N   0  0  0  0  0  0  0  0  0  0  0  0
   17.9736  -23.1053  -13.8855 C   0  0  0  0  0  0  0  0  0  0  0  0
   17.6702  -22.1329  -14.6437 O   0  0  0  0  0  0  0  0  0  0  0  0
   17.5457  -24.3462  -14.3110 O   0  0  0  0  0  0  0  0  0  0  0  0
  2  1  1  6
  3  2  1  0
  4  5  2  0
  4  3  1  0
  6  5  1  0
  7 12  2  0
  7  6  1  0
  8  7  1  0
  9 10  1  0
  9  8  2  0
 10 11  2  0
 11 12  1  0
 12  4  1  0
 13 14  2  0
 13  2  1  0
 16 15  1  1
 16 18  1  0
 17 16  1  0
 18 19  1  1
 19 13  1  0
 20 18  1  0
 21 20  2  0
 22 20  1  0
 23 29  1  0
 23 22  1  0
 23 24  1  1
 25 24  1  0
 26 27  1  0
 26 25  1  0
 27 28  1  0
 29 31  1  0
 30 29  2  0
M  END
$$$$
