WTK.pdb
     RDKit          3D

 31 32  0  0  1  0  0  0  0  0999 V2000
   27.5283  -20.9133  -15.8361 N   0  0  0  0  0  0  0  0  0  0  0  0
   26.3571  -20.1427  -15.3406 C   0  0  1  0  0  0  0  0  0  0  0  0
   25.7961  -19.4606  -16.5310 C   0  0  0  0  0  0  0  0  0  0  0  0
   26.5980  -18.4116  -17.1399 C   0  0  0  0  0  0  0  0  0  0  0  0
   27.2533  -18.4842  -18.3528 C   0  0  0  0  0  0  0  0  0  0  0  0
   27.8792  -17.3070  -18.5122 N   0  0  0  0  0  0  0  0  0  0  0  0
   27.6498  -16.5082  -17.4688 C   0  0  0  0  0  0  0  0  0  0  0  0
   28.0334  -15.2172  -17.1503 C   0  0  0  0  0  0  0  0  0  0  0  0
   27.6002  -14.6424  -15.9672 C   0  0  0  0  0  0  0  0  0  0  0  0
   26.7831  -15.3252  -15.0754 C   0  0  0  0  0  0  0  0  0  0  0  0
   26.4062  -16.6058  -15.3953 C   0  0  0  0  0  0  0  0  0  0  0  0
   26.8415  -17.1733  -16.5768 C   0  0  0  0  0  0  0  0  0  0  0  0
   25.5002  -21.0906  -14.6268 C   0  0  0  0  0  0  0  0  0  0  0  0
   25.7258  -22.3478  -14.7009 O   0  0  0  0  0  0  0  0  0  0  0  0
   25.1095  -21.7098  -11.0856 C   0  0  0  0  0  0  0  0  0  0  0  0
   23.7268  -21.5313  -11.6100 C   0  0  1  0  0  0  0  0  0  0  0  0
   23.2592  -20.2255  -11.3726 O   0  0  0  0  0  0  0  0  0  0  0  0
   23.5916  -21.7818  -13.1129 C   0  0  2  0  0  0  0  0  0  0  0  0
   24.3825  -20.7374  -13.8056 N   0  0  0  0  0  0  0  0  0  0  0  0
   22.2043  -21.6479  -13.5353 C   0  0  0  0  0  0  0  0  0  0  0  0
   21.8206  -20.5282  -14.0402 O   0  0  0  0  0  0  0  0  0  0  0  0
   21.2185  -22.6588  -13.4429 N   0  0  0  0  0  0  0  0  0  0  0  0
   19.8349  -22.3734  -13.8408 C   0  0  1  0  0  0  0  0  0  0  0  0
   19.0826  -23.6524  -14.0307 C   0  0  0  0  0  0  0  0  0  0  0  0
   17.6754  -23.4031  -14.4660 C   0  0  0  0  0  0  0  0  0  0  0  0
   16.9190  -24.6926  -14.7409 C   0  0  0  0  0  0  0  0  0  0  0  0
   15.5343  -24.3870  -15.2871 C   0  0  0  0  0  0  0  0  0  0  0  0
   14.9133  -25.6123  -15.7394 N   0  0  0  0  0  0  0  0  0  0  0  0
   19.1985  -21.5534  -12.7902 C   0  0  0  0  0  0  0  0  0  0  0  0
   19.5118  -21.7099  -11.5696 O   0  0  0  0  0  0  0  0  0  0  0  0
   18.2486  -20.5842  -13.0400 O   0  0  0  0  0  0  0  0  0  0  0  0
  2  1  1  6
  3  2  1  0
  4  5  2  0
  4  3  1  0
  6  5  1  0
  7 12  2  0
  7  6  1  0
  8  7  1  0
  9 10  1  0
  9  8  2  0
 10 11  2  0
 11 12  1  0
 12  4  1  0
 13 14  2  0
 13  2  1  0
 16 15  1  6
 16 18  1  0
 17 16  1  0
 18 19  1  6
 19 13  1  0
 20 18  1  0
 21 20  2  0
 22 20  1  0
 23 29  1  0
 23 22  1  0
 23 24  1  1
 25 24  1  0
 26 27  1  0
 26 25  1  0
 27 28  1  0
 29 31  1  0
 30 29  2  0
M  END
$$$$
