WTK.pdb
     RDKit          3D

 31 32  0  0  1  0  0  0  0  0999 V2000
   23.4119  -18.2405  -16.6069 N   0  0  0  0  0  0  0  0  0  0  0  0
   22.4524  -19.3250  -16.9447 C   0  0  1  0  0  0  0  0  0  0  0  0
   23.2118  -20.2823  -17.7837 C   0  0  0  0  0  0  0  0  0  0  0  0
   23.6946  -19.8064  -19.0701 C   0  0  0  0  0  0  0  0  0  0  0  0
   24.9968  -19.4683  -19.3796 C   0  0  0  0  0  0  0  0  0  0  0  0
   24.9859  -19.0674  -20.6611 N   0  0  0  0  0  0  0  0  0  0  0  0
   23.7526  -19.1378  -21.1645 C   0  0  0  0  0  0  0  0  0  0  0  0
   23.2107  -18.8665  -22.4088 C   0  0  0  0  0  0  0  0  0  0  0  0
   21.8584  -19.0672  -22.6293 C   0  0  0  0  0  0  0  0  0  0  0  0
   21.0139  -19.5374  -21.6319 C   0  0  0  0  0  0  0  0  0  0  0  0
   21.5558  -19.8041  -20.3993 C   0  0  0  0  0  0  0  0  0  0  0  0
   22.9053  -19.6019  -20.1857 C   0  0  0  0  0  0  0  0  0  0  0  0
   21.9023  -19.8106  -15.6783 C   0  0  0  0  0  0  0  0  0  0  0  0
   22.6783  -20.2701  -14.7708 O   0  0  0  0  0  0  0  0  0  0  0  0
   20.5983  -18.3851  -12.6453 C   0  0  0  0  0  0  0  0  0  0  0  0
   19.5341  -19.2817  -13.1767 C   0  0  1  0  0  0  0  0  0  0  0  0
   18.6071  -18.5629  -13.9540 O   0  0  0  0  0  0  0  0  0  0  0  0
   20.0571  -20.4199  -14.0546 C   0  0  2  0  0  0  0  0  0  0  0  0
   20.5143  -19.8177  -15.3291 N   0  0  0  0  0  0  0  0  0  0  0  0
   18.9925  -21.3652  -14.3615 C   0  0  0  0  0  0  0  0  0  0  0  0
   18.4300  -21.3037  -15.5172 O   0  0  0  0  0  0  0  0  0  0  0  0
   18.5117  -22.3695  -13.4883 N   0  0  0  0  0  0  0  0  0  0  0  0
   17.3377  -23.1669  -13.8624 C   0  0  1  0  0  0  0  0  0  0  0  0
   17.2408  -24.3768  -12.9880 C   0  0  0  0  0  0  0  0  0  0  0  0
   16.0314  -25.1926  -13.3102 C   0  0  0  0  0  0  0  0  0  0  0  0
   15.7839  -26.2877  -12.2855 C   0  0  0  0  0  0  0  0  0  0  0  0
   14.5789  -27.1229  -12.6851 C   0  0  0  0  0  0  0  0  0  0  0  0
   14.4161  -28.2129  -11.7487 N   0  0  0  0  0  0  0  0  0  0  0  0
   16.1297  -22.3296  -13.7180 C   0  0  0  0  0  0  0  0  0  0  0  0
   16.0713  -21.4277  -12.8260 O   0  0  0  0  0  0  0  0  0  0  0  0
   15.0084  -22.4526  -14.5127 O   0  0  0  0  0  0  0  0  0  0  0  0
  2  1  1  1
  3  2  1  0
  4  5  2  0
  4  3  1  0
  6  5  1  0
  7 12  2  0
  7  6  1  0
  8  7  1  0
  9 10  1  0
  9  8  2  0
 10 11  2  0
 11 12  1  0
 12  4  1  0
 13 14  2  0
 13  2  1  0
 16 15  1  6
 16 18  1  0
 17 16  1  0
 18 19  1  6
 19 13  1  0
 20 18  1  0
 21 20  2  0
 22 20  1  0
 23 29  1  0
 23 22  1  0
 23 24  1  1
 25 24  1  0
 26 27  1  0
 26 25  1  0
 27 28  1  0
 29 31  1  0
 30 29  2  0
M  END
$$$$
