WTK.pdb
     RDKit          3D

 31 32  0  0  1  0  0  0  0  0999 V2000
   24.8185  -19.0637  -18.7581 N   0  0  0  0  0  0  0  0  0  0  0  0
   24.1792  -18.6658  -17.4761 C   0  0  1  0  0  0  0  0  0  0  0  0
   22.7318  -18.5467  -17.7724 C   0  0  0  0  0  0  0  0  0  0  0  0
   22.2801  -17.3240  -18.4168 C   0  0  0  0  0  0  0  0  0  0  0  0
   23.0571  -16.4557  -19.1573 C   0  0  0  0  0  0  0  0  0  0  0  0
   22.2429  -15.4606  -19.5443 N   0  0  0  0  0  0  0  0  0  0  0  0
   21.0058  -15.6615  -19.0873 C   0  0  0  0  0  0  0  0  0  0  0  0
   19.8157  -14.9661  -19.2118 C   0  0  0  0  0  0  0  0  0  0  0  0
   18.6647  -15.4602  -18.6211 C   0  0  0  0  0  0  0  0  0  0  0  0
   18.6619  -16.6455  -17.8972 C   0  0  0  0  0  0  0  0  0  0  0  0
   19.8448  -17.3310  -17.7757 C   0  0  0  0  0  0  0  0  0  0  0  0
   20.9893  -16.8331  -18.3673 C   0  0  0  0  0  0  0  0  0  0  0  0
   24.5947  -19.6492  -16.4747 C   0  0  0  0  0  0  0  0  0  0  0  0
   24.4523  -20.9005  -16.7002 O   0  0  0  0  0  0  0  0  0  0  0  0
   27.7284  -20.9020  -15.4509 C   0  0  0  0  0  0  0  0  0  0  0  0
   27.0738  -20.4626  -14.1871 C   0  0  1  0  0  0  0  0  0  0  0  0
   27.5011  -19.1741  -13.8163 O   0  0  0  0  0  0  0  0  0  0  0  0
   25.5465  -20.4175  -14.2575 C   0  0  2  0  0  0  0  0  0  0  0  0
   25.1817  -19.3395  -15.2067 N   0  0  0  0  0  0  0  0  0  0  0  0
   24.9801  -20.0820  -12.9584 C   0  0  0  0  0  0  0  0  0  0  0  0
   24.9157  -18.8430  -12.6172 O   0  0  0  0  0  0  0  0  0  0  0  0
   24.4797  -21.0131  -12.0177 N   0  0  0  0  0  0  0  0  0  0  0  0
   24.2744  -20.6081  -10.6221 C   0  0  1  0  0  0  0  0  0  0  0  0
   23.4115  -21.6084   -9.9202 C   0  0  0  0  0  0  0  0  0  0  0  0
   23.1768  -21.2282   -8.4947 C   0  0  0  0  0  0  0  0  0  0  0  0
   22.4549  -22.3172   -7.7179 C   0  0  0  0  0  0  0  0  0  0  0  0
   22.1931  -21.8639   -6.2914 C   0  0  0  0  0  0  0  0  0  0  0  0
   21.4775  -22.9000   -5.5800 N   0  0  0  0  0  0  0  0  0  0  0  0
   25.5900  -20.5080   -9.9584 C   0  0  0  0  0  0  0  0  0  0  0  0
   26.4923  -21.3740  -10.1783 O   0  0  0  0  0  0  0  0  0  0  0  0
   25.9343  -19.5012   -9.0799 O   0  0  0  0  0  0  0  0  0  0  0  0
  2  1  1  6
  3  2  1  0
  4  5  2  0
  4  3  1  0
  6  5  1  0
  7 12  2  0
  7  6  1  0
  8  7  1  0
  9 10  1  0
  9  8  2  0
 10 11  2  0
 11 12  1  0
 12  4  1  0
 13 14  2  0
 13  2  1  0
 16 15  1  6
 16 18  1  0
 17 16  1  0
 18 19  1  6
 19 13  1  0
 20 18  1  0
 21 20  2  0
 22 20  1  0
 23 29  1  0
 23 22  1  0
 23 24  1  1
 25 24  1  0
 26 27  1  0
 26 25  1  0
 27 28  1  0
 29 31  1  0
 30 29  2  0
M  END
$$$$
