WTK.pdb
     RDKit          3D

 31 32  0  0  1  0  0  0  0  0999 V2000
   25.0311  -19.7574   -8.9516 N   0  0  0  0  0  0  0  0  0  0  0  0
   26.3937  -20.1201   -9.4235 C   0  0  1  0  0  0  0  0  0  0  0  0
   27.0858  -20.6902   -8.2433 C   0  0  0  0  0  0  0  0  0  0  0  0
   27.4160  -19.7803   -7.1582 C   0  0  0  0  0  0  0  0  0  0  0  0
   26.9892  -18.4737   -7.0294 C   0  0  0  0  0  0  0  0  0  0  0  0
   27.5437  -18.0077   -5.8987 N   0  0  0  0  0  0  0  0  0  0  0  0
   28.2892  -18.9495   -5.3185 C   0  0  0  0  0  0  0  0  0  0  0  0
   29.0402  -18.9939   -4.1569 C   0  0  0  0  0  0  0  0  0  0  0  0
   29.7000  -20.1603   -3.8079 C   0  0  0  0  0  0  0  0  0  0  0  0
   29.6347  -21.3038   -4.5935 C   0  0  0  0  0  0  0  0  0  0  0  0
   28.8894  -21.2546   -5.7451 C   0  0  0  0  0  0  0  0  0  0  0  0
   28.2336  -20.0882   -6.0876 C   0  0  0  0  0  0  0  0  0  0  0  0
   26.2191  -20.9785  -10.5961 C   0  0  0  0  0  0  0  0  0  0  0  0
   25.5635  -22.0733  -10.5034 O   0  0  0  0  0  0  0  0  0  0  0  0
   23.9712  -21.9585  -12.0629 C   0  0  0  0  0  0  0  0  0  0  0  0
   24.7194  -21.2627  -13.1468 C   0  0  1  0  0  0  0  0  0  0  0  0
   24.4857  -19.8755  -13.1143 O   0  0  0  0  0  0  0  0  0  0  0  0
   26.2354  -21.4562  -13.0828 C   0  0  2  0  0  0  0  0  0  0  0  0
   26.7258  -20.7013  -11.9056 N   0  0  0  0  0  0  0  0  0  0  0  0
   26.8762  -20.9042  -14.2684 C   0  0  0  0  0  0  0  0  0  0  0  0
   27.7950  -20.0167  -14.1139 O   0  0  0  0  0  0  0  0  0  0  0  0
   26.5775  -21.2643  -15.6039 N   0  0  0  0  0  0  0  0  0  0  0  0
   27.6409  -21.2792  -16.6154 C   0  0  1  0  0  0  0  0  0  0  0  0
   28.4435  -22.5359  -16.4959 C   0  0  0  0  0  0  0  0  0  0  0  0
   29.5245  -22.5979  -17.5253 C   0  0  0  0  0  0  0  0  0  0  0  0
   30.4016  -23.8293  -17.3681 C   0  0  0  0  0  0  0  0  0  0  0  0
   31.4806  -23.8498  -18.4379 C   0  0  0  0  0  0  0  0  0  0  0  0
   32.3999  -24.9347  -18.1746 N   0  0  0  0  0  0  0  0  0  0  0  0
   27.0238  -21.1882  -17.9541 C   0  0  0  0  0  0  0  0  0  0  0  0
   25.9043  -21.7397  -18.1886 O   0  0  0  0  0  0  0  0  0  0  0  0
   27.5910  -20.5190  -19.0192 O   0  0  0  0  0  0  0  0  0  0  0  0
  2  1  1  1
  3  2  1  0
  4  5  2  0
  4  3  1  0
  6  5  1  0
  7 12  2  0
  7  6  1  0
  8  7  1  0
  9 10  1  0
  9  8  2  0
 10 11  2  0
 11 12  1  0
 12  4  1  0
 13 14  2  0
 13  2  1  0
 16 15  1  1
 16 18  1  0
 17 16  1  0
 18 19  1  1
 19 13  1  0
 20 18  1  0
 21 20  2  0
 22 20  1  0
 23 29  1  0
 23 22  1  0
 23 24  1  6
 25 24  1  0
 26 27  1  0
 26 25  1  0
 27 28  1  0
 29 31  1  0
 30 29  2  0
M  END
$$$$
