WTK.pdb
     RDKit          3D

 31 32  0  0  1  0  0  0  0  0999 V2000
   25.0256  -20.8175   -9.7407 N   0  0  0  0  0  0  0  0  0  0  0  0
   26.4167  -20.3005   -9.6488 C   0  0  1  0  0  0  0  0  0  0  0  0
   27.0288  -21.0055   -8.4976 C   0  0  0  0  0  0  0  0  0  0  0  0
   26.8623  -20.4076   -7.1826 C   0  0  0  0  0  0  0  0  0  0  0  0
   25.6891  -19.9047   -6.6566 C   0  0  0  0  0  0  0  0  0  0  0  0
   25.9952  -19.4386   -5.4350 N   0  0  0  0  0  0  0  0  0  0  0  0
   27.2899  -19.6237   -5.1727 C   0  0  0  0  0  0  0  0  0  0  0  0
   28.0928  -19.3497   -4.0792 C   0  0  0  0  0  0  0  0  0  0  0  0
   29.4340  -19.6933   -4.1066 C   0  0  0  0  0  0  0  0  0  0  0  0
   30.0110  -20.3117   -5.2083 C   0  0  0  0  0  0  0  0  0  0  0  0
   29.2109  -20.5805   -6.2908 C   0  0  0  0  0  0  0  0  0  0  0  0
   27.8739  -20.2354   -6.2572 C   0  0  0  0  0  0  0  0  0  0  0  0
   27.0236  -20.4868  -10.9676 C   0  0  0  0  0  0  0  0  0  0  0  0
   28.0339  -21.2587  -11.1105 O   0  0  0  0  0  0  0  0  0  0  0  0
   26.3173  -22.5658  -13.5792 C   0  0  0  0  0  0  0  0  0  0  0  0
   26.3020  -21.2043  -14.1834 C   0  0  1  0  0  0  0  0  0  0  0  0
   25.0048  -20.6592  -14.1719 O   0  0  0  0  0  0  0  0  0  0  0  0
   27.2102  -20.1969  -13.4763 C   0  0  2  0  0  0  0  0  0  0  0  0
   26.5755  -19.8684  -12.1781 N   0  0  0  0  0  0  0  0  0  0  0  0
   27.3150  -18.9665  -14.2484 C   0  0  0  0  0  0  0  0  0  0  0  0
   26.5840  -17.9634  -13.9090 O   0  0  0  0  0  0  0  0  0  0  0  0
   28.1679  -18.7668  -15.3597 N   0  0  0  0  0  0  0  0  0  0  0  0
   28.1311  -17.4968  -16.0943 C   0  0  1  0  0  0  0  0  0  0  0  0
   29.4548  -17.2417  -16.7427 C   0  0  0  0  0  0  0  0  0  0  0  0
   29.4162  -16.0279  -17.6128 C   0  0  0  0  0  0  0  0  0  0  0  0
   30.7187  -15.8166  -18.3673 C   0  0  0  0  0  0  0  0  0  0  0  0
   30.6243  -14.5831  -19.2497 C   0  0  0  0  0  0  0  0  0  0  0  0
   31.8243  -14.4690  -20.0487 N   0  0  0  0  0  0  0  0  0  0  0  0
   27.0645  -17.5686  -17.1134 C   0  0  0  0  0  0  0  0  0  0  0  0
   26.7406  -18.6813  -17.6325 O   0  0  0  0  0  0  0  0  0  0  0  0
   26.3571  -16.4737  -17.5658 O   0  0  0  0  0  0  0  0  0  0  0  0
  2  1  1  6
  3  2  1  0
  4  5  2  0
  4  3  1  0
  6  5  1  0
  7 12  2  0
  7  6  1  0
  8  7  1  0
  9 10  1  0
  9  8  2  0
 10 11  2  0
 11 12  1  0
 12  4  1  0
 13 14  2  0
 13  2  1  0
 16 15  1  1
 16 18  1  0
 17 16  1  0
 18 19  1  1
 19 13  1  0
 20 18  1  0
 21 20  2  0
 22 20  1  0
 23 29  1  0
 23 22  1  0
 23 24  1  6
 25 24  1  0
 26 27  1  0
 26 25  1  0
 27 28  1  0
 29 31  1  0
 30 29  2  0
M  END
$$$$
