WTK.pdb
     RDKit          3D

 31 32  0  0  1  0  0  0  0  0999 V2000
   28.2410  -21.9048  -10.3413 N   0  0  0  0  0  0  0  0  0  0  0  0
   27.2560  -20.9481   -9.7709 C   0  0  1  0  0  0  0  0  0  0  0  0
   28.0613  -19.8779   -9.1359 C   0  0  0  0  0  0  0  0  0  0  0  0
   28.8104  -20.2262   -7.9393 C   0  0  0  0  0  0  0  0  0  0  0  0
   29.9499  -21.0037   -7.8863 C   0  0  0  0  0  0  0  0  0  0  0  0
   30.2920  -21.0802   -6.5901 N   0  0  0  0  0  0  0  0  0  0  0  0
   29.4311  -20.3948   -5.8361 C   0  0  0  0  0  0  0  0  0  0  0  0
   29.3393  -20.1426   -4.4784 C   0  0  0  0  0  0  0  0  0  0  0  0
   28.3108  -19.3524   -3.9930 C   0  0  0  0  0  0  0  0  0  0  0  0
   27.3538  -18.7963   -4.8320 C   0  0  0  0  0  0  0  0  0  0  0  0
   27.4485  -19.0501   -6.1776 C   0  0  0  0  0  0  0  0  0  0  0  0
   28.4767  -19.8389   -6.6555 C   0  0  0  0  0  0  0  0  0  0  0  0
   26.3542  -20.5717  -10.8607 C   0  0  0  0  0  0  0  0  0  0  0  0
   26.8262  -20.1890  -11.9866 O   0  0  0  0  0  0  0  0  0  0  0  0
   25.8419  -21.1429  -13.5594 C   0  0  0  0  0  0  0  0  0  0  0  0
   24.4278  -21.1917  -13.0936 C   0  0  1  0  0  0  0  0  0  0  0  0
   24.0946  -22.4735  -12.6182 O   0  0  0  0  0  0  0  0  0  0  0  0
   24.1066  -20.2066  -11.9683 C   0  0  2  0  0  0  0  0  0  0  0  0
   24.9247  -20.5964  -10.7958 N   0  0  0  0  0  0  0  0  0  0  0  0
   22.7040  -20.2987  -11.5872 C   0  0  0  0  0  0  0  0  0  0  0  0
   22.4026  -20.9055  -10.4933 O   0  0  0  0  0  0  0  0  0  0  0  0
   21.6184  -19.7675  -12.3233 N   0  0  0  0  0  0  0  0  0  0  0  0
   20.2536  -19.8668  -11.7930 C   0  0  1  0  0  0  0  0  0  0  0  0
   19.3198  -19.0468  -12.6258 C   0  0  0  0  0  0  0  0  0  0  0  0
   18.2641  -19.8914  -13.2614 C   0  0  0  0  0  0  0  0  0  0  0  0
   18.2873  -19.8000  -14.7785 C   0  0  0  0  0  0  0  0  0  0  0  0
   17.1893  -20.6632  -15.3769 C   0  0  0  0  0  0  0  0  0  0  0  0
   17.2513  -20.5904  -16.8200 N   0  0  0  0  0  0  0  0  0  0  0  0
   19.8420  -21.2851  -11.8040 C   0  0  0  0  0  0  0  0  0  0  0  0
   20.2693  -22.0751  -12.7017 O   0  0  0  0  0  0  0  0  0  0  0  0
   18.9932  -21.8476  -10.8728 O   0  0  0  0  0  0  0  0  0  0  0  0
  2  1  1  6
  3  2  1  0
  4  5  2  0
  4  3  1  0
  6  5  1  0
  7 12  2  0
  7  6  1  0
  8  7  1  0
  9 10  1  0
  9  8  2  0
 10 11  2  0
 11 12  1  0
 12  4  1  0
 13 14  2  0
 13  2  1  0
 16 15  1  1
 16 18  1  0
 17 16  1  0
 18 19  1  1
 19 13  1  0
 20 18  1  0
 21 20  2  0
 22 20  1  0
 23 29  1  0
 23 22  1  0
 23 24  1  6
 25 24  1  0
 26 27  1  0
 26 25  1  0
 27 28  1  0
 29 31  1  0
 30 29  2  0
M  END
$$$$
