WTK.pdb
     RDKit          3D

 31 32  0  0  1  0  0  0  0  0999 V2000
   26.4933  -21.8716  -12.7297 N   0  0  0  0  0  0  0  0  0  0  0  0
   25.7945  -21.3102  -11.5434 C   0  0  1  0  0  0  0  0  0  0  0  0
   26.7008  -20.2698  -11.0021 C   0  0  0  0  0  0  0  0  0  0  0  0
   27.7729  -20.7090  -10.1234 C   0  0  0  0  0  0  0  0  0  0  0  0
   28.9285  -21.3598  -10.5068 C   0  0  0  0  0  0  0  0  0  0  0  0
   29.6211  -21.5899   -9.3797 N   0  0  0  0  0  0  0  0  0  0  0  0
   28.9625  -21.1190   -8.3195 C   0  0  0  0  0  0  0  0  0  0  0  0
   29.2358  -21.0812   -6.9633 C   0  0  0  0  0  0  0  0  0  0  0  0
   28.3353  -20.4857   -6.0960 C   0  0  0  0  0  0  0  0  0  0  0  0
   27.1503  -19.9170   -6.5447 C   0  0  0  0  0  0  0  0  0  0  0  0
   26.8832  -19.9579   -7.8905 C   0  0  0  0  0  0  0  0  0  0  0  0
   27.7854  -20.5532   -8.7504 C   0  0  0  0  0  0  0  0  0  0  0  0
   24.4658  -20.8938  -11.9947 C   0  0  0  0  0  0  0  0  0  0  0  0
   24.3221  -19.8213  -12.6772 O   0  0  0  0  0  0  0  0  0  0  0  0
   23.0492  -19.9533  -14.2757 C   0  0  0  0  0  0  0  0  0  0  0  0
   22.1388  -21.0437  -13.8272 C   0  0  1  0  0  0  0  0  0  0  0  0
   22.6064  -22.3013  -14.2514 O   0  0  0  0  0  0  0  0  0  0  0  0
   21.9641  -21.1270  -12.3099 C   0  0  2  0  0  0  0  0  0  0  0  0
   23.2484  -21.6038  -11.7449 N   0  0  0  0  0  0  0  0  0  0  0  0
   20.9338  -22.0956  -11.9618 C   0  0  0  0  0  0  0  0  0  0  0  0
   21.2883  -23.3067  -11.7103 O   0  0  0  0  0  0  0  0  0  0  0  0
   19.5487  -21.8209  -11.8691 N   0  0  0  0  0  0  0  0  0  0  0  0
   18.6226  -22.8638  -11.4122 C   0  0  1  0  0  0  0  0  0  0  0  0
   17.3895  -22.2388  -10.8407 C   0  0  0  0  0  0  0  0  0  0  0  0
   16.4599  -23.2668  -10.2831 C   0  0  0  0  0  0  0  0  0  0  0  0
   15.1537  -22.6608   -9.7962 C   0  0  0  0  0  0  0  0  0  0  0  0
   14.3082  -23.7152   -9.1017 C   0  0  0  0  0  0  0  0  0  0  0  0
   13.2012  -23.0764   -8.4249 N   0  0  0  0  0  0  0  0  0  0  0  0
   18.2773  -23.7277  -12.5593 C   0  0  0  0  0  0  0  0  0  0  0  0
   18.2407  -23.2542  -13.7370 O   0  0  0  0  0  0  0  0  0  0  0  0
   17.9799  -25.0706  -12.4494 O   0  0  0  0  0  0  0  0  0  0  0  0
  2  1  1  6
  3  2  1  0
  4  5  2  0
  4  3  1  0
  6  5  1  0
  7 12  2  0
  7  6  1  0
  8  7  1  0
  9 10  1  0
  9  8  2  0
 10 11  2  0
 11 12  1  0
 12  4  1  0
 13 14  2  0
 13  2  1  0
 16 15  1  1
 16 18  1  0
 17 16  1  0
 18 19  1  1
 19 13  1  0
 20 18  1  0
 21 20  2  0
 22 20  1  0
 23 29  1  0
 23 22  1  0
 23 24  1  6
 25 24  1  0
 26 27  1  0
 26 25  1  0
 27 28  1  0
 29 31  1  0
 30 29  2  0
M  END
$$$$
