WTK.pdb
     RDKit          3D

 31 32  0  0  1  0  0  0  0  0999 V2000
   26.4091  -22.2004  -12.6283 N   0  0  0  0  0  0  0  0  0  0  0  0
   25.5470  -20.9979  -12.7762 C   0  0  1  0  0  0  0  0  0  0  0  0
   26.0237  -20.0373  -11.7530 C   0  0  0  0  0  0  0  0  0  0  0  0
   25.6764  -20.3096  -10.3676 C   0  0  0  0  0  0  0  0  0  0  0  0
   26.5340  -20.2654   -9.2866 C   0  0  0  0  0  0  0  0  0  0  0  0
   25.8013  -20.6009   -8.2125 N   0  0  0  0  0  0  0  0  0  0  0  0
   24.5390  -20.8502   -8.5645 C   0  0  0  0  0  0  0  0  0  0  0  0
   23.4027  -21.2081   -7.8601 C   0  0  0  0  0  0  0  0  0  0  0  0
   22.2022  -21.3763   -8.5296 C   0  0  0  0  0  0  0  0  0  0  0  0
   22.0961  -21.1966   -9.9027 C   0  0  0  0  0  0  0  0  0  0  0  0
   23.2260  -20.8427  -10.5971 C   0  0  0  0  0  0  0  0  0  0  0  0
   24.4203  -20.6763   -9.9235 C   0  0  0  0  0  0  0  0  0  0  0  0
   25.6222  -20.5956  -14.1815 C   0  0  0  0  0  0  0  0  0  0  0  0
   26.7147  -20.7289  -14.8340 O   0  0  0  0  0  0  0  0  0  0  0  0
   26.1211  -21.8417  -16.7333 C   0  0  0  0  0  0  0  0  0  0  0  0
   24.8663  -21.1234  -17.0915 C   0  0  1  0  0  0  0  0  0  0  0  0
   23.7326  -21.8924  -16.7700 O   0  0  0  0  0  0  0  0  0  0  0  0
   24.6972  -19.7742  -16.3909 C   0  0  2  0  0  0  0  0  0  0  0  0
   24.5415  -20.0471  -14.9427 N   0  0  0  0  0  0  0  0  0  0  0  0
   23.4912  -19.1010  -16.8528 C   0  0  0  0  0  0  0  0  0  0  0  0
   22.4276  -19.1826  -16.1332 O   0  0  0  0  0  0  0  0  0  0  0  0
   23.3796  -18.3457  -18.0442 N   0  0  0  0  0  0  0  0  0  0  0  0
   22.1223  -17.6591  -18.3630 C   0  0  1  0  0  0  0  0  0  0  0  0
   22.3948  -16.4628  -19.2187 C   0  0  0  0  0  0  0  0  0  0  0  0
   21.1479  -15.6869  -19.4924 C   0  0  0  0  0  0  0  0  0  0  0  0
   21.4094  -14.4551  -20.3437 C   0  0  0  0  0  0  0  0  0  0  0  0
   20.1493  -13.6134  -20.4568 C   0  0  0  0  0  0  0  0  0  0  0  0
   20.4307  -12.4260  -21.2328 N   0  0  0  0  0  0  0  0  0  0  0  0
   21.2312  -18.6032  -19.0672 C   0  0  0  0  0  0  0  0  0  0  0  0
   19.9744  -18.5595  -18.8911 O   0  0  0  0  0  0  0  0  0  0  0  0
   21.6748  -19.5722  -19.9438 O   0  0  0  0  0  0  0  0  0  0  0  0
  2  1  1  6
  3  2  1  0
  4  5  2  0
  4  3  1  0
  6  5  1  0
  7 12  2  0
  7  6  1  0
  8  7  1  0
  9 10  1  0
  9  8  2  0
 10 11  2  0
 11 12  1  0
 12  4  1  0
 13 14  2  0
 13  2  1  0
 16 15  1  1
 16 18  1  0
 17 16  1  0
 18 19  1  1
 19 13  1  0
 20 18  1  0
 21 20  2  0
 22 20  1  0
 23 29  1  0
 23 22  1  0
 23 24  1  6
 25 24  1  0
 26 27  1  0
 26 25  1  0
 27 28  1  0
 29 31  1  0
 30 29  2  0
M  END
$$$$
