TGQ.pdb
     RDKit          3D

 21 20  0  0  1  0  0  0  0  0999 V2000
    7.9593  -12.0531   19.4246 C   0  0  0  0  0  0  0  0  0  0  0  0
    8.1442  -13.4960   19.7763 C   0  0  1  0  0  0  0  0  0  0  0  0
    7.9475  -14.3272   18.6901 O   0  0  0  0  0  0  0  0  0  0  0  0
    9.5127  -13.6609   20.3998 C   0  0  2  0  0  0  0  0  0  0  0  0
   10.5782  -13.4967   19.4610 N   0  0  0  0  0  0  0  0  0  0  0  0
    9.6315  -14.9407   21.1082 C   0  0  0  0  0  0  0  0  0  0  0  0
   10.4269  -15.8537   20.7120 O   0  0  0  0  0  0  0  0  0  0  0  0
    8.8391  -15.1660   22.2646 N   0  0  0  0  0  0  0  0  0  0  0  0
    9.0259  -16.4111   22.9790 C   0  0  0  0  0  0  0  0  0  0  0  0
   10.0816  -16.3114   23.9980 C   0  0  0  0  0  0  0  0  0  0  0  0
   11.0700  -15.5571   23.8283 O   0  0  0  0  0  0  0  0  0  0  0  0
    9.2604  -12.9616   28.3571 N   0  0  0  0  0  0  0  0  0  0  0  0
    9.7642  -14.2762   28.3503 C   0  0  0  0  0  0  0  0  0  0  0  0
    9.9879  -14.8306   29.4550 O   0  0  0  0  0  0  0  0  0  0  0  0
   10.0390  -15.0255   27.1137 C   0  0  0  0  0  0  0  0  0  0  0  0
   10.6194  -16.3847   27.3982 C   0  0  0  0  0  0  0  0  0  0  0  0
   11.0595  -17.0834   26.1583 C   0  0  2  0  0  0  0  0  0  0  0  0
    9.9943  -17.0652   25.1812 N   0  0  0  0  0  0  0  0  0  0  0  0
   11.4883  -18.4709   26.3597 C   0  0  0  0  0  0  0  0  0  0  0  0
   12.6381  -18.7154   27.0916 O   0  0  0  0  0  0  0  0  0  0  0  0
   10.8799  -19.4701   25.9102 O   0  0  0  0  0  0  0  0  0  0  0  0
  2  1  1  6
  2  3  1  0
  2  4  1  0
  4  5  1  6
  6  4  1  0
  6  7  2  0
  8  6  1  0
  9  8  1  0
  9 10  1  0
 10 11  2  0
 10 18  1  0
 12 13  1  0
 13 14  2  0
 15 16  1  0
 15 13  1  0
 17 16  1  1
 17 19  1  0
 18 17  1  0
 19 21  2  0
 19 20  1  0
M  END
$$$$
