TGQ.pdb
     RDKit          3D

 21 20  0  0  1  0  0  0  0  0999 V2000
    9.8628  -19.1183   20.4667 C   0  0  0  0  0  0  0  0  0  0  0  0
   10.1099  -18.5984   19.0851 C   0  0  1  0  0  0  0  0  0  0  0  0
   10.6242  -19.5688   18.2466 O   0  0  0  0  0  0  0  0  0  0  0  0
    8.8213  -17.9989   18.5663 C   0  0  2  0  0  0  0  0  0  0  0  0
    8.8691  -17.6934   17.1706 N   0  0  0  0  0  0  0  0  0  0  0  0
    8.4221  -16.8218   19.3467 C   0  0  0  0  0  0  0  0  0  0  0  0
    8.9170  -15.6698   19.1209 O   0  0  0  0  0  0  0  0  0  0  0  0
    7.4594  -16.9721   20.3795 N   0  0  0  0  0  0  0  0  0  0  0  0
    6.9785  -15.7737   21.0338 C   0  0  0  0  0  0  0  0  0  0  0  0
    7.8038  -15.4079   22.1947 C   0  0  0  0  0  0  0  0  0  0  0  0
    8.6929  -16.1836   22.6217 O   0  0  0  0  0  0  0  0  0  0  0  0
    5.2614  -11.8534   26.6395 N   0  0  0  0  0  0  0  0  0  0  0  0
    6.5275  -12.1900   27.1549 C   0  0  0  0  0  0  0  0  0  0  0  0
    6.7944  -11.8554   28.3358 O   0  0  0  0  0  0  0  0  0  0  0  0
    7.5464  -12.9121   26.3762 C   0  0  0  0  0  0  0  0  0  0  0  0
    7.0910  -13.1785   24.9666 C   0  0  0  0  0  0  0  0  0  0  0  0
    8.1103  -13.9202   24.1727 C   0  0  2  0  0  0  0  0  0  0  0  0
    7.6043  -14.1767   22.8431 N   0  0  0  0  0  0  0  0  0  0  0  0
    8.5384  -15.1910   24.7653 C   0  0  0  0  0  0  0  0  0  0  0  0
    9.8584  -15.3337   25.1587 O   0  0  0  0  0  0  0  0  0  0  0  0
    7.7842  -16.1755   24.9454 O   0  0  0  0  0  0  0  0  0  0  0  0
  2  1  1  1
  2  3  1  0
  2  4  1  0
  4  5  1  6
  6  4  1  0
  6  7  2  0
  8  6  1  0
  9  8  1  0
  9 10  1  0
 10 11  2  0
 10 18  1  0
 12 13  1  0
 13 14  2  0
 15 16  1  0
 15 13  1  0
 17 16  1  1
 17 19  1  0
 18 17  1  0
 19 21  2  0
 19 20  1  0
M  END
$$$$
