TGQ.pdb
     RDKit          3D

 21 20  0  0  1  0  0  0  0  0999 V2000
    7.0675  -13.3963   19.4697 C   0  0  0  0  0  0  0  0  0  0  0  0
    8.1405  -14.1464   20.1949 C   0  0  1  0  0  0  0  0  0  0  0  0
    9.1938  -13.3292   20.5586 O   0  0  0  0  0  0  0  0  0  0  0  0
    7.5110  -14.8514   21.3763 C   0  0  2  0  0  0  0  0  0  0  0  0
    6.8911  -13.9520   22.2985 N   0  0  0  0  0  0  0  0  0  0  0  0
    8.4747  -15.7214   22.0607 C   0  0  0  0  0  0  0  0  0  0  0  0
    8.9976  -16.7277   21.4803 O   0  0  0  0  0  0  0  0  0  0  0  0
    8.8326  -15.4330   23.4041 N   0  0  0  0  0  0  0  0  0  0  0  0
    9.7774  -16.3154   24.0554 C   0  0  0  0  0  0  0  0  0  0  0  0
   10.0975  -15.8728   25.4207 C   0  0  0  0  0  0  0  0  0  0  0  0
   11.0269  -16.4109   26.0698 O   0  0  0  0  0  0  0  0  0  0  0  0
    6.6750  -12.3359   24.8030 N   0  0  0  0  0  0  0  0  0  0  0  0
    6.9405  -12.7375   26.1259 C   0  0  0  0  0  0  0  0  0  0  0  0
    6.0703  -13.4171   26.7247 O   0  0  0  0  0  0  0  0  0  0  0  0
    8.1851  -12.3984   26.8346 C   0  0  0  0  0  0  0  0  0  0  0  0
    8.5747  -13.4625   27.8251 C   0  0  0  0  0  0  0  0  0  0  0  0
    9.6875  -14.3190   27.3278 C   0  0  2  0  0  0  0  0  0  0  0  0
    9.3609  -14.8350   26.0176 N   0  0  0  0  0  0  0  0  0  0  0  0
   10.0294  -15.4440   28.2036 C   0  0  0  0  0  0  0  0  0  0  0  0
    9.2999  -16.6165   28.1008 O   0  0  0  0  0  0  0  0  0  0  0  0
   10.9499  -15.4224   29.0538 O   0  0  0  0  0  0  0  0  0  0  0  0
  2  1  1  1
  2  3  1  0
  2  4  1  0
  4  5  1  1
  6  4  1  0
  6  7  2  0
  8  6  1  0
  9  8  1  0
  9 10  1  0
 10 11  2  0
 10 18  1  0
 12 13  1  0
 13 14  2  0
 15 16  1  0
 15 13  1  0
 17 16  1  1
 17 19  1  0
 18 17  1  0
 19 21  2  0
 19 20  1  0
M  END
$$$$
