TGQ.pdb
     RDKit          3D

 21 20  0  0  1  0  0  0  0  0999 V2000
    8.8635  -12.8020   19.4102 C   0  0  0  0  0  0  0  0  0  0  0  0
    8.2469  -13.3936   18.1814 C   0  0  1  0  0  0  0  0  0  0  0  0
    8.4969  -12.6339   17.0546 O   0  0  0  0  0  0  0  0  0  0  0  0
    8.7331  -14.8198   18.0462 C   0  0  2  0  0  0  0  0  0  0  0  0
    8.3710  -15.4179   16.7993 N   0  0  0  0  0  0  0  0  0  0  0  0
    8.2902  -15.6493   19.1731 C   0  0  0  0  0  0  0  0  0  0  0  0
    7.5376  -16.6630   19.0027 O   0  0  0  0  0  0  0  0  0  0  0  0
    8.7121  -15.3122   20.4862 N   0  0  0  0  0  0  0  0  0  0  0  0
    8.4921  -16.2841   21.5363 C   0  0  0  0  0  0  0  0  0  0  0  0
    8.9394  -15.7923   22.8480 C   0  0  0  0  0  0  0  0  0  0  0  0
   10.1603  -15.7394   23.1328 O   0  0  0  0  0  0  0  0  0  0  0  0
    6.7272  -11.1073   27.8477 N   0  0  0  0  0  0  0  0  0  0  0  0
    6.4914  -12.3822   27.2989 C   0  0  0  0  0  0  0  0  0  0  0  0
    5.3002  -12.7502   27.1461 O   0  0  0  0  0  0  0  0  0  0  0  0
    7.5721  -13.2976   26.8985 C   0  0  0  0  0  0  0  0  0  0  0  0
    7.2041  -14.1016   25.6805 C   0  0  0  0  0  0  0  0  0  0  0  0
    8.3915  -14.7303   25.0370 C   0  0  2  0  0  0  0  0  0  0  0  0
    7.9975  -15.3733   23.8037 N   0  0  0  0  0  0  0  0  0  0  0  0
    9.0918  -15.7093   25.8740 C   0  0  0  0  0  0  0  0  0  0  0  0
   10.0692  -15.2637   26.7479 O   0  0  0  0  0  0  0  0  0  0  0  0
    8.8671  -16.9421   25.8566 O   0  0  0  0  0  0  0  0  0  0  0  0
  2  1  1  1
  2  3  1  0
  2  4  1  0
  4  5  1  6
  6  4  1  0
  6  7  2  0
  8  6  1  0
  9  8  1  0
  9 10  1  0
 10 11  2  0
 10 18  1  0
 12 13  1  0
 13 14  2  0
 15 16  1  0
 15 13  1  0
 17 16  1  1
 17 19  1  0
 18 17  1  0
 19 21  2  0
 19 20  1  0
M  END
$$$$
