TGQ.pdb
     RDKit          3D

 21 20  0  0  1  0  0  0  0  0999 V2000
   10.0858  -15.9952   18.9566 C   0  0  0  0  0  0  0  0  0  0  0  0
    9.9451  -14.7006   18.2188 C   0  0  1  0  0  0  0  0  0  0  0  0
   10.5192  -14.7507   16.9629 O   0  0  0  0  0  0  0  0  0  0  0  0
    8.4777  -14.3347   18.1780 C   0  0  2  0  0  0  0  0  0  0  0  0
    8.1910  -13.2755   17.2617 N   0  0  0  0  0  0  0  0  0  0  0  0
    7.9626  -14.0231   19.5164 C   0  0  0  0  0  0  0  0  0  0  0  0
    8.1045  -12.8686   20.0361 O   0  0  0  0  0  0  0  0  0  0  0  0
    7.2890  -15.0352   20.2499 N   0  0  0  0  0  0  0  0  0  0  0  0
    6.7114  -14.6724   21.5267 C   0  0  0  0  0  0  0  0  0  0  0  0
    7.7034  -14.7040   22.6119 C   0  0  0  0  0  0  0  0  0  0  0  0
    8.9291  -14.7992   22.3601 O   0  0  0  0  0  0  0  0  0  0  0  0
    6.2081  -10.4350   27.2751 N   0  0  0  0  0  0  0  0  0  0  0  0
    6.1074  -11.7896   26.9052 C   0  0  0  0  0  0  0  0  0  0  0  0
    5.3309  -12.5268   27.5619 O   0  0  0  0  0  0  0  0  0  0  0  0
    6.8669  -12.3770   25.7898 C   0  0  0  0  0  0  0  0  0  0  0  0
    7.4742  -13.7031   26.1612 C   0  0  0  0  0  0  0  0  0  0  0  0
    8.2078  -14.3281   25.0251 C   0  0  2  0  0  0  0  0  0  0  0  0
    7.2865  -14.6274   23.9521 N   0  0  0  0  0  0  0  0  0  0  0  0
    8.9395  -15.5507   25.3705 C   0  0  0  0  0  0  0  0  0  0  0  0
   10.2321  -15.4415   25.8552 O   0  0  0  0  0  0  0  0  0  0  0  0
    8.4730  -16.7083   25.2574 O   0  0  0  0  0  0  0  0  0  0  0  0
  2  1  1  6
  2  3  1  0
  2  4  1  0
  4  5  1  6
  6  4  1  0
  6  7  2  0
  8  6  1  0
  9  8  1  0
  9 10  1  0
 10 11  2  0
 10 18  1  0
 12 13  1  0
 13 14  2  0
 15 16  1  0
 15 13  1  0
 17 16  1  1
 17 19  1  0
 18 17  1  0
 19 21  2  0
 19 20  1  0
M  END
$$$$
