TGQ.pdb
     RDKit          3D

 21 20  0  0  1  0  0  0  0  0999 V2000
   11.1115  -14.1643   19.8772 C   0  0  0  0  0  0  0  0  0  0  0  0
   10.1340  -13.2220   19.2474 C   0  0  1  0  0  0  0  0  0  0  0  0
   10.6374  -12.6372   18.1011 O   0  0  0  0  0  0  0  0  0  0  0  0
    8.8422  -13.9710   19.0042 C   0  0  2  0  0  0  0  0  0  0  0  0
    7.8971  -13.2210   18.2375 N   0  0  0  0  0  0  0  0  0  0  0  0
    8.2448  -14.4373   20.2610 C   0  0  0  0  0  0  0  0  0  0  0  0
    7.3985  -13.7327   20.9016 O   0  0  0  0  0  0  0  0  0  0  0  0
    8.6206  -15.7063   20.7751 N   0  0  0  0  0  0  0  0  0  0  0  0
    8.0018  -16.1455   22.0079 C   0  0  0  0  0  0  0  0  0  0  0  0
    8.7494  -15.6976   23.1924 C   0  0  0  0  0  0  0  0  0  0  0  0
    9.9982  -15.5797   23.1580 O   0  0  0  0  0  0  0  0  0  0  0  0
    5.7515  -10.9049   26.1215 N   0  0  0  0  0  0  0  0  0  0  0  0
    6.2996  -12.1423   26.5094 C   0  0  0  0  0  0  0  0  0  0  0  0
    5.9911  -12.5991   27.6381 O   0  0  0  0  0  0  0  0  0  0  0  0
    7.2126  -12.9201   25.6564 C   0  0  0  0  0  0  0  0  0  0  0  0
    7.7972  -14.0984   26.3881 C   0  0  0  0  0  0  0  0  0  0  0  0
    8.7522  -14.8712   25.5455 C   0  0  2  0  0  0  0  0  0  0  0  0
    8.0685  -15.3947   24.3843 N   0  0  0  0  0  0  0  0  0  0  0  0
    9.4175  -15.9792   26.2377 C   0  0  0  0  0  0  0  0  0  0  0  0
   10.4311  -15.6930   27.1367 O   0  0  0  0  0  0  0  0  0  0  0  0
    9.1315  -17.1881   26.0727 O   0  0  0  0  0  0  0  0  0  0  0  0
  2  1  1  6
  2  3  1  0
  2  4  1  0
  4  5  1  1
  6  4  1  0
  6  7  2  0
  8  6  1  0
  9  8  1  0
  9 10  1  0
 10 11  2  0
 10 18  1  0
 12 13  1  0
 13 14  2  0
 15 16  1  0
 15 13  1  0
 17 16  1  1
 17 19  1  0
 18 17  1  0
 19 21  2  0
 19 20  1  0
M  END
$$$$
