TGQ.pdb
     RDKit          3D

 21 20  0  0  1  0  0  0  0  0999 V2000
    8.6797  -12.7760   18.2823 C   0  0  0  0  0  0  0  0  0  0  0  0
    8.3275  -13.3140   19.6338 C   0  0  1  0  0  0  0  0  0  0  0  0
    7.2611  -12.6428   20.2010 O   0  0  0  0  0  0  0  0  0  0  0  0
    8.0812  -14.8010   19.5032 C   0  0  2  0  0  0  0  0  0  0  0  0
    7.0593  -15.1171   18.5549 N   0  0  0  0  0  0  0  0  0  0  0  0
    7.7965  -15.4165   20.8048 C   0  0  0  0  0  0  0  0  0  0  0  0
    6.6453  -15.8841   21.0864 O   0  0  0  0  0  0  0  0  0  0  0  0
    8.8312  -15.4920   21.7740 N   0  0  0  0  0  0  0  0  0  0  0  0
    8.5263  -16.1262   23.0390 C   0  0  0  0  0  0  0  0  0  0  0  0
    9.6883  -16.1510   23.9400 C   0  0  0  0  0  0  0  0  0  0  0  0
   10.8388  -15.8887   23.5129 O   0  0  0  0  0  0  0  0  0  0  0  0
    9.8559  -13.9048   29.5384 N   0  0  0  0  0  0  0  0  0  0  0  0
    9.2616  -13.6497   28.2879 C   0  0  0  0  0  0  0  0  0  0  0  0
    8.5078  -12.6504   28.1832 O   0  0  0  0  0  0  0  0  0  0  0  0
    9.4827  -14.4968   27.1049 C   0  0  0  0  0  0  0  0  0  0  0  0
   10.3265  -15.7009   27.4266 C   0  0  0  0  0  0  0  0  0  0  0  0
   10.6367  -16.5144   26.2177 C   0  0  2  0  0  0  0  0  0  0  0  0
    9.5218  -16.4711   25.2986 N   0  0  0  0  0  0  0  0  0  0  0  0
   10.9634  -17.9167   26.4937 C   0  0  0  0  0  0  0  0  0  0  0  0
   12.1548  -18.2115   27.1351 O   0  0  0  0  0  0  0  0  0  0  0  0
   10.2308  -18.8859   26.1864 O   0  0  0  0  0  0  0  0  0  0  0  0
  2  1  1  6
  2  3  1  0
  2  4  1  0
  4  5  1  6
  6  4  1  0
  6  7  2  0
  8  6  1  0
  9  8  1  0
  9 10  1  0
 10 11  2  0
 10 18  1  0
 12 13  1  0
 13 14  2  0
 15 16  1  0
 15 13  1  0
 17 16  1  1
 17 19  1  0
 18 17  1  0
 19 21  2  0
 19 20  1  0
M  END
$$$$
