TGQ.pdb
     RDKit          3D

 21 20  0  0  1  0  0  0  0  0999 V2000
   10.6900  -14.2196   17.3746 C   0  0  0  0  0  0  0  0  0  0  0  0
   10.1338  -14.3734   18.7556 C   0  0  1  0  0  0  0  0  0  0  0  0
   10.7517  -13.5346   19.6634 O   0  0  0  0  0  0  0  0  0  0  0  0
    8.6368  -14.1649   18.6901 C   0  0  2  0  0  0  0  0  0  0  0  0
    8.2732  -12.8805   18.1785 N   0  0  0  0  0  0  0  0  0  0  0  0
    8.0012  -14.4099   19.9901 C   0  0  0  0  0  0  0  0  0  0  0  0
    7.0917  -13.6428   20.4455 O   0  0  0  0  0  0  0  0  0  0  0  0
    8.4114  -15.5310   20.7588 N   0  0  0  0  0  0  0  0  0  0  0  0
    7.6966  -15.8049   21.9875 C   0  0  0  0  0  0  0  0  0  0  0  0
    8.0065  -14.8240   23.0384 C   0  0  0  0  0  0  0  0  0  0  0  0
    7.6001  -13.6398   22.9527 O   0  0  0  0  0  0  0  0  0  0  0  0
    6.7565  -10.7831   26.9749 N   0  0  0  0  0  0  0  0  0  0  0  0
    6.5410  -12.1498   26.7149 C   0  0  0  0  0  0  0  0  0  0  0  0
    6.0297  -12.8520   27.6222 O   0  0  0  0  0  0  0  0  0  0  0  0
    6.8861  -12.7888   25.4348 C   0  0  0  0  0  0  0  0  0  0  0  0
    7.0691  -14.2756   25.5811 C   0  0  0  0  0  0  0  0  0  0  0  0
    8.4984  -14.6830   25.4792 C   0  0  2  0  0  0  0  0  0  0  0  0
    8.7664  -15.2048   24.1580 N   0  0  0  0  0  0  0  0  0  0  0  0
    8.9215  -15.6765   26.4710 C   0  0  0  0  0  0  0  0  0  0  0  0
    9.2863  -15.2451   27.7353 O   0  0  0  0  0  0  0  0  0  0  0  0
    8.9784  -16.9096   26.2550 O   0  0  0  0  0  0  0  0  0  0  0  0
  2  1  1  6
  2  3  1  0
  2  4  1  0
  4  5  1  1
  6  4  1  0
  6  7  2  0
  8  6  1  0
  9  8  1  0
  9 10  1  0
 10 11  2  0
 10 18  1  0
 12 13  1  0
 13 14  2  0
 15 16  1  0
 15 13  1  0
 17 16  1  6
 17 19  1  0
 18 17  1  0
 19 21  2  0
 19 20  1  0
M  END
$$$$
