TGQ.pdb
     RDKit          3D

 21 20  0  0  1  0  0  0  0  0999 V2000
    7.5296  -12.5716   18.7732 C   0  0  0  0  0  0  0  0  0  0  0  0
    8.7436  -13.2253   19.3554 C   0  0  1  0  0  0  0  0  0  0  0  0
    8.4376  -14.0171   20.4458 O   0  0  0  0  0  0  0  0  0  0  0  0
    9.4447  -13.9902   18.2544 C   0  0  2  0  0  0  0  0  0  0  0  0
    8.5663  -14.8497   17.5240 N   0  0  0  0  0  0  0  0  0  0  0  0
   10.6000  -14.7358   18.7675 C   0  0  0  0  0  0  0  0  0  0  0  0
   10.6347  -16.0092   18.7530 O   0  0  0  0  0  0  0  0  0  0  0  0
   11.7067  -14.0183   19.2933 N   0  0  0  0  0  0  0  0  0  0  0  0
   12.8215  -14.7821   19.8120 C   0  0  0  0  0  0  0  0  0  0  0  0
   12.5067  -15.4144   21.1019 C   0  0  0  0  0  0  0  0  0  0  0  0
   12.7329  -16.6339   21.2924 O   0  0  0  0  0  0  0  0  0  0  0  0
    6.5715  -15.8721   24.9288 N   0  0  0  0  0  0  0  0  0  0  0  0
    7.5123  -15.5920   23.9197 C   0  0  0  0  0  0  0  0  0  0  0  0
    7.0935  -15.1183   22.8343 O   0  0  0  0  0  0  0  0  0  0  0  0
    8.9563  -15.8280   24.0788 C   0  0  0  0  0  0  0  0  0  0  0  0
    9.7643  -15.0725   23.0581 C   0  0  0  0  0  0  0  0  0  0  0  0
   11.2301  -15.2672   23.2392 C   0  0  2  0  0  0  0  0  0  0  0  0
   11.9451  -14.6543   22.1424 N   0  0  0  0  0  0  0  0  0  0  0  0
   11.6503  -16.6675   23.3494 C   0  0  0  0  0  0  0  0  0  0  0  0
   11.3384  -17.5415   22.3215 O   0  0  0  0  0  0  0  0  0  0  0  0
   12.2823  -17.1404   24.3227 O   0  0  0  0  0  0  0  0  0  0  0  0
  2  1  1  6
  2  3  1  0
  2  4  1  0
  4  5  1  1
  6  4  1  0
  6  7  2  0
  8  6  1  0
  9  8  1  0
  9 10  1  0
 10 11  2  0
 10 18  1  0
 12 13  1  0
 13 14  2  0
 15 16  1  0
 15 13  1  0
 17 16  1  6
 17 19  1  0
 18 17  1  0
 19 21  2  0
 19 20  1  0
M  END
$$$$
