TGQ.pdb
     RDKit          3D

 21 20  0  0  1  0  0  0  0  0999 V2000
    9.0553  -12.5167   19.5288 C   0  0  0  0  0  0  0  0  0  0  0  0
    8.4057  -13.2291   18.3841 C   0  0  1  0  0  0  0  0  0  0  0  0
    8.7435  -12.6740   17.1646 O   0  0  0  0  0  0  0  0  0  0  0  0
    8.7585  -14.6973   18.4772 C   0  0  2  0  0  0  0  0  0  0  0  0
    8.3812  -15.4377   17.3140 N   0  0  0  0  0  0  0  0  0  0  0  0
    8.2033  -15.3090   19.6903 C   0  0  0  0  0  0  0  0  0  0  0  0
    6.9766  -15.6436   19.7698 O   0  0  0  0  0  0  0  0  0  0  0  0
    9.0562  -15.5331   20.8031 N   0  0  0  0  0  0  0  0  0  0  0  0
    8.4622  -16.0593   22.0138 C   0  0  0  0  0  0  0  0  0  0  0  0
    8.9983  -15.4111   23.2201 C   0  0  0  0  0  0  0  0  0  0  0  0
   10.0772  -14.7715   23.1809 O   0  0  0  0  0  0  0  0  0  0  0  0
    6.0468  -10.8605   26.3738 N   0  0  0  0  0  0  0  0  0  0  0  0
    6.2537  -12.2497   26.4704 C   0  0  0  0  0  0  0  0  0  0  0  0
    5.5187  -12.9052   27.2502 O   0  0  0  0  0  0  0  0  0  0  0  0
    7.2866  -12.9640   25.7031 C   0  0  0  0  0  0  0  0  0  0  0  0
    7.7224  -14.2296   26.3914 C   0  0  0  0  0  0  0  0  0  0  0  0
    8.8184  -14.9239   25.6593 C   0  0  2  0  0  0  0  0  0  0  0  0
    8.3031  -15.5016   24.4385 N   0  0  0  0  0  0  0  0  0  0  0  0
    9.4947  -15.9742   26.4268 C   0  0  0  0  0  0  0  0  0  0  0  0
   10.3668  -15.6066   27.4377 O   0  0  0  0  0  0  0  0  0  0  0  0
    9.3388  -17.2023   26.2320 O   0  0  0  0  0  0  0  0  0  0  0  0
  2  1  1  1
  2  3  1  0
  2  4  1  0
  4  5  1  6
  6  4  1  0
  6  7  2  0
  8  6  1  0
  9  8  1  0
  9 10  1  0
 10 11  2  0
 10 18  1  0
 12 13  1  0
 13 14  2  0
 15 16  1  0
 15 13  1  0
 17 16  1  1
 17 19  1  0
 18 17  1  0
 19 21  2  0
 19 20  1  0
M  END
$$$$
