TGQ.pdb
     RDKit          3D

 21 20  0  0  1  0  0  0  0  0999 V2000
   -4.3179  -19.2939   20.4129 C   0  0  0  0  0  0  0  0  0  0  0  0
   -3.3982  -20.1034   21.2725 C   0  0  1  0  0  0  0  0  0  0  0  0
   -2.1624  -20.2900   20.6832 O   0  0  0  0  0  0  0  0  0  0  0  0
   -3.3064  -19.4373   22.6278 C   0  0  2  0  0  0  0  0  0  0  0  0
   -2.1698  -19.8621   23.3835 N   0  0  0  0  0  0  0  0  0  0  0  0
   -4.5429  -19.6117   23.3988 C   0  0  0  0  0  0  0  0  0  0  0  0
   -5.6699  -19.2173   22.9545 O   0  0  0  0  0  0  0  0  0  0  0  0
   -4.4802  -20.2361   24.6724 N   0  0  0  0  0  0  0  0  0  0  0  0
   -5.7280  -20.4986   25.3578 C   0  0  0  0  0  0  0  0  0  0  0  0
   -5.9895  -21.9388   25.4989 C   0  0  0  0  0  0  0  0  0  0  0  0
   -5.3913  -22.7746   24.7789 O   0  0  0  0  0  0  0  0  0  0  0  0
   -3.4234  -25.5118   28.0098 N   0  0  0  0  0  0  0  0  0  0  0  0
   -4.1481  -24.6533   28.8582 C   0  0  0  0  0  0  0  0  0  0  0  0
   -3.6884  -24.4271   30.0050 O   0  0  0  0  0  0  0  0  0  0  0  0
   -5.4131  -24.0128   28.4636 C   0  0  0  0  0  0  0  0  0  0  0  0
   -5.8646  -24.4563   27.0980 C   0  0  0  0  0  0  0  0  0  0  0  0
   -7.1401  -23.8070   26.6846 C   0  0  2  0  0  0  0  0  0  0  0  0
   -6.9187  -22.3981   26.4485 N   0  0  0  0  0  0  0  0  0  0  0  0
   -8.2387  -23.9552   27.6440 C   0  0  0  0  0  0  0  0  0  0  0  0
   -8.7136  -25.2253   27.9251 O   0  0  0  0  0  0  0  0  0  0  0  0
   -8.7898  -23.0000   28.2393 O   0  0  0  0  0  0  0  0  0  0  0  0
  2  1  1  6
  2  3  1  0
  2  4  1  0
  4  5  1  1
  6  4  1  0
  6  7  2  0
  8  6  1  0
  9  8  1  0
  9 10  1  0
 10 11  2  0
 10 18  1  0
 12 13  1  0
 13 14  2  0
 15 16  1  0
 15 13  1  0
 17 16  1  1
 17 19  1  0
 18 17  1  0
 19 21  2  0
 19 20  1  0
M  END
$$$$
