VVG.pdb
     RDKit          3D

 19 18  0  0  1  0  0  0  0  0999 V2000
    7.6120  -19.7030   29.0365 C   0  0  0  0  0  0  0  0  0  0  0  0
    7.9548  -18.9134   27.8214 C   0  0  1  0  0  0  0  0  0  0  0  0
    9.1825  -19.4301   27.1627 C   0  0  0  0  0  0  0  0  0  0  0  0
    6.8236  -18.7169   26.8562 C   0  0  2  0  0  0  0  0  0  0  0  0
    6.5080  -20.0235   26.2392 N   0  0  0  0  0  0  0  0  0  0  0  0
    7.1189  -17.7958   25.7364 C   0  0  0  0  0  0  0  0  0  0  0  0
    7.6756  -18.2443   24.6847 O   0  0  0  0  0  0  0  0  0  0  0  0
    6.9423  -13.5489   26.3046 C   0  0  0  0  0  0  0  0  0  0  0  0
    6.7002  -14.1084   24.9047 C   0  0  1  0  0  0  0  0  0  0  0  0
    7.2155  -13.1156   23.9162 C   0  0  0  0  0  0  0  0  0  0  0  0
    7.3509  -15.4760   24.7671 C   0  0  2  0  0  0  0  0  0  0  0  0
    6.8296  -16.4132   25.7232 N   0  0  0  0  0  0  0  0  0  0  0  0
    8.8213  -15.2700   24.9394 C   0  0  0  0  0  0  0  0  0  0  0  0
    9.3105  -14.8443   26.0178 O   0  0  0  0  0  0  0  0  0  0  0  0
    9.7090  -15.5571   23.8670 N   0  0  0  0  0  0  0  0  0  0  0  0
   11.1238  -15.3809   23.9321 C   0  0  0  0  0  0  0  0  0  0  0  0
   11.7574  -15.7366   22.6426 C   0  0  0  0  0  0  0  0  0  0  0  0
   11.1062  -16.4325   21.8280 O   0  0  0  0  0  0  0  0  0  0  0  0
   13.0354  -15.3425   22.2828 O   0  0  0  0  0  0  0  0  0  0  0  0
  2  1  1  1
  3  2  1  0
  4  2  1  0
  4  5  1  6
  6  4  1  0
  7  6  2  0
  9  8  1  1
  9 11  1  0
 10  9  1  0
 11 13  1  0
 11 12  1  1
 12  6  1  0
 13 15  1  0
 14 13  2  0
 15 16  1  0
 17 16  1  0
 18 17  2  0
 19 17  1  0
M  END
$$$$
