VVG.pdb
     RDKit          3D

 19 18  0  0  1  0  0  0  0  0999 V2000
    7.2515  -18.1154   24.3949 C   0  0  0  0  0  0  0  0  0  0  0  0
    7.1785  -17.7576   22.9513 C   0  0  1  0  0  0  0  0  0  0  0  0
    6.5216  -18.8272   22.1561 C   0  0  0  0  0  0  0  0  0  0  0  0
    6.6121  -16.3984   22.6656 C   0  0  2  0  0  0  0  0  0  0  0  0
    6.7263  -16.1443   21.2130 N   0  0  0  0  0  0  0  0  0  0  0  0
    7.3167  -15.2816   23.3334 C   0  0  0  0  0  0  0  0  0  0  0  0
    8.4112  -14.8512   22.8499 O   0  0  0  0  0  0  0  0  0  0  0  0
    6.0705  -13.8042   27.1534 C   0  0  0  0  0  0  0  0  0  0  0  0
    6.7202  -12.8349   26.1685 C   0  0  1  0  0  0  0  0  0  0  0  0
    7.4697  -11.8117   26.9557 C   0  0  0  0  0  0  0  0  0  0  0  0
    7.6023  -13.5946   25.1901 C   0  0  2  0  0  0  0  0  0  0  0  0
    6.8720  -14.6222   24.5009 N   0  0  0  0  0  0  0  0  0  0  0  0
    8.7355  -14.1593   25.9845 C   0  0  0  0  0  0  0  0  0  0  0  0
    9.5429  -13.4215   26.6070 O   0  0  0  0  0  0  0  0  0  0  0  0
    8.9239  -15.5666   26.0515 N   0  0  0  0  0  0  0  0  0  0  0  0
   10.0275  -16.1947   26.7030 C   0  0  0  0  0  0  0  0  0  0  0  0
    9.6004  -16.8194   27.9751 C   0  0  0  0  0  0  0  0  0  0  0  0
    8.4308  -17.2627   28.0607 O   0  0  0  0  0  0  0  0  0  0  0  0
   10.4236  -16.9427   29.0820 O   0  0  0  0  0  0  0  0  0  0  0  0
  2  1  1  1
  3  2  1  0
  4  2  1  0
  4  5  1  6
  6  4  1  0
  7  6  2  0
  9  8  1  1
  9 11  1  0
 10  9  1  0
 11 13  1  0
 11 12  1  1
 12  6  1  0
 13 15  1  0
 14 13  2  0
 15 16  1  0
 17 16  1  0
 18 17  2  0
 19 17  1  0
M  END
$$$$
