VVG.pdb
     RDKit          3D

 19 18  0  0  1  0  0  0  0  0999 V2000
    5.7107  -16.3731   21.8972 C   0  0  0  0  0  0  0  0  0  0  0  0
    6.8463  -15.9507   21.0317 C   0  0  1  0  0  0  0  0  0  0  0  0
    6.4961  -16.0373   19.5902 C   0  0  0  0  0  0  0  0  0  0  0  0
    7.4612  -14.6320   21.3959 C   0  0  2  0  0  0  0  0  0  0  0  0
    8.6386  -14.4136   20.5277 N   0  0  0  0  0  0  0  0  0  0  0  0
    7.9564  -14.5435   22.7874 C   0  0  0  0  0  0  0  0  0  0  0  0
    9.0339  -15.1371   23.1094 O   0  0  0  0  0  0  0  0  0  0  0  0
    5.6016  -12.8234   25.9592 C   0  0  0  0  0  0  0  0  0  0  0  0
    7.1228  -12.6946   25.9907 C   0  0  1  0  0  0  0  0  0  0  0  0
    7.5533  -12.6664   27.4197 C   0  0  0  0  0  0  0  0  0  0  0  0
    7.7611  -13.8263   25.2004 C   0  0  2  0  0  0  0  0  0  0  0  0
    7.3227  -13.8347   23.8322 N   0  0  0  0  0  0  0  0  0  0  0  0
    7.4025  -15.0954   25.9040 C   0  0  0  0  0  0  0  0  0  0  0  0
    6.2195  -15.5227   25.9414 O   0  0  0  0  0  0  0  0  0  0  0  0
    8.4116  -15.8557   26.5554 N   0  0  0  0  0  0  0  0  0  0  0  0
    8.1652  -17.0714   27.2612 C   0  0  0  0  0  0  0  0  0  0  0  0
    9.3994  -17.5565   27.9187 C   0  0  0  0  0  0  0  0  0  0  0  0
   10.4791  -16.9687   27.6723 O   0  0  0  0  0  0  0  0  0  0  0  0
    9.4296  -18.6283   28.7953 O   0  0  0  0  0  0  0  0  0  0  0  0
  2  1  1  1
  3  2  1  0
  4  2  1  0
  4  5  1  6
  6  4  1  0
  7  6  2  0
  9  8  1  1
  9 11  1  0
 10  9  1  0
 11 13  1  0
 11 12  1  6
 12  6  1  0
 13 15  1  0
 14 13  2  0
 15 16  1  0
 17 16  1  0
 18 17  2  0
 19 17  1  0
M  END
$$$$
