VVG.pdb
     RDKit          3D

 19 18  0  0  1  0  0  0  0  0999 V2000
    6.4046  -15.5765   21.1285 C   0  0  0  0  0  0  0  0  0  0  0  0
    7.2946  -14.5915   20.4541 C   0  0  1  0  0  0  0  0  0  0  0  0
    6.8979  -14.3766   19.0383 C   0  0  0  0  0  0  0  0  0  0  0  0
    7.4898  -13.3038   21.1983 C   0  0  2  0  0  0  0  0  0  0  0  0
    8.4399  -12.4661   20.4346 N   0  0  0  0  0  0  0  0  0  0  0  0
    8.0710  -13.4530   22.5509 C   0  0  0  0  0  0  0  0  0  0  0  0
    9.3130  -13.6947   22.6774 O   0  0  0  0  0  0  0  0  0  0  0  0
    7.4699  -11.2743   25.9279 C   0  0  0  0  0  0  0  0  0  0  0  0
    7.1932  -12.7617   26.1343 C   0  0  1  0  0  0  0  0  0  0  0  0
    5.7137  -12.9598   26.1322 C   0  0  0  0  0  0  0  0  0  0  0  0
    7.9033  -13.5799   25.0670 C   0  0  2  0  0  0  0  0  0  0  0  0
    7.3504  -13.3477   23.7613 N   0  0  0  0  0  0  0  0  0  0  0  0
    7.7797  -15.0131   25.4731 C   0  0  0  0  0  0  0  0  0  0  0  0
    6.6853  -15.6305   25.4060 O   0  0  0  0  0  0  0  0  0  0  0  0
    8.9187  -15.7163   25.9514 N   0  0  0  0  0  0  0  0  0  0  0  0
    8.9045  -17.0893   26.3408 C   0  0  0  0  0  0  0  0  0  0  0  0
   10.2191  -17.4940   26.8874 C   0  0  0  0  0  0  0  0  0  0  0  0
   11.1498  -16.6541   26.8905 O   0  0  0  0  0  0  0  0  0  0  0  0
   10.4807  -18.7543   27.3985 O   0  0  0  0  0  0  0  0  0  0  0  0
  2  1  1  1
  3  2  1  0
  4  2  1  0
  4  5  1  6
  6  4  1  0
  7  6  2  0
  9  8  1  6
  9 11  1  0
 10  9  1  0
 11 13  1  0
 11 12  1  6
 12  6  1  0
 13 15  1  0
 14 13  2  0
 15 16  1  0
 17 16  1  0
 18 17  2  0
 19 17  1  0
M  END
$$$$
