VVG.pdb
     RDKit          3D

 19 18  0  0  1  0  0  0  0  0999 V2000
    6.2233  -16.9955   22.0937 C   0  0  0  0  0  0  0  0  0  0  0  0
    7.1350  -16.2620   21.1728 C   0  0  1  0  0  0  0  0  0  0  0  0
    6.7888  -16.5101   19.7492 C   0  0  0  0  0  0  0  0  0  0  0  0
    7.3009  -14.8028   21.4783 C   0  0  2  0  0  0  0  0  0  0  0  0
    8.3244  -14.2509   20.5643 N   0  0  0  0  0  0  0  0  0  0  0  0
    7.7739  -14.5076   22.8490 C   0  0  0  0  0  0  0  0  0  0  0  0
    8.9953  -14.6988   23.1464 O   0  0  0  0  0  0  0  0  0  0  0  0
    7.1295  -12.6398   27.4168 C   0  0  0  0  0  0  0  0  0  0  0  0
    6.5527  -12.8643   26.0210 C   0  0  1  0  0  0  0  0  0  0  0  0
    6.4841  -11.5416   25.3325 C   0  0  0  0  0  0  0  0  0  0  0  0
    7.3904  -13.8842   25.2654 C   0  0  2  0  0  0  0  0  0  0  0  0
    6.9674  -14.0141   23.8985 N   0  0  0  0  0  0  0  0  0  0  0  0
    7.2660  -15.1753   26.0081 C   0  0  0  0  0  0  0  0  0  0  0  0
    6.1516  -15.7292   26.1954 O   0  0  0  0  0  0  0  0  0  0  0  0
    8.4270  -15.8117   26.5255 N   0  0  0  0  0  0  0  0  0  0  0  0
    8.4152  -17.0696   27.1996 C   0  0  0  0  0  0  0  0  0  0  0  0
    9.7720  -17.4250   27.6724 C   0  0  0  0  0  0  0  0  0  0  0  0
   10.7118  -17.4324   26.8426 O   0  0  0  0  0  0  0  0  0  0  0  0
   10.0640  -17.7514   28.9863 O   0  0  0  0  0  0  0  0  0  0  0  0
  2  1  1  1
  3  2  1  0
  4  2  1  0
  4  5  1  6
  6  4  1  0
  7  6  2  0
  9  8  1  1
  9 11  1  0
 10  9  1  0
 11 13  1  0
 11 12  1  6
 12  6  1  0
 13 15  1  0
 14 13  2  0
 15 16  1  0
 17 16  1  0
 18 17  2  0
 19 17  1  0
M  END
$$$$
