VVG.pdb
     RDKit          3D

 19 18  0  0  1  0  0  0  0  0999 V2000
   11.5830  -15.8970   29.3154 C   0  0  0  0  0  0  0  0  0  0  0  0
   10.6997  -15.8420   28.1179 C   0  0  1  0  0  0  0  0  0  0  0  0
   11.1628  -16.7707   27.0544 C   0  0  0  0  0  0  0  0  0  0  0  0
    9.2347  -15.9836   28.4069 C   0  0  2  0  0  0  0  0  0  0  0  0
    8.9732  -17.3844   28.8030 N   0  0  0  0  0  0  0  0  0  0  0  0
    8.3476  -15.7115   27.2543 C   0  0  0  0  0  0  0  0  0  0  0  0
    7.7789  -16.6796   26.6574 O   0  0  0  0  0  0  0  0  0  0  0  0
    5.8318  -12.5098   27.0313 C   0  0  0  0  0  0  0  0  0  0  0  0
    6.5997  -12.7389   25.7315 C   0  0  1  0  0  0  0  0  0  0  0  0
    7.6837  -11.7157   25.6504 C   0  0  0  0  0  0  0  0  0  0  0  0
    7.1242  -14.1653   25.6771 C   0  0  2  0  0  0  0  0  0  0  0  0
    8.0605  -14.4298   26.7343 N   0  0  0  0  0  0  0  0  0  0  0  0
    7.7469  -14.3415   24.3297 C   0  0  0  0  0  0  0  0  0  0  0  0
    7.0690  -14.2784   23.2713 O   0  0  0  0  0  0  0  0  0  0  0  0
    9.1424  -14.5881   24.2191 N   0  0  0  0  0  0  0  0  0  0  0  0
    9.8514  -14.6253   22.9810 C   0  0  0  0  0  0  0  0  0  0  0  0
   10.0397  -16.0208   22.5251 C   0  0  0  0  0  0  0  0  0  0  0  0
    9.5706  -16.9478   23.2269 O   0  0  0  0  0  0  0  0  0  0  0  0
   10.7081  -16.3626   21.3613 O   0  0  0  0  0  0  0  0  0  0  0  0
  2  1  1  1
  3  2  1  0
  4  2  1  0
  4  5  1  6
  6  4  1  0
  7  6  2  0
  9  8  1  1
  9 11  1  0
 10  9  1  0
 11 13  1  0
 11 12  1  1
 12  6  1  0
 13 15  1  0
 14 13  2  0
 15 16  1  0
 17 16  1  0
 18 17  2  0
 19 17  1  0
M  END
$$$$
