VVG.pdb
     RDKit          3D

 19 18  0  0  1  0  0  0  0  0999 V2000
    5.9929  -18.8043   25.0882 C   0  0  0  0  0  0  0  0  0  0  0  0
    6.2878  -18.6008   23.6430 C   0  0  1  0  0  0  0  0  0  0  0  0
    5.4551  -19.4841   22.7859 C   0  0  0  0  0  0  0  0  0  0  0  0
    6.2648  -17.1714   23.1890 C   0  0  2  0  0  0  0  0  0  0  0  0
    6.6574  -17.1309   21.7636 N   0  0  0  0  0  0  0  0  0  0  0  0
    7.2096  -16.2814   23.8996 C   0  0  0  0  0  0  0  0  0  0  0  0
    8.4547  -16.3643   23.6553 O   0  0  0  0  0  0  0  0  0  0  0  0
    5.8759  -13.5190   26.8951 C   0  0  0  0  0  0  0  0  0  0  0  0
    7.1477  -13.2227   26.1038 C   0  0  1  0  0  0  0  0  0  0  0  0
    8.0588  -12.4256   26.9773 C   0  0  0  0  0  0  0  0  0  0  0  0
    7.7760  -14.5191   25.6167 C   0  0  2  0  0  0  0  0  0  0  0  0
    6.8464  -15.3106   24.8594 N   0  0  0  0  0  0  0  0  0  0  0  0
    8.2587  -15.2440   26.8315 C   0  0  0  0  0  0  0  0  0  0  0  0
    7.4651  -15.6670   27.7117 O   0  0  0  0  0  0  0  0  0  0  0  0
    9.6495  -15.4723   27.0164 N   0  0  0  0  0  0  0  0  0  0  0  0
   10.2054  -16.1448   28.1459 C   0  0  0  0  0  0  0  0  0  0  0  0
   11.6837  -16.1590   28.0736 C   0  0  0  0  0  0  0  0  0  0  0  0
   12.2393  -15.6272   27.0835 O   0  0  0  0  0  0  0  0  0  0  0  0
   12.4923  -16.7292   29.0426 O   0  0  0  0  0  0  0  0  0  0  0  0
  2  1  1  1
  3  2  1  0
  4  2  1  0
  4  5  1  6
  6  4  1  0
  7  6  2  0
  9  8  1  1
  9 11  1  0
 10  9  1  0
 11 13  1  0
 11 12  1  1
 12  6  1  0
 13 15  1  0
 14 13  2  0
 15 16  1  0
 17 16  1  0
 18 17  2  0
 19 17  1  0
M  END
$$$$
