VVG.pdb
     RDKit          3D

 19 18  0  0  1  0  0  0  0  0999 V2000
    6.8054  -16.9626   22.9726 C   0  0  0  0  0  0  0  0  0  0  0  0
    7.3581  -16.1382   21.8626 C   0  0  1  0  0  0  0  0  0  0  0  0
    6.8729  -16.6084   20.5392 C   0  0  0  0  0  0  0  0  0  0  0  0
    7.2031  -14.6567   22.0387 C   0  0  2  0  0  0  0  0  0  0  0  0
    7.8252  -13.9840   20.8776 N   0  0  0  0  0  0  0  0  0  0  0  0
    7.8696  -14.1033   23.2383 C   0  0  0  0  0  0  0  0  0  0  0  0
    9.1296  -13.9318   23.2336 O   0  0  0  0  0  0  0  0  0  0  0  0
    6.6070  -11.0631   25.7165 C   0  0  0  0  0  0  0  0  0  0  0  0
    6.9366  -12.3635   26.4457 C   0  0  1  0  0  0  0  0  0  0  0  0
    5.6507  -13.0515   26.7645 C   0  0  0  0  0  0  0  0  0  0  0  0
    7.8722  -13.2150   25.6018 C   0  0  2  0  0  0  0  0  0  0  0  0
    7.2147  -13.7322   24.4337 N   0  0  0  0  0  0  0  0  0  0  0  0
    8.3696  -14.3114   26.4876 C   0  0  0  0  0  0  0  0  0  0  0  0
    8.9392  -14.0727   27.5840 O   0  0  0  0  0  0  0  0  0  0  0  0
    8.2042  -15.6686   26.0989 N   0  0  0  0  0  0  0  0  0  0  0  0
    8.5056  -16.7826   26.9387 C   0  0  0  0  0  0  0  0  0  0  0  0
    9.8821  -17.2683   26.6933 C   0  0  0  0  0  0  0  0  0  0  0  0
   10.5835  -16.6729   25.8416 O   0  0  0  0  0  0  0  0  0  0  0  0
   10.4422  -18.3486   27.3544 O   0  0  0  0  0  0  0  0  0  0  0  0
  2  1  1  1
  3  2  1  0
  4  2  1  0
  4  5  1  6
  6  4  1  0
  7  6  2  0
  9  8  1  6
  9 11  1  0
 10  9  1  0
 11 13  1  0
 11 12  1  6
 12  6  1  0
 13 15  1  0
 14 13  2  0
 15 16  1  0
 17 16  1  0
 18 17  2  0
 19 17  1  0
M  END
$$$$
