VVG.pdb
     RDKit          3D

 19 18  0  0  1  0  0  0  0  0999 V2000
    5.9571  -15.8918   19.8998 C   0  0  0  0  0  0  0  0  0  0  0  0
    6.6772  -15.7200   21.1918 C   0  0  1  0  0  0  0  0  0  0  0  0
    7.5611  -16.8786   21.4826 C   0  0  0  0  0  0  0  0  0  0  0  0
    7.3812  -14.4052   21.3523 C   0  0  2  0  0  0  0  0  0  0  0  0
    8.4616  -14.3315   20.3448 N   0  0  0  0  0  0  0  0  0  0  0  0
    8.0323  -14.2085   22.6664 C   0  0  0  0  0  0  0  0  0  0  0  0
    9.2498  -14.5418   22.8200 O   0  0  0  0  0  0  0  0  0  0  0  0
    5.8456  -13.1065   26.2619 C   0  0  0  0  0  0  0  0  0  0  0  0
    7.2649  -12.6016   26.0123 C   0  0  1  0  0  0  0  0  0  0  0  0
    7.9257  -12.4110   27.3371 C   0  0  0  0  0  0  0  0  0  0  0  0
    8.0139  -13.5687   25.1088 C   0  0  2  0  0  0  0  0  0  0  0  0
    7.4069  -13.6641   23.8100 N   0  0  0  0  0  0  0  0  0  0  0  0
    8.0275  -14.8880   25.8113 C   0  0  0  0  0  0  0  0  0  0  0  0
    6.9663  -15.5089   26.0791 O   0  0  0  0  0  0  0  0  0  0  0  0
    9.2637  -15.4749   26.1961 N   0  0  0  0  0  0  0  0  0  0  0  0
    9.3841  -16.7680   26.7878 C   0  0  0  0  0  0  0  0  0  0  0  0
   10.0242  -16.6788   28.1195 C   0  0  0  0  0  0  0  0  0  0  0  0
   10.4008  -15.5550   28.5281 O   0  0  0  0  0  0  0  0  0  0  0  0
   10.2317  -17.7720   28.9441 O   0  0  0  0  0  0  0  0  0  0  0  0
  2  1  1  6
  3  2  1  0
  4  2  1  0
  4  5  1  6
  6  4  1  0
  7  6  2  0
  9  8  1  1
  9 11  1  0
 10  9  1  0
 11 13  1  0
 11 12  1  6
 12  6  1  0
 13 15  1  0
 14 13  2  0
 15 16  1  0
 17 16  1  0
 18 17  2  0
 19 17  1  0
M  END
$$$$
