VVG.pdb
     RDKit          3D

 19 18  0  0  1  0  0  0  0  0999 V2000
    8.1260  -17.2606   22.6392 C   0  0  0  0  0  0  0  0  0  0  0  0
    7.8556  -16.3443   21.4971 C   0  0  1  0  0  0  0  0  0  0  0  0
    7.3585  -17.0849   20.3086 C   0  0  0  0  0  0  0  0  0  0  0  0
    7.0054  -15.1543   21.8300 C   0  0  2  0  0  0  0  0  0  0  0  0
    6.8464  -14.3406   20.6051 N   0  0  0  0  0  0  0  0  0  0  0  0
    7.5795  -14.2499   22.8508 C   0  0  0  0  0  0  0  0  0  0  0  0
    8.5168  -13.4535   22.5282 O   0  0  0  0  0  0  0  0  0  0  0  0
    7.5187  -12.3430   27.4747 C   0  0  0  0  0  0  0  0  0  0  0  0
    6.7833  -12.9600   26.2872 C   0  0  1  0  0  0  0  0  0  0  0  0
    5.7602  -11.9792   25.8187 C   0  0  0  0  0  0  0  0  0  0  0  0
    7.7745  -13.3484   25.2012 C   0  0  2  0  0  0  0  0  0  0  0  0
    7.1694  -14.1838   24.2010 N   0  0  0  0  0  0  0  0  0  0  0  0
    8.9105  -14.0385   25.8850 C   0  0  0  0  0  0  0  0  0  0  0  0
    9.6548  -13.4401   26.7044 O   0  0  0  0  0  0  0  0  0  0  0  0
    9.1742  -15.4091   25.6159 N   0  0  0  0  0  0  0  0  0  0  0  0
   10.3219  -16.1105   26.0931 C   0  0  0  0  0  0  0  0  0  0  0  0
   10.0092  -16.8416   27.3415 C   0  0  0  0  0  0  0  0  0  0  0  0
    8.8448  -16.7705   27.8007 O   0  0  0  0  0  0  0  0  0  0  0  0
   10.9347  -17.6038   28.0348 O   0  0  0  0  0  0  0  0  0  0  0  0
  2  1  1  1
  3  2  1  0
  4  2  1  0
  4  5  1  6
  6  4  1  0
  7  6  2  0
  9  8  1  1
  9 11  1  0
 10  9  1  0
 11 13  1  0
 11 12  1  6
 12  6  1  0
 13 15  1  0
 14 13  2  0
 15 16  1  0
 17 16  1  0
 18 17  2  0
 19 17  1  0
M  END
$$$$
