VVG.pdb
     RDKit          3D

 19 18  0  0  1  0  0  0  0  0999 V2000
    6.5535  -11.6592   27.0128 C   0  0  0  0  0  0  0  0  0  0  0  0
    7.2634  -12.7024   26.2222 C   0  0  1  0  0  0  0  0  0  0  0  0
    8.3623  -13.3265   27.0038 C   0  0  0  0  0  0  0  0  0  0  0  0
    6.3714  -13.7180   25.5722 C   0  0  2  0  0  0  0  0  0  0  0  0
    5.7734  -14.5571   26.6333 N   0  0  0  0  0  0  0  0  0  0  0  0
    7.0619  -14.6501   24.6534 C   0  0  0  0  0  0  0  0  0  0  0  0
    7.2381  -15.8601   25.0023 O   0  0  0  0  0  0  0  0  0  0  0  0
    8.5887  -15.7203   20.0185 C   0  0  0  0  0  0  0  0  0  0  0  0
    8.0224  -14.6993   21.0025 C   0  0  1  0  0  0  0  0  0  0  0  0
    6.6414  -14.3477   20.5580 C   0  0  0  0  0  0  0  0  0  0  0  0
    8.0674  -15.2544   22.4177 C   0  0  2  0  0  0  0  0  0  0  0  0
    7.5624  -14.3112   23.3767 N   0  0  0  0  0  0  0  0  0  0  0  0
    9.4922  -15.6132   22.6919 C   0  0  0  0  0  0  0  0  0  0  0  0
   10.1278  -16.4158   21.9602 O   0  0  0  0  0  0  0  0  0  0  0  0
   10.1664  -15.0426   23.8056 N   0  0  0  0  0  0  0  0  0  0  0  0
   11.5475  -15.2536   24.0973 C   0  0  0  0  0  0  0  0  0  0  0  0
   11.8288  -16.6934   24.2943 C   0  0  0  0  0  0  0  0  0  0  0  0
   11.0066  -17.3797   24.9462 O   0  0  0  0  0  0  0  0  0  0  0  0
   12.9543  -17.3288   23.7970 O   0  0  0  0  0  0  0  0  0  0  0  0
  2  1  1  1
  3  2  1  0
  4  2  1  0
  4  5  1  1
  6  4  1  0
  7  6  2  0
  9  8  1  6
  9 11  1  0
 10  9  1  0
 11 13  1  0
 11 12  1  1
 12  6  1  0
 13 15  1  0
 14 13  2  0
 15 16  1  0
 17 16  1  0
 18 17  2  0
 19 17  1  0
M  END
$$$$
