VVG.pdb
     RDKit          3D

 19 18  0  0  1  0  0  0  0  0999 V2000
    8.0741  -18.8365   26.9849 C   0  0  0  0  0  0  0  0  0  0  0  0
    7.1563  -19.2782   25.8987 C   0  0  1  0  0  0  0  0  0  0  0  0
    6.4166  -20.5104   26.2760 C   0  0  0  0  0  0  0  0  0  0  0  0
    6.2537  -18.2078   25.3605 C   0  0  2  0  0  0  0  0  0  0  0  0
    5.5319  -18.7544   24.1910 N   0  0  0  0  0  0  0  0  0  0  0  0
    6.9510  -16.9940   24.8809 C   0  0  0  0  0  0  0  0  0  0  0  0
    7.5864  -17.0287   23.7800 O   0  0  0  0  0  0  0  0  0  0  0  0
    5.8517  -13.3393   25.9856 C   0  0  0  0  0  0  0  0  0  0  0  0
    7.3732  -13.3546   25.8578 C   0  0  1  0  0  0  0  0  0  0  0  0
    7.9519  -13.1496   27.2185 C   0  0  0  0  0  0  0  0  0  0  0  0
    7.8315  -14.6502   25.2066 C   0  0  2  0  0  0  0  0  0  0  0  0
    6.9785  -15.7527   25.5547 N   0  0  0  0  0  0  0  0  0  0  0  0
    9.2400  -14.8785   25.6519 C   0  0  0  0  0  0  0  0  0  0  0  0
    9.5505  -14.9359   26.8700 O   0  0  0  0  0  0  0  0  0  0  0  0
   10.2725  -15.0377   24.6880 N   0  0  0  0  0  0  0  0  0  0  0  0
   11.6316  -15.3270   25.0135 C   0  0  0  0  0  0  0  0  0  0  0  0
   12.4397  -15.5034   23.7860 C   0  0  0  0  0  0  0  0  0  0  0  0
   11.8447  -15.7231   22.7046 O   0  0  0  0  0  0  0  0  0  0  0  0
   13.8230  -15.4392   23.7641 O   0  0  0  0  0  0  0  0  0  0  0  0
  2  1  1  1
  3  2  1  0
  4  2  1  0
  4  5  1  6
  6  4  1  0
  7  6  2  0
  9  8  1  1
  9 11  1  0
 10  9  1  0
 11 13  1  0
 11 12  1  1
 12  6  1  0
 13 15  1  0
 14 13  2  0
 15 16  1  0
 17 16  1  0
 18 17  2  0
 19 17  1  0
M  END
$$$$
