VVG.pdb
     RDKit          3D

 19 18  0  0  1  0  0  0  0  0999 V2000
    6.2259  -17.2143   22.2288 C   0  0  0  0  0  0  0  0  0  0  0  0
    7.1455  -16.5455   21.2675 C   0  0  1  0  0  0  0  0  0  0  0  0
    6.7781  -16.8477   19.8598 C   0  0  0  0  0  0  0  0  0  0  0  0
    7.3507  -15.0789   21.5060 C   0  0  2  0  0  0  0  0  0  0  0  0
    8.3912  -14.5980   20.5712 N   0  0  0  0  0  0  0  0  0  0  0  0
    7.8283  -14.7337   22.8633 C   0  0  0  0  0  0  0  0  0  0  0  0
    9.0491  -14.9212   23.1659 O   0  0  0  0  0  0  0  0  0  0  0  0
    7.2068  -12.6220   27.3286 C   0  0  0  0  0  0  0  0  0  0  0  0
    6.6272  -12.9213   25.9480 C   0  0  1  0  0  0  0  0  0  0  0  0
    6.5522  -11.6366   25.1915 C   0  0  0  0  0  0  0  0  0  0  0  0
    7.4667  -13.9765   25.2446 C   0  0  2  0  0  0  0  0  0  0  0  0
    7.0271  -14.1944   23.8942 N   0  0  0  0  0  0  0  0  0  0  0  0
    7.3670  -15.2209   26.0665 C   0  0  0  0  0  0  0  0  0  0  0  0
    6.2579  -15.7471   26.3434 O   0  0  0  0  0  0  0  0  0  0  0  0
    8.5464  -15.8432   26.5588 N   0  0  0  0  0  0  0  0  0  0  0  0
    8.5514  -17.0207   27.3653 C   0  0  0  0  0  0  0  0  0  0  0  0
    9.9305  -17.3745   27.7698 C   0  0  0  0  0  0  0  0  0  0  0  0
   10.8848  -16.7438   27.2567 O   0  0  0  0  0  0  0  0  0  0  0  0
   10.2282  -18.3679   28.6877 O   0  0  0  0  0  0  0  0  0  0  0  0
  2  1  1  1
  3  2  1  0
  4  2  1  0
  4  5  1  6
  6  4  1  0
  7  6  2  0
  9  8  1  1
  9 11  1  0
 10  9  1  0
 11 13  1  0
 11 12  1  6
 12  6  1  0
 13 15  1  0
 14 13  2  0
 15 16  1  0
 17 16  1  0
 18 17  2  0
 19 17  1  0
M  END
$$$$
