DQY.pdb
     RDKit          3D

 30 30  0  0  1  0  0  0  0  0999 V2000
   21.7588  -11.5247  -18.2123 N   0  0  0  0  0  0  0  0  0  0  0  0
   22.0879  -10.1218  -18.3459 C   0  0  1  0  0  0  0  0  0  0  0  0
   21.6649   -9.6774  -19.7337 C   0  0  0  0  0  0  0  0  0  0  0  0
   22.5140  -10.3417  -20.7468 C   0  0  0  0  0  0  0  0  0  0  0  0
   21.9876  -11.1622  -21.5329 O   0  0  0  0  0  0  0  0  0  0  0  0
   21.3106   -9.3720  -17.3267 C   0  0  0  0  0  0  0  0  0  0  0  0
   20.6686   -9.9849  -16.4641 O   0  0  0  0  0  0  0  0  0  0  0  0
   23.8719  -10.0848  -20.8532 O   0  0  0  0  0  0  0  0  0  0  0  0
   17.9024   -7.7743  -12.8333 N   0  0  0  0  0  0  0  0  0  0  0  0
   19.2931   -8.0798  -12.9567 C   0  0  0  0  0  0  0  0  0  0  0  0
   19.7040   -9.0700  -12.3613 O   0  0  0  0  0  0  0  0  0  0  0  0
   20.1161   -7.2074  -13.7674 C   0  0  0  0  0  0  0  0  0  0  0  0
   20.8538   -7.7542  -14.9205 C   0  0  0  0  0  0  0  0  0  0  0  0
   20.6249   -7.1815  -16.2659 C   0  0  2  0  0  0  0  0  0  0  0  0
   21.2798   -7.9450  -17.3100 N   0  0  0  0  0  0  0  0  0  0  0  0
   20.7790   -5.7312  -16.3634 C   0  0  0  0  0  0  0  0  0  0  0  0
   21.8974   -5.1366  -16.3536 O   0  0  0  0  0  0  0  0  0  0  0  0
   14.9597   -4.8904  -20.6775 O   0  0  0  0  0  0  0  0  0  0  0  0
   16.1376   -4.4531  -20.0725 C   0  0  0  0  0  0  0  0  0  0  0  0
   16.1431   -3.2701  -19.3502 C   0  0  0  0  0  0  0  0  0  0  0  0
   17.3131   -2.8279  -18.7444 C   0  0  0  0  0  0  0  0  0  0  0  0
   18.4826   -3.5343  -18.8383 C   0  0  0  0  0  0  0  0  0  0  0  0
   19.7639   -3.1173  -18.2125 C   0  0  0  0  0  0  0  0  0  0  0  0
   19.7977   -3.4412  -16.7206 C   0  0  2  0  0  0  0  0  0  0  0  0
   19.6395   -4.8498  -16.4880 N   0  0  0  0  0  0  0  0  0  0  0  0
   18.6743   -2.7225  -16.0903 C   0  0  0  0  0  0  0  0  0  0  0  0
   17.7298   -3.3802  -15.5968 O   0  0  0  0  0  0  0  0  0  0  0  0
   18.4399   -4.7126  -19.5685 C   0  0  0  0  0  0  0  0  0  0  0  0
   17.3029   -5.1837  -20.1825 C   0  0  0  0  0  0  0  0  0  0  0  0
   18.5860   -1.3378  -16.0018 O   0  0  0  0  0  0  0  0  0  0  0  0
  2  1  1  6
  2  6  1  0
  3  2  1  0
  4  3  1  0
  4  5  2  0
  6 15  1  0
  6  7  2  0
  8  4  1  0
 10  9  1  0
 11 10  2  0
 12 10  1  0
 13 12  1  0
 14 13  1  1
 15 14  1  0
 16 14  1  0
 16 17  2  0
 18 19  1  0
 19 29  2  0
 20 19  1  0
 20 21  2  0
 21 22  1  0
 22 28  2  0
 22 23  1  0
 24 23  1  6
 24 25  1  0
 25 16  1  0
 26 24  1  0
 27 26  2  0
 29 28  1  0
 30 26  1  0
M  END
$$$$
