DQY.pdb
     RDKit          3D

 30 30  0  0  1  0  0  0  0  0999 V2000
   16.2984  -12.9566  -16.7038 N   0  0  0  0  0  0  0  0  0  0  0  0
   16.4340  -12.2571  -15.4442 C   0  0  1  0  0  0  0  0  0  0  0  0
   16.4487  -13.2951  -14.3375 C   0  0  0  0  0  0  0  0  0  0  0  0
   15.0722  -13.7800  -14.0949 C   0  0  0  0  0  0  0  0  0  0  0  0
   14.1364  -13.3130  -14.7837 O   0  0  0  0  0  0  0  0  0  0  0  0
   17.7303  -11.5329  -15.4622 C   0  0  0  0  0  0  0  0  0  0  0  0
   18.1410  -10.9740  -14.4371 O   0  0  0  0  0  0  0  0  0  0  0  0
   14.7862  -14.7335  -13.1305 O   0  0  0  0  0  0  0  0  0  0  0  0
   22.2802  -12.0612  -20.0234 N   0  0  0  0  0  0  0  0  0  0  0  0
   22.8031  -11.0702  -19.1363 C   0  0  0  0  0  0  0  0  0  0  0  0
   23.9145  -10.6196  -19.3926 O   0  0  0  0  0  0  0  0  0  0  0  0
   21.9944  -10.6695  -18.0045 C   0  0  0  0  0  0  0  0  0  0  0  0
   20.6463  -11.2383  -17.8256 C   0  0  0  0  0  0  0  0  0  0  0  0
   19.8161  -10.7918  -16.6845 C   0  0  2  0  0  0  0  0  0  0  0  0
   18.5300  -11.4598  -16.6424 N   0  0  0  0  0  0  0  0  0  0  0  0
   19.7762   -9.3469  -16.4670 C   0  0  0  0  0  0  0  0  0  0  0  0
   18.9238   -8.5751  -16.9982 O   0  0  0  0  0  0  0  0  0  0  0  0
   21.5512   -1.1452  -13.7085 O   0  0  0  0  0  0  0  0  0  0  0  0
   21.5245   -2.5342  -13.8298 C   0  0  0  0  0  0  0  0  0  0  0  0
   22.6201   -3.2012  -14.3552 C   0  0  0  0  0  0  0  0  0  0  0  0
   22.6008   -4.5852  -14.4792 C   0  0  0  0  0  0  0  0  0  0  0  0
   21.5162   -5.3265  -14.0928 C   0  0  0  0  0  0  0  0  0  0  0  0
   21.4347   -6.8064  -14.1967 C   0  0  0  0  0  0  0  0  0  0  0  0
   20.7709   -7.2473  -15.4993 C   0  0  2  0  0  0  0  0  0  0  0  0
   20.7247   -8.6791  -15.6038 N   0  0  0  0  0  0  0  0  0  0  0  0
   21.5829   -6.7120  -16.6083 C   0  0  0  0  0  0  0  0  0  0  0  0
   21.2293   -5.6470  -17.1642 O   0  0  0  0  0  0  0  0  0  0  0  0
   20.4385   -4.6261  -13.5717 C   0  0  0  0  0  0  0  0  0  0  0  0
   20.4188   -3.2578  -13.4329 C   0  0  0  0  0  0  0  0  0  0  0  0
   22.7378   -7.3165  -17.0916 O   0  0  0  0  0  0  0  0  0  0  0  0
  2  1  1  6
  2  6  1  0
  3  2  1  0
  4  3  1  0
  4  5  2  0
  6 15  1  0
  6  7  2  0
  8  4  1  0
 10  9  1  0
 11 10  2  0
 12 10  1  0
 13 12  1  0
 14 13  1  6
 15 14  1  0
 16 14  1  0
 16 17  2  0
 18 19  1  0
 19 29  2  0
 20 19  1  0
 20 21  2  0
 21 22  1  0
 22 28  2  0
 22 23  1  0
 24 23  1  1
 24 25  1  0
 25 16  1  0
 26 24  1  0
 27 26  2  0
 29 28  1  0
 30 26  1  0
M  END
$$$$
