DQY.pdb
     RDKit          3D

 30 30  0  0  1  0  0  0  0  0999 V2000
   22.2728  -14.8019  -20.1598 N   0  0  0  0  0  0  0  0  0  0  0  0
   22.8085  -14.0278  -19.0607 C   0  0  1  0  0  0  0  0  0  0  0  0
   24.2939  -13.8401  -19.3075 C   0  0  0  0  0  0  0  0  0  0  0  0
   24.9889  -15.1374  -19.1568 C   0  0  0  0  0  0  0  0  0  0  0  0
   24.9159  -15.7387  -18.0607 O   0  0  0  0  0  0  0  0  0  0  0  0
   22.1342  -12.7048  -19.0634 C   0  0  0  0  0  0  0  0  0  0  0  0
   22.0700  -12.0453  -20.1087 O   0  0  0  0  0  0  0  0  0  0  0  0
   25.7173  -15.7073  -20.1891 O   0  0  0  0  0  0  0  0  0  0  0  0
   16.7633  -11.2473  -16.4678 N   0  0  0  0  0  0  0  0  0  0  0  0
   17.8164  -11.4593  -15.5251 C   0  0  0  0  0  0  0  0  0  0  0  0
   17.4915  -11.7383  -14.3760 O   0  0  0  0  0  0  0  0  0  0  0  0
   19.1829  -11.3304  -15.9851 C   0  0  0  0  0  0  0  0  0  0  0  0
   19.4565  -11.0132  -17.3983 C   0  0  0  0  0  0  0  0  0  0  0  0
   20.8587  -10.8863  -17.8550 C   0  0  2  0  0  0  0  0  0  0  0  0
   21.5488  -12.1611  -17.8804 N   0  0  0  0  0  0  0  0  0  0  0  0
   21.6115   -9.7808  -17.2654 C   0  0  0  0  0  0  0  0  0  0  0  0
   22.2821   -9.8736  -16.1948 O   0  0  0  0  0  0  0  0  0  0  0  0
   25.5004   -1.9131  -16.0749 O   0  0  0  0  0  0  0  0  0  0  0  0
   24.7783   -2.9738  -16.6208 C   0  0  0  0  0  0  0  0  0  0  0  0
   25.4490   -4.0225  -17.2304 C   0  0  0  0  0  0  0  0  0  0  0  0
   24.7362   -5.0831  -17.7766 C   0  0  0  0  0  0  0  0  0  0  0  0
   23.3682   -5.1284  -17.7325 C   0  0  0  0  0  0  0  0  0  0  0  0
   22.5495   -6.2334  -18.2947 C   0  0  0  0  0  0  0  0  0  0  0  0
   22.4215   -7.3985  -17.3159 C   0  0  2  0  0  0  0  0  0  0  0  0
   21.6520   -8.4724  -17.8795 N   0  0  0  0  0  0  0  0  0  0  0  0
   21.7282   -6.8900  -16.1173 C   0  0  0  0  0  0  0  0  0  0  0  0
   20.4779   -6.8191  -16.1202 O   0  0  0  0  0  0  0  0  0  0  0  0
   22.7308   -4.0625  -17.1153 C   0  0  0  0  0  0  0  0  0  0  0  0
   23.3999   -2.9952  -16.5631 C   0  0  0  0  0  0  0  0  0  0  0  0
   22.3757   -6.4752  -14.9590 O   0  0  0  0  0  0  0  0  0  0  0  0
  2  1  1  6
  2  6  1  0
  3  2  1  0
  4  3  1  0
  4  5  2  0
  6 15  1  0
  6  7  2  0
  8  4  1  0
 10  9  1  0
 11 10  2  0
 12 10  1  0
 13 12  1  0
 14 13  1  1
 15 14  1  0
 16 14  1  0
 16 17  2  0
 18 19  1  0
 19 29  2  0
 20 19  1  0
 20 21  2  0
 21 22  1  0
 22 28  2  0
 22 23  1  0
 24 23  1  6
 24 25  1  0
 25 16  1  0
 26 24  1  0
 27 26  2  0
 29 28  1  0
 30 26  1  0
M  END
$$$$
