DQY.pdb
     RDKit          3D

 30 30  0  0  1  0  0  0  0  0999 V2000
   18.2088  -11.3365  -15.1363 N   0  0  0  0  0  0  0  0  0  0  0  0
   19.1706  -10.8957  -16.1238 C   0  0  1  0  0  0  0  0  0  0  0  0
   18.4452   -9.9962  -17.1071 C   0  0  0  0  0  0  0  0  0  0  0  0
   17.4329  -10.7835  -17.8449 C   0  0  0  0  0  0  0  0  0  0  0  0
   17.6259  -12.0091  -18.0141 O   0  0  0  0  0  0  0  0  0  0  0  0
   20.2212  -10.1164  -15.4208 C   0  0  0  0  0  0  0  0  0  0  0  0
   20.0828   -9.8297  -14.2248 O   0  0  0  0  0  0  0  0  0  0  0  0
   16.2794  -10.2079  -18.3539 O   0  0  0  0  0  0  0  0  0  0  0  0
   25.4150  -12.7363  -16.3822 N   0  0  0  0  0  0  0  0  0  0  0  0
   25.2407  -11.3812  -15.9628 C   0  0  0  0  0  0  0  0  0  0  0  0
   26.2552  -10.7253  -15.7523 O   0  0  0  0  0  0  0  0  0  0  0  0
   23.8912  -10.8789  -15.8145 C   0  0  0  0  0  0  0  0  0  0  0  0
   23.6597   -9.5679  -15.1817 C   0  0  0  0  0  0  0  0  0  0  0  0
   22.4028   -8.8386  -15.4627 C   0  0  2  0  0  0  0  0  0  0  0  0
   21.4040   -9.6809  -16.0910 N   0  0  0  0  0  0  0  0  0  0  0  0
   22.5674   -7.5145  -16.0597 C   0  0  0  0  0  0  0  0  0  0  0  0
   22.6582   -7.3071  -17.3060 O   0  0  0  0  0  0  0  0  0  0  0  0
   16.9750   -5.4216  -18.4715 O   0  0  0  0  0  0  0  0  0  0  0  0
   18.1129   -5.0974  -17.7335 C   0  0  0  0  0  0  0  0  0  0  0  0
   18.1075   -5.2506  -16.3559 C   0  0  0  0  0  0  0  0  0  0  0  0
   19.2378   -4.9295  -15.6137 C   0  0  0  0  0  0  0  0  0  0  0  0
   20.3780   -4.4582  -16.2080 C   0  0  0  0  0  0  0  0  0  0  0  0
   21.6181   -4.1003  -15.4720 C   0  0  0  0  0  0  0  0  0  0  0  0
   22.7820   -5.0162  -15.8438 C   0  0  2  0  0  0  0  0  0  0  0  0
   22.6331   -6.3167  -15.2524 N   0  0  0  0  0  0  0  0  0  0  0  0
   24.0138   -4.3923  -15.3252 C   0  0  0  0  0  0  0  0  0  0  0  0
   24.6781   -4.9910  -14.4486 O   0  0  0  0  0  0  0  0  0  0  0  0
   20.3473   -4.3176  -17.5874 C   0  0  0  0  0  0  0  0  0  0  0  0
   19.2493   -4.6242  -18.3568 C   0  0  0  0  0  0  0  0  0  0  0  0
   24.5022   -3.1612  -15.7483 O   0  0  0  0  0  0  0  0  0  0  0  0
  2  1  1  1
  2  6  1  0
  3  2  1  0
  4  3  1  0
  4  5  2  0
  6 15  1  0
  6  7  2  0
  8  4  1  0
 10  9  1  0
 11 10  2  0
 12 10  1  0
 13 12  1  0
 14 13  1  6
 15 14  1  0
 16 14  1  0
 16 17  2  0
 18 19  1  0
 19 29  2  0
 20 19  1  0
 20 21  2  0
 21 22  1  0
 22 28  2  0
 22 23  1  0
 24 23  1  1
 24 25  1  0
 25 16  1  0
 26 24  1  0
 27 26  2  0
 29 28  1  0
 30 26  1  0
M  END
$$$$
