DQY.pdb
     RDKit          3D

 30 30  0  0  1  0  0  0  0  0999 V2000
   45.7842   -9.6013   -4.1810 N   0  0  0  0  0  0  0  0  0  0  0  0
   44.4573  -10.1621   -4.3200 C   0  0  1  0  0  0  0  0  0  0  0  0
   43.5046   -9.3035   -3.5092 C   0  0  0  0  0  0  0  0  0  0  0  0
   43.6014   -9.6709   -2.0794 C   0  0  0  0  0  0  0  0  0  0  0  0
   44.6267   -9.3436   -1.4391 O   0  0  0  0  0  0  0  0  0  0  0  0
   44.0833  -10.0978   -5.7557 C   0  0  0  0  0  0  0  0  0  0  0  0
   44.5929   -9.2417   -6.4900 O   0  0  0  0  0  0  0  0  0  0  0  0
   42.5945  -10.3650   -1.4272 O   0  0  0  0  0  0  0  0  0  0  0  0
   42.6615  -14.6366   -9.8502 N   0  0  0  0  0  0  0  0  0  0  0  0
   42.1275  -13.4827  -10.5030 C   0  0  0  0  0  0  0  0  0  0  0  0
   41.6885  -13.6344  -11.6379 O   0  0  0  0  0  0  0  0  0  0  0  0
   42.1419  -12.2240   -9.7883 C   0  0  0  0  0  0  0  0  0  0  0  0
   42.6705  -12.1647   -8.4136 C   0  0  0  0  0  0  0  0  0  0  0  0
   42.6407  -10.8797   -7.6797 C   0  0  2  0  0  0  0  0  0  0  0  0
   43.1401  -11.0059   -6.3244 N   0  0  0  0  0  0  0  0  0  0  0  0
   41.4084  -10.1064   -7.8211 C   0  0  0  0  0  0  0  0  0  0  0  0
   40.3444  -10.3478   -7.1778 O   0  0  0  0  0  0  0  0  0  0  0  0
   35.1052   -4.2982   -8.0738 O   0  0  0  0  0  0  0  0  0  0  0  0
   36.3178   -4.9837   -8.0097 C   0  0  0  0  0  0  0  0  0  0  0  0
   37.4715   -4.3902   -8.4975 C   0  0  0  0  0  0  0  0  0  0  0  0
   38.6837   -5.0673   -8.4371 C   0  0  0  0  0  0  0  0  0  0  0  0
   38.7791   -6.3243   -7.9019 C   0  0  0  0  0  0  0  0  0  0  0  0
   40.0436   -7.0985   -7.8058 C   0  0  0  0  0  0  0  0  0  0  0  0
   40.1059   -8.2132   -8.8476 C   0  0  2  0  0  0  0  0  0  0  0  0
   41.3146   -8.9790   -8.7217 N   0  0  0  0  0  0  0  0  0  0  0  0
   40.0804   -7.5734  -10.1764 C   0  0  0  0  0  0  0  0  0  0  0  0
   41.1622   -7.3493  -10.7661 O   0  0  0  0  0  0  0  0  0  0  0  0
   37.6051   -6.8868   -7.4237 C   0  0  0  0  0  0  0  0  0  0  0  0
   36.3868   -6.2498   -7.4654 C   0  0  0  0  0  0  0  0  0  0  0  0
   38.9174   -7.1933  -10.8367 O   0  0  0  0  0  0  0  0  0  0  0  0
  2  1  1  6
  2  6  1  0
  3  2  1  0
  4  3  1  0
  4  5  2  0
  6 15  1  0
  6  7  2  0
  8  4  1  0
 10  9  1  0
 11 10  2  0
 12 10  1  0
 13 12  1  0
 14 13  1  1
 15 14  1  0
 16 14  1  0
 16 17  2  0
 18 19  1  0
 19 29  2  0
 20 19  1  0
 20 21  2  0
 21 22  1  0
 22 28  2  0
 22 23  1  0
 24 23  1  1
 24 25  1  0
 25 16  1  0
 26 24  1  0
 27 26  2  0
 29 28  1  0
 30 26  1  0
M  END
$$$$
