DQY.pdb
     RDKit          3D

 30 30  0  0  1  0  0  0  0  0999 V2000
   21.3575  -11.9672  -18.1903 N   0  0  0  0  0  0  0  0  0  0  0  0
   20.4521  -10.8800  -18.4944 C   0  0  1  0  0  0  0  0  0  0  0  0
   19.3023  -10.9451  -17.5063 C   0  0  0  0  0  0  0  0  0  0  0  0
   18.5162  -12.1761  -17.7414 C   0  0  0  0  0  0  0  0  0  0  0  0
   18.2090  -12.4821  -18.9163 O   0  0  0  0  0  0  0  0  0  0  0  0
   21.1920   -9.6056  -18.3111 C   0  0  0  0  0  0  0  0  0  0  0  0
   22.2155   -9.5789  -17.6159 O   0  0  0  0  0  0  0  0  0  0  0  0
   18.1096  -13.0001  -16.7038 O   0  0  0  0  0  0  0  0  0  0  0  0
   20.8986   -4.4154  -22.0555 N   0  0  0  0  0  0  0  0  0  0  0  0
   21.9521   -4.1263  -21.1340 C   0  0  0  0  0  0  0  0  0  0  0  0
   22.5373   -3.0573  -21.2699 O   0  0  0  0  0  0  0  0  0  0  0  0
   22.2559   -5.1060  -20.1125 C   0  0  0  0  0  0  0  0  0  0  0  0
   21.4913   -6.3646  -20.0497 C   0  0  0  0  0  0  0  0  0  0  0  0
   21.4690   -7.1378  -18.7879 C   0  0  2  0  0  0  0  0  0  0  0  0
   20.7533   -8.3916  -18.9209 N   0  0  0  0  0  0  0  0  0  0  0  0
   21.1576   -6.3660  -17.5862 C   0  0  0  0  0  0  0  0  0  0  0  0
   19.9819   -6.1650  -17.1599 O   0  0  0  0  0  0  0  0  0  0  0  0
   19.0296  -10.2800  -13.0495 O   0  0  0  0  0  0  0  0  0  0  0  0
   19.8550   -9.2014  -13.3654 C   0  0  0  0  0  0  0  0  0  0  0  0
   19.4625   -7.9136  -13.0358 C   0  0  0  0  0  0  0  0  0  0  0  0
   20.2798   -6.8337  -13.3475 C   0  0  0  0  0  0  0  0  0  0  0  0
   21.4824   -7.0015  -13.9808 C   0  0  0  0  0  0  0  0  0  0  0  0
   22.4015   -5.8902  -14.3384 C   0  0  0  0  0  0  0  0  0  0  0  0
   21.8918   -5.0978  -15.5400 C   0  0  2  0  0  0  0  0  0  0  0  0
   22.1937   -5.7679  -16.7741 N   0  0  0  0  0  0  0  0  0  0  0  0
   22.5751   -3.7907  -15.5251 C   0  0  0  0  0  0  0  0  0  0  0  0
   23.2983   -3.4695  -16.4957 O   0  0  0  0  0  0  0  0  0  0  0  0
   21.8427   -8.3033  -14.2954 C   0  0  0  0  0  0  0  0  0  0  0  0
   21.0622   -9.3978  -14.0042 C   0  0  0  0  0  0  0  0  0  0  0  0
   22.4723   -2.8687  -14.4895 O   0  0  0  0  0  0  0  0  0  0  0  0
  2  1  1  1
  2  6  1  0
  3  2  1  0
  4  3  1  0
  4  5  2  0
  6 15  1  0
  6  7  2  0
  8  4  1  0
 10  9  1  0
 11 10  2  0
 12 10  1  0
 13 12  1  0
 14 13  1  6
 15 14  1  0
 16 14  1  0
 16 17  2  0
 18 19  1  0
 19 29  2  0
 20 19  1  0
 20 21  2  0
 21 22  1  0
 22 28  2  0
 22 23  1  0
 24 23  1  1
 24 25  1  0
 25 16  1  0
 26 24  1  0
 27 26  2  0
 29 28  1  0
 30 26  1  0
M  END
$$$$
