DQY.pdb
     RDKit          3D

 30 30  0  0  1  0  0  0  0  0999 V2000
   18.5325  -12.7182  -17.6996 N   0  0  0  0  0  0  0  0  0  0  0  0
   18.0207  -11.9398  -16.5921 C   0  0  1  0  0  0  0  0  0  0  0  0
   18.4102  -12.6494  -15.3086 C   0  0  0  0  0  0  0  0  0  0  0  0
   17.5548  -13.8420  -15.1227 C   0  0  0  0  0  0  0  0  0  0  0  0
   16.5287  -13.9663  -15.8297 O   0  0  0  0  0  0  0  0  0  0  0  0
   18.6677  -10.6039  -16.6362 C   0  0  0  0  0  0  0  0  0  0  0  0
   19.8818  -10.5115  -16.8578 O   0  0  0  0  0  0  0  0  0  0  0  0
   17.8529  -14.8247  -14.1918 O   0  0  0  0  0  0  0  0  0  0  0  0
   14.7255   -7.0445  -16.8720 N   0  0  0  0  0  0  0  0  0  0  0  0
   15.3936   -7.1898  -18.1271 C   0  0  0  0  0  0  0  0  0  0  0  0
   14.6911   -7.2889  -19.1273 O   0  0  0  0  0  0  0  0  0  0  0  0
   16.8410   -7.2116  -18.1333 C   0  0  0  0  0  0  0  0  0  0  0  0
   17.5849   -7.0347  -16.8731 C   0  0  0  0  0  0  0  0  0  0  0  0
   18.5280   -8.0873  -16.4335 C   0  0  2  0  0  0  0  0  0  0  0  0
   17.9222   -9.4045  -16.4279 N   0  0  0  0  0  0  0  0  0  0  0  0
   19.3231   -7.7613  -15.2511 C   0  0  0  0  0  0  0  0  0  0  0  0
   19.0164   -8.1133  -14.0736 O   0  0  0  0  0  0  0  0  0  0  0  0
   25.3125   -6.6238  -19.2347 O   0  0  0  0  0  0  0  0  0  0  0  0
   24.6718   -6.8289  -18.0132 C   0  0  0  0  0  0  0  0  0  0  0  0
   24.7950   -5.8870  -17.0038 C   0  0  0  0  0  0  0  0  0  0  0  0
   24.1594   -6.0846  -15.7838 C   0  0  0  0  0  0  0  0  0  0  0  0
   23.4012   -7.1987  -15.5403 C   0  0  0  0  0  0  0  0  0  0  0  0
   22.6954   -7.4666  -14.2606 C   0  0  0  0  0  0  0  0  0  0  0  0
   21.3585   -6.7326  -14.1864 C   0  0  2  0  0  0  0  0  0  0  0  0
   20.5499   -7.0014  -15.3428 N   0  0  0  0  0  0  0  0  0  0  0  0
   21.6536   -5.2883  -14.1335 C   0  0  0  0  0  0  0  0  0  0  0  0
   21.2941   -4.5573  -15.0846 O   0  0  0  0  0  0  0  0  0  0  0  0
   23.3002   -8.1194  -16.5725 C   0  0  0  0  0  0  0  0  0  0  0  0
   23.9135   -7.9605  -17.7933 C   0  0  0  0  0  0  0  0  0  0  0  0
   22.3158   -4.6657  -13.0814 O   0  0  0  0  0  0  0  0  0  0  0  0
  2  1  1  6
  2  6  1  0
  3  2  1  0
  4  3  1  0
  4  5  2  0
  6 15  1  0
  6  7  2  0
  8  4  1  0
 10  9  1  0
 11 10  2  0
 12 10  1  0
 13 12  1  0
 14 13  1  1
 15 14  1  0
 16 14  1  0
 16 17  2  0
 18 19  1  0
 19 29  2  0
 20 19  1  0
 20 21  2  0
 21 22  1  0
 22 28  2  0
 22 23  1  0
 24 23  1  6
 24 25  1  0
 25 16  1  0
 26 24  1  0
 27 26  2  0
 29 28  1  0
 30 26  1  0
M  END
$$$$
