DQY.pdb
     RDKit          3D

 30 30  0  0  1  0  0  0  0  0999 V2000
   17.3090  -15.5560  -16.7969 N   0  0  0  0  0  0  0  0  0  0  0  0
   16.8812  -14.2549  -17.2641 C   0  0  1  0  0  0  0  0  0  0  0  0
   16.0705  -13.6087  -16.1562 C   0  0  0  0  0  0  0  0  0  0  0  0
   14.8018  -14.3479  -15.9751 C   0  0  0  0  0  0  0  0  0  0  0  0
   14.1753  -14.7311  -16.9894 O   0  0  0  0  0  0  0  0  0  0  0  0
   18.0964  -13.4429  -17.5276 C   0  0  0  0  0  0  0  0  0  0  0  0
   19.1179  -13.6210  -16.8520 O   0  0  0  0  0  0  0  0  0  0  0  0
   14.2855  -14.6290  -14.7200 O   0  0  0  0  0  0  0  0  0  0  0  0
   21.7138  -12.6547  -21.6070 N   0  0  0  0  0  0  0  0  0  0  0  0
   21.7619  -11.2407  -21.4047 C   0  0  0  0  0  0  0  0  0  0  0  0
   22.7479  -10.6476  -21.8286 O   0  0  0  0  0  0  0  0  0  0  0  0
   20.6546  -10.6095  -20.7184 C   0  0  0  0  0  0  0  0  0  0  0  0
   19.5082  -11.4205  -20.2703 C   0  0  0  0  0  0  0  0  0  0  0  0
   19.2867  -11.6253  -18.8213 C   0  0  2  0  0  0  0  0  0  0  0  0
   18.1240  -12.4483  -18.5512 N   0  0  0  0  0  0  0  0  0  0  0  0
   19.4085  -10.4266  -17.9938 C   0  0  0  0  0  0  0  0  0  0  0  0
   18.4402   -9.6598  -17.7131 O   0  0  0  0  0  0  0  0  0  0  0  0
   22.7020   -3.7675  -13.2071 O   0  0  0  0  0  0  0  0  0  0  0  0
   22.5683   -4.9735  -13.8943 C   0  0  0  0  0  0  0  0  0  0  0  0
   23.1876   -5.1387  -15.1233 C   0  0  0  0  0  0  0  0  0  0  0  0
   23.0588   -6.3377  -15.8140 C   0  0  0  0  0  0  0  0  0  0  0  0
   22.3273   -7.3812  -15.3126 C   0  0  0  0  0  0  0  0  0  0  0  0
   22.1537   -8.6871  -15.9996 C   0  0  0  0  0  0  0  0  0  0  0  0
   20.8281   -8.7586  -16.7541 C   0  0  2  0  0  0  0  0  0  0  0  0
   20.6714  -10.0235  -17.4165 N   0  0  0  0  0  0  0  0  0  0  0  0
   20.8415   -7.6861  -17.7667 C   0  0  0  0  0  0  0  0  0  0  0  0
   21.3702   -7.9056  -18.8804 O   0  0  0  0  0  0  0  0  0  0  0  0
   21.7218   -7.1805  -14.0811 C   0  0  0  0  0  0  0  0  0  0  0  0
   21.8252   -6.0097  -13.3668 C   0  0  0  0  0  0  0  0  0  0  0  0
   20.2975   -6.4217  -17.5706 O   0  0  0  0  0  0  0  0  0  0  0  0
  2  1  1  1
  2  6  1  0
  3  2  1  0
  4  3  1  0
  4  5  2  0
  6 15  1  0
  6  7  2  0
  8  4  1  0
 10  9  1  0
 11 10  2  0
 12 10  1  0
 13 12  1  0
 14 13  1  6
 15 14  1  0
 16 14  1  0
 16 17  2  0
 18 19  1  0
 19 29  2  0
 20 19  1  0
 20 21  2  0
 21 22  1  0
 22 28  2  0
 22 23  1  0
 24 23  1  6
 24 25  1  0
 25 16  1  0
 26 24  1  0
 27 26  2  0
 29 28  1  0
 30 26  1  0
M  END
$$$$
