DQY.pdb
     RDKit          3D

 30 30  0  0  1  0  0  0  0  0999 V2000
   22.6513  -13.6475  -18.6766 N   0  0  0  0  0  0  0  0  0  0  0  0
   23.6900  -12.8369  -19.2752 C   0  0  1  0  0  0  0  0  0  0  0  0
   23.7758  -13.2056  -20.7446 C   0  0  0  0  0  0  0  0  0  0  0  0
   24.2792  -14.5902  -20.8793 C   0  0  0  0  0  0  0  0  0  0  0  0
   24.3437  -15.1017  -22.0206 O   0  0  0  0  0  0  0  0  0  0  0  0
   23.2897  -11.4129  -19.1438 C   0  0  0  0  0  0  0  0  0  0  0  0
   23.9819  -10.5255  -19.6587 O   0  0  0  0  0  0  0  0  0  0  0  0
   24.6809  -15.3380  -19.7837 O   0  0  0  0  0  0  0  0  0  0  0  0
   19.6953   -6.8688  -20.0517 N   0  0  0  0  0  0  0  0  0  0  0  0
   19.9150   -7.9915  -20.9084 C   0  0  0  0  0  0  0  0  0  0  0  0
   19.8075   -7.8043  -22.1155 O   0  0  0  0  0  0  0  0  0  0  0  0
   20.2451   -9.2627  -20.2996 C   0  0  0  0  0  0  0  0  0  0  0  0
   20.3850   -9.3630  -18.8356 C   0  0  0  0  0  0  0  0  0  0  0  0
   21.7151   -9.6469  -18.2517 C   0  0  2  0  0  0  0  0  0  0  0  0
   22.1136  -11.0292  -18.4315 N   0  0  0  0  0  0  0  0  0  0  0  0
   21.9412   -9.1011  -16.9147 C   0  0  0  0  0  0  0  0  0  0  0  0
   21.6032   -9.6886  -15.8447 O   0  0  0  0  0  0  0  0  0  0  0  0
   24.5714   -2.1782  -18.8455 O   0  0  0  0  0  0  0  0  0  0  0  0
   24.4743   -3.2631  -17.9748 C   0  0  0  0  0  0  0  0  0  0  0  0
   23.7976   -3.1239  -16.7731 C   0  0  0  0  0  0  0  0  0  0  0  0
   23.6967   -4.2006  -15.9003 C   0  0  0  0  0  0  0  0  0  0  0  0
   24.2532   -5.4174  -16.1924 C   0  0  0  0  0  0  0  0  0  0  0  0
   24.1781   -6.6061  -15.3043 C   0  0  0  0  0  0  0  0  0  0  0  0
   22.8193   -7.2967  -15.3956 C   0  0  2  0  0  0  0  0  0  0  0  0
   22.5887   -7.8242  -16.7116 N   0  0  0  0  0  0  0  0  0  0  0  0
   21.7908   -6.2817  -15.0994 C   0  0  0  0  0  0  0  0  0  0  0  0
   21.0100   -5.9211  -16.0097 O   0  0  0  0  0  0  0  0  0  0  0  0
   24.9224   -5.5202  -17.4028 C   0  0  0  0  0  0  0  0  0  0  0  0
   25.0442   -4.4788  -18.2930 C   0  0  0  0  0  0  0  0  0  0  0  0
   21.6209   -5.6835  -13.8560 O   0  0  0  0  0  0  0  0  0  0  0  0
  2  1  1  1
  2  6  1  0
  3  2  1  0
  4  3  1  0
  4  5  2  0
  6 15  1  0
  6  7  2  0
  8  4  1  0
 10  9  1  0
 11 10  2  0
 12 10  1  0
 13 12  1  0
 14 13  1  1
 15 14  1  0
 16 14  1  0
 16 17  2  0
 18 19  1  0
 19 29  2  0
 20 19  1  0
 20 21  2  0
 21 22  1  0
 22 28  2  0
 22 23  1  0
 24 23  1  6
 24 25  1  0
 25 16  1  0
 26 24  1  0
 27 26  2  0
 29 28  1  0
 30 26  1  0
M  END
$$$$
