DQY.pdb
     RDKit          3D

 30 30  0  0  1  0  0  0  0  0999 V2000
   36.3641  -10.2163  -17.4887 N   0  0  0  0  0  0  0  0  0  0  0  0
   35.5482   -9.7549  -16.3861 C   0  0  1  0  0  0  0  0  0  0  0  0
   36.4806   -9.3090  -15.2751 C   0  0  0  0  0  0  0  0  0  0  0  0
   37.2174  -10.4785  -14.7476 C   0  0  0  0  0  0  0  0  0  0  0  0
   37.0450  -11.5953  -15.2871 O   0  0  0  0  0  0  0  0  0  0  0  0
   34.7529   -8.5945  -16.8617 C   0  0  0  0  0  0  0  0  0  0  0  0
   35.2292   -7.8209  -17.7022 O   0  0  0  0  0  0  0  0  0  0  0  0
   38.0911  -10.3769  -13.6764 O   0  0  0  0  0  0  0  0  0  0  0  0
   28.9272   -8.3733  -18.7210 N   0  0  0  0  0  0  0  0  0  0  0  0
   29.2635   -6.9845  -18.6900 C   0  0  0  0  0  0  0  0  0  0  0  0
   28.4736   -6.2053  -19.2122 O   0  0  0  0  0  0  0  0  0  0  0  0
   30.5028   -6.5945  -18.0517 C   0  0  0  0  0  0  0  0  0  0  0  0
   31.3767   -7.6199  -17.4536 C   0  0  0  0  0  0  0  0  0  0  0  0
   32.6402   -7.2064  -16.8030 C   0  0  2  0  0  0  0  0  0  0  0  0
   33.4363   -8.3392  -16.3727 N   0  0  0  0  0  0  0  0  0  0  0  0
   32.5174   -6.1239  -15.8284 C   0  0  0  0  0  0  0  0  0  0  0  0
   32.1156   -6.2861  -14.6383 O   0  0  0  0  0  0  0  0  0  0  0  0
   34.4021    0.5480  -10.6332 O   0  0  0  0  0  0  0  0  0  0  0  0
   34.2816   -0.5482  -11.4867 C   0  0  0  0  0  0  0  0  0  0  0  0
   33.1868   -1.3909  -11.3755 C   0  0  0  0  0  0  0  0  0  0  0  0
   33.0599   -2.4853  -12.2226 C   0  0  0  0  0  0  0  0  0  0  0  0
   33.9970   -2.7648  -13.1814 C   0  0  0  0  0  0  0  0  0  0  0  0
   33.9178   -3.9155  -14.1179 C   0  0  0  0  0  0  0  0  0  0  0  0
   32.8312   -3.7146  -15.1718 C   0  0  2  0  0  0  0  0  0  0  0  0
   32.8605   -4.7585  -16.1581 N   0  0  0  0  0  0  0  0  0  0  0  0
   33.0955   -2.4230  -15.8333 C   0  0  0  0  0  0  0  0  0  0  0  0
   33.8783   -2.3871  -16.8101 O   0  0  0  0  0  0  0  0  0  0  0  0
   35.0785   -1.9006  -13.2638 C   0  0  0  0  0  0  0  0  0  0  0  0
   35.2403   -0.8076  -12.4446 C   0  0  0  0  0  0  0  0  0  0  0  0
   32.5260   -1.2161  -15.4432 O   0  0  0  0  0  0  0  0  0  0  0  0
  2  1  1  6
  2  6  1  0
  3  2  1  0
  4  3  1  0
  4  5  2  0
  6 15  1  0
  6  7  2  0
  8  4  1  0
 10  9  1  0
 11 10  2  0
 12 10  1  0
 13 12  1  0
 14 13  1  1
 15 14  1  0
 16 14  1  0
 16 17  2  0
 18 19  1  0
 19 29  2  0
 20 19  1  0
 20 21  2  0
 21 22  1  0
 22 28  2  0
 22 23  1  0
 24 23  1  1
 24 25  1  0
 25 16  1  0
 26 24  1  0
 27 26  2  0
 29 28  1  0
 30 26  1  0
M  END
$$$$
