DQY.pdb
     RDKit          3D

 30 30  0  0  1  0  0  0  0  0999 V2000
   19.5546  -13.2089  -16.9685 N   0  0  0  0  0  0  0  0  0  0  0  0
   19.0771  -12.4314  -18.0918 C   0  0  1  0  0  0  0  0  0  0  0  0
   18.1682  -13.3220  -18.9183 C   0  0  0  0  0  0  0  0  0  0  0  0
   18.9817  -14.3199  -19.6471 C   0  0  0  0  0  0  0  0  0  0  0  0
   20.1966  -14.0852  -19.8397 O   0  0  0  0  0  0  0  0  0  0  0  0
   18.2966  -11.2874  -17.5557 C   0  0  0  0  0  0  0  0  0  0  0  0
   17.9200  -10.3854  -18.3148 O   0  0  0  0  0  0  0  0  0  0  0  0
   18.4422  -15.5048  -20.1225 O   0  0  0  0  0  0  0  0  0  0  0  0
   15.6474  -13.0073  -13.4602 N   0  0  0  0  0  0  0  0  0  0  0  0
   14.8521  -12.6591  -14.5955 C   0  0  0  0  0  0  0  0  0  0  0  0
   14.0067  -13.4705  -14.9570 O   0  0  0  0  0  0  0  0  0  0  0  0
   15.0963  -11.3848  -15.2373 C   0  0  0  0  0  0  0  0  0  0  0  0
   16.1426  -10.4869  -14.7157 C   0  0  0  0  0  0  0  0  0  0  0  0
   17.2472  -10.0659  -15.6062 C   0  0  2  0  0  0  0  0  0  0  0  0
   17.9619  -11.1938  -16.1711 N   0  0  0  0  0  0  0  0  0  0  0  0
   18.0897   -8.9877  -15.0918 C   0  0  0  0  0  0  0  0  0  0  0  0
   19.2537   -9.1619  -14.6237 O   0  0  0  0  0  0  0  0  0  0  0  0
   22.8769   -1.8451  -14.4133 O   0  0  0  0  0  0  0  0  0  0  0  0
   22.1005   -2.9647  -14.7102 C   0  0  0  0  0  0  0  0  0  0  0  0
   22.2781   -4.1366  -13.9915 C   0  0  0  0  0  0  0  0  0  0  0  0
   21.5080   -5.2565  -14.2817 C   0  0  0  0  0  0  0  0  0  0  0  0
   20.5619   -5.2415  -15.2717 C   0  0  0  0  0  0  0  0  0  0  0  0
   19.7060   -6.4025  -15.6281 C   0  0  0  0  0  0  0  0  0  0  0  0
   18.5167   -6.5418  -14.6805 C   0  0  2  0  0  0  0  0  0  0  0  0
   17.6476   -7.6110  -15.0863 N   0  0  0  0  0  0  0  0  0  0  0  0
   17.7679   -5.2718  -14.7272 C   0  0  0  0  0  0  0  0  0  0  0  0
   16.8144   -5.1554  -15.5306 O   0  0  0  0  0  0  0  0  0  0  0  0
   20.4117   -4.0526  -15.9697 C   0  0  0  0  0  0  0  0  0  0  0  0
   21.1538   -2.9233  -15.7131 C   0  0  0  0  0  0  0  0  0  0  0  0
   18.0491   -4.1708  -13.9262 O   0  0  0  0  0  0  0  0  0  0  0  0
  2  1  1  1
  2  6  1  0
  3  2  1  0
  4  3  1  0
  4  5  2  0
  6 15  1  0
  6  7  2  0
  8  4  1  0
 10  9  1  0
 11 10  2  0
 12 10  1  0
 13 12  1  0
 14 13  1  1
 15 14  1  0
 16 14  1  0
 16 17  2  0
 18 19  1  0
 19 29  2  0
 20 19  1  0
 20 21  2  0
 21 22  1  0
 22 28  2  0
 22 23  1  0
 24 23  1  6
 24 25  1  0
 25 16  1  0
 26 24  1  0
 27 26  2  0
 29 28  1  0
 30 26  1  0
M  END
$$$$
