DQY.pdb
     RDKit          3D

 30 30  0  0  1  0  0  0  0  0999 V2000
   14.4535  -12.5434  -13.3453 N   0  0  0  0  0  0  0  0  0  0  0  0
   14.6048  -11.6687  -14.4883 C   0  0  1  0  0  0  0  0  0  0  0  0
   13.7371  -10.4462  -14.2536 C   0  0  0  0  0  0  0  0  0  0  0  0
   12.3111  -10.8394  -14.2748 C   0  0  0  0  0  0  0  0  0  0  0  0
   11.9244  -11.6656  -15.1327 O   0  0  0  0  0  0  0  0  0  0  0  0
   16.0300  -11.2583  -14.5629 C   0  0  0  0  0  0  0  0  0  0  0  0
   16.6566  -11.0072  -13.5256 O   0  0  0  0  0  0  0  0  0  0  0  0
   11.3909  -10.3229  -13.3762 O   0  0  0  0  0  0  0  0  0  0  0  0
   20.1300  -12.7953  -19.1931 N   0  0  0  0  0  0  0  0  0  0  0  0
   20.9072  -11.9605  -18.3319 C   0  0  0  0  0  0  0  0  0  0  0  0
   22.1061  -11.8695  -18.5728 O   0  0  0  0  0  0  0  0  0  0  0  0
   20.2339  -11.2858  -17.2425 C   0  0  0  0  0  0  0  0  0  0  0  0
   18.7893  -11.4898  -17.0315 C   0  0  0  0  0  0  0  0  0  0  0  0
   18.1126  -10.7881  -15.9178 C   0  0  2  0  0  0  0  0  0  0  0  0
   16.7107  -11.1425  -15.8123 N   0  0  0  0  0  0  0  0  0  0  0  0
   18.4052   -9.3602  -15.8078 C   0  0  0  0  0  0  0  0  0  0  0  0
   17.6966   -8.4507  -16.3324 O   0  0  0  0  0  0  0  0  0  0  0  0
   22.5414   -1.7274  -13.9751 O   0  0  0  0  0  0  0  0  0  0  0  0
   22.1722   -3.0720  -13.9971 C   0  0  0  0  0  0  0  0  0  0  0  0
   21.0134   -3.4790  -13.3547 C   0  0  0  0  0  0  0  0  0  0  0  0
   20.6391   -4.8173  -13.3724 C   0  0  0  0  0  0  0  0  0  0  0  0
   21.3900   -5.7654  -14.0147 C   0  0  0  0  0  0  0  0  0  0  0  0
   21.0432   -7.2089  -14.0723 C   0  0  0  0  0  0  0  0  0  0  0  0
   19.8448   -7.4679  -14.9826 C   0  0  2  0  0  0  0  0  0  0  0  0
   19.5476   -8.8705  -15.0689 N   0  0  0  0  0  0  0  0  0  0  0  0
   20.1982   -6.9696  -16.3251 C   0  0  0  0  0  0  0  0  0  0  0  0
   20.9543   -7.6553  -17.0505 O   0  0  0  0  0  0  0  0  0  0  0  0
   22.5424   -5.3222  -14.6463 C   0  0  0  0  0  0  0  0  0  0  0  0
   22.9468   -4.0076  -14.6517 C   0  0  0  0  0  0  0  0  0  0  0  0
   19.7425   -5.7680  -16.8559 O   0  0  0  0  0  0  0  0  0  0  0  0
  2  1  1  1
  2  6  1  0
  3  2  1  0
  4  3  1  0
  4  5  2  0
  6 15  1  0
  6  7  2  0
  8  4  1  0
 10  9  1  0
 11 10  2  0
 12 10  1  0
 13 12  1  0
 14 13  1  6
 15 14  1  0
 16 14  1  0
 16 17  2  0
 18 19  1  0
 19 29  2  0
 20 19  1  0
 20 21  2  0
 21 22  1  0
 22 28  2  0
 22 23  1  0
 24 23  1  1
 24 25  1  0
 25 16  1  0
 26 24  1  0
 27 26  2  0
 29 28  1  0
 30 26  1  0
M  END
$$$$
