RGY.pdb
     RDKit          3D

 28 28  0  0  1  0  0  0  0  0999 V2000
   29.4585  -19.9062  -21.2631 N   0  0  0  0  0  0  0  0  0  0  0  0
   30.3873  -19.5863  -20.2200 C   0  0  0  0  0  0  0  0  0  0  0  0
   31.5748  -19.2070  -20.5082 N   0  0  0  0  0  0  0  0  0  0  0  0
   29.9274  -19.7106  -18.8778 N   0  0  0  0  0  0  0  0  0  0  0  0
   28.4931  -19.8611  -18.6724 C   0  0  0  0  0  0  0  0  0  0  0  0
   28.2453  -19.9514  -17.1892 C   0  0  0  0  0  0  0  0  0  0  0  0
   26.8359  -20.2201  -16.8229 C   0  0  0  0  0  0  0  0  0  0  0  0
   26.5198  -20.3410  -15.3758 C   0  0  2  0  0  0  0  0  0  0  0  0
   27.4409  -21.2388  -14.7184 N   0  0  0  0  0  0  0  0  0  0  0  0
   25.1142  -20.8050  -15.2177 C   0  0  0  0  0  0  0  0  0  0  0  0
   24.9406  -22.0357  -15.0189 O   0  0  0  0  0  0  0  0  0  0  0  0
   32.2592  -18.9892  -19.7543 N   0  0  0  0  0  0  0  0  0  0  0  0
   24.0108  -19.9209  -15.2841 C   0  0  0  0  0  0  0  0  0  0  0  0
   22.6990  -20.4367  -15.1574 C   0  0  0  0  0  0  0  0  0  0  0  0
   22.0955  -20.3179  -13.8320 O   0  0  0  0  0  0  0  0  0  0  0  0
   22.6639  -19.8184  -12.8271 O   0  0  0  0  0  0  0  0  0  0  0  0
   17.3483  -16.2574  -16.3648 C   0  0  0  0  0  0  0  0  0  0  0  0
   17.9869  -16.9663  -15.3422 C   0  0  0  0  0  0  0  0  0  0  0  0
   17.2131  -17.6019  -14.3982 C   0  0  0  0  0  0  0  0  0  0  0  0
   17.8477  -18.2991  -13.3926 C   0  0  0  0  0  0  0  0  0  0  0  0
   19.2236  -18.3692  -13.3178 C   0  0  0  0  0  0  0  0  0  0  0  0
   19.8452  -19.1227  -12.2290 C   0  0  1  0  0  0  0  0  0  0  0  0
   19.9763  -20.5970  -12.4972 N   0  0  0  0  0  0  0  0  0  0  0  0
   20.7630  -20.8110  -13.6891 C   0  0  0  0  0  0  0  0  0  0  0  0
   18.6879  -21.2931  -12.5680 O   0  0  0  0  0  0  0  0  0  0  0  0
   17.9567  -21.3398  -11.5605 C   0  0  0  0  0  0  0  0  0  0  0  0
   19.9827  -17.7310  -14.2652 C   0  0  0  0  0  0  0  0  0  0  0  0
   19.3747  -17.0249  -15.2844 O   0  0  0  0  0  0  0  0  0  0  0  0
  2  4  1  0
  2  1  1  0
  3  2  2  0
  5  4  1  0
  6  5  1  0
  7  8  1  0
  7  6  1  0
  8  9  1  6
 10  8  1  0
 10 12  1  0
 11 10  2  0
 13 12  1  0
 14 15  2  0
 14 13  1  0
 16 17  1  0
 17 18  2  0
 18 19  1  0
 20 21  1  0
 20 19  2  0
 22 23  1  0
 22 21  1  1
 23 14  1  0
 24 22  1  0
 25 24  2  0
 26 20  1  0
 27 26  2  0
 27 17  1  0
 28 24  1  0
M  END
$$$$
