RGY.pdb
     RDKit          3D

 28 28  0  0  1  0  0  0  0  0999 V2000
   24.7760  -26.5597  -15.7818 N   0  0  0  0  0  0  0  0  0  0  0  0
   26.0143  -26.4630  -16.4961 C   0  0  0  0  0  0  0  0  0  0  0  0
   26.9719  -27.2717  -16.2385 N   0  0  0  0  0  0  0  0  0  0  0  0
   26.1183  -25.4426  -17.4842 N   0  0  0  0  0  0  0  0  0  0  0  0
   26.0706  -24.0602  -17.0272 C   0  0  0  0  0  0  0  0  0  0  0  0
   24.6272  -23.7020  -16.7871 C   0  0  0  0  0  0  0  0  0  0  0  0
   24.4105  -22.3005  -16.3612 C   0  0  0  0  0  0  0  0  0  0  0  0
   25.5959  -21.4044  -16.3397 C   0  0  2  0  0  0  0  0  0  0  0  0
   26.8175  -22.1588  -16.4988 N   0  0  0  0  0  0  0  0  0  0  0  0
   25.6046  -20.6324  -15.0670 C   0  0  0  0  0  0  0  0  0  0  0  0
   24.6313  -19.8608  -14.8634 O   0  0  0  0  0  0  0  0  0  0  0  0
   27.8804  -27.1945  -16.7414 N   0  0  0  0  0  0  0  0  0  0  0  0
   26.6479  -20.7459  -14.1172 C   0  0  0  0  0  0  0  0  0  0  0  0
   26.6657  -19.8796  -12.9983 C   0  0  0  0  0  0  0  0  0  0  0  0
   26.7153  -20.5314  -11.6915 O   0  0  0  0  0  0  0  0  0  0  0  0
   26.8134  -21.7726  -11.5122 O   0  0  0  0  0  0  0  0  0  0  0  0
   28.9017  -20.8441   -3.2122 C   0  0  0  0  0  0  0  0  0  0  0  0
   28.5579  -20.4006   -4.4933 C   0  0  0  0  0  0  0  0  0  0  0  0
   29.0569  -21.0792   -5.5815 C   0  0  0  0  0  0  0  0  0  0  0  0
   28.7149  -20.6377   -6.8418 C   0  0  0  0  0  0  0  0  0  0  0  0
   27.8939  -19.5446   -7.0274 C   0  0  0  0  0  0  0  0  0  0  0  0
   27.5631  -19.1187   -8.3872 C   0  0  2  0  0  0  0  0  0  0  0  0
   26.8485  -20.1616   -9.2023 N   0  0  0  0  0  0  0  0  0  0  0  0
   26.6459  -19.6788  -10.5481 C   0  0  0  0  0  0  0  0  0  0  0  0
   25.5929  -20.6152   -8.5961 O   0  0  0  0  0  0  0  0  0  0  0  0
   24.5260  -20.0415   -8.8867 C   0  0  0  0  0  0  0  0  0  0  0  0
   27.4036  -18.8775   -5.9340 C   0  0  0  0  0  0  0  0  0  0  0  0
   27.7291  -19.2968   -4.6592 O   0  0  0  0  0  0  0  0  0  0  0  0
  2  4  1  0
  2  1  1  0
  3  2  2  0
  5  4  1  0
  6  5  1  0
  7  8  1  0
  7  6  1  0
  8  9  1  1
 10  8  1  0
 10 12  1  0
 11 10  2  0
 13 12  1  0
 14 15  2  0
 14 13  1  0
 16 17  1  0
 17 18  2  0
 18 19  1  0
 20 21  1  0
 20 19  2  0
 22 23  1  0
 22 21  1  6
 23 14  1  0
 24 22  1  0
 25 24  2  0
 26 20  1  0
 27 26  2  0
 27 17  1  0
 28 24  1  0
M  END
$$$$
