RGY.pdb
     RDKit          3D

 28 28  0  0  1  0  0  0  0  0999 V2000
   27.7839  -20.5202  -15.8839 N   0  0  0  0  0  0  0  0  0  0  0  0
   28.1125  -21.6802  -16.6580 C   0  0  0  0  0  0  0  0  0  0  0  0
   29.2519  -22.2458  -16.5200 N   0  0  0  0  0  0  0  0  0  0  0  0
   27.1255  -22.1576  -17.5671 N   0  0  0  0  0  0  0  0  0  0  0  0
   25.8394  -21.4735  -17.5794 C   0  0  0  0  0  0  0  0  0  0  0  0
   25.0162  -22.0156  -16.4402 C   0  0  0  0  0  0  0  0  0  0  0  0
   23.6062  -21.5634  -16.4390 C   0  0  0  0  0  0  0  0  0  0  0  0
   23.3485  -20.1381  -16.1066 C   0  0  2  0  0  0  0  0  0  0  0  0
   24.4608  -19.5663  -15.3838 N   0  0  0  0  0  0  0  0  0  0  0  0
   22.0892  -20.0377  -15.3192 C   0  0  0  0  0  0  0  0  0  0  0  0
   21.1400  -20.7876  -15.6668 O   0  0  0  0  0  0  0  0  0  0  0  0
   29.4792  -23.1152  -17.0460 N   0  0  0  0  0  0  0  0  0  0  0  0
   21.9449  -19.1480  -14.2279 C   0  0  0  0  0  0  0  0  0  0  0  0
   20.7179  -19.1054  -13.5240 C   0  0  0  0  0  0  0  0  0  0  0  0
   19.5828  -18.5531  -14.2599 O   0  0  0  0  0  0  0  0  0  0  0  0
   19.4888  -17.3586  -14.6428 O   0  0  0  0  0  0  0  0  0  0  0  0
   21.3675  -17.7713  -20.1527 C   0  0  0  0  0  0  0  0  0  0  0  0
   20.3726  -18.2515  -19.2950 C   0  0  0  0  0  0  0  0  0  0  0  0
   20.6493  -19.3508  -18.5149 C   0  0  0  0  0  0  0  0  0  0  0  0
   19.6651  -19.8198  -17.6713 C   0  0  0  0  0  0  0  0  0  0  0  0
   18.4271  -19.2153  -17.5973 C   0  0  0  0  0  0  0  0  0  0  0  0
   17.4189  -19.7546  -16.6850 C   0  0  2  0  0  0  0  0  0  0  0  0
   17.3686  -19.0680  -15.3476 N   0  0  0  0  0  0  0  0  0  0  0  0
   18.5133  -19.4520  -14.5554 C   0  0  0  0  0  0  0  0  0  0  0  0
   16.1123  -19.2907  -14.6253 O   0  0  0  0  0  0  0  0  0  0  0  0
   16.1288  -19.8792  -13.5275 C   0  0  0  0  0  0  0  0  0  0  0  0
   18.1647  -18.1204  -18.3805 C   0  0  0  0  0  0  0  0  0  0  0  0
   19.1313  -17.6281  -19.2351 O   0  0  0  0  0  0  0  0  0  0  0  0
  2  4  1  0
  2  1  1  0
  3  2  2  0
  5  4  1  0
  6  5  1  0
  7  8  1  0
  7  6  1  0
  8  9  1  1
 10  8  1  0
 10 12  1  0
 11 10  2  0
 13 12  1  0
 14 15  2  0
 14 13  1  0
 16 17  1  0
 17 18  2  0
 18 19  1  0
 20 21  1  0
 20 19  2  0
 22 23  1  0
 22 21  1  6
 23 14  1  0
 24 22  1  0
 25 24  2  0
 26 20  1  0
 27 26  2  0
 27 17  1  0
 28 24  1  0
M  END
$$$$
