RGY.pdb
     RDKit          3D

 28 28  0  0  1  0  0  0  0  0999 V2000
   18.9671  -24.0461   -8.2835 N   0  0  0  0  0  0  0  0  0  0  0  0
   18.0766  -25.1553   -8.4555 C   0  0  0  0  0  0  0  0  0  0  0  0
   17.7334  -25.8684   -7.4500 N   0  0  0  0  0  0  0  0  0  0  0  0
   17.6059  -25.4142   -9.7745 N   0  0  0  0  0  0  0  0  0  0  0  0
   18.0057  -24.4850  -10.8228 C   0  0  0  0  0  0  0  0  0  0  0  0
   17.4315  -24.9810  -12.1242 C   0  0  0  0  0  0  0  0  0  0  0  0
   17.7005  -24.0998  -13.2834 C   0  0  0  0  0  0  0  0  0  0  0  0
   17.6067  -22.6335  -13.0603 C   0  0  2  0  0  0  0  0  0  0  0  0
   16.2297  -22.2174  -12.9293 N   0  0  0  0  0  0  0  0  0  0  0  0
   18.2771  -21.9224  -14.1832 C   0  0  0  0  0  0  0  0  0  0  0  0
   17.5311  -21.4123  -15.0592 O   0  0  0  0  0  0  0  0  0  0  0  0
   17.0530  -26.6487   -7.5613 N   0  0  0  0  0  0  0  0  0  0  0  0
   19.6850  -21.8133  -14.2802 C   0  0  0  0  0  0  0  0  0  0  0  0
   20.2623  -21.3130  -15.4714 C   0  0  0  0  0  0  0  0  0  0  0  0
   21.6294  -20.8112  -15.3522 O   0  0  0  0  0  0  0  0  0  0  0  0
   22.2367  -20.6353  -14.2647 O   0  0  0  0  0  0  0  0  0  0  0  0
   23.7896  -26.2080  -14.7994 C   0  0  0  0  0  0  0  0  0  0  0  0
   23.9900  -24.9557  -15.3891 C   0  0  0  0  0  0  0  0  0  0  0  0
   23.0834  -24.5159  -16.3263 C   0  0  0  0  0  0  0  0  0  0  0  0
   23.2858  -23.2809  -16.9043 C   0  0  0  0  0  0  0  0  0  0  0  0
   24.3648  -22.4911  -16.5643 C   0  0  0  0  0  0  0  0  0  0  0  0
   24.5317  -21.1887  -17.2090 C   0  0  2  0  0  0  0  0  0  0  0  0
   23.6910  -20.0938  -16.6115 N   0  0  0  0  0  0  0  0  0  0  0  0
   22.3071  -20.5042  -16.5711 C   0  0  0  0  0  0  0  0  0  0  0  0
   23.8520  -18.8019  -17.2859 O   0  0  0  0  0  0  0  0  0  0  0  0
   24.9617  -18.2359  -17.2762 C   0  0  0  0  0  0  0  0  0  0  0  0
   25.2606  -22.9417  -15.6287 C   0  0  0  0  0  0  0  0  0  0  0  0
   25.0837  -24.1748  -15.0328 O   0  0  0  0  0  0  0  0  0  0  0  0
  2  4  1  0
  2  1  1  0
  3  2  2  0
  5  4  1  0
  6  5  1  0
  7  8  1  0
  7  6  1  0
  8  9  1  6
 10  8  1  0
 10 12  1  0
 11 10  2  0
 13 12  1  0
 14 15  2  0
 14 13  1  0
 16 17  1  0
 17 18  2  0
 18 19  1  0
 20 21  1  0
 20 19  2  0
 22 23  1  0
 22 21  1  1
 23 14  1  0
 24 22  1  0
 25 24  2  0
 26 20  1  0
 27 26  2  0
 27 17  1  0
 28 24  1  0
M  END
$$$$
