RGY.pdb
     RDKit          3D

 28 28  0  0  1  0  0  0  0  0999 V2000
   24.0795  -19.4829  -21.0389 N   0  0  0  0  0  0  0  0  0  0  0  0
   23.2964  -18.3299  -21.3709 C   0  0  0  0  0  0  0  0  0  0  0  0
   22.7539  -18.2297  -22.5254 N   0  0  0  0  0  0  0  0  0  0  0  0
   23.1583  -17.3261  -20.3700 N   0  0  0  0  0  0  0  0  0  0  0  0
   23.9011  -17.5095  -19.1304 C   0  0  0  0  0  0  0  0  0  0  0  0
   25.0611  -16.5483  -19.1397 C   0  0  0  0  0  0  0  0  0  0  0  0
   26.0772  -16.8105  -18.0950 C   0  0  0  0  0  0  0  0  0  0  0  0
   25.6362  -17.5577  -16.8885 C   0  0  2  0  0  0  0  0  0  0  0  0
   25.8169  -16.7650  -15.6945 N   0  0  0  0  0  0  0  0  0  0  0  0
   26.3908  -18.8380  -16.8012 C   0  0  0  0  0  0  0  0  0  0  0  0
   26.1609  -19.6954  -17.6935 O   0  0  0  0  0  0  0  0  0  0  0  0
   22.2107  -17.3797  -22.7837 N   0  0  0  0  0  0  0  0  0  0  0  0
   27.3268  -19.0990  -15.7720 C   0  0  0  0  0  0  0  0  0  0  0  0
   27.8386  -20.4090  -15.6146 C   0  0  0  0  0  0  0  0  0  0  0  0
   27.2799  -21.1798  -14.5061 O   0  0  0  0  0  0  0  0  0  0  0  0
   27.8987  -21.4692  -13.4499 O   0  0  0  0  0  0  0  0  0  0  0  0
   26.7674  -20.6935   -7.5095 C   0  0  0  0  0  0  0  0  0  0  0  0
   26.3257  -20.5937   -8.8328 C   0  0  0  0  0  0  0  0  0  0  0  0
   27.2577  -20.3942   -9.8254 C   0  0  0  0  0  0  0  0  0  0  0  0
   26.8168  -20.2965  -11.1278 C   0  0  0  0  0  0  0  0  0  0  0  0
   25.4783  -20.3938  -11.4477 C   0  0  0  0  0  0  0  0  0  0  0  0
   25.0652  -20.2827  -12.8465 C   0  0  2  0  0  0  0  0  0  0  0  0
   24.9783  -21.5991  -13.5693 N   0  0  0  0  0  0  0  0  0  0  0  0
   25.9320  -21.6276  -14.6533 C   0  0  0  0  0  0  0  0  0  0  0  0
   23.6249  -21.9216  -14.0316 O   0  0  0  0  0  0  0  0  0  0  0  0
   23.1620  -21.3436  -15.0334 C   0  0  0  0  0  0  0  0  0  0  0  0
   24.5601  -20.5927  -10.4485 C   0  0  0  0  0  0  0  0  0  0  0  0
   24.9723  -20.6944   -9.1345 O   0  0  0  0  0  0  0  0  0  0  0  0
  2  4  1  0
  2  1  1  0
  3  2  2  0
  5  4  1  0
  6  5  1  0
  7  8  1  0
  7  6  1  0
  8  9  1  1
 10  8  1  0
 10 12  1  0
 11 10  2  0
 13 12  1  0
 14 15  2  0
 14 13  1  0
 16 17  1  0
 17 18  2  0
 18 19  1  0
 20 21  1  0
 20 19  2  0
 22 23  1  0
 22 21  1  1
 23 14  1  0
 24 22  1  0
 25 24  2  0
 26 20  1  0
 27 26  2  0
 27 17  1  0
 28 24  1  0
M  END
$$$$
