RGY.pdb
     RDKit          3D

 28 28  0  0  1  0  0  0  0  0999 V2000
   30.5254  -24.6202  -18.9283 N   0  0  0  0  0  0  0  0  0  0  0  0
   30.3122  -24.5305  -17.5143 C   0  0  0  0  0  0  0  0  0  0  0  0
   30.3810  -25.5790  -16.7842 N   0  0  0  0  0  0  0  0  0  0  0  0
   30.0265  -23.2419  -16.9791 N   0  0  0  0  0  0  0  0  0  0  0  0
   28.7062  -22.6852  -17.2419 C   0  0  0  0  0  0  0  0  0  0  0  0
   28.5720  -22.4956  -18.7303 C   0  0  0  0  0  0  0  0  0  0  0  0
   27.6047  -21.4465  -19.1255 C   0  0  0  0  0  0  0  0  0  0  0  0
   27.0718  -20.5713  -18.0491 C   0  0  2  0  0  0  0  0  0  0  0  0
   27.3007  -21.1546  -16.7476 N   0  0  0  0  0  0  0  0  0  0  0  0
   25.6208  -20.3344  -18.2826 C   0  0  0  0  0  0  0  0  0  0  0  0
   25.3011  -19.7956  -19.3743 O   0  0  0  0  0  0  0  0  0  0  0  0
   30.2242  -25.5204  -15.7565 N   0  0  0  0  0  0  0  0  0  0  0  0
   24.6312  -20.6903  -17.3353 C   0  0  0  0  0  0  0  0  0  0  0  0
   23.3200  -20.9858  -17.7783 C   0  0  0  0  0  0  0  0  0  0  0  0
   22.3855  -21.4276  -16.7455 O   0  0  0  0  0  0  0  0  0  0  0  0
   21.2083  -21.8146  -16.9614 O   0  0  0  0  0  0  0  0  0  0  0  0
   26.0310  -26.6237  -17.0302 C   0  0  0  0  0  0  0  0  0  0  0  0
   25.3486  -25.7395  -16.1885 C   0  0  0  0  0  0  0  0  0  0  0  0
   25.8397  -24.4631  -16.0361 C   0  0  0  0  0  0  0  0  0  0  0  0
   25.1631  -23.5957  -15.2053 C   0  0  0  0  0  0  0  0  0  0  0  0
   24.0202  -23.9798  -14.5348 C   0  0  0  0  0  0  0  0  0  0  0  0
   23.3417  -23.0190  -13.6652 C   0  0  2  0  0  0  0  0  0  0  0  0
   22.2747  -22.2124  -14.3533 N   0  0  0  0  0  0  0  0  0  0  0  0
   22.8639  -21.4109  -15.4001 C   0  0  0  0  0  0  0  0  0  0  0  0
   21.4763  -21.3969  -13.4329 O   0  0  0  0  0  0  0  0  0  0  0  0
   21.6077  -20.1581  -13.4352 C   0  0  0  0  0  0  0  0  0  0  0  0
   23.5417  -25.2550  -14.6957 C   0  0  0  0  0  0  0  0  0  0  0  0
   24.1984  -26.1459  -15.5215 O   0  0  0  0  0  0  0  0  0  0  0  0
  2  4  1  0
  2  1  1  0
  3  2  2  0
  5  4  1  0
  6  5  1  0
  7  8  1  0
  7  6  1  0
  8  9  1  1
 10  8  1  0
 10 12  1  0
 11 10  2  0
 13 12  1  0
 14 15  2  0
 14 13  1  0
 16 17  1  0
 17 18  2  0
 18 19  1  0
 20 21  1  0
 20 19  2  0
 22 23  1  0
 22 21  1  6
 23 14  1  0
 24 22  1  0
 25 24  2  0
 26 20  1  0
 27 26  2  0
 27 17  1  0
 28 24  1  0
M  END
$$$$
