RGY.pdb
     RDKit          3D

 28 28  0  0  1  0  0  0  0  0999 V2000
   26.6741  -21.3882  -20.4896 N   0  0  0  0  0  0  0  0  0  0  0  0
   26.0885  -20.7935  -21.6543 C   0  0  0  0  0  0  0  0  0  0  0  0
   25.6896  -21.5291  -22.6223 N   0  0  0  0  0  0  0  0  0  0  0  0
   25.9775  -19.3738  -21.6748 N   0  0  0  0  0  0  0  0  0  0  0  0
   26.2277  -18.6642  -20.4274 C   0  0  0  0  0  0  0  0  0  0  0  0
   24.8987  -18.2248  -19.8706 C   0  0  0  0  0  0  0  0  0  0  0  0
   24.9833  -17.5466  -18.5570 C   0  0  0  0  0  0  0  0  0  0  0  0
   24.4794  -18.2903  -17.3731 C   0  0  2  0  0  0  0  0  0  0  0  0
   24.9193  -19.6659  -17.4008 N   0  0  0  0  0  0  0  0  0  0  0  0
   22.9939  -18.2031  -17.3345 C   0  0  0  0  0  0  0  0  0  0  0  0
   22.3587  -18.9865  -18.0875 O   0  0  0  0  0  0  0  0  0  0  0  0
   25.2681  -21.1022  -23.4734 N   0  0  0  0  0  0  0  0  0  0  0  0
   22.3083  -17.2900  -16.4981 C   0  0  0  0  0  0  0  0  0  0  0  0
   20.8931  -17.2774  -16.4966 C   0  0  0  0  0  0  0  0  0  0  0  0
   20.2534  -17.9712  -15.3811 O   0  0  0  0  0  0  0  0  0  0  0  0
   19.0355  -17.8764  -15.0811 O   0  0  0  0  0  0  0  0  0  0  0  0
   20.2007  -23.2929   -8.2904 C   0  0  0  0  0  0  0  0  0  0  0  0
   20.5669  -22.5734   -9.4324 C   0  0  0  0  0  0  0  0  0  0  0  0
   21.2969  -21.4172   -9.2770 C   0  0  0  0  0  0  0  0  0  0  0  0
   21.6552  -20.7120  -10.4059 C   0  0  0  0  0  0  0  0  0  0  0  0
   21.2998  -21.1391  -11.6688 C   0  0  0  0  0  0  0  0  0  0  0  0
   21.7062  -20.3520  -12.8329 C   0  0  2  0  0  0  0  0  0  0  0  0
   20.6210  -19.4721  -13.3904 N   0  0  0  0  0  0  0  0  0  0  0  0
   21.0898  -18.8128  -14.5866 C   0  0  0  0  0  0  0  0  0  0  0  0
   20.0915  -18.5123  -12.4167 O   0  0  0  0  0  0  0  0  0  0  0  0
   20.7067  -17.4509  -12.2007 C   0  0  0  0  0  0  0  0  0  0  0  0
   20.5722  -22.2931  -11.8093 C   0  0  0  0  0  0  0  0  0  0  0  0
   20.1990  -23.0205  -10.6963 O   0  0  0  0  0  0  0  0  0  0  0  0
  2  4  1  0
  2  1  1  0
  3  2  2  0
  5  4  1  0
  6  5  1  0
  7  8  1  0
  7  6  1  0
  8  9  1  6
 10  8  1  0
 10 12  1  0
 11 10  2  0
 13 12  1  0
 14 15  2  0
 14 13  1  0
 16 17  1  0
 17 18  2  0
 18 19  1  0
 20 21  1  0
 20 19  2  0
 22 23  1  0
 22 21  1  6
 23 14  1  0
 24 22  1  0
 25 24  2  0
 26 20  1  0
 27 26  2  0
 27 17  1  0
 28 24  1  0
M  END
$$$$
