RGY.pdb
     RDKit          3D

 28 28  0  0  1  0  0  0  0  0999 V2000
   21.9531  -12.3294  -21.8276 N   0  0  0  0  0  0  0  0  0  0  0  0
   22.5449  -13.6337  -21.7898 C   0  0  0  0  0  0  0  0  0  0  0  0
   23.0521  -14.1423  -22.8487 N   0  0  0  0  0  0  0  0  0  0  0  0
   22.5378  -14.3162  -20.5398 N   0  0  0  0  0  0  0  0  0  0  0  0
   21.6395  -13.8152  -19.5082 C   0  0  0  0  0  0  0  0  0  0  0  0
   21.6446  -14.8031  -18.3709 C   0  0  0  0  0  0  0  0  0  0  0  0
   20.6847  -14.4895  -17.2879 C   0  0  0  0  0  0  0  0  0  0  0  0
   19.2816  -14.9446  -17.4687 C   0  0  2  0  0  0  0  0  0  0  0  0
   19.1095  -15.5951  -18.7469 N   0  0  0  0  0  0  0  0  0  0  0  0
   18.3661  -13.7787  -17.3330 C   0  0  0  0  0  0  0  0  0  0  0  0
   18.2520  -13.2760  -16.1847 O   0  0  0  0  0  0  0  0  0  0  0  0
   23.3589  -15.1373  -22.8642 N   0  0  0  0  0  0  0  0  0  0  0  0
   17.6486  -13.2450  -18.4301 C   0  0  0  0  0  0  0  0  0  0  0  0
   16.8221  -12.1129  -18.2349 C   0  0  0  0  0  0  0  0  0  0  0  0
   17.4948  -10.8174  -18.2979 O   0  0  0  0  0  0  0  0  0  0  0  0
   18.7406  -10.6587  -18.3693 O   0  0  0  0  0  0  0  0  0  0  0  0
   18.1379  -10.1090  -24.3928 C   0  0  0  0  0  0  0  0  0  0  0  0
   17.7593   -9.5030  -23.1906 C   0  0  0  0  0  0  0  0  0  0  0  0
   18.4742   -8.4137  -22.7479 C   0  0  0  0  0  0  0  0  0  0  0  0
   18.0967   -7.8203  -21.5623 C   0  0  0  0  0  0  0  0  0  0  0  0
   17.0312   -8.2926  -20.8240 C   0  0  0  0  0  0  0  0  0  0  0  0
   16.6738   -7.6251  -19.5724 C   0  0  2  0  0  0  0  0  0  0  0  0
   17.1843   -8.3168  -18.3381 N   0  0  0  0  0  0  0  0  0  0  0  0
   16.6583   -9.6602  -18.2754 C   0  0  0  0  0  0  0  0  0  0  0  0
   16.9186   -7.5743  -17.1022 O   0  0  0  0  0  0  0  0  0  0  0  0
   16.2116   -8.0882  -16.2145 C   0  0  0  0  0  0  0  0  0  0  0  0
   16.3273   -9.3791  -21.2769 C   0  0  0  0  0  0  0  0  0  0  0  0
   16.6824   -9.9942  -22.4612 O   0  0  0  0  0  0  0  0  0  0  0  0
  2  4  1  0
  2  1  1  0
  3  2  2  0
  5  4  1  0
  6  5  1  0
  7  8  1  0
  7  6  1  0
  8  9  1  6
 10  8  1  0
 10 12  1  0
 11 10  2  0
 13 12  1  0
 14 15  2  0
 14 13  1  0
 16 17  1  0
 17 18  2  0
 18 19  1  0
 20 21  1  0
 20 19  2  0
 22 23  1  0
 22 21  1  6
 23 14  1  0
 24 22  1  0
 25 24  2  0
 26 20  1  0
 27 26  2  0
 27 17  1  0
 28 24  1  0
M  END
$$$$
