RGY.pdb
     RDKit          3D

 28 28  0  0  1  0  0  0  0  0999 V2000
   27.5005  -26.0583  -17.1619 N   0  0  0  0  0  0  0  0  0  0  0  0
   28.7401  -25.7152  -16.5306 C   0  0  0  0  0  0  0  0  0  0  0  0
   29.6368  -26.6085  -16.3429 N   0  0  0  0  0  0  0  0  0  0  0  0
   28.9152  -24.3588  -16.1331 N   0  0  0  0  0  0  0  0  0  0  0  0
   27.8380  -23.4269  -16.4389 C   0  0  0  0  0  0  0  0  0  0  0  0
   28.2759  -22.0539  -16.0001 C   0  0  0  0  0  0  0  0  0  0  0  0
   27.2644  -21.3163  -15.2091 C   0  0  0  0  0  0  0  0  0  0  0  0
   26.3387  -22.1199  -14.3689 C   0  0  2  0  0  0  0  0  0  0  0  0
   25.1984  -22.5647  -15.1359 N   0  0  0  0  0  0  0  0  0  0  0  0
   25.9122  -21.3093  -13.1955 C   0  0  0  0  0  0  0  0  0  0  0  0
   25.7871  -20.0699  -13.3759 O   0  0  0  0  0  0  0  0  0  0  0  0
   30.5336  -26.3682  -15.8714 N   0  0  0  0  0  0  0  0  0  0  0  0
   25.6543  -21.8848  -11.9283 C   0  0  0  0  0  0  0  0  0  0  0  0
   25.2377  -21.0549  -10.8604 C   0  0  0  0  0  0  0  0  0  0  0  0
   23.8801  -20.5241  -10.9613 O   0  0  0  0  0  0  0  0  0  0  0  0
   23.2716  -19.9295  -10.0348 O   0  0  0  0  0  0  0  0  0  0  0  0
   16.8315  -16.9383  -14.5507 C   0  0  0  0  0  0  0  0  0  0  0  0
   18.0718  -17.5468  -14.3331 C   0  0  0  0  0  0  0  0  0  0  0  0
   18.9680  -16.9328  -13.4883 C   0  0  0  0  0  0  0  0  0  0  0  0
   20.1889  -17.5369  -13.2774 C   0  0  0  0  0  0  0  0  0  0  0  0
   20.5222  -18.7277  -13.8893 C   0  0  0  0  0  0  0  0  0  0  0  0
   21.8321  -19.3252  -13.6304 C   0  0  2  0  0  0  0  0  0  0  0  0
   21.8624  -20.2529  -12.4467 N   0  0  0  0  0  0  0  0  0  0  0  0
   23.2138  -20.7043  -12.2115 C   0  0  0  0  0  0  0  0  0  0  0  0
   20.9297  -21.3780  -12.5643 O   0  0  0  0  0  0  0  0  0  0  0  0
   21.2708  -22.3979  -13.1931 C   0  0  0  0  0  0  0  0  0  0  0  0
   19.6196  -19.3289  -14.7289 C   0  0  0  0  0  0  0  0  0  0  0  0
   18.3886  -18.7469  -14.9592 O   0  0  0  0  0  0  0  0  0  0  0  0
  2  4  1  0
  2  1  1  0
  3  2  2  0
  5  4  1  0
  6  5  1  0
  7  8  1  0
  7  6  1  0
  8  9  1  6
 10  8  1  0
 10 12  1  0
 11 10  2  0
 13 12  1  0
 14 15  2  0
 14 13  1  0
 16 17  1  0
 17 18  2  0
 18 19  1  0
 20 21  1  0
 20 19  2  0
 22 23  1  0
 22 21  1  1
 23 14  1  0
 24 22  1  0
 25 24  2  0
 26 20  1  0
 27 26  2  0
 27 17  1  0
 28 24  1  0
M  END
$$$$
