RGY.pdb
     RDKit          3D

 28 28  0  0  1  0  0  0  0  0999 V2000
   23.1352  -17.4646  -14.7773 N   0  0  0  0  0  0  0  0  0  0  0  0
   22.1309  -18.2630  -15.4151 C   0  0  0  0  0  0  0  0  0  0  0  0
   20.9706  -17.7757  -15.6462 N   0  0  0  0  0  0  0  0  0  0  0  0
   22.4863  -19.5960  -15.7692 N   0  0  0  0  0  0  0  0  0  0  0  0
   23.7699  -20.0955  -15.2949 C   0  0  0  0  0  0  0  0  0  0  0  0
   24.5277  -20.6260  -16.4839 C   0  0  0  0  0  0  0  0  0  0  0  0
   25.9786  -20.3314  -16.4619 C   0  0  0  0  0  0  0  0  0  0  0  0
   26.8746  -21.3655  -15.8817 C   0  0  2  0  0  0  0  0  0  0  0  0
   26.1631  -22.6039  -15.6655 N   0  0  0  0  0  0  0  0  0  0  0  0
   27.4572  -20.8532  -14.6113 C   0  0  0  0  0  0  0  0  0  0  0  0
   28.3888  -20.0127  -14.7112 O   0  0  0  0  0  0  0  0  0  0  0  0
   20.2034  -18.3813  -16.0051 N   0  0  0  0  0  0  0  0  0  0  0  0
   27.0002  -21.2778  -13.3407 C   0  0  0  0  0  0  0  0  0  0  0  0
   27.6551  -20.8123  -12.1758 C   0  0  0  0  0  0  0  0  0  0  0  0
   27.0943  -21.2698  -10.9065 O   0  0  0  0  0  0  0  0  0  0  0  0
   26.7427  -22.4526  -10.6624 O   0  0  0  0  0  0  0  0  0  0  0  0
   30.5383  -20.0065   -4.4185 C   0  0  0  0  0  0  0  0  0  0  0  0
   29.4455  -19.8077   -5.2683 C   0  0  0  0  0  0  0  0  0  0  0  0
   28.7988  -20.9099   -5.7792 C   0  0  0  0  0  0  0  0  0  0  0  0
   27.7224  -20.7081   -6.6163 C   0  0  0  0  0  0  0  0  0  0  0  0
   27.2894  -19.4402   -6.9453 C   0  0  0  0  0  0  0  0  0  0  0  0
   26.1417  -19.2834   -7.8385 C   0  0  2  0  0  0  0  0  0  0  0  0
   25.9694  -20.4080   -8.8226 N   0  0  0  0  0  0  0  0  0  0  0  0
   26.9429  -20.2863   -9.8822 C   0  0  0  0  0  0  0  0  0  0  0  0
   24.6060  -20.5158   -9.3511 O   0  0  0  0  0  0  0  0  0  0  0  0
   24.3196  -19.9689  -10.4331 C   0  0  0  0  0  0  0  0  0  0  0  0
   27.9430  -18.3505   -6.4291 C   0  0  0  0  0  0  0  0  0  0  0  0
   29.0246  -18.5218   -5.5878 O   0  0  0  0  0  0  0  0  0  0  0  0
  2  4  1  0
  2  1  1  0
  3  2  2  0
  5  4  1  0
  6  5  1  0
  7  8  1  0
  7  6  1  0
  8  9  1  1
 10  8  1  0
 10 12  1  0
 11 10  2  0
 13 12  1  0
 14 15  2  0
 14 13  1  0
 16 17  1  0
 17 18  2  0
 18 19  1  0
 20 21  1  0
 20 19  2  0
 22 23  1  0
 22 21  1  1
 23 14  1  0
 24 22  1  0
 25 24  2  0
 26 20  1  0
 27 26  2  0
 27 17  1  0
 28 24  1  0
M  END
$$$$
