RGY.pdb
     RDKit          3D

 28 28  0  0  1  0  0  0  0  0999 V2000
   31.5500  -22.1359  -11.1612 N   0  0  0  0  0  0  0  0  0  0  0  0
   31.6666  -22.4567   -9.7696 C   0  0  0  0  0  0  0  0  0  0  0  0
   32.5823  -23.2543   -9.3664 N   0  0  0  0  0  0  0  0  0  0  0  0
   30.7303  -21.8539   -8.8816 N   0  0  0  0  0  0  0  0  0  0  0  0
   29.8035  -20.8812   -9.4448 C   0  0  0  0  0  0  0  0  0  0  0  0
   28.7069  -21.6394  -10.1461 C   0  0  0  0  0  0  0  0  0  0  0  0
   27.7211  -20.7803  -10.8409 C   0  0  0  0  0  0  0  0  0  0  0  0
   26.3167  -21.2632  -10.8965 C   0  0  2  0  0  0  0  0  0  0  0  0
   26.2427  -22.6741  -10.5960 N   0  0  0  0  0  0  0  0  0  0  0  0
   25.7503  -20.9712  -12.2418 C   0  0  0  0  0  0  0  0  0  0  0  0
   25.6390  -19.7588  -12.5609 O   0  0  0  0  0  0  0  0  0  0  0  0
   32.6279  -23.5475   -8.3683 N   0  0  0  0  0  0  0  0  0  0  0  0
   25.3495  -21.9934  -13.1351 C   0  0  0  0  0  0  0  0  0  0  0  0
   24.8233  -21.6424  -14.4011 C   0  0  0  0  0  0  0  0  0  0  0  0
   23.7355  -20.6670  -14.3881 O   0  0  0  0  0  0  0  0  0  0  0  0
   23.0768  -20.3406  -13.3673 O   0  0  0  0  0  0  0  0  0  0  0  0
   28.1295  -16.3606  -15.3990 C   0  0  0  0  0  0  0  0  0  0  0  0
   26.8104  -16.7330  -15.6771 C   0  0  0  0  0  0  0  0  0  0  0  0
   26.5751  -17.5900  -16.7278 C   0  0  0  0  0  0  0  0  0  0  0  0
   25.2730  -17.9537  -16.9974 C   0  0  0  0  0  0  0  0  0  0  0  0
   24.2188  -17.4805  -16.2436 C   0  0  0  0  0  0  0  0  0  0  0  0
   22.8565  -17.8986  -16.5737 C   0  0  2  0  0  0  0  0  0  0  0  0
   22.3612  -19.0714  -15.7724 N   0  0  0  0  0  0  0  0  0  0  0  0
   23.4129  -20.0515  -15.6356 C   0  0  0  0  0  0  0  0  0  0  0  0
   21.1339  -19.6672  -16.3094 O   0  0  0  0  0  0  0  0  0  0  0  0
   21.1691  -20.8099  -16.8042 C   0  0  0  0  0  0  0  0  0  0  0  0
   24.4676  -16.6270  -15.1993 C   0  0  0  0  0  0  0  0  0  0  0  0
   25.7618  -16.2452  -14.9056 O   0  0  0  0  0  0  0  0  0  0  0  0
  2  4  1  0
  2  1  1  0
  3  2  2  0
  5  4  1  0
  6  5  1  0
  7  8  1  0
  7  6  1  0
  8  9  1  6
 10  8  1  0
 10 12  1  0
 11 10  2  0
 13 12  1  0
 14 15  2  0
 14 13  1  0
 16 17  1  0
 17 18  2  0
 18 19  1  0
 20 21  1  0
 20 19  2  0
 22 23  1  0
 22 21  1  1
 23 14  1  0
 24 22  1  0
 25 24  2  0
 26 20  1  0
 27 26  2  0
 27 17  1  0
 28 24  1  0
M  END
$$$$
