ETQ.pdb
     RDKit          3D

 26 25  0  0  1  0  0  0  0  0999 V2000
   20.1571  -13.4767  -16.1261 N   0  0  0  0  0  0  0  0  0  0  0  0
   19.0823  -12.4961  -16.2744 C   0  0  1  0  0  0  0  0  0  0  0  0
   17.7819  -13.0474  -15.8159 C   0  0  0  0  0  0  0  0  0  0  0  0
   17.6592  -14.5060  -16.1546 C   0  0  0  0  0  0  0  0  0  0  0  0
   16.3968  -15.0843  -15.5968 C   0  0  0  0  0  0  0  0  0  0  0  0
   15.5366  -14.3183  -15.1568 O   0  0  0  0  0  0  0  0  0  0  0  0
   19.4314  -11.2639  -15.5461 C   0  0  0  0  0  0  0  0  0  0  0  0
   19.3123  -11.0903  -14.3020 O   0  0  0  0  0  0  0  0  0  0  0  0
   16.2364  -16.4352  -15.5917 O   0  0  0  0  0  0  0  0  0  0  0  0
   22.5708   -9.8997  -14.9546 C   0  0  0  0  0  0  0  0  0  0  0  0
   21.8796   -8.8616  -15.7973 C   0  0  1  0  0  0  0  0  0  0  0  0
   22.0902   -9.1790  -17.1377 O   0  0  0  0  0  0  0  0  0  0  0  0
   20.3655   -8.9634  -15.5703 C   0  0  2  0  0  0  0  0  0  0  0  0
   19.9515  -10.1632  -16.3052 N   0  0  0  0  0  0  0  0  0  0  0  0
   19.7161   -7.8067  -16.2381 C   0  0  0  0  0  0  0  0  0  0  0  0
   19.1871   -7.9329  -17.3864 O   0  0  0  0  0  0  0  0  0  0  0  0
   15.1766   -4.8727  -14.7775 N   0  0  0  0  0  0  0  0  0  0  0  0
   15.5129   -3.9890  -15.8274 C   0  0  0  0  0  0  0  0  0  0  0  0
   14.7267   -3.1367  -16.2696 O   0  0  0  0  0  0  0  0  0  0  0  0
   16.8824   -4.0937  -16.4272 C   0  0  0  0  0  0  0  0  0  0  0  0
   17.6087   -5.2305  -15.7959 C   0  0  0  0  0  0  0  0  0  0  0  0
   18.9818   -5.4112  -16.3432 C   0  0  2  0  0  0  0  0  0  0  0  0
   19.6474   -6.5333  -15.6576 N   0  0  0  0  0  0  0  0  0  0  0  0
   19.8024   -4.2156  -16.1415 C   0  0  0  0  0  0  0  0  0  0  0  0
   20.5469   -4.0734  -15.1444 O   0  0  0  0  0  0  0  0  0  0  0  0
   19.7402   -3.1922  -17.1194 O   0  0  0  0  0  0  0  0  0  0  0  0
  2  1  1  1
  3  2  1  0
  4  3  1  0
  5  6  2  0
  5  4  1  0
  7  2  1  0
  8  7  2  0
  9  5  1  0
 11 10  1  1
 11 12  1  0
 13 11  1  0
 13 14  1  6
 14  7  1  0
 15 13  1  0
 16 15  2  0
 18 20  1  0
 18 17  1  0
 19 18  2  0
 21 20  1  0
 22 21  1  1
 22 23  1  0
 23 15  1  0
 24 26  1  0
 24 22  1  0
 25 24  2  0
M  END
$$$$
