ETQ.pdb
     RDKit          3D

 26 25  0  0  1  0  0  0  0  0999 V2000
   17.9534  -12.9216  -15.3565 N   0  0  0  0  0  0  0  0  0  0  0  0
   17.0261  -11.8065  -15.1678 C   0  0  1  0  0  0  0  0  0  0  0  0
   15.7457  -12.2646  -14.5711 C   0  0  0  0  0  0  0  0  0  0  0  0
   14.9991  -13.1676  -15.5115 C   0  0  0  0  0  0  0  0  0  0  0  0
   13.7579  -13.7047  -14.8710 C   0  0  0  0  0  0  0  0  0  0  0  0
   13.0052  -14.4166  -15.5396 O   0  0  0  0  0  0  0  0  0  0  0  0
   17.6632  -10.7661  -14.3419 C   0  0  0  0  0  0  0  0  0  0  0  0
   18.4104  -10.9767  -13.3473 O   0  0  0  0  0  0  0  0  0  0  0  0
   13.4976  -13.3920  -13.5729 O   0  0  0  0  0  0  0  0  0  0  0  0
   19.2411   -6.2417  -13.9405 C   0  0  0  0  0  0  0  0  0  0  0  0
   18.7484   -7.4194  -14.7378 C   0  0  1  0  0  0  0  0  0  0  0  0
   19.8563   -8.1405  -15.1784 O   0  0  0  0  0  0  0  0  0  0  0  0
   17.9723   -8.3610  -13.8075 C   0  0  2  0  0  0  0  0  0  0  0  0
   17.4206   -9.3953  -14.6889 N   0  0  0  0  0  0  0  0  0  0  0  0
   16.8169   -7.6142  -13.2480 C   0  0  0  0  0  0  0  0  0  0  0  0
   15.8283   -7.3019  -13.9826 O   0  0  0  0  0  0  0  0  0  0  0  0
   14.9502   -7.5202   -7.4146 N   0  0  0  0  0  0  0  0  0  0  0  0
   14.1091   -6.4917   -7.8953 C   0  0  0  0  0  0  0  0  0  0  0  0
   13.2622   -5.9261   -7.1862 O   0  0  0  0  0  0  0  0  0  0  0  0
   14.2541   -6.0724   -9.3269 C   0  0  0  0  0  0  0  0  0  0  0  0
   15.3387   -6.8698   -9.9642 C   0  0  0  0  0  0  0  0  0  0  0  0
   15.5784   -6.4850  -11.3827 C   0  0  2  0  0  0  0  0  0  0  0  0
   16.7459   -7.2163  -11.9065 N   0  0  0  0  0  0  0  0  0  0  0  0
   15.8546   -5.0530  -11.5118 C   0  0  0  0  0  0  0  0  0  0  0  0
   14.9583   -4.2176  -11.7712 O   0  0  0  0  0  0  0  0  0  0  0  0
   17.1898   -4.6135  -11.3336 O   0  0  0  0  0  0  0  0  0  0  0  0
  2  1  1  1
  3  2  1  0
  4  3  1  0
  5  6  2  0
  5  4  1  0
  7  2  1  0
  8  7  2  0
  9  5  1  0
 11 10  1  1
 11 12  1  0
 13 11  1  0
 13 14  1  6
 14  7  1  0
 15 13  1  0
 16 15  2  0
 18 20  1  0
 18 17  1  0
 19 18  2  0
 21 20  1  0
 22 21  1  1
 22 23  1  0
 23 15  1  0
 24 26  1  0
 24 22  1  0
 25 24  2  0
M  END
$$$$
