ETQ.pdb
     RDKit          3D

 26 25  0  0  1  0  0  0  0  0999 V2000
   19.4928  -15.4579  -16.9767 N   0  0  0  0  0  0  0  0  0  0  0  0
   19.8827  -14.1670  -17.5427 C   0  0  1  0  0  0  0  0  0  0  0  0
   18.7057  -13.4329  -18.0730 C   0  0  0  0  0  0  0  0  0  0  0  0
   17.9386  -14.2714  -19.0556 C   0  0  0  0  0  0  0  0  0  0  0  0
   16.8030  -13.5000  -19.6511 C   0  0  0  0  0  0  0  0  0  0  0  0
   15.6515  -13.8997  -19.4650 O   0  0  0  0  0  0  0  0  0  0  0  0
   20.5976  -13.3755  -16.5264 C   0  0  0  0  0  0  0  0  0  0  0  0
   20.3409  -13.3674  -15.2911 O   0  0  0  0  0  0  0  0  0  0  0  0
   17.0745  -12.3829  -20.3785 O   0  0  0  0  0  0  0  0  0  0  0  0
   24.7184  -11.1907  -15.3086 C   0  0  0  0  0  0  0  0  0  0  0  0
   23.8846  -12.0561  -16.2148 C   0  0  1  0  0  0  0  0  0  0  0  0
   24.0883  -13.3865  -15.8542 O   0  0  0  0  0  0  0  0  0  0  0  0
   22.4006  -11.7678  -15.9517 C   0  0  2  0  0  0  0  0  0  0  0  0
   21.6782  -12.5410  -16.9673 N   0  0  0  0  0  0  0  0  0  0  0  0
   22.1462  -10.3341  -16.2437 C   0  0  0  0  0  0  0  0  0  0  0  0
   22.0570   -9.9213  -17.4421 O   0  0  0  0  0  0  0  0  0  0  0  0
   18.0338   -7.1382  -17.3787 N   0  0  0  0  0  0  0  0  0  0  0  0
   17.9230   -7.4429  -16.0035 C   0  0  0  0  0  0  0  0  0  0  0  0
   16.8551   -7.3563  -15.3773 O   0  0  0  0  0  0  0  0  0  0  0  0
   19.1558   -7.8899  -15.2778 C   0  0  0  0  0  0  0  0  0  0  0  0
   20.2922   -7.9596  -16.2380 C   0  0  0  0  0  0  0  0  0  0  0  0
   21.6180   -7.9799  -15.5602 C   0  0  2  0  0  0  0  0  0  0  0  0
   21.9921   -9.3690  -15.2397 N   0  0  0  0  0  0  0  0  0  0  0  0
   21.5921   -7.2245  -14.3063 C   0  0  0  0  0  0  0  0  0  0  0  0
   21.6149   -7.7836  -13.1858 O   0  0  0  0  0  0  0  0  0  0  0  0
   21.5397   -5.8105  -14.3814 O   0  0  0  0  0  0  0  0  0  0  0  0
  2  1  1  1
  3  2  1  0
  4  3  1  0
  5  6  2  0
  5  4  1  0
  7  2  1  0
  8  7  2  0
  9  5  1  0
 11 10  1  1
 11 12  1  0
 13 11  1  0
 13 14  1  6
 14  7  1  0
 15 13  1  0
 16 15  2  0
 18 20  1  0
 18 17  1  0
 19 18  2  0
 21 20  1  0
 22 21  1  1
 22 23  1  0
 23 15  1  0
 24 26  1  0
 24 22  1  0
 25 24  2  0
M  END
$$$$
