ETQ.pdb
     RDKit          3D

 26 25  0  0  1  0  0  0  0  0999 V2000
   16.4377  -11.8226  -16.2338 N   0  0  0  0  0  0  0  0  0  0  0  0
   17.6904  -12.3574  -15.7010 C   0  0  1  0  0  0  0  0  0  0  0  0
   17.7443  -13.8358  -15.8306 C   0  0  0  0  0  0  0  0  0  0  0  0
   16.6143  -14.4890  -15.0865 C   0  0  0  0  0  0  0  0  0  0  0  0
   16.7114  -15.9804  -15.1606 C   0  0  0  0  0  0  0  0  0  0  0  0
   15.8625  -16.6602  -14.5796 O   0  0  0  0  0  0  0  0  0  0  0  0
   18.8310  -11.7158  -16.3776 C   0  0  0  0  0  0  0  0  0  0  0  0
   20.0390  -12.0615  -16.2626 O   0  0  0  0  0  0  0  0  0  0  0  0
   17.7314  -16.5405  -15.8653 O   0  0  0  0  0  0  0  0  0  0  0  0
   19.0430  -11.0489  -20.0227 C   0  0  0  0  0  0  0  0  0  0  0  0
   19.2344   -9.7183  -19.3457 C   0  0  1  0  0  0  0  0  0  0  0  0
   17.9923   -9.0934  -19.2559 O   0  0  0  0  0  0  0  0  0  0  0  0
   19.6950   -9.9560  -17.9015 C   0  0  2  0  0  0  0  0  0  0  0  0
   18.5565  -10.6043  -17.2421 N   0  0  0  0  0  0  0  0  0  0  0  0
   19.8739   -8.6351  -17.2467 C   0  0  0  0  0  0  0  0  0  0  0  0
   19.2157   -8.3334  -16.2026 O   0  0  0  0  0  0  0  0  0  0  0  0
   22.1992   -7.2174  -13.1186 N   0  0  0  0  0  0  0  0  0  0  0  0
   22.1345   -5.8427  -13.4385 C   0  0  0  0  0  0  0  0  0  0  0  0
   22.3969   -4.9468  -12.6209 O   0  0  0  0  0  0  0  0  0  0  0  0
   21.7299   -5.4598  -14.8299 C   0  0  0  0  0  0  0  0  0  0  0  0
   21.4315   -6.6925  -15.6107 C   0  0  0  0  0  0  0  0  0  0  0  0
   20.9823   -6.3992  -16.9999 C   0  0  2  0  0  0  0  0  0  0  0  0
   20.7589   -7.6612  -17.7278 N   0  0  0  0  0  0  0  0  0  0  0  0
   21.9860   -5.6304  -17.7382 C   0  0  0  0  0  0  0  0  0  0  0  0
   22.2692   -4.4451  -17.4491 O   0  0  0  0  0  0  0  0  0  0  0  0
   22.6516   -6.2656  -18.8158 O   0  0  0  0  0  0  0  0  0  0  0  0
  2  1  1  6
  3  2  1  0
  4  3  1  0
  5  6  2  0
  5  4  1  0
  7  2  1  0
  8  7  2  0
  9  5  1  0
 11 10  1  6
 11 12  1  0
 13 11  1  0
 13 14  1  1
 14  7  1  0
 15 13  1  0
 16 15  2  0
 18 20  1  0
 18 17  1  0
 19 18  2  0
 21 20  1  0
 22 21  1  1
 22 23  1  0
 23 15  1  0
 24 26  1  0
 24 22  1  0
 25 24  2  0
M  END
$$$$
