ETQ.pdb
     RDKit          3D

 26 25  0  0  1  0  0  0  0  0999 V2000
   19.3143  -13.2474  -16.2053 N   0  0  0  0  0  0  0  0  0  0  0  0
   19.1365  -11.8628  -16.6415 C   0  0  1  0  0  0  0  0  0  0  0  0
   17.7540  -11.3880  -16.3796 C   0  0  0  0  0  0  0  0  0  0  0  0
   16.7607  -12.0919  -17.2600 C   0  0  0  0  0  0  0  0  0  0  0  0
   16.4128  -11.2586  -18.4532 C   0  0  0  0  0  0  0  0  0  0  0  0
   17.2666  -11.0854  -19.3258 O   0  0  0  0  0  0  0  0  0  0  0  0
   20.1349  -11.0031  -15.9822 C   0  0  0  0  0  0  0  0  0  0  0  0
   20.3414  -10.9420  -14.7390 O   0  0  0  0  0  0  0  0  0  0  0  0
   15.1674  -10.7180  -18.5393 O   0  0  0  0  0  0  0  0  0  0  0  0
   24.2675   -8.5001  -16.6234 C   0  0  0  0  0  0  0  0  0  0  0  0
   23.1647   -9.3710  -17.1627 C   0  0  1  0  0  0  0  0  0  0  0  0
   23.6312  -10.6831  -17.2116 O   0  0  0  0  0  0  0  0  0  0  0  0
   21.9985   -9.3725  -16.1654 C   0  0  2  0  0  0  0  0  0  0  0  0
   20.9458  -10.1613  -16.8140 N   0  0  0  0  0  0  0  0  0  0  0  0
   21.4837   -7.9844  -16.0493 C   0  0  0  0  0  0  0  0  0  0  0  0
   20.8256   -7.4543  -16.9981 O   0  0  0  0  0  0  0  0  0  0  0  0
   18.4709   -4.9631  -16.6196 N   0  0  0  0  0  0  0  0  0  0  0  0
   18.5518   -3.9808  -15.6072 C   0  0  0  0  0  0  0  0  0  0  0  0
   18.0150   -2.8662  -15.7044 O   0  0  0  0  0  0  0  0  0  0  0  0
   19.3225   -4.3095  -14.3646 C   0  0  0  0  0  0  0  0  0  0  0  0
   19.8244   -5.7089  -14.4544 C   0  0  0  0  0  0  0  0  0  0  0  0
   21.2521   -5.7826  -14.8715 C   0  0  2  0  0  0  0  0  0  0  0  0
   21.6866   -7.1904  -14.9128 N   0  0  0  0  0  0  0  0  0  0  0  0
   22.1237   -5.0743  -13.9323 C   0  0  0  0  0  0  0  0  0  0  0  0
   22.7340   -5.6619  -13.0099 O   0  0  0  0  0  0  0  0  0  0  0  0
   22.2709   -3.6736  -14.0869 O   0  0  0  0  0  0  0  0  0  0  0  0
  2  1  1  1
  3  2  1  0
  4  3  1  0
  5  6  2  0
  5  4  1  0
  7  2  1  0
  8  7  2  0
  9  5  1  0
 11 10  1  1
 11 12  1  0
 13 11  1  0
 13 14  1  6
 14  7  1  0
 15 13  1  0
 16 15  2  0
 18 20  1  0
 18 17  1  0
 19 18  2  0
 21 20  1  0
 22 21  1  1
 22 23  1  0
 23 15  1  0
 24 26  1  0
 24 22  1  0
 25 24  2  0
M  END
$$$$
