ETQ.pdb
     RDKit          3D

 26 25  0  0  1  0  0  0  0  0999 V2000
   18.2939  -13.0682  -15.2822 N   0  0  0  0  0  0  0  0  0  0  0  0
   17.7387  -11.7245  -15.4405 C   0  0  1  0  0  0  0  0  0  0  0  0
   16.2636  -11.7664  -15.6069 C   0  0  0  0  0  0  0  0  0  0  0  0
   15.8731  -12.6017  -16.7931 C   0  0  0  0  0  0  0  0  0  0  0  0
   15.5247  -13.9966  -16.3784 C   0  0  0  0  0  0  0  0  0  0  0  0
   14.6033  -14.1650  -15.5765 O   0  0  0  0  0  0  0  0  0  0  0  0
   18.1272  -10.8889  -14.2910 C   0  0  0  0  0  0  0  0  0  0  0  0
   18.2778  -11.2974  -13.1068 O   0  0  0  0  0  0  0  0  0  0  0  0
   16.2335  -15.0352  -16.8976 O   0  0  0  0  0  0  0  0  0  0  0  0
   20.5961   -6.9361  -13.0180 C   0  0  0  0  0  0  0  0  0  0  0  0
   20.0363   -7.8721  -14.0554 C   0  0  1  0  0  0  0  0  0  0  0  0
   21.0315   -8.7843  -14.4005 O   0  0  0  0  0  0  0  0  0  0  0  0
   18.9060   -8.6961  -13.4246 C   0  0  2  0  0  0  0  0  0  0  0  0
   18.3565   -9.4924  -14.5269 N   0  0  0  0  0  0  0  0  0  0  0  0
   17.8339   -7.7627  -12.9945 C   0  0  0  0  0  0  0  0  0  0  0  0
   17.1482   -7.1222  -13.8513 O   0  0  0  0  0  0  0  0  0  0  0  0
   15.6879   -7.0640   -7.1817 N   0  0  0  0  0  0  0  0  0  0  0  0
   14.9409   -6.0461   -7.8158 C   0  0  0  0  0  0  0  0  0  0  0  0
   14.1657   -5.2963   -7.2020 O   0  0  0  0  0  0  0  0  0  0  0  0
   15.0989   -5.8724   -9.2961 C   0  0  0  0  0  0  0  0  0  0  0  0
   16.1251   -6.8294   -9.7956 C   0  0  0  0  0  0  0  0  0  0  0  0
   16.3657   -6.7028  -11.2597 C   0  0  2  0  0  0  0  0  0  0  0  0
   17.5184   -7.5351  -11.6485 N   0  0  0  0  0  0  0  0  0  0  0  0
   16.6662   -5.3206  -11.6375 C   0  0  0  0  0  0  0  0  0  0  0  0
   15.7976   -4.5490  -12.1050 O   0  0  0  0  0  0  0  0  0  0  0  0
   17.9929   -4.8552  -11.4609 O   0  0  0  0  0  0  0  0  0  0  0  0
  2  1  1  1
  3  2  1  0
  4  3  1  0
  5  6  2  0
  5  4  1  0
  7  2  1  0
  8  7  2  0
  9  5  1  0
 11 10  1  1
 11 12  1  0
 13 11  1  0
 13 14  1  6
 14  7  1  0
 15 13  1  0
 16 15  2  0
 18 20  1  0
 18 17  1  0
 19 18  2  0
 21 20  1  0
 22 21  1  1
 22 23  1  0
 23 15  1  0
 24 26  1  0
 24 22  1  0
 25 24  2  0
M  END
$$$$
