ETQ.pdb
     RDKit          3D

 26 25  0  0  1  0  0  0  0  0999 V2000
   17.1278  -12.0470  -17.3292 N   0  0  0  0  0  0  0  0  0  0  0  0
   17.4700  -12.0935  -15.9080 C   0  0  1  0  0  0  0  0  0  0  0  0
   17.4955  -13.4904  -15.4047 C   0  0  0  0  0  0  0  0  0  0  0  0
   16.5537  -14.3662  -16.1814 C   0  0  0  0  0  0  0  0  0  0  0  0
   16.5833  -15.7732  -15.6728 C   0  0  0  0  0  0  0  0  0  0  0  0
   17.3557  -16.0565  -14.7544 O   0  0  0  0  0  0  0  0  0  0  0  0
   18.7602  -11.4178  -15.6862 C   0  0  0  0  0  0  0  0  0  0  0  0
   19.4004  -11.4012  -14.5991 O   0  0  0  0  0  0  0  0  0  0  0  0
   15.7587  -16.6959  -16.2379 O   0  0  0  0  0  0  0  0  0  0  0  0
   22.0132  -11.8642  -17.4615 C   0  0  0  0  0  0  0  0  0  0  0  0
   21.5234  -10.4656  -17.7247 C   0  0  1  0  0  0  0  0  0  0  0  0
   20.7094  -10.4954  -18.8553 O   0  0  0  0  0  0  0  0  0  0  0  0
   20.6208  -10.0272  -16.5639 C   0  0  2  0  0  0  0  0  0  0  0  0
   19.3469  -10.7174  -16.7923 N   0  0  0  0  0  0  0  0  0  0  0  0
   20.3520   -8.5736  -16.7066 C   0  0  0  0  0  0  0  0  0  0  0  0
   19.2972   -8.1618  -17.2829 O   0  0  0  0  0  0  0  0  0  0  0  0
   23.3201   -3.1419  -14.1309 N   0  0  0  0  0  0  0  0  0  0  0  0
   21.9121   -3.2172  -14.2210 C   0  0  0  0  0  0  0  0  0  0  0  0
   21.1545   -2.7349  -13.3646 O   0  0  0  0  0  0  0  0  0  0  0  0
   21.3167   -3.9126  -15.4077 C   0  0  0  0  0  0  0  0  0  0  0  0
   21.5261   -5.3809  -15.2719 C   0  0  0  0  0  0  0  0  0  0  0  0
   20.9322   -6.1536  -16.3979 C   0  0  2  0  0  0  0  0  0  0  0  0
   21.2242   -7.5880  -16.2260 N   0  0  0  0  0  0  0  0  0  0  0  0
   21.4868   -5.7370  -17.6872 C   0  0  0  0  0  0  0  0  0  0  0  0
   22.4954   -6.2822  -18.1912 O   0  0  0  0  0  0  0  0  0  0  0  0
   20.8469   -4.6771  -18.3764 O   0  0  0  0  0  0  0  0  0  0  0  0
  2  1  1  6
  3  2  1  0
  4  3  1  0
  5  6  2  0
  5  4  1  0
  7  2  1  0
  8  7  2  0
  9  5  1  0
 11 10  1  1
 11 12  1  0
 13 11  1  0
 13 14  1  6
 14  7  1  0
 15 13  1  0
 16 15  2  0
 18 20  1  0
 18 17  1  0
 19 18  2  0
 21 20  1  0
 22 21  1  1
 22 23  1  0
 23 15  1  0
 24 26  1  0
 24 22  1  0
 25 24  2  0
M  END
$$$$
