ETQ.pdb
     RDKit          3D

 26 25  0  0  1  0  0  0  0  0999 V2000
   25.7384  -19.5691  -16.5684 N   0  0  0  0  0  0  0  0  0  0  0  0
   25.3913  -20.5774  -15.5676 C   0  0  1  0  0  0  0  0  0  0  0  0
   26.5829  -20.9935  -14.7852 C   0  0  0  0  0  0  0  0  0  0  0  0
   27.6081  -21.6525  -15.6637 C   0  0  0  0  0  0  0  0  0  0  0  0
   27.0944  -22.9456  -16.2145 C   0  0  0  0  0  0  0  0  0  0  0  0
   26.9620  -23.0602  -17.4350 O   0  0  0  0  0  0  0  0  0  0  0  0
   24.3257  -20.0604  -14.6915 C   0  0  0  0  0  0  0  0  0  0  0  0
   24.2297  -18.8719  -14.2788 O   0  0  0  0  0  0  0  0  0  0  0  0
   26.7895  -23.9540  -15.3538 O   0  0  0  0  0  0  0  0  0  0  0  0
   22.5107  -18.2059  -14.4499 C   0  0  0  0  0  0  0  0  0  0  0  0
   21.5569  -19.3617  -14.3084 C   0  0  1  0  0  0  0  0  0  0  0  0
   21.3733  -19.9307  -15.5670 O   0  0  0  0  0  0  0  0  0  0  0  0
   22.2136  -20.4464  -13.4443 C   0  0  2  0  0  0  0  0  0  0  0  0
   23.3065  -20.9762  -14.2664 N   0  0  0  0  0  0  0  0  0  0  0  0
   21.2382  -21.5517  -13.2643 C   0  0  0  0  0  0  0  0  0  0  0  0
   21.0672  -22.4215  -14.1747 O   0  0  0  0  0  0  0  0  0  0  0  0
   19.5004  -23.9948   -7.9419 N   0  0  0  0  0  0  0  0  0  0  0  0
   18.8032  -24.8612   -8.8135 C   0  0  0  0  0  0  0  0  0  0  0  0
   18.2340  -25.8935   -8.4256 O   0  0  0  0  0  0  0  0  0  0  0  0
   18.7548  -24.5089  -10.2694 C   0  0  0  0  0  0  0  0  0  0  0  0
   19.5546  -23.2742  -10.5023 C   0  0  0  0  0  0  0  0  0  0  0  0
   19.5598  -22.8527  -11.9305 C   0  0  2  0  0  0  0  0  0  0  0  0
   20.4634  -21.7017  -12.1066 N   0  0  0  0  0  0  0  0  0  0  0  0
   18.2260  -22.4445  -12.3753 C   0  0  0  0  0  0  0  0  0  0  0  0
   17.7871  -21.2843  -12.2025 O   0  0  0  0  0  0  0  0  0  0  0  0
   17.4155  -23.4095  -13.0230 O   0  0  0  0  0  0  0  0  0  0  0  0
  2  1  1  6
  3  2  1  0
  4  3  1  0
  5  6  2  0
  5  4  1  0
  7  2  1  0
  8  7  2  0
  9  5  1  0
 11 10  1  6
 11 12  1  0
 13 11  1  0
 13 14  1  6
 14  7  1  0
 15 13  1  0
 16 15  2  0
 18 20  1  0
 18 17  1  0
 19 18  2  0
 21 20  1  0
 22 21  1  1
 22 23  1  0
 23 15  1  0
 24 26  1  0
 24 22  1  0
 25 24  2  0
M  END
$$$$
