ETQ.pdb
     RDKit          3D

 26 25  0  0  1  0  0  0  0  0999 V2000
   15.2653  -12.3942  -15.7691 N   0  0  0  0  0  0  0  0  0  0  0  0
   16.4433  -11.7839  -15.1536 C   0  0  1  0  0  0  0  0  0  0  0  0
   17.5413  -12.7710  -14.9941 C   0  0  0  0  0  0  0  0  0  0  0  0
   17.1124  -13.9286  -14.1379 C   0  0  0  0  0  0  0  0  0  0  0  0
   17.1210  -15.2066  -14.9162 C   0  0  0  0  0  0  0  0  0  0  0  0
   16.1197  -15.9257  -14.8881 O   0  0  0  0  0  0  0  0  0  0  0  0
   16.8747  -10.6233  -15.9520 C   0  0  0  0  0  0  0  0  0  0  0  0
   16.5043  -10.3672  -17.1306 O   0  0  0  0  0  0  0  0  0  0  0  0
   18.2311  -15.5363  -15.6302 O   0  0  0  0  0  0  0  0  0  0  0  0
   15.8688   -8.3531  -16.9986 C   0  0  0  0  0  0  0  0  0  0  0  0
   16.9122   -7.6479  -16.1742 C   0  0  1  0  0  0  0  0  0  0  0  0
   16.4480   -7.5656  -14.8630 O   0  0  0  0  0  0  0  0  0  0  0  0
   18.1765   -8.5157  -16.1229 C   0  0  2  0  0  0  0  0  0  0  0  0
   17.7923   -9.7004  -15.3482 N   0  0  0  0  0  0  0  0  0  0  0  0
   19.2024   -7.7966  -15.3253 C   0  0  0  0  0  0  0  0  0  0  0  0
   19.1918   -7.8484  -14.0558 O   0  0  0  0  0  0  0  0  0  0  0  0
   24.8686   -6.3572  -17.1201 N   0  0  0  0  0  0  0  0  0  0  0  0
   24.9203   -5.8036  -15.8211 C   0  0  0  0  0  0  0  0  0  0  0  0
   25.9665   -5.3698  -15.3139 O   0  0  0  0  0  0  0  0  0  0  0  0
   23.6496   -5.7422  -15.0287 C   0  0  0  0  0  0  0  0  0  0  0  0
   22.5475   -6.3557  -15.8207 C   0  0  0  0  0  0  0  0  0  0  0  0
   21.2512   -6.3703  -15.0879 C   0  0  2  0  0  0  0  0  0  0  0  0
   20.2226   -7.0338  -15.9088 N   0  0  0  0  0  0  0  0  0  0  0  0
   20.7830   -5.0139  -14.7971 C   0  0  0  0  0  0  0  0  0  0  0  0
   20.0174   -4.3891  -15.5665 O   0  0  0  0  0  0  0  0  0  0  0  0
   21.2214   -4.4008  -13.5972 O   0  0  0  0  0  0  0  0  0  0  0  0
  2  1  1  6
  3  2  1  0
  4  3  1  0
  5  6  2  0
  5  4  1  0
  7  2  1  0
  8  7  2  0
  9  5  1  0
 11 10  1  6
 11 12  1  0
 13 11  1  0
 13 14  1  1
 14  7  1  0
 15 13  1  0
 16 15  2  0
 18 20  1  0
 18 17  1  0
 19 18  2  0
 21 20  1  0
 22 21  1  6
 22 23  1  0
 23 15  1  0
 24 26  1  0
 24 22  1  0
 25 24  2  0
M  END
$$$$
