ETQ.pdb
     RDKit          3D

 26 25  0  0  1  0  0  0  0  0999 V2000
   24.7675  -13.7039  -18.6813 N   0  0  0  0  0  0  0  0  0  0  0  0
   23.9695  -12.4821  -18.7776 C   0  0  1  0  0  0  0  0  0  0  0  0
   22.6816  -12.7323  -19.4734 C   0  0  0  0  0  0  0  0  0  0  0  0
   22.8712  -13.6291  -20.6637 C   0  0  0  0  0  0  0  0  0  0  0  0
   21.5676  -13.9009  -21.3465 C   0  0  0  0  0  0  0  0  0  0  0  0
   20.5744  -14.1402  -20.6562 O   0  0  0  0  0  0  0  0  0  0  0  0
   23.7545  -11.9228  -17.4317 C   0  0  0  0  0  0  0  0  0  0  0  0
   23.4379  -12.5855  -16.4057 O   0  0  0  0  0  0  0  0  0  0  0  0
   21.5176  -13.8760  -22.7058 O   0  0  0  0  0  0  0  0  0  0  0  0
   26.2319   -9.9069  -15.9930 C   0  0  0  0  0  0  0  0  0  0  0  0
   25.0490  -10.3488  -15.1738 C   0  0  1  0  0  0  0  0  0  0  0  0
   25.0472   -9.6218  -13.9851 O   0  0  0  0  0  0  0  0  0  0  0  0
   23.7602   -9.9604  -15.9104 C   0  0  2  0  0  0  0  0  0  0  0  0
   23.9163  -10.5074  -17.2622 N   0  0  0  0  0  0  0  0  0  0  0  0
   23.7300   -8.4819  -16.0474 C   0  0  0  0  0  0  0  0  0  0  0  0
   24.5787   -7.8799  -16.7766 O   0  0  0  0  0  0  0  0  0  0  0  0
   20.4625   -2.7781  -18.1928 N   0  0  0  0  0  0  0  0  0  0  0  0
   20.4819   -4.0771  -17.6375 C   0  0  0  0  0  0  0  0  0  0  0  0
   19.7607   -4.9984  -18.0512 O   0  0  0  0  0  0  0  0  0  0  0  0
   21.4187   -4.3442  -16.4985 C   0  0  0  0  0  0  0  0  0  0  0  0
   21.5059   -5.8133  -16.2691 C   0  0  0  0  0  0  0  0  0  0  0  0
   22.7646   -6.2148  -15.5821 C   0  0  2  0  0  0  0  0  0  0  0  0
   22.7860   -7.6768  -15.3966 N   0  0  0  0  0  0  0  0  0  0  0  0
   22.8763   -5.5959  -14.2600 C   0  0  0  0  0  0  0  0  0  0  0  0
   23.0665   -4.3673  -14.1083 O   0  0  0  0  0  0  0  0  0  0  0  0
   22.7624   -6.4317  -13.1215 O   0  0  0  0  0  0  0  0  0  0  0  0
  2  1  1  1
  3  2  1  0
  4  3  1  0
  5  6  2  0
  5  4  1  0
  7  2  1  0
  8  7  2  0
  9  5  1  0
 11 10  1  6
 11 12  1  0
 13 11  1  0
 13 14  1  6
 14  7  1  0
 15 13  1  0
 16 15  2  0
 18 20  1  0
 18 17  1  0
 19 18  2  0
 21 20  1  0
 22 21  1  1
 22 23  1  0
 23 15  1  0
 24 26  1  0
 24 22  1  0
 25 24  2  0
M  END
$$$$
