ETQ.pdb
     RDKit          3D

 26 25  0  0  1  0  0  0  0  0999 V2000
   20.8005  -12.7832  -16.6387 N   0  0  0  0  0  0  0  0  0  0  0  0
   20.2773  -11.4184  -16.6895 C   0  0  1  0  0  0  0  0  0  0  0  0
   18.9899  -11.3064  -15.9578 C   0  0  0  0  0  0  0  0  0  0  0  0
   18.1211  -12.5084  -16.1977 C   0  0  0  0  0  0  0  0  0  0  0  0
   16.7833  -12.3445  -15.5477 C   0  0  0  0  0  0  0  0  0  0  0  0
   16.4057  -13.1986  -14.7425 O   0  0  0  0  0  0  0  0  0  0  0  0
   21.2823  -10.4819  -16.1571 C   0  0  0  0  0  0  0  0  0  0  0  0
   21.9967  -10.6778  -15.1357 O   0  0  0  0  0  0  0  0  0  0  0  0
   16.0251  -11.2601  -15.8639 O   0  0  0  0  0  0  0  0  0  0  0  0
   22.6763   -7.6582  -18.7075 C   0  0  0  0  0  0  0  0  0  0  0  0
   23.4585   -8.0971  -17.4988 C   0  0  1  0  0  0  0  0  0  0  0  0
   24.2906   -7.0476  -17.1146 O   0  0  0  0  0  0  0  0  0  0  0  0
   22.4881   -8.3182  -16.3310 C   0  0  2  0  0  0  0  0  0  0  0  0
   21.4731   -9.2406  -16.8507 N   0  0  0  0  0  0  0  0  0  0  0  0
   21.7967   -7.0341  -16.0509 C   0  0  0  0  0  0  0  0  0  0  0  0
   20.8762   -6.6114  -16.8179 O   0  0  0  0  0  0  0  0  0  0  0  0
   17.5573   -6.5451  -13.9573 N   0  0  0  0  0  0  0  0  0  0  0  0
   17.6246   -5.5974  -15.0030 C   0  0  0  0  0  0  0  0  0  0  0  0
   16.6617   -5.3384  -15.7417 O   0  0  0  0  0  0  0  0  0  0  0  0
   18.9213   -4.8783  -15.2218 C   0  0  0  0  0  0  0  0  0  0  0  0
   19.9373   -5.3967  -14.2640 C   0  0  0  0  0  0  0  0  0  0  0  0
   21.3276   -5.0161  -14.6379 C   0  0  2  0  0  0  0  0  0  0  0  0
   22.1086   -6.2267  -14.9490 N   0  0  0  0  0  0  0  0  0  0  0  0
   22.0057   -4.3166  -13.5451 C   0  0  0  0  0  0  0  0  0  0  0  0
   21.6449   -3.1855  -13.1464 O   0  0  0  0  0  0  0  0  0  0  0  0
   23.1083   -4.9570  -12.9270 O   0  0  0  0  0  0  0  0  0  0  0  0
  2  1  1  1
  3  2  1  0
  4  3  1  0
  5  6  2  0
  5  4  1  0
  7  2  1  0
  8  7  2  0
  9  5  1  0
 11 10  1  6
 11 12  1  0
 13 11  1  0
 13 14  1  6
 14  7  1  0
 15 13  1  0
 16 15  2  0
 18 20  1  0
 18 17  1  0
 19 18  2  0
 21 20  1  0
 22 21  1  1
 22 23  1  0
 23 15  1  0
 24 26  1  0
 24 22  1  0
 25 24  2  0
M  END
$$$$
