MKY.pdb
     RDKit          3D

 30 30  0  0  1  0  0  0  0  0999 V2000
   24.2545  -21.1558   -7.8866 C   0  0  0  0  0  0  0  0  0  0  0  0
   25.8847  -20.3311   -8.0070 S   0  0  0  0  0  0  0  0  0  0  0  0
   26.5503  -20.7277   -9.6511 C   0  0  0  0  0  0  0  0  0  0  0  0
   25.4813  -20.4631  -10.6528 C   0  0  0  0  0  0  0  0  0  0  0  0
   25.5731  -21.4057  -11.8258 C   0  0  2  0  0  0  0  0  0  0  0  0
   26.9082  -21.3117  -12.4306 N   0  0  0  0  0  0  0  0  0  0  0  0
   24.5971  -21.0096  -12.8656 C   0  0  0  0  0  0  0  0  0  0  0  0
   24.4073  -19.8095  -13.1717 O   0  0  0  0  0  0  0  0  0  0  0  0
   23.8500  -21.9916  -13.5433 N   0  0  0  0  0  0  0  0  0  0  0  0
   22.9515  -21.5662  -14.6257 C   0  0  1  0  0  0  0  0  0  0  0  0
   22.9940  -22.5444  -15.7507 C   0  0  0  0  0  0  0  0  0  0  0  0
   24.1488  -22.3472  -16.6584 C   0  0  0  0  0  0  0  0  0  0  0  0
   25.2643  -23.3080  -16.3689 C   0  0  0  0  0  0  0  0  0  0  0  0
   26.4652  -23.0772  -17.2370 C   0  0  0  0  0  0  0  0  0  0  0  0
   27.5145  -24.0430  -16.9907 N   0  0  0  0  0  0  0  0  0  0  0  0
   21.5946  -21.5640  -14.0096 C   0  0  0  0  0  0  0  0  0  0  0  0
   21.4750  -21.8322  -12.7873 O   0  0  0  0  0  0  0  0  0  0  0  0
   15.4052  -16.6042  -11.0187 O   0  0  0  0  0  0  0  0  0  0  0  0
   16.4528  -17.3085  -11.6080 C   0  0  0  0  0  0  0  0  0  0  0  0
   17.0238  -18.4034  -10.9922 C   0  0  0  0  0  0  0  0  0  0  0  0
   18.0765  -19.1149  -11.5792 C   0  0  0  0  0  0  0  0  0  0  0  0
   18.5600  -18.7182  -12.8017 C   0  0  0  0  0  0  0  0  0  0  0  0
   19.6633  -19.4216  -13.4595 C   0  0  0  0  0  0  0  0  0  0  0  0
   19.2531  -20.7722  -14.0290 C   0  0  2  0  0  0  0  0  0  0  0  0
   20.4094  -21.2720  -14.7350 N   0  0  0  0  0  0  0  0  0  0  0  0
   18.1253  -20.6710  -14.9807 C   0  0  0  0  0  0  0  0  0  0  0  0
   16.8606  -21.0394  -14.6210 O   0  0  0  0  0  0  0  0  0  0  0  0
   17.9851  -17.6189  -13.4175 C   0  0  0  0  0  0  0  0  0  0  0  0
   16.9426  -16.9125  -12.8389 C   0  0  0  0  0  0  0  0  0  0  0  0
   18.3570  -20.2368  -16.1324 O   0  0  0  0  0  0  0  0  0  0  0  0
  1  2  1  0
  3  2  1  0
  4  5  1  0
  4  3  1  0
  5  6  1  6
  7  5  1  0
  8  7  2  0
  9  7  1  0
 10 11  1  6
 10  9  1  0
 11 12  1  0
 12 13  1  0
 13 14  1  0
 15 14  1  0
 16 25  1  0
 16 10  1  0
 17 16  2  0
 19 29  2  0
 19 18  1  0
 20 19  1  0
 21 22  1  0
 21 20  2  0
 22 28  2  0
 23 22  1  0
 24 23  1  6
 24 25  1  0
 26 24  1  0
 26 27  1  0
 28 29  1  0
 30 26  2  0
M  END
$$$$
