MKY.pdb
     RDKit          3D

 30 30  0  0  1  0  0  0  0  0999 V2000
   24.0915  -22.2022  -25.6818 C   0  0  0  0  0  0  0  0  0  0  0  0
   23.6775  -21.0295  -24.3381 S   0  0  0  0  0  0  0  0  0  0  0  0
   23.5448  -22.0090  -22.8128 C   0  0  0  0  0  0  0  0  0  0  0  0
   23.1633  -21.0861  -21.7088 C   0  0  0  0  0  0  0  0  0  0  0  0
   24.3361  -20.2607  -21.2440 C   0  0  2  0  0  0  0  0  0  0  0  0
   25.0780  -20.9959  -20.2114 N   0  0  0  0  0  0  0  0  0  0  0  0
   23.8531  -19.0077  -20.6216 C   0  0  0  0  0  0  0  0  0  0  0  0
   24.0957  -18.7276  -19.4246 O   0  0  0  0  0  0  0  0  0  0  0  0
   23.0984  -18.0899  -21.3763 N   0  0  0  0  0  0  0  0  0  0  0  0
   22.7685  -16.7904  -20.7740 C   0  0  1  0  0  0  0  0  0  0  0  0
   23.4716  -15.6903  -21.4950 C   0  0  0  0  0  0  0  0  0  0  0  0
   24.8452  -15.4439  -20.9965 C   0  0  0  0  0  0  0  0  0  0  0  0
   25.8233  -15.2391  -22.1158 C   0  0  0  0  0  0  0  0  0  0  0  0
   27.2170  -14.9826  -21.6251 C   0  0  0  0  0  0  0  0  0  0  0  0
   27.3171  -13.7477  -20.8769 N   0  0  0  0  0  0  0  0  0  0  0  0
   21.2960  -16.6536  -20.9568 C   0  0  0  0  0  0  0  0  0  0  0  0
   20.8239  -16.6035  -22.1209 O   0  0  0  0  0  0  0  0  0  0  0  0
   12.6012  -16.7322  -19.8420 O   0  0  0  0  0  0  0  0  0  0  0  0
   13.9811  -16.9236  -19.8375 C   0  0  0  0  0  0  0  0  0  0  0  0
   14.6803  -17.1679  -21.0017 C   0  0  0  0  0  0  0  0  0  0  0  0
   16.0666  -17.3610  -21.0036 C   0  0  0  0  0  0  0  0  0  0  0  0
   16.7568  -17.3074  -19.8177 C   0  0  0  0  0  0  0  0  0  0  0  0
   18.2064  -17.5078  -19.7597 C   0  0  0  0  0  0  0  0  0  0  0  0
   18.9953  -16.2634  -20.1416 C   0  0  2  0  0  0  0  0  0  0  0  0
   20.3799  -16.5750  -19.8748 N   0  0  0  0  0  0  0  0  0  0  0  0
   18.6145  -15.0790  -19.3415 C   0  0  0  0  0  0  0  0  0  0  0  0
   19.4922  -14.5026  -18.4687 O   0  0  0  0  0  0  0  0  0  0  0  0
   16.0525  -17.0620  -18.6506 C   0  0  0  0  0  0  0  0  0  0  0  0
   14.6800  -16.8703  -18.6456 C   0  0  0  0  0  0  0  0  0  0  0  0
   17.4607  -14.6126  -19.4830 O   0  0  0  0  0  0  0  0  0  0  0  0
  1  2  1  0
  3  2  1  0
  4  5  1  0
  4  3  1  0
  5  6  1  1
  7  5  1  0
  8  7  2  0
  9  7  1  0
 10 11  1  6
 10  9  1  0
 11 12  1  0
 12 13  1  0
 13 14  1  0
 15 14  1  0
 16 25  1  0
 16 10  1  0
 17 16  2  0
 19 29  2  0
 19 18  1  0
 20 19  1  0
 21 22  1  0
 21 20  2  0
 22 28  2  0
 23 22  1  0
 24 23  1  1
 24 25  1  0
 26 24  1  0
 26 27  1  0
 28 29  1  0
 30 26  2  0
M  END
$$$$
