MKY.pdb
     RDKit          3D

 30 30  0  0  1  0  0  0  0  0999 V2000
   31.6239  -21.9045   -9.7391 C   0  0  0  0  0  0  0  0  0  0  0  0
   29.9743  -21.4764  -10.4083 S   0  0  0  0  0  0  0  0  0  0  0  0
   30.2584  -20.4361  -11.8714 C   0  0  0  0  0  0  0  0  0  0  0  0
   28.9322  -20.1070  -12.4623 C   0  0  0  0  0  0  0  0  0  0  0  0
   28.7179  -20.8151  -13.7759 C   0  0  2  0  0  0  0  0  0  0  0  0
   29.8209  -20.4985  -14.6925 N   0  0  0  0  0  0  0  0  0  0  0  0
   27.4728  -20.3285  -14.4113 C   0  0  0  0  0  0  0  0  0  0  0  0
   27.3354  -19.1354  -14.7686 O   0  0  0  0  0  0  0  0  0  0  0  0
   26.3998  -21.2129  -14.6305 N   0  0  0  0  0  0  0  0  0  0  0  0
   25.2835  -20.7651  -15.4751 C   0  0  1  0  0  0  0  0  0  0  0  0
   25.1600  -21.6376  -16.6784 C   0  0  0  0  0  0  0  0  0  0  0  0
   26.1437  -21.3185  -17.7399 C   0  0  0  0  0  0  0  0  0  0  0  0
   26.0333  -22.2512  -18.9101 C   0  0  0  0  0  0  0  0  0  0  0  0
   27.0649  -21.9797  -19.9642 C   0  0  0  0  0  0  0  0  0  0  0  0
   26.9527  -22.8846  -21.0882 N   0  0  0  0  0  0  0  0  0  0  0  0
   24.0761  -20.9173  -14.6151 C   0  0  0  0  0  0  0  0  0  0  0  0
   24.1363  -21.6521  -13.5969 O   0  0  0  0  0  0  0  0  0  0  0  0
   16.9991  -19.5644   -9.7954 O   0  0  0  0  0  0  0  0  0  0  0  0
   18.1206  -19.5019  -10.6195 C   0  0  0  0  0  0  0  0  0  0  0  0
   18.0598  -18.9468  -11.8813 C   0  0  0  0  0  0  0  0  0  0  0  0
   19.1830  -18.8812  -12.7139 C   0  0  0  0  0  0  0  0  0  0  0  0
   20.3823  -19.3811  -12.2696 C   0  0  0  0  0  0  0  0  0  0  0  0
   21.5880  -19.3444  -13.1001 C   0  0  0  0  0  0  0  0  0  0  0  0
   21.7029  -20.5390  -14.0362 C   0  0  2  0  0  0  0  0  0  0  0  0
   22.8410  -20.2702  -14.8835 N   0  0  0  0  0  0  0  0  0  0  0  0
   20.5076  -20.7111  -14.8904 C   0  0  0  0  0  0  0  0  0  0  0  0
   19.4914  -21.5468  -14.5254 O   0  0  0  0  0  0  0  0  0  0  0  0
   20.4405  -19.9376  -11.0026 C   0  0  0  0  0  0  0  0  0  0  0  0
   19.3302  -20.0040  -10.1760 C   0  0  0  0  0  0  0  0  0  0  0  0
   20.4473  -20.0689  -15.9640 O   0  0  0  0  0  0  0  0  0  0  0  0
  1  2  1  0
  3  2  1  0
  4  5  1  0
  4  3  1  0
  5  6  1  6
  7  5  1  0
  8  7  2  0
  9  7  1  0
 10 11  1  6
 10  9  1  0
 11 12  1  0
 12 13  1  0
 13 14  1  0
 15 14  1  0
 16 25  1  0
 16 10  1  0
 17 16  2  0
 19 29  2  0
 19 18  1  0
 20 19  1  0
 21 22  1  0
 21 20  2  0
 22 28  2  0
 23 22  1  0
 24 23  1  1
 24 25  1  0
 26 24  1  0
 26 27  1  0
 28 29  1  0
 30 26  2  0
M  END
$$$$
