MKY.pdb
     RDKit          3D

 30 30  0  0  1  0  0  0  0  0999 V2000
    9.3670  -16.6155   -9.0463 C   0  0  0  0  0  0  0  0  0  0  0  0
   10.2586  -15.0184   -8.9651 S   0  0  0  0  0  0  0  0  0  0  0  0
   10.3594  -14.3896  -10.6675 C   0  0  0  0  0  0  0  0  0  0  0  0
   10.9744  -15.4510  -11.5109 C   0  0  0  0  0  0  0  0  0  0  0  0
   11.1878  -14.9813  -12.9275 C   0  0  2  0  0  0  0  0  0  0  0  0
    9.8945  -14.8936  -13.6179 N   0  0  0  0  0  0  0  0  0  0  0  0
   12.0073  -15.9684  -13.6656 C   0  0  0  0  0  0  0  0  0  0  0  0
   11.5076  -17.0064  -14.1583 O   0  0  0  0  0  0  0  0  0  0  0  0
   13.3890  -15.7558  -13.8315 N   0  0  0  0  0  0  0  0  0  0  0  0
   14.1553  -16.7196  -14.6339 C   0  0  1  0  0  0  0  0  0  0  0  0
   15.4714  -16.1383  -15.0266 C   0  0  0  0  0  0  0  0  0  0  0  0
   16.3115  -17.0666  -15.8196 C   0  0  0  0  0  0  0  0  0  0  0  0
   17.6617  -16.4865  -16.1225 C   0  0  0  0  0  0  0  0  0  0  0  0
   18.4754  -17.3604  -17.0298 C   0  0  0  0  0  0  0  0  0  0  0  0
   19.7995  -16.8256  -17.2650 N   0  0  0  0  0  0  0  0  0  0  0  0
   14.3675  -17.8815  -13.7253 C   0  0  0  0  0  0  0  0  0  0  0  0
   14.2164  -17.7279  -12.4868 O   0  0  0  0  0  0  0  0  0  0  0  0
   12.8910  -20.7274   -7.1213 O   0  0  0  0  0  0  0  0  0  0  0  0
   13.0076  -20.6669   -8.5082 C   0  0  0  0  0  0  0  0  0  0  0  0
   13.8491  -21.5139   -9.2000 C   0  0  0  0  0  0  0  0  0  0  0  0
   13.9706  -21.4579  -10.5932 C   0  0  0  0  0  0  0  0  0  0  0  0
   13.2353  -20.5370  -11.2981 C   0  0  0  0  0  0  0  0  0  0  0  0
   13.3271  -20.4299  -12.7558 C   0  0  0  0  0  0  0  0  0  0  0  0
   14.7576  -20.2762  -13.2527 C   0  0  2  0  0  0  0  0  0  0  0  0
   14.7368  -19.1733  -14.1847 N   0  0  0  0  0  0  0  0  0  0  0  0
   15.2493  -21.4807  -13.9564 C   0  0  0  0  0  0  0  0  0  0  0  0
   15.6453  -22.5909  -13.2670 O   0  0  0  0  0  0  0  0  0  0  0  0
   12.3914  -19.6882  -10.6012 C   0  0  0  0  0  0  0  0  0  0  0  0
   12.2689  -19.7413   -9.2218 C   0  0  0  0  0  0  0  0  0  0  0  0
   15.2949  -21.4604  -15.2079 O   0  0  0  0  0  0  0  0  0  0  0  0
  1  2  1  0
  3  2  1  0
  4  5  1  0
  4  3  1  0
  5  6  1  6
  7  5  1  0
  8  7  2  0
  9  7  1  0
 10 11  1  1
 10  9  1  0
 11 12  1  0
 12 13  1  0
 13 14  1  0
 15 14  1  0
 16 25  1  0
 16 10  1  0
 17 16  2  0
 19 29  2  0
 19 18  1  0
 20 19  1  0
 21 22  1  0
 21 20  2  0
 22 28  2  0
 23 22  1  0
 24 23  1  6
 24 25  1  0
 26 24  1  0
 26 27  1  0
 28 29  1  0
 30 26  2  0
M  END
$$$$
