MKY.pdb
     RDKit          3D

 30 30  0  0  1  0  0  0  0  0999 V2000
   29.8977  -17.9130  -15.3109 C   0  0  0  0  0  0  0  0  0  0  0  0
   28.8567  -17.2131  -16.6445 S   0  0  0  0  0  0  0  0  0  0  0  0
   27.2339  -18.0220  -16.5191 C   0  0  0  0  0  0  0  0  0  0  0  0
   27.4491  -19.4928  -16.6007 C   0  0  0  0  0  0  0  0  0  0  0  0
   26.1449  -20.2483  -16.5641 C   0  0  2  0  0  0  0  0  0  0  0  0
   25.2549  -19.7468  -17.6193 N   0  0  0  0  0  0  0  0  0  0  0  0
   25.4630  -20.0103  -15.2722 C   0  0  0  0  0  0  0  0  0  0  0  0
   24.9441  -18.9047  -14.9921 O   0  0  0  0  0  0  0  0  0  0  0  0
   25.3825  -21.0404  -14.3161 N   0  0  0  0  0  0  0  0  0  0  0  0
   24.5301  -20.8370  -13.1363 C   0  0  1  0  0  0  0  0  0  0  0  0
   23.3979  -21.8079  -13.1398 C   0  0  0  0  0  0  0  0  0  0  0  0
   22.3884  -21.5305  -14.1887 C   0  0  0  0  0  0  0  0  0  0  0  0
   22.0624  -22.7530  -14.9952 C   0  0  0  0  0  0  0  0  0  0  0  0
   20.9718  -22.5109  -15.9957 C   0  0  0  0  0  0  0  0  0  0  0  0
   20.6427  -23.7025  -16.7483 N   0  0  0  0  0  0  0  0  0  0  0  0
   25.4237  -21.1077  -11.9749 C   0  0  0  0  0  0  0  0  0  0  0  0
   26.1640  -22.1235  -11.9937 O   0  0  0  0  0  0  0  0  0  0  0  0
   28.8982  -20.2332   -3.8646 O   0  0  0  0  0  0  0  0  0  0  0  0
   28.4534  -20.0877   -5.1767 C   0  0  0  0  0  0  0  0  0  0  0  0
   29.1423  -20.6378   -6.2383 C   0  0  0  0  0  0  0  0  0  0  0  0
   28.7004  -20.4949   -7.5586 C   0  0  0  0  0  0  0  0  0  0  0  0
   27.5503  -19.7890   -7.8126 C   0  0  0  0  0  0  0  0  0  0  0  0
   27.0448  -19.6028   -9.1744 C   0  0  0  0  0  0  0  0  0  0  0  0
   26.1584  -20.7484   -9.6423 C   0  0  2  0  0  0  0  0  0  0  0  0
   25.4884  -20.2714  -10.8293 N   0  0  0  0  0  0  0  0  0  0  0  0
   25.1365  -21.1242   -8.6411 C   0  0  0  0  0  0  0  0  0  0  0  0
   25.4179  -22.0099   -7.6408 O   0  0  0  0  0  0  0  0  0  0  0  0
   26.8608  -19.2380   -6.7452 C   0  0  0  0  0  0  0  0  0  0  0  0
   27.2957  -19.3778   -5.4369 C   0  0  0  0  0  0  0  0  0  0  0  0
   23.9986  -20.6086   -8.7314 O   0  0  0  0  0  0  0  0  0  0  0  0
  1  2  1  0
  3  2  1  0
  4  5  1  0
  4  3  1  0
  5  6  1  6
  7  5  1  0
  8  7  2  0
  9  7  1  0
 10 11  1  6
 10  9  1  0
 11 12  1  0
 12 13  1  0
 13 14  1  0
 15 14  1  0
 16 25  1  0
 16 10  1  0
 17 16  2  0
 19 29  2  0
 19 18  1  0
 20 19  1  0
 21 22  1  0
 21 20  2  0
 22 28  2  0
 23 22  1  0
 24 23  1  1
 24 25  1  0
 26 24  1  0
 26 27  1  0
 28 29  1  0
 30 26  2  0
M  END
$$$$
