MKY.pdb
     RDKit          3D

 30 30  0  0  1  0  0  0  0  0999 V2000
   22.9872  -35.0384   -5.1402 C   0  0  0  0  0  0  0  0  0  0  0  0
   23.0800  -33.2713   -5.6104 S   0  0  0  0  0  0  0  0  0  0  0  0
   22.5664  -33.1664   -7.3507 C   0  0  0  0  0  0  0  0  0  0  0  0
   22.5199  -31.7269   -7.7274 C   0  0  0  0  0  0  0  0  0  0  0  0
   22.1249  -31.5425   -9.1706 C   0  0  2  0  0  0  0  0  0  0  0  0
   23.2681  -31.8539  -10.0384 N   0  0  0  0  0  0  0  0  0  0  0  0
   21.7668  -30.1275   -9.4161 C   0  0  0  0  0  0  0  0  0  0  0  0
   22.6243  -29.2765   -9.7486 O   0  0  0  0  0  0  0  0  0  0  0  0
   20.4317  -29.7030   -9.2787 N   0  0  0  0  0  0  0  0  0  0  0  0
   20.0825  -28.3393   -9.7009 C   0  0  1  0  0  0  0  0  0  0  0  0
   20.2896  -28.1811  -11.1694 C   0  0  0  0  0  0  0  0  0  0  0  0
   19.8212  -26.8760  -11.6924 C   0  0  0  0  0  0  0  0  0  0  0  0
   20.1322  -26.7082  -13.1506 C   0  0  0  0  0  0  0  0  0  0  0  0
   19.6399  -25.4022  -13.6995 C   0  0  0  0  0  0  0  0  0  0  0  0
   19.9025  -25.2683  -15.1165 N   0  0  0  0  0  0  0  0  0  0  0  0
   18.6340  -28.2044   -9.3779 C   0  0  0  0  0  0  0  0  0  0  0  0
   17.8439  -29.1262   -9.7041 O   0  0  0  0  0  0  0  0  0  0  0  0
   18.6684  -27.6309   -2.3812 O   0  0  0  0  0  0  0  0  0  0  0  0
   18.1173  -27.2398   -3.5994 C   0  0  0  0  0  0  0  0  0  0  0  0
   16.9600  -27.8127   -4.0859 C   0  0  0  0  0  0  0  0  0  0  0  0
   16.4016  -27.4241   -5.3090 C   0  0  0  0  0  0  0  0  0  0  0  0
   17.0167  -26.4462   -6.0512 C   0  0  0  0  0  0  0  0  0  0  0  0
   16.4802  -26.0046   -7.3404 C   0  0  0  0  0  0  0  0  0  0  0  0
   16.6665  -27.0332   -8.4467 C   0  0  2  0  0  0  0  0  0  0  0  0
   18.0853  -27.0765   -8.7125 N   0  0  0  0  0  0  0  0  0  0  0  0
   15.9628  -26.6629   -9.6940 C   0  0  0  0  0  0  0  0  0  0  0  0
   14.6013  -26.5697   -9.7374 O   0  0  0  0  0  0  0  0  0  0  0  0
   18.1781  -25.8728   -5.5605 C   0  0  0  0  0  0  0  0  0  0  0  0
   18.7334  -26.2554   -4.3499 C   0  0  0  0  0  0  0  0  0  0  0  0
   16.6480  -26.4350  -10.7173 O   0  0  0  0  0  0  0  0  0  0  0  0
  1  2  1  0
  3  2  1  0
  4  5  1  0
  4  3  1  0
  5  6  1  6
  7  5  1  0
  8  7  2  0
  9  7  1  0
 10 11  1  6
 10  9  1  0
 11 12  1  0
 12 13  1  0
 13 14  1  0
 15 14  1  0
 16 25  1  0
 16 10  1  0
 17 16  2  0
 19 29  2  0
 19 18  1  0
 20 19  1  0
 21 22  1  0
 21 20  2  0
 22 28  2  0
 23 22  1  0
 24 23  1  1
 24 25  1  0
 26 24  1  0
 26 27  1  0
 28 29  1  0
 30 26  2  0
M  END
$$$$
