MKY.pdb
     RDKit          3D

 30 30  0  0  1  0  0  0  0  0999 V2000
   22.8895  -14.7807  -20.1744 C   0  0  0  0  0  0  0  0  0  0  0  0
   23.3849  -16.3990  -19.4760 S   0  0  0  0  0  0  0  0  0  0  0  0
   24.5373  -17.1497  -20.6643 C   0  0  0  0  0  0  0  0  0  0  0  0
   24.8295  -18.5351  -20.2046 C   0  0  0  0  0  0  0  0  0  0  0  0
   25.4875  -18.5436  -18.8482 C   0  0  2  0  0  0  0  0  0  0  0  0
   26.8018  -17.8937  -18.9337 N   0  0  0  0  0  0  0  0  0  0  0  0
   25.7211  -19.9386  -18.4122 C   0  0  0  0  0  0  0  0  0  0  0  0
   24.7915  -20.7764  -18.3497 O   0  0  0  0  0  0  0  0  0  0  0  0
   27.0159  -20.3586  -18.0533 N   0  0  0  0  0  0  0  0  0  0  0  0
   27.1939  -21.7265  -17.5461 C   0  0  1  0  0  0  0  0  0  0  0  0
   28.6445  -22.0573  -17.4424 C   0  0  0  0  0  0  0  0  0  0  0  0
   28.9041  -23.3748  -16.8153 C   0  0  0  0  0  0  0  0  0  0  0  0
   30.2523  -23.9197  -17.1851 C   0  0  0  0  0  0  0  0  0  0  0  0
   30.5698  -25.2037  -16.4782 C   0  0  0  0  0  0  0  0  0  0  0  0
   31.9188  -25.6567  -16.7423 N   0  0  0  0  0  0  0  0  0  0  0  0
   26.5822  -21.7069  -16.1874 C   0  0  0  0  0  0  0  0  0  0  0  0
   27.1188  -21.0188  -15.2825 O   0  0  0  0  0  0  0  0  0  0  0  0
   22.4497  -20.8869   -8.8335 O   0  0  0  0  0  0  0  0  0  0  0  0
   23.0136  -20.9427  -10.1062 C   0  0  0  0  0  0  0  0  0  0  0  0
   22.2310  -21.0052  -11.2410 C   0  0  0  0  0  0  0  0  0  0  0  0
   22.7916  -21.0615  -12.5221 C   0  0  0  0  0  0  0  0  0  0  0  0
   24.1576  -21.0549  -12.6618 C   0  0  0  0  0  0  0  0  0  0  0  0
   24.7985  -21.1180  -13.9771 C   0  0  0  0  0  0  0  0  0  0  0  0
   25.0206  -22.5431  -14.4635 C   0  0  2  0  0  0  0  0  0  0  0  0
   25.4093  -22.4324  -15.8498 N   0  0  0  0  0  0  0  0  0  0  0  0
   23.7978  -23.3712  -14.3799 C   0  0  0  0  0  0  0  0  0  0  0  0
   22.7709  -23.2082  -15.2649 O   0  0  0  0  0  0  0  0  0  0  0  0
   24.9408  -20.9921  -11.5211 C   0  0  0  0  0  0  0  0  0  0  0  0
   24.3886  -20.9361  -10.2513 C   0  0  0  0  0  0  0  0  0  0  0  0
   23.7240  -24.2319  -13.4730 O   0  0  0  0  0  0  0  0  0  0  0  0
  1  2  1  0
  3  2  1  0
  4  5  1  0
  4  3  1  0
  5  6  1  6
  7  5  1  0
  8  7  2  0
  9  7  1  0
 10 11  1  1
 10  9  1  0
 11 12  1  0
 12 13  1  0
 13 14  1  0
 15 14  1  0
 16 25  1  0
 16 10  1  0
 17 16  2  0
 19 29  2  0
 19 18  1  0
 20 19  1  0
 21 22  1  0
 21 20  2  0
 22 28  2  0
 23 22  1  0
 24 23  1  6
 24 25  1  0
 26 24  1  0
 26 27  1  0
 28 29  1  0
 30 26  2  0
M  END
$$$$
