MKY.pdb
     RDKit          3D

 30 30  0  0  1  0  0  0  0  0999 V2000
   21.1142  -11.5076  -20.9509 C   0  0  0  0  0  0  0  0  0  0  0  0
   21.1608  -12.7064  -19.5678 S   0  0  0  0  0  0  0  0  0  0  0  0
   19.7493  -12.3166  -18.4912 C   0  0  0  0  0  0  0  0  0  0  0  0
   19.7203  -10.8416  -18.2920 C   0  0  0  0  0  0  0  0  0  0  0  0
   19.7993  -10.4762  -16.8315 C   0  0  2  0  0  0  0  0  0  0  0  0
   18.6290  -11.0132  -16.1249 N   0  0  0  0  0  0  0  0  0  0  0  0
   19.7601   -9.0045  -16.6793 C   0  0  0  0  0  0  0  0  0  0  0  0
   20.6255   -8.2626  -17.1995 O   0  0  0  0  0  0  0  0  0  0  0  0
   18.7308   -8.3991  -15.9338 N   0  0  0  0  0  0  0  0  0  0  0  0
   18.6558   -6.9315  -15.9052 C   0  0  1  0  0  0  0  0  0  0  0  0
   17.2596   -6.4882  -15.6248 C   0  0  0  0  0  0  0  0  0  0  0  0
   16.4159   -6.3978  -16.8398 C   0  0  0  0  0  0  0  0  0  0  0  0
   15.0421   -5.8771  -16.5351 C   0  0  0  0  0  0  0  0  0  0  0  0
   14.1506   -5.8594  -17.7410 C   0  0  0  0  0  0  0  0  0  0  0  0
   12.8046   -5.4335  -17.4225 N   0  0  0  0  0  0  0  0  0  0  0  0
   19.5481   -6.5308  -14.7810 C   0  0  0  0  0  0  0  0  0  0  0  0
   19.6077   -7.2561  -13.7560 O   0  0  0  0  0  0  0  0  0  0  0  0
   25.3521   -6.2941  -18.4917 O   0  0  0  0  0  0  0  0  0  0  0  0
   24.5886   -6.3028  -17.3265 C   0  0  0  0  0  0  0  0  0  0  0  0
   23.8507   -7.4079  -16.9545 C   0  0  0  0  0  0  0  0  0  0  0  0
   23.0818   -7.4227  -15.7851 C   0  0  0  0  0  0  0  0  0  0  0  0
   23.0560   -6.3102  -14.9805 C   0  0  0  0  0  0  0  0  0  0  0  0
   22.2646   -6.2678  -13.7489 C   0  0  0  0  0  0  0  0  0  0  0  0
   21.2724   -5.1140  -13.7182 C   0  0  2  0  0  0  0  0  0  0  0  0
   20.3479   -5.3578  -14.8006 N   0  0  0  0  0  0  0  0  0  0  0  0
   21.9179   -3.8008  -13.9345 C   0  0  0  0  0  0  0  0  0  0  0  0
   22.7992   -3.2873  -13.0266 O   0  0  0  0  0  0  0  0  0  0  0  0
   23.7976   -5.2025  -15.3562 C   0  0  0  0  0  0  0  0  0  0  0  0
   24.5599   -5.1848  -16.5134 C   0  0  0  0  0  0  0  0  0  0  0  0
   21.6367   -3.1650  -14.9764 O   0  0  0  0  0  0  0  0  0  0  0  0
  1  2  1  0
  3  2  1  0
  4  5  1  0
  4  3  1  0
  5  6  1  1
  7  5  1  0
  8  7  2  0
  9  7  1  0
 10 11  1  1
 10  9  1  0
 11 12  1  0
 12 13  1  0
 13 14  1  0
 15 14  1  0
 16 25  1  0
 16 10  1  0
 17 16  2  0
 19 29  2  0
 19 18  1  0
 20 19  1  0
 21 22  1  0
 21 20  2  0
 22 28  2  0
 23 22  1  0
 24 23  1  6
 24 25  1  0
 26 24  1  0
 26 27  1  0
 28 29  1  0
 30 26  2  0
M  END
$$$$
