MKY.pdb
     RDKit          3D

 30 30  0  0  1  0  0  0  0  0999 V2000
   23.8340  -30.1121  -20.0689 C   0  0  0  0  0  0  0  0  0  0  0  0
   25.4188  -30.8281  -19.4963 S   0  0  0  0  0  0  0  0  0  0  0  0
   25.5361  -30.4801  -17.7162 C   0  0  0  0  0  0  0  0  0  0  0  0
   26.8522  -30.9849  -17.2377 C   0  0  0  0  0  0  0  0  0  0  0  0
   27.9848  -30.0968  -17.6865 C   0  0  2  0  0  0  0  0  0  0  0  0
   29.2677  -30.7112  -17.3209 N   0  0  0  0  0  0  0  0  0  0  0  0
   27.9112  -28.7960  -16.9844 C   0  0  0  0  0  0  0  0  0  0  0  0
   28.2270  -28.6770  -15.7777 O   0  0  0  0  0  0  0  0  0  0  0  0
   27.4775  -27.6465  -17.6715 N   0  0  0  0  0  0  0  0  0  0  0  0
   27.4607  -26.3646  -16.9528 C   0  0  1  0  0  0  0  0  0  0  0  0
   28.0821  -25.2943  -17.7850 C   0  0  0  0  0  0  0  0  0  0  0  0
   29.5262  -25.1017  -17.5132 C   0  0  0  0  0  0  0  0  0  0  0  0
   30.1187  -24.0120  -18.3574 C   0  0  0  0  0  0  0  0  0  0  0  0
   31.5817  -23.8101  -18.0965 C   0  0  0  0  0  0  0  0  0  0  0  0
   32.1123  -22.6639  -18.8031 N   0  0  0  0  0  0  0  0  0  0  0  0
   26.0150  -26.0679  -16.7460 C   0  0  0  0  0  0  0  0  0  0  0  0
   25.1986  -26.3202  -17.6679 O   0  0  0  0  0  0  0  0  0  0  0  0
   18.3594  -23.8943  -12.9098 O   0  0  0  0  0  0  0  0  0  0  0  0
   19.7059  -24.1364  -13.1727 C   0  0  0  0  0  0  0  0  0  0  0  0
   20.5945  -23.1053  -13.3993 C   0  0  0  0  0  0  0  0  0  0  0  0
   21.9483  -23.3423  -13.6640 C   0  0  0  0  0  0  0  0  0  0  0  0
   22.4125  -24.6341  -13.7009 C   0  0  0  0  0  0  0  0  0  0  0  0
   23.8173  -24.9408  -13.9789 C   0  0  0  0  0  0  0  0  0  0  0  0
   24.0830  -25.2349  -15.4485 C   0  0  2  0  0  0  0  0  0  0  0  0
   25.4977  -25.5071  -15.5485 N   0  0  0  0  0  0  0  0  0  0  0  0
   23.7587  -24.0898  -16.3269 C   0  0  0  0  0  0  0  0  0  0  0  0
   22.5623  -24.0162  -16.9809 O   0  0  0  0  0  0  0  0  0  0  0  0
   21.5185  -25.6671  -13.4730 C   0  0  0  0  0  0  0  0  0  0  0  0
   20.1775  -25.4356  -13.2107 C   0  0  0  0  0  0  0  0  0  0  0  0
   24.6115  -23.1821  -16.4588 O   0  0  0  0  0  0  0  0  0  0  0  0
  1  2  1  0
  3  2  1  0
  4  5  1  0
  4  3  1  0
  5  6  1  1
  7  5  1  0
  8  7  2  0
  9  7  1  0
 10 11  1  6
 10  9  1  0
 11 12  1  0
 12 13  1  0
 13 14  1  0
 15 14  1  0
 16 25  1  0
 16 10  1  0
 17 16  2  0
 19 29  2  0
 19 18  1  0
 20 19  1  0
 21 22  1  0
 21 20  2  0
 22 28  2  0
 23 22  1  0
 24 23  1  1
 24 25  1  0
 26 24  1  0
 26 27  1  0
 28 29  1  0
 30 26  2  0
M  END
$$$$
