MKY.pdb
     RDKit          3D

 30 30  0  0  1  0  0  0  0  0999 V2000
   23.1520  -27.0077  -17.1321 C   0  0  0  0  0  0  0  0  0  0  0  0
   24.7958  -26.6991  -17.8771 S   0  0  0  0  0  0  0  0  0  0  0  0
   25.9315  -26.3380  -16.5048 C   0  0  0  0  0  0  0  0  0  0  0  0
   25.5208  -25.0408  -15.9011 C   0  0  0  0  0  0  0  0  0  0  0  0
   26.2963  -23.8864  -16.4832 C   0  0  2  0  0  0  0  0  0  0  0  0
   27.7066  -23.9899  -16.0865 N   0  0  0  0  0  0  0  0  0  0  0  0
   25.7842  -22.6104  -15.9353 C   0  0  0  0  0  0  0  0  0  0  0  0
   26.2075  -22.1374  -14.8550 O   0  0  0  0  0  0  0  0  0  0  0  0
   24.7941  -21.8905  -16.6303 N   0  0  0  0  0  0  0  0  0  0  0  0
   24.3626  -20.5929  -16.0917 C   0  0  1  0  0  0  0  0  0  0  0  0
   24.0790  -19.6381  -17.2018 C   0  0  0  0  0  0  0  0  0  0  0  0
   23.5297  -18.3424  -16.7374 C   0  0  0  0  0  0  0  0  0  0  0  0
   23.2790  -17.3960  -17.8744 C   0  0  0  0  0  0  0  0  0  0  0  0
   22.8387  -16.0396  -17.4104 C   0  0  0  0  0  0  0  0  0  0  0  0
   22.6038  -15.1317  -18.5127 N   0  0  0  0  0  0  0  0  0  0  0  0
   23.1053  -20.8925  -15.3499 C   0  0  0  0  0  0  0  0  0  0  0  0
   22.2771  -21.6978  -15.8456 O   0  0  0  0  0  0  0  0  0  0  0  0
   17.1683  -21.2252   -8.7527 O   0  0  0  0  0  0  0  0  0  0  0  0
   18.2872  -21.0185   -9.5566 C   0  0  0  0  0  0  0  0  0  0  0  0
   18.2781  -21.3290  -10.9011 C   0  0  0  0  0  0  0  0  0  0  0  0
   19.3990  -21.1237  -11.7137 C   0  0  0  0  0  0  0  0  0  0  0  0
   20.5432  -20.5990  -11.1650 C   0  0  0  0  0  0  0  0  0  0  0  0
   21.7471  -20.3685  -11.9664 C   0  0  0  0  0  0  0  0  0  0  0  0
   21.5466  -20.6751  -13.4438 C   0  0  2  0  0  0  0  0  0  0  0  0
   22.7830  -20.3112  -14.0951 N   0  0  0  0  0  0  0  0  0  0  0  0
   20.4466  -19.8899  -14.0449 C   0  0  0  0  0  0  0  0  0  0  0  0
   19.2537  -20.4725  -14.3644 O   0  0  0  0  0  0  0  0  0  0  0  0
   20.5495  -20.2881   -9.8153 C   0  0  0  0  0  0  0  0  0  0  0  0
   19.4413  -20.4902   -9.0082 C   0  0  0  0  0  0  0  0  0  0  0  0
   20.6343  -18.6698  -14.2562 O   0  0  0  0  0  0  0  0  0  0  0  0
  1  2  1  0
  3  2  1  0
  4  5  1  0
  4  3  1  0
  5  6  1  1
  7  5  1  0
  8  7  2  0
  9  7  1  0
 10 11  1  6
 10  9  1  0
 11 12  1  0
 12 13  1  0
 13 14  1  0
 15 14  1  0
 16 25  1  0
 16 10  1  0
 17 16  2  0
 19 29  2  0
 19 18  1  0
 20 19  1  0
 21 22  1  0
 21 20  2  0
 22 28  2  0
 23 22  1  0
 24 23  1  1
 24 25  1  0
 26 24  1  0
 26 27  1  0
 28 29  1  0
 30 26  2  0
M  END
$$$$
