MKY.pdb
     RDKit          3D

 30 30  0  0  1  0  0  0  0  0999 V2000
   21.6243  -18.6879  -21.5317 C   0  0  0  0  0  0  0  0  0  0  0  0
   22.9647  -17.4443  -21.6245 S   0  0  0  0  0  0  0  0  0  0  0  0
   24.5017  -18.3568  -21.9539 C   0  0  0  0  0  0  0  0  0  0  0  0
   24.4763  -19.6033  -21.1405 C   0  0  0  0  0  0  0  0  0  0  0  0
   24.6137  -19.3093  -19.6683 C   0  0  2  0  0  0  0  0  0  0  0  0
   25.9289  -18.7107  -19.4057 N   0  0  0  0  0  0  0  0  0  0  0  0
   24.5493  -20.5705  -18.8963 C   0  0  0  0  0  0  0  0  0  0  0  0
   23.4859  -21.2236  -18.7841 O   0  0  0  0  0  0  0  0  0  0  0  0
   25.7027  -21.0696  -18.2620 N   0  0  0  0  0  0  0  0  0  0  0  0
   25.5883  -22.2995  -17.4656 C   0  0  1  0  0  0  0  0  0  0  0  0
   26.8172  -23.1312  -17.6150 C   0  0  0  0  0  0  0  0  0  0  0  0
   26.5606  -24.4551  -18.2297 C   0  0  0  0  0  0  0  0  0  0  0  0
   27.0567  -25.5813  -17.3713 C   0  0  0  0  0  0  0  0  0  0  0  0
   26.8111  -26.9271  -17.9857 C   0  0  0  0  0  0  0  0  0  0  0  0
   27.2552  -28.0091  -17.1332 N   0  0  0  0  0  0  0  0  0  0  0  0
   25.4668  -21.8265  -16.0577 C   0  0  0  0  0  0  0  0  0  0  0  0
   26.5099  -21.5851  -15.3991 O   0  0  0  0  0  0  0  0  0  0  0  0
   24.2153  -20.6896   -7.6908 O   0  0  0  0  0  0  0  0  0  0  0  0
   24.3903  -20.7089   -9.0727 C   0  0  0  0  0  0  0  0  0  0  0  0
   25.5452  -21.1983   -9.6479 C   0  0  0  0  0  0  0  0  0  0  0  0
   25.7268  -21.2202  -11.0355 C   0  0  0  0  0  0  0  0  0  0  0  0
   24.7326  -20.7430  -11.8538 C   0  0  0  0  0  0  0  0  0  0  0  0
   24.8709  -20.7362  -13.3117 C   0  0  0  0  0  0  0  0  0  0  0  0
   24.1186  -21.8743  -13.9865 C   0  0  2  0  0  0  0  0  0  0  0  0
   24.2207  -21.6298  -15.4061 N   0  0  0  0  0  0  0  0  0  0  0  0
   22.6873  -21.9112  -13.6148 C   0  0  0  0  0  0  0  0  0  0  0  0
   22.2654  -22.5550  -12.4871 O   0  0  0  0  0  0  0  0  0  0  0  0
   23.5745  -20.2524  -11.2738 C   0  0  0  0  0  0  0  0  0  0  0  0
   23.3917  -20.2295   -9.9002 C   0  0  0  0  0  0  0  0  0  0  0  0
   21.8644  -21.3347  -14.3626 O   0  0  0  0  0  0  0  0  0  0  0  0
  1  2  1  0
  3  2  1  0
  4  5  1  0
  4  3  1  0
  5  6  1  6
  7  5  1  0
  8  7  2  0
  9  7  1  0
 10 11  1  1
 10  9  1  0
 11 12  1  0
 12 13  1  0
 13 14  1  0
 15 14  1  0
 16 25  1  0
 16 10  1  0
 17 16  2  0
 19 29  2  0
 19 18  1  0
 20 19  1  0
 21 22  1  0
 21 20  2  0
 22 28  2  0
 23 22  1  0
 24 23  1  1
 24 25  1  0
 26 24  1  0
 26 27  1  0
 28 29  1  0
 30 26  2  0
M  END
$$$$
