MKY.pdb
     RDKit          3D

 30 30  0  0  1  0  0  0  0  0999 V2000
   28.5955  -20.3851   -3.8595 C   0  0  0  0  0  0  0  0  0  0  0  0
   27.6148  -20.0618   -5.3715 S   0  0  0  0  0  0  0  0  0  0  0  0
   28.8047  -19.8264   -6.7252 C   0  0  0  0  0  0  0  0  0  0  0  0
   28.0378  -19.4728   -7.9511 C   0  0  0  0  0  0  0  0  0  0  0  0
   27.6676  -20.6980   -8.7479 C   0  0  2  0  0  0  0  0  0  0  0  0
   28.8855  -21.4263   -9.1267 N   0  0  0  0  0  0  0  0  0  0  0  0
   26.9946  -20.2960  -10.0033 C   0  0  0  0  0  0  0  0  0  0  0  0
   25.9490  -19.6055  -10.0013 O   0  0  0  0  0  0  0  0  0  0  0  0
   27.5261  -20.6887  -11.2462 N   0  0  0  0  0  0  0  0  0  0  0  0
   26.9109  -20.1581  -12.4710 C   0  0  1  0  0  0  0  0  0  0  0  0
   27.6863  -20.5883  -13.6702 C   0  0  0  0  0  0  0  0  0  0  0  0
   27.0642  -20.1781  -14.9513 C   0  0  0  0  0  0  0  0  0  0  0  0
   27.7976  -20.7322  -16.1373 C   0  0  0  0  0  0  0  0  0  0  0  0
   27.2800  -20.1955  -17.4385 C   0  0  0  0  0  0  0  0  0  0  0  0
   27.9648  -20.7659  -18.5788 N   0  0  0  0  0  0  0  0  0  0  0  0
   25.5513  -20.7672  -12.5038 C   0  0  0  0  0  0  0  0  0  0  0  0
   25.4165  -21.9837  -12.2172 O   0  0  0  0  0  0  0  0  0  0  0  0
   16.8100  -21.4494  -11.8182 O   0  0  0  0  0  0  0  0  0  0  0  0
   18.1552  -21.0874  -11.7993 C   0  0  0  0  0  0  0  0  0  0  0  0
   19.0236  -21.5840  -10.8489 C   0  0  0  0  0  0  0  0  0  0  0  0
   20.3760  -21.2240  -10.8247 C   0  0  0  0  0  0  0  0  0  0  0  0
   20.8593  -20.3528  -11.7698 C   0  0  0  0  0  0  0  0  0  0  0  0
   22.2634  -19.9371  -11.7887 C   0  0  0  0  0  0  0  0  0  0  0  0
   23.0984  -20.7058  -12.8029 C   0  0  2  0  0  0  0  0  0  0  0  0
   24.3798  -20.0414  -12.8459 N   0  0  0  0  0  0  0  0  0  0  0  0
   22.5092  -20.6850  -14.1595 C   0  0  0  0  0  0  0  0  0  0  0  0
   22.7249  -19.6378  -15.0087 O   0  0  0  0  0  0  0  0  0  0  0  0
   19.9854  -19.8560  -12.7226 C   0  0  0  0  0  0  0  0  0  0  0  0
   18.6460  -20.2106  -12.7491 C   0  0  0  0  0  0  0  0  0  0  0  0
   21.8027  -21.6561  -14.5152 O   0  0  0  0  0  0  0  0  0  0  0  0
  1  2  1  0
  3  2  1  0
  4  5  1  0
  4  3  1  0
  5  6  1  6
  7  5  1  0
  8  7  2  0
  9  7  1  0
 10 11  1  6
 10  9  1  0
 11 12  1  0
 12 13  1  0
 13 14  1  0
 15 14  1  0
 16 25  1  0
 16 10  1  0
 17 16  2  0
 19 29  2  0
 19 18  1  0
 20 19  1  0
 21 22  1  0
 21 20  2  0
 22 28  2  0
 23 22  1  0
 24 23  1  1
 24 25  1  0
 26 24  1  0
 26 27  1  0
 28 29  1  0
 30 26  2  0
M  END
$$$$
