MKY.pdb
     RDKit          3D

 30 30  0  0  1  0  0  0  0  0999 V2000
   16.1487  -11.3754  -22.3244 C   0  0  0  0  0  0  0  0  0  0  0  0
   17.5855  -10.7525  -21.3757 S   0  0  0  0  0  0  0  0  0  0  0  0
   18.3116  -12.1861  -20.5265 C   0  0  0  0  0  0  0  0  0  0  0  0
   19.4130  -11.6916  -19.6555 C   0  0  0  0  0  0  0  0  0  0  0  0
   20.1184  -12.8244  -18.9543 C   0  0  2  0  0  0  0  0  0  0  0  0
   19.1362  -13.8326  -18.5349 N   0  0  0  0  0  0  0  0  0  0  0  0
   20.7764  -12.3231  -17.7270 C   0  0  0  0  0  0  0  0  0  0  0  0
   20.2016  -12.3418  -16.6137 O   0  0  0  0  0  0  0  0  0  0  0  0
   22.0845  -11.8066  -17.7879 N   0  0  0  0  0  0  0  0  0  0  0  0
   22.7329  -11.3901  -16.5364 C   0  0  1  0  0  0  0  0  0  0  0  0
   24.1457  -11.8664  -16.4999 C   0  0  0  0  0  0  0  0  0  0  0  0
   24.2757  -13.2944  -16.1254 C   0  0  0  0  0  0  0  0  0  0  0  0
   25.7061  -13.6935  -15.9112 C   0  0  0  0  0  0  0  0  0  0  0  0
   25.8619  -15.1600  -15.6387 C   0  0  0  0  0  0  0  0  0  0  0  0
   27.2424  -15.5335  -15.4166 N   0  0  0  0  0  0  0  0  0  0  0  0
   22.7030   -9.9007  -16.5745 C   0  0  0  0  0  0  0  0  0  0  0  0
   23.3128   -9.2978  -17.4938 O   0  0  0  0  0  0  0  0  0  0  0  0
   16.0006   -7.6032  -17.5066 O   0  0  0  0  0  0  0  0  0  0  0  0
   17.3881   -7.5327  -17.4035 C   0  0  0  0  0  0  0  0  0  0  0  0
   18.2026   -8.5128  -17.9328 C   0  0  0  0  0  0  0  0  0  0  0  0
   19.5970   -8.4475  -17.8323 C   0  0  0  0  0  0  0  0  0  0  0  0
   20.1782   -7.3816  -17.1906 C   0  0  0  0  0  0  0  0  0  0  0  0
   21.6313   -7.2647  -17.0509 C   0  0  0  0  0  0  0  0  0  0  0  0
   22.1315   -7.6715  -15.6721 C   0  0  2  0  0  0  0  0  0  0  0  0
   22.0148   -9.1099  -15.6170 N   0  0  0  0  0  0  0  0  0  0  0  0
   21.3242   -7.0893  -14.5779 C   0  0  0  0  0  0  0  0  0  0  0  0
   20.4779   -7.8613  -13.8349 O   0  0  0  0  0  0  0  0  0  0  0  0
   19.3583   -6.3992  -16.6605 C   0  0  0  0  0  0  0  0  0  0  0  0
   17.9773   -6.4611  -16.7583 C   0  0  0  0  0  0  0  0  0  0  0  0
   21.4345   -5.8634  -14.3459 O   0  0  0  0  0  0  0  0  0  0  0  0
  1  2  1  0
  3  2  1  0
  4  5  1  0
  4  3  1  0
  5  6  1  1
  7  5  1  0
  8  7  2  0
  9  7  1  0
 10 11  1  6
 10  9  1  0
 11 12  1  0
 12 13  1  0
 13 14  1  0
 15 14  1  0
 16 25  1  0
 16 10  1  0
 17 16  2  0
 19 29  2  0
 19 18  1  0
 20 19  1  0
 21 22  1  0
 21 20  2  0
 22 28  2  0
 23 22  1  0
 24 23  1  6
 24 25  1  0
 26 24  1  0
 26 27  1  0
 28 29  1  0
 30 26  2  0
M  END
$$$$
