MKY.pdb
     RDKit          3D

 30 30  0  0  1  0  0  0  0  0999 V2000
   19.3775  -13.1540  -15.3412 C   0  0  0  0  0  0  0  0  0  0  0  0
   20.7962  -12.7327  -16.4193 S   0  0  0  0  0  0  0  0  0  0  0  0
   20.4613  -13.4837  -18.0402 C   0  0  0  0  0  0  0  0  0  0  0  0
   20.5401  -14.9620  -17.8839 C   0  0  0  0  0  0  0  0  0  0  0  0
   21.8376  -15.5095  -18.4222 C   0  0  2  0  0  0  0  0  0  0  0  0
   21.8622  -15.3711  -19.8842 N   0  0  0  0  0  0  0  0  0  0  0  0
   21.9355  -16.9554  -18.1218 C   0  0  0  0  0  0  0  0  0  0  0  0
   21.1292  -17.7864  -18.6006 O   0  0  0  0  0  0  0  0  0  0  0  0
   22.9551  -17.4335  -17.2772 N   0  0  0  0  0  0  0  0  0  0  0  0
   23.0285  -18.8777  -17.0146 C   0  0  1  0  0  0  0  0  0  0  0  0
   24.4507  -19.3189  -16.9311 C   0  0  0  0  0  0  0  0  0  0  0  0
   24.6024  -20.7740  -16.6948 C   0  0  0  0  0  0  0  0  0  0  0  0
   26.0425  -21.1799  -16.5812 C   0  0  0  0  0  0  0  0  0  0  0  0
   26.2210  -22.6683  -16.5355 C   0  0  0  0  0  0  0  0  0  0  0  0
   27.6160  -23.0537  -16.5225 N   0  0  0  0  0  0  0  0  0  0  0  0
   22.3667  -19.0539  -15.6911 C   0  0  0  0  0  0  0  0  0  0  0  0
   22.7088  -18.3181  -14.7310 O   0  0  0  0  0  0  0  0  0  0  0  0
   16.5598  -21.4798   -9.5015 O   0  0  0  0  0  0  0  0  0  0  0  0
   17.2368  -21.2302  -10.6932 C   0  0  0  0  0  0  0  0  0  0  0  0
   17.8476  -22.2437  -11.4031 C   0  0  0  0  0  0  0  0  0  0  0  0
   18.5292  -21.9992  -12.6008 C   0  0  0  0  0  0  0  0  0  0  0  0
   18.5965  -20.7176  -13.0893 C   0  0  0  0  0  0  0  0  0  0  0  0
   19.3011  -20.4030  -14.3340 C   0  0  0  0  0  0  0  0  0  0  0  0
   20.7835  -20.1278  -14.1258 C   0  0  2  0  0  0  0  0  0  0  0  0
   21.3559  -20.0207  -15.4473 N   0  0  0  0  0  0  0  0  0  0  0  0
   21.4697  -21.2190  -13.4004 C   0  0  0  0  0  0  0  0  0  0  0  0
   21.7428  -21.1196  -12.0662 O   0  0  0  0  0  0  0  0  0  0  0  0
   17.9825  -19.7023  -12.3749 C   0  0  0  0  0  0  0  0  0  0  0  0
   17.3068  -19.9413  -11.1888 C   0  0  0  0  0  0  0  0  0  0  0  0
   21.7973  -22.2441  -14.0411 O   0  0  0  0  0  0  0  0  0  0  0  0
  1  2  1  0
  3  2  1  0
  4  5  1  0
  4  3  1  0
  5  6  1  6
  7  5  1  0
  8  7  2  0
  9  7  1  0
 10 11  1  1
 10  9  1  0
 11 12  1  0
 12 13  1  0
 13 14  1  0
 15 14  1  0
 16 25  1  0
 16 10  1  0
 17 16  2  0
 19 29  2  0
 19 18  1  0
 20 19  1  0
 21 22  1  0
 21 20  2  0
 22 28  2  0
 23 22  1  0
 24 23  1  6
 24 25  1  0
 26 24  1  0
 26 27  1  0
 28 29  1  0
 30 26  2  0
M  END
$$$$
