MKY.pdb
     RDKit          3D

 30 30  0  0  1  0  0  0  0  0999 V2000
   18.6568  -31.6033  -12.6635 C   0  0  0  0  0  0  0  0  0  0  0  0
   18.5794  -29.9680  -13.4833 S   0  0  0  0  0  0  0  0  0  0  0  0
   18.8868  -30.2553  -15.2515 C   0  0  0  0  0  0  0  0  0  0  0  0
   19.8935  -31.3458  -15.3689 C   0  0  0  0  0  0  0  0  0  0  0  0
   20.9230  -31.0402  -16.4270 C   0  0  2  0  0  0  0  0  0  0  0  0
   20.3434  -31.2632  -17.7579 N   0  0  0  0  0  0  0  0  0  0  0  0
   22.0704  -31.9655  -16.2931 C   0  0  0  0  0  0  0  0  0  0  0  0
   21.9941  -33.1678  -16.6377 O   0  0  0  0  0  0  0  0  0  0  0  0
   23.2917  -31.5042  -15.7666 N   0  0  0  0  0  0  0  0  0  0  0  0
   24.3830  -32.4701  -15.5769 C   0  0  1  0  0  0  0  0  0  0  0  0
   25.6637  -31.9172  -16.1047 C   0  0  0  0  0  0  0  0  0  0  0  0
   26.8257  -32.8097  -15.8822 C   0  0  0  0  0  0  0  0  0  0  0  0
   28.1028  -32.2111  -16.3943 C   0  0  0  0  0  0  0  0  0  0  0  0
   29.2860  -33.1085  -16.1845 C   0  0  0  0  0  0  0  0  0  0  0  0
   30.5263  -32.4868  -16.5964 N   0  0  0  0  0  0  0  0  0  0  0  0
   24.4790  -32.6445  -14.1001 C   0  0  0  0  0  0  0  0  0  0  0  0
   24.8680  -31.6813  -13.3922 O   0  0  0  0  0  0  0  0  0  0  0  0
   21.0808  -28.4271  -11.2581 O   0  0  0  0  0  0  0  0  0  0  0  0
   21.5289  -29.7458  -11.2895 C   0  0  0  0  0  0  0  0  0  0  0  0
   22.3640  -30.2484  -10.3127 C   0  0  0  0  0  0  0  0  0  0  0  0
   22.8176  -31.5723  -10.3388 C   0  0  0  0  0  0  0  0  0  0  0  0
   22.4249  -32.4000  -11.3617 C   0  0  0  0  0  0  0  0  0  0  0  0
   22.8733  -33.7918  -11.4426 C   0  0  0  0  0  0  0  0  0  0  0  0
   24.2831  -33.9318  -11.9990 C   0  0  2  0  0  0  0  0  0  0  0  0
   24.1515  -33.8556  -13.4351 N   0  0  0  0  0  0  0  0  0  0  0  0
   24.9082  -35.2261  -11.6495 C   0  0  0  0  0  0  0  0  0  0  0  0
   25.1124  -35.5848  -10.3479 O   0  0  0  0  0  0  0  0  0  0  0  0
   21.5866  -31.8930  -12.3407 C   0  0  0  0  0  0  0  0  0  0  0  0
   21.1358  -30.5827  -12.3175 C   0  0  0  0  0  0  0  0  0  0  0  0
   25.2487  -35.9918  -12.5803 O   0  0  0  0  0  0  0  0  0  0  0  0
  1  2  1  0
  3  2  1  0
  4  5  1  0
  4  3  1  0
  5  6  1  6
  7  5  1  0
  8  7  2  0
  9  7  1  0
 10 11  1  1
 10  9  1  0
 11 12  1  0
 12 13  1  0
 13 14  1  0
 15 14  1  0
 16 25  1  0
 16 10  1  0
 17 16  2  0
 19 29  2  0
 19 18  1  0
 20 19  1  0
 21 22  1  0
 21 20  2  0
 22 28  2  0
 23 22  1  0
 24 23  1  1
 24 25  1  0
 26 24  1  0
 26 27  1  0
 28 29  1  0
 30 26  2  0
M  END
$$$$
