DWV.pdb
     RDKit          3D

 30 31  0  0  1  0  0  0  0  0999 V2000
   11.0952  -18.2498   20.7563 N   0  0  0  0  0  0  0  0  0  0  0  0
   11.9043  -17.2196   21.3433 C   0  0  1  0  0  0  0  0  0  0  0  0
   12.4487  -16.3351   20.2604 C   0  0  0  0  0  0  0  0  0  0  0  0
   13.1866  -17.0602   19.2090 C   0  0  0  0  0  0  0  0  0  0  0  0
   13.8580  -18.0746   19.5527 O   0  0  0  0  0  0  0  0  0  0  0  0
   11.2630  -16.5106   22.4522 C   0  0  0  0  0  0  0  0  0  0  0  0
   11.7863  -15.4346   22.8413 O   0  0  0  0  0  0  0  0  0  0  0  0
   13.1582  -16.6619   17.8910 O   0  0  0  0  0  0  0  0  0  0  0  0
   10.0974  -16.9352   23.1301 N   0  0  0  0  0  0  0  0  0  0  0  0
    9.5398  -16.1902   24.2366 C   0  0  1  0  0  0  0  0  0  0  0  0
    8.0592  -16.3054   24.2680 C   0  0  0  0  0  0  0  0  0  0  0  0
    7.3819  -15.0119   24.0244 C   0  0  0  0  0  0  0  0  0  0  0  0
    6.9130  -14.5801   22.8018 C   0  0  0  0  0  0  0  0  0  0  0  0
    6.3436  -13.3511   22.9487 N   0  0  0  0  0  0  0  0  0  0  0  0
    6.4279  -12.9696   24.2309 C   0  0  0  0  0  0  0  0  0  0  0  0
    6.0422  -11.8639   24.9634 C   0  0  0  0  0  0  0  0  0  0  0  0
    6.2838  -11.7761   26.3126 C   0  0  0  0  0  0  0  0  0  0  0  0
    6.9226  -12.7876   26.9985 C   0  0  0  0  0  0  0  0  0  0  0  0
    7.3112  -13.8992   26.2660 C   0  0  0  0  0  0  0  0  0  0  0  0
    7.0770  -14.0044   24.9111 C   0  0  0  0  0  0  0  0  0  0  0  0
   10.1918  -16.6696   25.4786 C   0  0  0  0  0  0  0  0  0  0  0  0
   10.7601  -17.7889   25.5205 O   0  0  0  0  0  0  0  0  0  0  0  0
    9.6839  -15.0868   29.6391 C   0  0  0  0  0  0  0  0  0  0  0  0
   11.0007  -15.2312   28.9083 C   0  0  2  0  0  0  0  0  0  0  0  0
   11.3742  -13.8982   28.3664 C   0  0  0  0  0  0  0  0  0  0  0  0
   10.9083  -16.3234   27.8879 C   0  0  2  0  0  0  0  0  0  0  0  0
   10.2178  -15.9080   26.6856 N   0  0  0  0  0  0  0  0  0  0  0  0
   10.4314  -17.6205   28.4031 C   0  0  0  0  0  0  0  0  0  0  0  0
   11.2067  -18.4474   29.2252 O   0  0  0  0  0  0  0  0  0  0  0  0
    9.2902  -18.0703   28.1354 O   0  0  0  0  0  0  0  0  0  0  0  0
  2  3  1  0
  2  1  1  6
  4  8  1  0
  4  3  1  0
  5  4  2  0
  6  2  1  0
  7  6  2  0
  9  6  1  0
 10  9  1  0
 11 12  1  0
 10 11  1  1
 12 13  2  0
 13 14  1  0
 15 14  1  0
 16 15  2  0
 17 16  1  0
 18 19  1  0
 18 17  2  0
 19 20  2  0
 20 12  1  0
 20 15  1  0
 21 10  1  0
 21 22  2  0
 24 26  1  0
 24 23  1  6
 25 24  1  0
 26 27  1  6
 27 21  1  0
 28 26  1  0
 29 28  1  0
 30 28  2  0
M  END
$$$$
