DWV.pdb
     RDKit          3D

 30 31  0  0  1  0  0  0  0  0999 V2000
   10.0957  -16.6760   19.8436 N   0  0  0  0  0  0  0  0  0  0  0  0
   10.9483  -16.7549   20.9957 C   0  0  1  0  0  0  0  0  0  0  0  0
   12.3066  -16.2201   20.6485 C   0  0  0  0  0  0  0  0  0  0  0  0
   13.1108  -17.1272   19.8081 C   0  0  0  0  0  0  0  0  0  0  0  0
   12.5858  -17.5669   18.7455 O   0  0  0  0  0  0  0  0  0  0  0  0
   10.3620  -16.1988   22.2165 C   0  0  0  0  0  0  0  0  0  0  0  0
   10.2773  -14.9468   22.3089 O   0  0  0  0  0  0  0  0  0  0  0  0
   14.3926  -17.4953   20.1515 O   0  0  0  0  0  0  0  0  0  0  0  0
    9.8799  -16.9536   23.3103 N   0  0  0  0  0  0  0  0  0  0  0  0
    9.3545  -16.3265   24.5023 C   0  0  1  0  0  0  0  0  0  0  0  0
    8.0312  -16.8940   24.8673 C   0  0  0  0  0  0  0  0  0  0  0  0
    7.0055  -15.8502   25.0900 C   0  0  0  0  0  0  0  0  0  0  0  0
    5.6428  -16.0581   25.0596 C   0  0  0  0  0  0  0  0  0  0  0  0
    5.0041  -14.8814   25.3118 N   0  0  0  0  0  0  0  0  0  0  0  0
    5.9106  -13.9131   25.5054 C   0  0  0  0  0  0  0  0  0  0  0  0
    5.8722  -12.5618   25.7885 C   0  0  0  0  0  0  0  0  0  0  0  0
    7.0224  -11.8249   25.9317 C   0  0  0  0  0  0  0  0  0  0  0  0
    8.2688  -12.3999   25.7995 C   0  0  0  0  0  0  0  0  0  0  0  0
    8.3109  -13.7566   25.5153 C   0  0  0  0  0  0  0  0  0  0  0  0
    7.1665  -14.5119   25.3681 C   0  0  0  0  0  0  0  0  0  0  0  0
   10.3695  -16.4693   25.5733 C   0  0  0  0  0  0  0  0  0  0  0  0
   11.2616  -17.3509   25.5058 O   0  0  0  0  0  0  0  0  0  0  0  0
    9.8638  -14.8585   29.6872 C   0  0  0  0  0  0  0  0  0  0  0  0
   11.1577  -14.7946   28.9058 C   0  0  2  0  0  0  0  0  0  0  0  0
   11.2845  -13.4268   28.3376 C   0  0  0  0  0  0  0  0  0  0  0  0
   11.2090  -15.9027   27.8997 C   0  0  2  0  0  0  0  0  0  0  0  0
   10.4016  -15.6324   26.7292 N   0  0  0  0  0  0  0  0  0  0  0  0
   10.9889  -17.2543   28.4475 C   0  0  0  0  0  0  0  0  0  0  0  0
    9.8166  -17.9870   28.2248 O   0  0  0  0  0  0  0  0  0  0  0  0
   11.8457  -17.8396   29.1543 O   0  0  0  0  0  0  0  0  0  0  0  0
  2  3  1  0
  2  1  1  6
  4  8  1  0
  4  3  1  0
  5  4  2  0
  6  2  1  0
  7  6  2  0
  9  6  1  0
 10  9  1  0
 11 12  1  0
 10 11  1  1
 12 13  2  0
 13 14  1  0
 15 14  1  0
 16 15  2  0
 17 16  1  0
 18 19  1  0
 18 17  2  0
 19 20  2  0
 20 12  1  0
 20 15  1  0
 21 10  1  0
 21 22  2  0
 24 26  1  0
 24 23  1  6
 25 24  1  0
 26 27  1  6
 27 21  1  0
 28 26  1  0
 29 28  1  0
 30 28  2  0
M  END
$$$$
