DWV.pdb
     RDKit          3D

 30 31  0  0  1  0  0  0  0  0999 V2000
   11.9996  -17.0165   19.7392 N   0  0  0  0  0  0  0  0  0  0  0  0
   11.8417  -17.6697   21.0077 C   0  0  1  0  0  0  0  0  0  0  0  0
   13.1373  -18.3169   21.4000 C   0  0  0  0  0  0  0  0  0  0  0  0
   13.6504  -19.2803   20.4080 C   0  0  0  0  0  0  0  0  0  0  0  0
   12.8717  -20.1970   20.0188 O   0  0  0  0  0  0  0  0  0  0  0  0
   11.2341  -16.8320   22.0434 C   0  0  0  0  0  0  0  0  0  0  0  0
   11.6643  -15.6570   22.1745 O   0  0  0  0  0  0  0  0  0  0  0  0
   14.9317  -19.2017   19.9096 O   0  0  0  0  0  0  0  0  0  0  0  0
   10.1980  -17.2336   22.9172 N   0  0  0  0  0  0  0  0  0  0  0  0
    9.5767  -16.3138   23.8436 C   0  0  1  0  0  0  0  0  0  0  0  0
    8.0986  -16.3230   23.6975 C   0  0  0  0  0  0  0  0  0  0  0  0
    7.4979  -14.9851   23.8987 C   0  0  0  0  0  0  0  0  0  0  0  0
    7.0498  -14.1574   22.8913 C   0  0  0  0  0  0  0  0  0  0  0  0
    6.5548  -13.0122   23.4388 N   0  0  0  0  0  0  0  0  0  0  0  0
    6.6674  -13.0697   24.7733 C   0  0  0  0  0  0  0  0  0  0  0  0
    6.3511  -12.2399   25.8313 C   0  0  0  0  0  0  0  0  0  0  0  0
    6.6037  -12.6050   27.1310 C   0  0  0  0  0  0  0  0  0  0  0  0
    7.1846  -13.8169   27.4400 C   0  0  0  0  0  0  0  0  0  0  0  0
    7.5035  -14.6524   26.3801 C   0  0  0  0  0  0  0  0  0  0  0  0
    7.2572  -14.3023   25.0692 C   0  0  0  0  0  0  0  0  0  0  0  0
   10.0335  -16.6693   25.2084 C   0  0  0  0  0  0  0  0  0  0  0  0
   10.3819  -17.8429   25.4889 O   0  0  0  0  0  0  0  0  0  0  0  0
    9.3807  -14.3788   28.9517 C   0  0  0  0  0  0  0  0  0  0  0  0
   10.7438  -14.8148   28.4607 C   0  0  2  0  0  0  0  0  0  0  0  0
   11.3934  -13.6463   27.8106 C   0  0  0  0  0  0  0  0  0  0  0  0
   10.6165  -16.0289   27.5934 C   0  0  2  0  0  0  0  0  0  0  0  0
   10.1071  -15.7221   26.2737 N   0  0  0  0  0  0  0  0  0  0  0  0
    9.9308  -17.1748   28.2197 C   0  0  0  0  0  0  0  0  0  0  0  0
   10.4589  -17.8781   29.3092 O   0  0  0  0  0  0  0  0  0  0  0  0
    8.8204  -17.5965   27.8129 O   0  0  0  0  0  0  0  0  0  0  0  0
  2  3  1  0
  2  1  1  6
  4  8  1  0
  4  3  1  0
  5  4  2  0
  6  2  1  0
  7  6  2  0
  9  6  1  0
 10  9  1  0
 11 12  1  0
 10 11  1  1
 12 13  2  0
 13 14  1  0
 15 14  1  0
 16 15  2  0
 17 16  1  0
 18 19  1  0
 18 17  2  0
 19 20  2  0
 20 12  1  0
 20 15  1  0
 21 10  1  0
 21 22  2  0
 24 26  1  0
 24 23  1  6
 25 24  1  0
 26 27  1  6
 27 21  1  0
 28 26  1  0
 29 28  1  0
 30 28  2  0
M  END
$$$$
