DWV.pdb
     RDKit          3D

 30 31  0  0  1  0  0  0  0  0999 V2000
   10.8115  -18.3331   21.0143 N   0  0  0  0  0  0  0  0  0  0  0  0
   11.4888  -17.1319   21.4129 C   0  0  1  0  0  0  0  0  0  0  0  0
   11.6833  -16.2483   20.2159 C   0  0  0  0  0  0  0  0  0  0  0  0
   12.5310  -16.8416   19.1646 C   0  0  0  0  0  0  0  0  0  0  0  0
   11.9737  -17.5853   18.3076 O   0  0  0  0  0  0  0  0  0  0  0  0
   10.9003  -16.4686   22.5779 C   0  0  0  0  0  0  0  0  0  0  0  0
   11.3650  -15.3480   22.9117 O   0  0  0  0  0  0  0  0  0  0  0  0
   13.8863  -16.6060   19.1009 O   0  0  0  0  0  0  0  0  0  0  0  0
    9.8470  -16.9837   23.3676 N   0  0  0  0  0  0  0  0  0  0  0  0
    9.3707  -16.3013   24.5498 C   0  0  1  0  0  0  0  0  0  0  0  0
    7.9540  -16.6463   24.8333 C   0  0  0  0  0  0  0  0  0  0  0  0
    7.0451  -15.4871   24.6867 C   0  0  0  0  0  0  0  0  0  0  0  0
    5.9603  -15.4324   23.8375 C   0  0  0  0  0  0  0  0  0  0  0  0
    5.3504  -14.2210   23.9669 N   0  0  0  0  0  0  0  0  0  0  0  0
    6.0061  -13.4850   24.8753 C   0  0  0  0  0  0  0  0  0  0  0  0
    5.8675  -12.2204   25.4133 C   0  0  0  0  0  0  0  0  0  0  0  0
    6.7384  -11.7443   26.3626 C   0  0  0  0  0  0  0  0  0  0  0  0
    7.7915  -12.5065   26.8226 C   0  0  0  0  0  0  0  0  0  0  0  0
    7.9336  -13.7766   26.2845 C   0  0  0  0  0  0  0  0  0  0  0  0
    7.0689  -14.2710   25.3307 C   0  0  0  0  0  0  0  0  0  0  0  0
   10.2896  -16.6336   25.6646 C   0  0  0  0  0  0  0  0  0  0  0  0
   11.0156  -17.6576   25.6215 O   0  0  0  0  0  0  0  0  0  0  0  0
   10.1807  -14.8047   29.7556 C   0  0  0  0  0  0  0  0  0  0  0  0
   11.4242  -15.0513   28.9299 C   0  0  2  0  0  0  0  0  0  0  0  0
   11.8030  -13.7711   28.2761 C   0  0  0  0  0  0  0  0  0  0  0  0
   11.2025  -16.1972   27.9915 C   0  0  2  0  0  0  0  0  0  0  0  0
   10.4095  -15.8293   26.8379 N   0  0  0  0  0  0  0  0  0  0  0  0
   10.7425  -17.4456   28.6280 C   0  0  0  0  0  0  0  0  0  0  0  0
   11.5723  -18.2507   29.4180 O   0  0  0  0  0  0  0  0  0  0  0  0
    9.5678  -17.8702   28.5014 O   0  0  0  0  0  0  0  0  0  0  0  0
  2  3  1  0
  2  1  1  6
  4  8  1  0
  4  3  1  0
  5  4  2  0
  6  2  1  0
  7  6  2  0
  9  6  1  0
 10  9  1  0
 11 12  1  0
 10 11  1  1
 12 13  2  0
 13 14  1  0
 15 14  1  0
 16 15  2  0
 17 16  1  0
 18 19  1  0
 18 17  2  0
 19 20  2  0
 20 12  1  0
 20 15  1  0
 21 10  1  0
 21 22  2  0
 24 26  1  0
 24 23  1  6
 25 24  1  0
 26 27  1  6
 27 21  1  0
 28 26  1  0
 29 28  1  0
 30 28  2  0
M  END
$$$$
