DWV.pdb
     RDKit          3D

 30 31  0  0  1  0  0  0  0  0999 V2000
   11.1885  -16.3937   19.8787 N   0  0  0  0  0  0  0  0  0  0  0  0
   11.5918  -16.9980   21.1168 C   0  0  1  0  0  0  0  0  0  0  0  0
   13.0846  -17.1491   21.1350 C   0  0  0  0  0  0  0  0  0  0  0  0
   13.6178  -17.9644   20.0276 C   0  0  0  0  0  0  0  0  0  0  0  0
   14.5246  -17.4586   19.3065 O   0  0  0  0  0  0  0  0  0  0  0  0
   11.0231  -16.3645   22.3079 C   0  0  0  0  0  0  0  0  0  0  0  0
   11.1434  -15.1173   22.4230 O   0  0  0  0  0  0  0  0  0  0  0  0
   13.1571  -19.2365   19.7706 O   0  0  0  0  0  0  0  0  0  0  0  0
   10.3461  -17.0392   23.3495 N   0  0  0  0  0  0  0  0  0  0  0  0
    9.6848  -16.3283   24.4207 C   0  0  1  0  0  0  0  0  0  0  0  0
    8.2179  -16.5598   24.3918 C   0  0  0  0  0  0  0  0  0  0  0  0
    7.4507  -15.3207   24.1325 C   0  0  0  0  0  0  0  0  0  0  0  0
    6.8648  -14.9878   22.9296 C   0  0  0  0  0  0  0  0  0  0  0  0
    6.2389  -13.7840   23.0537 N   0  0  0  0  0  0  0  0  0  0  0  0
    6.3999  -13.3230   24.3021 C   0  0  0  0  0  0  0  0  0  0  0  0
    6.0090  -12.1976   25.0011 C   0  0  0  0  0  0  0  0  0  0  0  0
    6.3486  -12.0170   26.3196 C   0  0  0  0  0  0  0  0  0  0  0  0
    7.0954  -12.9508   27.0067 C   0  0  0  0  0  0  0  0  0  0  0  0
    7.4895  -14.0818   26.3078 C   0  0  0  0  0  0  0  0  0  0  0  0
    7.1579  -14.2797   24.9839 C   0  0  0  0  0  0  0  0  0  0  0  0
   10.3187  -16.7408   25.6958 C   0  0  0  0  0  0  0  0  0  0  0  0
   10.8040  -17.8909   25.8348 O   0  0  0  0  0  0  0  0  0  0  0  0
    9.8473  -14.7888   29.6746 C   0  0  0  0  0  0  0  0  0  0  0  0
   11.1778  -15.1068   29.0284 C   0  0  2  0  0  0  0  0  0  0  0  0
   11.7017  -13.8576   28.4161 C   0  0  0  0  0  0  0  0  0  0  0  0
   11.0307  -16.2589   28.0830 C   0  0  2  0  0  0  0  0  0  0  0  0
   10.4187  -15.8774   26.8281 N   0  0  0  0  0  0  0  0  0  0  0  0
   10.4308  -17.4732   28.6668 C   0  0  0  0  0  0  0  0  0  0  0  0
   11.1170  -18.3145   29.5512 O   0  0  0  0  0  0  0  0  0  0  0  0
    9.2567  -17.8335   28.4063 O   0  0  0  0  0  0  0  0  0  0  0  0
  2  3  1  0
  2  1  1  6
  4  8  1  0
  4  3  1  0
  5  4  2  0
  6  2  1  0
  7  6  2  0
  9  6  1  0
 10  9  1  0
 11 12  1  0
 10 11  1  1
 12 13  2  0
 13 14  1  0
 15 14  1  0
 16 15  2  0
 17 16  1  0
 18 19  1  0
 18 17  2  0
 19 20  2  0
 20 12  1  0
 20 15  1  0
 21 10  1  0
 21 22  2  0
 24 26  1  0
 24 23  1  6
 25 24  1  0
 26 27  1  6
 27 21  1  0
 28 26  1  0
 29 28  1  0
 30 28  2  0
M  END
$$$$
