DWV.pdb
     RDKit          3D

 30 31  0  0  1  0  0  0  0  0999 V2000
    9.9228  -18.0537   19.5703 N   0  0  0  0  0  0  0  0  0  0  0  0
   10.9739  -17.2268   20.0921 C   0  0  1  0  0  0  0  0  0  0  0  0
   11.5472  -16.3914   18.9854 C   0  0  0  0  0  0  0  0  0  0  0  0
   12.0552  -17.1757   17.8442 C   0  0  0  0  0  0  0  0  0  0  0  0
   11.3096  -17.2915   16.8298 O   0  0  0  0  0  0  0  0  0  0  0  0
   10.6098  -16.4826   21.2992 C   0  0  0  0  0  0  0  0  0  0  0  0
   11.4486  -15.6659   21.7601 O   0  0  0  0  0  0  0  0  0  0  0  0
   13.2973  -17.7702   17.8627 O   0  0  0  0  0  0  0  0  0  0  0  0
    9.3871  -16.6047   21.9983 N   0  0  0  0  0  0  0  0  0  0  0  0
    9.0960  -15.8190   23.1765 C   0  0  1  0  0  0  0  0  0  0  0  0
    7.6630  -15.4305   23.2207 C   0  0  0  0  0  0  0  0  0  0  0  0
    7.2405  -14.9632   24.5602 C   0  0  0  0  0  0  0  0  0  0  0  0
    6.7652  -15.7736   25.5694 C   0  0  0  0  0  0  0  0  0  0  0  0
    6.4788  -15.0095   26.6605 N   0  0  0  0  0  0  0  0  0  0  0  0
    6.7535  -13.7254   26.3917 C   0  0  0  0  0  0  0  0  0  0  0  0
    6.6725  -12.5297   27.0786 C   0  0  0  0  0  0  0  0  0  0  0  0
    7.0459  -11.3418   26.4991 C   0  0  0  0  0  0  0  0  0  0  0  0
    7.5189  -11.2875   25.2049 C   0  0  0  0  0  0  0  0  0  0  0  0
    7.6013  -12.4862   24.5124 C   0  0  0  0  0  0  0  0  0  0  0  0
    7.2309  -13.6881   25.0781 C   0  0  0  0  0  0  0  0  0  0  0  0
    9.5284  -16.6008   24.3595 C   0  0  0  0  0  0  0  0  0  0  0  0
    9.2993  -17.8332   24.4397 O   0  0  0  0  0  0  0  0  0  0  0  0
   13.1264  -16.7566   25.2338 C   0  0  0  0  0  0  0  0  0  0  0  0
   12.4101  -16.3703   26.5092 C   0  0  2  0  0  0  0  0  0  0  0  0
   13.1686  -16.9409   27.6533 C   0  0  0  0  0  0  0  0  0  0  0  0
   10.9717  -16.7809   26.4386 C   0  0  2  0  0  0  0  0  0  0  0  0
   10.2202  -16.0188   25.4642 N   0  0  0  0  0  0  0  0  0  0  0  0
   10.2859  -16.8801   27.7406 C   0  0  0  0  0  0  0  0  0  0  0  0
    9.0881  -16.2131   28.0256 O   0  0  0  0  0  0  0  0  0  0  0  0
   10.7357  -17.5747   28.6848 O   0  0  0  0  0  0  0  0  0  0  0  0
  2  3  1  0
  2  1  1  6
  4  8  1  0
  4  3  1  0
  5  4  2  0
  6  2  1  0
  7  6  2  0
  9  6  1  0
 10  9  1  0
 11 12  1  0
 10 11  1  1
 12 13  2  0
 13 14  1  0
 15 14  1  0
 16 15  2  0
 17 16  1  0
 18 19  1  0
 18 17  2  0
 19 20  2  0
 20 12  1  0
 20 15  1  0
 21 10  1  0
 21 22  2  0
 24 26  1  0
 24 23  1  6
 25 24  1  0
 26 27  1  6
 27 21  1  0
 28 26  1  0
 29 28  1  0
 30 28  2  0
M  END
$$$$
