DWV.pdb
     RDKit          3D

 30 31  0  0  1  0  0  0  0  0999 V2000
   11.0793  -18.3251   20.9643 N   0  0  0  0  0  0  0  0  0  0  0  0
   11.8355  -17.2083   21.4557 C   0  0  1  0  0  0  0  0  0  0  0  0
   12.2388  -16.3339   20.3049 C   0  0  0  0  0  0  0  0  0  0  0  0
   13.1646  -16.9812   19.3564 C   0  0  0  0  0  0  0  0  0  0  0  0
   13.4063  -18.2118   19.5153 O   0  0  0  0  0  0  0  0  0  0  0  0
   11.2069  -16.5023   22.5738 C   0  0  0  0  0  0  0  0  0  0  0  0
   11.6963  -15.3955   22.9181 O   0  0  0  0  0  0  0  0  0  0  0  0
   13.7564  -16.2862   18.3253 O   0  0  0  0  0  0  0  0  0  0  0  0
   10.0889  -16.9617   23.3070 N   0  0  0  0  0  0  0  0  0  0  0  0
    9.5171  -16.1968   24.3924 C   0  0  1  0  0  0  0  0  0  0  0  0
    8.0393  -16.3423   24.4299 C   0  0  0  0  0  0  0  0  0  0  0  0
    7.3345  -15.1002   24.0405 C   0  0  0  0  0  0  0  0  0  0  0  0
    6.9178  -14.7922   22.7628 C   0  0  0  0  0  0  0  0  0  0  0  0
    6.3019  -13.5769   22.7730 N   0  0  0  0  0  0  0  0  0  0  0  0
    6.3053  -13.0843   24.0196 C   0  0  0  0  0  0  0  0  0  0  0  0
    5.8455  -11.9350   24.6324 C   0  0  0  0  0  0  0  0  0  0  0  0
    6.0118  -11.7233   25.9792 C   0  0  0  0  0  0  0  0  0  0  0  0
    6.6454  -12.6482   26.7821 C   0  0  0  0  0  0  0  0  0  0  0  0
    7.1084  -13.8032   26.1700 C   0  0  0  0  0  0  0  0  0  0  0  0
    6.9503  -14.0325   24.8193 C   0  0  0  0  0  0  0  0  0  0  0  0
   10.1808  -16.6259   25.6466 C   0  0  0  0  0  0  0  0  0  0  0  0
   10.8681  -17.6764   25.6883 O   0  0  0  0  0  0  0  0  0  0  0  0
    9.4619  -15.0592   29.7866 C   0  0  0  0  0  0  0  0  0  0  0  0
   10.8008  -15.1329   29.0859 C   0  0  2  0  0  0  0  0  0  0  0  0
   11.1060  -13.7864   28.5350 C   0  0  0  0  0  0  0  0  0  0  0  0
   10.7960  -16.2404   28.0778 C   0  0  2  0  0  0  0  0  0  0  0  0
   10.0862  -15.8901   26.8661 N   0  0  0  0  0  0  0  0  0  0  0  0
   10.4111  -17.5630   28.6049 C   0  0  0  0  0  0  0  0  0  0  0  0
   11.2081  -18.2911   29.4968 O   0  0  0  0  0  0  0  0  0  0  0  0
    9.3352  -18.1257   28.2851 O   0  0  0  0  0  0  0  0  0  0  0  0
  2  3  1  0
  2  1  1  6
  4  8  1  0
  4  3  1  0
  5  4  2  0
  6  2  1  0
  7  6  2  0
  9  6  1  0
 10  9  1  0
 11 12  1  0
 10 11  1  1
 12 13  2  0
 13 14  1  0
 15 14  1  0
 16 15  2  0
 17 16  1  0
 18 19  1  0
 18 17  2  0
 19 20  2  0
 20 12  1  0
 20 15  1  0
 21 10  1  0
 21 22  2  0
 24 26  1  0
 24 23  1  6
 25 24  1  0
 26 27  1  6
 27 21  1  0
 28 26  1  0
 29 28  1  0
 30 28  2  0
M  END
$$$$
