DWV.pdb
     RDKit          3D

 30 31  0  0  1  0  0  0  0  0999 V2000
   10.7443  -17.2659   20.4134 N   0  0  0  0  0  0  0  0  0  0  0  0
   11.5168  -16.2963   21.1370 C   0  0  1  0  0  0  0  0  0  0  0  0
   11.8466  -15.1455   20.2323 C   0  0  0  0  0  0  0  0  0  0  0  0
   12.7812  -15.4879   19.1438 C   0  0  0  0  0  0  0  0  0  0  0  0
   13.1312  -16.6969   19.0256 O   0  0  0  0  0  0  0  0  0  0  0  0
   10.9459  -15.9174   22.4308 C   0  0  0  0  0  0  0  0  0  0  0  0
   11.5024  -14.9855   23.0672 O   0  0  0  0  0  0  0  0  0  0  0  0
   13.2683  -14.5374   18.2744 O   0  0  0  0  0  0  0  0  0  0  0  0
    9.8146  -16.5145   23.0326 N   0  0  0  0  0  0  0  0  0  0  0  0
    9.2385  -16.0046   24.2566 C   0  0  1  0  0  0  0  0  0  0  0  0
    7.9080  -16.6119   24.5161 C   0  0  0  0  0  0  0  0  0  0  0  0
    6.9493  -15.6519   25.1081 C   0  0  0  0  0  0  0  0  0  0  0  0
    5.6351  -15.9321   25.4170 C   0  0  0  0  0  0  0  0  0  0  0  0
    5.0529  -14.8210   25.9489 N   0  0  0  0  0  0  0  0  0  0  0  0
    5.9492  -13.8253   25.9953 C   0  0  0  0  0  0  0  0  0  0  0  0
    5.9483  -12.5098   26.4164 C   0  0  0  0  0  0  0  0  0  0  0  0
    7.0725  -11.7260   26.3263 C   0  0  0  0  0  0  0  0  0  0  0  0
    8.2542  -12.2159   25.8113 C   0  0  0  0  0  0  0  0  0  0  0  0
    8.2586  -13.5363   25.3876 C   0  0  0  0  0  0  0  0  0  0  0  0
    7.1394  -14.3378   25.4704 C   0  0  0  0  0  0  0  0  0  0  0  0
   10.2138  -16.2402   25.3478 C   0  0  0  0  0  0  0  0  0  0  0  0
   11.1124  -17.1105   25.2357 O   0  0  0  0  0  0  0  0  0  0  0  0
    9.7288  -14.8996   29.5931 C   0  0  0  0  0  0  0  0  0  0  0  0
   10.9926  -14.7677   28.7718 C   0  0  2  0  0  0  0  0  0  0  0  0
   11.0678  -13.3722   28.2651 C   0  0  0  0  0  0  0  0  0  0  0  0
   11.0335  -15.8261   27.7131 C   0  0  2  0  0  0  0  0  0  0  0  0
   10.1985  -15.5096   26.5740 N   0  0  0  0  0  0  0  0  0  0  0  0
   10.8392  -17.2046   28.2002 C   0  0  0  0  0  0  0  0  0  0  0  0
   11.8158  -17.9056   28.9183 O   0  0  0  0  0  0  0  0  0  0  0  0
    9.7768  -17.8433   28.0008 O   0  0  0  0  0  0  0  0  0  0  0  0
  2  3  1  0
  2  1  1  6
  4  8  1  0
  4  3  1  0
  5  4  2  0
  6  2  1  0
  7  6  2  0
  9  6  1  0
 10  9  1  0
 11 12  1  0
 10 11  1  1
 12 13  2  0
 13 14  1  0
 15 14  1  0
 16 15  2  0
 17 16  1  0
 18 19  1  0
 18 17  2  0
 19 20  2  0
 20 12  1  0
 20 15  1  0
 21 10  1  0
 21 22  2  0
 24 26  1  0
 24 23  1  6
 25 24  1  0
 26 27  1  6
 27 21  1  0
 28 26  1  0
 29 28  1  0
 30 28  2  0
M  END
$$$$
