DWV.pdb
     RDKit          3D

 30 31  0  0  1  0  0  0  0  0999 V2000
    9.9678  -17.5423   18.7352 N   0  0  0  0  0  0  0  0  0  0  0  0
    8.9285  -17.6183   19.7224 C   0  0  1  0  0  0  0  0  0  0  0  0
    8.4228  -19.0285   19.8067 C   0  0  0  0  0  0  0  0  0  0  0  0
    7.9437  -19.5711   18.5216 C   0  0  0  0  0  0  0  0  0  0  0  0
    6.8593  -19.1165   18.0572 O   0  0  0  0  0  0  0  0  0  0  0  0
    9.2759  -17.0115   21.0087 C   0  0  0  0  0  0  0  0  0  0  0  0
   10.3900  -17.3056   21.5140 O   0  0  0  0  0  0  0  0  0  0  0  0
    8.6392  -20.5408   17.8344 O   0  0  0  0  0  0  0  0  0  0  0  0
    8.4600  -16.1172   21.7388 N   0  0  0  0  0  0  0  0  0  0  0  0
    8.8721  -15.5680   23.0110 C   0  0  1  0  0  0  0  0  0  0  0  0
    8.0496  -14.3861   23.3759 C   0  0  0  0  0  0  0  0  0  0  0  0
    8.3225  -13.9042   24.7487 C   0  0  0  0  0  0  0  0  0  0  0  0
    9.5129  -14.0680   25.4248 C   0  0  0  0  0  0  0  0  0  0  0  0
    9.4106  -13.4969   26.6575 N   0  0  0  0  0  0  0  0  0  0  0  0
    8.1886  -12.9659   26.8043 C   0  0  0  0  0  0  0  0  0  0  0  0
    7.5189  -12.2801   27.7988 C   0  0  0  0  0  0  0  0  0  0  0  0
    6.2232  -11.8562   27.6316 C   0  0  0  0  0  0  0  0  0  0  0  0
    5.5309  -12.0954   26.4632 C   0  0  0  0  0  0  0  0  0  0  0  0
    6.2004  -12.7837   25.4627 C   0  0  0  0  0  0  0  0  0  0  0  0
    7.5010  -13.2169   25.6131 C   0  0  0  0  0  0  0  0  0  0  0  0
    8.8113  -16.6573   24.0147 C   0  0  0  0  0  0  0  0  0  0  0  0
    7.7365  -17.2645   24.2463 O   0  0  0  0  0  0  0  0  0  0  0  0
   12.1960  -18.9593   25.2042 C   0  0  0  0  0  0  0  0  0  0  0  0
   10.7353  -19.3424   25.2953 C   0  0  2  0  0  0  0  0  0  0  0  0
   10.3339  -19.9370   23.9932 C   0  0  0  0  0  0  0  0  0  0  0  0
    9.9183  -18.1648   25.7294 C   0  0  2  0  0  0  0  0  0  0  0  0
    9.9459  -17.0814   24.7699 N   0  0  0  0  0  0  0  0  0  0  0  0
   10.1611  -17.7117   27.1118 C   0  0  0  0  0  0  0  0  0  0  0  0
   10.7009  -16.4571   27.4205 O   0  0  0  0  0  0  0  0  0  0  0  0
    9.8972  -18.4277   28.1088 O   0  0  0  0  0  0  0  0  0  0  0  0
  2  3  1  0
  2  1  1  6
  4  8  1  0
  4  3  1  0
  5  4  2  0
  6  2  1  0
  7  6  2  0
  9  6  1  0
 10  9  1  0
 11 12  1  0
 10 11  1  1
 12 13  2  0
 13 14  1  0
 15 14  1  0
 16 15  2  0
 17 16  1  0
 18 19  1  0
 18 17  2  0
 19 20  2  0
 20 12  1  0
 20 15  1  0
 21 10  1  0
 21 22  2  0
 24 26  1  0
 24 23  1  6
 25 24  1  0
 26 27  1  6
 27 21  1  0
 28 26  1  0
 29 28  1  0
 30 28  2  0
M  END
$$$$
