DWV.pdb
     RDKit          3D

 30 31  0  0  1  0  0  0  0  0999 V2000
    9.9842  -15.9515   19.9812 N   0  0  0  0  0  0  0  0  0  0  0  0
   10.6342  -16.5488   21.1131 C   0  0  1  0  0  0  0  0  0  0  0  0
   12.1205  -16.5155   20.9097 C   0  0  0  0  0  0  0  0  0  0  0  0
   12.6270  -17.5755   20.0177 C   0  0  0  0  0  0  0  0  0  0  0  0
   11.7972  -18.1554   19.2605 O   0  0  0  0  0  0  0  0  0  0  0  0
   10.1789  -16.0366   22.4069 C   0  0  0  0  0  0  0  0  0  0  0  0
   10.2700  -14.7987   22.6126 O   0  0  0  0  0  0  0  0  0  0  0  0
   13.9557  -17.9366   19.9950 O   0  0  0  0  0  0  0  0  0  0  0  0
    9.6426  -16.8200   23.4544 N   0  0  0  0  0  0  0  0  0  0  0  0
    9.2016  -16.2350   24.7008 C   0  0  1  0  0  0  0  0  0  0  0  0
    7.8750  -16.7683   25.1031 C   0  0  0  0  0  0  0  0  0  0  0  0
    6.8599  -15.7040   25.2701 C   0  0  0  0  0  0  0  0  0  0  0  0
    5.4992  -15.9114   25.3505 C   0  0  0  0  0  0  0  0  0  0  0  0
    4.8714  -14.7124   25.5069 N   0  0  0  0  0  0  0  0  0  0  0  0
    5.7832  -13.7300   25.5306 C   0  0  0  0  0  0  0  0  0  0  0  0
    5.7555  -12.3551   25.6594 C   0  0  0  0  0  0  0  0  0  0  0  0
    6.9085  -11.6089   25.6440 C   0  0  0  0  0  0  0  0  0  0  0  0
    8.1470  -12.1976   25.4992 C   0  0  0  0  0  0  0  0  0  0  0  0
    8.1783  -13.5779   25.3696 C   0  0  0  0  0  0  0  0  0  0  0  0
    7.0310  -14.3430   25.3828 C   0  0  0  0  0  0  0  0  0  0  0  0
   10.2602  -16.4723   25.7111 C   0  0  0  0  0  0  0  0  0  0  0  0
   11.2411  -17.2150   25.4583 O   0  0  0  0  0  0  0  0  0  0  0  0
   10.1588  -15.0554   29.9806 C   0  0  0  0  0  0  0  0  0  0  0  0
   11.3442  -15.0661   29.0407 C   0  0  2  0  0  0  0  0  0  0  0  0
   11.4728  -13.7091   28.4475 C   0  0  0  0  0  0  0  0  0  0  0  0
   11.2058  -16.1782   28.0472 C   0  0  2  0  0  0  0  0  0  0  0  0
   10.2374  -15.8853   27.0120 N   0  0  0  0  0  0  0  0  0  0  0  0
   11.0300  -17.5204   28.6326 C   0  0  0  0  0  0  0  0  0  0  0  0
   11.9959  -18.1339   29.4398 O   0  0  0  0  0  0  0  0  0  0  0  0
    9.9945  -18.2047   28.4435 O   0  0  0  0  0  0  0  0  0  0  0  0
  2  3  1  0
  2  1  1  6
  4  8  1  0
  4  3  1  0
  5  4  2  0
  6  2  1  0
  7  6  2  0
  9  6  1  0
 10  9  1  0
 11 12  1  0
 10 11  1  1
 12 13  2  0
 13 14  1  0
 15 14  1  0
 16 15  2  0
 17 16  1  0
 18 19  1  0
 18 17  2  0
 19 20  2  0
 20 12  1  0
 20 15  1  0
 21 10  1  0
 21 22  2  0
 24 26  1  0
 24 23  1  1
 25 24  1  0
 26 27  1  6
 27 21  1  0
 28 26  1  0
 29 28  1  0
 30 28  2  0
M  END
$$$$
