DWV.pdb
     RDKit          3D

 30 31  0  0  1  0  0  0  0  0999 V2000
   10.7181  -16.5799   19.7287 N   0  0  0  0  0  0  0  0  0  0  0  0
   11.3945  -16.9525   20.9387 C   0  0  1  0  0  0  0  0  0  0  0  0
   12.8763  -16.8212   20.7424 C   0  0  0  0  0  0  0  0  0  0  0  0
   13.4041  -17.6143   19.6164 C   0  0  0  0  0  0  0  0  0  0  0  0
   12.8202  -18.6996   19.3348 O   0  0  0  0  0  0  0  0  0  0  0  0
   10.8736  -16.3027   22.1428 C   0  0  0  0  0  0  0  0  0  0  0  0
   10.9318  -15.0473   22.2037 O   0  0  0  0  0  0  0  0  0  0  0  0
   14.4955  -17.2042   18.8835 O   0  0  0  0  0  0  0  0  0  0  0  0
   10.3073  -16.9700   23.2530 N   0  0  0  0  0  0  0  0  0  0  0  0
    9.6690  -16.2534   24.3344 C   0  0  1  0  0  0  0  0  0  0  0  0
    8.2063  -16.5108   24.3578 C   0  0  0  0  0  0  0  0  0  0  0  0
    7.4082  -15.2817   24.1491 C   0  0  0  0  0  0  0  0  0  0  0  0
    6.7957  -14.9251   22.9665 C   0  0  0  0  0  0  0  0  0  0  0  0
    6.1458  -13.7400   23.1377 N   0  0  0  0  0  0  0  0  0  0  0  0
    6.3172  -13.3140   24.3971 C   0  0  0  0  0  0  0  0  0  0  0  0
    5.9134  -12.2196   25.1368 C   0  0  0  0  0  0  0  0  0  0  0  0
    6.2705  -12.0721   26.4548 C   0  0  0  0  0  0  0  0  0  0  0  0
    7.0486  -13.0096   27.1007 C   0  0  0  0  0  0  0  0  0  0  0  0
    7.4557  -14.1096   26.3609 C   0  0  0  0  0  0  0  0  0  0  0  0
    7.1068  -14.2741   25.0369 C   0  0  0  0  0  0  0  0  0  0  0  0
   10.3518  -16.6341   25.5940 C   0  0  0  0  0  0  0  0  0  0  0  0
   10.9676  -17.7244   25.6923 O   0  0  0  0  0  0  0  0  0  0  0  0
    9.7311  -14.6747   29.5531 C   0  0  0  0  0  0  0  0  0  0  0  0
   11.0782  -15.0450   28.9723 C   0  0  2  0  0  0  0  0  0  0  0  0
   11.6769  -13.8190   28.3821 C   0  0  0  0  0  0  0  0  0  0  0  0
   10.9335  -16.1954   28.0245 C   0  0  2  0  0  0  0  0  0  0  0  0
   10.3559  -15.8050   26.7560 N   0  0  0  0  0  0  0  0  0  0  0  0
   10.3012  -17.3993   28.5953 C   0  0  0  0  0  0  0  0  0  0  0  0
   10.8930  -18.1663   29.6063 O   0  0  0  0  0  0  0  0  0  0  0  0
    9.1822  -17.8172   28.2084 O   0  0  0  0  0  0  0  0  0  0  0  0
  2  3  1  0
  2  1  1  6
  4  8  1  0
  4  3  1  0
  5  4  2  0
  6  2  1  0
  7  6  2  0
  9  6  1  0
 10  9  1  0
 11 12  1  0
 10 11  1  1
 12 13  2  0
 13 14  1  0
 15 14  1  0
 16 15  2  0
 17 16  1  0
 18 19  1  0
 18 17  2  0
 19 20  2  0
 20 12  1  0
 20 15  1  0
 21 10  1  0
 21 22  2  0
 24 26  1  0
 24 23  1  6
 25 24  1  0
 26 27  1  6
 27 21  1  0
 28 26  1  0
 29 28  1  0
 30 28  2  0
M  END
$$$$
