DWV.pdb
     RDKit          3D

 30 31  0  0  1  0  0  0  0  0999 V2000
   10.6675  -18.1055   20.5511 N   0  0  0  0  0  0  0  0  0  0  0  0
   11.4244  -17.0089   21.0851 C   0  0  1  0  0  0  0  0  0  0  0  0
   11.7866  -16.0659   19.9755 C   0  0  0  0  0  0  0  0  0  0  0  0
   12.7453  -16.6243   19.0036 C   0  0  0  0  0  0  0  0  0  0  0  0
   13.0274  -17.8533   19.0932 O   0  0  0  0  0  0  0  0  0  0  0  0
   10.8187  -16.3753   22.2577 C   0  0  0  0  0  0  0  0  0  0  0  0
   11.3745  -15.3459   22.7209 O   0  0  0  0  0  0  0  0  0  0  0  0
   13.3251  -15.8499   18.0235 O   0  0  0  0  0  0  0  0  0  0  0  0
    9.6540  -16.8250   22.9209 N   0  0  0  0  0  0  0  0  0  0  0  0
    9.1424  -16.1674   24.1025 C   0  0  1  0  0  0  0  0  0  0  0  0
    7.7807  -16.6554   24.4399 C   0  0  0  0  0  0  0  0  0  0  0  0
    6.9047  -15.5830   24.9632 C   0  0  0  0  0  0  0  0  0  0  0  0
    5.6293  -15.7690   25.4527 C   0  0  0  0  0  0  0  0  0  0  0  0
    5.1228  -14.5689   25.8519 N   0  0  0  0  0  0  0  0  0  0  0  0
    6.0307  -13.6065   25.6366 C   0  0  0  0  0  0  0  0  0  0  0  0
    6.0922  -12.2404   25.8312 C   0  0  0  0  0  0  0  0  0  0  0  0
    7.2091  -11.5162   25.4929 C   0  0  0  0  0  0  0  0  0  0  0  0
    8.3208  -12.1192   24.9433 C   0  0  0  0  0  0  0  0  0  0  0  0
    8.2624  -13.4907   24.7465 C   0  0  0  0  0  0  0  0  0  0  0  0
    7.1495  -14.2337   25.0801 C   0  0  0  0  0  0  0  0  0  0  0  0
   10.1251  -16.3699   25.1938 C   0  0  0  0  0  0  0  0  0  0  0  0
   11.0890  -17.1637   25.0576 O   0  0  0  0  0  0  0  0  0  0  0  0
    9.6993  -14.8792   29.4225 C   0  0  0  0  0  0  0  0  0  0  0  0
   10.9437  -14.8392   28.5629 C   0  0  2  0  0  0  0  0  0  0  0  0
   11.0512  -13.4789   27.9730 C   0  0  0  0  0  0  0  0  0  0  0  0
   10.9205  -15.9581   27.5678 C   0  0  2  0  0  0  0  0  0  0  0  0
   10.0447  -15.6908   26.4468 N   0  0  0  0  0  0  0  0  0  0  0  0
   10.7207  -17.3014   28.1430 C   0  0  0  0  0  0  0  0  0  0  0  0
   11.6402  -17.9057   29.0091 O   0  0  0  0  0  0  0  0  0  0  0  0
    9.7049  -17.9950   27.8912 O   0  0  0  0  0  0  0  0  0  0  0  0
  2  3  1  0
  2  1  1  6
  4  8  1  0
  4  3  1  0
  5  4  2  0
  6  2  1  0
  7  6  2  0
  9  6  1  0
 10  9  1  0
 11 12  1  0
 10 11  1  1
 12 13  2  0
 13 14  1  0
 15 14  1  0
 16 15  2  0
 17 16  1  0
 18 19  1  0
 18 17  2  0
 19 20  2  0
 20 12  1  0
 20 15  1  0
 21 10  1  0
 21 22  2  0
 24 26  1  0
 24 23  1  6
 25 24  1  0
 26 27  1  6
 27 21  1  0
 28 26  1  0
 29 28  1  0
 30 28  2  0
M  END
$$$$
