SII.pdb
     RDKit          3D

 23 22  0  0  1  0  0  0  0  0999 V2000
   18.1090  -25.7604   -4.2669 O   0  0  0  0  0  0  0  0  0  0  0  0
   17.5170  -25.6943   -3.0256 C   0  0  0  0  0  0  0  0  0  0  0  0
   15.9992  -25.6406   -3.2111 C   0  0  2  0  0  0  0  0  0  0  0  0
   15.6499  -24.7204   -4.2736 N   0  0  0  0  0  0  0  0  0  0  0  0
   15.3734  -25.1714   -1.9597 C   0  0  0  0  0  0  0  0  0  0  0  0
   14.9091  -24.0135   -1.8897 O   0  0  0  0  0  0  0  0  0  0  0  0
   12.6236  -28.7066    1.2132 C   0  0  0  0  0  0  0  0  0  0  0  0
   13.0800  -27.5599    0.3545 C   0  0  0  0  0  0  0  0  0  0  0  0
   14.0369  -26.7084    1.1611 C   0  0  2  0  0  0  0  0  0  0  0  0
   13.2741  -26.1196    2.3248 C   0  0  0  0  0  0  0  0  0  0  0  0
   14.5576  -25.5406    0.3404 C   0  0  2  0  0  0  0  0  0  0  0  0
   15.2808  -26.0113   -0.8105 N   0  0  0  0  0  0  0  0  0  0  0  0
   15.4301  -24.6642    1.1505 C   0  0  0  0  0  0  0  0  0  0  0  0
   16.5561  -25.0689    1.5317 O   0  0  0  0  0  0  0  0  0  0  0  0
   17.7180  -19.2953    1.2506 C   0  0  0  0  0  0  0  0  0  0  0  0
   17.2408  -20.3997    2.1806 C   0  0  0  0  0  0  0  0  0  0  0  0
   16.4893  -21.4623    1.4436 C   0  0  2  0  0  0  0  0  0  0  0  0
   15.5137  -20.8815    0.4437 C   0  0  0  0  0  0  0  0  0  0  0  0
   15.8800  -22.4892    2.3285 C   0  0  2  0  0  0  0  0  0  0  0  0
   15.0167  -23.3597    1.5106 N   0  0  0  0  0  0  0  0  0  0  0  0
   15.1410  -22.0030    3.4896 C   0  0  0  0  0  0  0  0  0  0  0  0
   13.7633  -22.0748    3.5263 O   0  0  0  0  0  0  0  0  0  0  0  0
   15.7214  -21.5062    4.4870 O   0  0  0  0  0  0  0  0  0  0  0  0
  2  1  1  0
  3  4  1  6
  3  2  1  0
  5  3  1  0
  6  5  2  0
  8  9  1  0
  8  7  1  0
  9 11  1  0
  9 10  1  1
 11 13  1  0
 11 12  1  6
 12  5  1  0
 13 20  1  0
 14 13  2  0
 15 16  1  0
 17 19  1  0
 17 16  1  0
 17 18  1  1
 19 21  1  0
 19 20  1  6
 21 23  2  0
 21 22  1  0
M  END
$$$$
