SII.pdb
     RDKit          3D

 23 22  0  0  1  0  0  0  0  0999 V2000
   19.2719  -16.1592  -16.9853 O   0  0  0  0  0  0  0  0  0  0  0  0
   20.1480  -15.1175  -16.7779 C   0  0  0  0  0  0  0  0  0  0  0  0
   20.7730  -14.7310  -18.1200 C   0  0  2  0  0  0  0  0  0  0  0  0
   21.9136  -15.5750  -18.4105 N   0  0  0  0  0  0  0  0  0  0  0  0
   21.2306  -13.3294  -18.0568 C   0  0  0  0  0  0  0  0  0  0  0  0
   22.3589  -13.0614  -17.5917 O   0  0  0  0  0  0  0  0  0  0  0  0
   20.2704   -9.9528  -22.1398 C   0  0  0  0  0  0  0  0  0  0  0  0
   20.9015  -10.7205  -21.0114 C   0  0  0  0  0  0  0  0  0  0  0  0
   20.4210  -10.1307  -19.7028 C   0  0  2  0  0  0  0  0  0  0  0  0
   20.9839   -8.7336  -19.5831 C   0  0  0  0  0  0  0  0  0  0  0  0
   20.9497  -10.9210  -18.5178 C   0  0  2  0  0  0  0  0  0  0  0  0
   20.4126  -12.2554  -18.5170 N   0  0  0  0  0  0  0  0  0  0  0  0
   20.6218  -10.2532  -17.2402 C   0  0  0  0  0  0  0  0  0  0  0  0
   19.4299  -10.1792  -16.8518 O   0  0  0  0  0  0  0  0  0  0  0  0
   20.7615   -9.9178  -11.8882 C   0  0  0  0  0  0  0  0  0  0  0  0
   21.7953   -9.1612  -12.7075 C   0  0  0  0  0  0  0  0  0  0  0  0
   21.9904   -9.7719  -14.0588 C   0  0  2  0  0  0  0  0  0  0  0  0
   23.4463  -10.0656  -14.3470 C   0  0  0  0  0  0  0  0  0  0  0  0
   21.3138   -9.0308  -15.1552 C   0  0  2  0  0  0  0  0  0  0  0  0
   21.6380   -9.6875  -16.4341 N   0  0  0  0  0  0  0  0  0  0  0  0
   21.5845   -7.5993  -15.2471 C   0  0  0  0  0  0  0  0  0  0  0  0
   22.4054   -7.1015  -16.2385 O   0  0  0  0  0  0  0  0  0  0  0  0
   21.0887   -6.7755  -14.4382 O   0  0  0  0  0  0  0  0  0  0  0  0
  2  1  1  0
  3  4  1  1
  3  2  1  0
  5  3  1  0
  6  5  2  0
  8  9  1  0
  8  7  1  0
  9 11  1  0
  9 10  1  1
 11 13  1  0
 11 12  1  1
 12  5  1  0
 13 20  1  0
 14 13  2  0
 15 16  1  0
 17 19  1  0
 17 16  1  0
 17 18  1  6
 19 21  1  0
 19 20  1  6
 21 23  2  0
 21 22  1  0
M  END
$$$$
