SII.pdb
     RDKit          3D

 23 22  0  0  1  0  0  0  0  0999 V2000
   20.8823  -14.6316  -19.6719 O   0  0  0  0  0  0  0  0  0  0  0  0
   21.2703  -13.6931  -18.7423 C   0  0  0  0  0  0  0  0  0  0  0  0
   22.3761  -14.2953  -17.8730 C   0  0  2  0  0  0  0  0  0  0  0  0
   21.8843  -15.4541  -17.1568 N   0  0  0  0  0  0  0  0  0  0  0  0
   22.8219  -13.2900  -16.8889 C   0  0  0  0  0  0  0  0  0  0  0  0
   22.1163  -13.0399  -15.8886 O   0  0  0  0  0  0  0  0  0  0  0  0
   28.1305  -12.4004  -15.8878 C   0  0  0  0  0  0  0  0  0  0  0  0
   26.6561  -12.6447  -15.7226 C   0  0  0  0  0  0  0  0  0  0  0  0
   25.9176  -11.3690  -16.0667 C   0  0  2  0  0  0  0  0  0  0  0  0
   26.2059  -10.3538  -14.9853 C   0  0  0  0  0  0  0  0  0  0  0  0
   24.4144  -11.5898  -16.0731 C   0  0  2  0  0  0  0  0  0  0  0  0
   24.0515  -12.5846  -17.0468 N   0  0  0  0  0  0  0  0  0  0  0  0
   23.6900  -10.3322  -16.3548 C   0  0  0  0  0  0  0  0  0  0  0  0
   23.8817   -9.7187  -17.4335 O   0  0  0  0  0  0  0  0  0  0  0  0
   18.5454   -8.1255  -17.2444 C   0  0  0  0  0  0  0  0  0  0  0  0
   19.9252   -7.7194  -16.7508 C   0  0  0  0  0  0  0  0  0  0  0  0
   20.7478   -8.9057  -16.3594 C   0  0  2  0  0  0  0  0  0  0  0  0
   19.9445   -9.9253  -15.5820 C   0  0  0  0  0  0  0  0  0  0  0  0
   22.0359   -8.5533  -15.7069 C   0  0  2  0  0  0  0  0  0  0  0  0
   22.7716   -9.7977  -15.4203 N   0  0  0  0  0  0  0  0  0  0  0  0
   21.9609   -7.7300  -14.5038 C   0  0  0  0  0  0  0  0  0  0  0  0
   21.8455   -6.3580  -14.5973 O   0  0  0  0  0  0  0  0  0  0  0  0
   21.9988   -8.2305  -13.3520 O   0  0  0  0  0  0  0  0  0  0  0  0
  2  1  1  0
  3  4  1  1
  3  2  1  0
  5  3  1  0
  6  5  2  0
  8  9  1  0
  8  7  1  0
  9 11  1  0
  9 10  1  1
 11 13  1  0
 11 12  1  6
 12  5  1  0
 13 20  1  0
 14 13  2  0
 15 16  1  0
 17 19  1  0
 17 16  1  0
 17 18  1  1
 19 21  1  0
 19 20  1  1
 21 23  2  0
 21 22  1  0
M  END
$$$$
