SII.pdb
     RDKit          3D

 23 22  0  0  1  0  0  0  0  0999 V2000
   20.3432  -11.8124  -21.3934 O   0  0  0  0  0  0  0  0  0  0  0  0
   20.4950  -11.3887  -20.0922 C   0  0  0  0  0  0  0  0  0  0  0  0
   21.3911  -12.3863  -19.3554 C   0  0  2  0  0  0  0  0  0  0  0  0
   20.6325  -13.5557  -18.9621 N   0  0  0  0  0  0  0  0  0  0  0  0
   21.9319  -11.7475  -18.1400 C   0  0  0  0  0  0  0  0  0  0  0  0
   21.2384  -11.6926  -17.1022 O   0  0  0  0  0  0  0  0  0  0  0  0
   25.4550  -12.4292  -15.3892 C   0  0  0  0  0  0  0  0  0  0  0  0
   25.7478  -11.8838  -16.7594 C   0  0  0  0  0  0  0  0  0  0  0  0
   25.1940  -10.4776  -16.8439 C   0  0  2  0  0  0  0  0  0  0  0  0
   25.5539   -9.7542  -15.5672 C   0  0  0  0  0  0  0  0  0  0  0  0
   23.6772  -10.4895  -16.9302 C   0  0  2  0  0  0  0  0  0  0  0  0
   23.2413  -11.1825  -18.1130 N   0  0  0  0  0  0  0  0  0  0  0  0
   23.1305   -9.1158  -16.9301 C   0  0  0  0  0  0  0  0  0  0  0  0
   23.6011   -8.2467  -17.7046 O   0  0  0  0  0  0  0  0  0  0  0  0
   18.2497   -6.0249  -17.4493 C   0  0  0  0  0  0  0  0  0  0  0  0
   19.5859   -6.0029  -16.7237 C   0  0  0  0  0  0  0  0  0  0  0  0
   20.2150   -7.3590  -16.6744 C   0  0  2  0  0  0  0  0  0  0  0  0
   19.2733   -8.4047  -16.1188 C   0  0  0  0  0  0  0  0  0  0  0  0
   21.5547   -7.3755  -16.0309 C   0  0  2  0  0  0  0  0  0  0  0  0
   22.0725   -8.7550  -16.0625 N   0  0  0  0  0  0  0  0  0  0  0  0
   21.6404   -6.8416  -14.6751 C   0  0  0  0  0  0  0  0  0  0  0  0
   21.8044   -7.6865  -13.5962 O   0  0  0  0  0  0  0  0  0  0  0  0
   21.5684   -5.6096  -14.4397 O   0  0  0  0  0  0  0  0  0  0  0  0
  2  1  1  0
  3  4  1  1
  3  2  1  0
  5  3  1  0
  6  5  2  0
  8  9  1  0
  8  7  1  0
  9 11  1  0
  9 10  1  1
 11 13  1  0
 11 12  1  6
 12  5  1  0
 13 20  1  0
 14 13  2  0
 15 16  1  0
 17 19  1  0
 17 16  1  0
 17 18  1  1
 19 21  1  0
 19 20  1  1
 21 23  2  0
 21 22  1  0
M  END
$$$$
