SII.pdb
     RDKit          3D

 23 22  0  0  1  0  0  0  0  0999 V2000
   29.3845  -19.3337  -16.9849 O   0  0  0  0  0  0  0  0  0  0  0  0
   28.5227  -19.1363  -15.9294 C   0  0  0  0  0  0  0  0  0  0  0  0
   27.0985  -19.4401  -16.3988 C   0  0  2  0  0  0  0  0  0  0  0  0
   26.6601  -18.4521  -17.3629 N   0  0  0  0  0  0  0  0  0  0  0  0
   26.1864  -19.4009  -15.2393 C   0  0  0  0  0  0  0  0  0  0  0  0
   25.7558  -18.3053  -14.8204 O   0  0  0  0  0  0  0  0  0  0  0  0
   21.7132  -19.7050  -12.9897 C   0  0  0  0  0  0  0  0  0  0  0  0
   22.4054  -21.0387  -12.9376 C   0  0  0  0  0  0  0  0  0  0  0  0
   23.4533  -21.0777  -14.0293 C   0  0  2  0  0  0  0  0  0  0  0  0
   23.7077  -22.5243  -14.3839 C   0  0  0  0  0  0  0  0  0  0  0  0
   24.7740  -20.5052  -13.5430 C   0  0  2  0  0  0  0  0  0  0  0  0
   25.7750  -20.5927  -14.5723 N   0  0  0  0  0  0  0  0  0  0  0  0
   25.2467  -21.2061  -12.3301 C   0  0  0  0  0  0  0  0  0  0  0  0
   25.3838  -22.4543  -12.3327 O   0  0  0  0  0  0  0  0  0  0  0  0
   27.4390  -18.7477   -7.4705 C   0  0  0  0  0  0  0  0  0  0  0  0
   26.3173  -19.3071   -8.3313 C   0  0  0  0  0  0  0  0  0  0  0  0
   26.7385  -20.5434   -9.0603 C   0  0  2  0  0  0  0  0  0  0  0  0
   28.0061  -20.3308   -9.8585 C   0  0  0  0  0  0  0  0  0  0  0  0
   25.6485  -21.1755   -9.8486 C   0  0  2  0  0  0  0  0  0  0  0  0
   25.5523  -20.4890  -11.1491 N   0  0  0  0  0  0  0  0  0  0  0  0
   24.3328  -21.2390   -9.2197 C   0  0  0  0  0  0  0  0  0  0  0  0
   24.0519  -22.2035   -8.2734 O   0  0  0  0  0  0  0  0  0  0  0  0
   23.4165  -20.4303   -9.5114 O   0  0  0  0  0  0  0  0  0  0  0  0
  2  1  1  0
  3  4  1  6
  3  2  1  0
  5  3  1  0
  6  5  2  0
  8  9  1  0
  8  7  1  0
  9 11  1  0
  9 10  1  1
 11 13  1  0
 11 12  1  6
 12  5  1  0
 13 20  1  0
 14 13  2  0
 15 16  1  0
 17 19  1  0
 17 16  1  0
 17 18  1  6
 19 21  1  0
 19 20  1  6
 21 23  2  0
 21 22  1  0
M  END
$$$$
