SII.pdb
     RDKit          3D

 23 22  0  0  1  0  0  0  0  0999 V2000
   28.0166  -19.4794  -16.7465 O   0  0  0  0  0  0  0  0  0  0  0  0
   26.8805  -20.1035  -16.2823 C   0  0  0  0  0  0  0  0  0  0  0  0
   27.2847  -21.1220  -15.2145 C   0  0  2  0  0  0  0  0  0  0  0  0
   27.7462  -22.3484  -15.8317 N   0  0  0  0  0  0  0  0  0  0  0  0
   26.1137  -21.4328  -14.3719 C   0  0  0  0  0  0  0  0  0  0  0  0
   25.3185  -22.3331  -14.7157 O   0  0  0  0  0  0  0  0  0  0  0  0
   26.2615  -20.6653   -8.9261 C   0  0  0  0  0  0  0  0  0  0  0  0
   26.0737  -21.2667  -10.2913 C   0  0  0  0  0  0  0  0  0  0  0  0
   24.8687  -20.6187  -10.9388 C   0  0  2  0  0  0  0  0  0  0  0  0
   23.6354  -21.0687  -10.1908 C   0  0  0  0  0  0  0  0  0  0  0  0
   24.7038  -21.0804  -12.3769 C   0  0  2  0  0  0  0  0  0  0  0  0
   25.8580  -20.7267  -13.1592 N   0  0  0  0  0  0  0  0  0  0  0  0
   23.4911  -20.4981  -12.9901 C   0  0  0  0  0  0  0  0  0  0  0  0
   23.3974  -19.2565  -13.1529 O   0  0  0  0  0  0  0  0  0  0  0  0
   19.8305  -21.1853  -17.5607 C   0  0  0  0  0  0  0  0  0  0  0  0
   19.8816  -20.7033  -16.1193 C   0  0  0  0  0  0  0  0  0  0  0  0
   21.0950  -21.2092  -15.4058 C   0  0  2  0  0  0  0  0  0  0  0  0
   21.2600  -22.7060  -15.5522 C   0  0  0  0  0  0  0  0  0  0  0  0
   21.2013  -20.7426  -13.9987 C   0  0  2  0  0  0  0  0  0  0  0  0
   22.4182  -21.3229  -13.4035 N   0  0  0  0  0  0  0  0  0  0  0  0
   20.0535  -20.9950  -13.1329 C   0  0  0  0  0  0  0  0  0  0  0  0
   20.1003  -21.9880  -12.1756 O   0  0  0  0  0  0  0  0  0  0  0  0
   18.9924  -20.3286  -13.2241 O   0  0  0  0  0  0  0  0  0  0  0  0
  2  1  1  0
  3  4  1  6
  3  2  1  0
  5  3  1  0
  6  5  2  0
  8  9  1  0
  8  7  1  0
  9 11  1  0
  9 10  1  1
 11 13  1  0
 11 12  1  6
 12  5  1  0
 13 20  1  0
 14 13  2  0
 15 16  1  0
 17 19  1  0
 17 16  1  0
 17 18  1  1
 19 21  1  0
 19 20  1  1
 21 23  2  0
 21 22  1  0
M  END
$$$$
