SII.pdb
     RDKit          3D

 23 22  0  0  1  0  0  0  0  0999 V2000
   29.7494  -22.3404  -15.1880 O   0  0  0  0  0  0  0  0  0  0  0  0
   29.2105  -21.4369  -14.2998 C   0  0  0  0  0  0  0  0  0  0  0  0
   27.8140  -21.0464  -14.7880 C   0  0  2  0  0  0  0  0  0  0  0  0
   27.9031  -20.0587  -15.8435 N   0  0  0  0  0  0  0  0  0  0  0  0
   27.0519  -20.4658  -13.6655 C   0  0  0  0  0  0  0  0  0  0  0  0
   27.1673  -19.2516  -13.3944 O   0  0  0  0  0  0  0  0  0  0  0  0
   22.1265  -20.1533  -13.9508 C   0  0  0  0  0  0  0  0  0  0  0  0
   23.5985  -20.0707  -13.6556 C   0  0  0  0  0  0  0  0  0  0  0  0
   23.8592  -20.7459  -12.3261 C   0  0  2  0  0  0  0  0  0  0  0  0
   23.0396  -20.0386  -11.2720 C   0  0  0  0  0  0  0  0  0  0  0  0
   25.3159  -20.6076  -11.9167 C   0  0  2  0  0  0  0  0  0  0  0  0
   26.1749  -21.2597  -12.8686 N   0  0  0  0  0  0  0  0  0  0  0  0
   25.5490  -21.1714  -10.5701 C   0  0  0  0  0  0  0  0  0  0  0  0
   25.4906  -22.4119  -10.3839 O   0  0  0  0  0  0  0  0  0  0  0  0
   28.7629  -18.5516   -6.9108 C   0  0  0  0  0  0  0  0  0  0  0  0
   28.0695  -19.6047   -7.7607 C   0  0  0  0  0  0  0  0  0  0  0  0
   26.6902  -19.9014   -7.2641 C   0  0  2  0  0  0  0  0  0  0  0  0
   26.6771  -20.2523   -5.7924 C   0  0  0  0  0  0  0  0  0  0  0  0
   25.9464  -20.8750   -8.1054 C   0  0  2  0  0  0  0  0  0  0  0  0
   25.8409  -20.3299   -9.4705 N   0  0  0  0  0  0  0  0  0  0  0  0
   24.6290  -21.2853   -7.6291 C   0  0  0  0  0  0  0  0  0  0  0  0
   23.4958  -20.6027   -8.0221 O   0  0  0  0  0  0  0  0  0  0  0  0
   24.4767  -22.2613   -6.8528 O   0  0  0  0  0  0  0  0  0  0  0  0
  2  1  1  0
  3  4  1  6
  3  2  1  0
  5  3  1  0
  6  5  2  0
  8  9  1  0
  8  7  1  0
  9 11  1  0
  9 10  1  1
 11 13  1  0
 11 12  1  6
 12  5  1  0
 13 20  1  0
 14 13  2  0
 15 16  1  0
 17 19  1  0
 17 16  1  0
 17 18  1  1
 19 21  1  0
 19 20  1  6
 21 23  2  0
 21 22  1  0
M  END
$$$$
