SII.pdb
     RDKit          3D

 23 22  0  0  1  0  0  0  0  0999 V2000
   20.9984  -12.1301  -21.9691 O   0  0  0  0  0  0  0  0  0  0  0  0
   20.6332  -11.4433  -20.8330 C   0  0  0  0  0  0  0  0  0  0  0  0
   20.9681  -12.3044  -19.6134 C   0  0  2  0  0  0  0  0  0  0  0  0
   20.0430  -13.4137  -19.5058 N   0  0  0  0  0  0  0  0  0  0  0  0
   20.8578  -11.4818  -18.3932 C   0  0  0  0  0  0  0  0  0  0  0  0
   19.7688  -11.4101  -17.7849 O   0  0  0  0  0  0  0  0  0  0  0  0
   24.6068  -11.6432  -14.6636 C   0  0  0  0  0  0  0  0  0  0  0  0
   23.3117  -11.5736  -15.4243 C   0  0  0  0  0  0  0  0  0  0  0  0
   23.0466  -10.1283  -15.7879 C   0  0  2  0  0  0  0  0  0  0  0  0
   22.7579   -9.3693  -14.5137 C   0  0  0  0  0  0  0  0  0  0  0  0
   21.8127  -10.0006  -16.6651 C   0  0  2  0  0  0  0  0  0  0  0  0
   21.9725  -10.7553  -17.8792 N   0  0  0  0  0  0  0  0  0  0  0  0
   21.5335   -8.5863  -16.9931 C   0  0  0  0  0  0  0  0  0  0  0  0
   22.3433   -7.9256  -17.6892 O   0  0  0  0  0  0  0  0  0  0  0  0
   16.2764   -6.7021  -17.6659 C   0  0  0  0  0  0  0  0  0  0  0  0
   17.5591   -6.8532  -16.8633 C   0  0  0  0  0  0  0  0  0  0  0  0
   18.7712   -6.5672  -17.6917 C   0  0  2  0  0  0  0  0  0  0  0  0
   18.8306   -7.4308  -18.9326 C   0  0  0  0  0  0  0  0  0  0  0  0
   20.0399   -6.5654  -16.9176 C   0  0  2  0  0  0  0  0  0  0  0  0
   20.3553   -7.9524  -16.5320 N   0  0  0  0  0  0  0  0  0  0  0  0
   20.0947   -5.6972  -15.7453 C   0  0  0  0  0  0  0  0  0  0  0  0
   20.0745   -6.2320  -14.4733 O   0  0  0  0  0  0  0  0  0  0  0  0
   20.1604   -4.4466  -15.8464 O   0  0  0  0  0  0  0  0  0  0  0  0
  2  1  1  0
  3  4  1  1
  3  2  1  0
  5  3  1  0
  6  5  2  0
  8  9  1  0
  8  7  1  0
  9 11  1  0
  9 10  1  1
 11 13  1  0
 11 12  1  6
 12  5  1  0
 13 20  1  0
 14 13  2  0
 15 16  1  0
 17 19  1  0
 17 16  1  0
 17 18  1  6
 19 21  1  0
 19 20  1  1
 21 23  2  0
 21 22  1  0
M  END
$$$$
