SII.pdb
     RDKit          3D

 23 22  0  0  1  0  0  0  0  0999 V2000
   27.9284  -24.8529  -18.1365 O   0  0  0  0  0  0  0  0  0  0  0  0
   27.8810  -24.1089  -16.9789 C   0  0  0  0  0  0  0  0  0  0  0  0
   28.7473  -22.8615  -17.1646 C   0  0  2  0  0  0  0  0  0  0  0  0
   30.1494  -23.2206  -17.2182 N   0  0  0  0  0  0  0  0  0  0  0  0
   28.5395  -21.9515  -16.0216 C   0  0  0  0  0  0  0  0  0  0  0  0
   29.4625  -21.7576  -15.2021 O   0  0  0  0  0  0  0  0  0  0  0  0
   26.5336  -16.5321  -14.9654 C   0  0  0  0  0  0  0  0  0  0  0  0
   26.7067  -17.8734  -14.3084 C   0  0  0  0  0  0  0  0  0  0  0  0
   26.9023  -18.9148  -15.3893 C   0  0  2  0  0  0  0  0  0  0  0  0
   25.6030  -19.0531  -16.1481 C   0  0  0  0  0  0  0  0  0  0  0  0
   27.2088  -20.2769  -14.7899 C   0  0  2  0  0  0  0  0  0  0  0  0
   27.2992  -21.2764  -15.8205 N   0  0  0  0  0  0  0  0  0  0  0  0
   26.1797  -20.6718  -13.8046 C   0  0  0  0  0  0  0  0  0  0  0  0
   25.1592  -21.3039  -14.1733 O   0  0  0  0  0  0  0  0  0  0  0  0
   27.6171  -20.8306   -8.4105 C   0  0  0  0  0  0  0  0  0  0  0  0
   27.0169  -21.2568   -9.7411 C   0  0  0  0  0  0  0  0  0  0  0  0
   25.8070  -20.4496  -10.0903 C   0  0  2  0  0  0  0  0  0  0  0  0
   24.7420  -20.5256   -9.0183 C   0  0  0  0  0  0  0  0  0  0  0  0
   25.2837  -20.7135  -11.4561 C   0  0  2  0  0  0  0  0  0  0  0  0
   26.3229  -20.3474  -12.4347 N   0  0  0  0  0  0  0  0  0  0  0  0
   24.0186  -20.0775  -11.8107 C   0  0  0  0  0  0  0  0  0  0  0  0
   22.8345  -20.7834  -11.7452 O   0  0  0  0  0  0  0  0  0  0  0  0
   23.9584  -18.8797  -12.1851 O   0  0  0  0  0  0  0  0  0  0  0  0
  2  1  1  0
  3  4  1  1
  3  2  1  0
  5  3  1  0
  6  5  2  0
  8  9  1  0
  8  7  1  0
  9 11  1  0
  9 10  1  1
 11 13  1  0
 11 12  1  6
 12  5  1  0
 13 20  1  0
 14 13  2  0
 15 16  1  0
 17 19  1  0
 17 16  1  0
 17 18  1  1
 19 21  1  0
 19 20  1  6
 21 23  2  0
 21 22  1  0
M  END
$$$$
