SII.pdb
     RDKit          3D

 23 22  0  0  1  0  0  0  0  0999 V2000
   28.3847  -16.4658  -20.5569 O   0  0  0  0  0  0  0  0  0  0  0  0
   27.0234  -16.6322  -20.4354 C   0  0  0  0  0  0  0  0  0  0  0  0
   26.7562  -17.7335  -19.4073 C   0  0  2  0  0  0  0  0  0  0  0  0
   27.1251  -19.0278  -19.9425 N   0  0  0  0  0  0  0  0  0  0  0  0
   25.3172  -17.7539  -19.0806 C   0  0  0  0  0  0  0  0  0  0  0  0
   24.4958  -18.2061  -19.9064 O   0  0  0  0  0  0  0  0  0  0  0  0
   23.0090  -19.8233  -14.8141 C   0  0  0  0  0  0  0  0  0  0  0  0
   23.4205  -19.3019  -16.1630 C   0  0  0  0  0  0  0  0  0  0  0  0
   23.0860  -17.8272  -16.2292 C   0  0  2  0  0  0  0  0  0  0  0  0
   21.5958  -17.6748  -16.0311 C   0  0  0  0  0  0  0  0  0  0  0  0
   23.4088  -17.2521  -17.5980 C   0  0  2  0  0  0  0  0  0  0  0  0
   24.8279  -17.2661  -17.8327 N   0  0  0  0  0  0  0  0  0  0  0  0
   22.8970  -15.8716  -17.7326 C   0  0  0  0  0  0  0  0  0  0  0  0
   23.3028  -14.9676  -16.9612 O   0  0  0  0  0  0  0  0  0  0  0  0
   21.3544  -11.6877  -21.6901 C   0  0  0  0  0  0  0  0  0  0  0  0
   21.0414  -12.2467  -20.3110 C   0  0  0  0  0  0  0  0  0  0  0  0
   21.6404  -13.6025  -20.1107 C   0  0  2  0  0  0  0  0  0  0  0  0
   21.3433  -14.5335  -21.2657 C   0  0  0  0  0  0  0  0  0  0  0  0
   21.3403  -14.2006  -18.7836 C   0  0  2  0  0  0  0  0  0  0  0  0
   21.9456  -15.5431  -18.7272 N   0  0  0  0  0  0  0  0  0  0  0  0
   19.9348  -14.2707  -18.3957 C   0  0  0  0  0  0  0  0  0  0  0  0
   19.3145  -13.1893  -17.8036 O   0  0  0  0  0  0  0  0  0  0  0  0
   19.2442  -15.3037  -18.5817 O   0  0  0  0  0  0  0  0  0  0  0  0
  2  1  1  0
  3  4  1  6
  3  2  1  0
  5  3  1  0
  6  5  2  0
  8  9  1  0
  8  7  1  0
  9 11  1  0
  9 10  1  6
 11 13  1  0
 11 12  1  1
 12  5  1  0
 13 20  1  0
 14 13  2  0
 15 16  1  0
 17 19  1  0
 17 16  1  0
 17 18  1  6
 19 21  1  0
 19 20  1  6
 21 23  2  0
 21 22  1  0
M  END
$$$$
