SII.pdb
     RDKit          3D

 23 22  0  0  1  0  0  0  0  0999 V2000
   19.4994  -15.3392  -18.8328 O   0  0  0  0  0  0  0  0  0  0  0  0
   19.9757  -14.4595  -17.8867 C   0  0  0  0  0  0  0  0  0  0  0  0
   20.9937  -15.1907  -17.0092 C   0  0  2  0  0  0  0  0  0  0  0  0
   20.3259  -16.1311  -16.1330 N   0  0  0  0  0  0  0  0  0  0  0  0
   21.7145  -14.2065  -16.1788 C   0  0  0  0  0  0  0  0  0  0  0  0
   21.1652  -13.7222  -15.1665 O   0  0  0  0  0  0  0  0  0  0  0  0
   27.0832  -14.4940  -15.3447 C   0  0  0  0  0  0  0  0  0  0  0  0
   25.5923  -14.3565  -15.2067 C   0  0  0  0  0  0  0  0  0  0  0  0
   25.1904  -12.9821  -15.6975 C   0  0  2  0  0  0  0  0  0  0  0  0
   25.7705  -11.9575  -14.7505 C   0  0  0  0  0  0  0  0  0  0  0  0
   23.6815  -12.8072  -15.6644 C   0  0  2  0  0  0  0  0  0  0  0  0
   23.0385  -13.7850  -16.5008 N   0  0  0  0  0  0  0  0  0  0  0  0
   23.2907  -11.4489  -16.0982 C   0  0  0  0  0  0  0  0  0  0  0  0
   23.8233  -10.9293  -17.1098 O   0  0  0  0  0  0  0  0  0  0  0  0
   18.7453   -8.1017  -17.4940 C   0  0  0  0  0  0  0  0  0  0  0  0
   20.1179   -8.0209  -16.8444 C   0  0  0  0  0  0  0  0  0  0  0  0
   20.6222   -9.3693  -16.4388 C   0  0  2  0  0  0  0  0  0  0  0  0
   19.5931  -10.1496  -15.6506 C   0  0  0  0  0  0  0  0  0  0  0  0
   21.9587   -9.3393  -15.7893 C   0  0  2  0  0  0  0  0  0  0  0  0
   22.3147  -10.7116  -15.3868 N   0  0  0  0  0  0  0  0  0  0  0  0
   22.1211   -8.4301  -14.6589 C   0  0  0  0  0  0  0  0  0  0  0  0
   22.2608   -8.9209  -13.3767 O   0  0  0  0  0  0  0  0  0  0  0  0
   22.1388   -7.1825  -14.8062 O   0  0  0  0  0  0  0  0  0  0  0  0
  2  1  1  0
  3  4  1  1
  3  2  1  0
  5  3  1  0
  6  5  2  0
  8  9  1  0
  8  7  1  0
  9 11  1  0
  9 10  1  1
 11 13  1  0
 11 12  1  6
 12  5  1  0
 13 20  1  0
 14 13  2  0
 15 16  1  0
 17 19  1  0
 17 16  1  0
 17 18  1  1
 19 21  1  0
 19 20  1  1
 21 23  2  0
 21 22  1  0
M  END
$$$$
