LLM.pdb
     RDKit          3D

 25 24  0  0  1  0  0  0  0  0999 V2000
    8.5629  -13.5051   18.0945 C   0  0  0  0  0  0  0  0  0  0  0  0
    7.6100  -13.2765   19.2431 C   0  0  2  0  0  0  0  0  0  0  0  0
    6.9946  -11.9157   19.1749 C   0  0  0  0  0  0  0  0  0  0  0  0
    8.2240  -13.5983   20.5645 C   0  0  0  0  0  0  0  0  0  0  0  0
    8.8725  -14.9378   20.6497 C   0  0  2  0  0  0  0  0  0  0  0  0
    8.2409  -15.9483   19.8274 N   0  0  0  0  0  0  0  0  0  0  0  0
    8.7893  -15.4181   22.0694 C   0  0  0  0  0  0  0  0  0  0  0  0
    9.1574  -14.6948   23.0272 O   0  0  0  0  0  0  0  0  0  0  0  0
    6.9063  -20.3837   25.4192 C   0  0  0  0  0  0  0  0  0  0  0  0
    7.2709  -18.9426   25.3274 C   0  0  2  0  0  0  0  0  0  0  0  0
    6.2116  -18.1584   26.1223 C   0  0  0  0  0  0  0  0  0  0  0  0
    7.3057  -18.3388   23.9816 C   0  0  0  0  0  0  0  0  0  0  0  0
    8.1970  -17.1691   23.7550 C   0  0  2  0  0  0  0  0  0  0  0  0
    8.2934  -16.7064   22.3977 N   0  0  0  0  0  0  0  0  0  0  0  0
    9.5378  -17.3412   24.3805 C   0  0  0  0  0  0  0  0  0  0  0  0
   10.4254  -17.9909   23.7705 O   0  0  0  0  0  0  0  0  0  0  0  0
    9.8881  -13.1822   29.9390 C   0  0  0  0  0  0  0  0  0  0  0  0
   11.0856  -13.5807   28.6391 S   0  0  0  0  0  0  0  0  0  0  0  0
   10.6670  -15.2019   27.8961 C   0  0  0  0  0  0  0  0  0  0  0  0
   11.6203  -15.5370   26.7856 C   0  0  0  0  0  0  0  0  0  0  0  0
   11.2784  -16.8357   26.1541 C   0  0  2  0  0  0  0  0  0  0  0  0
    9.8858  -16.8098   25.6453 N   0  0  0  0  0  0  0  0  0  0  0  0
   11.3555  -17.9402   27.1124 C   0  0  0  0  0  0  0  0  0  0  0  0
   12.4770  -18.3566   27.4913 O   0  0  0  0  0  0  0  0  0  0  0  0
   10.2469  -18.5619   27.6371 O   0  0  0  0  0  0  0  0  0  0  0  0
  2  1  1  6
  2  3  1  0
  4  2  1  0
  4  5  1  0
  5  7  1  0
  5  6  1  6
  7  8  2  0
 10  9  1  6
 10 12  1  0
 11 10  1  0
 13 12  1  6
 14 13  1  0
 14  7  1  0
 15 16  2  0
 15 13  1  0
 17 18  1  0
 18 19  1  0
 19 20  1  0
 21 20  1  1
 21 23  1  0
 21 22  1  0
 22 15  1  0
 23 25  1  0
 24 23  2  0
M  END
$$$$
