LLM.pdb
     RDKit          3D

 25 24  0  0  1  0  0  0  0  0999 V2000
    5.4514  -20.4841   22.5194 C   0  0  0  0  0  0  0  0  0  0  0  0
    6.9454  -20.6428   22.3700 C   0  0  2  0  0  0  0  0  0  0  0  0
    7.4397  -21.8457   23.1076 C   0  0  0  0  0  0  0  0  0  0  0  0
    7.6859  -19.3879   22.6922 C   0  0  0  0  0  0  0  0  0  0  0  0
    7.1797  -18.1634   22.0094 C   0  0  2  0  0  0  0  0  0  0  0  0
    7.2304  -18.2347   20.5641 N   0  0  0  0  0  0  0  0  0  0  0  0
    8.0373  -17.0011   22.4177 C   0  0  0  0  0  0  0  0  0  0  0  0
    9.1802  -16.8276   21.9281 O   0  0  0  0  0  0  0  0  0  0  0  0
    5.9915  -14.5726   25.8691 C   0  0  0  0  0  0  0  0  0  0  0  0
    7.0917  -13.6349   25.5108 C   0  0  2  0  0  0  0  0  0  0  0  0
    6.5544  -12.2082   25.7221 C   0  0  0  0  0  0  0  0  0  0  0  0
    7.5965  -13.6834   24.1252 C   0  0  0  0  0  0  0  0  0  0  0  0
    8.3734  -14.8783   23.6979 C   0  0  2  0  0  0  0  0  0  0  0  0
    7.6015  -16.0460   23.3724 N   0  0  0  0  0  0  0  0  0  0  0  0
    9.4951  -15.1938   24.6257 C   0  0  0  0  0  0  0  0  0  0  0  0
   10.4268  -14.3621   24.7740 O   0  0  0  0  0  0  0  0  0  0  0  0
    9.9417  -13.7178   29.7588 C   0  0  0  0  0  0  0  0  0  0  0  0
   11.1087  -13.8667   28.3810 S   0  0  0  0  0  0  0  0  0  0  0  0
   11.6294  -15.6141   28.2049 C   0  0  0  0  0  0  0  0  0  0  0  0
   10.5231  -16.4389   27.6133 C   0  0  0  0  0  0  0  0  0  0  0  0
   10.7759  -16.7337   26.1810 C   0  0  2  0  0  0  0  0  0  0  0  0
    9.5829  -16.3959   25.3676 N   0  0  0  0  0  0  0  0  0  0  0  0
   11.0460  -18.1559   25.9608 C   0  0  0  0  0  0  0  0  0  0  0  0
   10.1857  -18.8706   25.3919 O   0  0  0  0  0  0  0  0  0  0  0  0
   12.2144  -18.7700   26.3463 O   0  0  0  0  0  0  0  0  0  0  0  0
  2  1  1  1
  2  3  1  0
  4  2  1  0
  4  5  1  0
  5  7  1  0
  5  6  1  6
  7  8  2  0
 10  9  1  6
 10 12  1  0
 11 10  1  0
 13 12  1  1
 14 13  1  0
 14  7  1  0
 15 16  2  0
 15 13  1  0
 17 18  1  0
 18 19  1  0
 19 20  1  0
 21 20  1  1
 21 23  1  0
 21 22  1  0
 22 15  1  0
 23 25  1  0
 24 23  2  0
M  END
$$$$
