LLM.pdb
     RDKit          3D

 25 24  0  0  1  0  0  0  0  0999 V2000
    8.7664  -14.5635   17.7507 C   0  0  0  0  0  0  0  0  0  0  0  0
    7.8106  -13.8375   18.6667 C   0  0  2  0  0  0  0  0  0  0  0  0
    7.4169  -12.5115   18.0991 C   0  0  0  0  0  0  0  0  0  0  0  0
    8.3086  -13.7713   20.0718 C   0  0  0  0  0  0  0  0  0  0  0  0
    8.6839  -15.0837   20.6709 C   0  0  2  0  0  0  0  0  0  0  0  0
    7.6114  -16.0563   20.6708 N   0  0  0  0  0  0  0  0  0  0  0  0
    9.0685  -14.8605   22.1045 C   0  0  0  0  0  0  0  0  0  0  0  0
   10.1045  -14.2216   22.4120 O   0  0  0  0  0  0  0  0  0  0  0  0
    7.8178  -12.1777   25.6142 C   0  0  0  0  0  0  0  0  0  0  0  0
    6.8830  -13.2896   25.2852 C   0  0  2  0  0  0  0  0  0  0  0  0
    5.7091  -13.1994   26.2764 C   0  0  0  0  0  0  0  0  0  0  0  0
    7.4057  -14.6653   25.3906 C   0  0  0  0  0  0  0  0  0  0  0  0
    8.5738  -15.0434   24.5500 C   0  0  2  0  0  0  0  0  0  0  0  0
    8.2847  -15.3579   23.1778 N   0  0  0  0  0  0  0  0  0  0  0  0
    9.4281  -16.0819   25.1905 C   0  0  0  0  0  0  0  0  0  0  0  0
    9.6968  -17.1362   24.5595 O   0  0  0  0  0  0  0  0  0  0  0  0
   10.2137  -14.1331   29.8544 C   0  0  0  0  0  0  0  0  0  0  0  0
   11.9973  -14.4027   29.6857 S   0  0  0  0  0  0  0  0  0  0  0  0
   12.2980  -15.8990   28.6727 C   0  0  0  0  0  0  0  0  0  0  0  0
   11.0422  -16.7118   28.5436 C   0  0  0  0  0  0  0  0  0  0  0  0
   10.7565  -17.0424   27.1254 C   0  0  2  0  0  0  0  0  0  0  0  0
    9.9689  -15.9570   26.4925 N   0  0  0  0  0  0  0  0  0  0  0  0
    9.9600  -18.2652   27.0048 C   0  0  0  0  0  0  0  0  0  0  0  0
    8.7105  -18.2048   27.1034 O   0  0  0  0  0  0  0  0  0  0  0  0
   10.5111  -19.5051   26.7819 O   0  0  0  0  0  0  0  0  0  0  0  0
  2  1  1  6
  2  3  1  0
  4  2  1  0
  4  5  1  0
  5  7  1  0
  5  6  1  1
  7  8  2  0
 10  9  1  1
 10 12  1  0
 11 10  1  0
 13 12  1  1
 14 13  1  0
 14  7  1  0
 15 16  2  0
 15 13  1  0
 17 18  1  0
 18 19  1  0
 19 20  1  0
 21 20  1  1
 21 23  1  0
 21 22  1  0
 22 15  1  0
 23 25  1  0
 24 23  2  0
M  END
$$$$
