LLM.pdb
     RDKit          3D

 25 24  0  0  1  0  0  0  0  0999 V2000
    8.1718  -17.6777   17.1446 C   0  0  0  0  0  0  0  0  0  0  0  0
    8.0143  -18.1714   18.5627 C   0  0  2  0  0  0  0  0  0  0  0  0
    6.6251  -18.6630   18.8149 C   0  0  0  0  0  0  0  0  0  0  0  0
    8.4978  -17.1796   19.5674 C   0  0  0  0  0  0  0  0  0  0  0  0
    8.4539  -17.6431   20.9834 C   0  0  2  0  0  0  0  0  0  0  0  0
    7.1450  -18.0867   21.4148 N   0  0  0  0  0  0  0  0  0  0  0  0
    8.8393  -16.4965   21.8723 C   0  0  0  0  0  0  0  0  0  0  0  0
    9.8843  -15.8319   21.6665 O   0  0  0  0  0  0  0  0  0  0  0  0
    7.9446  -12.1820   24.7396 C   0  0  0  0  0  0  0  0  0  0  0  0
    6.9436  -13.2837   24.7883 C   0  0  2  0  0  0  0  0  0  0  0  0
    6.0688  -13.0430   26.0315 C   0  0  0  0  0  0  0  0  0  0  0  0
    7.4596  -14.6607   24.9087 C   0  0  0  0  0  0  0  0  0  0  0  0
    8.4823  -15.1199   23.9303 C   0  0  2  0  0  0  0  0  0  0  0  0
    8.0462  -16.1090   22.9833 N   0  0  0  0  0  0  0  0  0  0  0  0
    9.7668  -15.5011   24.5810 C   0  0  0  0  0  0  0  0  0  0  0  0
   10.7712  -14.7555   24.4495 O   0  0  0  0  0  0  0  0  0  0  0  0
   10.6162  -13.1147   28.8228 C   0  0  0  0  0  0  0  0  0  0  0  0
   10.6791  -14.7579   29.5831 S   0  0  0  0  0  0  0  0  0  0  0  0
   10.3908  -16.0368   28.3037 C   0  0  0  0  0  0  0  0  0  0  0  0
   11.3533  -15.8711   27.1634 C   0  0  0  0  0  0  0  0  0  0  0  0
   11.1660  -16.9298   26.1405 C   0  0  2  0  0  0  0  0  0  0  0  0
    9.9346  -16.6742   25.3548 N   0  0  0  0  0  0  0  0  0  0  0  0
   11.0082  -18.2509   26.7519 C   0  0  0  0  0  0  0  0  0  0  0  0
   11.9617  -18.7573   27.3914 O   0  0  0  0  0  0  0  0  0  0  0  0
    9.8496  -18.9868   26.6684 O   0  0  0  0  0  0  0  0  0  0  0  0
  2  1  1  6
  2  3  1  0
  4  2  1  0
  4  5  1  0
  5  7  1  0
  5  6  1  1
  7  8  2  0
 10  9  1  1
 10 12  1  0
 11 10  1  0
 13 12  1  1
 14 13  1  0
 14  7  1  0
 15 16  2  0
 15 13  1  0
 17 18  1  0
 18 19  1  0
 19 20  1  0
 21 20  1  1
 21 23  1  0
 21 22  1  0
 22 15  1  0
 23 25  1  0
 24 23  2  0
M  END
$$$$
