LLM.pdb
     RDKit          3D

 25 24  0  0  1  0  0  0  0  0999 V2000
    8.1641  -19.2676   18.0348 C   0  0  0  0  0  0  0  0  0  0  0  0
    7.3658  -18.9918   19.2864 C   0  0  2  0  0  0  0  0  0  0  0  0
    5.8971  -19.0075   19.0076 C   0  0  0  0  0  0  0  0  0  0  0  0
    7.8337  -17.7687   20.0017 C   0  0  0  0  0  0  0  0  0  0  0  0
    8.0664  -17.9427   21.4637 C   0  0  2  0  0  0  0  0  0  0  0  0
    6.8556  -18.1544   22.2289 N   0  0  0  0  0  0  0  0  0  0  0  0
    8.7048  -16.6931   21.9967 C   0  0  0  0  0  0  0  0  0  0  0  0
    9.8204  -16.2985   21.5775 O   0  0  0  0  0  0  0  0  0  0  0  0
    5.7460  -13.9015   25.6709 C   0  0  0  0  0  0  0  0  0  0  0  0
    7.2169  -14.0272   25.4735 C   0  0  2  0  0  0  0  0  0  0  0  0
    7.8874  -13.0316   26.4368 C   0  0  0  0  0  0  0  0  0  0  0  0
    7.7470  -13.7213   24.1310 C   0  0  0  0  0  0  0  0  0  0  0  0
    8.6798  -14.6946   23.5013 C   0  0  2  0  0  0  0  0  0  0  0  0
    8.0827  -15.9001   22.9955 N   0  0  0  0  0  0  0  0  0  0  0  0
    9.8708  -14.9775   24.3498 C   0  0  0  0  0  0  0  0  0  0  0  0
   10.6443  -14.0363   24.6626 O   0  0  0  0  0  0  0  0  0  0  0  0
   11.1667  -13.2679   28.7119 C   0  0  0  0  0  0  0  0  0  0  0  0
   11.9713  -14.8810   28.8934 S   0  0  0  0  0  0  0  0  0  0  0  0
   10.7551  -16.2123   28.5715 C   0  0  0  0  0  0  0  0  0  0  0  0
   10.0684  -15.9946   27.2541 C   0  0  0  0  0  0  0  0  0  0  0  0
   10.9077  -16.4638   26.1237 C   0  0  2  0  0  0  0  0  0  0  0  0
   10.1965  -16.2656   24.8377 N   0  0  0  0  0  0  0  0  0  0  0  0
   11.2016  -17.8947   26.2256 C   0  0  0  0  0  0  0  0  0  0  0  0
   11.9512  -18.3111   27.1417 O   0  0  0  0  0  0  0  0  0  0  0  0
   10.6914  -18.8327   25.3592 O   0  0  0  0  0  0  0  0  0  0  0  0
  2  1  1  6
  2  3  1  0
  4  2  1  0
  4  5  1  0
  5  7  1  0
  5  6  1  1
  7  8  2  0
 10  9  1  6
 10 12  1  0
 11 10  1  0
 13 12  1  1
 14 13  1  0
 14  7  1  0
 15 16  2  0
 15 13  1  0
 17 18  1  0
 18 19  1  0
 19 20  1  0
 21 20  1  1
 21 23  1  0
 21 22  1  0
 22 15  1  0
 23 25  1  0
 24 23  2  0
M  END
$$$$
