LLM.pdb
     RDKit          3D

 25 24  0  0  1  0  0  0  0  0999 V2000
    8.3291  -19.2731   18.4970 C   0  0  0  0  0  0  0  0  0  0  0  0
    7.6088  -17.9466   18.5324 C   0  0  2  0  0  0  0  0  0  0  0  0
    7.4425  -17.3826   17.1578 C   0  0  0  0  0  0  0  0  0  0  0  0
    8.2163  -16.9951   19.5083 C   0  0  0  0  0  0  0  0  0  0  0  0
    8.4247  -17.5436   20.8785 C   0  0  2  0  0  0  0  0  0  0  0  0
    7.2242  -18.0811   21.4837 N   0  0  0  0  0  0  0  0  0  0  0  0
    8.9009  -16.4331   21.7691 C   0  0  0  0  0  0  0  0  0  0  0  0
    9.9518  -15.7954   21.5144 O   0  0  0  0  0  0  0  0  0  0  0  0
    7.6552  -12.1075   24.2556 C   0  0  0  0  0  0  0  0  0  0  0  0
    6.9209  -13.3737   24.5304 C   0  0  2  0  0  0  0  0  0  0  0  0
    6.0138  -13.1136   25.7463 C   0  0  0  0  0  0  0  0  0  0  0  0
    7.7269  -14.5632   24.8655 C   0  0  0  0  0  0  0  0  0  0  0  0
    8.6958  -15.0675   23.8550 C   0  0  2  0  0  0  0  0  0  0  0  0
    8.1909  -16.0511   22.9368 N   0  0  0  0  0  0  0  0  0  0  0  0
    9.9903  -15.4855   24.4616 C   0  0  0  0  0  0  0  0  0  0  0  0
   10.9675  -14.6940   24.4388 O   0  0  0  0  0  0  0  0  0  0  0  0
    9.3565  -13.7195   28.8673 C   0  0  0  0  0  0  0  0  0  0  0  0
   10.6442  -14.7470   29.6214 S   0  0  0  0  0  0  0  0  0  0  0  0
   10.6791  -16.3852   28.8026 C   0  0  0  0  0  0  0  0  0  0  0  0
    9.9988  -16.3231   27.4656 C   0  0  0  0  0  0  0  0  0  0  0  0
   10.8630  -16.8769   26.3938 C   0  0  2  0  0  0  0  0  0  0  0  0
   10.1972  -16.7439   25.0755 N   0  0  0  0  0  0  0  0  0  0  0  0
   11.1227  -18.3044   26.5917 C   0  0  0  0  0  0  0  0  0  0  0  0
   10.5803  -19.1451   25.8343 O   0  0  0  0  0  0  0  0  0  0  0  0
   11.9469  -18.7910   27.5789 O   0  0  0  0  0  0  0  0  0  0  0  0
  2  1  1  6
  2  3  1  0
  4  2  1  0
  4  5  1  0
  5  7  1  0
  5  6  1  1
  7  8  2  0
 10  9  1  1
 10 12  1  0
 11 10  1  0
 13 12  1  1
 14 13  1  0
 14  7  1  0
 15 16  2  0
 15 13  1  0
 17 18  1  0
 18 19  1  0
 19 20  1  0
 21 20  1  1
 21 23  1  0
 21 22  1  0
 22 15  1  0
 23 25  1  0
 24 23  2  0
M  END
$$$$
