LLM.pdb
     RDKit          3D

 25 24  0  0  1  0  0  0  0  0999 V2000
    9.4222  -19.2718   18.2405 C   0  0  0  0  0  0  0  0  0  0  0  0
    8.5914  -18.0192   18.0981 C   0  0  2  0  0  0  0  0  0  0  0  0
    8.6731  -17.4688   16.7104 C   0  0  0  0  0  0  0  0  0  0  0  0
    8.8839  -17.0180   19.1652 C   0  0  0  0  0  0  0  0  0  0  0  0
    8.7754  -17.5323   20.5600 C   0  0  2  0  0  0  0  0  0  0  0  0
    7.4827  -18.1032   20.8755 N   0  0  0  0  0  0  0  0  0  0  0  0
    8.9884  -16.3880   21.5078 C   0  0  0  0  0  0  0  0  0  0  0  0
   10.0465  -15.7127   21.4905 O   0  0  0  0  0  0  0  0  0  0  0  0
    6.1349  -13.3863   26.2813 C   0  0  0  0  0  0  0  0  0  0  0  0
    7.2678  -13.5997   25.3383 C   0  0  2  0  0  0  0  0  0  0  0  0
    7.5493  -12.2476   24.6590 C   0  0  0  0  0  0  0  0  0  0  0  0
    7.0655  -14.5734   24.2484 C   0  0  0  0  0  0  0  0  0  0  0  0
    8.2472  -14.9926   23.4473 C   0  0  2  0  0  0  0  0  0  0  0  0
    8.0099  -16.0148   22.4653 N   0  0  0  0  0  0  0  0  0  0  0  0
    9.4334  -15.2996   24.2942 C   0  0  0  0  0  0  0  0  0  0  0  0
   10.4797  -14.6138   24.1640 O   0  0  0  0  0  0  0  0  0  0  0  0
   11.0299  -12.8414   29.0113 C   0  0  0  0  0  0  0  0  0  0  0  0
   11.2641  -14.4821   29.7431 S   0  0  0  0  0  0  0  0  0  0  0  0
   11.4421  -15.7276   28.4117 C   0  0  0  0  0  0  0  0  0  0  0  0
   10.3841  -15.5367   27.3636 C   0  0  0  0  0  0  0  0  0  0  0  0
   10.5700  -16.4775   26.2311 C   0  0  2  0  0  0  0  0  0  0  0  0
    9.4606  -16.3364   25.2573 N   0  0  0  0  0  0  0  0  0  0  0  0
   10.5616  -17.8716   26.6790 C   0  0  0  0  0  0  0  0  0  0  0  0
    9.5836  -18.6073   26.4014 O   0  0  0  0  0  0  0  0  0  0  0  0
   11.5862  -18.4381   27.4002 O   0  0  0  0  0  0  0  0  0  0  0  0
  2  1  1  6
  2  3  1  0
  4  2  1  0
  4  5  1  0
  5  7  1  0
  5  6  1  6
  7  8  2  0
 10  9  1  6
 10 12  1  0
 11 10  1  0
 13 12  1  1
 14 13  1  0
 14  7  1  0
 15 16  2  0
 15 13  1  0
 17 18  1  0
 18 19  1  0
 19 20  1  0
 21 20  1  1
 21 23  1  0
 21 22  1  0
 22 15  1  0
 23 25  1  0
 24 23  2  0
M  END
$$$$
