LLM.pdb
     RDKit          3D

 25 24  0  0  1  0  0  0  0  0999 V2000
    9.3823  -19.7033   18.7350 C   0  0  0  0  0  0  0  0  0  0  0  0
    9.0363  -18.2464   18.5417 C   0  0  2  0  0  0  0  0  0  0  0  0
    9.4178  -17.7748   17.1752 C   0  0  0  0  0  0  0  0  0  0  0  0
    9.5548  -17.3871   19.6459 C   0  0  0  0  0  0  0  0  0  0  0  0
    9.1353  -17.7982   21.0159 C   0  0  2  0  0  0  0  0  0  0  0  0
    7.7410  -18.1759   21.1135 N   0  0  0  0  0  0  0  0  0  0  0  0
    9.3373  -16.6367   21.9449 C   0  0  0  0  0  0  0  0  0  0  0  0
   10.4307  -16.0220   21.9955 O   0  0  0  0  0  0  0  0  0  0  0  0
    6.3683  -13.4646   26.5343 C   0  0  0  0  0  0  0  0  0  0  0  0
    7.5065  -13.6865   25.5997 C   0  0  2  0  0  0  0  0  0  0  0  0
    7.7461  -12.3590   24.8586 C   0  0  0  0  0  0  0  0  0  0  0  0
    7.3331  -14.7148   24.5560 C   0  0  0  0  0  0  0  0  0  0  0  0
    8.5342  -15.1656   23.8021 C   0  0  2  0  0  0  0  0  0  0  0  0
    8.3081  -16.1782   22.8076 N   0  0  0  0  0  0  0  0  0  0  0  0
    9.6757  -15.5084   24.6955 C   0  0  0  0  0  0  0  0  0  0  0  0
   10.6367  -14.7046   24.8060 O   0  0  0  0  0  0  0  0  0  0  0  0
   10.0554  -12.6211   28.5927 C   0  0  0  0  0  0  0  0  0  0  0  0
   10.7519  -14.0433   29.4728 S   0  0  0  0  0  0  0  0  0  0  0  0
   11.4034  -15.2541   28.2625 C   0  0  0  0  0  0  0  0  0  0  0  0
   10.3003  -16.1321   27.7460 C   0  0  0  0  0  0  0  0  0  0  0  0
   10.7301  -16.8881   26.5435 C   0  0  2  0  0  0  0  0  0  0  0  0
    9.7512  -16.7069   25.4445 N   0  0  0  0  0  0  0  0  0  0  0  0
   10.8050  -18.3266   26.8070 C   0  0  0  0  0  0  0  0  0  0  0  0
    9.9271  -18.8745   27.5167 O   0  0  0  0  0  0  0  0  0  0  0  0
   11.8013  -19.1333   26.3096 O   0  0  0  0  0  0  0  0  0  0  0  0
  2  1  1  1
  2  3  1  0
  4  2  1  0
  4  5  1  0
  5  7  1  0
  5  6  1  6
  7  8  2  0
 10  9  1  6
 10 12  1  0
 11 10  1  0
 13 12  1  1
 14 13  1  0
 14  7  1  0
 15 16  2  0
 15 13  1  0
 17 18  1  0
 18 19  1  0
 19 20  1  0
 21 20  1  1
 21 23  1  0
 21 22  1  0
 22 15  1  0
 23 25  1  0
 24 23  2  0
M  END
$$$$
