LLM.pdb
     RDKit          3D

 25 24  0  0  1  0  0  0  0  0999 V2000
    8.0190  -19.5244   19.3887 C   0  0  0  0  0  0  0  0  0  0  0  0
    7.3517  -18.1706   19.3506 C   0  0  2  0  0  0  0  0  0  0  0  0
    7.1969  -17.6814   17.9463 C   0  0  0  0  0  0  0  0  0  0  0  0
    8.0039  -17.1888   20.2657 C   0  0  0  0  0  0  0  0  0  0  0  0
    8.2125  -17.6689   21.6613 C   0  0  2  0  0  0  0  0  0  0  0  0
    6.9840  -17.9465   22.3755 N   0  0  0  0  0  0  0  0  0  0  0  0
    8.9307  -16.5990   22.4311 C   0  0  0  0  0  0  0  0  0  0  0  0
   10.1155  -16.2830   22.1620 O   0  0  0  0  0  0  0  0  0  0  0  0
    6.7856  -12.4920   23.4095 C   0  0  0  0  0  0  0  0  0  0  0  0
    6.7858  -13.5513   24.4564 C   0  0  2  0  0  0  0  0  0  0  0  0
    5.9577  -13.0167   25.6385 C   0  0  0  0  0  0  0  0  0  0  0  0
    8.0922  -13.9484   25.0156 C   0  0  0  0  0  0  0  0  0  0  0  0
    8.9700  -14.8318   24.2013 C   0  0  2  0  0  0  0  0  0  0  0  0
    8.3097  -15.8954   23.4955 N   0  0  0  0  0  0  0  0  0  0  0  0
   10.1545  -15.3198   24.9612 C   0  0  0  0  0  0  0  0  0  0  0  0
   11.1795  -14.5951   25.0400 O   0  0  0  0  0  0  0  0  0  0  0  0
   11.6299  -14.0798   30.0306 C   0  0  0  0  0  0  0  0  0  0  0  0
   10.0514  -14.9545   29.8705 S   0  0  0  0  0  0  0  0  0  0  0  0
   10.2226  -16.3100   28.6504 C   0  0  0  0  0  0  0  0  0  0  0  0
   11.3437  -16.0226   27.6939 C   0  0  0  0  0  0  0  0  0  0  0  0
   11.3098  -16.9429   26.5302 C   0  0  2  0  0  0  0  0  0  0  0  0
   10.2030  -16.5743   25.6146 N   0  0  0  0  0  0  0  0  0  0  0  0
   11.0712  -18.3276   26.9422 C   0  0  0  0  0  0  0  0  0  0  0  0
   11.9142  -18.9153   27.6623 O   0  0  0  0  0  0  0  0  0  0  0  0
    9.9511  -19.0392   26.5818 O   0  0  0  0  0  0  0  0  0  0  0  0
  2  1  1  6
  2  3  1  0
  4  2  1  0
  4  5  1  0
  5  7  1  0
  5  6  1  1
  7  8  2  0
 10  9  1  6
 10 12  1  0
 11 10  1  0
 13 12  1  1
 14 13  1  0
 14  7  1  0
 15 16  2  0
 15 13  1  0
 17 18  1  0
 18 19  1  0
 19 20  1  0
 21 20  1  1
 21 23  1  0
 21 22  1  0
 22 15  1  0
 23 25  1  0
 24 23  2  0
M  END
$$$$
