LLM.pdb
     RDKit          3D

 25 24  0  0  1  0  0  0  0  0999 V2000
    7.9294  -12.9275   17.3136 C   0  0  0  0  0  0  0  0  0  0  0  0
    8.2469  -14.1778   18.0982 C   0  0  2  0  0  0  0  0  0  0  0  0
    7.3653  -15.3138   17.6886 C   0  0  0  0  0  0  0  0  0  0  0  0
    8.2763  -13.9339   19.5700 C   0  0  0  0  0  0  0  0  0  0  0  0
    8.6774  -15.1078   20.3964 C   0  0  2  0  0  0  0  0  0  0  0  0
    7.6187  -16.0756   20.5929 N   0  0  0  0  0  0  0  0  0  0  0  0
    9.0769  -14.6179   21.7579 C   0  0  0  0  0  0  0  0  0  0  0  0
   10.1131  -13.9298   21.9274 O   0  0  0  0  0  0  0  0  0  0  0  0
    7.3336  -11.8504   25.4035 C   0  0  0  0  0  0  0  0  0  0  0  0
    6.7160  -13.1856   25.1715 C   0  0  2  0  0  0  0  0  0  0  0  0
    5.6608  -13.3914   26.2729 C   0  0  0  0  0  0  0  0  0  0  0  0
    7.6059  -14.3610   25.2296 C   0  0  0  0  0  0  0  0  0  0  0  0
    8.6995  -14.4693   24.2264 C   0  0  2  0  0  0  0  0  0  0  0  0
    8.3076  -14.9068   22.9148 N   0  0  0  0  0  0  0  0  0  0  0  0
    9.8734  -15.2296   24.7388 C   0  0  0  0  0  0  0  0  0  0  0  0
   11.0315  -14.7735   24.5584 O   0  0  0  0  0  0  0  0  0  0  0  0
   10.8612  -13.8000   29.3233 C   0  0  0  0  0  0  0  0  0  0  0  0
    9.9764  -15.2876   29.8585 S   0  0  0  0  0  0  0  0  0  0  0  0
    9.9981  -16.5309   28.5134 C   0  0  0  0  0  0  0  0  0  0  0  0
   11.0394  -16.1840   27.4889 C   0  0  0  0  0  0  0  0  0  0  0  0
   10.8765  -16.9957   26.2572 C   0  0  2  0  0  0  0  0  0  0  0  0
    9.7681  -16.4599   25.4306 N   0  0  0  0  0  0  0  0  0  0  0  0
   10.5363  -18.3860   26.5666 C   0  0  0  0  0  0  0  0  0  0  0  0
   11.3862  -19.1250   27.1197 O   0  0  0  0  0  0  0  0  0  0  0  0
    9.3115  -18.9434   26.2836 O   0  0  0  0  0  0  0  0  0  0  0  0
  2  1  1  6
  2  3  1  0
  4  2  1  0
  4  5  1  0
  5  7  1  0
  5  6  1  1
  7  8  2  0
 10  9  1  1
 10 12  1  0
 11 10  1  0
 13 12  1  1
 14 13  1  0
 14  7  1  0
 15 16  2  0
 15 13  1  0
 17 18  1  0
 18 19  1  0
 19 20  1  0
 21 20  1  1
 21 23  1  0
 21 22  1  0
 22 15  1  0
 23 25  1  0
 24 23  2  0
M  END
$$$$
