LLM.pdb
     RDKit          3D

 25 24  0  0  1  0  0  0  0  0999 V2000
    7.8332  -16.6209   17.2848 C   0  0  0  0  0  0  0  0  0  0  0  0
    7.8361  -17.3240   18.6209 C   0  0  2  0  0  0  0  0  0  0  0  0
    6.4711  -17.8201   18.9759 C   0  0  0  0  0  0  0  0  0  0  0  0
    8.4821  -16.5093   19.6912 C   0  0  0  0  0  0  0  0  0  0  0  0
    8.6160  -17.1916   21.0097 C   0  0  2  0  0  0  0  0  0  0  0  0
    7.3723  -17.7283   21.5211 N   0  0  0  0  0  0  0  0  0  0  0  0
    9.1044  -16.1912   22.0166 C   0  0  0  0  0  0  0  0  0  0  0  0
   10.2228  -15.6338   21.8954 O   0  0  0  0  0  0  0  0  0  0  0  0
    7.5121  -12.0010   24.2398 C   0  0  0  0  0  0  0  0  0  0  0  0
    6.8698  -13.2751   24.6667 C   0  0  2  0  0  0  0  0  0  0  0  0
    5.9958  -12.9508   25.8913 C   0  0  0  0  0  0  0  0  0  0  0  0
    7.7613  -14.3766   25.0777 C   0  0  0  0  0  0  0  0  0  0  0  0
    8.7828  -14.8576   24.1086 C   0  0  2  0  0  0  0  0  0  0  0  0
    8.3309  -15.8278   23.1493 N   0  0  0  0  0  0  0  0  0  0  0  0
   10.0480  -15.2790   24.7721 C   0  0  0  0  0  0  0  0  0  0  0  0
   10.9621  -14.4342   24.9526 O   0  0  0  0  0  0  0  0  0  0  0  0
   10.7196  -13.7818   29.1185 C   0  0  0  0  0  0  0  0  0  0  0  0
   10.9004  -15.3164   30.0644 S   0  0  0  0  0  0  0  0  0  0  0  0
   11.0835  -16.7287   28.9123 C   0  0  0  0  0  0  0  0  0  0  0  0
   10.2980  -16.4913   27.6550 C   0  0  0  0  0  0  0  0  0  0  0  0
   11.0756  -16.8773   26.4514 C   0  0  2  0  0  0  0  0  0  0  0  0
   10.2943  -16.5980   25.2224 N   0  0  0  0  0  0  0  0  0  0  0  0
   11.3794  -18.3097   26.4401 C   0  0  0  0  0  0  0  0  0  0  0  0
   10.8582  -19.0483   25.5698 O   0  0  0  0  0  0  0  0  0  0  0  0
   12.2239  -18.9085   27.3452 O   0  0  0  0  0  0  0  0  0  0  0  0
  2  1  1  6
  2  3  1  0
  4  2  1  0
  4  5  1  0
  5  7  1  0
  5  6  1  1
  7  8  2  0
 10  9  1  1
 10 12  1  0
 11 10  1  0
 13 12  1  1
 14 13  1  0
 14  7  1  0
 15 16  2  0
 15 13  1  0
 17 18  1  0
 18 19  1  0
 19 20  1  0
 21 20  1  1
 21 23  1  0
 21 22  1  0
 22 15  1  0
 23 25  1  0
 24 23  2  0
M  END
$$$$
