LLM.pdb
     RDKit          3D

 25 24  0  0  1  0  0  0  0  0999 V2000
    8.6167  -14.4955   18.2963 C   0  0  0  0  0  0  0  0  0  0  0  0
    7.8714  -13.5553   19.2130 C   0  0  2  0  0  0  0  0  0  0  0  0
    7.8435  -12.1667   18.6597 C   0  0  0  0  0  0  0  0  0  0  0  0
    8.3516  -13.6360   20.6235 C   0  0  0  0  0  0  0  0  0  0  0  0
    8.3246  -15.0008   21.2224 C   0  0  2  0  0  0  0  0  0  0  0  0
    7.0280  -15.6422   21.1612 N   0  0  0  0  0  0  0  0  0  0  0  0
    8.6874  -14.8911   22.6748 C   0  0  0  0  0  0  0  0  0  0  0  0
    9.8568  -14.6139   23.0377 O   0  0  0  0  0  0  0  0  0  0  0  0
    7.9031  -12.0294   26.3152 C   0  0  0  0  0  0  0  0  0  0  0  0
    6.8137  -12.9398   25.8651 C   0  0  2  0  0  0  0  0  0  0  0  0
    5.5832  -12.6361   26.7383 C   0  0  0  0  0  0  0  0  0  0  0  0
    7.0538  -14.3908   25.9832 C   0  0  0  0  0  0  0  0  0  0  0  0
    8.0752  -15.0121   25.0973 C   0  0  2  0  0  0  0  0  0  0  0  0
    7.7321  -15.0943   23.7041 N   0  0  0  0  0  0  0  0  0  0  0  0
    8.5758  -16.3122   25.6245 C   0  0  0  0  0  0  0  0  0  0  0  0
    7.8124  -17.3117   25.6302 O   0  0  0  0  0  0  0  0  0  0  0  0
   13.5486  -19.4282   23.5822 C   0  0  0  0  0  0  0  0  0  0  0  0
   13.8313  -19.7573   25.3413 S   0  0  0  0  0  0  0  0  0  0  0  0
   12.3061  -19.3892   26.2866 C   0  0  0  0  0  0  0  0  0  0  0  0
   11.6960  -18.0974   25.8248 C   0  0  0  0  0  0  0  0  0  0  0  0
   10.4002  -17.8402   26.5007 C   0  0  2  0  0  0  0  0  0  0  0  0
    9.8839  -16.5001   26.1311 N   0  0  0  0  0  0  0  0  0  0  0  0
   10.5390  -17.8500   27.9584 C   0  0  0  0  0  0  0  0  0  0  0  0
   10.5316  -16.7659   28.5903 O   0  0  0  0  0  0  0  0  0  0  0  0
   10.6774  -19.0029   28.6949 O   0  0  0  0  0  0  0  0  0  0  0  0
  2  1  1  6
  2  3  1  0
  4  2  1  0
  4  5  1  0
  5  7  1  0
  5  6  1  1
  7  8  2  0
 10  9  1  1
 10 12  1  0
 11 10  1  0
 13 12  1  1
 14 13  1  0
 14  7  1  0
 15 16  2  0
 15 13  1  0
 17 18  1  0
 18 19  1  0
 19 20  1  0
 21 20  1  6
 21 23  1  0
 21 22  1  0
 22 15  1  0
 23 25  1  0
 24 23  2  0
M  END
$$$$
