LLM.pdb
     RDKit          3D

 25 24  0  0  1  0  0  0  0  0999 V2000
    8.6639  -19.3174   18.5350 C   0  0  0  0  0  0  0  0  0  0  0  0
    8.0373  -17.9477   18.4308 C   0  0  2  0  0  0  0  0  0  0  0  0
    8.1289  -17.4138   17.0373 C   0  0  0  0  0  0  0  0  0  0  0  0
    8.5448  -17.0090   19.4739 C   0  0  0  0  0  0  0  0  0  0  0  0
    8.4241  -17.4990   20.8765 C   0  0  2  0  0  0  0  0  0  0  0  0
    7.1088  -18.0039   21.2099 N   0  0  0  0  0  0  0  0  0  0  0  0
    8.6989  -16.3535   21.8067 C   0  0  0  0  0  0  0  0  0  0  0  0
    9.7746  -15.7086   21.7503 O   0  0  0  0  0  0  0  0  0  0  0  0
    6.0590  -13.1387   26.5732 C   0  0  0  0  0  0  0  0  0  0  0  0
    7.1417  -13.4050   25.5858 C   0  0  2  0  0  0  0  0  0  0  0  0
    7.3277  -12.1176   24.7631 C   0  0  0  0  0  0  0  0  0  0  0  0
    6.9146  -14.4879   24.6097 C   0  0  0  0  0  0  0  0  0  0  0  0
    8.0440  -14.8944   23.7303 C   0  0  2  0  0  0  0  0  0  0  0  0
    7.7620  -15.9448   22.7909 N   0  0  0  0  0  0  0  0  0  0  0  0
    9.2986  -15.1506   24.4911 C   0  0  0  0  0  0  0  0  0  0  0  0
   10.1286  -14.2183   24.6460 O   0  0  0  0  0  0  0  0  0  0  0  0
   10.7391  -12.9795   28.4236 C   0  0  0  0  0  0  0  0  0  0  0  0
   11.7109  -14.3692   29.0614 S   0  0  0  0  0  0  0  0  0  0  0  0
   10.9125  -15.9466   28.5821 C   0  0  0  0  0  0  0  0  0  0  0  0
   10.0438  -15.7540   27.3727 C   0  0  0  0  0  0  0  0  0  0  0  0
   10.5549  -16.5252   26.2124 C   0  0  2  0  0  0  0  0  0  0  0  0
    9.6253  -16.4031   25.0635 N   0  0  0  0  0  0  0  0  0  0  0  0
   10.6616  -17.9536   26.5169 C   0  0  0  0  0  0  0  0  0  0  0  0
   11.6199  -18.3706   27.2116 O   0  0  0  0  0  0  0  0  0  0  0  0
    9.7521  -18.8877   26.0800 O   0  0  0  0  0  0  0  0  0  0  0  0
  2  1  1  6
  2  3  1  0
  4  2  1  0
  4  5  1  0
  5  7  1  0
  5  6  1  6
  7  8  2  0
 10  9  1  1
 10 12  1  0
 11 10  1  0
 13 12  1  1
 14 13  1  0
 14  7  1  0
 15 16  2  0
 15 13  1  0
 17 18  1  0
 18 19  1  0
 19 20  1  0
 21 20  1  1
 21 23  1  0
 21 22  1  0
 22 15  1  0
 23 25  1  0
 24 23  2  0
M  END
$$$$
