LLM.pdb
     RDKit          3D

 25 24  0  0  1  0  0  0  0  0999 V2000
    7.0359  -18.3838   18.1929 C   0  0  0  0  0  0  0  0  0  0  0  0
    7.1845  -18.7324   19.6544 C   0  0  2  0  0  0  0  0  0  0  0  0
    5.8826  -19.1741   20.2420 C   0  0  0  0  0  0  0  0  0  0  0  0
    7.8647  -17.6544   20.4302 C   0  0  0  0  0  0  0  0  0  0  0  0
    8.1551  -17.9882   21.8536 C   0  0  2  0  0  0  0  0  0  0  0  0
    6.9794  -18.3268   22.6280 N   0  0  0  0  0  0  0  0  0  0  0  0
    8.7757  -16.7881   22.5075 C   0  0  0  0  0  0  0  0  0  0  0  0
    9.8172  -16.2584   22.0485 O   0  0  0  0  0  0  0  0  0  0  0  0
    6.8946  -12.5887   23.4203 C   0  0  0  0  0  0  0  0  0  0  0  0
    6.6868  -13.6576   24.4364 C   0  0  2  0  0  0  0  0  0  0  0  0
    5.8118  -13.0561   25.5506 C   0  0  0  0  0  0  0  0  0  0  0  0
    7.8868  -14.1989   25.1028 C   0  0  0  0  0  0  0  0  0  0  0  0
    8.8115  -15.0521   24.3085 C   0  0  2  0  0  0  0  0  0  0  0  0
    8.2192  -16.1958   23.6708 N   0  0  0  0  0  0  0  0  0  0  0  0
   10.0465  -15.4116   25.0597 C   0  0  0  0  0  0  0  0  0  0  0  0
   10.9095  -14.5260   25.2897 O   0  0  0  0  0  0  0  0  0  0  0  0
   11.3873  -15.1814   30.7720 C   0  0  0  0  0  0  0  0  0  0  0  0
   10.6317  -14.2043   29.4466 S   0  0  0  0  0  0  0  0  0  0  0  0
   11.1113  -14.9010   27.8217 C   0  0  0  0  0  0  0  0  0  0  0  0
   11.0387  -16.4005   27.8466 C   0  0  0  0  0  0  0  0  0  0  0  0
   11.3939  -16.9802   26.5276 C   0  0  2  0  0  0  0  0  0  0  0  0
   10.3184  -16.7141   25.5419 N   0  0  0  0  0  0  0  0  0  0  0  0
   11.5478  -18.4347   26.5996 C   0  0  0  0  0  0  0  0  0  0  0  0
   10.6595  -19.1779   26.1167 O   0  0  0  0  0  0  0  0  0  0  0  0
   12.6342  -19.0503   27.1754 O   0  0  0  0  0  0  0  0  0  0  0  0
  2  1  1  6
  2  3  1  0
  4  2  1  0
  4  5  1  0
  5  7  1  0
  5  6  1  1
  7  8  2  0
 10  9  1  6
 10 12  1  0
 11 10  1  0
 13 12  1  1
 14 13  1  0
 14  7  1  0
 15 16  2  0
 15 13  1  0
 17 18  1  0
 18 19  1  0
 19 20  1  0
 21 20  1  1
 21 23  1  0
 21 22  1  0
 22 15  1  0
 23 25  1  0
 24 23  2  0
M  END
$$$$
