CFV.pdb
     RDKit          3D

 25 25  0  0  1  0  0  0  0  0999 V2000
   28.3528  -21.5402  -13.6486 N   0  0  0  0  0  0  0  0  0  0  0  0
   28.0141  -20.3772  -12.8898 C   0  0  1  0  0  0  0  0  0  0  0  0
   26.8102  -19.7160  -13.5318 C   0  0  0  0  0  0  0  0  0  0  0  0
   27.3716  -18.6341  -14.9010 S   0  0  0  0  0  0  0  0  0  0  0  0
   27.7704  -20.7188  -11.4854 C   0  0  0  0  0  0  0  0  0  0  0  0
   27.0981  -21.7676  -11.2056 O   0  0  0  0  0  0  0  0  0  0  0  0
   28.2414  -19.9455  -10.3912 N   0  0  0  0  0  0  0  0  0  0  0  0
   27.8780  -20.2664   -9.0403 C   0  0  1  0  0  0  0  0  0  0  0  0
   28.7056  -19.5029   -8.0236 C   0  0  0  0  0  0  0  0  0  0  0  0
   28.3223  -19.7700   -6.6461 C   0  0  0  0  0  0  0  0  0  0  0  0
   27.4091  -18.9859   -5.9803 C   0  0  0  0  0  0  0  0  0  0  0  0
   27.0538  -19.2602   -4.6542 C   0  0  0  0  0  0  0  0  0  0  0  0
   27.6197  -20.3284   -3.9945 C   0  0  0  0  0  0  0  0  0  0  0  0
   28.5250  -21.1097   -4.6475 C   0  0  0  0  0  0  0  0  0  0  0  0
   28.8710  -20.8293   -5.9633 C   0  0  0  0  0  0  0  0  0  0  0  0
   26.4579  -19.9488   -8.7432 C   0  0  0  0  0  0  0  0  0  0  0  0
   26.0728  -18.7680   -8.9146 O   0  0  0  0  0  0  0  0  0  0  0  0
   23.4049  -22.2021   -9.8039 C   0  0  0  0  0  0  0  0  0  0  0  0
   23.3344  -20.7649   -9.3804 C   0  0  2  0  0  0  0  0  0  0  0  0
   23.8802  -19.8324  -10.4179 C   0  0  0  0  0  0  0  0  0  0  0  0
   24.1088  -20.6040   -8.0921 C   0  0  2  0  0  0  0  0  0  0  0  0
   25.5221  -20.9037   -8.2796 N   0  0  0  0  0  0  0  0  0  0  0  0
   23.5821  -21.4856   -7.0188 C   0  0  0  0  0  0  0  0  0  0  0  0
   22.4461  -21.2911   -6.5126 O   0  0  0  0  0  0  0  0  0  0  0  0
   24.3033  -22.5639   -6.5163 O   0  0  0  0  0  0  0  0  0  0  0  0
  2  5  1  0
  2  1  1  6
  3  2  1  0
  4  3  1  0
  5  6  2  0
  7  5  1  0
  7  8  1  0
  8  9  1  1
  9 10  1  0
 10 15  2  0
 11 12  2  0
 11 10  1  0
 12 13  1  0
 13 14  2  0
 15 14  1  0
 16 17  2  0
 16  8  1  0
 19 18  1  6
 19 21  1  0
 20 19  1  0
 21 22  1  6
 22 16  1  0
 23 25  1  0
 23 21  1  0
 24 23  2  0
M  END
$$$$
