CFV.pdb
     RDKit          3D

 25 25  0  0  1  0  0  0  0  0999 V2000
   28.9497  -22.5747  -17.3970 N   0  0  0  0  0  0  0  0  0  0  0  0
   28.2050  -21.3868  -17.1187 C   0  0  1  0  0  0  0  0  0  0  0  0
   27.3758  -21.0401  -18.3398 C   0  0  0  0  0  0  0  0  0  0  0  0
   26.3915  -19.5324  -17.9954 S   0  0  0  0  0  0  0  0  0  0  0  0
   27.3771  -21.5543  -15.9210 C   0  0  0  0  0  0  0  0  0  0  0  0
   26.6815  -22.6166  -15.7863 O   0  0  0  0  0  0  0  0  0  0  0  0
   27.2942  -20.5944  -14.8775 N   0  0  0  0  0  0  0  0  0  0  0  0
   26.4227  -20.7882  -13.7537 C   0  0  1  0  0  0  0  0  0  0  0  0
   26.8343  -19.9555  -12.5543 C   0  0  0  0  0  0  0  0  0  0  0  0
   26.0737  -20.2560  -11.3514 C   0  0  0  0  0  0  0  0  0  0  0  0
   24.8684  -19.6501  -11.0828 C   0  0  0  0  0  0  0  0  0  0  0  0
   24.1520  -19.9536   -9.9189 C   0  0  0  0  0  0  0  0  0  0  0  0
   24.6502  -20.8710   -9.0208 C   0  0  0  0  0  0  0  0  0  0  0  0
   25.8435  -21.4753   -9.2800 C   0  0  0  0  0  0  0  0  0  0  0  0
   26.5469  -21.1674  -10.4377 C   0  0  0  0  0  0  0  0  0  0  0  0
   25.0164  -20.4172  -14.0546 C   0  0  0  0  0  0  0  0  0  0  0  0
   24.8038  -19.2946  -14.5709 O   0  0  0  0  0  0  0  0  0  0  0  0
   22.7279  -21.5351  -16.4024 C   0  0  0  0  0  0  0  0  0  0  0  0
   21.9204  -21.7138  -15.1511 C   0  0  2  0  0  0  0  0  0  0  0  0
   20.4825  -21.3369  -15.3359 C   0  0  0  0  0  0  0  0  0  0  0  0
   22.5328  -20.8680  -14.0579 C   0  0  2  0  0  0  0  0  0  0  0  0
   23.9104  -21.2595  -13.7907 N   0  0  0  0  0  0  0  0  0  0  0  0
   21.7646  -20.9654  -12.7902 C   0  0  0  0  0  0  0  0  0  0  0  0
   21.8912  -21.9564  -12.0244 O   0  0  0  0  0  0  0  0  0  0  0  0
   20.8719  -19.9805  -12.3798 O   0  0  0  0  0  0  0  0  0  0  0  0
  2  5  1  0
  2  1  1  6
  3  2  1  0
  4  3  1  0
  5  6  2  0
  7  5  1  0
  7  8  1  0
  8  9  1  1
  9 10  1  0
 10 15  2  0
 11 12  2  0
 11 10  1  0
 12 13  1  0
 13 14  2  0
 15 14  1  0
 16 17  2  0
 16  8  1  0
 19 18  1  6
 19 21  1  0
 20 19  1  0
 21 22  1  1
 22 16  1  0
 23 25  1  0
 23 21  1  0
 24 23  2  0
M  END
$$$$
