CFV.pdb
     RDKit          3D

 25 25  0  0  1  0  0  0  0  0999 V2000
   25.2735  -12.4302  -16.7019 N   0  0  0  0  0  0  0  0  0  0  0  0
   24.7310  -11.7812  -15.5498 C   0  0  1  0  0  0  0  0  0  0  0  0
   25.8072  -10.9064  -14.9373 C   0  0  0  0  0  0  0  0  0  0  0  0
   26.2962   -9.6143  -16.1422 S   0  0  0  0  0  0  0  0  0  0  0  0
   23.5299  -11.0153  -15.8949 C   0  0  0  0  0  0  0  0  0  0  0  0
   23.4007  -10.5571  -17.0797 O   0  0  0  0  0  0  0  0  0  0  0  0
   22.4774  -10.7424  -14.9813 N   0  0  0  0  0  0  0  0  0  0  0  0
   21.3341   -9.9674  -15.3709 C   0  0  1  0  0  0  0  0  0  0  0  0
   20.0267  -10.6697  -15.0561 C   0  0  0  0  0  0  0  0  0  0  0  0
   18.8629  -10.0124  -15.6298 C   0  0  0  0  0  0  0  0  0  0  0  0
   18.0152   -9.2405  -14.8697 C   0  0  0  0  0  0  0  0  0  0  0  0
   16.9002   -8.6163  -15.4417 C   0  0  0  0  0  0  0  0  0  0  0  0
   16.6362   -8.7693  -16.7845 C   0  0  0  0  0  0  0  0  0  0  0  0
   17.4713   -9.5324  -17.5439 C   0  0  0  0  0  0  0  0  0  0  0  0
   18.5752  -10.1477  -16.9672 C   0  0  0  0  0  0  0  0  0  0  0  0
   21.2766   -8.6532  -14.6813 C   0  0  0  0  0  0  0  0  0  0  0  0
   21.4834   -8.6303  -13.4449 O   0  0  0  0  0  0  0  0  0  0  0  0
   22.1536   -4.0298  -14.2608 C   0  0  0  0  0  0  0  0  0  0  0  0
   22.2146   -5.3258  -15.0135 C   0  0  2  0  0  0  0  0  0  0  0  0
   22.2791   -5.1267  -16.4968 C   0  0  0  0  0  0  0  0  0  0  0  0
   20.9938   -6.1450  -14.6615 C   0  0  2  0  0  0  0  0  0  0  0  0
   21.0024   -7.4327  -15.3428 N   0  0  0  0  0  0  0  0  0  0  0  0
   19.7356   -5.4380  -15.0135 C   0  0  0  0  0  0  0  0  0  0  0  0
   19.3223   -4.4628  -14.3333 O   0  0  0  0  0  0  0  0  0  0  0  0
   18.9503   -5.8068  -16.1009 O   0  0  0  0  0  0  0  0  0  0  0  0
  2  5  1  0
  2  1  1  6
  3  2  1  0
  4  3  1  0
  5  6  2  0
  7  5  1  0
  7  8  1  0
  8  9  1  1
  9 10  1  0
 10 15  2  0
 11 12  2  0
 11 10  1  0
 12 13  1  0
 13 14  2  0
 15 14  1  0
 16 17  2  0
 16  8  1  0
 19 18  1  1
 19 21  1  0
 20 19  1  0
 21 22  1  6
 22 16  1  0
 23 25  1  0
 23 21  1  0
 24 23  2  0
M  END
$$$$
