CFV.pdb
     RDKit          3D

 25 25  0  0  1  0  0  0  0  0999 V2000
   28.5749  -22.0550  -17.0219 N   0  0  0  0  0  0  0  0  0  0  0  0
   28.2349  -20.8644  -16.3080 C   0  0  1  0  0  0  0  0  0  0  0  0
   27.4959  -19.9324  -17.2483 C   0  0  0  0  0  0  0  0  0  0  0  0
   27.3066  -18.2926  -16.4510 S   0  0  0  0  0  0  0  0  0  0  0  0
   27.4480  -21.1759  -15.1114 C   0  0  0  0  0  0  0  0  0  0  0  0
   26.4427  -21.9568  -15.2111 O   0  0  0  0  0  0  0  0  0  0  0  0
   27.7339  -20.6570  -13.8207 N   0  0  0  0  0  0  0  0  0  0  0  0
   26.9010  -20.9630  -12.6927 C   0  0  1  0  0  0  0  0  0  0  0  0
   27.5612  -20.6058  -11.3744 C   0  0  0  0  0  0  0  0  0  0  0  0
   26.6471  -20.6289  -10.2432 C   0  0  0  0  0  0  0  0  0  0  0  0
   26.1957  -19.4732   -9.6492 C   0  0  0  0  0  0  0  0  0  0  0  0
   25.3158  -19.5175   -8.5612 C   0  0  0  0  0  0  0  0  0  0  0  0
   24.8878  -20.7299   -8.0681 C   0  0  0  0  0  0  0  0  0  0  0  0
   25.3305  -21.8789   -8.6512 C   0  0  0  0  0  0  0  0  0  0  0  0
   26.2035  -21.8246   -9.7304 C   0  0  0  0  0  0  0  0  0  0  0  0
   25.6103  -20.2288  -12.7236 C   0  0  0  0  0  0  0  0  0  0  0  0
   25.6481  -18.9811  -12.8409 O   0  0  0  0  0  0  0  0  0  0  0  0
   22.1005  -21.7643  -14.2206 C   0  0  0  0  0  0  0  0  0  0  0  0
   22.4140  -20.3094  -14.0338 C   0  0  2  0  0  0  0  0  0  0  0  0
   23.2938  -19.7671  -15.1181 C   0  0  0  0  0  0  0  0  0  0  0  0
   23.0882  -20.1304  -12.6927 C   0  0  2  0  0  0  0  0  0  0  0  0
   24.3475  -20.8602  -12.6284 N   0  0  0  0  0  0  0  0  0  0  0  0
   22.2236  -20.5901  -11.5756 C   0  0  0  0  0  0  0  0  0  0  0  0
   22.4856  -21.6434  -10.9379 O   0  0  0  0  0  0  0  0  0  0  0  0
   21.0887  -19.8934  -11.1734 O   0  0  0  0  0  0  0  0  0  0  0  0
  2  5  1  0
  2  1  1  6
  3  2  1  0
  4  3  1  0
  5  6  2  0
  7  5  1  0
  7  8  1  0
  8  9  1  1
  9 10  1  0
 10 15  2  0
 11 12  2  0
 11 10  1  0
 12 13  1  0
 13 14  2  0
 15 14  1  0
 16 17  2  0
 16  8  1  0
 19 18  1  6
 19 21  1  0
 20 19  1  0
 21 22  1  6
 22 16  1  0
 23 25  1  0
 23 21  1  0
 24 23  2  0
M  END
$$$$
