CFV.pdb
     RDKit          3D

 25 25  0  0  1  0  0  0  0  0999 V2000
   16.4171  -21.8741    1.6188 N   0  0  0  0  0  0  0  0  0  0  0  0
   15.7361  -20.9741    2.4958 C   0  0  1  0  0  0  0  0  0  0  0  0
   15.2268  -21.7570    3.6901 C   0  0  0  0  0  0  0  0  0  0  0  0
   13.9497  -22.9485    3.1336 S   0  0  0  0  0  0  0  0  0  0  0  0
   16.6102  -19.8677    2.8955 C   0  0  0  0  0  0  0  0  0  0  0  0
   17.8644  -20.0750    3.0159 O   0  0  0  0  0  0  0  0  0  0  0  0
   16.1469  -18.5522    3.1638 N   0  0  0  0  0  0  0  0  0  0  0  0
   17.0494  -17.5117    3.5674 C   0  0  1  0  0  0  0  0  0  0  0  0
   16.4687  -16.1275    3.3482 C   0  0  0  0  0  0  0  0  0  0  0  0
   17.4249  -15.0551    3.5755 C   0  0  0  0  0  0  0  0  0  0  0  0
   18.5079  -14.8594    2.7503 C   0  0  0  0  0  0  0  0  0  0  0  0
   19.4166  -13.8210    2.9869 C   0  0  0  0  0  0  0  0  0  0  0  0
   19.2353  -12.9754    4.0585 C   0  0  0  0  0  0  0  0  0  0  0  0
   18.1649  -13.1630    4.8803 C   0  0  0  0  0  0  0  0  0  0  0  0
   17.2687  -14.1962    4.6373 C   0  0  0  0  0  0  0  0  0  0  0  0
   17.4009  -17.5918    5.0082 C   0  0  0  0  0  0  0  0  0  0  0  0
   16.4972  -17.9142    5.8153 O   0  0  0  0  0  0  0  0  0  0  0  0
   20.6094  -19.3072    6.5245 C   0  0  0  0  0  0  0  0  0  0  0  0
   20.4747  -17.9254    7.0924 C   0  0  2  0  0  0  0  0  0  0  0  0
   20.8570  -17.8586    8.5392 C   0  0  0  0  0  0  0  0  0  0  0  0
   19.0426  -17.4723    6.9220 C   0  0  2  0  0  0  0  0  0  0  0  0
   18.6949  -17.3248    5.5149 N   0  0  0  0  0  0  0  0  0  0  0  0
   18.7893  -16.1775    7.6046 C   0  0  0  0  0  0  0  0  0  0  0  0
   18.3151  -16.1354    8.7699 O   0  0  0  0  0  0  0  0  0  0  0  0
   19.0576  -14.9514    7.0047 O   0  0  0  0  0  0  0  0  0  0  0  0
  2  5  1  0
  2  1  1  6
  3  2  1  0
  4  3  1  0
  5  6  2  0
  7  5  1  0
  7  8  1  0
  8  9  1  1
  9 10  1  0
 10 15  2  0
 11 12  2  0
 11 10  1  0
 12 13  1  0
 13 14  2  0
 15 14  1  0
 16 17  2  0
 16  8  1  0
 19 18  1  1
 19 21  1  0
 20 19  1  0
 21 22  1  6
 22 16  1  0
 23 25  1  0
 23 21  1  0
 24 23  2  0
M  END
$$$$
