CFV.pdb
     RDKit          3D

 25 25  0  0  1  0  0  0  0  0999 V2000
   20.8042  -12.8384  -16.6575 N   0  0  0  0  0  0  0  0  0  0  0  0
   20.5338  -11.5050  -17.0956 C   0  0  1  0  0  0  0  0  0  0  0  0
   19.0409  -11.2589  -16.9989 C   0  0  0  0  0  0  0  0  0  0  0  0
   18.1807  -12.2376  -18.2883 S   0  0  0  0  0  0  0  0  0  0  0  0
   21.3035  -10.5301  -16.3176 C   0  0  0  0  0  0  0  0  0  0  0  0
   21.3781  -10.6621  -15.0498 O   0  0  0  0  0  0  0  0  0  0  0  0
   21.9869   -9.4249  -16.8906 N   0  0  0  0  0  0  0  0  0  0  0  0
   22.7299   -8.5046  -16.0776 C   0  0  1  0  0  0  0  0  0  0  0  0
   24.1728   -8.3728  -16.5272 C   0  0  0  0  0  0  0  0  0  0  0  0
   24.9591   -9.5775  -16.3128 C   0  0  0  0  0  0  0  0  0  0  0  0
   24.9914  -10.5984  -17.2342 C   0  0  0  0  0  0  0  0  0  0  0  0
   25.7550  -11.7499  -17.0084 C   0  0  0  0  0  0  0  0  0  0  0  0
   26.4897  -11.8753  -15.8504 C   0  0  0  0  0  0  0  0  0  0  0  0
   26.4627  -10.8683  -14.9331 C   0  0  0  0  0  0  0  0  0  0  0  0
   25.7019   -9.7296  -15.1662 C   0  0  0  0  0  0  0  0  0  0  0  0
   22.1590   -7.1338  -16.1046 C   0  0  0  0  0  0  0  0  0  0  0  0
   21.8505   -6.6488  -17.2189 O   0  0  0  0  0  0  0  0  0  0  0  0
   19.1503   -5.8786  -15.4944 C   0  0  0  0  0  0  0  0  0  0  0  0
   19.9303   -5.0094  -14.5532 C   0  0  2  0  0  0  0  0  0  0  0  0
   19.4163   -3.6031  -14.5097 C   0  0  0  0  0  0  0  0  0  0  0  0
   21.3788   -5.0096  -14.9861 C   0  0  2  0  0  0  0  0  0  0  0  0
   21.9462   -6.3508  -14.9452 N   0  0  0  0  0  0  0  0  0  0  0  0
   22.2097   -4.1239  -14.1307 C   0  0  0  0  0  0  0  0  0  0  0  0
   22.6746   -4.5259  -13.0320 O   0  0  0  0  0  0  0  0  0  0  0  0
   22.5191   -2.8156  -14.4881 O   0  0  0  0  0  0  0  0  0  0  0  0
  2  5  1  0
  2  1  1  1
  3  2  1  0
  4  3  1  0
  5  6  2  0
  7  5  1  0
  7  8  1  0
  8  9  1  6
  9 10  1  0
 10 15  2  0
 11 12  2  0
 11 10  1  0
 12 13  1  0
 13 14  2  0
 15 14  1  0
 16 17  2  0
 16  8  1  0
 19 18  1  6
 19 21  1  0
 20 19  1  0
 21 22  1  1
 22 16  1  0
 23 25  1  0
 23 21  1  0
 24 23  2  0
M  END
$$$$
