CFV.pdb
     RDKit          3D

 25 25  0  0  1  0  0  0  0  0999 V2000
   29.1228  -23.2574  -16.6819 N   0  0  0  0  0  0  0  0  0  0  0  0
   28.4862  -22.0714  -17.1626 C   0  0  1  0  0  0  0  0  0  0  0  0
   28.0789  -22.2936  -18.6060 C   0  0  0  0  0  0  0  0  0  0  0  0
   27.2856  -20.7727  -19.2526 S   0  0  0  0  0  0  0  0  0  0  0  0
   27.3442  -21.7090  -16.3184 C   0  0  0  0  0  0  0  0  0  0  0  0
   26.6241  -22.6337  -15.8116 O   0  0  0  0  0  0  0  0  0  0  0  0
   26.9762  -20.3703  -16.0193 N   0  0  0  0  0  0  0  0  0  0  0  0
   25.8496  -20.0764  -15.1801 C   0  0  1  0  0  0  0  0  0  0  0  0
   26.2016  -19.1205  -14.0559 C   0  0  0  0  0  0  0  0  0  0  0  0
   26.9467  -19.7463  -12.9748 C   0  0  0  0  0  0  0  0  0  0  0  0
   28.3192  -19.8368  -12.9947 C   0  0  0  0  0  0  0  0  0  0  0  0
   29.0174  -20.4433  -11.9436 C   0  0  0  0  0  0  0  0  0  0  0  0
   28.3320  -20.9615  -10.8675 C   0  0  0  0  0  0  0  0  0  0  0  0
   26.9725  -20.8757  -10.8407 C   0  0  0  0  0  0  0  0  0  0  0  0
   26.2887  -20.2719  -11.8884 C   0  0  0  0  0  0  0  0  0  0  0  0
   24.7331  -19.4448  -15.9286 C   0  0  0  0  0  0  0  0  0  0  0  0
   25.0095  -18.5065  -16.7129 O   0  0  0  0  0  0  0  0  0  0  0  0
   22.6343  -20.7605  -18.4071 C   0  0  0  0  0  0  0  0  0  0  0  0
   21.6116  -20.1978  -17.4652 C   0  0  2  0  0  0  0  0  0  0  0  0
   20.4832  -19.5197  -18.1798 C   0  0  0  0  0  0  0  0  0  0  0  0
   22.2956  -19.2143  -16.5432 C   0  0  2  0  0  0  0  0  0  0  0  0
   23.3813  -19.8444  -15.8038 N   0  0  0  0  0  0  0  0  0  0  0  0
   21.3459  -18.6228  -15.5661 C   0  0  0  0  0  0  0  0  0  0  0  0
   21.0945  -19.1931  -14.4723 O   0  0  0  0  0  0  0  0  0  0  0  0
   20.6870  -17.4199  -15.7986 O   0  0  0  0  0  0  0  0  0  0  0  0
  2  5  1  0
  2  1  1  1
  3  2  1  0
  4  3  1  0
  5  6  2  0
  7  5  1  0
  7  8  1  0
  8  9  1  1
  9 10  1  0
 10 15  2  0
 11 12  2  0
 11 10  1  0
 12 13  1  0
 13 14  2  0
 15 14  1  0
 16 17  2  0
 16  8  1  0
 19 18  1  6
 19 21  1  0
 20 19  1  0
 21 22  1  1
 22 16  1  0
 23 25  1  0
 23 21  1  0
 24 23  2  0
M  END
$$$$
