CFV.pdb
     RDKit          3D

 25 25  0  0  1  0  0  0  0  0999 V2000
   28.8075  -22.2381  -17.9907 N   0  0  0  0  0  0  0  0  0  0  0  0
   28.3252  -21.0484  -17.3623 C   0  0  1  0  0  0  0  0  0  0  0  0
   27.4669  -20.2914  -18.3568 C   0  0  0  0  0  0  0  0  0  0  0  0
   27.3396  -18.5384  -17.8361 S   0  0  0  0  0  0  0  0  0  0  0  0
   27.5935  -21.3636  -16.1321 C   0  0  0  0  0  0  0  0  0  0  0  0
   26.7470  -22.3196  -16.1367 O   0  0  0  0  0  0  0  0  0  0  0  0
   27.7658  -20.6628  -14.9089 N   0  0  0  0  0  0  0  0  0  0  0  0
   26.9384  -20.9380  -13.7689 C   0  0  1  0  0  0  0  0  0  0  0  0
   27.5272  -20.3893  -12.4830 C   0  0  0  0  0  0  0  0  0  0  0  0
   26.6661  -20.5753  -11.3256 C   0  0  0  0  0  0  0  0  0  0  0  0
   26.4788  -21.8102  -10.7494 C   0  0  0  0  0  0  0  0  0  0  0  0
   25.6455  -21.9677   -9.6355 C   0  0  0  0  0  0  0  0  0  0  0  0
   24.9973  -20.8778   -9.0984 C   0  0  0  0  0  0  0  0  0  0  0  0
   25.1778  -19.6514   -9.6636 C   0  0  0  0  0  0  0  0  0  0  0  0
   26.0067  -19.5053  -10.7688 C   0  0  0  0  0  0  0  0  0  0  0  0
   25.5835  -20.3426  -13.8932 C   0  0  0  0  0  0  0  0  0  0  0  0
   25.5023  -19.1183  -14.1511 O   0  0  0  0  0  0  0  0  0  0  0  0
   23.1490  -20.6271  -16.3176 C   0  0  0  0  0  0  0  0  0  0  0  0
   22.3519  -21.0082  -15.1055 C   0  0  2  0  0  0  0  0  0  0  0  0
   20.9537  -20.4722  -15.1450 C   0  0  0  0  0  0  0  0  0  0  0  0
   23.0634  -20.4866  -13.8778 C   0  0  2  0  0  0  0  0  0  0  0  0
   24.3862  -21.0805  -13.7367 N   0  0  0  0  0  0  0  0  0  0  0  0
   22.2934  -20.7594  -12.6372 C   0  0  0  0  0  0  0  0  0  0  0  0
   22.3433  -21.8828  -12.0713 O   0  0  0  0  0  0  0  0  0  0  0  0
   21.4825  -19.8026  -12.0352 O   0  0  0  0  0  0  0  0  0  0  0  0
  2  5  1  0
  2  1  1  6
  3  2  1  0
  4  3  1  0
  5  6  2  0
  7  5  1  0
  7  8  1  0
  8  9  1  1
  9 10  1  0
 10 15  2  0
 11 12  2  0
 11 10  1  0
 12 13  1  0
 13 14  2  0
 15 14  1  0
 16 17  2  0
 16  8  1  0
 19 18  1  6
 19 21  1  0
 20 19  1  0
 21 22  1  1
 22 16  1  0
 23 25  1  0
 23 21  1  0
 24 23  2  0
M  END
$$$$
