CFV.pdb
     RDKit          3D

 25 25  0  0  1  0  0  0  0  0999 V2000
   28.0754  -21.5988  -14.1673 N   0  0  0  0  0  0  0  0  0  0  0  0
   28.5334  -20.6486  -13.2027 C   0  0  1  0  0  0  0  0  0  0  0  0
   28.0603  -19.2702  -13.6210 C   0  0  0  0  0  0  0  0  0  0  0  0
   26.2282  -19.2220  -13.5858 S   0  0  0  0  0  0  0  0  0  0  0  0
   28.0739  -21.0030  -11.8568 C   0  0  0  0  0  0  0  0  0  0  0  0
   27.1640  -21.8884  -11.7207 O   0  0  0  0  0  0  0  0  0  0  0  0
   28.5830  -20.4157  -10.6681 N   0  0  0  0  0  0  0  0  0  0  0  0
   28.1256  -20.8353   -9.3741 C   0  0  1  0  0  0  0  0  0  0  0  0
   29.0967  -20.4618   -8.2701 C   0  0  0  0  0  0  0  0  0  0  0  0
   28.4531  -20.2267   -6.9870 C   0  0  0  0  0  0  0  0  0  0  0  0
   28.2457  -21.2405   -6.0808 C   0  0  0  0  0  0  0  0  0  0  0  0
   27.6241  -20.9929   -4.8510 C   0  0  0  0  0  0  0  0  0  0  0  0
   27.2091  -19.7194   -4.5311 C   0  0  0  0  0  0  0  0  0  0  0  0
   27.4110  -18.7100   -5.4236 C   0  0  0  0  0  0  0  0  0  0  0  0
   28.0287  -18.9657   -6.6413 C   0  0  0  0  0  0  0  0  0  0  0  0
   26.8229  -20.2243   -9.0062 C   0  0  0  0  0  0  0  0  0  0  0  0
   26.6863  -18.9893   -9.1736 O   0  0  0  0  0  0  0  0  0  0  0  0
   24.4539  -20.0863  -10.9648 C   0  0  0  0  0  0  0  0  0  0  0  0
   23.7300  -20.8413   -9.8897 C   0  0  2  0  0  0  0  0  0  0  0  0
   22.2648  -20.5315   -9.8565 C   0  0  0  0  0  0  0  0  0  0  0  0
   24.3541  -20.4976   -8.5564 C   0  0  2  0  0  0  0  0  0  0  0  0
   25.7339  -20.9589   -8.4799 N   0  0  0  0  0  0  0  0  0  0  0  0
   23.5985  -21.0930   -7.4244 C   0  0  0  0  0  0  0  0  0  0  0  0
   24.0122  -22.1249   -6.8340 O   0  0  0  0  0  0  0  0  0  0  0  0
   22.4051  -20.5528   -6.9562 O   0  0  0  0  0  0  0  0  0  0  0  0
  2  5  1  0
  2  1  1  6
  3  2  1  0
  4  3  1  0
  5  6  2  0
  7  5  1  0
  7  8  1  0
  8  9  1  1
  9 10  1  0
 10 15  2  0
 11 12  2  0
 11 10  1  0
 12 13  1  0
 13 14  2  0
 15 14  1  0
 16 17  2  0
 16  8  1  0
 19 18  1  6
 19 21  1  0
 20 19  1  0
 21 22  1  6
 22 16  1  0
 23 25  1  0
 23 21  1  0
 24 23  2  0
M  END
$$$$
