CFV.pdb
     RDKit          3D

 25 25  0  0  1  0  0  0  0  0999 V2000
   28.2693  -23.5445  -17.5665 N   0  0  0  0  0  0  0  0  0  0  0  0
   27.8025  -22.2399  -17.2155 C   0  0  1  0  0  0  0  0  0  0  0  0
   26.9464  -21.7123  -18.3502 C   0  0  0  0  0  0  0  0  0  0  0  0
   28.0191  -20.8814  -19.5827 S   0  0  0  0  0  0  0  0  0  0  0  0
   27.0745  -22.2669  -15.9437 C   0  0  0  0  0  0  0  0  0  0  0  0
   26.2517  -23.2162  -15.7153 O   0  0  0  0  0  0  0  0  0  0  0  0
   27.2254  -21.2876  -14.9262 N   0  0  0  0  0  0  0  0  0  0  0  0
   26.4248  -21.3201  -13.7355 C   0  0  1  0  0  0  0  0  0  0  0  0
   27.0302  -20.5015  -12.6109 C   0  0  0  0  0  0  0  0  0  0  0  0
   26.2534  -20.5415  -11.3818 C   0  0  0  0  0  0  0  0  0  0  0  0
   25.2100  -19.6749  -11.1523 C   0  0  0  0  0  0  0  0  0  0  0  0
   24.4748  -19.7301   -9.9622 C   0  0  0  0  0  0  0  0  0  0  0  0
   24.7905  -20.6613   -8.9980 C   0  0  0  0  0  0  0  0  0  0  0  0
   25.8227  -21.5230   -9.2181 C   0  0  0  0  0  0  0  0  0  0  0  0
   26.5462  -21.4604  -10.4023 C   0  0  0  0  0  0  0  0  0  0  0  0
   25.0588  -20.7796  -13.9545 C   0  0  0  0  0  0  0  0  0  0  0  0
   24.9546  -19.6225  -14.4259 O   0  0  0  0  0  0  0  0  0  0  0  0
   22.7413  -21.6294  -16.3013 C   0  0  0  0  0  0  0  0  0  0  0  0
   21.8876  -21.7555  -15.0744 C   0  0  2  0  0  0  0  0  0  0  0  0
   20.4944  -21.2487  -15.2888 C   0  0  0  0  0  0  0  0  0  0  0  0
   22.5430  -20.9857  -13.9505 C   0  0  2  0  0  0  0  0  0  0  0  0
   23.8756  -21.4981  -13.6607 N   0  0  0  0  0  0  0  0  0  0  0  0
   21.7390  -21.0410  -12.7026 C   0  0  0  0  0  0  0  0  0  0  0  0
   21.6962  -22.0840  -11.9990 O   0  0  0  0  0  0  0  0  0  0  0  0
   20.9958  -19.9582  -12.2438 O   0  0  0  0  0  0  0  0  0  0  0  0
  2  5  1  0
  2  1  1  6
  3  2  1  0
  4  3  1  0
  5  6  2  0
  7  5  1  0
  7  8  1  0
  8  9  1  1
  9 10  1  0
 10 15  2  0
 11 12  2  0
 11 10  1  0
 12 13  1  0
 13 14  2  0
 15 14  1  0
 16 17  2  0
 16  8  1  0
 19 18  1  6
 19 21  1  0
 20 19  1  0
 21 22  1  1
 22 16  1  0
 23 25  1  0
 23 21  1  0
 24 23  2  0
M  END
$$$$
