CFV.pdb
     RDKit          3D

 25 25  0  0  1  0  0  0  0  0999 V2000
   35.5993  -22.6197  -18.9418 N   0  0  0  0  0  0  0  0  0  0  0  0
   34.3473  -23.3089  -18.9194 C   0  0  1  0  0  0  0  0  0  0  0  0
   33.8028  -23.3663  -20.3333 C   0  0  0  0  0  0  0  0  0  0  0  0
   33.2085  -21.7024  -20.8216 S   0  0  0  0  0  0  0  0  0  0  0  0
   34.4927  -24.6436  -18.3314 C   0  0  0  0  0  0  0  0  0  0  0  0
   35.6625  -25.1232  -18.1532 O   0  0  0  0  0  0  0  0  0  0  0  0
   33.3970  -25.4570  -17.9378 N   0  0  0  0  0  0  0  0  0  0  0  0
   33.6014  -26.7117  -17.2716 C   0  0  1  0  0  0  0  0  0  0  0  0
   32.7050  -26.8733  -16.0584 C   0  0  0  0  0  0  0  0  0  0  0  0
   32.9880  -25.9194  -14.9974 C   0  0  0  0  0  0  0  0  0  0  0  0
   32.2012  -24.8108  -14.7874 C   0  0  0  0  0  0  0  0  0  0  0  0
   32.4911  -23.9046  -13.7603 C   0  0  0  0  0  0  0  0  0  0  0  0
   33.5775  -24.1144  -12.9405 C   0  0  0  0  0  0  0  0  0  0  0  0
   34.3614  -25.2103  -13.1424 C   0  0  0  0  0  0  0  0  0  0  0  0
   34.0656  -26.1037  -14.1642 C   0  0  0  0  0  0  0  0  0  0  0  0
   33.3226  -27.8746  -18.1524 C   0  0  0  0  0  0  0  0  0  0  0  0
   32.3599  -27.7879  -18.9510 O   0  0  0  0  0  0  0  0  0  0  0  0
   35.9664  -29.7553  -20.1739 C   0  0  0  0  0  0  0  0  0  0  0  0
   35.1292  -30.8094  -19.5123 C   0  0  2  0  0  0  0  0  0  0  0  0
   34.8313  -31.9617  -20.4219 C   0  0  0  0  0  0  0  0  0  0  0  0
   33.8361  -30.1773  -19.0499 C   0  0  2  0  0  0  0  0  0  0  0  0
   34.0822  -29.0684  -18.1376 N   0  0  0  0  0  0  0  0  0  0  0  0
   32.9565  -31.1595  -18.3656 C   0  0  0  0  0  0  0  0  0  0  0  0
   33.0862  -31.4084  -17.1384 O   0  0  0  0  0  0  0  0  0  0  0  0
   31.9510  -31.8531  -19.0312 O   0  0  0  0  0  0  0  0  0  0  0  0
  2  5  1  0
  2  1  1  6
  3  2  1  0
  4  3  1  0
  5  6  2  0
  7  5  1  0
  7  8  1  0
  8  9  1  1
  9 10  1  0
 10 15  2  0
 11 12  2  0
 11 10  1  0
 12 13  1  0
 13 14  2  0
 15 14  1  0
 16 17  2  0
 16  8  1  0
 19 18  1  6
 19 21  1  0
 20 19  1  0
 21 22  1  1
 22 16  1  0
 23 25  1  0
 23 21  1  0
 24 23  2  0
M  END
$$$$
