LCF.pdb
     RDKit          3D

 26 26  0  0  1  0  0  0  0  0999 V2000
   25.6949  -19.7483   -8.1516 C   0  0  0  0  0  0  0  0  0  0  0  0
   25.4498  -20.6972   -9.2881 C   0  0  1  0  0  0  0  0  0  0  0  0
   23.9858  -21.0697   -9.3785 C   0  0  0  0  0  0  0  0  0  0  0  0
   26.0649  -20.3106  -10.5757 C   0  0  0  0  0  0  0  0  0  0  0  0
   25.8713  -21.1915  -11.7488 C   0  0  2  0  0  0  0  0  0  0  0  0
   26.8864  -22.1593  -11.9801 N   0  0  0  0  0  0  0  0  0  0  0  0
   25.5919  -20.4656  -13.0066 C   0  0  0  0  0  0  0  0  0  0  0  0
   26.3390  -19.5018  -13.3024 O   0  0  0  0  0  0  0  0  0  0  0  0
   24.5441  -20.7698  -13.9108 N   0  0  0  0  0  0  0  0  0  0  0  0
   24.4282  -20.0740  -15.2032 C   0  0  1  0  0  0  0  0  0  0  0  0
   24.9256  -20.9765  -16.3095 C   0  0  0  0  0  0  0  0  0  0  0  0
   24.8335  -20.1709  -17.9257 S   0  0  0  0  0  0  0  0  0  0  0  0
   23.0137  -19.6725  -15.4438 C   0  0  0  0  0  0  0  0  0  0  0  0
   22.1032  -20.3928  -15.0079 O   0  0  0  0  0  0  0  0  0  0  0  0
   22.7332  -18.4958  -16.1537 N   0  0  0  0  0  0  0  0  0  0  0  0
   21.4102  -18.0885  -16.5064 C   0  0  1  0  0  0  0  0  0  0  0  0
   20.8243  -17.0083  -15.6568 C   0  0  0  0  0  0  0  0  0  0  0  0
   19.4337  -16.6774  -16.0580 C   0  0  0  0  0  0  0  0  0  0  0  0
   18.3603  -17.4184  -15.5782 C   0  0  0  0  0  0  0  0  0  0  0  0
   17.0620  -17.1381  -15.9300 C   0  0  0  0  0  0  0  0  0  0  0  0
   16.7729  -16.0968  -16.7840 C   0  0  0  0  0  0  0  0  0  0  0  0
   17.8247  -15.3512  -17.2696 C   0  0  0  0  0  0  0  0  0  0  0  0
   19.1280  -15.6328  -16.9162 C   0  0  0  0  0  0  0  0  0  0  0  0
   21.2460  -17.7835  -17.9742 C   0  0  0  0  0  0  0  0  0  0  0  0
   20.1717  -18.2144  -18.7190 O   0  0  0  0  0  0  0  0  0  0  0  0
   22.1317  -17.0955  -18.5623 O   0  0  0  0  0  0  0  0  0  0  0  0
  2  4  1  0
  2  1  1  1
  3  2  1  0
  4  5  1  0
  5  7  1  0
  5  6  1  6
  7  8  2  0
  9 10  1  0
  9  7  1  0
 10 11  1  6
 12 11  1  0
 13 10  1  0
 13 14  2  0
 15 13  1  0
 16 15  1  0
 16 24  1  0
 16 17  1  1
 18 17  1  0
 19 18  2  0
 20 19  1  0
 21 22  1  0
 21 20  2  0
 22 23  2  0
 23 18  1  0
 24 25  1  0
 26 24  2  0
M  END
$$$$
