LCF.pdb
     RDKit          3D

 26 26  0  0  1  0  0  0  0  0999 V2000
   29.0729  -31.1061  -20.6104 C   0  0  0  0  0  0  0  0  0  0  0  0
   28.7690  -30.6954  -19.1993 C   0  0  1  0  0  0  0  0  0  0  0  0
   28.0337  -29.3731  -19.1650 C   0  0  0  0  0  0  0  0  0  0  0  0
   28.1749  -31.7497  -18.3501 C   0  0  0  0  0  0  0  0  0  0  0  0
   27.9412  -31.4610  -16.9177 C   0  0  2  0  0  0  0  0  0  0  0  0
   29.0777  -31.0543  -16.1669 N   0  0  0  0  0  0  0  0  0  0  0  0
   27.2375  -32.5412  -16.1933 C   0  0  0  0  0  0  0  0  0  0  0  0
   26.5078  -33.3129  -16.8616 O   0  0  0  0  0  0  0  0  0  0  0  0
   27.3192  -32.7785  -14.7987 N   0  0  0  0  0  0  0  0  0  0  0  0
   26.6011  -33.9022  -14.1746 C   0  0  1  0  0  0  0  0  0  0  0  0
   27.0516  -35.2015  -14.8031 C   0  0  0  0  0  0  0  0  0  0  0  0
   26.4843  -36.6359  -13.8597 S   0  0  0  0  0  0  0  0  0  0  0  0
   26.8449  -33.9131  -12.7049 C   0  0  0  0  0  0  0  0  0  0  0  0
   28.0138  -33.9138  -12.2907 O   0  0  0  0  0  0  0  0  0  0  0  0
   25.7591  -33.9224  -11.8171 N   0  0  0  0  0  0  0  0  0  0  0  0
   25.9070  -33.9344  -10.3964 C   0  0  1  0  0  0  0  0  0  0  0  0
   25.8635  -32.5950   -9.7362 C   0  0  0  0  0  0  0  0  0  0  0  0
   26.0426  -32.6933   -8.2656 C   0  0  0  0  0  0  0  0  0  0  0  0
   27.3114  -32.6515   -7.6999 C   0  0  0  0  0  0  0  0  0  0  0  0
   27.5112  -32.7399   -6.3434 C   0  0  0  0  0  0  0  0  0  0  0  0
   26.4451  -32.8753   -5.4819 C   0  0  0  0  0  0  0  0  0  0  0  0
   25.1797  -32.9185   -6.0250 C   0  0  0  0  0  0  0  0  0  0  0  0
   24.9795  -32.8298   -7.3869 C   0  0  0  0  0  0  0  0  0  0  0  0
   24.9961  -34.9179   -9.7051 C   0  0  0  0  0  0  0  0  0  0  0  0
   25.4345  -35.8161   -8.7587 O   0  0  0  0  0  0  0  0  0  0  0  0
   23.7643  -34.9266   -9.9986 O   0  0  0  0  0  0  0  0  0  0  0  0
  2  4  1  0
  2  1  1  6
  3  2  1  0
  4  5  1  0
  5  7  1  0
  5  6  1  1
  7  8  2  0
  9 10  1  0
  9  7  1  0
 10 11  1  6
 12 11  1  0
 13 10  1  0
 13 14  2  0
 15 13  1  0
 16 15  1  0
 16 24  1  0
 16 17  1  1
 18 17  1  0
 19 18  2  0
 20 19  1  0
 21 22  1  0
 21 20  2  0
 22 23  2  0
 23 18  1  0
 24 25  1  0
 26 24  2  0
M  END
$$$$
