LCF.pdb
     RDKit          3D

 26 26  0  0  1  0  0  0  0  0999 V2000
   25.4152  -33.1016  -10.2140 C   0  0  0  0  0  0  0  0  0  0  0  0
   25.5761  -32.6542   -8.7906 C   0  0  1  0  0  0  0  0  0  0  0  0
   24.9063  -31.3164   -8.5627 C   0  0  0  0  0  0  0  0  0  0  0  0
   25.2657  -33.6773   -7.7695 C   0  0  0  0  0  0  0  0  0  0  0  0
   26.0186  -34.9512   -7.7880 C   0  0  2  0  0  0  0  0  0  0  0  0
   25.5616  -35.9359   -8.7057 N   0  0  0  0  0  0  0  0  0  0  0  0
   26.1910  -35.5675   -6.4549 C   0  0  0  0  0  0  0  0  0  0  0  0
   25.1833  -36.0877   -5.9177 O   0  0  0  0  0  0  0  0  0  0  0  0
   27.4070  -35.6196   -5.7292 N   0  0  0  0  0  0  0  0  0  0  0  0
   27.5041  -36.3575   -4.4588 C   0  0  1  0  0  0  0  0  0  0  0  0
   27.5262  -37.8433   -4.7377 C   0  0  0  0  0  0  0  0  0  0  0  0
   28.8557  -38.2927   -5.8779 S   0  0  0  0  0  0  0  0  0  0  0  0
   28.7265  -35.9404   -3.7162 C   0  0  0  0  0  0  0  0  0  0  0  0
   29.7848  -35.7830   -4.3431 O   0  0  0  0  0  0  0  0  0  0  0  0
   28.6648  -35.7333   -2.3304 N   0  0  0  0  0  0  0  0  0  0  0  0
   29.7753  -35.2807   -1.5542 C   0  0  1  0  0  0  0  0  0  0  0  0
   30.4452  -34.0428   -2.0552 C   0  0  0  0  0  0  0  0  0  0  0  0
   31.3022  -34.3132   -3.2370 C   0  0  0  0  0  0  0  0  0  0  0  0
   32.5728  -34.8553   -3.0842 C   0  0  0  0  0  0  0  0  0  0  0  0
   33.3905  -35.1173   -4.1568 C   0  0  0  0  0  0  0  0  0  0  0  0
   32.9744  -34.8482   -5.4419 C   0  0  0  0  0  0  0  0  0  0  0  0
   31.7174  -34.3105   -5.6125 C   0  0  0  0  0  0  0  0  0  0  0  0
   30.8968  -34.0476   -4.5354 C   0  0  0  0  0  0  0  0  0  0  0  0
   29.4793  -35.1868   -0.0784 C   0  0  0  0  0  0  0  0  0  0  0  0
   28.2346  -35.4255    0.4584 O   0  0  0  0  0  0  0  0  0  0  0  0
   30.4139  -34.8766    0.7179 O   0  0  0  0  0  0  0  0  0  0  0  0
  2  4  1  0
  2  1  1  6
  3  2  1  0
  4  5  1  0
  5  7  1  0
  5  6  1  6
  7  8  2  0
  9 10  1  0
  9  7  1  0
 10 11  1  6
 12 11  1  0
 13 10  1  0
 13 14  2  0
 15 13  1  0
 16 15  1  0
 16 24  1  0
 16 17  1  6
 18 17  1  0
 19 18  2  0
 20 19  1  0
 21 22  1  0
 21 20  2  0
 22 23  2  0
 23 18  1  0
 24 25  1  0
 26 24  2  0
M  END
$$$$
