LCF.pdb
     RDKit          3D

 26 26  0  0  1  0  0  0  0  0999 V2000
   27.1650  -17.3266  -17.4489 C   0  0  0  0  0  0  0  0  0  0  0  0
   27.7986  -18.3234  -16.5231 C   0  0  1  0  0  0  0  0  0  0  0  0
   28.7829  -17.6501  -15.5914 C   0  0  0  0  0  0  0  0  0  0  0  0
   26.8592  -19.2505  -15.8569 C   0  0  0  0  0  0  0  0  0  0  0  0
   27.3820  -20.1699  -14.8220 C   0  0  2  0  0  0  0  0  0  0  0  0
   28.2722  -21.1817  -15.2745 N   0  0  0  0  0  0  0  0  0  0  0  0
   26.3345  -20.7824  -13.9767 C   0  0  0  0  0  0  0  0  0  0  0  0
   25.7099  -21.7661  -14.4426 O   0  0  0  0  0  0  0  0  0  0  0  0
   25.9752  -20.3480  -12.6767 N   0  0  0  0  0  0  0  0  0  0  0  0
   24.9457  -21.0540  -11.8959 C   0  0  1  0  0  0  0  0  0  0  0  0
   25.1941  -20.8383  -10.4202 C   0  0  0  0  0  0  0  0  0  0  0  0
   26.8756  -21.3053   -9.9470 S   0  0  0  0  0  0  0  0  0  0  0  0
   23.5899  -20.5704  -12.2802 C   0  0  0  0  0  0  0  0  0  0  0  0
   23.3347  -19.3607  -12.1837 O   0  0  0  0  0  0  0  0  0  0  0  0
   22.6287  -21.4815  -12.7419 N   0  0  0  0  0  0  0  0  0  0  0  0
   21.3082  -21.0997  -13.1306 C   0  0  1  0  0  0  0  0  0  0  0  0
   21.0161  -21.2003  -14.5922 C   0  0  0  0  0  0  0  0  0  0  0  0
   21.8864  -20.3058  -15.3965 C   0  0  0  0  0  0  0  0  0  0  0  0
   23.0085  -20.8040  -16.0480 C   0  0  0  0  0  0  0  0  0  0  0  0
   23.8340  -20.0033  -16.7997 C   0  0  0  0  0  0  0  0  0  0  0  0
   23.5756  -18.6573  -16.9371 C   0  0  0  0  0  0  0  0  0  0  0  0
   22.4673  -18.1459  -16.2981 C   0  0  0  0  0  0  0  0  0  0  0  0
   21.6387  -18.9502  -15.5435 C   0  0  0  0  0  0  0  0  0  0  0  0
   20.2264  -21.7530  -12.3075 C   0  0  0  0  0  0  0  0  0  0  0  0
   20.4686  -22.7738  -11.4165 O   0  0  0  0  0  0  0  0  0  0  0  0
   19.0321  -21.3503  -12.4305 O   0  0  0  0  0  0  0  0  0  0  0  0
  2  4  1  0
  2  1  1  1
  3  2  1  0
  4  5  1  0
  5  7  1  0
  5  6  1  6
  7  8  2  0
  9 10  1  0
  9  7  1  0
 10 11  1  1
 12 11  1  0
 13 10  1  0
 13 14  2  0
 15 13  1  0
 16 15  1  0
 16 24  1  0
 16 17  1  6
 18 17  1  0
 19 18  2  0
 20 19  1  0
 21 22  1  0
 21 20  2  0
 22 23  2  0
 23 18  1  0
 24 25  1  0
 26 24  2  0
M  END
$$$$
