LCF.pdb
     RDKit          3D

 26 26  0  0  1  0  0  0  0  0999 V2000
   27.1377  -13.9439  -16.6744 C   0  0  0  0  0  0  0  0  0  0  0  0
   25.6452  -14.0987  -16.7024 C   0  0  1  0  0  0  0  0  0  0  0  0
   25.1695  -14.9826  -15.5698 C   0  0  0  0  0  0  0  0  0  0  0  0
   24.8841  -12.8411  -16.8601 C   0  0  0  0  0  0  0  0  0  0  0  0
   23.4113  -12.9126  -16.9857 C   0  0  2  0  0  0  0  0  0  0  0  0
   22.9086  -13.8217  -17.9561 N   0  0  0  0  0  0  0  0  0  0  0  0
   22.7581  -11.5978  -17.1627 C   0  0  0  0  0  0  0  0  0  0  0  0
   23.4009  -10.5760  -16.8200 O   0  0  0  0  0  0  0  0  0  0  0  0
   21.4586  -11.3947  -17.6901 N   0  0  0  0  0  0  0  0  0  0  0  0
   20.8881  -10.0425  -17.8084 C   0  0  1  0  0  0  0  0  0  0  0  0
   19.6505  -10.0902  -18.6756 C   0  0  0  0  0  0  0  0  0  0  0  0
   19.9737  -10.8925  -20.2634 S   0  0  0  0  0  0  0  0  0  0  0  0
   20.5671   -9.5020  -16.4577 C   0  0  0  0  0  0  0  0  0  0  0  0
   20.0950  -10.2659  -15.6025 O   0  0  0  0  0  0  0  0  0  0  0  0
   20.8009   -8.1485  -16.1738 N   0  0  0  0  0  0  0  0  0  0  0  0
   20.6126   -7.5742  -14.8794 C   0  0  1  0  0  0  0  0  0  0  0  0
   21.7159   -7.8199  -13.9027 C   0  0  0  0  0  0  0  0  0  0  0  0
   21.4195   -7.2366  -12.5699 C   0  0  0  0  0  0  0  0  0  0  0  0
   20.8422   -8.0087  -11.5688 C   0  0  0  0  0  0  0  0  0  0  0  0
   20.5554   -7.4995  -10.3254 C   0  0  0  0  0  0  0  0  0  0  0  0
   20.8338   -6.1852  -10.0213 C   0  0  0  0  0  0  0  0  0  0  0  0
   21.4063   -5.4047  -11.0016 C   0  0  0  0  0  0  0  0  0  0  0  0
   21.6941   -5.9164  -12.2499 C   0  0  0  0  0  0  0  0  0  0  0  0
   20.2274   -6.1165  -14.9184 C   0  0  0  0  0  0  0  0  0  0  0  0
   20.8246   -5.2002  -15.7540 O   0  0  0  0  0  0  0  0  0  0  0  0
   19.3087   -5.7024  -14.1516 O   0  0  0  0  0  0  0  0  0  0  0  0
  2  4  1  0
  2  1  1  1
  3  2  1  0
  4  5  1  0
  5  7  1  0
  5  6  1  6
  7  8  2  0
  9 10  1  0
  9  7  1  0
 10 11  1  6
 12 11  1  0
 13 10  1  0
 13 14  2  0
 15 13  1  0
 16 15  1  0
 16 24  1  0
 16 17  1  1
 18 17  1  0
 19 18  2  0
 20 19  1  0
 21 22  1  0
 21 20  2  0
 22 23  2  0
 23 18  1  0
 24 25  1  0
 26 24  2  0
M  END
$$$$
