LCF.pdb
     RDKit          3D

 26 26  0  0  1  0  0  0  0  0999 V2000
   23.7637  -17.6433  -17.8575 C   0  0  0  0  0  0  0  0  0  0  0  0
   23.5826  -18.7968  -16.9146 C   0  0  1  0  0  0  0  0  0  0  0  0
   23.9245  -20.1080  -17.5886 C   0  0  0  0  0  0  0  0  0  0  0  0
   24.1873  -18.6186  -15.5774 C   0  0  0  0  0  0  0  0  0  0  0  0
   24.4585  -19.8182  -14.7544 C   0  0  2  0  0  0  0  0  0  0  0  0
   23.7555  -20.9992  -15.1174 N   0  0  0  0  0  0  0  0  0  0  0  0
   24.3189  -19.5936  -13.2994 C   0  0  0  0  0  0  0  0  0  0  0  0
   24.7314  -18.5034  -12.8349 O   0  0  0  0  0  0  0  0  0  0  0  0
   23.7546  -20.5131  -12.3806 N   0  0  0  0  0  0  0  0  0  0  0  0
   23.6636  -20.1962  -10.9456 C   0  0  1  0  0  0  0  0  0  0  0  0
   22.3108  -20.6190  -10.4193 C   0  0  0  0  0  0  0  0  0  0  0  0
   22.2689  -20.6362   -8.6118 S   0  0  0  0  0  0  0  0  0  0  0  0
   24.7581  -20.8785  -10.1998 C   0  0  0  0  0  0  0  0  0  0  0  0
   25.0726  -22.0344  -10.5205 O   0  0  0  0  0  0  0  0  0  0  0  0
   25.4125  -20.2105   -9.1544 N   0  0  0  0  0  0  0  0  0  0  0  0
   26.3967  -20.8276   -8.3232 C   0  0  1  0  0  0  0  0  0  0  0  0
   27.7143  -20.1263   -8.2613 C   0  0  0  0  0  0  0  0  0  0  0  0
   28.1460  -19.8752   -6.8631 C   0  0  0  0  0  0  0  0  0  0  0  0
   27.9186  -18.6441   -6.2595 C   0  0  0  0  0  0  0  0  0  0  0  0
   28.3054  -18.3797   -4.9679 C   0  0  0  0  0  0  0  0  0  0  0  0
   28.9423  -19.3398   -4.2130 C   0  0  0  0  0  0  0  0  0  0  0  0
   29.1762  -20.5664   -4.7952 C   0  0  0  0  0  0  0  0  0  0  0  0
   28.7876  -20.8314   -6.0919 C   0  0  0  0  0  0  0  0  0  0  0  0
   25.8906  -21.1696   -6.9442 C   0  0  0  0  0  0  0  0  0  0  0  0
   26.3520  -22.2422   -6.2154 O   0  0  0  0  0  0  0  0  0  0  0  0
   24.9991  -20.4403   -6.4178 O   0  0  0  0  0  0  0  0  0  0  0  0
  2  4  1  0
  2  1  1  6
  3  2  1  0
  4  5  1  0
  5  7  1  0
  5  6  1  6
  7  8  2  0
  9 10  1  0
  9  7  1  0
 10 11  1  1
 12 11  1  0
 13 10  1  0
 13 14  2  0
 15 13  1  0
 16 15  1  0
 16 24  1  0
 16 17  1  1
 18 17  1  0
 19 18  2  0
 20 19  1  0
 21 22  1  0
 21 20  2  0
 22 23  2  0
 23 18  1  0
 24 25  1  0
 26 24  2  0
M  END
$$$$
