LCF.pdb
     RDKit          3D

 26 26  0  0  1  0  0  0  0  0999 V2000
   26.3948  -15.1400  -16.4602 C   0  0  0  0  0  0  0  0  0  0  0  0
   26.9450  -16.4889  -16.0993 C   0  0  1  0  0  0  0  0  0  0  0  0
   28.3235  -16.6891  -16.6908 C   0  0  0  0  0  0  0  0  0  0  0  0
   26.8313  -16.8542  -14.6713 C   0  0  0  0  0  0  0  0  0  0  0  0
   27.3761  -18.1558  -14.2252 C   0  0  2  0  0  0  0  0  0  0  0  0
   27.7119  -19.0797  -15.2520 N   0  0  0  0  0  0  0  0  0  0  0  0
   26.5487  -18.8367  -13.2060 C   0  0  0  0  0  0  0  0  0  0  0  0
   25.7214  -18.1425  -12.5670 O   0  0  0  0  0  0  0  0  0  0  0  0
   26.6131  -20.2164  -12.8890 N   0  0  0  0  0  0  0  0  0  0  0  0
   25.7399  -20.8019  -11.8582 C   0  0  1  0  0  0  0  0  0  0  0  0
   25.2280  -22.1434  -12.3319 C   0  0  0  0  0  0  0  0  0  0  0  0
   26.4869  -23.0542  -13.2566 S   0  0  0  0  0  0  0  0  0  0  0  0
   26.4847  -20.9430  -10.5756 C   0  0  0  0  0  0  0  0  0  0  0  0
   27.7237  -20.9904  -10.6034 O   0  0  0  0  0  0  0  0  0  0  0  0
   25.7813  -21.0195   -9.3646 N   0  0  0  0  0  0  0  0  0  0  0  0
   26.4144  -20.9728   -8.0849 C   0  0  1  0  0  0  0  0  0  0  0  0
   27.3866  -19.8551   -7.8913 C   0  0  0  0  0  0  0  0  0  0  0  0
   27.9722  -19.8571   -6.5270 C   0  0  0  0  0  0  0  0  0  0  0  0
   27.4503  -19.0432   -5.5285 C   0  0  0  0  0  0  0  0  0  0  0  0
   27.9689  -19.0215   -4.2564 C   0  0  0  0  0  0  0  0  0  0  0  0
   29.0412  -19.8176   -3.9194 C   0  0  0  0  0  0  0  0  0  0  0  0
   29.5717  -20.6310   -4.8966 C   0  0  0  0  0  0  0  0  0  0  0  0
   29.0507  -20.6525   -6.1737 C   0  0  0  0  0  0  0  0  0  0  0  0
   25.4471  -21.0661   -6.9316 C   0  0  0  0  0  0  0  0  0  0  0  0
   25.7395  -21.7117   -5.7516 O   0  0  0  0  0  0  0  0  0  0  0  0
   24.3069  -20.5257   -7.0398 O   0  0  0  0  0  0  0  0  0  0  0  0
  2  4  1  0
  2  1  1  1
  3  2  1  0
  4  5  1  0
  5  7  1  0
  5  6  1  6
  7  8  2  0
  9 10  1  0
  9  7  1  0
 10 11  1  6
 12 11  1  0
 13 10  1  0
 13 14  2  0
 15 13  1  0
 16 15  1  0
 16 24  1  0
 16 17  1  1
 18 17  1  0
 19 18  2  0
 20 19  1  0
 21 22  1  0
 21 20  2  0
 22 23  2  0
 23 18  1  0
 24 25  1  0
 26 24  2  0
M  END
$$$$
