LCF.pdb
     RDKit          3D

 26 26  0  0  1  0  0  0  0  0999 V2000
   40.7995  -12.2422  -10.8957 C   0  0  0  0  0  0  0  0  0  0  0  0
   41.9905  -11.5063  -10.3550 C   0  0  1  0  0  0  0  0  0  0  0  0
   42.8038  -10.8928  -11.4741 C   0  0  0  0  0  0  0  0  0  0  0  0
   41.7076  -10.5906   -9.2293 C   0  0  0  0  0  0  0  0  0  0  0  0
   42.8274   -9.8263   -8.6361 C   0  0  2  0  0  0  0  0  0  0  0  0
   43.7321  -10.5665   -7.8272 N   0  0  0  0  0  0  0  0  0  0  0  0
   42.4068   -8.6082   -7.9107 C   0  0  0  0  0  0  0  0  0  0  0  0
   42.0385   -8.7372   -6.7181 O   0  0  0  0  0  0  0  0  0  0  0  0
   42.3849   -7.2996   -8.4540 N   0  0  0  0  0  0  0  0  0  0  0  0
   41.9463   -6.1483   -7.6478 C   0  0  1  0  0  0  0  0  0  0  0  0
   43.1426   -5.2950   -7.2923 C   0  0  0  0  0  0  0  0  0  0  0  0
   42.6772   -3.8795   -6.2680 S   0  0  0  0  0  0  0  0  0  0  0  0
   40.9339   -5.3535   -8.3982 C   0  0  0  0  0  0  0  0  0  0  0  0
   41.0562   -5.2325   -9.6263 O   0  0  0  0  0  0  0  0  0  0  0  0
   39.8654   -4.7579   -7.7119 N   0  0  0  0  0  0  0  0  0  0  0  0
   38.8806   -3.9424   -8.3488 C   0  0  1  0  0  0  0  0  0  0  0  0
   37.5278   -4.5611   -8.4866 C   0  0  0  0  0  0  0  0  0  0  0  0
   37.5646   -5.8048   -9.2966 C   0  0  0  0  0  0  0  0  0  0  0  0
   37.4757   -5.7531  -10.6826 C   0  0  0  0  0  0  0  0  0  0  0  0
   37.5067   -6.8850  -11.4608 C   0  0  0  0  0  0  0  0  0  0  0  0
   37.6289   -8.1311  -10.8867 C   0  0  0  0  0  0  0  0  0  0  0  0
   37.7184   -8.2017   -9.5137 C   0  0  0  0  0  0  0  0  0  0  0  0
   37.6872   -7.0650   -8.7328 C   0  0  0  0  0  0  0  0  0  0  0  0
   38.7925   -2.5493   -7.7777 C   0  0  0  0  0  0  0  0  0  0  0  0
   39.8967   -1.8057   -7.4280 O   0  0  0  0  0  0  0  0  0  0  0  0
   37.6523   -2.0247   -7.6089 O   0  0  0  0  0  0  0  0  0  0  0  0
  2  4  1  0
  2  1  1  6
  3  2  1  0
  4  5  1  0
  5  7  1  0
  5  6  1  1
  7  8  2  0
  9 10  1  0
  9  7  1  0
 10 11  1  6
 12 11  1  0
 13 10  1  0
 13 14  2  0
 15 13  1  0
 16 15  1  0
 16 24  1  0
 16 17  1  1
 18 17  1  0
 19 18  2  0
 20 19  1  0
 21 22  1  0
 21 20  2  0
 22 23  2  0
 23 18  1  0
 24 25  1  0
 26 24  2  0
M  END
$$$$
