QRP.pdb
     RDKit          3D

 28 28  0  0  1  0  0  0  0  0999 V2000
   20.2335  -21.4988  -19.3430 N   0  0  0  0  0  0  0  0  0  0  0  0
   20.6142  -20.1421  -19.2271 C   0  0  0  0  0  0  0  0  0  0  0  0
   20.6351  -19.4137  -20.2428 O   0  0  0  0  0  0  0  0  0  0  0  0
   20.9841  -19.5858  -17.9227 C   0  0  0  0  0  0  0  0  0  0  0  0
   20.9270  -20.6414  -16.8347 C   0  0  0  0  0  0  0  0  0  0  0  0
   20.9228  -19.9225  -15.5054 C   0  0  2  0  0  0  0  0  0  0  0  0
   19.8617  -18.9631  -15.4982 N   0  0  0  0  0  0  0  0  0  0  0  0
   22.2398  -19.3481  -15.1519 C   0  0  0  0  0  0  0  0  0  0  0  0
   22.4286  -18.1425  -15.3944 O   0  0  0  0  0  0  0  0  0  0  0  0
   24.8296  -21.4556  -10.4227 N   0  0  0  0  0  0  0  0  0  0  0  0
   25.9205  -20.7185   -9.8935 C   0  0  0  0  0  0  0  0  0  0  0  0
   25.9496  -20.3639   -8.6573 N   0  0  0  0  0  0  0  0  0  0  0  0
   26.9829  -20.3815  -10.7641 N   0  0  0  0  0  0  0  0  0  0  0  0
   27.1557  -21.1871  -11.9790 C   0  0  0  0  0  0  0  0  0  0  0  0
   26.6434  -20.3485  -13.1180 C   0  0  0  0  0  0  0  0  0  0  0  0
   25.2085  -20.7097  -13.3925 C   0  0  0  0  0  0  0  0  0  0  0  0
   24.6101  -19.6086  -14.2727 C   0  0  2  0  0  0  0  0  0  0  0  0
   23.2559  -20.1131  -14.5641 N   0  0  0  0  0  0  0  0  0  0  0  0
   25.3687  -19.6891  -15.5570 C   0  0  0  0  0  0  0  0  0  0  0  0
   25.1536  -20.7180  -16.2696 O   0  0  0  0  0  0  0  0  0  0  0  0
   26.7948  -19.8858   -8.2711 N   0  0  0  0  0  0  0  0  0  0  0  0
   26.2845  -18.6941  -15.9934 C   0  0  0  0  0  0  0  0  0  0  0  0
   26.7302  -17.6196  -15.1034 C   0  0  0  0  0  0  0  0  0  0  0  0
   27.9002  -16.9878  -15.8250 C   0  0  0  0  0  0  0  0  0  0  0  0
   27.4209  -17.1194  -17.2727 C   0  0  1  0  0  0  0  0  0  0  0  0
   26.9245  -18.5626  -17.2565 C   0  0  0  0  0  0  0  0  0  0  0  0
   28.1580  -19.4077  -17.2794 O   0  0  0  0  0  0  0  0  0  0  0  0
   28.4797  -19.9776  -16.2096 O   0  0  0  0  0  0  0  0  0  0  0  0
  2  1  1  0
  3  2  2  0
  4  2  1  0
  5  4  1  0
  6  5  1  0
  6  7  1  6
  8 18  1  0
  8  6  1  0
  9  8  2  0
 10 11  1  0
 11 12  2  0
 11 13  1  0
 13 14  1  0
 15 14  1  0
 17 16  1  1
 16 15  1  0
 17 18  1  0
 19 17  1  0
 20 19  2  0
 21 22  1  0
 21 19  1  0
 23 22  1  0
 24 25  1  0
 24 23  1  0
 25 21  1  0
 26 28  1  0
 25 26  1  6
 27 26  2  0
M  END
$$$$
