QRP.pdb
     RDKit          3D

 28 28  0  0  1  0  0  0  0  0999 V2000
   22.1781  -20.9359  -16.0668 N   0  0  0  0  0  0  0  0  0  0  0  0
   21.3824  -22.0424  -15.6909 C   0  0  0  0  0  0  0  0  0  0  0  0
   21.3498  -23.0596  -16.4169 O   0  0  0  0  0  0  0  0  0  0  0  0
   20.5961  -22.0029  -14.4547 C   0  0  0  0  0  0  0  0  0  0  0  0
   20.7954  -20.6943  -13.7139 C   0  0  0  0  0  0  0  0  0  0  0  0
   21.5317  -21.0069  -12.4316 C   0  0  2  0  0  0  0  0  0  0  0  0
   20.6850  -20.6965  -11.3211 N   0  0  0  0  0  0  0  0  0  0  0  0
   22.8631  -20.3657  -12.3555 C   0  0  0  0  0  0  0  0  0  0  0  0
   22.9032  -19.1254  -12.2657 O   0  0  0  0  0  0  0  0  0  0  0  0
   30.5939  -22.6928   -9.2159 N   0  0  0  0  0  0  0  0  0  0  0  0
   30.9756  -21.9834  -10.3841 C   0  0  0  0  0  0  0  0  0  0  0  0
   32.2138  -21.8298  -10.6972 N   0  0  0  0  0  0  0  0  0  0  0  0
   29.9544  -21.4463  -11.2019 N   0  0  0  0  0  0  0  0  0  0  0  0
   28.5760  -21.8876  -10.9564 C   0  0  0  0  0  0  0  0  0  0  0  0
   27.7054  -21.0922  -11.8904 C   0  0  0  0  0  0  0  0  0  0  0  0
   26.2677  -21.4851  -11.6826 C   0  0  0  0  0  0  0  0  0  0  0  0
   25.3972  -20.5108  -12.4814 C   0  0  2  0  0  0  0  0  0  0  0  0
   24.0522  -21.1061  -12.3820 N   0  0  0  0  0  0  0  0  0  0  0  0
   25.8263  -20.6885  -13.9012 C   0  0  0  0  0  0  0  0  0  0  0  0
   25.5459  -21.8067  -14.4341 O   0  0  0  0  0  0  0  0  0  0  0  0
   32.4713  -21.3341  -11.5804 N   0  0  0  0  0  0  0  0  0  0  0  0
   26.5078  -19.6899  -14.6479 C   0  0  0  0  0  0  0  0  0  0  0  0
   27.1463  -18.5458  -13.9933 C   0  0  0  0  0  0  0  0  0  0  0  0
   28.0015  -17.9181  -15.0719 C   0  0  0  0  0  0  0  0  0  0  0  0
   27.1082  -18.1583  -16.2914 C   0  0  2  0  0  0  0  0  0  0  0  0
   26.7203  -19.6149  -16.0520 C   0  0  0  0  0  0  0  0  0  0  0  0
   27.9312  -20.4137  -16.4151 O   0  0  0  0  0  0  0  0  0  0  0  0
   28.2660  -20.4259  -17.6237 O   0  0  0  0  0  0  0  0  0  0  0  0
  2  1  1  0
  3  2  2  0
  4  2  1  0
  5  4  1  0
  6  5  1  0
  6  7  1  1
  8 18  1  0
  8  6  1  0
  9  8  2  0
 10 11  1  0
 11 12  2  0
 11 13  1  0
 13 14  1  0
 15 14  1  0
 17 16  1  1
 16 15  1  0
 17 18  1  0
 19 17  1  0
 20 19  2  0
 21 22  1  0
 21 19  1  0
 23 22  1  0
 24 25  1  0
 24 23  1  0
 25 21  1  0
 26 28  1  0
 25 26  1  6
 27 26  2  0
M  END
$$$$
