QRP.pdb
     RDKit          3D

 28 28  0  0  1  0  0  0  0  0999 V2000
   29.2080  -18.3178  -19.0508 N   0  0  0  0  0  0  0  0  0  0  0  0
   29.0321  -19.5290  -19.7586 C   0  0  0  0  0  0  0  0  0  0  0  0
   29.0514  -19.5268  -21.0085 O   0  0  0  0  0  0  0  0  0  0  0  0
   28.8274  -20.7867  -19.0344 C   0  0  0  0  0  0  0  0  0  0  0  0
   28.8796  -20.5754  -17.5332 C   0  0  0  0  0  0  0  0  0  0  0  0
   28.6198  -21.9123  -16.8780 C   0  0  2  0  0  0  0  0  0  0  0  0
   28.8460  -22.9515  -17.8347 N   0  0  0  0  0  0  0  0  0  0  0  0
   27.2946  -21.9906  -16.2242 C   0  0  0  0  0  0  0  0  0  0  0  0
   26.3920  -22.6066  -16.8190 O   0  0  0  0  0  0  0  0  0  0  0  0
   24.8649  -20.7760   -7.8945 N   0  0  0  0  0  0  0  0  0  0  0  0
   23.6497  -20.9245   -8.6121 C   0  0  0  0  0  0  0  0  0  0  0  0
   22.5353  -21.1285   -8.0030 N   0  0  0  0  0  0  0  0  0  0  0  0
   23.6940  -20.8416  -10.0233 N   0  0  0  0  0  0  0  0  0  0  0  0
   24.9907  -21.0416  -10.6816 C   0  0  0  0  0  0  0  0  0  0  0  0
   24.7687  -20.7667  -12.1438 C   0  0  0  0  0  0  0  0  0  0  0  0
   26.0663  -20.9472  -12.8843 C   0  0  0  0  0  0  0  0  0  0  0  0
   25.7340  -21.4425  -14.2948 C   0  0  2  0  0  0  0  0  0  0  0  0
   27.0388  -21.4004  -14.9795 N   0  0  0  0  0  0  0  0  0  0  0  0
   24.9116  -20.3523  -14.9004 C   0  0  0  0  0  0  0  0  0  0  0  0
   25.4692  -19.2147  -14.9883 O   0  0  0  0  0  0  0  0  0  0  0  0
   21.6475  -21.2019   -8.5494 N   0  0  0  0  0  0  0  0  0  0  0  0
   23.5814  -20.5360  -15.3652 C   0  0  0  0  0  0  0  0  0  0  0  0
   22.8850  -21.8151  -15.2095 C   0  0  0  0  0  0  0  0  0  0  0  0
   21.4402  -21.5041  -15.5326 C   0  0  0  0  0  0  0  0  0  0  0  0
   21.6341  -20.4589  -16.6338 C   0  0  2  0  0  0  0  0  0  0  0  0
   22.7172  -19.5963  -15.9917 C   0  0  0  0  0  0  0  0  0  0  0  0
   22.0157  -18.7910  -14.9450 O   0  0  0  0  0  0  0  0  0  0  0  0
   22.1765  -19.1415  -13.7517 O   0  0  0  0  0  0  0  0  0  0  0  0
  2  1  1  0
  3  2  2  0
  4  2  1  0
  5  4  1  0
  6  5  1  0
  6  7  1  6
  8 18  1  0
  8  6  1  0
  9  8  2  0
 10 11  1  0
 11 12  2  0
 11 13  1  0
 13 14  1  0
 15 14  1  0
 17 16  1  1
 16 15  1  0
 17 18  1  0
 19 17  1  0
 20 19  2  0
 21 22  1  0
 21 19  1  0
 23 22  1  0
 24 25  1  0
 24 23  1  0
 25 21  1  0
 26 28  1  0
 25 26  1  1
 27 26  2  0
M  END
$$$$
