QRP.pdb
     RDKit          3D

 28 28  0  0  1  0  0  0  0  0999 V2000
   24.9053  -26.8559  -18.9186 N   0  0  0  0  0  0  0  0  0  0  0  0
   25.8924  -27.3256  -18.0221 C   0  0  0  0  0  0  0  0  0  0  0  0
   26.2916  -28.5076  -18.1009 O   0  0  0  0  0  0  0  0  0  0  0  0
   26.4498  -26.4339  -17.0012 C   0  0  0  0  0  0  0  0  0  0  0  0
   25.9294  -25.0179  -17.1597 C   0  0  0  0  0  0  0  0  0  0  0  0
   25.5564  -24.5153  -15.7840 C   0  0  2  0  0  0  0  0  0  0  0  0
   24.4276  -25.2542  -15.3086 N   0  0  0  0  0  0  0  0  0  0  0  0
   25.3652  -23.0489  -15.7339 C   0  0  0  0  0  0  0  0  0  0  0  0
   24.3176  -22.5855  -16.2193 O   0  0  0  0  0  0  0  0  0  0  0  0
   26.0228  -19.1332   -9.0719 N   0  0  0  0  0  0  0  0  0  0  0  0
   25.4380  -20.4107   -9.2714 C   0  0  0  0  0  0  0  0  0  0  0  0
   24.4171  -20.7917   -8.5878 N   0  0  0  0  0  0  0  0  0  0  0  0
   26.0083  -21.2603  -10.2476 N   0  0  0  0  0  0  0  0  0  0  0  0
   26.8080  -20.6420  -11.3121 C   0  0  0  0  0  0  0  0  0  0  0  0
   26.0714  -20.9008  -12.5979 C   0  0  0  0  0  0  0  0  0  0  0  0
   26.8981  -20.4005  -13.7516 C   0  0  0  0  0  0  0  0  0  0  0  0
   26.1450  -20.7306  -15.0435 C   0  0  2  0  0  0  0  0  0  0  0  0
   26.3151  -22.1899  -15.1655 N   0  0  0  0  0  0  0  0  0  0  0  0
   26.9675  -20.1240  -16.1329 C   0  0  0  0  0  0  0  0  0  0  0  0
   28.1160  -20.6340  -16.3162 O   0  0  0  0  0  0  0  0  0  0  0  0
   23.9830  -21.7240   -8.7734 N   0  0  0  0  0  0  0  0  0  0  0  0
   26.5274  -19.0410  -16.9407 C   0  0  0  0  0  0  0  0  0  0  0  0
   25.3012  -18.3025  -16.6307 C   0  0  0  0  0  0  0  0  0  0  0  0
   25.3625  -17.0747  -17.5123 C   0  0  0  0  0  0  0  0  0  0  0  0
   26.0285  -17.6730  -18.7538 C   0  0  1  0  0  0  0  0  0  0  0  0
   27.1433  -18.4792  -18.0930 C   0  0  0  0  0  0  0  0  0  0  0  0
   28.1650  -17.4727  -17.6700 O   0  0  0  0  0  0  0  0  0  0  0  0
   28.2212  -17.1946  -16.4484 O   0  0  0  0  0  0  0  0  0  0  0  0
  2  1  1  0
  3  2  2  0
  4  2  1  0
  5  4  1  0
  6  5  1  0
  6  7  1  6
  8 18  1  0
  8  6  1  0
  9  8  2  0
 10 11  1  0
 11 12  2  0
 11 13  1  0
 13 14  1  0
 15 14  1  0
 17 16  1  1
 16 15  1  0
 17 18  1  0
 19 17  1  0
 20 19  2  0
 21 22  1  0
 21 19  1  0
 23 22  1  0
 24 25  1  0
 24 23  1  0
 25 21  1  0
 26 28  1  0
 25 26  1  1
 27 26  2  0
M  END
$$$$
