QRP.pdb
     RDKit          3D

 28 28  0  0  1  0  0  0  0  0999 V2000
   19.3276  -15.6630  -14.9838 N   0  0  0  0  0  0  0  0  0  0  0  0
   18.6662  -16.8650  -15.3249 C   0  0  0  0  0  0  0  0  0  0  0  0
   17.4798  -17.0429  -14.9733 O   0  0  0  0  0  0  0  0  0  0  0  0
   19.3641  -17.9032  -16.0885 C   0  0  0  0  0  0  0  0  0  0  0  0
   20.7665  -17.4642  -16.4651 C   0  0  0  0  0  0  0  0  0  0  0  0
   21.5941  -18.7129  -16.6649 C   0  0  2  0  0  0  0  0  0  0  0  0
   20.8619  -19.8400  -16.1751 N   0  0  0  0  0  0  0  0  0  0  0  0
   22.9566  -18.6032  -16.0983 C   0  0  0  0  0  0  0  0  0  0  0  0
   23.6837  -17.6836  -16.5150 O   0  0  0  0  0  0  0  0  0  0  0  0
   25.8670  -20.5123   -8.7898 N   0  0  0  0  0  0  0  0  0  0  0  0
   24.6364  -20.6911   -9.4733 C   0  0  0  0  0  0  0  0  0  0  0  0
   23.5108  -20.5954   -8.8580 N   0  0  0  0  0  0  0  0  0  0  0  0
   24.6778  -20.9785  -10.8575 N   0  0  0  0  0  0  0  0  0  0  0  0
   25.9853  -21.2669  -11.4592 C   0  0  0  0  0  0  0  0  0  0  0  0
   26.0632  -20.4423  -12.7150 C   0  0  0  0  0  0  0  0  0  0  0  0
   24.6877  -20.3195  -13.3129 C   0  0  0  0  0  0  0  0  0  0  0  0
   24.8012  -19.4544  -14.5714 C   0  0  2  0  0  0  0  0  0  0  0  0
   23.4358  -19.4908  -15.1259 N   0  0  0  0  0  0  0  0  0  0  0  0
   25.6513  -20.2492  -15.5080 C   0  0  0  0  0  0  0  0  0  0  0  0
   25.1473  -21.3331  -15.9371 O   0  0  0  0  0  0  0  0  0  0  0  0
   22.6158  -20.6840   -9.3900 N   0  0  0  0  0  0  0  0  0  0  0  0
   26.9510  -19.8506  -15.9213 C   0  0  0  0  0  0  0  0  0  0  0  0
   27.6196  -18.6881  -15.3324 C   0  0  0  0  0  0  0  0  0  0  0  0
   29.0543  -18.7961  -15.7999 C   0  0  0  0  0  0  0  0  0  0  0  0
   28.8338  -19.3736  -17.2001 C   0  0  1  0  0  0  0  0  0  0  0  0
   27.8079  -20.4575  -16.8804 C   0  0  0  0  0  0  0  0  0  0  0  0
   28.5824  -21.5585  -16.2292 O   0  0  0  0  0  0  0  0  0  0  0  0
   29.2885  -22.2784  -16.9748 O   0  0  0  0  0  0  0  0  0  0  0  0
  2  1  1  0
  3  2  2  0
  4  2  1  0
  5  4  1  0
  6  5  1  0
  6  7  1  1
  8 18  1  0
  8  6  1  0
  9  8  2  0
 10 11  1  0
 11 12  2  0
 11 13  1  0
 13 14  1  0
 15 14  1  0
 17 16  1  1
 16 15  1  0
 17 18  1  0
 19 17  1  0
 20 19  2  0
 21 22  1  0
 21 19  1  0
 23 22  1  0
 24 25  1  0
 24 23  1  0
 25 21  1  0
 26 28  1  0
 25 26  1  1
 27 26  2  0
M  END
$$$$
