QRP.pdb
     RDKit          3D

 28 28  0  0  1  0  0  0  0  0999 V2000
   27.8102  -12.5222  -15.0339 N   0  0  0  0  0  0  0  0  0  0  0  0
   27.6702  -12.5561  -16.4404 C   0  0  0  0  0  0  0  0  0  0  0  0
   28.6008  -12.1464  -17.1676 O   0  0  0  0  0  0  0  0  0  0  0  0
   26.4400  -13.0692  -17.0497 C   0  0  0  0  0  0  0  0  0  0  0  0
   25.4281  -13.4756  -15.9951 C   0  0  0  0  0  0  0  0  0  0  0  0
   24.1699  -13.9030  -16.7151 C   0  0  2  0  0  0  0  0  0  0  0  0
   24.5219  -14.7882  -17.7822 N   0  0  0  0  0  0  0  0  0  0  0  0
   23.3322  -12.7622  -17.1470 C   0  0  0  0  0  0  0  0  0  0  0  0
   23.5109  -12.3155  -18.2943 O   0  0  0  0  0  0  0  0  0  0  0  0
   15.9141  -14.1385  -15.5840 N   0  0  0  0  0  0  0  0  0  0  0  0
   17.0714  -14.8854  -15.9254 C   0  0  0  0  0  0  0  0  0  0  0  0
   17.0990  -16.1659  -15.8058 N   0  0  0  0  0  0  0  0  0  0  0  0
   18.2015  -14.1828  -16.4044 N   0  0  0  0  0  0  0  0  0  0  0  0
   18.0799  -12.7313  -16.5870 C   0  0  0  0  0  0  0  0  0  0  0  0
   19.3915  -12.2663  -17.1583 C   0  0  0  0  0  0  0  0  0  0  0  0
   20.1311  -11.4707  -16.1169 C   0  0  0  0  0  0  0  0  0  0  0  0
   21.4858  -11.0717  -16.7091 C   0  0  2  0  0  0  0  0  0  0  0  0
   22.3649  -12.1867  -16.3126 N   0  0  0  0  0  0  0  0  0  0  0  0
   21.9234   -9.8914  -15.9050 C   0  0  0  0  0  0  0  0  0  0  0  0
   22.2737  -10.1295  -14.7077 O   0  0  0  0  0  0  0  0  0  0  0  0
   17.9712  -16.6931  -16.0368 N   0  0  0  0  0  0  0  0  0  0  0  0
   21.9624   -8.5646  -16.4124 C   0  0  0  0  0  0  0  0  0  0  0  0
   21.5667   -8.2587  -17.7890 C   0  0  0  0  0  0  0  0  0  0  0  0
   21.4511   -6.7508  -17.8261 C   0  0  0  0  0  0  0  0  0  0  0  0
   22.5907   -6.3743  -16.8762 C   0  0  1  0  0  0  0  0  0  0  0  0
   22.3290   -7.3640  -15.7442 C   0  0  0  0  0  0  0  0  0  0  0  0
   21.1450   -6.8227  -15.0085 O   0  0  0  0  0  0  0  0  0  0  0  0
   20.0277   -7.3259  -15.2758 O   0  0  0  0  0  0  0  0  0  0  0  0
  2  1  1  0
  3  2  2  0
  4  2  1  0
  5  4  1  0
  6  5  1  0
  6  7  1  6
  8 18  1  0
  8  6  1  0
  9  8  2  0
 10 11  1  0
 11 12  2  0
 11 13  1  0
 13 14  1  0
 15 14  1  0
 17 16  1  1
 16 15  1  0
 17 18  1  0
 19 17  1  0
 20 19  2  0
 21 22  1  0
 21 19  1  0
 23 22  1  0
 24 25  1  0
 24 23  1  0
 25 21  1  0
 26 28  1  0
 25 26  1  1
 27 26  2  0
M  END
$$$$
