QRP.pdb
     RDKit          3D

 28 28  0  0  1  0  0  0  0  0999 V2000
   26.1754  -22.3143  -16.1578 N   0  0  0  0  0  0  0  0  0  0  0  0
   27.3455  -21.5433  -16.3455 C   0  0  0  0  0  0  0  0  0  0  0  0
   27.5252  -20.5107  -15.6642 O   0  0  0  0  0  0  0  0  0  0  0  0
   28.3484  -21.9487  -17.3343 C   0  0  0  0  0  0  0  0  0  0  0  0
   27.9300  -23.2131  -18.0603 C   0  0  0  0  0  0  0  0  0  0  0  0
   28.8636  -24.3177  -17.6219 C   0  0  2  0  0  0  0  0  0  0  0  0
   30.1795  -24.0348  -18.1064 N   0  0  0  0  0  0  0  0  0  0  0  0
   28.3781  -25.6671  -17.9866 C   0  0  0  0  0  0  0  0  0  0  0  0
   28.4379  -25.9989  -19.1842 O   0  0  0  0  0  0  0  0  0  0  0  0
   29.2759  -33.3659  -14.9956 N   0  0  0  0  0  0  0  0  0  0  0  0
   28.1201  -33.5331  -15.8017 C   0  0  0  0  0  0  0  0  0  0  0  0
   27.7390  -34.6992  -16.1887 N   0  0  0  0  0  0  0  0  0  0  0  0
   27.3917  -32.3786  -16.1712 N   0  0  0  0  0  0  0  0  0  0  0  0
   27.9565  -31.0699  -15.8200 C   0  0  0  0  0  0  0  0  0  0  0  0
   26.9404  -30.0443  -16.2430 C   0  0  0  0  0  0  0  0  0  0  0  0
   27.5161  -28.6676  -16.0490 C   0  0  0  0  0  0  0  0  0  0  0  0
   27.3279  -27.8942  -17.3573 C   0  0  2  0  0  0  0  0  0  0  0  0
   27.8643  -26.5591  -17.0362 N   0  0  0  0  0  0  0  0  0  0  0  0
   25.8500  -27.7262  -17.4946 C   0  0  0  0  0  0  0  0  0  0  0  0
   25.2875  -26.9928  -16.6236 O   0  0  0  0  0  0  0  0  0  0  0  0
   26.8779  -34.8001  -16.7720 N   0  0  0  0  0  0  0  0  0  0  0  0
   25.0818  -28.3318  -18.5253 C   0  0  0  0  0  0  0  0  0  0  0  0
   25.7038  -29.1693  -19.5533 C   0  0  0  0  0  0  0  0  0  0  0  0
   24.5430  -29.8536  -20.2410 C   0  0  0  0  0  0  0  0  0  0  0  0
   23.5035  -28.7315  -20.1856 C   0  0  2  0  0  0  0  0  0  0  0  0
   23.6764  -28.2825  -18.7372 C   0  0  0  0  0  0  0  0  0  0  0  0
   23.0116  -29.3373  -17.9117 O   0  0  0  0  0  0  0  0  0  0  0  0
   23.7571  -30.1584  -17.3261 O   0  0  0  0  0  0  0  0  0  0  0  0
  2  1  1  0
  3  2  2  0
  4  2  1  0
  5  4  1  0
  6  5  1  0
  6  7  1  6
  8 18  1  0
  8  6  1  0
  9  8  2  0
 10 11  1  0
 11 12  2  0
 11 13  1  0
 13 14  1  0
 15 14  1  0
 17 16  1  1
 16 15  1  0
 17 18  1  0
 19 17  1  0
 20 19  2  0
 21 22  1  0
 21 19  1  0
 23 22  1  0
 24 25  1  0
 24 23  1  0
 25 21  1  0
 26 28  1  0
 25 26  1  6
 27 26  2  0
M  END
$$$$
