QRP.pdb
     RDKit          3D

 28 28  0  0  1  0  0  0  0  0999 V2000
   18.4316  -17.9100  -15.3569 N   0  0  0  0  0  0  0  0  0  0  0  0
   18.6857  -19.2930  -15.2097 C   0  0  0  0  0  0  0  0  0  0  0  0
   17.7593  -20.1161  -15.3745 O   0  0  0  0  0  0  0  0  0  0  0  0
   20.0292  -19.7663  -14.8649 C   0  0  0  0  0  0  0  0  0  0  0  0
   20.9904  -18.6090  -14.6704 C   0  0  0  0  0  0  0  0  0  0  0  0
   22.1341  -18.8019  -15.6394 C   0  0  2  0  0  0  0  0  0  0  0  0
   22.5205  -20.1792  -15.6354 N   0  0  0  0  0  0  0  0  0  0  0  0
   23.2605  -17.8725  -15.4003 C   0  0  0  0  0  0  0  0  0  0  0  0
   22.9929  -16.6673  -15.2461 O   0  0  0  0  0  0  0  0  0  0  0  0
   25.9163  -22.1006  -12.9430 N   0  0  0  0  0  0  0  0  0  0  0  0
   26.1919  -21.4226  -11.7273 C   0  0  0  0  0  0  0  0  0  0  0  0
   25.5749  -21.7247  -10.6397 N   0  0  0  0  0  0  0  0  0  0  0  0
   27.1687  -20.4000  -11.7404 N   0  0  0  0  0  0  0  0  0  0  0  0
   27.5949  -19.8754  -13.0435 C   0  0  0  0  0  0  0  0  0  0  0  0
   26.4832  -18.9827  -13.5233 C   0  0  0  0  0  0  0  0  0  0  0  0
   26.8865  -18.3460  -14.8258 C   0  0  0  0  0  0  0  0  0  0  0  0
   25.7551  -17.4085  -15.2573 C   0  0  2  0  0  0  0  0  0  0  0  0
   24.5908  -18.3086  -15.3450 N   0  0  0  0  0  0  0  0  0  0  0  0
   26.0897  -17.0241  -16.6615 C   0  0  0  0  0  0  0  0  0  0  0  0
   25.9412  -17.9296  -17.5394 O   0  0  0  0  0  0  0  0  0  0  0  0
   25.7796  -21.1990   -9.7601 N   0  0  0  0  0  0  0  0  0  0  0  0
   26.5480  -15.7321  -17.0354 C   0  0  0  0  0  0  0  0  0  0  0  0
   26.8588  -14.7097  -16.0338 C   0  0  0  0  0  0  0  0  0  0  0  0
   27.5914  -13.6326  -16.8032 C   0  0  0  0  0  0  0  0  0  0  0  0
   26.8448  -13.7060  -18.1374 C   0  0  1  0  0  0  0  0  0  0  0  0
   26.8069  -15.2188  -18.3361 C   0  0  0  0  0  0  0  0  0  0  0  0
   28.1910  -15.5997  -18.7547 O   0  0  0  0  0  0  0  0  0  0  0  0
   28.8855  -16.2317  -17.9234 O   0  0  0  0  0  0  0  0  0  0  0  0
  2  1  1  0
  3  2  2  0
  4  2  1  0
  5  4  1  0
  6  5  1  0
  6  7  1  1
  8 18  1  0
  8  6  1  0
  9  8  2  0
 10 11  1  0
 11 12  2  0
 11 13  1  0
 13 14  1  0
 15 14  1  0
 17 16  1  6
 16 15  1  0
 17 18  1  0
 19 17  1  0
 20 19  2  0
 21 22  1  0
 21 19  1  0
 23 22  1  0
 24 25  1  0
 24 23  1  0
 25 21  1  0
 26 28  1  0
 25 26  1  6
 27 26  2  0
M  END
$$$$
