QRP.pdb
     RDKit          3D

 28 28  0  0  1  0  0  0  0  0999 V2000
   18.8693  -21.9339  -10.9714 N   0  0  0  0  0  0  0  0  0  0  0  0
   18.0952  -21.6712  -12.1249 C   0  0  0  0  0  0  0  0  0  0  0  0
   16.8499  -21.6068  -12.0362 O   0  0  0  0  0  0  0  0  0  0  0  0
   18.7451  -21.4742  -13.4236 C   0  0  0  0  0  0  0  0  0  0  0  0
   20.2557  -21.5419  -13.3022 C   0  0  0  0  0  0  0  0  0  0  0  0
   20.8385  -20.7362  -14.4403 C   0  0  2  0  0  0  0  0  0  0  0  0
   21.0942  -21.6083  -15.5450 N   0  0  0  0  0  0  0  0  0  0  0  0
   22.0139  -19.9316  -14.0397 C   0  0  0  0  0  0  0  0  0  0  0  0
   21.8089  -18.8987  -13.3771 O   0  0  0  0  0  0  0  0  0  0  0  0
   28.6217  -19.4962  -12.4505 N   0  0  0  0  0  0  0  0  0  0  0  0
   28.5417  -20.9124  -12.4897 C   0  0  0  0  0  0  0  0  0  0  0  0
   29.4723  -21.6191  -13.0277 N   0  0  0  0  0  0  0  0  0  0  0  0
   27.4064  -21.5325  -11.9182 N   0  0  0  0  0  0  0  0  0  0  0  0
   26.3963  -20.6705  -11.2924 C   0  0  0  0  0  0  0  0  0  0  0  0
   25.1639  -20.7740  -12.1488 C   0  0  0  0  0  0  0  0  0  0  0  0
   25.5278  -20.4764  -13.5784 C   0  0  0  0  0  0  0  0  0  0  0  0
   24.5112  -19.4665  -14.1185 C   0  0  2  0  0  0  0  0  0  0  0  0
   23.3224  -20.2976  -14.3817 N   0  0  0  0  0  0  0  0  0  0  0  0
   25.0421  -19.0655  -15.4559 C   0  0  0  0  0  0  0  0  0  0  0  0
   24.8439  -19.8858  -16.4049 O   0  0  0  0  0  0  0  0  0  0  0  0
   29.3829  -22.6596  -13.0639 N   0  0  0  0  0  0  0  0  0  0  0  0
   25.7317  -17.8463  -15.6952 C   0  0  0  0  0  0  0  0  0  0  0  0
   26.1384  -16.9675  -14.5963 C   0  0  0  0  0  0  0  0  0  0  0  0
   27.0891  -15.9773  -15.2321 C   0  0  0  0  0  0  0  0  0  0  0  0
   26.4330  -15.8251  -16.6066 C   0  0  2  0  0  0  0  0  0  0  0  0
   26.1594  -17.2908  -16.9325 C   0  0  0  0  0  0  0  0  0  0  0  0
   27.4868  -17.8698  -17.3052 O   0  0  0  0  0  0  0  0  0  0  0  0
   28.0115  -18.6662  -16.4908 O   0  0  0  0  0  0  0  0  0  0  0  0
  2  1  1  0
  3  2  2  0
  4  2  1  0
  5  4  1  0
  6  5  1  0
  6  7  1  6
  8 18  1  0
  8  6  1  0
  9  8  2  0
 10 11  1  0
 11 12  2  0
 11 13  1  0
 13 14  1  0
 15 14  1  0
 17 16  1  6
 16 15  1  0
 17 18  1  0
 19 17  1  0
 20 19  2  0
 21 22  1  0
 21 19  1  0
 23 22  1  0
 24 25  1  0
 24 23  1  0
 25 21  1  0
 26 28  1  0
 25 26  1  6
 27 26  2  0
M  END
$$$$
