QRP.pdb
     RDKit          3D

 28 28  0  0  1  0  0  0  0  0999 V2000
   15.1351  -14.0395  -12.0737 N   0  0  0  0  0  0  0  0  0  0  0  0
   14.3623  -14.1439  -10.8944 C   0  0  0  0  0  0  0  0  0  0  0  0
   14.0420  -15.2711  -10.4591 O   0  0  0  0  0  0  0  0  0  0  0  0
   13.9352  -12.9377  -10.1799 C   0  0  0  0  0  0  0  0  0  0  0  0
   14.4747  -11.6832  -10.8405 C   0  0  0  0  0  0  0  0  0  0  0  0
   14.0707  -10.5082   -9.9802 C   0  0  2  0  0  0  0  0  0  0  0  0
   12.6498  -10.5192   -9.8145 N   0  0  0  0  0  0  0  0  0  0  0  0
   14.5967   -9.2173  -10.4765 C   0  0  0  0  0  0  0  0  0  0  0  0
   13.9943   -8.6711  -11.4182 O   0  0  0  0  0  0  0  0  0  0  0  0
   14.3960   -2.6856   -6.2694 N   0  0  0  0  0  0  0  0  0  0  0  0
   13.5183   -3.7921   -6.4063 C   0  0  0  0  0  0  0  0  0  0  0  0
   12.4676   -3.9057   -5.6728 N   0  0  0  0  0  0  0  0  0  0  0  0
   13.8286   -4.7737   -7.3760 N   0  0  0  0  0  0  0  0  0  0  0  0
   15.0829   -4.6260   -8.1242 C   0  0  0  0  0  0  0  0  0  0  0  0
   15.0456   -5.6576   -9.2185 C   0  0  0  0  0  0  0  0  0  0  0  0
   16.3239   -6.4514   -9.1945 C   0  0  0  0  0  0  0  0  0  0  0  0
   16.3318   -7.3610  -10.4265 C   0  0  2  0  0  0  0  0  0  0  0  0
   15.7316   -8.6099   -9.9233 N   0  0  0  0  0  0  0  0  0  0  0  0
   17.7742   -7.6625  -10.6716 C   0  0  0  0  0  0  0  0  0  0  0  0
   18.4278   -8.1113   -9.6796 O   0  0  0  0  0  0  0  0  0  0  0  0
   11.8164   -4.7106   -5.8146 N   0  0  0  0  0  0  0  0  0  0  0  0
   18.4150   -7.4746  -11.9259 C   0  0  0  0  0  0  0  0  0  0  0  0
   17.6549   -7.1394  -13.1322 C   0  0  0  0  0  0  0  0  0  0  0  0
   18.7037   -6.7256  -14.1408 C   0  0  0  0  0  0  0  0  0  0  0  0
   19.8334   -7.6843  -13.7566 C   0  0  1  0  0  0  0  0  0  0  0  0
   19.8011   -7.5357  -12.2380 C   0  0  0  0  0  0  0  0  0  0  0  0
   20.4336   -6.2107  -11.9545 O   0  0  0  0  0  0  0  0  0  0  0  0
   19.6634   -5.2433  -11.7453 O   0  0  0  0  0  0  0  0  0  0  0  0
  2  1  1  0
  3  2  2  0
  4  2  1  0
  5  4  1  0
  6  5  1  0
  6  7  1  6
  8 18  1  0
  8  6  1  0
  9  8  2  0
 10 11  1  0
 11 12  2  0
 11 13  1  0
 13 14  1  0
 15 14  1  0
 17 16  1  1
 16 15  1  0
 17 18  1  0
 19 17  1  0
 20 19  2  0
 21 22  1  0
 21 19  1  0
 23 22  1  0
 24 25  1  0
 24 23  1  0
 25 21  1  0
 26 28  1  0
 25 26  1  1
 27 26  2  0
M  END
$$$$
