QRP.pdb
     RDKit          3D

 28 28  0  0  1  0  0  0  0  0999 V2000
   25.5614  -24.0804  -21.2304 N   0  0  0  0  0  0  0  0  0  0  0  0
   25.0550  -25.1201  -20.4171 C   0  0  0  0  0  0  0  0  0  0  0  0
   24.1540  -25.8683  -20.8544 O   0  0  0  0  0  0  0  0  0  0  0  0
   25.5811  -25.3251  -19.0647 C   0  0  0  0  0  0  0  0  0  0  0  0
   26.5947  -24.2579  -18.6977 C   0  0  0  0  0  0  0  0  0  0  0  0
   27.4196  -24.7919  -17.5494 C   0  0  2  0  0  0  0  0  0  0  0  0
   27.3237  -26.2191  -17.5315 N   0  0  0  0  0  0  0  0  0  0  0  0
   27.0861  -24.1619  -16.2528 C   0  0  0  0  0  0  0  0  0  0  0  0
   26.4460  -24.8393  -15.4286 O   0  0  0  0  0  0  0  0  0  0  0  0
   31.2107  -21.0508  -10.4499 N   0  0  0  0  0  0  0  0  0  0  0  0
   31.7886  -21.9598  -11.3737 C   0  0  0  0  0  0  0  0  0  0  0  0
   32.8062  -22.6792  -11.0548 N   0  0  0  0  0  0  0  0  0  0  0  0
   31.2141  -22.0567  -12.6623 N   0  0  0  0  0  0  0  0  0  0  0  0
   29.9390  -21.3688  -12.8982 C   0  0  0  0  0  0  0  0  0  0  0  0
   29.5595  -21.6603  -14.3244 C   0  0  0  0  0  0  0  0  0  0  0  0
   28.2120  -21.0551  -14.6119 C   0  0  0  0  0  0  0  0  0  0  0  0
   27.1876  -22.1929  -14.6492 C   0  0  2  0  0  0  0  0  0  0  0  0
   27.4655  -22.8501  -15.9392 N   0  0  0  0  0  0  0  0  0  0  0  0
   25.8660  -21.5143  -14.8050 C   0  0  0  0  0  0  0  0  0  0  0  0
   25.6468  -20.9689  -15.9307 O   0  0  0  0  0  0  0  0  0  0  0  0
   33.2025  -23.3575  -11.7438 N   0  0  0  0  0  0  0  0  0  0  0  0
   24.8833  -21.4612  -13.7799 C   0  0  0  0  0  0  0  0  0  0  0  0
   25.1878  -21.8636  -12.4049 C   0  0  0  0  0  0  0  0  0  0  0  0
   24.0101  -21.3700  -11.5937 C   0  0  0  0  0  0  0  0  0  0  0  0
   22.8815  -21.5910  -12.6038 C   0  0  1  0  0  0  0  0  0  0  0  0
   23.5342  -21.0184  -13.8589 C   0  0  0  0  0  0  0  0  0  0  0  0
   23.4875  -19.5334  -13.6892 O   0  0  0  0  0  0  0  0  0  0  0  0
   22.3853  -18.9700  -13.8909 O   0  0  0  0  0  0  0  0  0  0  0  0
  2  1  1  0
  3  2  2  0
  4  2  1  0
  5  4  1  0
  6  5  1  0
  6  7  1  1
  8 18  1  0
  8  6  1  0
  9  8  2  0
 10 11  1  0
 11 12  2  0
 11 13  1  0
 13 14  1  0
 15 14  1  0
 17 16  1  6
 16 15  1  0
 17 18  1  0
 19 17  1  0
 20 19  2  0
 21 22  1  0
 21 19  1  0
 23 22  1  0
 24 25  1  0
 24 23  1  0
 25 21  1  0
 26 28  1  0
 25 26  1  6
 27 26  2  0
M  END
$$$$
