QRP.pdb
     RDKit          3D

 28 28  0  0  1  0  0  0  0  0999 V2000
   20.5029  -14.9225  -16.3729 N   0  0  0  0  0  0  0  0  0  0  0  0
   21.5569  -15.5962  -15.7141 C   0  0  0  0  0  0  0  0  0  0  0  0
   22.2723  -14.9799  -14.8948 O   0  0  0  0  0  0  0  0  0  0  0  0
   21.8149  -17.0129  -15.9869 C   0  0  0  0  0  0  0  0  0  0  0  0
   22.2608  -17.2279  -17.4208 C   0  0  0  0  0  0  0  0  0  0  0  0
   23.7353  -17.5585  -17.3923 C   0  0  2  0  0  0  0  0  0  0  0  0
   24.2171  -17.6537  -18.7358 N   0  0  0  0  0  0  0  0  0  0  0  0
   24.0479  -18.7468  -16.5679 C   0  0  0  0  0  0  0  0  0  0  0  0
   23.3892  -19.7822  -16.7728 O   0  0  0  0  0  0  0  0  0  0  0  0
   28.4989  -18.8456  -17.6503 N   0  0  0  0  0  0  0  0  0  0  0  0
   28.7928  -20.0395  -18.3587 C   0  0  0  0  0  0  0  0  0  0  0  0
   28.8571  -20.0550  -19.6434 N   0  0  0  0  0  0  0  0  0  0  0  0
   29.0156  -21.2202  -17.6127 N   0  0  0  0  0  0  0  0  0  0  0  0
   28.7805  -21.1709  -16.1645 C   0  0  0  0  0  0  0  0  0  0  0  0
   27.2907  -21.0702  -15.9818 C   0  0  0  0  0  0  0  0  0  0  0  0
   26.9836  -19.9478  -15.0277 C   0  0  0  0  0  0  0  0  0  0  0  0
   25.4673  -19.9177  -14.8148 C   0  0  2  0  0  0  0  0  0  0  0  0
   25.0455  -18.7330  -15.5842 N   0  0  0  0  0  0  0  0  0  0  0  0
   25.2889  -19.5629  -13.3748 C   0  0  0  0  0  0  0  0  0  0  0  0
   25.7807  -18.4509  -13.0080 O   0  0  0  0  0  0  0  0  0  0  0  0
   29.0301  -20.9544  -20.1466 N   0  0  0  0  0  0  0  0  0  0  0  0
   24.6135  -20.3912  -12.4383 C   0  0  0  0  0  0  0  0  0  0  0  0
   24.0114  -21.6655  -12.8369 C   0  0  0  0  0  0  0  0  0  0  0  0
   23.6878  -22.3588  -11.5319 C   0  0  0  0  0  0  0  0  0  0  0  0
   23.2941  -21.1496  -10.6800 C   0  0  1  0  0  0  0  0  0  0  0  0
   24.4252  -20.1912  -11.0430 C   0  0  0  0  0  0  0  0  0  0  0  0
   25.6239  -20.6922  -10.3025 O   0  0  0  0  0  0  0  0  0  0  0  0
   26.4479  -21.3815  -10.9495 O   0  0  0  0  0  0  0  0  0  0  0  0
  2  1  1  0
  3  2  2  0
  4  2  1  0
  5  4  1  0
  6  5  1  0
  6  7  1  6
  8 18  1  0
  8  6  1  0
  9  8  2  0
 10 11  1  0
 11 12  2  0
 11 13  1  0
 13 14  1  0
 15 14  1  0
 17 16  1  1
 16 15  1  0
 17 18  1  0
 19 17  1  0
 20 19  2  0
 21 22  1  0
 21 19  1  0
 23 22  1  0
 24 25  1  0
 24 23  1  0
 25 21  1  0
 26 28  1  0
 25 26  1  1
 27 26  2  0
M  END
$$$$
