QRP.pdb
     RDKit          3D

 28 28  0  0  1  0  0  0  0  0999 V2000
   20.1105  -21.4665  -17.1659 N   0  0  0  0  0  0  0  0  0  0  0  0
   18.8574  -21.1809  -16.5769 C   0  0  0  0  0  0  0  0  0  0  0  0
   17.8888  -21.9459  -16.7752 O   0  0  0  0  0  0  0  0  0  0  0  0
   18.6884  -19.9930  -15.7353 C   0  0  0  0  0  0  0  0  0  0  0  0
   19.9893  -19.2258  -15.5937 C   0  0  0  0  0  0  0  0  0  0  0  0
   20.8222  -19.9344  -14.5505 C   0  0  2  0  0  0  0  0  0  0  0  0
   20.0681  -20.0296  -13.3386 N   0  0  0  0  0  0  0  0  0  0  0  0
   22.1601  -19.3295  -14.3668 C   0  0  0  0  0  0  0  0  0  0  0  0
   22.2134  -18.1195  -14.0823 O   0  0  0  0  0  0  0  0  0  0  0  0
   27.3868  -23.5658  -16.2206 N   0  0  0  0  0  0  0  0  0  0  0  0
   28.2445  -22.5168  -16.6421 C   0  0  0  0  0  0  0  0  0  0  0  0
   28.6332  -22.4227  -17.8647 N   0  0  0  0  0  0  0  0  0  0  0  0
   28.6638  -21.5701  -15.6787 N   0  0  0  0  0  0  0  0  0  0  0  0
   27.9085  -21.4894  -14.4226 C   0  0  0  0  0  0  0  0  0  0  0  0
   27.0098  -20.2894  -14.5467 C   0  0  0  0  0  0  0  0  0  0  0  0
   25.5947  -20.6963  -14.2361 C   0  0  0  0  0  0  0  0  0  0  0  0
   24.6936  -19.4848  -14.4923 C   0  0  2  0  0  0  0  0  0  0  0  0
   23.3410  -20.0710  -14.5030 N   0  0  0  0  0  0  0  0  0  0  0  0
   24.9832  -19.0825  -15.9014 C   0  0  0  0  0  0  0  0  0  0  0  0
   24.6080  -19.8945  -16.8029 O   0  0  0  0  0  0  0  0  0  0  0  0
   29.3335  -21.6959  -18.1354 N   0  0  0  0  0  0  0  0  0  0  0  0
   25.6354  -17.8706  -16.2553 C   0  0  0  0  0  0  0  0  0  0  0  0
   26.2931  -17.0325  -15.2502 C   0  0  0  0  0  0  0  0  0  0  0  0
   27.1084  -16.0431  -16.0533 C   0  0  0  0  0  0  0  0  0  0  0  0
   26.1739  -15.8379  -17.2480 C   0  0  2  0  0  0  0  0  0  0  0  0
   25.7987  -17.2877  -17.5421 C   0  0  0  0  0  0  0  0  0  0  0  0
   26.9984  -17.8816  -18.2086 O   0  0  0  0  0  0  0  0  0  0  0  0
   27.7399  -18.6097  -17.5065 O   0  0  0  0  0  0  0  0  0  0  0  0
  2  1  1  0
  3  2  2  0
  4  2  1  0
  5  4  1  0
  6  5  1  0
  6  7  1  1
  8 18  1  0
  8  6  1  0
  9  8  2  0
 10 11  1  0
 11 12  2  0
 11 13  1  0
 13 14  1  0
 15 14  1  0
 17 16  1  6
 16 15  1  0
 17 18  1  0
 19 17  1  0
 20 19  2  0
 21 22  1  0
 21 19  1  0
 23 22  1  0
 24 25  1  0
 24 23  1  0
 25 21  1  0
 26 28  1  0
 25 26  1  6
 27 26  2  0
M  END
$$$$
