QRP.pdb
     RDKit          3D

 28 28  0  0  1  0  0  0  0  0999 V2000
   22.3079  -19.4772  -18.6917 N   0  0  0  0  0  0  0  0  0  0  0  0
   21.0450  -19.5830  -19.3183 C   0  0  0  0  0  0  0  0  0  0  0  0
   20.7675  -20.6005  -19.9894 O   0  0  0  0  0  0  0  0  0  0  0  0
   20.0598  -18.5061  -19.1849 C   0  0  0  0  0  0  0  0  0  0  0  0
   20.5926  -17.3717  -18.3302 C   0  0  0  0  0  0  0  0  0  0  0  0
   20.4917  -17.8060  -16.8862 C   0  0  2  0  0  0  0  0  0  0  0  0
   19.4357  -17.0774  -16.2535 N   0  0  0  0  0  0  0  0  0  0  0  0
   21.7805  -17.7235  -16.1638 C   0  0  0  0  0  0  0  0  0  0  0  0
   22.2052  -16.5926  -15.8663 O   0  0  0  0  0  0  0  0  0  0  0  0
   25.2643  -24.2583  -14.7374 N   0  0  0  0  0  0  0  0  0  0  0  0
   24.1104  -23.6587  -14.1694 C   0  0  0  0  0  0  0  0  0  0  0  0
   22.9503  -24.2022  -14.2846 N   0  0  0  0  0  0  0  0  0  0  0  0
   24.2682  -22.4408  -13.4680 N   0  0  0  0  0  0  0  0  0  0  0  0
   25.5773  -21.7794  -13.5282 C   0  0  0  0  0  0  0  0  0  0  0  0
   25.3108  -20.3500  -13.9141 C   0  0  0  0  0  0  0  0  0  0  0  0
   24.0061  -20.2735  -14.6600 C   0  0  0  0  0  0  0  0  0  0  0  0
   23.8257  -18.8299  -15.1383 C   0  0  2  0  0  0  0  0  0  0  0  0
   22.5167  -18.8636  -15.8154 N   0  0  0  0  0  0  0  0  0  0  0  0
   24.8459  -18.6520  -16.2148 C   0  0  0  0  0  0  0  0  0  0  0  0
   24.6867  -19.3586  -17.2580 O   0  0  0  0  0  0  0  0  0  0  0  0
   22.1176  -23.7549  -13.8389 N   0  0  0  0  0  0  0  0  0  0  0  0
   25.9433  -17.7545  -16.1181 C   0  0  0  0  0  0  0  0  0  0  0  0
   26.2419  -17.0402  -14.8748 C   0  0  0  0  0  0  0  0  0  0  0  0
   27.6218  -16.4591  -15.0911 C   0  0  0  0  0  0  0  0  0  0  0  0
   27.5389  -16.1280  -16.5831 C   0  0  1  0  0  0  0  0  0  0  0  0
   26.9098  -17.4169  -17.1052 C   0  0  0  0  0  0  0  0  0  0  0  0
   28.0094  -18.4301  -17.0917 O   0  0  0  0  0  0  0  0  0  0  0  0
   27.9593  -19.3154  -16.2048 O   0  0  0  0  0  0  0  0  0  0  0  0
  2  1  1  0
  3  2  2  0
  4  2  1  0
  5  4  1  0
  6  5  1  0
  6  7  1  1
  8 18  1  0
  8  6  1  0
  9  8  2  0
 10 11  1  0
 11 12  2  0
 11 13  1  0
 13 14  1  0
 15 14  1  0
 17 16  1  6
 16 15  1  0
 17 18  1  0
 19 17  1  0
 20 19  2  0
 21 22  1  0
 21 19  1  0
 23 22  1  0
 24 25  1  0
 24 23  1  0
 25 21  1  0
 26 28  1  0
 25 26  1  6
 27 26  2  0
M  END
$$$$
