CAP.pdb
     RDKit          3D

 19 19  0  0  1  0  0  0  0  0999 V2000
   31.2070  -24.6787  -15.2360 N   0  0  0  0  0  0  0  0  0  0  0  0
   30.1462  -25.1874  -16.0498 C   0  0  1  0  0  0  0  0  0  0  0  0
   29.6247  -24.0798  -16.9431 C   0  0  0  0  0  0  0  0  0  0  0  0
   28.9720  -22.7578  -15.9025 S   0  0  0  0  0  0  0  0  0  0  0  0
   30.5735  -26.3010  -16.9314 C   0  0  0  0  0  0  0  0  0  0  0  0
   31.7282  -26.2676  -17.4079 O   0  0  0  0  0  0  0  0  0  0  0  0
   29.4036  -29.8066  -17.5809 C   0  0  0  0  0  0  0  0  0  0  0  0
   30.2032  -28.5668  -17.9951 C   0  0  2  0  0  0  0  0  0  0  0  0
   29.7339  -27.4023  -17.2596 N   0  0  0  0  0  0  0  0  0  0  0  0
   30.1356  -28.3855  -19.4429 C   0  0  0  0  0  0  0  0  0  0  0  0
   29.2925  -27.6177  -20.0097 O   0  0  0  0  0  0  0  0  0  0  0  0
   31.0362  -29.0825  -20.2967 N   0  0  0  0  0  0  0  0  0  0  0  0
   32.2009  -29.8339  -19.7911 C   0  0  0  0  0  0  0  0  0  0  0  0
   33.1119  -29.8468  -21.0305 C   0  0  0  0  0  0  0  0  0  0  0  0
   32.0739  -30.1444  -22.0840 C   0  0  0  0  0  0  0  0  0  0  0  0
   30.9879  -29.1570  -21.7480 C   0  0  1  0  0  0  0  0  0  0  0  0
   29.6596  -29.6276  -22.2187 C   0  0  0  0  0  0  0  0  0  0  0  0
   28.9056  -30.1951  -21.3960 O   0  0  0  0  0  0  0  0  0  0  0  0
   29.2096  -29.4736  -23.5161 O   0  0  0  0  0  0  0  0  0  0  0  0
  2  1  1  6
  2  3  1  0
  4  3  1  0
  5  2  1  0
  6  5  2  0
  8  7  1  6
  8  9  1  0
  9  5  1  0
 10  8  1  0
 10 12  1  0
 11 10  2  0
 12 16  1  0
 13 12  1  0
 13 14  1  0
 14 15  1  0
 16 15  1  0
 16 17  1  1
 17 19  1  0
 18 17  2  0
M  END
$$$$
