CAP.pdb
     RDKit          3D

 19 19  0  0  1  0  0  0  0  0999 V2000
   24.0547  -11.2296  -16.8027 N   0  0  0  0  0  0  0  0  0  0  0  0
   24.4826   -9.9894  -16.2323 C   0  0  1  0  0  0  0  0  0  0  0  0
   25.9906   -9.8830  -16.3387 C   0  0  0  0  0  0  0  0  0  0  0  0
   26.7348  -11.0821  -15.2140 S   0  0  0  0  0  0  0  0  0  0  0  0
   23.9074   -8.8062  -16.9172 C   0  0  0  0  0  0  0  0  0  0  0  0
   23.8810   -8.8015  -18.1665 O   0  0  0  0  0  0  0  0  0  0  0  0
   21.4052   -7.1514  -17.5603 C   0  0  0  0  0  0  0  0  0  0  0  0
   22.6652   -6.6020  -16.8831 C   0  0  2  0  0  0  0  0  0  0  0  0
   23.3857   -7.6794  -16.2217 N   0  0  0  0  0  0  0  0  0  0  0  0
   22.3135   -5.5154  -15.9726 C   0  0  0  0  0  0  0  0  0  0  0  0
   21.9686   -5.7059  -14.7617 O   0  0  0  0  0  0  0  0  0  0  0  0
   22.3440   -4.1648  -16.4208 N   0  0  0  0  0  0  0  0  0  0  0  0
   22.7741   -3.7803  -17.7787 C   0  0  0  0  0  0  0  0  0  0  0  0
   23.1996   -2.3187  -17.5572 C   0  0  0  0  0  0  0  0  0  0  0  0
   22.0612   -1.8724  -16.6734 C   0  0  0  0  0  0  0  0  0  0  0  0
   21.9975   -2.9789  -15.6541 C   0  0  1  0  0  0  0  0  0  0  0  0
   20.6392   -3.0976  -15.0639 C   0  0  0  0  0  0  0  0  0  0  0  0
   19.7831   -3.7748  -15.6769 O   0  0  0  0  0  0  0  0  0  0  0  0
   20.2678   -2.5012  -13.8740 O   0  0  0  0  0  0  0  0  0  0  0  0
  2  1  1  6
  2  3  1  0
  4  3  1  0
  5  2  1  0
  6  5  2  0
  8  7  1  1
  8  9  1  0
  9  5  1  0
 10  8  1  0
 10 12  1  0
 11 10  2  0
 12 16  1  0
 13 12  1  0
 13 14  1  0
 14 15  1  0
 16 15  1  0
 16 17  1  6
 17 19  1  0
 18 17  2  0
M  END
$$$$
