CAP.pdb
     RDKit          3D

 19 19  0  0  1  0  0  0  0  0999 V2000
   17.3276  -12.0826  -16.0804 N   0  0  0  0  0  0  0  0  0  0  0  0
   17.4133  -10.7652  -16.6315 C   0  0  1  0  0  0  0  0  0  0  0  0
   16.1631   -9.9886  -16.2702 C   0  0  0  0  0  0  0  0  0  0  0  0
   14.8579  -10.4191  -17.4398 S   0  0  0  0  0  0  0  0  0  0  0  0
   18.5737   -9.9961  -16.1198 C   0  0  0  0  0  0  0  0  0  0  0  0
   18.7258   -9.9093  -14.8826 O   0  0  0  0  0  0  0  0  0  0  0  0
   21.7863   -8.6259  -17.5363 C   0  0  0  0  0  0  0  0  0  0  0  0
   20.6922   -8.6559  -16.4639 C   0  0  2  0  0  0  0  0  0  0  0  0
   19.5193   -9.3542  -16.9679 N   0  0  0  0  0  0  0  0  0  0  0  0
   20.3919   -7.2992  -16.0138 C   0  0  0  0  0  0  0  0  0  0  0  0
   19.4899   -6.5734  -16.5443 O   0  0  0  0  0  0  0  0  0  0  0  0
   21.1196   -6.7229  -14.9347 N   0  0  0  0  0  0  0  0  0  0  0  0
   22.0358   -7.5013  -14.0796 C   0  0  0  0  0  0  0  0  0  0  0  0
   22.0573   -6.6438  -12.8027 C   0  0  0  0  0  0  0  0  0  0  0  0
   22.1525   -5.2781  -13.4367 C   0  0  0  0  0  0  0  0  0  0  0  0
   21.0762   -5.3400  -14.4879 C   0  0  1  0  0  0  0  0  0  0  0  0
   21.3544   -4.4038  -15.6075 C   0  0  0  0  0  0  0  0  0  0  0  0
   22.0687   -4.8061  -16.5537 O   0  0  0  0  0  0  0  0  0  0  0  0
   20.8678   -3.1117  -15.6626 O   0  0  0  0  0  0  0  0  0  0  0  0
  2  1  1  1
  2  3  1  0
  4  3  1  0
  5  2  1  0
  6  5  2  0
  8  7  1  6
  8  9  1  0
  9  5  1  0
 10  8  1  0
 10 12  1  0
 11 10  2  0
 12 16  1  0
 13 12  1  0
 13 14  1  0
 14 15  1  0
 16 15  1  0
 16 17  1  6
 17 19  1  0
 18 17  2  0
M  END
$$$$
