CAP.pdb
     RDKit          3D

 19 19  0  0  1  0  0  0  0  0999 V2000
   24.3378  -20.7376  -11.4391 N   0  0  0  0  0  0  0  0  0  0  0  0
   24.2151  -20.3646  -10.0634 C   0  0  1  0  0  0  0  0  0  0  0  0
   23.3191  -21.3590   -9.3527 C   0  0  0  0  0  0  0  0  0  0  0  0
   21.6081  -21.0356   -9.8263 S   0  0  0  0  0  0  0  0  0  0  0  0
   25.5140  -20.3510   -9.3475 C   0  0  0  0  0  0  0  0  0  0  0  0
   26.1659  -21.4154   -9.2857 O   0  0  0  0  0  0  0  0  0  0  0  0
   27.8707  -17.7157   -8.0087 C   0  0  0  0  0  0  0  0  0  0  0  0
   27.3614  -19.1583   -8.0956 C   0  0  2  0  0  0  0  0  0  0  0  0
   26.0520  -19.1873   -8.7295 N   0  0  0  0  0  0  0  0  0  0  0  0
   27.3611  -19.7721   -6.7702 C   0  0  0  0  0  0  0  0  0  0  0  0
   26.3065  -19.9212   -6.0723 O   0  0  0  0  0  0  0  0  0  0  0  0
   28.5765  -20.2384   -6.1945 N   0  0  0  0  0  0  0  0  0  0  0  0
   29.7871  -20.5141   -6.9915 C   0  0  0  0  0  0  0  0  0  0  0  0
   30.5273  -21.5082   -6.0805 C   0  0  0  0  0  0  0  0  0  0  0  0
   30.3022  -20.8260   -4.7538 C   0  0  0  0  0  0  0  0  0  0  0  0
   28.8254  -20.5346   -4.7929 C   0  0  1  0  0  0  0  0  0  0  0  0
   28.4757  -19.3782   -3.9282 C   0  0  0  0  0  0  0  0  0  0  0  0
   28.4001  -18.2449   -4.4549 O   0  0  0  0  0  0  0  0  0  0  0  0
   28.2289  -19.4841   -2.5727 O   0  0  0  0  0  0  0  0  0  0  0  0
  2  1  1  6
  2  3  1  0
  4  3  1  0
  5  2  1  0
  6  5  2  0
  8  7  1  1
  8  9  1  0
  9  5  1  0
 10  8  1  0
 10 12  1  0
 11 10  2  0
 12 16  1  0
 13 12  1  0
 13 14  1  0
 14 15  1  0
 16 15  1  0
 16 17  1  1
 17 19  1  0
 18 17  2  0
M  END
$$$$
