CAP.pdb
     RDKit          3D

 19 19  0  0  1  0  0  0  0  0999 V2000
   26.3900  -20.7454  -13.5759 N   0  0  0  0  0  0  0  0  0  0  0  0
   27.1161  -21.2177  -12.4374 C   0  0  1  0  0  0  0  0  0  0  0  0
   28.6026  -21.0847  -12.7008 C   0  0  0  0  0  0  0  0  0  0  0  0
   29.5013  -21.7072  -11.2650 S   0  0  0  0  0  0  0  0  0  0  0  0
   26.8172  -20.4552  -11.2008 C   0  0  0  0  0  0  0  0  0  0  0  0
   26.8757  -19.2079  -11.2471 O   0  0  0  0  0  0  0  0  0  0  0  0
   24.6521  -20.2755   -8.5335 C   0  0  0  0  0  0  0  0  0  0  0  0
   26.1670  -20.3222   -8.7590 C   0  0  2  0  0  0  0  0  0  0  0  0
   26.4679  -21.0743   -9.9678 N   0  0  0  0  0  0  0  0  0  0  0  0
   26.8349  -20.8615   -7.5773 C   0  0  0  0  0  0  0  0  0  0  0  0
   26.7590  -22.0849   -7.2322 O   0  0  0  0  0  0  0  0  0  0  0  0
   27.6167  -20.0124   -6.7443 N   0  0  0  0  0  0  0  0  0  0  0  0
   27.8822  -18.5973   -7.0660 C   0  0  0  0  0  0  0  0  0  0  0  0
   29.1738  -18.3447   -6.2696 C   0  0  0  0  0  0  0  0  0  0  0  0
   28.8071  -19.0580   -4.9918 C   0  0  0  0  0  0  0  0  0  0  0  0
   28.2806  -20.3733   -5.5020 C   0  0  1  0  0  0  0  0  0  0  0  0
   27.3279  -20.9876   -4.5416 C   0  0  0  0  0  0  0  0  0  0  0  0
   26.1015  -20.8542   -4.7550 O   0  0  0  0  0  0  0  0  0  0  0  0
   27.7209  -21.6991   -3.4241 O   0  0  0  0  0  0  0  0  0  0  0  0
  2  1  1  6
  2  3  1  0
  4  3  1  0
  5  2  1  0
  6  5  2  0
  8  7  1  1
  8  9  1  0
  9  5  1  0
 10  8  1  0
 10 12  1  0
 11 10  2  0
 12 16  1  0
 13 12  1  0
 13 14  1  0
 14 15  1  0
 16 15  1  0
 16 17  1  1
 17 19  1  0
 18 17  2  0
M  END
$$$$
