CAP.pdb
     RDKit          3D

 19 19  0  0  1  0  0  0  0  0999 V2000
   18.0105  -12.7771  -15.8273 N   0  0  0  0  0  0  0  0  0  0  0  0
   17.6581  -11.4397  -16.1931 C   0  0  1  0  0  0  0  0  0  0  0  0
   16.4374  -11.0098  -15.4046 C   0  0  0  0  0  0  0  0  0  0  0  0
   14.9854  -11.8278  -16.0968 S   0  0  0  0  0  0  0  0  0  0  0  0
   18.7336  -10.4580  -15.9111 C   0  0  0  0  0  0  0  0  0  0  0  0
   19.2210  -10.4297  -14.7608 O   0  0  0  0  0  0  0  0  0  0  0  0
   21.0131   -8.2540  -17.9595 C   0  0  0  0  0  0  0  0  0  0  0  0
   20.3574   -8.6573  -16.6345 C   0  0  2  0  0  0  0  0  0  0  0  0
   19.2356   -9.5496  -16.8849 N   0  0  0  0  0  0  0  0  0  0  0  0
   19.9746   -7.4667  -15.8801 C   0  0  0  0  0  0  0  0  0  0  0  0
   18.8355   -6.9085  -15.9911 O   0  0  0  0  0  0  0  0  0  0  0  0
   20.8896   -6.8699  -14.9675 N   0  0  0  0  0  0  0  0  0  0  0  0
   22.1688   -7.4995  -14.5880 C   0  0  0  0  0  0  0  0  0  0  0  0
   22.4413   -6.8321  -13.2292 C   0  0  0  0  0  0  0  0  0  0  0  0
   22.0553   -5.4163  -13.5793 C   0  0  0  0  0  0  0  0  0  0  0  0
   20.7272   -5.6087  -14.2624 C   0  0  1  0  0  0  0  0  0  0  0  0
   20.4344   -4.4988  -15.2056 C   0  0  0  0  0  0  0  0  0  0  0  0
   20.8659   -4.5867  -16.3775 O   0  0  0  0  0  0  0  0  0  0  0  0
   19.7111   -3.3730  -14.8606 O   0  0  0  0  0  0  0  0  0  0  0  0
  2  1  1  1
  2  3  1  0
  4  3  1  0
  5  2  1  0
  6  5  2  0
  8  7  1  6
  8  9  1  0
  9  5  1  0
 10  8  1  0
 10 12  1  0
 11 10  2  0
 12 16  1  0
 13 12  1  0
 13 14  1  0
 14 15  1  0
 16 15  1  0
 16 17  1  6
 17 19  1  0
 18 17  2  0
M  END
$$$$
