CAP.pdb
     RDKit          3D

 19 19  0  0  1  0  0  0  0  0999 V2000
   26.8142  -14.5261  -17.8526 N   0  0  0  0  0  0  0  0  0  0  0  0
   26.1073  -13.7734  -16.8625 C   0  0  1  0  0  0  0  0  0  0  0  0
   27.0680  -13.3633  -15.7645 C   0  0  0  0  0  0  0  0  0  0  0  0
   27.5215  -14.8304  -14.8165 S   0  0  0  0  0  0  0  0  0  0  0  0
   25.4980  -12.5331  -17.4014 C   0  0  0  0  0  0  0  0  0  0  0  0
   26.1119  -11.9138  -18.2964 O   0  0  0  0  0  0  0  0  0  0  0  0
   22.3585  -11.3193  -18.3365 C   0  0  0  0  0  0  0  0  0  0  0  0
   23.5999  -10.8674  -17.5601 C   0  0  2  0  0  0  0  0  0  0  0  0
   24.2513  -12.0162  -16.9494 N   0  0  0  0  0  0  0  0  0  0  0  0
   23.2380   -9.8400  -16.5871 C   0  0  0  0  0  0  0  0  0  0  0  0
   22.9372  -10.1016  -15.3777 O   0  0  0  0  0  0  0  0  0  0  0  0
   23.2068   -8.4690  -16.9685 N   0  0  0  0  0  0  0  0  0  0  0  0
   23.5715   -8.0045  -18.3205 C   0  0  0  0  0  0  0  0  0  0  0  0
   23.9570   -6.5415  -18.0424 C   0  0  0  0  0  0  0  0  0  0  0  0
   22.8394   -6.1782  -17.0963 C   0  0  0  0  0  0  0  0  0  0  0  0
   22.8512   -7.3343  -16.1316 C   0  0  1  0  0  0  0  0  0  0  0  0
   21.5213   -7.5286  -15.4984 C   0  0  0  0  0  0  0  0  0  0  0  0
   20.6576   -8.1862  -16.1221 O   0  0  0  0  0  0  0  0  0  0  0  0
   21.1842   -7.0229  -14.2574 O   0  0  0  0  0  0  0  0  0  0  0  0
  2  1  1  6
  2  3  1  0
  4  3  1  0
  5  2  1  0
  6  5  2  0
  8  7  1  1
  8  9  1  0
  9  5  1  0
 10  8  1  0
 10 12  1  0
 11 10  2  0
 12 16  1  0
 13 12  1  0
 13 14  1  0
 14 15  1  0
 16 15  1  0
 16 17  1  6
 17 19  1  0
 18 17  2  0
M  END
$$$$
