CAP.pdb
     RDKit          3D

 19 19  0  0  1  0  0  0  0  0999 V2000
   28.9824  -23.9701  -17.6322 N   0  0  0  0  0  0  0  0  0  0  0  0
   28.2266  -22.7582  -17.7132 C   0  0  1  0  0  0  0  0  0  0  0  0
   26.9941  -22.9923  -18.5634 C   0  0  0  0  0  0  0  0  0  0  0  0
   27.5189  -23.3935  -20.2427 S   0  0  0  0  0  0  0  0  0  0  0  0
   27.7641  -22.2728  -16.3901 C   0  0  0  0  0  0  0  0  0  0  0  0
   27.3113  -23.1088  -15.5793 O   0  0  0  0  0  0  0  0  0  0  0  0
   27.6507  -18.9413  -14.5477 C   0  0  0  0  0  0  0  0  0  0  0  0
   27.3114  -20.4254  -14.7213 C   0  0  2  0  0  0  0  0  0  0  0  0
   27.8113  -20.9046  -16.0010 N   0  0  0  0  0  0  0  0  0  0  0  0
   25.8746  -20.6347  -14.5620 C   0  0  0  0  0  0  0  0  0  0  0  0
   25.0554  -20.6117  -15.5366 O   0  0  0  0  0  0  0  0  0  0  0  0
   25.3231  -20.8778  -13.2725 N   0  0  0  0  0  0  0  0  0  0  0  0
   26.1528  -21.0430  -12.0639 C   0  0  0  0  0  0  0  0  0  0  0  0
   25.2063  -21.8473  -11.1565 C   0  0  0  0  0  0  0  0  0  0  0  0
   23.9245  -21.1002  -11.4304 C   0  0  0  0  0  0  0  0  0  0  0  0
   23.9165  -21.0236  -12.9342 C   0  0  1  0  0  0  0  0  0  0  0  0
   23.1242  -19.8627  -13.4158 C   0  0  0  0  0  0  0  0  0  0  0  0
   23.7387  -18.8323  -13.7735 O   0  0  0  0  0  0  0  0  0  0  0  0
   21.7444  -19.8572  -13.4910 O   0  0  0  0  0  0  0  0  0  0  0  0
  2  1  1  1
  2  3  1  0
  4  3  1  0
  5  2  1  0
  6  5  2  0
  8  7  1  6
  8  9  1  0
  9  5  1  0
 10  8  1  0
 10 12  1  0
 11 10  2  0
 12 16  1  0
 13 12  1  0
 13 14  1  0
 14 15  1  0
 16 15  1  0
 16 17  1  1
 17 19  1  0
 18 17  2  0
M  END
$$$$
