CAP.pdb
     RDKit          3D

 19 19  0  0  1  0  0  0  0  0999 V2000
   27.7293  -19.2597  -19.6609 N   0  0  0  0  0  0  0  0  0  0  0  0
   26.5122  -19.1508  -18.9172 C   0  0  1  0  0  0  0  0  0  0  0  0
   25.5625  -20.2510  -19.3465 C   0  0  0  0  0  0  0  0  0  0  0  0
   24.0521  -20.1248  -18.3671 S   0  0  0  0  0  0  0  0  0  0  0  0
   26.7117  -19.2864  -17.4538 C   0  0  0  0  0  0  0  0  0  0  0  0
   27.3499  -20.2752  -17.0336 O   0  0  0  0  0  0  0  0  0  0  0  0
   26.1130  -17.1519  -14.3740 C   0  0  0  0  0  0  0  0  0  0  0  0
   26.4147  -18.4816  -15.0733 C   0  0  2  0  0  0  0  0  0  0  0  0
   26.2128  -18.3472  -16.5080 N   0  0  0  0  0  0  0  0  0  0  0  0
   25.6112  -19.5514  -14.4875 C   0  0  0  0  0  0  0  0  0  0  0  0
   24.4797  -19.9062  -14.9517 O   0  0  0  0  0  0  0  0  0  0  0  0
   26.0783  -20.2555  -13.3421 N   0  0  0  0  0  0  0  0  0  0  0  0
   27.4473  -20.1064  -12.8126 C   0  0  0  0  0  0  0  0  0  0  0  0
   27.6208  -21.4305  -12.0493 C   0  0  0  0  0  0  0  0  0  0  0  0
   26.2653  -21.5035  -11.3910 C   0  0  0  0  0  0  0  0  0  0  0  0
   25.3373  -21.2171  -12.5418 C   0  0  1  0  0  0  0  0  0  0  0  0
   24.0482  -20.6469  -12.0726 C   0  0  0  0  0  0  0  0  0  0  0  0
   23.9369  -19.4013  -12.0135 O   0  0  0  0  0  0  0  0  0  0  0  0
   22.9634  -21.4161  -11.6972 O   0  0  0  0  0  0  0  0  0  0  0  0
  2  1  1  6
  2  3  1  0
  4  3  1  0
  5  2  1  0
  6  5  2  0
  8  7  1  1
  8  9  1  0
  9  5  1  0
 10  8  1  0
 10 12  1  0
 11 10  2  0
 12 16  1  0
 13 12  1  0
 13 14  1  0
 14 15  1  0
 16 15  1  0
 16 17  1  1
 17 19  1  0
 18 17  2  0
M  END
$$$$
