CAP.pdb
     RDKit          3D

 19 19  0  0  1  0  0  0  0  0999 V2000
   24.7599  -20.9895   -9.3985 N   0  0  0  0  0  0  0  0  0  0  0  0
   24.2336  -21.0698  -10.7263 C   0  0  1  0  0  0  0  0  0  0  0  0
   22.9275  -20.3041  -10.7947 C   0  0  0  0  0  0  0  0  0  0  0  0
   21.6881  -21.1890   -9.8265 S   0  0  0  0  0  0  0  0  0  0  0  0
   25.1398  -20.4883  -11.7463 C   0  0  0  0  0  0  0  0  0  0  0  0
   25.6369  -19.3639  -11.5229 O   0  0  0  0  0  0  0  0  0  0  0  0
   27.0410  -21.6837  -14.7626 C   0  0  0  0  0  0  0  0  0  0  0  0
   26.3530  -20.5705  -13.9654 C   0  0  2  0  0  0  0  0  0  0  0  0
   25.4694  -21.1478  -12.9637 N   0  0  0  0  0  0  0  0  0  0  0  0
   25.6601  -19.6579  -14.8712 C   0  0  0  0  0  0  0  0  0  0  0  0
   24.4659  -19.8469  -15.2707 O   0  0  0  0  0  0  0  0  0  0  0  0
   26.3158  -18.4906  -15.3545 N   0  0  0  0  0  0  0  0  0  0  0  0
   27.6370  -18.0526  -14.8654 C   0  0  0  0  0  0  0  0  0  0  0  0
   27.5982  -16.5511  -15.1971 C   0  0  0  0  0  0  0  0  0  0  0  0
   26.9844  -16.6286  -16.5730 C   0  0  0  0  0  0  0  0  0  0  0  0
   25.8178  -17.5539  -16.3489 C   0  0  1  0  0  0  0  0  0  0  0  0
   25.4299  -18.2539  -17.6007 C   0  0  0  0  0  0  0  0  0  0  0  0
   26.0006  -19.3331  -17.8782 O   0  0  0  0  0  0  0  0  0  0  0  0
   24.4728  -17.7791  -18.4771 O   0  0  0  0  0  0  0  0  0  0  0  0
  2  1  1  1
  2  3  1  0
  4  3  1  0
  5  2  1  0
  6  5  2  0
  8  7  1  6
  8  9  1  0
  9  5  1  0
 10  8  1  0
 10 12  1  0
 11 10  2  0
 12 16  1  0
 13 12  1  0
 13 14  1  0
 14 15  1  0
 16 15  1  0
 16 17  1  6
 17 19  1  0
 18 17  2  0
M  END
$$$$
