CAP.pdb
     RDKit          3D

 19 19  0  0  1  0  0  0  0  0999 V2000
   16.0382  -11.3921  -15.7600 N   0  0  0  0  0  0  0  0  0  0  0  0
   16.1005  -10.1508  -15.0516 C   0  0  1  0  0  0  0  0  0  0  0  0
   15.9742  -10.4156  -13.5648 C   0  0  0  0  0  0  0  0  0  0  0  0
   14.2227  -10.4554  -13.1322 S   0  0  0  0  0  0  0  0  0  0  0  0
   17.3764   -9.4247  -15.2635 C   0  0  0  0  0  0  0  0  0  0  0  0
   18.4417   -9.9987  -14.9520 O   0  0  0  0  0  0  0  0  0  0  0  0
   18.5975   -6.7764  -17.5024 C   0  0  0  0  0  0  0  0  0  0  0  0
   18.7004   -7.4502  -16.1301 C   0  0  2  0  0  0  0  0  0  0  0  0
   17.4452   -8.1096  -15.8032 N   0  0  0  0  0  0  0  0  0  0  0  0
   19.1062   -6.4757  -15.1206 C   0  0  0  0  0  0  0  0  0  0  0  0
   18.2753   -5.8047  -14.4271 O   0  0  0  0  0  0  0  0  0  0  0  0
   20.4863   -6.2338  -14.8698 N   0  0  0  0  0  0  0  0  0  0  0  0
   21.5634   -7.0527  -15.4578 C   0  0  0  0  0  0  0  0  0  0  0  0
   22.7068   -6.8089  -14.4581 C   0  0  0  0  0  0  0  0  0  0  0  0
   22.5352   -5.3232  -14.2602 C   0  0  0  0  0  0  0  0  0  0  0  0
   21.0544   -5.2043  -14.0144 C   0  0  1  0  0  0  0  0  0  0  0  0
   20.5476   -3.8575  -14.3842 C   0  0  0  0  0  0  0  0  0  0  0  0
   20.2298   -3.6502  -15.5773 O   0  0  0  0  0  0  0  0  0  0  0  0
   20.4075   -2.8194  -13.4831 O   0  0  0  0  0  0  0  0  0  0  0  0
  2  1  1  6
  2  3  1  0
  4  3  1  0
  5  2  1  0
  6  5  2  0
  8  7  1  6
  8  9  1  0
  9  5  1  0
 10  8  1  0
 10 12  1  0
 11 10  2  0
 12 16  1  0
 13 12  1  0
 13 14  1  0
 14 15  1  0
 16 15  1  0
 16 17  1  6
 17 19  1  0
 18 17  2  0
M  END
$$$$
