RWG.pdb
     RDKit          3D

 30 31  0  0  1  0  0  0  0  0999 V2000
   28.8477  -20.9502  -11.9907 N   0  0  0  0  0  0  0  0  0  0  0  0
   27.4888  -20.9296  -11.5858 C   0  0  0  0  0  0  0  0  0  0  0  0
   27.1666  -20.8190  -10.3275 N   0  0  0  0  0  0  0  0  0  0  0  0
   26.4093  -21.0235  -12.4856 N   0  0  0  0  0  0  0  0  0  0  0  0
   26.4778  -20.3667  -13.7647 C   0  0  0  0  0  0  0  0  0  0  0  0
   26.3346  -18.8917  -13.5121 C   0  0  0  0  0  0  0  0  0  0  0  0
   26.2870  -18.0355  -14.7285 C   0  0  0  0  0  0  0  0  0  0  0  0
   25.1233  -18.3604  -15.6205 C   0  0  2  0  0  0  0  0  0  0  0  0
   25.2357  -17.6911  -16.8790 N   0  0  0  0  0  0  0  0  0  0  0  0
   23.8243  -18.1346  -14.9715 C   0  0  0  0  0  0  0  0  0  0  0  0
   23.5072  -17.0022  -14.4815 O   0  0  0  0  0  0  0  0  0  0  0  0
   26.1499  -20.7811  -10.1099 N   0  0  0  0  0  0  0  0  0  0  0  0
   22.8949  -19.2158  -14.8881 C   0  0  1  0  0  0  0  0  0  0  0  0
   21.6682  -19.0987  -14.1750 C   0  0  0  0  0  0  0  0  0  0  0  0
   20.5416  -18.7366  -15.1009 C   0  0  0  0  0  0  0  0  0  0  0  0
   20.5076  -17.3173  -15.5015 C   0  0  0  0  0  0  0  0  0  0  0  0
   20.9734  -16.8616  -16.7373 N   0  0  0  0  0  0  0  0  0  0  0  0
   20.7831  -15.5296  -16.8131 C   0  0  0  0  0  0  0  0  0  0  0  0
   20.2155  -15.0799  -15.6904 C   0  0  0  0  0  0  0  0  0  0  0  0
   19.8349  -13.8160  -15.2827 C   0  0  0  0  0  0  0  0  0  0  0  0
   19.2754  -13.6526  -14.0427 C   0  0  0  0  0  0  0  0  0  0  0  0
   19.1058  -14.7491  -13.2334 C   0  0  0  0  0  0  0  0  0  0  0  0
   19.4878  -16.0234  -13.6416 C   0  0  0  0  0  0  0  0  0  0  0  0
   20.0461  -16.1939  -14.8775 C   0  0  0  0  0  0  0  0  0  0  0  0
   21.3456  -20.3374  -13.4047 O   0  0  0  0  0  0  0  0  0  0  0  0
   21.6905  -21.4805  -13.8117 N   0  0  0  0  0  0  0  0  0  0  0  0
   20.6420  -20.2458  -12.1962 C   0  0  0  0  0  0  0  0  0  0  0  0
   20.4118  -21.4352  -11.3675 C   0  0  0  0  0  0  0  0  0  0  0  0
   19.2403  -22.1884  -11.8046 O   0  0  0  0  0  0  0  0  0  0  0  0
   18.6047  -21.8339  -12.8207 O   0  0  0  0  0  0  0  0  0  0  0  0
  2  1  1  0
  2  3  2  0
  4  5  1  0
  4  2  1  0
  6  5  1  0
  7  6  1  0
  8  7  1  0
  8  9  1  6
 10  8  1  0
 10 11  2  0
 12 10  1  0
 13 14  1  1
 13 12  1  0
 15 14  1  0
 15 23  1  0
 16 15  2  0
 17 16  1  0
 17 18  1  0
 18 19  1  0
 18 23  2  0
 19 20  2  0
 20 21  1  0
 22 21  2  0
 23 22  1  0
 24 13  1  0
 25 24  2  0
 26 24  1  0
 27 26  1  0
 28 30  1  0
 28 27  1  0
 29 28  2  0
M  END
$$$$
