RWG.pdb
     RDKit          3D

 30 31  0  0  1  0  0  0  0  0999 V2000
   25.4730  -25.0116  -15.1117 N   0  0  0  0  0  0  0  0  0  0  0  0
   24.4566  -24.0707  -15.4157 C   0  0  0  0  0  0  0  0  0  0  0  0
   23.2063  -24.4338  -15.4832 N   0  0  0  0  0  0  0  0  0  0  0  0
   24.7095  -22.7070  -15.6612 N   0  0  0  0  0  0  0  0  0  0  0  0
   25.8176  -22.0520  -15.0169 C   0  0  0  0  0  0  0  0  0  0  0  0
   25.2448  -20.9683  -14.1465 C   0  0  0  0  0  0  0  0  0  0  0  0
   25.0889  -21.3177  -12.7082 C   0  0  0  0  0  0  0  0  0  0  0  0
   26.1542  -20.7057  -11.8446 C   0  0  2  0  0  0  0  0  0  0  0  0
   27.4502  -20.8805  -12.4229 N   0  0  0  0  0  0  0  0  0  0  0  0
   26.0897  -21.1595  -10.4484 C   0  0  0  0  0  0  0  0  0  0  0  0
   26.6413  -22.2435  -10.0693 O   0  0  0  0  0  0  0  0  0  0  0  0
   22.5253  -23.7027  -15.7732 N   0  0  0  0  0  0  0  0  0  0  0  0
   25.3881  -20.3626   -9.4932 C   0  0  1  0  0  0  0  0  0  0  0  0
   25.0789  -20.8488   -8.1913 C   0  0  0  0  0  0  0  0  0  0  0  0
   25.3769  -19.8113   -7.1461 C   0  0  0  0  0  0  0  0  0  0  0  0
   26.8127  -19.6000   -6.8819 C   0  0  0  0  0  0  0  0  0  0  0  0
   27.6900  -19.0552   -7.8230 N   0  0  0  0  0  0  0  0  0  0  0  0
   28.9186  -18.9663   -7.2765 C   0  0  0  0  0  0  0  0  0  0  0  0
   28.9000  -19.4249   -6.0218 C   0  0  0  0  0  0  0  0  0  0  0  0
   29.8869  -19.5516   -5.0634 C   0  0  0  0  0  0  0  0  0  0  0  0
   29.5684  -20.0801   -3.8401 C   0  0  0  0  0  0  0  0  0  0  0  0
   28.2752  -20.4719   -3.5947 C   0  0  0  0  0  0  0  0  0  0  0  0
   27.2790  -20.3451   -4.5580 C   0  0  0  0  0  0  0  0  0  0  0  0
   27.5895  -19.8181   -5.7802 C   0  0  0  0  0  0  0  0  0  0  0  0
   23.6639  -21.3164   -8.0875 O   0  0  0  0  0  0  0  0  0  0  0  0
   22.7152  -20.6850   -8.6281 N   0  0  0  0  0  0  0  0  0  0  0  0
   23.3643  -22.4852   -7.3746 C   0  0  0  0  0  0  0  0  0  0  0  0
   21.9917  -23.0023   -7.3198 C   0  0  0  0  0  0  0  0  0  0  0  0
   21.2044  -22.3553   -6.2746 O   0  0  0  0  0  0  0  0  0  0  0  0
   21.6795  -21.3969   -5.6282 O   0  0  0  0  0  0  0  0  0  0  0  0
  2  1  1  0
  2  3  2  0
  4  5  1  0
  4  2  1  0
  6  5  1  0
  7  6  1  0
  8  7  1  0
  8  9  1  6
 10  8  1  0
 10 11  2  0
 12 10  1  0
 13 14  1  1
 13 12  1  0
 15 14  1  0
 15 23  1  0
 16 15  2  0
 17 16  1  0
 17 18  1  0
 18 19  1  0
 18 23  2  0
 19 20  2  0
 20 21  1  0
 22 21  2  0
 23 22  1  0
 24 13  1  0
 25 24  2  0
 26 24  1  0
 27 26  1  0
 28 30  1  0
 28 27  1  0
 29 28  2  0
M  END
$$$$
