RWG.pdb
     RDKit          3D

 30 31  0  0  1  0  0  0  0  0999 V2000
   30.2409  -22.7893  -17.3835 N   0  0  0  0  0  0  0  0  0  0  0  0
   29.2883  -22.8946  -18.4286 C   0  0  0  0  0  0  0  0  0  0  0  0
   29.5576  -23.5621  -19.5156 N   0  0  0  0  0  0  0  0  0  0  0  0
   28.0107  -22.3038  -18.3768 N   0  0  0  0  0  0  0  0  0  0  0  0
   27.4510  -21.9065  -17.1115 C   0  0  0  0  0  0  0  0  0  0  0  0
   27.9295  -22.8965  -16.0864 C   0  0  0  0  0  0  0  0  0  0  0  0
   27.0448  -23.0703  -14.9023 C   0  0  0  0  0  0  0  0  0  0  0  0
   26.2341  -21.8429  -14.5997 C   0  0  2  0  0  0  0  0  0  0  0  0
   27.0472  -20.6671  -14.6322 N   0  0  0  0  0  0  0  0  0  0  0  0
   25.4575  -21.9618  -13.3578 C   0  0  0  0  0  0  0  0  0  0  0  0
   24.8460  -23.0360  -13.0494 O   0  0  0  0  0  0  0  0  0  0  0  0
   28.8230  -23.5660  -20.2523 N   0  0  0  0  0  0  0  0  0  0  0  0
   25.3869  -20.8410  -12.4756 C   0  0  1  0  0  0  0  0  0  0  0  0
   24.5898  -20.8623  -11.2961 C   0  0  0  0  0  0  0  0  0  0  0  0
   25.2103  -20.0248  -10.2138 C   0  0  0  0  0  0  0  0  0  0  0  0
   26.5653  -20.4464   -9.8113 C   0  0  0  0  0  0  0  0  0  0  0  0
   27.3749  -21.2680  -10.5998 N   0  0  0  0  0  0  0  0  0  0  0  0
   28.5548  -21.4501   -9.9747 C   0  0  0  0  0  0  0  0  0  0  0  0
   28.5679  -20.7916   -8.8123 C   0  0  0  0  0  0  0  0  0  0  0  0
   29.5231  -20.6733   -7.8213 C   0  0  0  0  0  0  0  0  0  0  0  0
   29.2448  -19.9231   -6.7091 C   0  0  0  0  0  0  0  0  0  0  0  0
   28.0224  -19.3060   -6.6049 C   0  0  0  0  0  0  0  0  0  0  0  0
   27.0584  -19.4230   -7.6016 C   0  0  0  0  0  0  0  0  0  0  0  0
   27.3295  -20.1692   -8.7141 C   0  0  0  0  0  0  0  0  0  0  0  0
   23.1837  -20.4325  -11.5602 O   0  0  0  0  0  0  0  0  0  0  0  0
   22.6731  -19.4381  -10.9758 N   0  0  0  0  0  0  0  0  0  0  0  0
   22.3967  -21.1411  -12.4782 C   0  0  0  0  0  0  0  0  0  0  0  0
   21.0134  -20.7353  -12.7544 C   0  0  0  0  0  0  0  0  0  0  0  0
   20.0459  -21.5951  -12.0795 O   0  0  0  0  0  0  0  0  0  0  0  0
   19.8576  -21.4890  -10.8485 O   0  0  0  0  0  0  0  0  0  0  0  0
  2  1  1  0
  2  3  2  0
  4  5  1  0
  4  2  1  0
  6  5  1  0
  7  6  1  0
  8  7  1  0
  8  9  1  1
 10  8  1  0
 10 11  2  0
 12 10  1  0
 13 14  1  1
 13 12  1  0
 15 14  1  0
 15 23  1  0
 16 15  2  0
 17 16  1  0
 17 18  1  0
 18 19  1  0
 18 23  2  0
 19 20  2  0
 20 21  1  0
 22 21  2  0
 23 22  1  0
 24 13  1  0
 25 24  2  0
 26 24  1  0
 27 26  1  0
 28 30  1  0
 28 27  1  0
 29 28  2  0
M  END
$$$$
