RWG.pdb
     RDKit          3D

 30 31  0  0  1  0  0  0  0  0999 V2000
   30.5392  -21.1900  -19.0754 N   0  0  0  0  0  0  0  0  0  0  0  0
   29.3894  -20.7124  -19.7540 C   0  0  0  0  0  0  0  0  0  0  0  0
   29.1198  -21.0998  -20.9692 N   0  0  0  0  0  0  0  0  0  0  0  0
   28.4722  -19.8075  -19.1850 N   0  0  0  0  0  0  0  0  0  0  0  0
   28.6690  -19.3310  -17.8410 C   0  0  0  0  0  0  0  0  0  0  0  0
   29.4825  -20.3688  -17.1191 C   0  0  0  0  0  0  0  0  0  0  0  0
   28.7347  -21.1980  -16.1351 C   0  0  0  0  0  0  0  0  0  0  0  0
   27.5906  -20.4574  -15.5043 C   0  0  2  0  0  0  0  0  0  0  0  0
   28.0481  -19.2885  -14.8196 N   0  0  0  0  0  0  0  0  0  0  0  0
   26.7486  -21.3166  -14.6603 C   0  0  0  0  0  0  0  0  0  0  0  0
   26.3104  -22.4395  -15.0728 O   0  0  0  0  0  0  0  0  0  0  0  0
   28.2753  -20.6843  -21.4127 N   0  0  0  0  0  0  0  0  0  0  0  0
   26.4131  -20.8780  -13.3432 C   0  0  1  0  0  0  0  0  0  0  0  0
   25.5890  -21.6542  -12.4800 C   0  0  0  0  0  0  0  0  0  0  0  0
   26.3424  -22.0681  -11.2476 C   0  0  0  0  0  0  0  0  0  0  0  0
   26.3644  -21.0582  -10.1727 C   0  0  0  0  0  0  0  0  0  0  0  0
   25.3042  -20.1821   -9.9266 N   0  0  0  0  0  0  0  0  0  0  0  0
   25.6145  -19.4047   -8.8705 C   0  0  0  0  0  0  0  0  0  0  0  0
   26.8262  -19.7208   -8.4049 C   0  0  0  0  0  0  0  0  0  0  0  0
   27.5829  -19.2175   -7.3644 C   0  0  0  0  0  0  0  0  0  0  0  0
   28.8251  -19.7434   -7.1242 C   0  0  0  0  0  0  0  0  0  0  0  0
   29.2896  -20.7590   -7.9236 C   0  0  0  0  0  0  0  0  0  0  0  0
   28.5295  -21.2682   -8.9721 C   0  0  0  0  0  0  0  0  0  0  0  0
   27.2893  -20.7487   -9.2170 C   0  0  0  0  0  0  0  0  0  0  0  0
   24.3272  -20.9416  -12.1170 O   0  0  0  0  0  0  0  0  0  0  0  0
   24.3360  -19.7597  -11.6762 N   0  0  0  0  0  0  0  0  0  0  0  0
   23.0923  -21.5878  -12.2635 C   0  0  0  0  0  0  0  0  0  0  0  0
   21.8390  -20.8238  -12.2677 C   0  0  0  0  0  0  0  0  0  0  0  0
   21.1290  -20.9301  -10.9967 O   0  0  0  0  0  0  0  0  0  0  0  0
   21.5993  -21.6197  -10.0665 O   0  0  0  0  0  0  0  0  0  0  0  0
  2  1  1  0
  2  3  2  0
  4  5  1  0
  4  2  1  0
  6  5  1  0
  7  6  1  0
  8  7  1  0
  8  9  1  1
 10  8  1  0
 10 11  2  0
 12 10  1  0
 13 14  1  1
 13 12  1  0
 15 14  1  0
 15 23  1  0
 16 15  2  0
 17 16  1  0
 17 18  1  0
 18 19  1  0
 18 23  2  0
 19 20  2  0
 20 21  1  0
 22 21  2  0
 23 22  1  0
 24 13  1  0
 25 24  2  0
 26 24  1  0
 27 26  1  0
 28 30  1  0
 28 27  1  0
 29 28  2  0
M  END
$$$$
