RWG.pdb
     RDKit          3D

 30 31  0  0  1  0  0  0  0  0999 V2000
   29.7010  -26.8524  -16.8028 N   0  0  0  0  0  0  0  0  0  0  0  0
   28.3336  -26.5294  -16.9938 C   0  0  0  0  0  0  0  0  0  0  0  0
   27.3937  -27.2335  -16.4277 N   0  0  0  0  0  0  0  0  0  0  0  0
   27.8940  -25.4519  -17.7873 N   0  0  0  0  0  0  0  0  0  0  0  0
   28.3546  -24.1168  -17.5091 C   0  0  0  0  0  0  0  0  0  0  0  0
   28.9858  -24.1425  -16.1450 C   0  0  0  0  0  0  0  0  0  0  0  0
   29.3846  -22.8167  -15.5990 C   0  0  0  0  0  0  0  0  0  0  0  0
   28.6289  -21.6806  -16.2265 C   0  0  2  0  0  0  0  0  0  0  0  0
   29.1831  -21.3327  -17.4978 N   0  0  0  0  0  0  0  0  0  0  0  0
   28.4892  -20.5230  -15.3321 C   0  0  0  0  0  0  0  0  0  0  0  0
   29.2837  -19.5289  -15.3927 O   0  0  0  0  0  0  0  0  0  0  0  0
   26.4139  -26.9476  -16.6290 N   0  0  0  0  0  0  0  0  0  0  0  0
   27.4345  -20.5155  -14.3693 C   0  0  2  0  0  0  0  0  0  0  0  0
   27.3537  -19.5236  -13.3511 C   0  0  0  0  0  0  0  0  0  0  0  0
   27.1791  -18.1555  -13.9472 C   0  0  0  0  0  0  0  0  0  0  0  0
   25.9934  -18.0090  -14.8123 C   0  0  0  0  0  0  0  0  0  0  0  0
   24.7217  -18.4577  -14.4470 N   0  0  0  0  0  0  0  0  0  0  0  0
   23.8515  -18.1567  -15.4310 C   0  0  0  0  0  0  0  0  0  0  0  0
   24.4820  -17.5322  -16.4297 C   0  0  0  0  0  0  0  0  0  0  0  0
   24.0421  -17.0383  -17.6425 C   0  0  0  0  0  0  0  0  0  0  0  0
   24.9405  -16.4438  -18.4891 C   0  0  0  0  0  0  0  0  0  0  0  0
   26.2580  -16.3525  -18.1125 C   0  0  0  0  0  0  0  0  0  0  0  0
   26.7040  -16.8486  -16.8913 C   0  0  0  0  0  0  0  0  0  0  0  0
   25.8132  -17.4424  -16.0416 C   0  0  0  0  0  0  0  0  0  0  0  0
   26.2694  -19.8164  -12.3662 O   0  0  0  0  0  0  0  0  0  0  0  0
   25.3069  -20.5820  -12.6470 N   0  0  0  0  0  0  0  0  0  0  0  0
   26.3060  -19.2338  -11.0921 C   0  0  0  0  0  0  0  0  0  0  0  0
   26.2656  -20.0650   -9.8830 C   0  0  0  0  0  0  0  0  0  0  0  0
   24.9503  -20.6624   -9.6734 O   0  0  0  0  0  0  0  0  0  0  0  0
   24.0448  -20.5091  -10.5210 O   0  0  0  0  0  0  0  0  0  0  0  0
  2  1  1  0
  2  3  2  0
  4  5  1  0
  4  2  1  0
  6  5  1  0
  7  6  1  0
  8  7  1  0
  8  9  1  6
 10  8  1  0
 10 11  2  0
 12 10  1  0
 13 14  1  6
 13 12  1  0
 15 14  1  0
 15 23  1  0
 16 15  2  0
 17 16  1  0
 17 18  1  0
 18 19  1  0
 18 23  2  0
 19 20  2  0
 20 21  1  0
 22 21  2  0
 23 22  1  0
 24 13  1  0
 25 24  2  0
 26 24  1  0
 27 26  1  0
 28 30  1  0
 28 27  1  0
 29 28  2  0
M  END
$$$$
