RWG.pdb
     RDKit          3D

 30 31  0  0  1  0  0  0  0  0999 V2000
   30.1563  -17.8066  -19.3462 N   0  0  0  0  0  0  0  0  0  0  0  0
   29.6766  -16.6099  -18.7558 C   0  0  0  0  0  0  0  0  0  0  0  0
   29.4078  -15.5639  -19.4859 N   0  0  0  0  0  0  0  0  0  0  0  0
   29.4576  -16.4605  -17.3725 N   0  0  0  0  0  0  0  0  0  0  0  0
   29.6634  -17.5753  -16.4854 C   0  0  0  0  0  0  0  0  0  0  0  0
   28.5026  -18.5114  -16.6757 C   0  0  0  0  0  0  0  0  0  0  0  0
   27.7163  -18.8140  -15.4489 C   0  0  0  0  0  0  0  0  0  0  0  0
   28.1097  -20.1177  -14.8155 C   0  0  2  0  0  0  0  0  0  0  0  0
   28.8369  -20.9381  -15.7334 N   0  0  0  0  0  0  0  0  0  0  0  0
   26.9748  -20.8211  -14.2017 C   0  0  0  0  0  0  0  0  0  0  0  0
   26.0404  -21.3276  -14.9040 O   0  0  0  0  0  0  0  0  0  0  0  0
   29.0388  -14.7301  -18.9849 N   0  0  0  0  0  0  0  0  0  0  0  0
   26.9200  -20.9373  -12.7793 C   0  0  2  0  0  0  0  0  0  0  0  0
   25.8507  -21.6083  -12.1210 C   0  0  0  0  0  0  0  0  0  0  0  0
   26.2884  -22.1312  -10.7821 C   0  0  0  0  0  0  0  0  0  0  0  0
   26.3167  -21.1212   -9.7074 C   0  0  0  0  0  0  0  0  0  0  0  0
   25.2721  -20.2226   -9.4766 N   0  0  0  0  0  0  0  0  0  0  0  0
   25.5840  -19.4512   -8.4166 C   0  0  0  0  0  0  0  0  0  0  0  0
   26.7821  -19.7925   -7.9339 C   0  0  0  0  0  0  0  0  0  0  0  0
   27.5347  -19.3046   -6.8832 C   0  0  0  0  0  0  0  0  0  0  0  0
   28.7620  -19.8566   -6.6254 C   0  0  0  0  0  0  0  0  0  0  0  0
   29.2159  -20.8824   -7.4177 C   0  0  0  0  0  0  0  0  0  0  0  0
   28.4599  -21.3762   -8.4766 C   0  0  0  0  0  0  0  0  0  0  0  0
   27.2345  -20.8307   -8.7390 C   0  0  0  0  0  0  0  0  0  0  0  0
   24.6425  -20.7405  -11.9834 O   0  0  0  0  0  0  0  0  0  0  0  0
   24.7309  -19.5299  -11.6400 N   0  0  0  0  0  0  0  0  0  0  0  0
   23.3696  -21.2685  -12.2383 C   0  0  0  0  0  0  0  0  0  0  0  0
   22.1737  -20.4212  -12.1589 C   0  0  0  0  0  0  0  0  0  0  0  0
   20.9569  -21.1604  -12.4808 O   0  0  0  0  0  0  0  0  0  0  0  0
   21.0214  -22.3531  -12.8488 O   0  0  0  0  0  0  0  0  0  0  0  0
  2  1  1  0
  2  3  2  0
  4  5  1  0
  4  2  1  0
  6  5  1  0
  7  6  1  0
  8  7  1  0
  8  9  1  6
 10  8  1  0
 10 11  2  0
 12 10  1  0
 13 14  1  6
 13 12  1  0
 15 14  1  0
 15 23  1  0
 16 15  2  0
 17 16  1  0
 17 18  1  0
 18 19  1  0
 18 23  2  0
 19 20  2  0
 20 21  1  0
 22 21  2  0
 23 22  1  0
 24 13  1  0
 25 24  2  0
 26 24  1  0
 27 26  1  0
 28 30  1  0
 28 27  1  0
 29 28  2  0
M  END
$$$$
