RWG.pdb
     RDKit          3D

 30 31  0  0  1  0  0  0  0  0999 V2000
   30.6085  -26.6592  -16.4422 N   0  0  0  0  0  0  0  0  0  0  0  0
   30.5513  -26.2111  -17.7863 C   0  0  0  0  0  0  0  0  0  0  0  0
   30.2296  -27.0267  -18.7511 N   0  0  0  0  0  0  0  0  0  0  0  0
   30.8288  -24.8861  -18.1753 N   0  0  0  0  0  0  0  0  0  0  0  0
   30.7381  -23.8186  -17.2139 C   0  0  0  0  0  0  0  0  0  0  0  0
   29.7842  -22.8001  -17.7733 C   0  0  0  0  0  0  0  0  0  0  0  0
   29.2676  -21.8027  -16.7970 C   0  0  0  0  0  0  0  0  0  0  0  0
   28.1980  -22.3652  -15.9053 C   0  0  2  0  0  0  0  0  0  0  0  0
   27.1277  -22.9224  -16.6723 N   0  0  0  0  0  0  0  0  0  0  0  0
   27.7324  -21.4053  -14.8947 C   0  0  0  0  0  0  0  0  0  0  0  0
   28.5462  -20.7635  -14.1540 O   0  0  0  0  0  0  0  0  0  0  0  0
   30.2196  -26.6285  -19.7122 N   0  0  0  0  0  0  0  0  0  0  0  0
   26.3292  -21.1892  -14.7399 C   0  0  1  0  0  0  0  0  0  0  0  0
   25.8110  -20.2786  -13.7759 C   0  0  0  0  0  0  0  0  0  0  0  0
   25.0590  -19.1616  -14.4426 C   0  0  0  0  0  0  0  0  0  0  0  0
   25.9125  -18.1243  -15.0520 C   0  0  0  0  0  0  0  0  0  0  0  0
   26.5758  -17.1464  -14.3065 N   0  0  0  0  0  0  0  0  0  0  0  0
   27.2904  -16.3678  -15.1427 C   0  0  0  0  0  0  0  0  0  0  0  0
   27.1338  -16.7797  -16.4039 C   0  0  0  0  0  0  0  0  0  0  0  0
   27.6390  -16.3157  -17.6031 C   0  0  0  0  0  0  0  0  0  0  0  0
   27.2863  -16.9464  -18.7672 C   0  0  0  0  0  0  0  0  0  0  0  0
   26.4385  -18.0256  -18.7151 C   0  0  0  0  0  0  0  0  0  0  0  0
   25.9284  -18.4954  -17.5087 C   0  0  0  0  0  0  0  0  0  0  0  0
   26.2765  -17.8714  -16.3436 C   0  0  0  0  0  0  0  0  0  0  0  0
   24.9559  -20.9625  -12.7597 O   0  0  0  0  0  0  0  0  0  0  0  0
   24.2756  -21.9856  -13.0453 N   0  0  0  0  0  0  0  0  0  0  0  0
   24.8958  -20.4681  -11.4497 C   0  0  0  0  0  0  0  0  0  0  0  0
   24.1048  -21.1549  -10.4216 C   0  0  0  0  0  0  0  0  0  0  0  0
   22.7066  -20.7359  -10.4360 O   0  0  0  0  0  0  0  0  0  0  0  0
   22.2878  -19.9645  -11.3257 O   0  0  0  0  0  0  0  0  0  0  0  0
  2  1  1  0
  2  3  2  0
  4  5  1  0
  4  2  1  0
  6  5  1  0
  7  6  1  0
  8  7  1  0
  8  9  1  6
 10  8  1  0
 10 11  2  0
 12 10  1  0
 13 14  1  1
 13 12  1  0
 15 14  1  0
 15 23  1  0
 16 15  2  0
 17 16  1  0
 17 18  1  0
 18 19  1  0
 18 23  2  0
 19 20  2  0
 20 21  1  0
 22 21  2  0
 23 22  1  0
 24 13  1  0
 25 24  2  0
 26 24  1  0
 27 26  1  0
 28 30  1  0
 28 27  1  0
 29 28  2  0
M  END
$$$$
