RWG.pdb
     RDKit          3D

 30 31  0  0  1  0  0  0  0  0999 V2000
   27.9407  -16.9742  -17.1328 N   0  0  0  0  0  0  0  0  0  0  0  0
   28.5348  -17.9350  -17.9900 C   0  0  0  0  0  0  0  0  0  0  0  0
   29.5187  -17.6095  -18.7809 N   0  0  0  0  0  0  0  0  0  0  0  0
   28.1216  -19.2801  -18.0529 N   0  0  0  0  0  0  0  0  0  0  0  0
   27.3332  -19.8425  -16.9878 C   0  0  0  0  0  0  0  0  0  0  0  0
   28.2866  -20.2441  -15.8971 C   0  0  0  0  0  0  0  0  0  0  0  0
   27.6853  -21.0087  -14.7707 C   0  0  0  0  0  0  0  0  0  0  0  0
   26.6643  -20.2126  -14.0098 C   0  0  2  0  0  0  0  0  0  0  0  0
   27.0081  -18.8250  -13.9828 N   0  0  0  0  0  0  0  0  0  0  0  0
   26.3954  -20.7569  -12.6716 C   0  0  0  0  0  0  0  0  0  0  0  0
   25.9514  -21.9394  -12.5052 O   0  0  0  0  0  0  0  0  0  0  0  0
   29.8574  -18.3490  -19.4297 N   0  0  0  0  0  0  0  0  0  0  0  0
   26.6379  -19.9356  -11.5287 C   0  0  1  0  0  0  0  0  0  0  0  0
   26.3042  -20.3627  -10.2121 C   0  0  0  0  0  0  0  0  0  0  0  0
   27.1670  -19.6773   -9.1906 C   0  0  0  0  0  0  0  0  0  0  0  0
   26.9448  -20.1210   -7.8015 C   0  0  0  0  0  0  0  0  0  0  0  0
   25.9085  -20.9818   -7.4316 N   0  0  0  0  0  0  0  0  0  0  0  0
   25.9869  -21.2181   -6.1072 C   0  0  0  0  0  0  0  0  0  0  0  0
   27.0218  -20.5571   -5.5809 C   0  0  0  0  0  0  0  0  0  0  0  0
   27.5086  -20.4667   -4.2912 C   0  0  0  0  0  0  0  0  0  0  0  0
   28.6056  -19.6842   -4.0427 C   0  0  0  0  0  0  0  0  0  0  0  0
   29.1960  -19.0075   -5.0817 C   0  0  0  0  0  0  0  0  0  0  0  0
   28.7081  -19.0969   -6.3819 C   0  0  0  0  0  0  0  0  0  0  0  0
   27.6147  -19.8761   -6.6370 C   0  0  0  0  0  0  0  0  0  0  0  0
   24.8561  -20.1607   -9.9060 O   0  0  0  0  0  0  0  0  0  0  0  0
   24.3100  -19.0274   -9.9994 N   0  0  0  0  0  0  0  0  0  0  0  0
   24.0683  -21.2475   -9.5030 C   0  0  0  0  0  0  0  0  0  0  0  0
   22.6156  -21.1072   -9.3471 C   0  0  0  0  0  0  0  0  0  0  0  0
   21.9383  -20.9661  -10.6325 O   0  0  0  0  0  0  0  0  0  0  0  0
   22.2596  -21.6912  -11.5983 O   0  0  0  0  0  0  0  0  0  0  0  0
  2  1  1  0
  2  3  2  0
  4  5  1  0
  4  2  1  0
  6  5  1  0
  7  6  1  0
  8  7  1  0
  8  9  1  1
 10  8  1  0
 10 11  2  0
 12 10  1  0
 13 14  1  6
 13 12  1  0
 15 14  1  0
 15 23  1  0
 16 15  2  0
 17 16  1  0
 17 18  1  0
 18 19  1  0
 18 23  2  0
 19 20  2  0
 20 21  1  0
 22 21  2  0
 23 22  1  0
 24 13  1  0
 25 24  2  0
 26 24  1  0
 27 26  1  0
 28 30  1  0
 28 27  1  0
 29 28  2  0
M  END
$$$$
