RWG.pdb
     RDKit          3D

 30 31  0  0  1  0  0  0  0  0999 V2000
   29.7886  -27.0800  -18.0408 N   0  0  0  0  0  0  0  0  0  0  0  0
   29.1927  -26.1525  -18.9326 C   0  0  0  0  0  0  0  0  0  0  0  0
   29.0995  -26.4134  -20.2065 N   0  0  0  0  0  0  0  0  0  0  0  0
   28.6679  -24.9107  -18.5247 N   0  0  0  0  0  0  0  0  0  0  0  0
   28.6472  -24.5604  -17.1286 C   0  0  0  0  0  0  0  0  0  0  0  0
   27.9423  -23.2374  -17.0155 C   0  0  0  0  0  0  0  0  0  0  0  0
   27.0308  -23.0954  -15.8476 C   0  0  0  0  0  0  0  0  0  0  0  0
   27.6580  -22.3393  -14.7117 C   0  0  2  0  0  0  0  0  0  0  0  0
   29.0099  -22.7543  -14.5004 N   0  0  0  0  0  0  0  0  0  0  0  0
   26.8529  -22.3807  -13.4831 C   0  0  0  0  0  0  0  0  0  0  0  0
   26.6471  -23.4682  -12.8523 O   0  0  0  0  0  0  0  0  0  0  0  0
   28.7618  -25.6404  -20.8155 N   0  0  0  0  0  0  0  0  0  0  0  0
   26.2859  -21.1678  -12.9859 C   0  0  1  0  0  0  0  0  0  0  0  0
   25.3816  -21.1566  -11.8864 C   0  0  0  0  0  0  0  0  0  0  0  0
   25.8180  -20.1678  -10.8425 C   0  0  0  0  0  0  0  0  0  0  0  0
   27.0420  -20.5461  -10.1114 C   0  0  0  0  0  0  0  0  0  0  0  0
   28.1388  -21.1576  -10.7239 N   0  0  0  0  0  0  0  0  0  0  0  0
   29.1030  -21.3518   -9.8026 C   0  0  0  0  0  0  0  0  0  0  0  0
   28.7005  -20.9008   -8.6112 C   0  0  0  0  0  0  0  0  0  0  0  0
   29.3091  -20.8792   -7.3711 C   0  0  0  0  0  0  0  0  0  0  0  0
   28.6329  -20.3519   -6.3024 C   0  0  0  0  0  0  0  0  0  0  0  0
   27.3654  -19.8570   -6.4885 C   0  0  0  0  0  0  0  0  0  0  0  0
   26.7500  -19.8771   -7.7364 C   0  0  0  0  0  0  0  0  0  0  0  0
   27.4189  -20.4010   -8.8070 C   0  0  0  0  0  0  0  0  0  0  0  0
   23.9764  -20.8890  -12.3172 O   0  0  0  0  0  0  0  0  0  0  0  0
   23.6876  -19.9240  -13.0764 N   0  0  0  0  0  0  0  0  0  0  0  0
   22.9392  -21.7217  -11.8758 C   0  0  0  0  0  0  0  0  0  0  0  0
   21.5548  -21.4921  -12.3062 C   0  0  0  0  0  0  0  0  0  0  0  0
   20.8642  -20.5390  -11.4429 O   0  0  0  0  0  0  0  0  0  0  0  0
   19.6496  -20.2983  -11.6127 O   0  0  0  0  0  0  0  0  0  0  0  0
  2  1  1  0
  2  3  2  0
  4  5  1  0
  4  2  1  0
  6  5  1  0
  7  6  1  0
  8  7  1  0
  8  9  1  1
 10  8  1  0
 10 11  2  0
 12 10  1  0
 13 14  1  1
 13 12  1  0
 15 14  1  0
 15 23  1  0
 16 15  2  0
 17 16  1  0
 17 18  1  0
 18 19  1  0
 18 23  2  0
 19 20  2  0
 20 21  1  0
 22 21  2  0
 23 22  1  0
 24 13  1  0
 25 24  2  0
 26 24  1  0
 27 26  1  0
 28 30  1  0
 28 27  1  0
 29 28  2  0
M  END
$$$$
