RWG.pdb
     RDKit          3D

 30 31  0  0  1  0  0  0  0  0999 V2000
   25.2177  -28.3268  -17.6217 N   0  0  0  0  0  0  0  0  0  0  0  0
   24.1033  -27.6046  -17.1247 C   0  0  0  0  0  0  0  0  0  0  0  0
   22.9734  -28.2050  -16.8748 N   0  0  0  0  0  0  0  0  0  0  0  0
   24.1276  -26.2199  -16.8677 N   0  0  0  0  0  0  0  0  0  0  0  0
   25.3837  -25.5190  -16.8120 C   0  0  0  0  0  0  0  0  0  0  0  0
   25.2637  -24.3247  -17.7170 C   0  0  0  0  0  0  0  0  0  0  0  0
   24.9324  -23.0405  -17.0418 C   0  0  0  0  0  0  0  0  0  0  0  0
   26.0601  -22.5229  -16.1959 C   0  0  2  0  0  0  0  0  0  0  0  0
   27.2459  -23.2987  -16.3867 N   0  0  0  0  0  0  0  0  0  0  0  0
   25.6953  -22.3828  -14.7793 C   0  0  0  0  0  0  0  0  0  0  0  0
   25.9181  -23.3099  -13.9344 O   0  0  0  0  0  0  0  0  0  0  0  0
   22.1972  -27.6073  -16.5246 N   0  0  0  0  0  0  0  0  0  0  0  0
   25.0731  -21.1743  -14.3410 C   0  0  1  0  0  0  0  0  0  0  0  0
   24.7268  -20.9595  -12.9768 C   0  0  0  0  0  0  0  0  0  0  0  0
   25.4582  -19.7719  -12.4180 C   0  0  0  0  0  0  0  0  0  0  0  0
   26.9267  -19.9092  -12.3962 C   0  0  0  0  0  0  0  0  0  0  0  0
   27.7469  -19.5059  -13.4529 N   0  0  0  0  0  0  0  0  0  0  0  0
   29.0327  -19.7369  -13.1221 C   0  0  0  0  0  0  0  0  0  0  0  0
   29.1060  -20.2730  -11.9006 C   0  0  0  0  0  0  0  0  0  0  0  0
   30.1745  -20.6903  -11.1308 C   0  0  0  0  0  0  0  0  0  0  0  0
   29.9388  -21.2245   -9.8913 C   0  0  0  0  0  0  0  0  0  0  0  0
   28.6454  -21.3331   -9.4426 C   0  0  0  0  0  0  0  0  0  0  0  0
   27.5671  -20.9133  -10.2156 C   0  0  0  0  0  0  0  0  0  0  0  0
   27.7950  -20.3788  -11.4527 C   0  0  0  0  0  0  0  0  0  0  0  0
   23.2522  -20.8125  -12.7878 O   0  0  0  0  0  0  0  0  0  0  0  0
   22.7508  -20.5493  -11.6607 N   0  0  0  0  0  0  0  0  0  0  0  0
   22.3883  -20.9679  -13.8803 C   0  0  0  0  0  0  0  0  0  0  0  0
   21.1391  -21.7274  -13.7499 C   0  0  0  0  0  0  0  0  0  0  0  0
   20.0078  -20.8671  -13.4169 O   0  0  0  0  0  0  0  0  0  0  0  0
   18.8839  -21.3628  -13.1868 O   0  0  0  0  0  0  0  0  0  0  0  0
  2  1  1  0
  2  3  2  0
  4  5  1  0
  4  2  1  0
  6  5  1  0
  7  6  1  0
  8  7  1  0
  8  9  1  1
 10  8  1  0
 10 11  2  0
 12 10  1  0
 13 14  1  1
 13 12  1  0
 15 14  1  0
 15 23  1  0
 16 15  2  0
 17 16  1  0
 17 18  1  0
 18 19  1  0
 18 23  2  0
 19 20  2  0
 20 21  1  0
 22 21  2  0
 23 22  1  0
 24 13  1  0
 25 24  2  0
 26 24  1  0
 27 26  1  0
 28 30  1  0
 28 27  1  0
 29 28  2  0
M  END
$$$$
