TIM.pdb
     RDKit          3D

 24 23  0  0  1  0  0  0  0  0999 V2000
   30.1960  -22.1111  -17.1832 C   0  0  0  0  0  0  0  0  0  0  0  0
   28.8098  -22.5912  -17.5147 C   0  0  1  0  0  0  0  0  0  0  0  0
   28.8572  -23.6036  -18.4765 O   0  0  0  0  0  0  0  0  0  0  0  0
   28.1029  -23.0484  -16.2792 C   0  0  2  0  0  0  0  0  0  0  0  0
   26.9331  -23.8392  -16.5435 N   0  0  0  0  0  0  0  0  0  0  0  0
   27.7910  -21.8704  -15.4120 C   0  0  0  0  0  0  0  0  0  0  0  0
   28.6628  -20.9774  -15.1781 O   0  0  0  0  0  0  0  0  0  0  0  0
   24.1215  -18.5488  -16.5825 C   0  0  0  0  0  0  0  0  0  0  0  0
   25.3396  -19.1775  -15.9524 C   0  0  0  0  0  0  0  0  0  0  0  0
   25.0917  -19.8370  -14.6560 C   0  0  2  0  0  0  0  0  0  0  0  0
   24.5397  -18.7670  -13.7023 C   0  0  0  0  0  0  0  0  0  0  0  0
   26.2289  -20.5134  -13.9828 C   0  0  2  0  0  0  0  0  0  0  0  0
   26.5156  -21.7037  -14.8188 N   0  0  0  0  0  0  0  0  0  0  0  0
   25.9798  -20.9955  -12.6313 C   0  0  0  0  0  0  0  0  0  0  0  0
   25.2529  -22.0273  -12.4591 O   0  0  0  0  0  0  0  0  0  0  0  0
   29.2404  -19.7129   -6.6624 C   0  0  0  0  0  0  0  0  0  0  0  0
   27.4650  -19.6385   -6.4271 S   0  0  0  0  0  0  0  0  0  0  0  0
   26.5630  -20.5444   -7.6856 C   0  0  0  0  0  0  0  0  0  0  0  0
   26.9113  -20.1017   -9.0794 C   0  0  0  0  0  0  0  0  0  0  0  0
   26.1866  -20.8903  -10.1476 C   0  0  2  0  0  0  0  0  0  0  0  0
   26.4956  -20.3950  -11.4750 N   0  0  0  0  0  0  0  0  0  0  0  0
   24.7448  -20.7233   -9.8995 C   0  0  0  0  0  0  0  0  0  0  0  0
   24.0889  -19.6268  -10.4258 O   0  0  0  0  0  0  0  0  0  0  0  0
   24.0556  -21.5329   -9.2239 O   0  0  0  0  0  0  0  0  0  0  0  0
  2  3  1  0
  2  1  1  1
  4  2  1  0
  4  5  1  6
  6 13  1  0
  6  4  1  0
  7  6  2  0
  8  9  1  0
  9 10  1  0
 10 12  1  0
 10 11  1  1
 12 13  1  6
 14 15  2  0
 14 12  1  0
 16 17  1  0
 18 17  1  0
 18 19  1  0
 20 19  1  1
 20 21  1  0
 21 14  1  0
 22 20  1  0
 23 22  1  0
 24 22  2  0
M  END
$$$$
