TIM.pdb
     RDKit          3D

 24 23  0  0  1  0  0  0  0  0999 V2000
   23.9030  -11.0454  -14.0054 C   0  0  0  0  0  0  0  0  0  0  0  0
   23.1832  -10.0649  -14.8900 C   0  0  1  0  0  0  0  0  0  0  0  0
   24.0944   -9.3326  -15.6552 O   0  0  0  0  0  0  0  0  0  0  0  0
   22.1898  -10.7704  -15.7564 C   0  0  2  0  0  0  0  0  0  0  0  0
   22.7803  -11.7317  -16.6457 N   0  0  0  0  0  0  0  0  0  0  0  0
   21.3632   -9.7667  -16.4955 C   0  0  0  0  0  0  0  0  0  0  0  0
   21.4419   -9.6522  -17.7577 O   0  0  0  0  0  0  0  0  0  0  0  0
   16.3762  -10.0394  -16.5450 C   0  0  0  0  0  0  0  0  0  0  0  0
   17.6569   -9.4661  -17.0993 C   0  0  0  0  0  0  0  0  0  0  0  0
   18.2275   -8.3571  -16.3108 C   0  0  2  0  0  0  0  0  0  0  0  0
   17.3222   -7.1354  -16.5274 C   0  0  0  0  0  0  0  0  0  0  0  0
   19.6282   -7.9484  -16.5843 C   0  0  2  0  0  0  0  0  0  0  0  0
   20.4626   -8.9066  -15.8205 N   0  0  0  0  0  0  0  0  0  0  0  0
   20.0050   -6.6129  -16.1420 C   0  0  0  0  0  0  0  0  0  0  0  0
   20.0438   -6.3545  -14.8953 O   0  0  0  0  0  0  0  0  0  0  0  0
   24.0294   -0.7421  -18.2825 C   0  0  0  0  0  0  0  0  0  0  0  0
   22.2597   -0.9610  -18.4652 S   0  0  0  0  0  0  0  0  0  0  0  0
   21.5508   -1.9719  -17.1638 C   0  0  0  0  0  0  0  0  0  0  0  0
   21.2171   -3.3624  -17.6276 C   0  0  0  0  0  0  0  0  0  0  0  0
   20.6833   -4.2421  -16.5188 C   0  0  2  0  0  0  0  0  0  0  0  0
   20.3397   -5.5633  -17.0081 N   0  0  0  0  0  0  0  0  0  0  0  0
   19.4663   -3.5922  -16.0043 C   0  0  0  0  0  0  0  0  0  0  0  0
   19.5648   -2.7110  -14.9444 O   0  0  0  0  0  0  0  0  0  0  0  0
   18.3163   -3.7918  -16.4781 O   0  0  0  0  0  0  0  0  0  0  0  0
  2  3  1  0
  2  1  1  6
  4  2  1  0
  4  5  1  6
  6 13  1  0
  6  4  1  0
  7  6  2  0
  8  9  1  0
  9 10  1  0
 10 12  1  0
 10 11  1  6
 12 13  1  1
 14 15  2  0
 14 12  1  0
 16 17  1  0
 18 17  1  0
 18 19  1  0
 20 19  1  6
 20 21  1  0
 21 14  1  0
 22 20  1  0
 23 22  1  0
 24 22  2  0
M  END
$$$$
