TIM.pdb
     RDKit          3D

 24 23  0  0  1  0  0  0  0  0999 V2000
   19.2709  -12.7111  -19.5083 C   0  0  0  0  0  0  0  0  0  0  0  0
   19.9120  -11.9041  -18.4130 C   0  0  1  0  0  0  0  0  0  0  0  0
   18.9436  -11.2129  -17.6805 O   0  0  0  0  0  0  0  0  0  0  0  0
   20.7380  -12.7821  -17.5285 C   0  0  2  0  0  0  0  0  0  0  0  0
   19.9967  -13.8559  -16.9277 N   0  0  0  0  0  0  0  0  0  0  0  0
   21.4366  -11.9487  -16.5018 C   0  0  0  0  0  0  0  0  0  0  0  0
   20.9842  -11.8467  -15.3196 O   0  0  0  0  0  0  0  0  0  0  0  0
   27.1701  -10.7621  -15.1865 C   0  0  0  0  0  0  0  0  0  0  0  0
   25.7552  -10.2786  -14.9858 C   0  0  0  0  0  0  0  0  0  0  0  0
   24.7496  -10.9467  -15.8341 C   0  0  2  0  0  0  0  0  0  0  0  0
   25.2117  -10.7919  -17.2906 C   0  0  0  0  0  0  0  0  0  0  0  0
   23.3400  -10.4894  -15.7456 C   0  0  2  0  0  0  0  0  0  0  0  0
   22.6262  -11.2422  -16.8048 N   0  0  0  0  0  0  0  0  0  0  0  0
   23.1071   -9.0748  -16.0017 C   0  0  0  0  0  0  0  0  0  0  0  0
   23.4488   -8.5774  -17.1235 O   0  0  0  0  0  0  0  0  0  0  0  0
   18.5514   -5.2471  -18.0779 C   0  0  0  0  0  0  0  0  0  0  0  0
   18.9444   -4.6716  -16.4265 S   0  0  0  0  0  0  0  0  0  0  0  0
   20.6415   -5.0182  -15.9599 C   0  0  0  0  0  0  0  0  0  0  0  0
   20.8854   -6.4800  -15.7071 C   0  0  0  0  0  0  0  0  0  0  0  0
   22.3288   -6.7888  -15.3761 C   0  0  2  0  0  0  0  0  0  0  0  0
   22.5169   -8.1965  -15.0829 N   0  0  0  0  0  0  0  0  0  0  0  0
   22.6718   -6.0020  -14.1796 C   0  0  0  0  0  0  0  0  0  0  0  0
   22.9225   -4.6491  -14.3070 O   0  0  0  0  0  0  0  0  0  0  0  0
   22.7533   -6.4932  -13.0225 O   0  0  0  0  0  0  0  0  0  0  0  0
  2  3  1  0
  2  1  1  6
  4  2  1  0
  4  5  1  1
  6 13  1  0
  6  4  1  0
  7  6  2  0
  8  9  1  0
  9 10  1  0
 10 12  1  0
 10 11  1  6
 12 13  1  6
 14 15  2  0
 14 12  1  0
 16 17  1  0
 18 17  1  0
 18 19  1  0
 20 19  1  1
 20 21  1  0
 21 14  1  0
 22 20  1  0
 23 22  1  0
 24 22  2  0
M  END
$$$$
