TIM.pdb
     RDKit          3D

 24 23  0  0  1  0  0  0  0  0999 V2000
   13.5403  -24.8448   -0.9000 C   0  0  0  0  0  0  0  0  0  0  0  0
   14.2522  -24.4040   -2.1494 C   0  0  1  0  0  0  0  0  0  0  0  0
   13.9840  -25.2813   -3.2033 O   0  0  0  0  0  0  0  0  0  0  0  0
   13.8752  -23.0008   -2.5014 C   0  0  2  0  0  0  0  0  0  0  0  0
   14.2975  -22.6027   -3.8155 N   0  0  0  0  0  0  0  0  0  0  0  0
   14.3798  -22.0645   -1.4500 C   0  0  0  0  0  0  0  0  0  0  0  0
   15.5883  -21.6748   -1.4423 O   0  0  0  0  0  0  0  0  0  0  0  0
   11.0338  -18.1912    0.3428 C   0  0  0  0  0  0  0  0  0  0  0  0
   12.2990  -18.8977   -0.0772 C   0  0  0  0  0  0  0  0  0  0  0  0
   12.8816  -19.7814    0.9509 C   0  0  2  0  0  0  0  0  0  0  0  0
   13.2860  -18.8916    2.1358 C   0  0  0  0  0  0  0  0  0  0  0  0
   14.0518  -20.6158    0.5793 C   0  0  2  0  0  0  0  0  0  0  0  0
   13.5338  -21.5763   -0.4242 N   0  0  0  0  0  0  0  0  0  0  0  0
   14.6452  -21.4027    1.6514 C   0  0  0  0  0  0  0  0  0  0  0  0
   14.5159  -22.6699    1.6428 O   0  0  0  0  0  0  0  0  0  0  0  0
   20.6123  -24.9854    3.6169 C   0  0  0  0  0  0  0  0  0  0  0  0
   19.6183  -23.8445    2.6560 S   0  0  0  0  0  0  0  0  0  0  0  0
   18.2675  -23.1391    3.6026 C   0  0  0  0  0  0  0  0  0  0  0  0
   17.3422  -22.3069    2.7592 C   0  0  0  0  0  0  0  0  0  0  0  0
   16.2301  -21.6662    3.5597 C   0  0  2  0  0  0  0  0  0  0  0  0
   15.3695  -20.8561    2.7193 N   0  0  0  0  0  0  0  0  0  0  0  0
   16.8693  -20.7997    4.5641 C   0  0  0  0  0  0  0  0  0  0  0  0
   17.4191  -21.3674    5.6977 O   0  0  0  0  0  0  0  0  0  0  0  0
   16.9490  -19.5474    4.4545 O   0  0  0  0  0  0  0  0  0  0  0  0
  2  3  1  0
  2  1  1  1
  4  2  1  0
  4  5  1  6
  6 13  1  0
  6  4  1  0
  7  6  2  0
  8  9  1  0
  9 10  1  0
 10 12  1  0
 10 11  1  1
 12 13  1  6
 14 15  2  0
 14 12  1  0
 16 17  1  0
 18 17  1  0
 18 19  1  0
 20 19  1  6
 20 21  1  0
 21 14  1  0
 22 20  1  0
 23 22  1  0
 24 22  2  0
M  END
$$$$
