TIM.pdb
     RDKit          3D

 24 23  0  0  1  0  0  0  0  0999 V2000
   21.4034  -17.6718  -14.5067 C   0  0  0  0  0  0  0  0  0  0  0  0
   22.4854  -18.6700  -14.1987 C   0  0  1  0  0  0  0  0  0  0  0  0
   21.9476  -19.8042  -13.5851 O   0  0  0  0  0  0  0  0  0  0  0  0
   23.2375  -19.0290  -15.4400 C   0  0  2  0  0  0  0  0  0  0  0  0
   22.4043  -19.5469  -16.4894 N   0  0  0  0  0  0  0  0  0  0  0  0
   24.3501  -19.9693  -15.1009 C   0  0  0  0  0  0  0  0  0  0  0  0
   24.2947  -21.1963  -15.4231 O   0  0  0  0  0  0  0  0  0  0  0  0
   28.3782  -17.7519  -15.7723 C   0  0  0  0  0  0  0  0  0  0  0  0
   28.2381  -19.2456  -15.6130 C   0  0  0  0  0  0  0  0  0  0  0  0
   27.8495  -19.6872  -14.2598 C   0  0  2  0  0  0  0  0  0  0  0  0
   29.0154  -20.5173  -13.7026 C   0  0  0  0  0  0  0  0  0  0  0  0
   26.6042  -20.4813  -14.1104 C   0  0  2  0  0  0  0  0  0  0  0  0
   25.5061  -19.5312  -14.4095 N   0  0  0  0  0  0  0  0  0  0  0  0
   26.3446  -21.0241  -12.7841 C   0  0  0  0  0  0  0  0  0  0  0  0
   26.8254  -22.1605  -12.4680 O   0  0  0  0  0  0  0  0  0  0  0  0
   28.2118  -18.9530   -7.3387 C   0  0  0  0  0  0  0  0  0  0  0  0
   26.6317  -19.5836   -6.7741 S   0  0  0  0  0  0  0  0  0  0  0  0
   25.7946  -20.5652   -8.0206 C   0  0  0  0  0  0  0  0  0  0  0  0
   26.0556  -20.0729   -9.4169 C   0  0  0  0  0  0  0  0  0  0  0  0
   25.4003  -20.9301  -10.4771 C   0  0  2  0  0  0  0  0  0  0  0  0
   25.5872  -20.3714  -11.8021 N   0  0  0  0  0  0  0  0  0  0  0  0
   23.9602  -20.9631  -10.1717 C   0  0  0  0  0  0  0  0  0  0  0  0
   23.5240  -21.6074   -9.0297 O   0  0  0  0  0  0  0  0  0  0  0  0
   23.0812  -20.4306  -10.9000 O   0  0  0  0  0  0  0  0  0  0  0  0
  2  3  1  0
  2  1  1  6
  4  2  1  0
  4  5  1  6
  6 13  1  0
  6  4  1  0
  7  6  2  0
  8  9  1  0
  9 10  1  0
 10 12  1  0
 10 11  1  6
 12 13  1  1
 14 15  2  0
 14 12  1  0
 16 17  1  0
 18 17  1  0
 18 19  1  0
 20 19  1  1
 20 21  1  0
 21 14  1  0
 22 20  1  0
 23 22  1  0
 24 22  2  0
M  END
$$$$
