TIM.pdb
     RDKit          3D

 24 23  0  0  1  0  0  0  0  0999 V2000
   32.0360  -17.0006  -19.1984 C   0  0  0  0  0  0  0  0  0  0  0  0
   31.3740  -15.6561  -19.3257 C   0  0  1  0  0  0  0  0  0  0  0  0
   32.0283  -14.8747  -20.2815 O   0  0  0  0  0  0  0  0  0  0  0  0
   29.9238  -15.8138  -19.6532 C   0  0  2  0  0  0  0  0  0  0  0  0
   29.6845  -16.4501  -20.9187 N   0  0  0  0  0  0  0  0  0  0  0  0
   29.2395  -14.4870  -19.5620 C   0  0  0  0  0  0  0  0  0  0  0  0
   28.9937  -13.8015  -20.6022 O   0  0  0  0  0  0  0  0  0  0  0  0
   24.6614  -14.0469  -17.2251 C   0  0  0  0  0  0  0  0  0  0  0  0
   25.8515  -13.7626  -18.1077 C   0  0  0  0  0  0  0  0  0  0  0  0
   26.8902  -12.9174  -17.4880 C   0  0  2  0  0  0  0  0  0  0  0  0
   26.2336  -11.5718  -17.1455 C   0  0  0  0  0  0  0  0  0  0  0  0
   28.1275  -12.6441  -18.2615 C   0  0  2  0  0  0  0  0  0  0  0  0
   28.8392  -13.9434  -18.3168 N   0  0  0  0  0  0  0  0  0  0  0  0
   29.0500  -11.6807  -17.6768 C   0  0  0  0  0  0  0  0  0  0  0  0
   29.8056  -12.0411  -16.7168 O   0  0  0  0  0  0  0  0  0  0  0  0
   34.8502  -11.0748  -16.8267 C   0  0  0  0  0  0  0  0  0  0  0  0
   34.3222   -9.7178  -17.8721 S   0  0  0  0  0  0  0  0  0  0  0  0
   32.6933   -9.1046  -17.4377 C   0  0  0  0  0  0  0  0  0  0  0  0
   31.5910  -10.0276  -17.8771 C   0  0  0  0  0  0  0  0  0  0  0  0
   30.2112   -9.4743  -17.5971 C   0  0  2  0  0  0  0  0  0  0  0  0
   29.1742  -10.3519  -18.1044 N   0  0  0  0  0  0  0  0  0  0  0  0
   30.1206   -8.1781  -18.2898 C   0  0  0  0  0  0  0  0  0  0  0  0
   30.7561   -7.0757  -17.7509 O   0  0  0  0  0  0  0  0  0  0  0  0
   29.4875   -8.0054  -19.3650 O   0  0  0  0  0  0  0  0  0  0  0  0
  2  3  1  0
  2  1  1  6
  4  2  1  0
  4  5  1  6
  6 13  1  0
  6  4  1  0
  7  6  2  0
  8  9  1  0
  9 10  1  0
 10 12  1  0
 10 11  1  6
 12 13  1  1
 14 15  2  0
 14 12  1  0
 16 17  1  0
 18 17  1  0
 18 19  1  0
 20 19  1  6
 20 21  1  0
 21 14  1  0
 22 20  1  0
 23 22  1  0
 24 22  2  0
M  END
$$$$
