TIM.pdb
     RDKit          3D

 24 23  0  0  1  0  0  0  0  0999 V2000
   26.2035  -17.0816  -15.1249 C   0  0  0  0  0  0  0  0  0  0  0  0
   26.7905  -17.9064  -16.2372 C   0  0  1  0  0  0  0  0  0  0  0  0
   27.4629  -17.0912  -17.1513 O   0  0  0  0  0  0  0  0  0  0  0  0
   27.6925  -18.9642  -15.6869 C   0  0  2  0  0  0  0  0  0  0  0  0
   28.4308  -19.6737  -16.6945 N   0  0  0  0  0  0  0  0  0  0  0  0
   26.9070  -19.8941  -14.8178 C   0  0  0  0  0  0  0  0  0  0  0  0
   26.3880  -20.9529  -15.2890 O   0  0  0  0  0  0  0  0  0  0  0  0
   28.7334  -20.9170   -9.9491 C   0  0  0  0  0  0  0  0  0  0  0  0
   27.9822  -21.1922  -11.2282 C   0  0  0  0  0  0  0  0  0  0  0  0
   26.6351  -20.5935  -11.2927 C   0  0  2  0  0  0  0  0  0  0  0  0
   25.7544  -21.3519  -10.2886 C   0  0  0  0  0  0  0  0  0  0  0  0
   25.9350  -20.5780  -12.6016 C   0  0  2  0  0  0  0  0  0  0  0  0
   26.7110  -19.6327  -13.4396 N   0  0  0  0  0  0  0  0  0  0  0  0
   24.5593  -20.1001  -12.5878 C   0  0  0  0  0  0  0  0  0  0  0  0
   24.3271  -18.8681  -12.3625 O   0  0  0  0  0  0  0  0  0  0  0  0
   22.2720  -16.9729  -16.1476 C   0  0  0  0  0  0  0  0  0  0  0  0
   21.0930  -18.2630  -16.5457 S   0  0  0  0  0  0  0  0  0  0  0  0
   20.8994  -19.4550  -15.2191 C   0  0  0  0  0  0  0  0  0  0  0  0
   22.2153  -19.9771  -14.7132 C   0  0  0  0  0  0  0  0  0  0  0  0
   22.1710  -20.3741  -13.2542 C   0  0  2  0  0  0  0  0  0  0  0  0
   23.4418  -20.9153  -12.8124 N   0  0  0  0  0  0  0  0  0  0  0  0
   21.1378  -21.4151  -13.1245 C   0  0  0  0  0  0  0  0  0  0  0  0
   21.4569  -22.7272  -13.4178 O   0  0  0  0  0  0  0  0  0  0  0  0
   19.9562  -21.1819  -12.7554 O   0  0  0  0  0  0  0  0  0  0  0  0
  2  3  1  0
  2  1  1  1
  4  2  1  0
  4  5  1  6
  6 13  1  0
  6  4  1  0
  7  6  2  0
  8  9  1  0
  9 10  1  0
 10 12  1  0
 10 11  1  1
 12 13  1  6
 14 15  2  0
 14 12  1  0
 16 17  1  0
 18 17  1  0
 18 19  1  0
 20 19  1  6
 20 21  1  0
 21 14  1  0
 22 20  1  0
 23 22  1  0
 24 22  2  0
M  END
$$$$
