TIM.pdb
     RDKit          3D

 24 23  0  0  1  0  0  0  0  0999 V2000
   16.3869  -26.9015  -13.4480 C   0  0  0  0  0  0  0  0  0  0  0  0
   16.5832  -26.9172  -11.9570 C   0  0  1  0  0  0  0  0  0  0  0  0
   15.9643  -28.0350  -11.3916 O   0  0  0  0  0  0  0  0  0  0  0  0
   18.0388  -26.8730  -11.6185 C   0  0  2  0  0  0  0  0  0  0  0  0
   18.7895  -27.9733  -12.1564 N   0  0  0  0  0  0  0  0  0  0  0  0
   18.2083  -26.7583  -10.1369 C   0  0  0  0  0  0  0  0  0  0  0  0
   18.7679  -27.6801   -9.4663 O   0  0  0  0  0  0  0  0  0  0  0  0
   20.3799  -22.4461   -8.8244 C   0  0  0  0  0  0  0  0  0  0  0  0
   20.0241  -23.8913   -8.5779 C   0  0  0  0  0  0  0  0  0  0  0  0
   18.7237  -24.1009   -7.9130 C   0  0  2  0  0  0  0  0  0  0  0  0
   18.9123  -23.7502   -6.4296 C   0  0  0  0  0  0  0  0  0  0  0  0
   18.1018  -25.4465   -7.9940 C   0  0  2  0  0  0  0  0  0  0  0  0
   17.7537  -25.6217   -9.4245 N   0  0  0  0  0  0  0  0  0  0  0  0
   16.8736  -25.6325   -7.2338 C   0  0  0  0  0  0  0  0  0  0  0  0
   15.8018  -25.0686   -7.6285 O   0  0  0  0  0  0  0  0  0  0  0  0
   12.8572  -29.3921   -1.4774 C   0  0  0  0  0  0  0  0  0  0  0  0
   14.3507  -29.2437   -2.4573 S   0  0  0  0  0  0  0  0  0  0  0  0
   14.3228  -27.8192   -3.5474 C   0  0  0  0  0  0  0  0  0  0  0  0
   15.5803  -27.6878   -4.3608 C   0  0  0  0  0  0  0  0  0  0  0  0
   15.5464  -26.5140   -5.3143 C   0  0  2  0  0  0  0  0  0  0  0  0
   16.7792  -26.4085   -6.0707 N   0  0  0  0  0  0  0  0  0  0  0  0
   15.3836  -25.3012   -4.4953 C   0  0  0  0  0  0  0  0  0  0  0  0
   14.1298  -24.7349   -4.3644 O   0  0  0  0  0  0  0  0  0  0  0  0
   16.3337  -24.7341   -3.8933 O   0  0  0  0  0  0  0  0  0  0  0  0
  2  3  1  0
  2  1  1  6
  4  2  1  0
  4  5  1  1
  6 13  1  0
  6  4  1  0
  7  6  2  0
  8  9  1  0
  9 10  1  0
 10 12  1  0
 10 11  1  1
 12 13  1  6
 14 15  2  0
 14 12  1  0
 16 17  1  0
 18 17  1  0
 18 19  1  0
 20 19  1  1
 20 21  1  0
 21 14  1  0
 22 20  1  0
 23 22  1  0
 24 22  2  0
M  END
$$$$
