TIM.pdb
     RDKit          3D

 24 23  0  0  1  0  0  0  0  0999 V2000
   15.2978  -13.4098  -10.5274 C   0  0  0  0  0  0  0  0  0  0  0  0
   15.5251  -11.9947  -10.9830 C   0  0  1  0  0  0  0  0  0  0  0  0
   15.4936  -11.9164  -12.3777 O   0  0  0  0  0  0  0  0  0  0  0  0
   14.5207  -11.0761  -10.3646 C   0  0  2  0  0  0  0  0  0  0  0  0
   13.1665  -11.3570  -10.7530 N   0  0  0  0  0  0  0  0  0  0  0  0
   14.8950   -9.6560  -10.6477 C   0  0  0  0  0  0  0  0  0  0  0  0
   14.3451   -9.0070  -11.5906 O   0  0  0  0  0  0  0  0  0  0  0  0
   13.8482   -5.8969   -7.5121 C   0  0  0  0  0  0  0  0  0  0  0  0
   14.2447   -6.6323   -8.7683 C   0  0  0  0  0  0  0  0  0  0  0  0
   15.6973   -6.8325   -8.9325 C   0  0  2  0  0  0  0  0  0  0  0  0
   16.3505   -5.4425   -8.9146 C   0  0  0  0  0  0  0  0  0  0  0  0
   16.1754   -7.5520  -10.1398 C   0  0  2  0  0  0  0  0  0  0  0  0
   15.8738   -8.9799   -9.8789 N   0  0  0  0  0  0  0  0  0  0  0  0
   17.6028   -7.4645  -10.4157 C   0  0  0  0  0  0  0  0  0  0  0  0
   18.4081   -8.2325   -9.7958 O   0  0  0  0  0  0  0  0  0  0  0  0
   23.0792  -10.2635  -14.0872 C   0  0  0  0  0  0  0  0  0  0  0  0
   21.3559   -9.8656  -13.7959 S   0  0  0  0  0  0  0  0  0  0  0  0
   21.1423   -8.2969  -12.9524 C   0  0  0  0  0  0  0  0  0  0  0  0
   19.7254   -8.0682  -12.5050 C   0  0  0  0  0  0  0  0  0  0  0  0
   19.5310   -6.7338  -11.8196 C   0  0  2  0  0  0  0  0  0  0  0  0
   18.1719   -6.5769  -11.3387 N   0  0  0  0  0  0  0  0  0  0  0  0
   19.8054   -5.6923  -12.8236 C   0  0  0  0  0  0  0  0  0  0  0  0
   21.0986   -5.2345  -12.9894 O   0  0  0  0  0  0  0  0  0  0  0  0
   18.9183   -5.1806  -13.5571 O   0  0  0  0  0  0  0  0  0  0  0  0
  2  3  1  0
  2  1  1  6
  4  2  1  0
  4  5  1  6
  6 13  1  0
  6  4  1  0
  7  6  2  0
  8  9  1  0
  9 10  1  0
 10 12  1  0
 10 11  1  6
 12 13  1  1
 14 15  2  0
 14 12  1  0
 16 17  1  0
 18 17  1  0
 18 19  1  0
 20 19  1  6
 20 21  1  0
 21 14  1  0
 22 20  1  0
 23 22  1  0
 24 22  2  0
M  END
$$$$
