TIM.pdb
     RDKit          3D

 24 23  0  0  1  0  0  0  0  0999 V2000
   27.0529  -20.7662  -15.8381 C   0  0  0  0  0  0  0  0  0  0  0  0
   27.2998  -22.1270  -16.4292 C   0  0  1  0  0  0  0  0  0  0  0  0
   26.1260  -22.6414  -16.9857 O   0  0  0  0  0  0  0  0  0  0  0  0
   28.4001  -22.0688  -17.4398 C   0  0  2  0  0  0  0  0  0  0  0  0
   28.0998  -21.2367  -18.5716 N   0  0  0  0  0  0  0  0  0  0  0  0
   28.7761  -23.4553  -17.8557 C   0  0  0  0  0  0  0  0  0  0  0  0
   28.3429  -23.9567  -18.9390 O   0  0  0  0  0  0  0  0  0  0  0  0
   33.7967  -25.0751  -17.4298 C   0  0  0  0  0  0  0  0  0  0  0  0
   32.3899  -25.0548  -17.9744 C   0  0  0  0  0  0  0  0  0  0  0  0
   31.4056  -25.8001  -17.1665 C   0  0  2  0  0  0  0  0  0  0  0  0
   31.7596  -27.2901  -17.2836 C   0  0  0  0  0  0  0  0  0  0  0  0
   29.9656  -25.6407  -17.4903 C   0  0  2  0  0  0  0  0  0  0  0  0
   29.6273  -24.2623  -17.0617 N   0  0  0  0  0  0  0  0  0  0  0  0
   29.0492  -26.5361  -16.7979 C   0  0  0  0  0  0  0  0  0  0  0  0
   28.9076  -26.4332  -15.5362 O   0  0  0  0  0  0  0  0  0  0  0  0
   22.4295  -30.7945  -16.8362 C   0  0  0  0  0  0  0  0  0  0  0  0
   23.5930  -29.7344  -17.6939 S   0  0  0  0  0  0  0  0  0  0  0  0
   25.1422  -29.5505  -16.8084 C   0  0  0  0  0  0  0  0  0  0  0  0
   26.0978  -28.6192  -17.5008 C   0  0  0  0  0  0  0  0  0  0  0  0
   27.3591  -28.3685  -16.7042 C   0  0  2  0  0  0  0  0  0  0  0  0
   28.2890  -27.5275  -17.4328 N   0  0  0  0  0  0  0  0  0  0  0  0
   27.9853  -29.6803  -16.4691 C   0  0  0  0  0  0  0  0  0  0  0  0
   27.6546  -30.3956  -15.3340 O   0  0  0  0  0  0  0  0  0  0  0  0
   28.8210  -30.2039  -17.2527 O   0  0  0  0  0  0  0  0  0  0  0  0
  2  3  1  0
  2  1  1  6
  4  2  1  0
  4  5  1  6
  6 13  1  0
  6  4  1  0
  7  6  2  0
  8  9  1  0
  9 10  1  0
 10 12  1  0
 10 11  1  6
 12 13  1  1
 14 15  2  0
 14 12  1  0
 16 17  1  0
 18 17  1  0
 18 19  1  0
 20 19  1  6
 20 21  1  0
 21 14  1  0
 22 20  1  0
 23 22  1  0
 24 22  2  0
M  END
$$$$
