DEL.pdb
     RDKit          3D

 26 25  0  0  1  0  0  0  0  0999 V2000
    7.2987  -16.6976   18.5146 N   0  0  0  0  0  0  0  0  0  0  0  0
    8.1964  -15.8614   19.2354 C   0  0  1  0  0  0  0  0  0  0  0  0
    7.9017  -14.3940   18.9972 C   0  0  0  0  0  0  0  0  0  0  0  0
    8.3372  -14.0331   17.6408 C   0  0  0  0  0  0  0  0  0  0  0  0
    8.8984  -14.8656   16.9140 O   0  0  0  0  0  0  0  0  0  0  0  0
    8.3736  -16.1648   20.6620 C   0  0  0  0  0  0  0  0  0  0  0  0
    7.2928  -16.1015   21.3584 O   0  0  0  0  0  0  0  0  0  0  0  0
    8.1214  -12.7526   17.1640 O   0  0  0  0  0  0  0  0  0  0  0  0
    9.5488  -16.5059   21.3337 N   0  0  0  0  0  0  0  0  0  0  0  0
    9.5203  -16.9493   22.7302 C   0  0  1  0  0  0  0  0  0  0  0  0
   10.6982  -17.8308   23.0451 C   0  0  0  0  0  0  0  0  0  0  0  0
   10.7125  -18.3488   24.4357 C   0  0  0  0  0  0  0  0  0  0  0  0
   11.9268  -19.1633   24.6496 C   0  0  0  0  0  0  0  0  0  0  0  0
   12.1435  -19.6261   25.7925 O   0  0  0  0  0  0  0  0  0  0  0  0
    9.4620  -15.7605   23.6295 C   0  0  0  0  0  0  0  0  0  0  0  0
   10.3502  -14.8458   23.5323 O   0  0  0  0  0  0  0  0  0  0  0  0
   12.8513  -19.4509   23.6555 O   0  0  0  0  0  0  0  0  0  0  0  0
    5.4225  -12.2451   26.6188 C   0  0  0  0  0  0  0  0  0  0  0  0
    6.8271  -12.6728   26.4507 C   0  0  2  0  0  0  0  0  0  0  0  0
    7.6711  -11.4341   26.0622 C   0  0  0  0  0  0  0  0  0  0  0  0
    7.1472  -13.8013   25.5707 C   0  0  0  0  0  0  0  0  0  0  0  0
    8.4722  -14.4384   25.5656 C   0  0  2  0  0  0  0  0  0  0  0  0
    8.4719  -15.5746   24.5998 N   0  0  0  0  0  0  0  0  0  0  0  0
    9.0603  -14.9042   26.8136 C   0  0  0  0  0  0  0  0  0  0  0  0
    9.8825  -14.1790   27.6520 O   0  0  0  0  0  0  0  0  0  0  0  0
    8.8015  -16.1190   27.1876 O   0  0  0  0  0  0  0  0  0  0  0  0
  2  1  1  1
  2  3  1  0
  3  4  1  0
  4  8  1  0
  5  4  2  0
  6  7  2  0
  6  2  1  0
  9  6  1  0
 10  9  1  0
 10 11  1  1
 12 13  1  0
 12 11  1  0
 13 14  2  0
 15 10  1  0
 16 15  2  0
 17 13  1  0
 19 18  1  6
 19 21  1  0
 20 19  1  0
 22 21  1  1
 22 24  1  0
 22 23  1  0
 23 15  1  0
 24 25  1  0
 26 24  2  0
M  END
$$$$
