DEL.pdb
     RDKit          3D

 26 25  0  0  1  0  0  0  0  0999 V2000
   12.8688  -18.5738   20.6897 N   0  0  0  0  0  0  0  0  0  0  0  0
   11.9125  -17.5289   20.5547 C   0  0  1  0  0  0  0  0  0  0  0  0
   11.3800  -17.4424   19.1384 C   0  0  0  0  0  0  0  0  0  0  0  0
   12.5077  -17.2584   18.2142 C   0  0  0  0  0  0  0  0  0  0  0  0
   13.0700  -18.2358   17.6997 O   0  0  0  0  0  0  0  0  0  0  0  0
   10.8351  -17.4924   21.5531 C   0  0  0  0  0  0  0  0  0  0  0  0
    9.7941  -16.8283   21.1895 O   0  0  0  0  0  0  0  0  0  0  0  0
   12.9513  -15.9837   17.9111 O   0  0  0  0  0  0  0  0  0  0  0  0
   10.8097  -18.0802   22.8190 N   0  0  0  0  0  0  0  0  0  0  0  0
    9.6432  -17.9392   23.6949 C   0  0  1  0  0  0  0  0  0  0  0  0
    9.5015  -19.1270   24.6075 C   0  0  0  0  0  0  0  0  0  0  0  0
    9.2360  -20.4050   23.9016 C   0  0  0  0  0  0  0  0  0  0  0  0
    9.1645  -21.5081   24.8821 C   0  0  0  0  0  0  0  0  0  0  0  0
   10.2235  -22.0946   25.2016 O   0  0  0  0  0  0  0  0  0  0  0  0
    9.7455  -16.6623   24.4594 C   0  0  0  0  0  0  0  0  0  0  0  0
   10.8759  -16.2904   24.9273 O   0  0  0  0  0  0  0  0  0  0  0  0
    7.9878  -21.9401   25.4774 O   0  0  0  0  0  0  0  0  0  0  0  0
    7.4315  -12.3714   27.4337 C   0  0  0  0  0  0  0  0  0  0  0  0
    7.3476  -12.4643   25.9611 C   0  0  2  0  0  0  0  0  0  0  0  0
    6.0106  -11.8284   25.5076 C   0  0  0  0  0  0  0  0  0  0  0  0
    7.5456  -13.7570   25.2977 C   0  0  0  0  0  0  0  0  0  0  0  0
    8.7494  -14.5723   25.5158 C   0  0  2  0  0  0  0  0  0  0  0  0
    8.6558  -15.8206   24.7056 N   0  0  0  0  0  0  0  0  0  0  0  0
    9.1452  -14.9382   26.8685 C   0  0  0  0  0  0  0  0  0  0  0  0
    8.6347  -15.9788   27.6177 O   0  0  0  0  0  0  0  0  0  0  0  0
   10.0626  -14.2241   27.4440 O   0  0  0  0  0  0  0  0  0  0  0  0
  2  1  1  6
  2  3  1  0
  3  4  1  0
  4  8  1  0
  5  4  2  0
  6  7  2  0
  6  2  1  0
  9  6  1  0
 10  9  1  0
 10 11  1  1
 12 13  1  0
 12 11  1  0
 13 14  2  0
 15 10  1  0
 16 15  2  0
 17 13  1  0
 19 18  1  1
 19 21  1  0
 20 19  1  0
 22 21  1  1
 22 24  1  0
 22 23  1  0
 23 15  1  0
 24 25  1  0
 26 24  2  0
M  END
$$$$
