DEL.pdb
     RDKit          3D

 26 25  0  0  1  0  0  0  0  0999 V2000
    7.2260  -15.9854   18.3386 N   0  0  0  0  0  0  0  0  0  0  0  0
    8.0517  -15.2416   19.2272 C   0  0  1  0  0  0  0  0  0  0  0  0
    7.7165  -13.7641   19.1920 C   0  0  0  0  0  0  0  0  0  0  0  0
    8.1933  -13.1958   17.9234 C   0  0  0  0  0  0  0  0  0  0  0  0
    7.5367  -13.3350   16.8814 O   0  0  0  0  0  0  0  0  0  0  0  0
    8.1623  -15.7505   20.6011 C   0  0  0  0  0  0  0  0  0  0  0  0
    7.0913  -15.6236   21.3040 O   0  0  0  0  0  0  0  0  0  0  0  0
    9.3866  -12.4971   17.8848 O   0  0  0  0  0  0  0  0  0  0  0  0
    9.2664  -16.3415   21.2177 N   0  0  0  0  0  0  0  0  0  0  0  0
    9.1678  -16.9038   22.5674 C   0  0  1  0  0  0  0  0  0  0  0  0
   10.2104  -17.9651   22.7920 C   0  0  0  0  0  0  0  0  0  0  0  0
   10.2777  -18.4620   24.1887 C   0  0  0  0  0  0  0  0  0  0  0  0
   11.3451  -19.4775   24.3033 C   0  0  0  0  0  0  0  0  0  0  0  0
   11.1744  -20.5899   23.7547 O   0  0  0  0  0  0  0  0  0  0  0  0
    9.2688  -15.8065   23.5730 C   0  0  0  0  0  0  0  0  0  0  0  0
   10.1585  -14.8984   23.4358 O   0  0  0  0  0  0  0  0  0  0  0  0
   12.5359  -19.2756   24.9865 O   0  0  0  0  0  0  0  0  0  0  0  0
    6.0089  -12.1949   27.1278 C   0  0  0  0  0  0  0  0  0  0  0  0
    7.3530  -12.6905   26.7646 C   0  0  2  0  0  0  0  0  0  0  0  0
    8.2376  -11.4747   26.3944 C   0  0  0  0  0  0  0  0  0  0  0  0
    7.4951  -13.7469   25.7575 C   0  0  0  0  0  0  0  0  0  0  0  0
    8.6224  -14.6905   25.7668 C   0  0  2  0  0  0  0  0  0  0  0  0
    8.4309  -15.7020   24.6881 N   0  0  0  0  0  0  0  0  0  0  0  0
    8.9713  -15.3951   26.9924 C   0  0  0  0  0  0  0  0  0  0  0  0
    9.8386  -14.9547   27.9715 O   0  0  0  0  0  0  0  0  0  0  0  0
    8.4272  -16.5545   27.1991 O   0  0  0  0  0  0  0  0  0  0  0  0
  2  1  1  6
  2  3  1  0
  3  4  1  0
  4  8  1  0
  5  4  2  0
  6  7  2  0
  6  2  1  0
  9  6  1  0
 10  9  1  0
 10 11  1  1
 12 13  1  0
 12 11  1  0
 13 14  2  0
 15 10  1  0
 16 15  2  0
 17 13  1  0
 19 18  1  6
 19 21  1  0
 20 19  1  0
 22 21  1  1
 22 24  1  0
 22 23  1  0
 23 15  1  0
 24 25  1  0
 26 24  2  0
M  END
$$$$
