DEL.pdb
     RDKit          3D

 26 25  0  0  1  0  0  0  0  0999 V2000
    8.4948  -15.0624   19.5240 N   0  0  0  0  0  0  0  0  0  0  0  0
    7.6447  -15.8133   20.3830 C   0  0  1  0  0  0  0  0  0  0  0  0
    6.9467  -16.9315   19.6352 C   0  0  0  0  0  0  0  0  0  0  0  0
    7.3863  -16.9160   18.2330 C   0  0  0  0  0  0  0  0  0  0  0  0
    6.5605  -16.8388   17.3120 O   0  0  0  0  0  0  0  0  0  0  0  0
    8.2331  -16.2770   21.6469 C   0  0  0  0  0  0  0  0  0  0  0  0
    7.3737  -16.5580   22.5632 O   0  0  0  0  0  0  0  0  0  0  0  0
    8.7343  -16.9879   17.9310 O   0  0  0  0  0  0  0  0  0  0  0  0
    9.5827  -16.4446   21.9619 N   0  0  0  0  0  0  0  0  0  0  0  0
    9.9970  -16.9235   23.2835 C   0  0  1  0  0  0  0  0  0  0  0  0
   11.2996  -17.6725   23.2069 C   0  0  0  0  0  0  0  0  0  0  0  0
   11.8515  -18.0646   24.5275 C   0  0  0  0  0  0  0  0  0  0  0  0
   13.1233  -18.7927   24.3376 C   0  0  0  0  0  0  0  0  0  0  0  0
   14.1003  -18.1754   23.8561 O   0  0  0  0  0  0  0  0  0  0  0  0
   10.0748  -15.7722   24.2289 C   0  0  0  0  0  0  0  0  0  0  0  0
   10.7700  -14.7438   23.9223 O   0  0  0  0  0  0  0  0  0  0  0  0
   13.3061  -20.1295   24.6618 O   0  0  0  0  0  0  0  0  0  0  0  0
    6.4836  -13.5098   24.8231 C   0  0  0  0  0  0  0  0  0  0  0  0
    7.2421  -13.6272   26.0861 C   0  0  2  0  0  0  0  0  0  0  0  0
    6.6373  -12.6375   27.1121 C   0  0  0  0  0  0  0  0  0  0  0  0
    8.7042  -13.5152   26.0739 C   0  0  0  0  0  0  0  0  0  0  0  0
    9.5780  -14.6357   26.4510 C   0  0  2  0  0  0  0  0  0  0  0  0
    9.4190  -15.7420   25.4640 N   0  0  0  0  0  0  0  0  0  0  0  0
    9.4943  -15.2056   27.7884 C   0  0  0  0  0  0  0  0  0  0  0  0
    9.2091  -16.5189   28.1024 O   0  0  0  0  0  0  0  0  0  0  0  0
    9.6997  -14.4152   28.7963 O   0  0  0  0  0  0  0  0  0  0  0  0
  2  1  1  6
  2  3  1  0
  3  4  1  0
  4  8  1  0
  5  4  2  0
  6  7  2  0
  6  2  1  0
  9  6  1  0
 10  9  1  0
 10 11  1  6
 12 13  1  0
 12 11  1  0
 13 14  2  0
 15 10  1  0
 16 15  2  0
 17 13  1  0
 19 18  1  6
 19 21  1  0
 20 19  1  0
 22 21  1  6
 22 24  1  0
 22 23  1  0
 23 15  1  0
 24 25  1  0
 26 24  2  0
M  END
$$$$
