DEL.pdb
     RDKit          3D

 26 25  0  0  1  0  0  0  0  0999 V2000
   11.5652  -16.0002   18.1914 N   0  0  0  0  0  0  0  0  0  0  0  0
   11.8702  -15.6652   19.5402 C   0  0  1  0  0  0  0  0  0  0  0  0
   12.5700  -14.3243   19.6352 C   0  0  0  0  0  0  0  0  0  0  0  0
   13.9372  -14.4607   19.1137 C   0  0  0  0  0  0  0  0  0  0  0  0
   14.8045  -15.0632   19.7624 O   0  0  0  0  0  0  0  0  0  0  0  0
   10.7734  -15.7858   20.5104 C   0  0  0  0  0  0  0  0  0  0  0  0
    9.5995  -15.8340   19.9841 O   0  0  0  0  0  0  0  0  0  0  0  0
   14.2661  -13.9133   17.8866 O   0  0  0  0  0  0  0  0  0  0  0  0
   10.8542  -15.8531   21.9024 N   0  0  0  0  0  0  0  0  0  0  0  0
    9.7971  -16.4918   22.6913 C   0  0  1  0  0  0  0  0  0  0  0  0
    9.9350  -17.9899   22.6736 C   0  0  0  0  0  0  0  0  0  0  0  0
    8.8971  -18.7030   23.4589 C   0  0  0  0  0  0  0  0  0  0  0  0
    9.1262  -20.1605   23.3761 C   0  0  0  0  0  0  0  0  0  0  0  0
    8.6956  -20.7783   22.3759 O   0  0  0  0  0  0  0  0  0  0  0  0
    9.8161  -15.9501   24.0811 C   0  0  0  0  0  0  0  0  0  0  0  0
   10.9207  -15.8819   24.7217 O   0  0  0  0  0  0  0  0  0  0  0  0
    9.7942  -20.8956   24.3450 O   0  0  0  0  0  0  0  0  0  0  0  0
    8.1597  -11.8125   25.7903 C   0  0  0  0  0  0  0  0  0  0  0  0
    7.2088  -12.9387   25.6822 C   0  0  2  0  0  0  0  0  0  0  0  0
    5.7931  -12.4170   26.0304 C   0  0  0  0  0  0  0  0  0  0  0  0
    7.4768  -14.1926   26.3937 C   0  0  0  0  0  0  0  0  0  0  0  0
    8.6895  -14.9871   26.1498 C   0  0  2  0  0  0  0  0  0  0  0  0
    8.6732  -15.4988   24.7493 N   0  0  0  0  0  0  0  0  0  0  0  0
    9.0234  -16.0951   27.0336 C   0  0  0  0  0  0  0  0  0  0  0  0
    9.6653  -16.0057   28.2521 O   0  0  0  0  0  0  0  0  0  0  0  0
    8.6982  -17.2917   26.6525 O   0  0  0  0  0  0  0  0  0  0  0  0
  2  1  1  6
  2  3  1  0
  3  4  1  0
  4  8  1  0
  5  4  2  0
  6  7  2  0
  6  2  1  0
  9  6  1  0
 10  9  1  0
 10 11  1  1
 12 13  1  0
 12 11  1  0
 13 14  2  0
 15 10  1  0
 16 15  2  0
 17 13  1  0
 19 18  1  1
 19 21  1  0
 20 19  1  0
 22 21  1  1
 22 24  1  0
 22 23  1  0
 23 15  1  0
 24 25  1  0
 26 24  2  0
M  END
$$$$
