DEL.pdb
     RDKit          3D

 26 25  0  0  1  0  0  0  0  0999 V2000
   11.0036  -16.3977   19.2175 N   0  0  0  0  0  0  0  0  0  0  0  0
   11.4863  -15.7749   20.4023 C   0  0  1  0  0  0  0  0  0  0  0  0
   11.7834  -14.3061   20.1767 C   0  0  0  0  0  0  0  0  0  0  0  0
   13.1105  -14.1763   19.5589 C   0  0  0  0  0  0  0  0  0  0  0  0
   14.1093  -14.6786   20.0939 O   0  0  0  0  0  0  0  0  0  0  0  0
   10.7049  -15.9989   21.6263 C   0  0  0  0  0  0  0  0  0  0  0  0
    9.4562  -15.7040   21.5226 O   0  0  0  0  0  0  0  0  0  0  0  0
   13.2534  -13.4876   18.3678 O   0  0  0  0  0  0  0  0  0  0  0  0
   11.1483  -16.4828   22.8584 N   0  0  0  0  0  0  0  0  0  0  0  0
   10.2001  -16.9562   23.8705 C   0  0  1  0  0  0  0  0  0  0  0  0
   10.5426  -18.3481   24.3278 C   0  0  0  0  0  0  0  0  0  0  0  0
    9.6315  -18.8850   25.3689 C   0  0  0  0  0  0  0  0  0  0  0  0
   10.0310  -20.2651   25.7143 C   0  0  0  0  0  0  0  0  0  0  0  0
   10.3153  -21.0561   24.7864 O   0  0  0  0  0  0  0  0  0  0  0  0
   10.1634  -15.9925   25.0086 C   0  0  0  0  0  0  0  0  0  0  0  0
   11.2564  -15.5379   25.4920 O   0  0  0  0  0  0  0  0  0  0  0  0
   10.1123  -20.7455   27.0136 O   0  0  0  0  0  0  0  0  0  0  0  0
    8.1034  -11.7468   25.5384 C   0  0  0  0  0  0  0  0  0  0  0  0
    7.2595  -12.9362   25.7774 C   0  0  2  0  0  0  0  0  0  0  0  0
    5.8051  -12.4621   26.0176 C   0  0  0  0  0  0  0  0  0  0  0  0
    7.6489  -13.9159   26.7967 C   0  0  0  0  0  0  0  0  0  0  0  0
    8.9455  -14.6079   26.7623 C   0  0  2  0  0  0  0  0  0  0  0  0
    8.9789  -15.5402   25.5991 N   0  0  0  0  0  0  0  0  0  0  0  0
    9.4163  -15.3300   27.9359 C   0  0  0  0  0  0  0  0  0  0  0  0
   10.0248  -14.7802   29.0460 O   0  0  0  0  0  0  0  0  0  0  0  0
    9.2617  -16.6178   27.9557 O   0  0  0  0  0  0  0  0  0  0  0  0
  2  1  1  6
  2  3  1  0
  3  4  1  0
  4  8  1  0
  5  4  2  0
  6  7  2  0
  6  2  1  0
  9  6  1  0
 10  9  1  0
 10 11  1  1
 12 13  1  0
 12 11  1  0
 13 14  2  0
 15 10  1  0
 16 15  2  0
 17 13  1  0
 19 18  1  1
 19 21  1  0
 20 19  1  0
 22 21  1  1
 22 24  1  0
 22 23  1  0
 23 15  1  0
 24 25  1  0
 26 24  2  0
M  END
$$$$
