DEL.pdb
     RDKit          3D

 26 25  0  0  1  0  0  0  0  0999 V2000
    7.9894  -14.4165   19.7095 N   0  0  0  0  0  0  0  0  0  0  0  0
    7.3239  -15.3894   20.5064 C   0  0  1  0  0  0  0  0  0  0  0  0
    6.5786  -16.3936   19.6503 C   0  0  0  0  0  0  0  0  0  0  0  0
    7.5202  -17.0060   18.7027 C   0  0  0  0  0  0  0  0  0  0  0  0
    8.7091  -17.1727   19.0107 O   0  0  0  0  0  0  0  0  0  0  0  0
    8.1251  -16.0411   21.5513 C   0  0  0  0  0  0  0  0  0  0  0  0
    7.5221  -16.9982   22.1658 O   0  0  0  0  0  0  0  0  0  0  0  0
    7.0816  -17.4028   17.4522 O   0  0  0  0  0  0  0  0  0  0  0  0
    9.4324  -15.7507   21.9454 N   0  0  0  0  0  0  0  0  0  0  0  0
   10.1056  -16.5451   22.9766 C   0  0  1  0  0  0  0  0  0  0  0  0
   11.5206  -16.8661   22.5785 C   0  0  0  0  0  0  0  0  0  0  0  0
   11.6816  -18.1908   21.9292 C   0  0  0  0  0  0  0  0  0  0  0  0
   12.9957  -18.7632   22.2884 C   0  0  0  0  0  0  0  0  0  0  0  0
   13.9939  -18.4478   21.6017 O   0  0  0  0  0  0  0  0  0  0  0  0
   10.0473  -15.8221   24.2801 C   0  0  0  0  0  0  0  0  0  0  0  0
   11.0073  -15.0497   24.6221 O   0  0  0  0  0  0  0  0  0  0  0  0
   13.1965  -19.6363   23.3481 O   0  0  0  0  0  0  0  0  0  0  0  0
    8.2207  -12.1711   25.8880 C   0  0  0  0  0  0  0  0  0  0  0  0
    7.3834  -13.3882   25.8473 C   0  0  2  0  0  0  0  0  0  0  0  0
    5.9084  -12.9731   26.0711 C   0  0  0  0  0  0  0  0  0  0  0  0
    7.7214  -14.5368   26.6940 C   0  0  0  0  0  0  0  0  0  0  0  0
    8.9705  -15.2933   26.5244 C   0  0  2  0  0  0  0  0  0  0  0  0
    8.9817  -15.9360   25.1790 N   0  0  0  0  0  0  0  0  0  0  0  0
    9.3535  -16.2955   27.5089 C   0  0  0  0  0  0  0  0  0  0  0  0
    9.3761  -17.6624   27.3197 O   0  0  0  0  0  0  0  0  0  0  0  0
    9.7061  -15.8820   28.6868 O   0  0  0  0  0  0  0  0  0  0  0  0
  2  1  1  6
  2  3  1  0
  3  4  1  0
  4  8  1  0
  5  4  2  0
  6  7  2  0
  6  2  1  0
  9  6  1  0
 10  9  1  0
 10 11  1  6
 12 13  1  0
 12 11  1  0
 13 14  2  0
 15 10  1  0
 16 15  2  0
 17 13  1  0
 19 18  1  1
 19 21  1  0
 20 19  1  0
 22 21  1  1
 22 24  1  0
 22 23  1  0
 23 15  1  0
 24 25  1  0
 26 24  2  0
M  END
$$$$
