DEL.pdb
     RDKit          3D

 26 25  0  0  1  0  0  0  0  0999 V2000
    7.8701  -18.3225   18.6292 N   0  0  0  0  0  0  0  0  0  0  0  0
    8.8493  -17.5493   19.3130 C   0  0  1  0  0  0  0  0  0  0  0  0
    8.9291  -16.1399   18.7616 C   0  0  0  0  0  0  0  0  0  0  0  0
    9.4328  -16.1942   17.3822 C   0  0  0  0  0  0  0  0  0  0  0  0
    8.7591  -15.7436   16.4445 O   0  0  0  0  0  0  0  0  0  0  0  0
    8.7906  -17.5657   20.7810 C   0  0  0  0  0  0  0  0  0  0  0  0
    7.5990  -17.5330   21.2669 O   0  0  0  0  0  0  0  0  0  0  0  0
   10.6711  -16.7525   17.1206 O   0  0  0  0  0  0  0  0  0  0  0  0
    9.8507  -17.6120   21.6880 N   0  0  0  0  0  0  0  0  0  0  0  0
    9.6103  -17.7693   23.1251 C   0  0  1  0  0  0  0  0  0  0  0  0
   10.5751  -18.7502   23.7339 C   0  0  0  0  0  0  0  0  0  0  0  0
   10.4793  -18.8568   25.2109 C   0  0  0  0  0  0  0  0  0  0  0  0
   11.4900  -19.8144   25.7060 C   0  0  0  0  0  0  0  0  0  0  0  0
   11.1258  -20.7130   26.4982 O   0  0  0  0  0  0  0  0  0  0  0  0
    9.6813  -16.4363   23.7911 C   0  0  0  0  0  0  0  0  0  0  0  0
   10.7144  -15.7000   23.6311 O   0  0  0  0  0  0  0  0  0  0  0  0
   12.8297  -19.7814   25.3461 O   0  0  0  0  0  0  0  0  0  0  0  0
    5.9367  -12.2786   26.4991 C   0  0  0  0  0  0  0  0  0  0  0  0
    7.3103  -12.7529   26.2299 C   0  0  2  0  0  0  0  0  0  0  0  0
    8.1322  -11.5700   25.6614 C   0  0  0  0  0  0  0  0  0  0  0  0
    7.5226  -13.9552   25.4177 C   0  0  0  0  0  0  0  0  0  0  0  0
    8.8045  -14.6748   25.4049 C   0  0  2  0  0  0  0  0  0  0  0  0
    8.6638  -15.9236   24.6024 N   0  0  0  0  0  0  0  0  0  0  0  0
    9.4612  -15.0136   26.6596 C   0  0  0  0  0  0  0  0  0  0  0  0
    9.1625  -16.0850   27.4768 O   0  0  0  0  0  0  0  0  0  0  0  0
   10.4200  -14.2412   27.0680 O   0  0  0  0  0  0  0  0  0  0  0  0
  2  1  1  6
  2  3  1  0
  3  4  1  0
  4  8  1  0
  5  4  2  0
  6  7  2  0
  6  2  1  0
  9  6  1  0
 10  9  1  0
 10 11  1  1
 12 13  1  0
 12 11  1  0
 13 14  2  0
 15 10  1  0
 16 15  2  0
 17 13  1  0
 19 18  1  6
 19 21  1  0
 20 19  1  0
 22 21  1  1
 22 24  1  0
 22 23  1  0
 23 15  1  0
 24 25  1  0
 26 24  2  0
M  END
$$$$
