DEL.pdb
     RDKit          3D

 26 25  0  0  1  0  0  0  0  0999 V2000
    9.3759  -18.5757   18.3045 N   0  0  0  0  0  0  0  0  0  0  0  0
    8.8945  -17.3079   18.7353 C   0  0  1  0  0  0  0  0  0  0  0  0
    7.8325  -16.7689   17.7980 C   0  0  0  0  0  0  0  0  0  0  0  0
    8.3797  -16.7167   16.4351 C   0  0  0  0  0  0  0  0  0  0  0  0
    9.5266  -17.1222   16.1979 O   0  0  0  0  0  0  0  0  0  0  0  0
    8.4924  -17.2030   20.1446 C   0  0  0  0  0  0  0  0  0  0  0  0
    7.2439  -16.9466   20.3246 O   0  0  0  0  0  0  0  0  0  0  0  0
    7.6120  -16.2108   15.4016 O   0  0  0  0  0  0  0  0  0  0  0  0
    9.2873  -17.3461   21.2831 N   0  0  0  0  0  0  0  0  0  0  0  0
    8.6873  -17.5725   22.6008 C   0  0  1  0  0  0  0  0  0  0  0  0
    9.1688  -18.8644   23.2031 C   0  0  0  0  0  0  0  0  0  0  0  0
   10.6320  -18.9109   23.4465 C   0  0  0  0  0  0  0  0  0  0  0  0
   11.0049  -20.2387   23.9772 C   0  0  0  0  0  0  0  0  0  0  0  0
   10.7319  -20.5050   25.1697 O   0  0  0  0  0  0  0  0  0  0  0  0
    8.9753  -16.4071   23.4865 C   0  0  0  0  0  0  0  0  0  0  0  0
   10.1382  -15.8754   23.4794 O   0  0  0  0  0  0  0  0  0  0  0  0
   11.6444  -21.2189   23.2316 O   0  0  0  0  0  0  0  0  0  0  0  0
    5.8222  -12.2416   26.9370 C   0  0  0  0  0  0  0  0  0  0  0  0
    7.1055  -12.8262   26.4947 C   0  0  2  0  0  0  0  0  0  0  0  0
    7.9689  -11.6979   25.8786 C   0  0  0  0  0  0  0  0  0  0  0  0
    7.1098  -14.0034   25.6203 C   0  0  0  0  0  0  0  0  0  0  0  0
    8.3442  -14.7331   25.2963 C   0  0  2  0  0  0  0  0  0  0  0  0
    8.0308  -15.8411   24.3490 N   0  0  0  0  0  0  0  0  0  0  0  0
    9.1730  -15.2716   26.3657 C   0  0  0  0  0  0  0  0  0  0  0  0
    9.1169  -16.5511   26.8798 O   0  0  0  0  0  0  0  0  0  0  0  0
   10.0526  -14.4843   26.9036 O   0  0  0  0  0  0  0  0  0  0  0  0
  2  1  1  6
  2  3  1  0
  3  4  1  0
  4  8  1  0
  5  4  2  0
  6  7  2  0
  6  2  1  0
  9  6  1  0
 10  9  1  0
 10 11  1  1
 12 13  1  0
 12 11  1  0
 13 14  2  0
 15 10  1  0
 16 15  2  0
 17 13  1  0
 19 18  1  6
 19 21  1  0
 20 19  1  0
 22 21  1  1
 22 24  1  0
 22 23  1  0
 23 15  1  0
 24 25  1  0
 26 24  2  0
M  END
$$$$
