DEL.pdb
     RDKit          3D

 26 25  0  0  1  0  0  0  0  0999 V2000
    7.4534  -16.4315   19.1622 N   0  0  0  0  0  0  0  0  0  0  0  0
    8.2119  -15.4847   19.9056 C   0  0  1  0  0  0  0  0  0  0  0  0
    7.7174  -14.0710   19.6735 C   0  0  0  0  0  0  0  0  0  0  0  0
    8.2295  -13.5915   18.3822 C   0  0  0  0  0  0  0  0  0  0  0  0
    8.9433  -14.3177   17.6756 O   0  0  0  0  0  0  0  0  0  0  0  0
    8.4060  -15.7747   21.3329 C   0  0  0  0  0  0  0  0  0  0  0  0
    7.3172  -15.8364   22.0168 O   0  0  0  0  0  0  0  0  0  0  0  0
    7.9151  -12.3174   17.9447 O   0  0  0  0  0  0  0  0  0  0  0  0
    9.6044  -15.9865   22.0167 N   0  0  0  0  0  0  0  0  0  0  0  0
    9.6275  -16.6894   23.3024 C   0  0  1  0  0  0  0  0  0  0  0  0
   10.7572  -17.6815   23.3597 C   0  0  0  0  0  0  0  0  0  0  0  0
   10.8146  -18.4619   24.6206 C   0  0  0  0  0  0  0  0  0  0  0  0
   12.0329  -19.2981   24.6318 C   0  0  0  0  0  0  0  0  0  0  0  0
   13.1472  -18.7315   24.7012 O   0  0  0  0  0  0  0  0  0  0  0  0
    9.7061  -15.6958   24.4123 C   0  0  0  0  0  0  0  0  0  0  0  0
   10.6834  -14.8726   24.4605 O   0  0  0  0  0  0  0  0  0  0  0  0
   12.0214  -20.6842   24.5698 O   0  0  0  0  0  0  0  0  0  0  0  0
    7.6748  -11.8879   25.4930 C   0  0  0  0  0  0  0  0  0  0  0  0
    6.9576  -13.1119   25.9072 C   0  0  2  0  0  0  0  0  0  0  0  0
    5.5475  -12.7068   26.4027 C   0  0  0  0  0  0  0  0  0  0  0  0
    7.5819  -14.0394   26.8561 C   0  0  0  0  0  0  0  0  0  0  0  0
    8.8824  -14.6719   26.5916 C   0  0  2  0  0  0  0  0  0  0  0  0
    8.7545  -15.6020   25.4331 N   0  0  0  0  0  0  0  0  0  0  0  0
    9.5818  -15.3717   27.6600 C   0  0  0  0  0  0  0  0  0  0  0  0
    9.9021  -16.7139   27.6870 O   0  0  0  0  0  0  0  0  0  0  0  0
    9.9424  -14.6834   28.6987 O   0  0  0  0  0  0  0  0  0  0  0  0
  2  1  1  1
  2  3  1  0
  3  4  1  0
  4  8  1  0
  5  4  2  0
  6  7  2  0
  6  2  1  0
  9  6  1  0
 10  9  1  0
 10 11  1  6
 12 13  1  0
 12 11  1  0
 13 14  2  0
 15 10  1  0
 16 15  2  0
 17 13  1  0
 19 18  1  1
 19 21  1  0
 20 19  1  0
 22 21  1  1
 22 24  1  0
 22 23  1  0
 23 15  1  0
 24 25  1  0
 26 24  2  0
M  END
$$$$
