DEL.pdb
     RDKit          3D

 26 25  0  0  1  0  0  0  0  0999 V2000
    8.8328  -13.8501   18.3770 N   0  0  0  0  0  0  0  0  0  0  0  0
    9.5928  -14.4453   19.4222 C   0  0  1  0  0  0  0  0  0  0  0  0
   10.7933  -13.5962   19.7893 C   0  0  0  0  0  0  0  0  0  0  0  0
   11.9319  -13.9888   18.9471 C   0  0  0  0  0  0  0  0  0  0  0  0
   12.2660  -13.2988   17.9733 O   0  0  0  0  0  0  0  0  0  0  0  0
    8.8453  -14.8870   20.6075 C   0  0  0  0  0  0  0  0  0  0  0  0
    7.8826  -14.1050   20.9521 O   0  0  0  0  0  0  0  0  0  0  0  0
   12.6424  -15.1392   19.2388 O   0  0  0  0  0  0  0  0  0  0  0  0
    9.0524  -16.0282   21.3842 N   0  0  0  0  0  0  0  0  0  0  0  0
    8.1141  -16.4004   22.4466 C   0  0  1  0  0  0  0  0  0  0  0  0
    7.8964  -17.8887   22.4833 C   0  0  0  0  0  0  0  0  0  0  0  0
    7.0678  -18.3518   23.6240 C   0  0  0  0  0  0  0  0  0  0  0  0
    6.8919  -19.8170   23.5472 C   0  0  0  0  0  0  0  0  0  0  0  0
    7.3592  -20.4249   22.5575 O   0  0  0  0  0  0  0  0  0  0  0  0
    8.6099  -15.8807   23.7540 C   0  0  0  0  0  0  0  0  0  0  0  0
    9.8618  -15.9027   24.0133 O   0  0  0  0  0  0  0  0  0  0  0  0
    6.2357  -20.5697   24.5107 O   0  0  0  0  0  0  0  0  0  0  0  0
    7.9470  -11.6189   25.6787 C   0  0  0  0  0  0  0  0  0  0  0  0
    6.9076  -12.6342   25.9486 C   0  0  2  0  0  0  0  0  0  0  0  0
    5.7442  -11.9511   26.7088 C   0  0  0  0  0  0  0  0  0  0  0  0
    7.2701  -13.8955   26.6029 C   0  0  0  0  0  0  0  0  0  0  0  0
    8.2728  -14.8103   26.0380 C   0  0  2  0  0  0  0  0  0  0  0  0
    7.7723  -15.3558   24.7437 N   0  0  0  0  0  0  0  0  0  0  0  0
    8.7749  -15.9211   26.8345 C   0  0  0  0  0  0  0  0  0  0  0  0
    9.8100  -15.8729   27.7460 O   0  0  0  0  0  0  0  0  0  0  0  0
    8.2094  -17.0786   26.6820 O   0  0  0  0  0  0  0  0  0  0  0  0
  2  1  1  6
  2  3  1  0
  3  4  1  0
  4  8  1  0
  5  4  2  0
  6  7  2  0
  6  2  1  0
  9  6  1  0
 10  9  1  0
 10 11  1  1
 12 13  1  0
 12 11  1  0
 13 14  2  0
 15 10  1  0
 16 15  2  0
 17 13  1  0
 19 18  1  1
 19 21  1  0
 20 19  1  0
 22 21  1  1
 22 24  1  0
 22 23  1  0
 23 15  1  0
 24 25  1  0
 26 24  2  0
M  END
$$$$
