DEL.pdb
     RDKit          3D

 26 25  0  0  1  0  0  0  0  0999 V2000
    7.8181  -16.3320   18.8299 N   0  0  0  0  0  0  0  0  0  0  0  0
    8.4623  -15.4233   19.7152 C   0  0  1  0  0  0  0  0  0  0  0  0
    7.9261  -14.0151   19.5532 C   0  0  0  0  0  0  0  0  0  0  0  0
    8.2323  -13.5402   18.1966 C   0  0  0  0  0  0  0  0  0  0  0  0
    8.8296  -14.2686   17.3911 O   0  0  0  0  0  0  0  0  0  0  0  0
    8.5403  -15.8259   21.1262 C   0  0  0  0  0  0  0  0  0  0  0  0
    7.4000  -16.0481   21.6806 O   0  0  0  0  0  0  0  0  0  0  0  0
    7.8525  -12.2681   17.8081 O   0  0  0  0  0  0  0  0  0  0  0  0
    9.6793  -15.9917   21.9159 N   0  0  0  0  0  0  0  0  0  0  0  0
    9.6115  -16.6863   23.2046 C   0  0  1  0  0  0  0  0  0  0  0  0
   10.6885  -17.7309   23.3168 C   0  0  0  0  0  0  0  0  0  0  0  0
   10.6126  -18.7926   22.2827 C   0  0  0  0  0  0  0  0  0  0  0  0
   11.7519  -19.7206   22.4397 C   0  0  0  0  0  0  0  0  0  0  0  0
   12.5040  -19.9164   21.4582 O   0  0  0  0  0  0  0  0  0  0  0  0
    9.6883  -15.6902   24.3123 C   0  0  0  0  0  0  0  0  0  0  0  0
   10.7062  -14.9220   24.4070 O   0  0  0  0  0  0  0  0  0  0  0  0
   12.0445  -20.3955   23.6163 O   0  0  0  0  0  0  0  0  0  0  0  0
    7.9403  -11.7803   25.2482 C   0  0  0  0  0  0  0  0  0  0  0  0
    7.1084  -12.9353   25.6457 C   0  0  2  0  0  0  0  0  0  0  0  0
    5.7037  -12.4134   26.0360 C   0  0  0  0  0  0  0  0  0  0  0  0
    7.5995  -13.8762   26.6576 C   0  0  0  0  0  0  0  0  0  0  0  0
    8.8361  -14.6495   26.4726 C   0  0  2  0  0  0  0  0  0  0  0  0
    8.6925  -15.5362   25.2824 N   0  0  0  0  0  0  0  0  0  0  0  0
    9.3672  -15.4458   27.5699 C   0  0  0  0  0  0  0  0  0  0  0  0
   10.0080  -14.9662   28.6943 O   0  0  0  0  0  0  0  0  0  0  0  0
    9.2395  -16.7348   27.4986 O   0  0  0  0  0  0  0  0  0  0  0  0
  2  1  1  6
  2  3  1  0
  3  4  1  0
  4  8  1  0
  5  4  2  0
  6  7  2  0
  6  2  1  0
  9  6  1  0
 10  9  1  0
 10 11  1  1
 12 13  1  0
 12 11  1  0
 13 14  2  0
 15 10  1  0
 16 15  2  0
 17 13  1  0
 19 18  1  1
 19 21  1  0
 20 19  1  0
 22 21  1  1
 22 24  1  0
 22 23  1  0
 23 15  1  0
 24 25  1  0
 26 24  2  0
M  END
$$$$
