DEL.pdb
     RDKit          3D

 26 25  0  0  1  0  0  0  0  0999 V2000
    6.7500  -16.9159   21.0311 N   0  0  0  0  0  0  0  0  0  0  0  0
    7.4157  -18.0299   21.6145 C   0  0  1  0  0  0  0  0  0  0  0  0
    7.4204  -19.2250   20.6827 C   0  0  0  0  0  0  0  0  0  0  0  0
    6.1500  -19.2607   19.9447 C   0  0  0  0  0  0  0  0  0  0  0  0
    5.2892  -18.3873   20.1244 O   0  0  0  0  0  0  0  0  0  0  0  0
    8.7428  -17.7732   22.1905 C   0  0  0  0  0  0  0  0  0  0  0  0
    9.3260  -18.8158   22.6702 O   0  0  0  0  0  0  0  0  0  0  0  0
    5.9061  -20.2769   19.0383 O   0  0  0  0  0  0  0  0  0  0  0  0
    9.4281  -16.5601   22.2757 N   0  0  0  0  0  0  0  0  0  0  0  0
   10.7266  -16.4708   22.9491 C   0  0  1  0  0  0  0  0  0  0  0  0
   11.6682  -15.5693   22.1977 C   0  0  0  0  0  0  0  0  0  0  0  0
   12.0883  -16.0985   20.8765 C   0  0  0  0  0  0  0  0  0  0  0  0
   13.0419  -15.1615   20.2469 C   0  0  0  0  0  0  0  0  0  0  0  0
   14.1744  -15.0236   20.7626 O   0  0  0  0  0  0  0  0  0  0  0  0
   10.5282  -16.0156   24.3558 C   0  0  0  0  0  0  0  0  0  0  0  0
   11.5434  -15.7804   25.0970 O   0  0  0  0  0  0  0  0  0  0  0  0
   12.7602  -14.4175   19.1100 O   0  0  0  0  0  0  0  0  0  0  0  0
    8.4708  -12.1871   25.8913 C   0  0  0  0  0  0  0  0  0  0  0  0
    7.6069  -13.3639   25.6610 C   0  0  2  0  0  0  0  0  0  0  0  0
    6.1295  -12.9143   25.7756 C   0  0  0  0  0  0  0  0  0  0  0  0
    7.8247  -14.5927   26.4311 C   0  0  0  0  0  0  0  0  0  0  0  0
    9.0736  -15.3628   26.3393 C   0  0  2  0  0  0  0  0  0  0  0  0
    9.2695  -15.8235   24.9347 N   0  0  0  0  0  0  0  0  0  0  0  0
    9.2952  -16.4979   27.2240 C   0  0  0  0  0  0  0  0  0  0  0  0
    9.7065  -16.4420   28.5402 O   0  0  0  0  0  0  0  0  0  0  0  0
    9.0965  -17.6865   26.7438 O   0  0  0  0  0  0  0  0  0  0  0  0
  2  1  1  6
  2  3  1  0
  3  4  1  0
  4  8  1  0
  5  4  2  0
  6  7  2  0
  6  2  1  0
  9  6  1  0
 10  9  1  0
 10 11  1  6
 12 13  1  0
 12 11  1  0
 13 14  2  0
 15 10  1  0
 16 15  2  0
 17 13  1  0
 19 18  1  1
 19 21  1  0
 20 19  1  0
 22 21  1  6
 22 24  1  0
 22 23  1  0
 23 15  1  0
 24 25  1  0
 26 24  2  0
M  END
$$$$
