DEL.pdb
     RDKit          3D

 26 25  0  0  1  0  0  0  0  0999 V2000
    9.7952  -16.8268   18.2160 N   0  0  0  0  0  0  0  0  0  0  0  0
    9.0024  -15.9259   18.9804 C   0  0  1  0  0  0  0  0  0  0  0  0
    7.7200  -15.5641   18.2585 C   0  0  0  0  0  0  0  0  0  0  0  0
    8.0302  -15.2666   16.8532 C   0  0  0  0  0  0  0  0  0  0  0  0
    8.8718  -14.4055   16.5596 O   0  0  0  0  0  0  0  0  0  0  0  0
    8.7626  -16.2910   20.3833 C   0  0  0  0  0  0  0  0  0  0  0  0
    7.6520  -15.8535   20.8652 O   0  0  0  0  0  0  0  0  0  0  0  0
    7.3797  -15.9514   15.8425 O   0  0  0  0  0  0  0  0  0  0  0  0
    9.5788  -17.0392   21.2333 N   0  0  0  0  0  0  0  0  0  0  0  0
    9.1532  -17.3648   22.5973 C   0  0  1  0  0  0  0  0  0  0  0  0
    9.9266  -18.5339   23.1440 C   0  0  0  0  0  0  0  0  0  0  0  0
    9.7873  -19.7781   22.3472 C   0  0  0  0  0  0  0  0  0  0  0  0
   10.6492  -20.8332   22.9196 C   0  0  0  0  0  0  0  0  0  0  0  0
   10.3585  -21.2983   24.0450 O   0  0  0  0  0  0  0  0  0  0  0  0
    9.2885  -16.1576   23.4632 C   0  0  0  0  0  0  0  0  0  0  0  0
   10.3531  -15.4515   23.4076 O   0  0  0  0  0  0  0  0  0  0  0  0
   11.7707  -21.3465   22.2838 O   0  0  0  0  0  0  0  0  0  0  0  0
    7.5897  -12.2466   27.2241 C   0  0  0  0  0  0  0  0  0  0  0  0
    7.0553  -12.4625   25.8632 C   0  0  2  0  0  0  0  0  0  0  0  0
    5.5805  -11.9911   25.8379 C   0  0  0  0  0  0  0  0  0  0  0  0
    7.1781  -13.7795   25.2300 C   0  0  0  0  0  0  0  0  0  0  0  0
    8.4408  -14.5324   25.2285 C   0  0  2  0  0  0  0  0  0  0  0  0
    8.2998  -15.7345   24.3576 N   0  0  0  0  0  0  0  0  0  0  0  0
    9.0389  -14.9524   26.4879 C   0  0  0  0  0  0  0  0  0  0  0  0
    8.6283  -16.0071   27.2778 O   0  0  0  0  0  0  0  0  0  0  0  0
   10.0552  -14.2777   26.9293 O   0  0  0  0  0  0  0  0  0  0  0  0
  2  1  1  6
  2  3  1  0
  3  4  1  0
  4  8  1  0
  5  4  2  0
  6  7  2  0
  6  2  1  0
  9  6  1  0
 10  9  1  0
 10 11  1  1
 12 13  1  0
 12 11  1  0
 13 14  2  0
 15 10  1  0
 16 15  2  0
 17 13  1  0
 19 18  1  1
 19 21  1  0
 20 19  1  0
 22 21  1  1
 22 24  1  0
 22 23  1  0
 23 15  1  0
 24 25  1  0
 26 24  2  0
M  END
$$$$
