DEL.pdb
     RDKit          3D

 26 25  0  0  1  0  0  0  0  0999 V2000
   10.0343  -15.2693   18.5608 N   0  0  0  0  0  0  0  0  0  0  0  0
   10.7657  -15.3748   19.7766 C   0  0  1  0  0  0  0  0  0  0  0  0
   11.7294  -14.2177   19.9476 C   0  0  0  0  0  0  0  0  0  0  0  0
   13.0612  -14.6324   19.4850 C   0  0  0  0  0  0  0  0  0  0  0  0
   13.3498  -15.8334   19.3829 O   0  0  0  0  0  0  0  0  0  0  0  0
    9.9823  -15.6259   20.9940 C   0  0  0  0  0  0  0  0  0  0  0  0
    9.4525  -14.5738   21.5130 O   0  0  0  0  0  0  0  0  0  0  0  0
   14.0072  -13.6774   19.1583 O   0  0  0  0  0  0  0  0  0  0  0  0
    9.7510  -16.8430   21.6373 N   0  0  0  0  0  0  0  0  0  0  0  0
    8.9979  -16.9036   22.8930 C   0  0  1  0  0  0  0  0  0  0  0  0
    8.8481  -18.3228   23.3695 C   0  0  0  0  0  0  0  0  0  0  0  0
    7.9496  -18.4769   24.5405 C   0  0  0  0  0  0  0  0  0  0  0  0
    7.9552  -19.8851   24.9884 C   0  0  0  0  0  0  0  0  0  0  0  0
    8.7510  -20.2220   25.8943 O   0  0  0  0  0  0  0  0  0  0  0  0
    9.6623  -16.0433   23.9147 C   0  0  0  0  0  0  0  0  0  0  0  0
   10.3514  -15.0322   23.5433 O   0  0  0  0  0  0  0  0  0  0  0  0
    7.1271  -20.8676   24.4645 O   0  0  0  0  0  0  0  0  0  0  0  0
    8.7385  -12.2479   26.3817 C   0  0  0  0  0  0  0  0  0  0  0  0
    7.8075  -13.1404   25.6601 C   0  0  2  0  0  0  0  0  0  0  0  0
    6.3595  -12.6834   25.9641 C   0  0  0  0  0  0  0  0  0  0  0  0
    7.9232  -14.5943   25.8119 C   0  0  0  0  0  0  0  0  0  0  0  0
    9.1615  -15.2367   26.2757 C   0  0  2  0  0  0  0  0  0  0  0  0
    9.5794  -16.2759   25.2914 N   0  0  0  0  0  0  0  0  0  0  0  0
    9.2225  -15.8227   27.6073 C   0  0  0  0  0  0  0  0  0  0  0  0
    8.6879  -17.0351   27.9936 O   0  0  0  0  0  0  0  0  0  0  0  0
    9.8305  -15.1514   28.5360 O   0  0  0  0  0  0  0  0  0  0  0  0
  2  1  1  6
  2  3  1  0
  3  4  1  0
  4  8  1  0
  5  4  2  0
  6  7  2  0
  6  2  1  0
  9  6  1  0
 10  9  1  0
 10 11  1  1
 12 13  1  0
 12 11  1  0
 13 14  2  0
 15 10  1  0
 16 15  2  0
 17 13  1  0
 19 18  1  1
 19 21  1  0
 20 19  1  0
 22 21  1  6
 22 24  1  0
 22 23  1  0
 23 15  1  0
 24 25  1  0
 26 24  2  0
M  END
$$$$
