DEL.pdb
     RDKit          3D

 26 25  0  0  1  0  0  0  0  0999 V2000
    9.3925  -13.1877   19.5624 N   0  0  0  0  0  0  0  0  0  0  0  0
    8.1007  -13.5979   19.9953 C   0  0  1  0  0  0  0  0  0  0  0  0
    7.1851  -13.8815   18.8214 C   0  0  0  0  0  0  0  0  0  0  0  0
    7.8189  -14.8825   17.9519 C   0  0  0  0  0  0  0  0  0  0  0  0
    8.6249  -14.5393   17.0751 O   0  0  0  0  0  0  0  0  0  0  0  0
    8.0550  -14.6667   21.0025 C   0  0  0  0  0  0  0  0  0  0  0  0
    6.8690  -14.9812   21.3920 O   0  0  0  0  0  0  0  0  0  0  0  0
    7.5171  -16.2234   18.1084 O   0  0  0  0  0  0  0  0  0  0  0  0
    9.1218  -15.3640   21.5718 N   0  0  0  0  0  0  0  0  0  0  0  0
    8.9091  -16.2976   22.6812 C   0  0  1  0  0  0  0  0  0  0  0  0
    9.6694  -17.5783   22.4678 C   0  0  0  0  0  0  0  0  0  0  0  0
    9.4530  -18.5949   23.5270 C   0  0  0  0  0  0  0  0  0  0  0  0
   10.2631  -19.7958   23.2353 C   0  0  0  0  0  0  0  0  0  0  0  0
   10.9789  -19.8000   22.2081 O   0  0  0  0  0  0  0  0  0  0  0  0
    9.2835  -15.6386   23.9660 C   0  0  0  0  0  0  0  0  0  0  0  0
   10.4616  -15.1652   24.1179 O   0  0  0  0  0  0  0  0  0  0  0  0
   10.2819  -20.9301   24.0343 O   0  0  0  0  0  0  0  0  0  0  0  0
    7.7353  -11.7875   25.7252 C   0  0  0  0  0  0  0  0  0  0  0  0
    6.9660  -13.0009   26.0719 C   0  0  2  0  0  0  0  0  0  0  0  0
    5.6521  -12.5639   26.7650 C   0  0  0  0  0  0  0  0  0  0  0  0
    7.6058  -14.0800   26.8311 C   0  0  0  0  0  0  0  0  0  0  0  0
    8.7727  -14.8126   26.3182 C   0  0  2  0  0  0  0  0  0  0  0  0
    8.4065  -15.5001   25.0468 N   0  0  0  0  0  0  0  0  0  0  0  0
    9.4618  -15.7715   27.1702 C   0  0  0  0  0  0  0  0  0  0  0  0
    9.5932  -17.1258   26.9389 O   0  0  0  0  0  0  0  0  0  0  0  0
   10.0075  -15.3287   28.2605 O   0  0  0  0  0  0  0  0  0  0  0  0
  2  1  1  6
  2  3  1  0
  3  4  1  0
  4  8  1  0
  5  4  2  0
  6  7  2  0
  6  2  1  0
  9  6  1  0
 10  9  1  0
 10 11  1  6
 12 13  1  0
 12 11  1  0
 13 14  2  0
 15 10  1  0
 16 15  2  0
 17 13  1  0
 19 18  1  1
 19 21  1  0
 20 19  1  0
 22 21  1  1
 22 24  1  0
 22 23  1  0
 23 15  1  0
 24 25  1  0
 26 24  2  0
M  END
$$$$
