LIH.pdb
     RDKit          3D

 27 27  0  0  1  0  0  0  0  0999 V2000
   18.8733  -14.2667  -20.1402 C   0  0  0  0  0  0  0  0  0  0  0  0
   20.2003  -14.4453  -19.4650 C   0  0  1  0  0  0  0  0  0  0  0  0
   21.2817  -14.2573  -20.5059 C   0  0  0  0  0  0  0  0  0  0  0  0
   20.3839  -13.5072  -18.2921 C   0  0  0  0  0  0  0  0  0  0  0  0
   21.7738  -13.7280  -17.7392 C   0  0  2  0  0  0  0  0  0  0  0  0
   21.8337  -15.0408  -17.1301 N   0  0  0  0  0  0  0  0  0  0  0  0
   22.1295  -12.7376  -16.6983 C   0  0  0  0  0  0  0  0  0  0  0  0
   21.6657  -12.8471  -15.5382 O   0  0  0  0  0  0  0  0  0  0  0  0
   27.0233  -11.4310  -15.4544 C   0  0  0  0  0  0  0  0  0  0  0  0
   25.5135  -11.6771  -15.4780 C   0  0  0  0  0  0  0  0  0  0  0  0
   24.7764  -10.4444  -15.9102 C   0  0  2  0  0  0  0  0  0  0  0  0
   25.1836   -9.3243  -14.9685 C   0  0  0  0  0  0  0  0  0  0  0  0
   23.2943  -10.5960  -16.0080 C   0  0  2  0  0  0  0  0  0  0  0  0
   22.9975  -11.6458  -16.9806 N   0  0  0  0  0  0  0  0  0  0  0  0
   22.6293   -9.3291  -16.3851 C   0  0  0  0  0  0  0  0  0  0  0  0
   22.9470   -8.7047  -17.4266 O   0  0  0  0  0  0  0  0  0  0  0  0
   21.5976   -8.7403  -15.6022 N   0  0  0  0  0  0  0  0  0  0  0  0
   20.8617   -7.5504  -16.0134 C   0  0  1  0  0  0  0  0  0  0  0  0
   19.5084   -7.4940  -15.4089 C   0  0  0  0  0  0  0  0  0  0  0  0
   18.7214   -6.3714  -15.9449 C   0  0  0  0  0  0  0  0  0  0  0  0
   18.9245   -5.6935  -17.1555 C   0  0  0  0  0  0  0  0  0  0  0  0
   18.0233   -4.7291  -17.3210 N   0  0  0  0  0  0  0  0  0  0  0  0
   17.2322   -4.7693  -16.2305 C   0  0  0  0  0  0  0  0  0  0  0  0
   17.6541   -5.7504  -15.4149 N   0  0  0  0  0  0  0  0  0  0  0  0
   21.6316   -6.3364  -15.6996 C   0  0  0  0  0  0  0  0  0  0  0  0
   22.1798   -6.2399  -14.5741 O   0  0  0  0  0  0  0  0  0  0  0  0
   21.7582   -5.3267  -16.6059 O   0  0  0  0  0  0  0  0  0  0  0  0
  2  3  1  6
  2  1  1  0
  4  2  1  0
  5  6  1  1
  5  4  1  0
  7  5  1  0
  8  7  2  0
 10  9  1  0
 11 10  1  0
 11 13  1  0
 11 12  1  1
 13 14  1  6
 14  7  1  0
 15 13  1  0
 15 16  2  0
 17 15  1  0
 18 17  1  0
 18 19  1  1
 20 19  1  0
 21 20  2  0
 22 21  1  0
 23 22  1  0
 23 24  2  0
 24 20  1  0
 25 18  1  0
 26 25  2  0
 27 25  1  0
M  END
$$$$
