LIH.pdb
     RDKit          3D

 27 27  0  0  1  0  0  0  0  0999 V2000
   20.8993  -19.0548  -15.9857 C   0  0  0  0  0  0  0  0  0  0  0  0
   21.2241  -17.7756  -16.6975 C   0  0  1  0  0  0  0  0  0  0  0  0
   20.0398  -17.4116  -17.5654 C   0  0  0  0  0  0  0  0  0  0  0  0
   21.5830  -16.6573  -15.7435 C   0  0  0  0  0  0  0  0  0  0  0  0
   21.7797  -15.4004  -16.5608 C   0  0  2  0  0  0  0  0  0  0  0  0
   22.8224  -15.6344  -17.5385 N   0  0  0  0  0  0  0  0  0  0  0  0
   22.1983  -14.2488  -15.7304 C   0  0  0  0  0  0  0  0  0  0  0  0
   21.6159  -14.0076  -14.6461 O   0  0  0  0  0  0  0  0  0  0  0  0
   27.4037  -13.2335  -15.1168 C   0  0  0  0  0  0  0  0  0  0  0  0
   25.8992  -13.3441  -14.8627 C   0  0  0  0  0  0  0  0  0  0  0  0
   25.1753  -12.1461  -15.4017 C   0  0  2  0  0  0  0  0  0  0  0  0
   25.7101  -10.9296  -14.6660 C   0  0  0  0  0  0  0  0  0  0  0  0
   23.6856  -12.2327  -15.3520 C   0  0  2  0  0  0  0  0  0  0  0  0
   23.2609  -13.3924  -16.1336 N   0  0  0  0  0  0  0  0  0  0  0  0
   23.0397  -10.9989  -15.8520 C   0  0  0  0  0  0  0  0  0  0  0  0
   23.3192  -10.5208  -16.9785 O   0  0  0  0  0  0  0  0  0  0  0  0
   22.0702  -10.2798  -15.0990 N   0  0  0  0  0  0  0  0  0  0  0  0
   21.4295   -9.0603  -15.5772 C   0  0  1  0  0  0  0  0  0  0  0  0
   19.9518   -9.1264  -15.4693 C   0  0  0  0  0  0  0  0  0  0  0  0
   19.3179   -7.8808  -15.9312 C   0  0  0  0  0  0  0  0  0  0  0  0
   19.4305   -7.2897  -17.1979 C   0  0  0  0  0  0  0  0  0  0  0  0
   18.7217   -6.1661  -17.2664 N   0  0  0  0  0  0  0  0  0  0  0  0
   18.1462   -6.0159  -16.0568 C   0  0  0  0  0  0  0  0  0  0  0  0
   18.5060   -7.0414  -15.2664 N   0  0  0  0  0  0  0  0  0  0  0  0
   21.9595   -7.8878  -14.8634 C   0  0  0  0  0  0  0  0  0  0  0  0
   22.1958   -7.9821  -13.6339 O   0  0  0  0  0  0  0  0  0  0  0  0
   22.1970   -6.7137  -15.5129 O   0  0  0  0  0  0  0  0  0  0  0  0
  2  3  1  1
  2  1  1  0
  4  2  1  0
  5  6  1  6
  5  4  1  0
  7  5  1  0
  8  7  2  0
 10  9  1  0
 11 10  1  0
 11 13  1  0
 11 12  1  1
 13 14  1  6
 14  7  1  0
 15 13  1  0
 15 16  2  0
 17 15  1  0
 18 17  1  0
 18 19  1  1
 20 19  1  0
 21 20  2  0
 22 21  1  0
 23 22  1  0
 23 24  2  0
 24 20  1  0
 25 18  1  0
 26 25  2  0
 27 25  1  0
M  END
$$$$
