LIH.pdb
     RDKit          3D

 27 27  0  0  1  0  0  0  0  0999 V2000
   27.3365  -16.8383  -17.1316 C   0  0  0  0  0  0  0  0  0  0  0  0
   27.9735  -17.7453  -16.1216 C   0  0  1  0  0  0  0  0  0  0  0  0
   28.8235  -16.8956  -15.2030 C   0  0  0  0  0  0  0  0  0  0  0  0
   26.9564  -18.5576  -15.3501 C   0  0  0  0  0  0  0  0  0  0  0  0
   27.7129  -19.4771  -14.4181 C   0  0  2  0  0  0  0  0  0  0  0  0
   28.6384  -20.2754  -15.1952 N   0  0  0  0  0  0  0  0  0  0  0  0
   26.8171  -20.4093  -13.6975 C   0  0  0  0  0  0  0  0  0  0  0  0
   26.4900  -21.5014  -14.2204 O   0  0  0  0  0  0  0  0  0  0  0  0
   26.7098  -20.4402   -8.2441 C   0  0  0  0  0  0  0  0  0  0  0  0
   26.5528  -21.0909   -9.6197 C   0  0  0  0  0  0  0  0  0  0  0  0
   25.2980  -20.6218  -10.2942 C   0  0  2  0  0  0  0  0  0  0  0  0
   24.1291  -21.2523   -9.5570 C   0  0  0  0  0  0  0  0  0  0  0  0
   25.2422  -20.8666  -11.7660 C   0  0  2  0  0  0  0  0  0  0  0  0
   26.3072  -20.0971  -12.4061 N   0  0  0  0  0  0  0  0  0  0  0  0
   23.9242  -20.5143  -12.3389 C   0  0  0  0  0  0  0  0  0  0  0  0
   23.5458  -19.3211  -12.4322 O   0  0  0  0  0  0  0  0  0  0  0  0
   23.0080  -21.4921  -12.8169 N   0  0  0  0  0  0  0  0  0  0  0  0
   21.8931  -21.1782  -13.7029 C   0  0  1  0  0  0  0  0  0  0  0  0
   21.9794  -21.9099  -14.9901 C   0  0  0  0  0  0  0  0  0  0  0  0
   20.8442  -21.5922  -15.8717 C   0  0  0  0  0  0  0  0  0  0  0  0
   19.7603  -20.7483  -15.5899 C   0  0  0  0  0  0  0  0  0  0  0  0
   18.9175  -20.6923  -16.6176 N   0  0  0  0  0  0  0  0  0  0  0  0
   19.4392  -21.4914  -17.5694 C   0  0  0  0  0  0  0  0  0  0  0  0
   20.5873  -22.0243  -17.1179 N   0  0  0  0  0  0  0  0  0  0  0  0
   20.6118  -21.4426  -13.0296 C   0  0  0  0  0  0  0  0  0  0  0  0
   20.5620  -22.3380  -12.1509 O   0  0  0  0  0  0  0  0  0  0  0  0
   19.4905  -20.7342  -13.3421 O   0  0  0  0  0  0  0  0  0  0  0  0
  2  3  1  1
  2  1  1  0
  4  2  1  0
  5  6  1  6
  5  4  1  0
  7  5  1  0
  8  7  2  0
 10  9  1  0
 11 10  1  0
 11 13  1  0
 11 12  1  1
 13 14  1  6
 14  7  1  0
 15 13  1  0
 15 16  2  0
 17 15  1  0
 18 17  1  0
 18 19  1  6
 20 19  1  0
 21 20  2  0
 22 21  1  0
 23 22  1  0
 23 24  2  0
 24 20  1  0
 25 18  1  0
 26 25  2  0
 27 25  1  0
M  END
$$$$
