LIH.pdb
     RDKit          3D

 27 27  0  0  1  0  0  0  0  0999 V2000
   28.6440  -18.0594  -19.7098 C   0  0  0  0  0  0  0  0  0  0  0  0
   27.7708  -17.5985  -18.5812 C   0  0  1  0  0  0  0  0  0  0  0  0
   26.7548  -16.6294  -19.1441 C   0  0  0  0  0  0  0  0  0  0  0  0
   27.1055  -18.7485  -17.8572 C   0  0  0  0  0  0  0  0  0  0  0  0
   26.8278  -18.3012  -16.4397 C   0  0  2  0  0  0  0  0  0  0  0  0
   28.0644  -17.8412  -15.8419 N   0  0  0  0  0  0  0  0  0  0  0  0
   26.3063  -19.3990  -15.5950 C   0  0  0  0  0  0  0  0  0  0  0  0
   25.6181  -20.3153  -16.1046 O   0  0  0  0  0  0  0  0  0  0  0  0
   28.9879  -21.0689  -11.1254 C   0  0  0  0  0  0  0  0  0  0  0  0
   28.0983  -21.1426  -12.3678 C   0  0  0  0  0  0  0  0  0  0  0  0
   26.7384  -20.5751  -12.0875 C   0  0  2  0  0  0  0  0  0  0  0  0
   26.0798  -21.4756  -11.0567 C   0  0  0  0  0  0  0  0  0  0  0  0
   25.8809  -20.3650  -13.2915 C   0  0  2  0  0  0  0  0  0  0  0  0
   26.5676  -19.4458  -14.1969 N   0  0  0  0  0  0  0  0  0  0  0  0
   24.5409  -19.8474  -12.9365 C   0  0  0  0  0  0  0  0  0  0  0  0
   24.3971  -18.7631  -12.3206 O   0  0  0  0  0  0  0  0  0  0  0  0
   23.3397  -20.5352  -13.2653 N   0  0  0  0  0  0  0  0  0  0  0  0
   22.0200  -19.9191  -13.1934 C   0  0  1  0  0  0  0  0  0  0  0  0
   21.8224  -18.8969  -14.2497 C   0  0  0  0  0  0  0  0  0  0  0  0
   20.4728  -18.3119  -14.1927 C   0  0  0  0  0  0  0  0  0  0  0  0
   19.4737  -18.5725  -13.2439 C   0  0  0  0  0  0  0  0  0  0  0  0
   18.3756  -17.8662  -13.4989 N   0  0  0  0  0  0  0  0  0  0  0  0
   18.6463  -17.1458  -14.6055 C   0  0  0  0  0  0  0  0  0  0  0  0
   19.8978  -17.4165  -15.0133 N   0  0  0  0  0  0  0  0  0  0  0  0
   20.9693  -20.9477  -13.2503 C   0  0  0  0  0  0  0  0  0  0  0  0
   19.8038  -20.6443  -12.8952 O   0  0  0  0  0  0  0  0  0  0  0  0
   21.2410  -22.2115  -13.6812 O   0  0  0  0  0  0  0  0  0  0  0  0
  2  3  1  6
  2  1  1  0
  4  2  1  0
  5  6  1  1
  5  4  1  0
  7  5  1  0
  8  7  2  0
 10  9  1  0
 11 10  1  0
 11 13  1  0
 11 12  1  1
 13 14  1  6
 14  7  1  0
 15 13  1  0
 15 16  2  0
 17 15  1  0
 18 17  1  0
 18 19  1  6
 20 19  1  0
 21 20  2  0
 22 21  1  0
 23 22  1  0
 23 24  2  0
 24 20  1  0
 25 18  1  0
 26 25  2  0
 27 25  1  0
M  END
$$$$
