LIH.pdb
     RDKit          3D

 27 27  0  0  1  0  0  0  0  0999 V2000
   25.5307  -22.5379  -19.4134 C   0  0  0  0  0  0  0  0  0  0  0  0
   26.1964  -22.4725  -18.0714 C   0  0  1  0  0  0  0  0  0  0  0  0
   27.1788  -21.3225  -18.0942 C   0  0  0  0  0  0  0  0  0  0  0  0
   25.2028  -22.3369  -16.9383 C   0  0  0  0  0  0  0  0  0  0  0  0
   25.8848  -22.7985  -15.6702 C   0  0  2  0  0  0  0  0  0  0  0  0
   26.1272  -24.2237  -15.7596 N   0  0  0  0  0  0  0  0  0  0  0  0
   25.0555  -22.5626  -14.4671 C   0  0  0  0  0  0  0  0  0  0  0  0
   24.1401  -23.3647  -14.1642 O   0  0  0  0  0  0  0  0  0  0  0  0
   27.3331  -21.0914   -9.9400 C   0  0  0  0  0  0  0  0  0  0  0  0
   26.3623  -21.6971  -10.9554 C   0  0  0  0  0  0  0  0  0  0  0  0
   25.3057  -20.7058  -11.3437 C   0  0  2  0  0  0  0  0  0  0  0  0
   24.5161  -20.3762  -10.0887 C   0  0  0  0  0  0  0  0  0  0  0  0
   24.4275  -21.1287  -12.4747 C   0  0  2  0  0  0  0  0  0  0  0  0
   25.2703  -21.4324  -13.6295 N   0  0  0  0  0  0  0  0  0  0  0  0
   23.4238  -20.0964  -12.8156 C   0  0  0  0  0  0  0  0  0  0  0  0
   23.7268  -19.0827  -13.4911 O   0  0  0  0  0  0  0  0  0  0  0  0
   22.0641  -20.1819  -12.4059 N   0  0  0  0  0  0  0  0  0  0  0  0
   20.9662  -19.5684  -13.1438 C   0  0  1  0  0  0  0  0  0  0  0  0
   21.2490  -19.4827  -14.5973 C   0  0  0  0  0  0  0  0  0  0  0  0
   20.1846  -18.7631  -15.3156 C   0  0  0  0  0  0  0  0  0  0  0  0
   19.3217  -19.2786  -16.2933 C   0  0  0  0  0  0  0  0  0  0  0  0
   18.4807  -18.3447  -16.7298 N   0  0  0  0  0  0  0  0  0  0  0  0
   18.7848  -17.2231  -16.0471 C   0  0  0  0  0  0  0  0  0  0  0  0
   19.8011  -17.4799  -15.2062 N   0  0  0  0  0  0  0  0  0  0  0  0
   19.7101  -20.2921  -12.8918 C   0  0  0  0  0  0  0  0  0  0  0  0
   19.7640  -21.4527  -12.4157 O   0  0  0  0  0  0  0  0  0  0  0  0
   18.5014  -19.7244  -13.1631 O   0  0  0  0  0  0  0  0  0  0  0  0
  2  3  1  6
  2  1  1  0
  4  2  1  0
  5  6  1  6
  5  4  1  0
  7  5  1  0
  8  7  2  0
 10  9  1  0
 11 10  1  0
 11 13  1  0
 11 12  1  1
 13 14  1  6
 14  7  1  0
 15 13  1  0
 15 16  2  0
 17 15  1  0
 18 17  1  0
 18 19  1  6
 20 19  1  0
 21 20  2  0
 22 21  1  0
 23 22  1  0
 23 24  2  0
 24 20  1  0
 25 18  1  0
 26 25  2  0
 27 25  1  0
M  END
$$$$
