LIH.pdb
     RDKit          3D

 27 27  0  0  1  0  0  0  0  0999 V2000
   24.2294  -13.0459  -15.5710 C   0  0  0  0  0  0  0  0  0  0  0  0
   25.2521  -14.0492  -16.0137 C   0  0  1  0  0  0  0  0  0  0  0  0
   26.4850  -13.8672  -15.1562 C   0  0  0  0  0  0  0  0  0  0  0  0
   24.7337  -15.4694  -15.9535 C   0  0  0  0  0  0  0  0  0  0  0  0
   25.8518  -16.3867  -16.3947 C   0  0  2  0  0  0  0  0  0  0  0  0
   26.1913  -16.0853  -17.7702 N   0  0  0  0  0  0  0  0  0  0  0  0
   25.4659  -17.8143  -16.3340 C   0  0  0  0  0  0  0  0  0  0  0  0
   24.5323  -18.2469  -17.0513 O   0  0  0  0  0  0  0  0  0  0  0  0
   28.9409  -21.6292  -17.0365 C   0  0  0  0  0  0  0  0  0  0  0  0
   27.6612  -20.7962  -16.9409 C   0  0  0  0  0  0  0  0  0  0  0  0
   27.0197  -20.9525  -15.5941 C   0  0  2  0  0  0  0  0  0  0  0  0
   26.7831  -22.4374  -15.3788 C   0  0  0  0  0  0  0  0  0  0  0  0
   25.7830  -20.1424  -15.3855 C   0  0  2  0  0  0  0  0  0  0  0  0
   26.1348  -18.7263  -15.4703 N   0  0  0  0  0  0  0  0  0  0  0  0
   25.1323  -20.4439  -14.0912 C   0  0  0  0  0  0  0  0  0  0  0  0
   24.1171  -19.8156  -13.7037 O   0  0  0  0  0  0  0  0  0  0  0  0
   25.6075  -21.4541  -13.2093 N   0  0  0  0  0  0  0  0  0  0  0  0
   25.5643  -21.3328  -11.7567 C   0  0  1  0  0  0  0  0  0  0  0  0
   26.4378  -20.2415  -11.2610 C   0  0  0  0  0  0  0  0  0  0  0  0
   26.4039  -20.1443   -9.7926 C   0  0  0  0  0  0  0  0  0  0  0  0
   25.9940  -21.1319   -8.8854 C   0  0  0  0  0  0  0  0  0  0  0  0
   26.0940  -20.7005   -7.6309 N   0  0  0  0  0  0  0  0  0  0  0  0
   26.5653  -19.4401   -7.7083 C   0  0  0  0  0  0  0  0  0  0  0  0
   26.7476  -19.1154   -8.9995 N   0  0  0  0  0  0  0  0  0  0  0  0
   24.1783  -21.1501  -11.2976 C   0  0  0  0  0  0  0  0  0  0  0  0
   23.3238  -20.7137  -12.1074 O   0  0  0  0  0  0  0  0  0  0  0  0
   23.8131  -21.4475  -10.0189 O   0  0  0  0  0  0  0  0  0  0  0  0
  2  3  1  1
  2  1  1  0
  4  2  1  0
  5  6  1  6
  5  4  1  0
  7  5  1  0
  8  7  2  0
 10  9  1  0
 11 10  1  0
 11 13  1  0
 11 12  1  6
 13 14  1  1
 14  7  1  0
 15 13  1  0
 15 16  2  0
 17 15  1  0
 18 17  1  0
 18 19  1  6
 20 19  1  0
 21 20  2  0
 22 21  1  0
 23 22  1  0
 23 24  2  0
 24 20  1  0
 25 18  1  0
 26 25  2  0
 27 25  1  0
M  END
$$$$
