LIH.pdb
     RDKit          3D

 27 27  0  0  1  0  0  0  0  0999 V2000
   16.9303  -29.2374  -10.6517 C   0  0  0  0  0  0  0  0  0  0  0  0
   18.4113  -29.2740  -10.8840 C   0  0  1  0  0  0  0  0  0  0  0  0
   18.6644  -28.9233  -12.3336 C   0  0  0  0  0  0  0  0  0  0  0  0
   19.1670  -28.3576   -9.9467 C   0  0  0  0  0  0  0  0  0  0  0  0
   18.6723  -26.9483  -10.1825 C   0  0  2  0  0  0  0  0  0  0  0  0
   19.5604  -26.2893  -11.1179 N   0  0  0  0  0  0  0  0  0  0  0  0
   18.6558  -26.1424   -8.9411 C   0  0  0  0  0  0  0  0  0  0  0  0
   19.7090  -25.6044   -8.5237 O   0  0  0  0  0  0  0  0  0  0  0  0
   14.9565  -22.5089   -5.7963 C   0  0  0  0  0  0  0  0  0  0  0  0
   16.0904  -23.5256   -5.6505 C   0  0  0  0  0  0  0  0  0  0  0  0
   16.2728  -24.3099   -6.9159 C   0  0  2  0  0  0  0  0  0  0  0  0
   14.9525  -25.0009   -7.2102 C   0  0  0  0  0  0  0  0  0  0  0  0
   17.4243  -25.2603   -6.9100 C   0  0  2  0  0  0  0  0  0  0  0  0
   17.4586  -25.9572   -8.1942 N   0  0  0  0  0  0  0  0  0  0  0  0
   17.3428  -26.2259   -5.7919 C   0  0  0  0  0  0  0  0  0  0  0  0
   16.5640  -27.2097   -5.8283 O   0  0  0  0  0  0  0  0  0  0  0  0
   18.1319  -26.1061   -4.6142 N   0  0  0  0  0  0  0  0  0  0  0  0
   18.0504  -27.0411   -3.4981 C   0  0  1  0  0  0  0  0  0  0  0  0
   19.2889  -27.0463   -2.6821 C   0  0  0  0  0  0  0  0  0  0  0  0
   19.1607  -27.9237   -1.5071 C   0  0  0  0  0  0  0  0  0  0  0  0
   19.2375  -29.3236   -1.4803 C   0  0  0  0  0  0  0  0  0  0  0  0
   19.0758  -29.7881   -0.2443 N   0  0  0  0  0  0  0  0  0  0  0  0
   18.8939  -28.7058    0.5381 C   0  0  0  0  0  0  0  0  0  0  0  0
   18.9457  -27.5984   -0.2212 N   0  0  0  0  0  0  0  0  0  0  0  0
   16.8717  -26.7481   -2.6676 C   0  0  0  0  0  0  0  0  0  0  0  0
   16.4840  -25.5584   -2.5632 O   0  0  0  0  0  0  0  0  0  0  0  0
   16.2006  -27.7409   -2.0189 O   0  0  0  0  0  0  0  0  0  0  0  0
  2  3  1  6
  2  1  1  0
  4  2  1  0
  5  6  1  6
  5  4  1  0
  7  5  1  0
  8  7  2  0
 10  9  1  0
 11 10  1  0
 11 13  1  0
 11 12  1  1
 13 14  1  6
 14  7  1  0
 15 13  1  0
 15 16  2  0
 17 15  1  0
 18 17  1  0
 18 19  1  1
 20 19  1  0
 21 20  2  0
 22 21  1  0
 23 22  1  0
 23 24  2  0
 24 20  1  0
 25 18  1  0
 26 25  2  0
 27 25  1  0
M  END
$$$$
