LIH.pdb
     RDKit          3D

 27 27  0  0  1  0  0  0  0  0999 V2000
   19.3530  -14.2694  -19.8149 C   0  0  0  0  0  0  0  0  0  0  0  0
   17.9698  -13.8305  -19.4373 C   0  0  1  0  0  0  0  0  0  0  0  0
   17.0100  -14.9361  -19.8179 C   0  0  0  0  0  0  0  0  0  0  0  0
   17.8563  -13.4712  -17.9719 C   0  0  0  0  0  0  0  0  0  0  0  0
   19.1772  -13.8001  -17.3136 C   0  0  2  0  0  0  0  0  0  0  0  0
   19.0514  -15.0616  -16.6130 N   0  0  0  0  0  0  0  0  0  0  0  0
   19.5817  -12.7785  -16.3219 C   0  0  0  0  0  0  0  0  0  0  0  0
   18.9332  -12.6406  -15.2573 O   0  0  0  0  0  0  0  0  0  0  0  0
   24.5780  -12.5108  -14.8059 C   0  0  0  0  0  0  0  0  0  0  0  0
   23.0524  -12.4251  -14.8816 C   0  0  0  0  0  0  0  0  0  0  0  0
   22.6154  -11.0775  -15.3743 C   0  0  2  0  0  0  0  0  0  0  0  0
   23.1743  -10.0442  -14.4114 C   0  0  0  0  0  0  0  0  0  0  0  0
   21.1444  -10.9267  -15.5811 C   0  0  2  0  0  0  0  0  0  0  0  0
   20.7048  -11.9335  -16.5451 N   0  0  0  0  0  0  0  0  0  0  0  0
   20.7839   -9.5676  -16.0417 C   0  0  0  0  0  0  0  0  0  0  0  0
   21.2668   -9.0801  -17.0928 O   0  0  0  0  0  0  0  0  0  0  0  0
   19.8768   -8.7316  -15.3330 N   0  0  0  0  0  0  0  0  0  0  0  0
   19.5567   -7.3695  -15.7437 C   0  0  1  0  0  0  0  0  0  0  0  0
   18.1385   -7.0251  -15.4795 C   0  0  0  0  0  0  0  0  0  0  0  0
   17.8338   -5.6403  -15.8750 C   0  0  0  0  0  0  0  0  0  0  0  0
   17.5634   -5.1662  -17.1667 C   0  0  0  0  0  0  0  0  0  0  0  0
   17.3307   -3.8564  -17.1568 N   0  0  0  0  0  0  0  0  0  0  0  0
   17.4463   -3.4687  -15.8710 C   0  0  0  0  0  0  0  0  0  0  0  0
   17.7462   -4.5370  -15.1130 N   0  0  0  0  0  0  0  0  0  0  0  0
   20.4634   -6.4105  -15.0932 C   0  0  0  0  0  0  0  0  0  0  0  0
   20.8328   -5.3953  -15.7330 O   0  0  0  0  0  0  0  0  0  0  0  0
   20.9012   -6.6062  -13.8177 O   0  0  0  0  0  0  0  0  0  0  0  0
  2  3  1  1
  2  1  1  0
  4  2  1  0
  5  6  1  1
  5  4  1  0
  7  5  1  0
  8  7  2  0
 10  9  1  0
 11 10  1  0
 11 13  1  0
 11 12  1  1
 13 14  1  6
 14  7  1  0
 15 13  1  0
 15 16  2  0
 17 15  1  0
 18 17  1  0
 18 19  1  1
 20 19  1  0
 21 20  2  0
 22 21  1  0
 23 22  1  0
 23 24  2  0
 24 20  1  0
 25 18  1  0
 26 25  2  0
 27 25  1  0
M  END
$$$$
