LIH.pdb
     RDKit          3D

 27 27  0  0  1  0  0  0  0  0999 V2000
   27.8729  -17.6573  -18.3437 C   0  0  0  0  0  0  0  0  0  0  0  0
   28.2611  -18.4873  -17.1567 C   0  0  1  0  0  0  0  0  0  0  0  0
   28.9102  -17.5732  -16.1412 C   0  0  0  0  0  0  0  0  0  0  0  0
   27.0869  -19.2362  -16.5652 C   0  0  0  0  0  0  0  0  0  0  0  0
   27.5874  -19.9981  -15.3588 C   0  0  2  0  0  0  0  0  0  0  0  0
   28.5226  -21.0128  -15.7991 N   0  0  0  0  0  0  0  0  0  0  0  0
   26.4949  -20.6843  -14.6333 C   0  0  0  0  0  0  0  0  0  0  0  0
   25.9785  -21.7245  -15.1070 O   0  0  0  0  0  0  0  0  0  0  0  0
   26.6249  -20.8226   -9.2258 C   0  0  0  0  0  0  0  0  0  0  0  0
   26.4070  -21.2054  -10.6909 C   0  0  0  0  0  0  0  0  0  0  0  0
   25.1197  -20.6351  -11.2078 C   0  0  2  0  0  0  0  0  0  0  0  0
   23.9980  -21.2292  -10.3735 C   0  0  0  0  0  0  0  0  0  0  0  0
   24.8941  -20.8105  -12.6733 C   0  0  2  0  0  0  0  0  0  0  0  0
   26.0048  -20.1895  -13.3923 N   0  0  0  0  0  0  0  0  0  0  0  0
   23.6017  -20.2373  -13.1097 C   0  0  0  0  0  0  0  0  0  0  0  0
   23.3190  -19.0298  -12.9154 O   0  0  0  0  0  0  0  0  0  0  0  0
   22.6042  -21.0066  -13.7709 N   0  0  0  0  0  0  0  0  0  0  0  0
   21.3162  -20.4613  -14.1833 C   0  0  1  0  0  0  0  0  0  0  0  0
   21.1974  -20.3639  -15.6585 C   0  0  0  0  0  0  0  0  0  0  0  0
   19.9134  -19.7670  -16.0610 C   0  0  0  0  0  0  0  0  0  0  0  0
   19.4552  -18.4712  -15.7832 C   0  0  0  0  0  0  0  0  0  0  0  0
   18.2469  -18.2694  -16.3018 N   0  0  0  0  0  0  0  0  0  0  0  0
   17.9098  -19.4207  -16.9164 C   0  0  0  0  0  0  0  0  0  0  0  0
   18.9076  -20.3085  -16.7688 N   0  0  0  0  0  0  0  0  0  0  0  0
   20.2162  -21.2570  -13.6160 C   0  0  0  0  0  0  0  0  0  0  0  0
   20.3862  -22.4886  -13.4408 O   0  0  0  0  0  0  0  0  0  0  0  0
   19.0282  -20.6805  -13.2795 O   0  0  0  0  0  0  0  0  0  0  0  0
  2  3  1  1
  2  1  1  0
  4  2  1  0
  5  6  1  6
  5  4  1  0
  7  5  1  0
  8  7  2  0
 10  9  1  0
 11 10  1  0
 11 13  1  0
 11 12  1  1
 13 14  1  6
 14  7  1  0
 15 13  1  0
 15 16  2  0
 17 15  1  0
 18 17  1  0
 18 19  1  6
 20 19  1  0
 21 20  2  0
 22 21  1  0
 23 22  1  0
 23 24  2  0
 24 20  1  0
 25 18  1  0
 26 25  2  0
 27 25  1  0
M  END
$$$$
