LIH.pdb
     RDKit          3D

 27 27  0  0  1  0  0  0  0  0999 V2000
   19.8018  -13.4780  -21.5536 C   0  0  0  0  0  0  0  0  0  0  0  0
   20.9915  -13.8970  -20.7427 C   0  0  1  0  0  0  0  0  0  0  0  0
   22.2305  -13.6654  -21.5792 C   0  0  0  0  0  0  0  0  0  0  0  0
   21.0702  -13.1756  -19.4150 C   0  0  0  0  0  0  0  0  0  0  0  0
   22.3324  -13.6308  -18.7178 C   0  0  2  0  0  0  0  0  0  0  0  0
   22.1744  -15.0134  -18.3161 N   0  0  0  0  0  0  0  0  0  0  0  0
   22.6172  -12.8425  -17.4979 C   0  0  0  0  0  0  0  0  0  0  0  0
   21.9893  -13.0724  -16.4369 O   0  0  0  0  0  0  0  0  0  0  0  0
   27.5438  -11.9374  -15.8061 C   0  0  0  0  0  0  0  0  0  0  0  0
   26.0321  -12.1491  -15.9090 C   0  0  0  0  0  0  0  0  0  0  0  0
   25.3229  -10.8466  -16.1333 C   0  0  2  0  0  0  0  0  0  0  0  0
   25.6822   -9.9339  -14.9735 C   0  0  0  0  0  0  0  0  0  0  0  0
   23.8477  -10.9571  -16.3355 C   0  0  2  0  0  0  0  0  0  0  0  0
   23.6000  -11.8132  -17.4939 N   0  0  0  0  0  0  0  0  0  0  0  0
   23.2105   -9.6339  -16.5161 C   0  0  0  0  0  0  0  0  0  0  0  0
   23.5280   -8.8753  -17.4645 O   0  0  0  0  0  0  0  0  0  0  0  0
   22.2071   -9.1381  -15.6378 N   0  0  0  0  0  0  0  0  0  0  0  0
   21.5614   -7.8422  -15.8114 C   0  0  1  0  0  0  0  0  0  0  0  0
   20.1408   -7.9757  -16.2161 C   0  0  0  0  0  0  0  0  0  0  0  0
   20.0131   -8.5405  -17.5694 C   0  0  0  0  0  0  0  0  0  0  0  0
   20.1363   -7.8594  -18.7889 C   0  0  0  0  0  0  0  0  0  0  0  0
   19.9598   -8.6841  -19.8177 N   0  0  0  0  0  0  0  0  0  0  0  0
   19.7222   -9.8984  -19.2833 C   0  0  0  0  0  0  0  0  0  0  0  0
   19.7555   -9.8053  -17.9432 N   0  0  0  0  0  0  0  0  0  0  0  0
   21.6884   -7.0368  -14.5865 C   0  0  0  0  0  0  0  0  0  0  0  0
   22.1516   -7.5760  -13.5516 O   0  0  0  0  0  0  0  0  0  0  0  0
   21.3160   -5.7262  -14.5614 O   0  0  0  0  0  0  0  0  0  0  0  0
  2  3  1  6
  2  1  1  0
  4  2  1  0
  5  6  1  1
  5  4  1  0
  7  5  1  0
  8  7  2  0
 10  9  1  0
 11 10  1  0
 11 13  1  0
 11 12  1  1
 13 14  1  6
 14  7  1  0
 15 13  1  0
 15 16  2  0
 17 15  1  0
 18 17  1  0
 18 19  1  1
 20 19  1  0
 21 20  2  0
 22 21  1  0
 23 22  1  0
 23 24  2  0
 24 20  1  0
 25 18  1  0
 26 25  2  0
 27 25  1  0
M  END
$$$$
