LIH.pdb
     RDKit          3D

 27 27  0  0  1  0  0  0  0  0999 V2000
   26.7972  -25.1608  -16.1121 C   0  0  0  0  0  0  0  0  0  0  0  0
   26.9005  -23.7274  -16.5401 C   0  0  1  0  0  0  0  0  0  0  0  0
   26.4172  -23.6322  -17.9704 C   0  0  0  0  0  0  0  0  0  0  0  0
   26.1349  -22.7943  -15.6277 C   0  0  0  0  0  0  0  0  0  0  0  0
   26.4062  -21.3786  -16.0844 C   0  0  2  0  0  0  0  0  0  0  0  0
   27.7984  -21.0643  -15.8377 N   0  0  0  0  0  0  0  0  0  0  0  0
   25.5890  -20.3847  -15.3529 C   0  0  0  0  0  0  0  0  0  0  0  0
   25.7136  -20.2559  -14.1116 O   0  0  0  0  0  0  0  0  0  0  0  0
   26.4605  -15.7092  -15.4802 C   0  0  0  0  0  0  0  0  0  0  0  0
   25.8586  -17.0474  -15.0473 C   0  0  0  0  0  0  0  0  0  0  0  0
   24.4666  -17.2068  -15.5826 C   0  0  2  0  0  0  0  0  0  0  0  0
   23.6331  -16.0725  -15.0118 C   0  0  0  0  0  0  0  0  0  0  0  0
   23.8473  -18.5444  -15.3447 C   0  0  2  0  0  0  0  0  0  0  0  0
   24.6496  -19.5566  -16.0289 N   0  0  0  0  0  0  0  0  0  0  0  0
   22.4405  -18.5951  -15.8003 C   0  0  0  0  0  0  0  0  0  0  0  0
   22.1398  -18.5108  -17.0161 O   0  0  0  0  0  0  0  0  0  0  0  0
   21.3468  -18.7408  -14.9021 N   0  0  0  0  0  0  0  0  0  0  0  0
   19.9655  -18.8977  -15.3424 C   0  0  1  0  0  0  0  0  0  0  0  0
   19.2025  -19.8224  -14.4692 C   0  0  0  0  0  0  0  0  0  0  0  0
   19.5992  -21.2235  -14.6849 C   0  0  0  0  0  0  0  0  0  0  0  0
   20.5879  -21.7014  -15.5569 C   0  0  0  0  0  0  0  0  0  0  0  0
   20.6795  -23.0272  -15.4960 N   0  0  0  0  0  0  0  0  0  0  0  0
   19.7603  -23.4216  -14.5926 C   0  0  0  0  0  0  0  0  0  0  0  0
   19.1204  -22.3414  -14.1134 N   0  0  0  0  0  0  0  0  0  0  0  0
   19.3027  -17.5871  -15.4312 C   0  0  0  0  0  0  0  0  0  0  0  0
   19.8014  -16.6124  -14.8166 O   0  0  0  0  0  0  0  0  0  0  0  0
   18.1676  -17.4182  -16.1660 O   0  0  0  0  0  0  0  0  0  0  0  0
  2  3  1  6
  2  1  1  0
  4  2  1  0
  5  6  1  1
  5  4  1  0
  7  5  1  0
  8  7  2  0
 10  9  1  0
 11 10  1  0
 11 13  1  0
 11 12  1  1
 13 14  1  6
 14  7  1  0
 15 13  1  0
 15 16  2  0
 17 15  1  0
 18 17  1  0
 18 19  1  1
 20 19  1  0
 21 20  2  0
 22 21  1  0
 23 22  1  0
 23 24  2  0
 24 20  1  0
 25 18  1  0
 26 25  2  0
 27 25  1  0
M  END
$$$$
