LIH.pdb
     RDKit          3D

 27 27  0  0  1  0  0  0  0  0999 V2000
   19.1468  -13.7380    7.6092 C   0  0  0  0  0  0  0  0  0  0  0  0
   18.8477  -12.2687    7.5922 C   0  0  1  0  0  0  0  0  0  0  0  0
   19.9746  -11.5722    6.8620 C   0  0  0  0  0  0  0  0  0  0  0  0
   17.5030  -11.9589    6.9713 C   0  0  0  0  0  0  0  0  0  0  0  0
   17.6366  -12.1297    5.4749 C   0  0  2  0  0  0  0  0  0  0  0  0
   16.8465  -11.1115    4.8138 N   0  0  0  0  0  0  0  0  0  0  0  0
   17.1432  -13.4462    5.0123 C   0  0  0  0  0  0  0  0  0  0  0  0
   15.9382  -13.7583    5.1662 O   0  0  0  0  0  0  0  0  0  0  0  0
   19.6197  -15.7372    0.6971 C   0  0  0  0  0  0  0  0  0  0  0  0
   18.5357  -15.2754    1.6728 C   0  0  0  0  0  0  0  0  0  0  0  0
   18.4668  -16.1822    2.8655 C   0  0  2  0  0  0  0  0  0  0  0  0
   18.0874  -17.5629    2.3587 C   0  0  0  0  0  0  0  0  0  0  0  0
   17.5723  -15.7132    3.9651 C   0  0  2  0  0  0  0  0  0  0  0  0
   18.0113  -14.3846    4.3871 N   0  0  0  0  0  0  0  0  0  0  0  0
   17.5611  -16.6497    5.1107 C   0  0  0  0  0  0  0  0  0  0  0  0
   18.5554  -16.7755    5.8666 O   0  0  0  0  0  0  0  0  0  0  0  0
   16.4366  -17.4609    5.4290 N   0  0  0  0  0  0  0  0  0  0  0  0
   16.4480  -18.4643    6.4870 C   0  0  1  0  0  0  0  0  0  0  0  0
   15.5843  -18.0807    7.6301 C   0  0  0  0  0  0  0  0  0  0  0  0
   14.1682  -17.9992    7.2366 C   0  0  0  0  0  0  0  0  0  0  0  0
   13.5679  -18.5661    6.1031 C   0  0  0  0  0  0  0  0  0  0  0  0
   12.2669  -18.2912    6.0626 N   0  0  0  0  0  0  0  0  0  0  0  0
   12.0099  -17.5499    7.1585 C   0  0  0  0  0  0  0  0  0  0  0  0
   13.1475  -17.3799    7.8533 N   0  0  0  0  0  0  0  0  0  0  0  0
   16.0626  -19.7796    5.9517 C   0  0  0  0  0  0  0  0  0  0  0  0
   15.6549  -19.8562    4.7666 O   0  0  0  0  0  0  0  0  0  0  0  0
   16.1435  -20.9045    6.7165 O   0  0  0  0  0  0  0  0  0  0  0  0
  2  3  1  6
  2  1  1  0
  4  2  1  0
  5  6  1  6
  5  4  1  0
  7  5  1  0
  8  7  2  0
 10  9  1  0
 11 10  1  0
 11 13  1  0
 11 12  1  6
 13 14  1  1
 14  7  1  0
 15 13  1  0
 15 16  2  0
 17 15  1  0
 18 17  1  0
 18 19  1  1
 20 19  1  0
 21 20  2  0
 22 21  1  0
 23 22  1  0
 23 24  2  0
 24 20  1  0
 25 18  1  0
 26 25  2  0
 27 25  1  0
M  END
$$$$
