LIH.pdb
     RDKit          3D

 27 27  0  0  1  0  0  0  0  0999 V2000
   20.2888  -13.3249  -17.2905 C   0  0  0  0  0  0  0  0  0  0  0  0
   21.4180  -12.3384  -17.3029 C   0  0  1  0  0  0  0  0  0  0  0  0
   21.5516  -11.8008  -18.7106 C   0  0  0  0  0  0  0  0  0  0  0  0
   21.2259  -11.2260  -16.2953 C   0  0  0  0  0  0  0  0  0  0  0  0
   22.4204  -10.3042  -16.3940 C   0  0  2  0  0  0  0  0  0  0  0  0
   23.5703  -10.9613  -15.8076 N   0  0  0  0  0  0  0  0  0  0  0  0
   22.2129   -9.0338  -15.6633 C   0  0  0  0  0  0  0  0  0  0  0  0
   22.1926   -9.0230  -14.4093 O   0  0  0  0  0  0  0  0  0  0  0  0
   25.1228   -4.7957  -16.1010 C   0  0  0  0  0  0  0  0  0  0  0  0
   24.1452   -5.8843  -15.6541 C   0  0  0  0  0  0  0  0  0  0  0  0
   22.7389   -5.5323  -16.0390 C   0  0  2  0  0  0  0  0  0  0  0  0
   22.4393   -4.1665  -15.4456 C   0  0  0  0  0  0  0  0  0  0  0  0
   21.7099   -6.5505  -15.6734 C   0  0  2  0  0  0  0  0  0  0  0  0
   22.0326   -7.8029  -16.3542 N   0  0  0  0  0  0  0  0  0  0  0  0
   20.3409   -6.1056  -16.0158 C   0  0  0  0  0  0  0  0  0  0  0  0
   19.9992   -5.8849  -17.2033 O   0  0  0  0  0  0  0  0  0  0  0  0
   19.3317   -5.9004  -15.0343 N   0  0  0  0  0  0  0  0  0  0  0  0
   17.9668   -5.5045  -15.3611 C   0  0  1  0  0  0  0  0  0  0  0  0
   16.9686   -6.4892  -14.8776 C   0  0  0  0  0  0  0  0  0  0  0  0
   17.0688   -7.7650  -15.6051 C   0  0  0  0  0  0  0  0  0  0  0  0
   16.7792   -7.9962  -16.9575 C   0  0  0  0  0  0  0  0  0  0  0  0
   16.9813   -9.2712  -17.2790 N   0  0  0  0  0  0  0  0  0  0  0  0
   17.4005   -9.8766  -16.1501 C   0  0  0  0  0  0  0  0  0  0  0  0
   17.4502   -8.9730  -15.1568 N   0  0  0  0  0  0  0  0  0  0  0  0
   17.6816   -4.1608  -14.8338 C   0  0  0  0  0  0  0  0  0  0  0  0
   18.5368   -3.6014  -14.1043 O   0  0  0  0  0  0  0  0  0  0  0  0
   16.5145   -3.5208  -15.1257 O   0  0  0  0  0  0  0  0  0  0  0  0
  2  3  1  6
  2  1  1  0
  4  2  1  0
  5  6  1  1
  5  4  1  0
  7  5  1  0
  8  7  2  0
 10  9  1  0
 11 10  1  0
 11 13  1  0
 11 12  1  1
 13 14  1  6
 14  7  1  0
 15 13  1  0
 15 16  2  0
 17 15  1  0
 18 17  1  0
 18 19  1  1
 20 19  1  0
 21 20  2  0
 22 21  1  0
 23 22  1  0
 23 24  2  0
 24 20  1  0
 25 18  1  0
 26 25  2  0
 27 25  1  0
M  END
$$$$
