LIH.pdb
     RDKit          3D

 27 27  0  0  1  0  0  0  0  0999 V2000
   28.2253  -25.6464  -16.1789 C   0  0  0  0  0  0  0  0  0  0  0  0
   28.0890  -24.2318  -16.6574 C   0  0  1  0  0  0  0  0  0  0  0  0
   27.8167  -24.2672  -18.1449 C   0  0  0  0  0  0  0  0  0  0  0  0
   27.0168  -23.4689  -15.9105 C   0  0  0  0  0  0  0  0  0  0  0  0
   26.9857  -22.0608  -16.4607 C   0  0  2  0  0  0  0  0  0  0  0  0
   28.2694  -21.4344  -16.2205 N   0  0  0  0  0  0  0  0  0  0  0  0
   25.9532  -21.2243  -15.8088 C   0  0  0  0  0  0  0  0  0  0  0  0
   26.0339  -20.9615  -14.5851 O   0  0  0  0  0  0  0  0  0  0  0  0
   24.9475  -16.4636  -17.0985 C   0  0  0  0  0  0  0  0  0  0  0  0
   25.0138  -17.7850  -16.3303 C   0  0  0  0  0  0  0  0  0  0  0  0
   23.7486  -18.5711  -16.5062 C   0  0  2  0  0  0  0  0  0  0  0  0
   22.6133  -17.7233  -15.9590 C   0  0  0  0  0  0  0  0  0  0  0  0
   23.7700  -19.9431  -15.9177 C   0  0  2  0  0  0  0  0  0  0  0  0
   24.8524  -20.7004  -16.5429 N   0  0  0  0  0  0  0  0  0  0  0  0
   22.4764  -20.6411  -16.0869 C   0  0  0  0  0  0  0  0  0  0  0  0
   22.0686  -21.0048  -17.2170 O   0  0  0  0  0  0  0  0  0  0  0  0
   21.6178  -20.9436  -14.9936 N   0  0  0  0  0  0  0  0  0  0  0  0
   20.3132  -21.5757  -15.1520 C   0  0  1  0  0  0  0  0  0  0  0  0
   20.2001  -22.8280  -14.3654 C   0  0  0  0  0  0  0  0  0  0  0  0
   18.8757  -23.4505  -14.5241 C   0  0  0  0  0  0  0  0  0  0  0  0
   17.7989  -22.9734  -15.2853 C   0  0  0  0  0  0  0  0  0  0  0  0
   16.7532  -23.7913  -15.2003 N   0  0  0  0  0  0  0  0  0  0  0  0
   17.1351  -24.7991  -14.3909 C   0  0  0  0  0  0  0  0  0  0  0  0
   18.4010  -24.5893  -13.9918 N   0  0  0  0  0  0  0  0  0  0  0  0
   19.2396  -20.6327  -14.8014 C   0  0  0  0  0  0  0  0  0  0  0  0
   19.4927  -19.6932  -14.0079 O   0  0  0  0  0  0  0  0  0  0  0  0
   17.9874  -20.7628  -15.3230 O   0  0  0  0  0  0  0  0  0  0  0  0
  2  3  1  6
  2  1  1  0
  4  2  1  0
  5  6  1  1
  5  4  1  0
  7  5  1  0
  8  7  2  0
 10  9  1  0
 11 10  1  0
 11 13  1  0
 11 12  1  1
 13 14  1  6
 14  7  1  0
 15 13  1  0
 15 16  2  0
 17 15  1  0
 18 17  1  0
 18 19  1  1
 20 19  1  0
 21 20  2  0
 22 21  1  0
 23 22  1  0
 23 24  2  0
 24 20  1  0
 25 18  1  0
 26 25  2  0
 27 25  1  0
M  END
$$$$
