FFF.pdb
     RDKit          3D

 34 36  0  0  1  0  0  0  0  0999 V2000
   -3.7544   -2.7987   39.7971 N   0  0  0  0  0  0  0  0  0  0  0  0
   -3.1606   -3.6759   40.7642 C   0  0  1  0  0  0  0  0  0  0  0  0
   -1.9271   -3.0120   41.3383 C   0  0  0  0  0  0  0  0  0  0  0  0
   -1.2643   -4.0105   42.2179 C   0  0  0  0  0  0  0  0  0  0  0  0
   -1.4047   -3.9723   43.5887 C   0  0  0  0  0  0  0  0  0  0  0  0
   -0.7707   -4.9236   44.3952 C   0  0  0  0  0  0  0  0  0  0  0  0
    0.0014   -5.9126   43.8536 C   0  0  0  0  0  0  0  0  0  0  0  0
    0.1468   -5.9578   42.4845 C   0  0  0  0  0  0  0  0  0  0  0  0
   -0.4851   -5.0094   41.6795 C   0  0  0  0  0  0  0  0  0  0  0  0
   -4.1278   -4.0701   41.7874 C   0  0  0  0  0  0  0  0  0  0  0  0
   -4.9994   -3.2489   42.1621 O   0  0  0  0  0  0  0  0  0  0  0  0
   -4.0898   -5.3643   42.3565 N   0  0  0  0  0  0  0  0  0  0  0  0
   -5.1485   -5.6878   43.3786 C   0  0  1  0  0  0  0  0  0  0  0  0
   -5.4614   -7.1408   43.2404 C   0  0  0  0  0  0  0  0  0  0  0  0
   -6.5007   -7.4181   42.2507 C   0  0  0  0  0  0  0  0  0  0  0  0
   -7.8263   -7.0367   42.5164 C   0  0  0  0  0  0  0  0  0  0  0  0
   -8.8421   -7.2157   41.6091 C   0  0  0  0  0  0  0  0  0  0  0  0
   -8.5991   -7.7866   40.3794 C   0  0  0  0  0  0  0  0  0  0  0  0
   -7.3073   -8.1680   40.0985 C   0  0  0  0  0  0  0  0  0  0  0  0
   -6.2810   -7.9875   41.0154 C   0  0  0  0  0  0  0  0  0  0  0  0
   -4.5109   -5.3818   44.6465 C   0  0  0  0  0  0  0  0  0  0  0  0
   -3.3126   -5.6899   44.8488 O   0  0  0  0  0  0  0  0  0  0  0  0
   -5.1891   -4.7242   45.6977 N   0  0  0  0  0  0  0  0  0  0  0  0
   -4.4623   -4.4525   46.9367 C   0  0  1  0  0  0  0  0  0  0  0  0
   -4.9157   -3.0268   47.3167 C   0  0  0  0  0  0  0  0  0  0  0  0
   -4.4181   -2.0123   46.3802 C   0  0  0  0  0  0  0  0  0  0  0  0
   -3.1871   -1.3829   46.5761 C   0  0  0  0  0  0  0  0  0  0  0  0
   -2.6816   -0.4438   45.7316 C   0  0  0  0  0  0  0  0  0  0  0  0
   -3.3876   -0.0674   44.6170 C   0  0  0  0  0  0  0  0  0  0  0  0
   -4.6004   -0.6666   44.3956 C   0  0  0  0  0  0  0  0  0  0  0  0
   -5.1069   -1.6109   45.2462 C   0  0  0  0  0  0  0  0  0  0  0  0
   -4.7887   -5.3554   48.0229 C   0  0  0  0  0  0  0  0  0  0  0  0
   -5.7671   -6.3234   47.9333 O   0  0  0  0  0  0  0  0  0  0  0  0
   -4.1832   -5.3111   49.1491 O   0  0  0  0  0  0  0  0  0  0  0  0
  2  1  1  6
  3  2  1  0
  4  3  1  0
  4  5  2  0
  6  5  1  0
  7  6  2  0
  8  9  2  0
  8  7  1  0
  9  4  1  0
 10 11  2  0
 10  2  1  0
 12 10  1  0
 13 14  1  1
 13 12  1  0
 15 16  2  0
 15 14  1  0
 17 16  1  0
 18 17  2  0
 19 18  1  0
 19 20  2  0
 20 15  1  0
 21 13  1  0
 22 21  2  0
 23 21  1  0
 24 23  1  0
 24 25  1  1
 25 26  1  0
 26 31  1  0
 27 26  2  0
 27 28  1  0
 28 29  2  0
 29 30  1  0
 31 30  2  0
 32 33  1  0
 32 24  1  0
 34 32  2  0
M  END
$$$$
