FFF.pdb
     RDKit          3D

 34 36  0  0  1  0  0  0  0  0999 V2000
    7.0486  -17.9108   19.2313 N   0  0  0  0  0  0  0  0  0  0  0  0
    8.4352  -17.5868   19.4042 C   0  0  1  0  0  0  0  0  0  0  0  0
    9.0288  -17.2319   18.0574 C   0  0  0  0  0  0  0  0  0  0  0  0
    9.5455  -18.4928   17.4631 C   0  0  0  0  0  0  0  0  0  0  0  0
   10.1180  -18.5195   16.2093 C   0  0  0  0  0  0  0  0  0  0  0  0
   10.5970  -19.7190   15.6718 C   0  0  0  0  0  0  0  0  0  0  0  0
   10.5131  -20.8924   16.3672 C   0  0  0  0  0  0  0  0  0  0  0  0
    9.9424  -20.8743   17.6209 C   0  0  0  0  0  0  0  0  0  0  0  0
    9.4644  -19.6784   18.1577 C   0  0  0  0  0  0  0  0  0  0  0  0
    8.6138  -16.5352   20.4040 C   0  0  0  0  0  0  0  0  0  0  0  0
    8.2935  -15.3550   20.1227 O   0  0  0  0  0  0  0  0  0  0  0  0
    9.1424  -16.8353   21.6811 N   0  0  0  0  0  0  0  0  0  0  0  0
    9.0572  -15.7503   22.7231 C   0  0  1  0  0  0  0  0  0  0  0  0
    7.6139  -15.4008   22.8747 C   0  0  0  0  0  0  0  0  0  0  0  0
    7.3571  -14.4579   23.9618 C   0  0  0  0  0  0  0  0  0  0  0  0
    7.8677  -13.1519   23.8778 C   0  0  0  0  0  0  0  0  0  0  0  0
    7.6183  -12.1988   24.8351 C   0  0  0  0  0  0  0  0  0  0  0  0
    6.8438  -12.4888   25.9366 C   0  0  0  0  0  0  0  0  0  0  0  0
    6.3338  -13.7626   26.0389 C   0  0  0  0  0  0  0  0  0  0  0  0
    6.5861  -14.7258   25.0718 C   0  0  0  0  0  0  0  0  0  0  0  0
    9.5993  -16.3734   23.9171 C   0  0  0  0  0  0  0  0  0  0  0  0
    9.1462  -17.4679   24.3274 O   0  0  0  0  0  0  0  0  0  0  0  0
   10.6531  -15.7971   24.6620 N   0  0  0  0  0  0  0  0  0  0  0  0
   11.3827  -16.6395   25.6082 C   0  0  1  0  0  0  0  0  0  0  0  0
   10.3899  -16.8141   26.7772 C   0  0  0  0  0  0  0  0  0  0  0  0
   10.0713  -15.5421   27.4363 C   0  0  0  0  0  0  0  0  0  0  0  0
    8.9569  -15.4126   28.2677 C   0  0  0  0  0  0  0  0  0  0  0  0
    8.6267  -14.2575   28.9056 C   0  0  0  0  0  0  0  0  0  0  0  0
    9.4039  -13.1375   28.7500 C   0  0  0  0  0  0  0  0  0  0  0  0
   10.5058  -13.2312   27.9401 C   0  0  0  0  0  0  0  0  0  0  0  0
   10.8361  -14.3941   27.2995 C   0  0  0  0  0  0  0  0  0  0  0  0
   11.7314  -17.9468   25.0877 C   0  0  0  0  0  0  0  0  0  0  0  0
   12.6747  -18.7662   25.6717 O   0  0  0  0  0  0  0  0  0  0  0  0
   11.1802  -18.4303   24.0391 O   0  0  0  0  0  0  0  0  0  0  0  0
  2  1  1  6
  3  2  1  0
  4  3  1  0
  4  5  2  0
  6  5  1  0
  7  6  2  0
  8  9  2  0
  8  7  1  0
  9  4  1  0
 10 11  2  0
 10  2  1  0
 12 10  1  0
 13 14  1  1
 13 12  1  0
 15 16  2  0
 15 14  1  0
 17 16  1  0
 18 17  2  0
 19 18  1  0
 19 20  2  0
 20 15  1  0
 21 13  1  0
 22 21  2  0
 23 21  1  0
 24 23  1  0
 24 25  1  1
 25 26  1  0
 26 31  1  0
 27 26  2  0
 27 28  1  0
 28 29  2  0
 29 30  1  0
 31 30  2  0
 32 33  1  0
 32 24  1  0
 34 32  2  0
M  END
$$$$
