FFF.pdb
     RDKit          3D

 34 36  0  0  1  0  0  0  0  0999 V2000
    9.7747  -17.3677   19.8225 N   0  0  0  0  0  0  0  0  0  0  0  0
    8.9600  -17.6178   20.9763 C   0  0  1  0  0  0  0  0  0  0  0  0
    9.2646  -19.0045   21.5020 C   0  0  0  0  0  0  0  0  0  0  0  0
    8.6546  -19.9736   20.5540 C   0  0  0  0  0  0  0  0  0  0  0  0
    9.4031  -20.6041   19.5832 C   0  0  0  0  0  0  0  0  0  0  0  0
    8.8056  -21.5125   18.7028 C   0  0  0  0  0  0  0  0  0  0  0  0
    7.4718  -21.8008   18.7770 C   0  0  0  0  0  0  0  0  0  0  0  0
    6.7167  -21.1749   19.7443 C   0  0  0  0  0  0  0  0  0  0  0  0
    7.3119  -20.2689   20.6227 C   0  0  0  0  0  0  0  0  0  0  0  0
    9.1319  -16.5726   21.9840 C   0  0  0  0  0  0  0  0  0  0  0  0
   10.2183  -15.9477   22.0463 O   0  0  0  0  0  0  0  0  0  0  0  0
    8.0882  -16.2606   22.8861 N   0  0  0  0  0  0  0  0  0  0  0  0
    8.3513  -15.1512   23.8711 C   0  0  1  0  0  0  0  0  0  0  0  0
    7.0401  -14.4964   24.1539 C   0  0  0  0  0  0  0  0  0  0  0  0
    7.1052  -13.5103   25.2310 C   0  0  0  0  0  0  0  0  0  0  0  0
    6.3990  -13.7423   26.4229 C   0  0  0  0  0  0  0  0  0  0  0  0
    6.4599  -12.8865   27.4957 C   0  0  0  0  0  0  0  0  0  0  0  0
    7.2295  -11.7452   27.4468 C   0  0  0  0  0  0  0  0  0  0  0  0
    7.9295  -11.4984   26.2882 C   0  0  0  0  0  0  0  0  0  0  0  0
    7.8676  -12.3629   25.2041 C   0  0  0  0  0  0  0  0  0  0  0  0
    8.8832  -15.8392   25.0337 C   0  0  0  0  0  0  0  0  0  0  0  0
    8.2759  -16.8175   25.5293 O   0  0  0  0  0  0  0  0  0  0  0  0
   10.0955  -15.4580   25.6522 N   0  0  0  0  0  0  0  0  0  0  0  0
   10.4947  -16.1352   26.8848 C   0  0  1  0  0  0  0  0  0  0  0  0
   12.0137  -16.3443   26.7069 C   0  0  0  0  0  0  0  0  0  0  0  0
   12.3296  -17.2215   25.5736 C   0  0  0  0  0  0  0  0  0  0  0  0
   12.1651  -18.6057   25.6571 C   0  0  0  0  0  0  0  0  0  0  0  0
   12.4366  -19.4569   24.6313 C   0  0  0  0  0  0  0  0  0  0  0  0
   12.8984  -18.9695   23.4347 C   0  0  0  0  0  0  0  0  0  0  0  0
   13.0708  -17.6145   23.3199 C   0  0  0  0  0  0  0  0  0  0  0  0
   12.7970  -16.7602   24.3528 C   0  0  0  0  0  0  0  0  0  0  0  0
   10.2641  -15.3581   28.0866 C   0  0  0  0  0  0  0  0  0  0  0  0
    9.7188  -14.0912   28.0749 O   0  0  0  0  0  0  0  0  0  0  0  0
   10.5563  -15.8026   29.2502 O   0  0  0  0  0  0  0  0  0  0  0  0
  2  1  1  6
  3  2  1  0
  4  3  1  0
  4  5  2  0
  6  5  1  0
  7  6  2  0
  8  9  2  0
  8  7  1  0
  9  4  1  0
 10 11  2  0
 10  2  1  0
 12 10  1  0
 13 14  1  1
 13 12  1  0
 15 16  2  0
 15 14  1  0
 17 16  1  0
 18 17  2  0
 19 18  1  0
 19 20  2  0
 20 15  1  0
 21 13  1  0
 22 21  2  0
 23 21  1  0
 24 23  1  0
 24 25  1  6
 25 26  1  0
 26 31  1  0
 27 26  2  0
 27 28  1  0
 28 29  2  0
 29 30  1  0
 31 30  2  0
 32 33  1  0
 32 24  1  0
 34 32  2  0
M  END
$$$$
