FFF.pdb
     RDKit          3D

 34 36  0  0  1  0  0  0  0  0999 V2000
    5.8514  -21.1896   23.5739 N   0  0  0  0  0  0  0  0  0  0  0  0
    6.4635  -20.2416   24.4593 C   0  0  1  0  0  0  0  0  0  0  0  0
    7.3731  -20.9803   25.4179 C   0  0  0  0  0  0  0  0  0  0  0  0
    7.5849  -20.0911   26.5903 C   0  0  0  0  0  0  0  0  0  0  0  0
    6.7765  -20.1593   27.7048 C   0  0  0  0  0  0  0  0  0  0  0  0
    6.9964  -19.3115   28.7957 C   0  0  0  0  0  0  0  0  0  0  0  0
    8.0114  -18.3964   28.7907 C   0  0  0  0  0  0  0  0  0  0  0  0
    8.8238  -18.3218   27.6807 C   0  0  0  0  0  0  0  0  0  0  0  0
    8.6052  -19.1670   26.5923 C   0  0  0  0  0  0  0  0  0  0  0  0
    7.1506  -19.1873   23.7150 C   0  0  0  0  0  0  0  0  0  0  0  0
    7.9943  -19.4988   22.8399 O   0  0  0  0  0  0  0  0  0  0  0  0
    6.8738  -17.8243   23.9717 N   0  0  0  0  0  0  0  0  0  0  0  0
    7.3305  -16.8317   22.9341 C   0  0  1  0  0  0  0  0  0  0  0  0
    6.5948  -15.5588   23.1919 C   0  0  0  0  0  0  0  0  0  0  0  0
    6.9715  -14.4776   22.2831 C   0  0  0  0  0  0  0  0  0  0  0  0
    7.6372  -13.3495   22.7908 C   0  0  0  0  0  0  0  0  0  0  0  0
    8.0695  -12.3232   21.9866 C   0  0  0  0  0  0  0  0  0  0  0  0
    7.8647  -12.3578   20.6249 C   0  0  0  0  0  0  0  0  0  0  0  0
    7.2141  -13.4538   20.1065 C   0  0  0  0  0  0  0  0  0  0  0  0
    6.7770  -14.4907   20.9192 C   0  0  0  0  0  0  0  0  0  0  0  0
    8.7551  -16.7022   23.1822 C   0  0  0  0  0  0  0  0  0  0  0  0
    9.5825  -16.8804   22.2574 O   0  0  0  0  0  0  0  0  0  0  0  0
    9.2767  -16.3652   24.4518 N   0  0  0  0  0  0  0  0  0  0  0  0
   10.7266  -16.3804   24.6385 C   0  0  1  0  0  0  0  0  0  0  0  0
   11.0991  -14.8836   24.6992 C   0  0  0  0  0  0  0  0  0  0  0  0
   10.3451  -14.1600   25.7295 C   0  0  0  0  0  0  0  0  0  0  0  0
    8.9643  -13.9787   25.6279 C   0  0  0  0  0  0  0  0  0  0  0  0
    8.2228  -13.3228   26.5609 C   0  0  0  0  0  0  0  0  0  0  0  0
    8.8258  -12.7966   27.6754 C   0  0  0  0  0  0  0  0  0  0  0  0
   10.1808  -12.9574   27.8055 C   0  0  0  0  0  0  0  0  0  0  0  0
   10.9247  -13.6175   26.8659 C   0  0  0  0  0  0  0  0  0  0  0  0
   11.1573  -17.0227   25.8647 C   0  0  0  0  0  0  0  0  0  0  0  0
   12.4827  -17.2344   26.1821 O   0  0  0  0  0  0  0  0  0  0  0  0
   10.3250  -17.4407   26.7419 O   0  0  0  0  0  0  0  0  0  0  0  0
  2  1  1  6
  3  2  1  0
  4  3  1  0
  4  5  2  0
  6  5  1  0
  7  6  2  0
  8  9  2  0
  8  7  1  0
  9  4  1  0
 10 11  2  0
 10  2  1  0
 12 10  1  0
 13 14  1  1
 13 12  1  0
 15 16  2  0
 15 14  1  0
 17 16  1  0
 18 17  2  0
 19 18  1  0
 19 20  2  0
 20 15  1  0
 21 13  1  0
 22 21  2  0
 23 21  1  0
 24 23  1  0
 24 25  1  1
 25 26  1  0
 26 31  1  0
 27 26  2  0
 27 28  1  0
 28 29  2  0
 29 30  1  0
 31 30  2  0
 32 33  1  0
 32 24  1  0
 34 32  2  0
M  END
$$$$
