FFF.pdb
     RDKit          3D

 34 36  0  0  1  0  0  0  0  0999 V2000
    8.7615  -19.2883   19.5407 N   0  0  0  0  0  0  0  0  0  0  0  0
    7.9635  -18.5568   20.4817 C   0  0  1  0  0  0  0  0  0  0  0  0
    7.2674  -19.5364   21.4024 C   0  0  0  0  0  0  0  0  0  0  0  0
    5.8936  -19.0172   21.6327 C   0  0  0  0  0  0  0  0  0  0  0  0
    4.9619  -18.9628   20.6181 C   0  0  0  0  0  0  0  0  0  0  0  0
    3.6752  -18.4700   20.8601 C   0  0  0  0  0  0  0  0  0  0  0  0
    3.3045  -18.0305   22.0999 C   0  0  0  0  0  0  0  0  0  0  0  0
    4.2297  -18.0815   23.1192 C   0  0  0  0  0  0  0  0  0  0  0  0
    5.5132  -18.5729   22.8787 C   0  0  0  0  0  0  0  0  0  0  0  0
    8.7642  -17.5660   21.1992 C   0  0  0  0  0  0  0  0  0  0  0  0
   10.0051  -17.7265   21.2942 O   0  0  0  0  0  0  0  0  0  0  0  0
    8.1547  -16.4322   21.7851 N   0  0  0  0  0  0  0  0  0  0  0  0
    9.0736  -15.4120   22.4057 C   0  0  1  0  0  0  0  0  0  0  0  0
    8.3366  -14.1141   22.4268 C   0  0  0  0  0  0  0  0  0  0  0  0
    8.0125  -13.6100   21.0935 C   0  0  0  0  0  0  0  0  0  0  0  0
    8.9713  -12.8677   20.3843 C   0  0  0  0  0  0  0  0  0  0  0  0
    8.7550  -12.4117   19.1067 C   0  0  0  0  0  0  0  0  0  0  0  0
    7.5681  -12.6677   18.4562 C   0  0  0  0  0  0  0  0  0  0  0  0
    6.6147  -13.3931   19.1330 C   0  0  0  0  0  0  0  0  0  0  0  0
    6.8331  -13.8535   20.4241 C   0  0  0  0  0  0  0  0  0  0  0  0
    9.3135  -15.9288   23.7410 C   0  0  0  0  0  0  0  0  0  0  0  0
   10.4694  -15.9303   24.2264 O   0  0  0  0  0  0  0  0  0  0  0  0
    8.2768  -16.4392   24.5547 N   0  0  0  0  0  0  0  0  0  0  0  0
    8.5799  -16.7745   25.9450 C   0  0  1  0  0  0  0  0  0  0  0  0
    7.3957  -16.1702   26.7293 C   0  0  0  0  0  0  0  0  0  0  0  0
    7.3325  -14.7088   26.6105 C   0  0  0  0  0  0  0  0  0  0  0  0
    6.1940  -14.0674   26.1183 C   0  0  0  0  0  0  0  0  0  0  0  0
    6.0865  -12.7167   25.9979 C   0  0  0  0  0  0  0  0  0  0  0  0
    7.1297  -11.9063   26.3687 C   0  0  0  0  0  0  0  0  0  0  0  0
    8.2624  -12.5047   26.8562 C   0  0  0  0  0  0  0  0  0  0  0  0
    8.3684  -13.8634   26.9766 C   0  0  0  0  0  0  0  0  0  0  0  0
    8.6414  -18.1986   26.2090 C   0  0  0  0  0  0  0  0  0  0  0  0
    8.9762  -18.7259   27.4387 O   0  0  0  0  0  0  0  0  0  0  0  0
    8.3870  -19.0690   25.3064 O   0  0  0  0  0  0  0  0  0  0  0  0
  2  1  1  6
  3  2  1  0
  4  3  1  0
  4  5  2  0
  6  5  1  0
  7  6  2  0
  8  9  2  0
  8  7  1  0
  9  4  1  0
 10 11  2  0
 10  2  1  0
 12 10  1  0
 13 14  1  1
 13 12  1  0
 15 16  2  0
 15 14  1  0
 17 16  1  0
 18 17  2  0
 19 18  1  0
 19 20  2  0
 20 15  1  0
 21 13  1  0
 22 21  2  0
 23 21  1  0
 24 23  1  0
 24 25  1  1
 25 26  1  0
 26 31  1  0
 27 26  2  0
 27 28  1  0
 28 29  2  0
 29 30  1  0
 31 30  2  0
 32 33  1  0
 32 24  1  0
 34 32  2  0
M  END
$$$$
