FFF.pdb
     RDKit          3D

 34 36  0  0  1  0  0  0  0  0999 V2000
    9.8920  -16.9435   17.9178 N   0  0  0  0  0  0  0  0  0  0  0  0
    9.8656  -17.6145   19.1853 C   0  0  1  0  0  0  0  0  0  0  0  0
   11.0444  -18.5611   19.2651 C   0  0  0  0  0  0  0  0  0  0  0  0
   10.7082  -19.5908   20.2832 C   0  0  0  0  0  0  0  0  0  0  0  0
   11.4771  -19.7678   21.4136 C   0  0  0  0  0  0  0  0  0  0  0  0
   11.1398  -20.7439   22.3573 C   0  0  0  0  0  0  0  0  0  0  0  0
   10.0462  -21.5461   22.1895 C   0  0  0  0  0  0  0  0  0  0  0  0
    9.2726  -21.3756   21.0625 C   0  0  0  0  0  0  0  0  0  0  0  0
    9.6083  -20.4024   20.1209 C   0  0  0  0  0  0  0  0  0  0  0  0
    9.8224  -16.6588   20.2909 C   0  0  0  0  0  0  0  0  0  0  0  0
   10.7103  -15.7766   20.3794 O   0  0  0  0  0  0  0  0  0  0  0  0
    8.7922  -16.7196   21.2580 N   0  0  0  0  0  0  0  0  0  0  0  0
    8.8109  -15.6679   22.3368 C   0  0  1  0  0  0  0  0  0  0  0  0
    7.3949  -15.2614   22.5769 C   0  0  0  0  0  0  0  0  0  0  0  0
    7.2130  -14.4947   23.8081 C   0  0  0  0  0  0  0  0  0  0  0  0
    7.6193  -13.1507   23.8508 C   0  0  0  0  0  0  0  0  0  0  0  0
    7.4279  -12.3561   24.9549 C   0  0  0  0  0  0  0  0  0  0  0  0
    6.8188  -12.8527   26.0861 C   0  0  0  0  0  0  0  0  0  0  0  0
    6.4131  -14.1673   26.0660 C   0  0  0  0  0  0  0  0  0  0  0  0
    6.6069  -14.9702   24.9505 C   0  0  0  0  0  0  0  0  0  0  0  0
    9.3862  -16.3542   23.4795 C   0  0  0  0  0  0  0  0  0  0  0  0
    8.7370  -17.2388   24.0857 O   0  0  0  0  0  0  0  0  0  0  0  0
   10.6873  -16.0754   23.9559 N   0  0  0  0  0  0  0  0  0  0  0  0
   10.9368  -16.1529   25.3943 C   0  0  1  0  0  0  0  0  0  0  0  0
   10.4125  -14.8019   25.9257 C   0  0  0  0  0  0  0  0  0  0  0  0
   10.5509  -14.6808   27.3817 C   0  0  0  0  0  0  0  0  0  0  0  0
   10.0032  -13.6010   28.0773 C   0  0  0  0  0  0  0  0  0  0  0  0
   10.0988  -13.4508   29.4259 C   0  0  0  0  0  0  0  0  0  0  0  0
   10.7604  -14.3878   30.1788 C   0  0  0  0  0  0  0  0  0  0  0  0
   11.3098  -15.4607   29.5262 C   0  0  0  0  0  0  0  0  0  0  0  0
   11.2124  -15.6099   28.1697 C   0  0  0  0  0  0  0  0  0  0  0  0
   10.2271  -17.2278   26.0595 C   0  0  0  0  0  0  0  0  0  0  0  0
    8.9072  -17.5349   25.8028 O   0  0  0  0  0  0  0  0  0  0  0  0
   10.7862  -17.9694   26.9394 O   0  0  0  0  0  0  0  0  0  0  0  0
  2  1  1  6
  3  2  1  0
  4  3  1  0
  4  5  2  0
  6  5  1  0
  7  6  2  0
  8  9  2  0
  8  7  1  0
  9  4  1  0
 10 11  2  0
 10  2  1  0
 12 10  1  0
 13 14  1  1
 13 12  1  0
 15 16  2  0
 15 14  1  0
 17 16  1  0
 18 17  2  0
 19 18  1  0
 19 20  2  0
 20 15  1  0
 21 13  1  0
 22 21  2  0
 23 21  1  0
 24 23  1  0
 24 25  1  1
 25 26  1  0
 26 31  1  0
 27 26  2  0
 27 28  1  0
 28 29  2  0
 29 30  1  0
 31 30  2  0
 32 33  1  0
 32 24  1  0
 34 32  2  0
M  END
$$$$
