FFF.pdb
     RDKit          3D

 34 36  0  0  1  0  0  0  0  0999 V2000
    7.7980  -15.4565   19.6855 N   0  0  0  0  0  0  0  0  0  0  0  0
    9.0255  -14.7559   19.9302 C   0  0  1  0  0  0  0  0  0  0  0  0
    8.8990  -13.3430   19.4015 C   0  0  0  0  0  0  0  0  0  0  0  0
    8.4915  -13.4462   17.9756 C   0  0  0  0  0  0  0  0  0  0  0  0
    7.2708  -12.9793   17.5369 C   0  0  0  0  0  0  0  0  0  0  0  0
    6.9104  -13.0880   16.1895 C   0  0  0  0  0  0  0  0  0  0  0  0
    7.7504  -13.6558   15.2733 C   0  0  0  0  0  0  0  0  0  0  0  0
    8.9721  -14.1249   15.7035 C   0  0  0  0  0  0  0  0  0  0  0  0
    9.3323  -14.0169   17.0471 C   0  0  0  0  0  0  0  0  0  0  0  0
    9.3932  -14.8076   21.3443 C   0  0  0  0  0  0  0  0  0  0  0  0
   10.2316  -13.9898   21.7946 O   0  0  0  0  0  0  0  0  0  0  0  0
    8.8143  -15.7680   22.2062 N   0  0  0  0  0  0  0  0  0  0  0  0
    9.3034  -15.7836   23.6313 C   0  0  1  0  0  0  0  0  0  0  0  0
    8.0961  -15.8155   24.5085 C   0  0  0  0  0  0  0  0  0  0  0  0
    7.5448  -14.4899   24.7837 C   0  0  0  0  0  0  0  0  0  0  0  0
    6.4743  -14.3609   25.6841 C   0  0  0  0  0  0  0  0  0  0  0  0
    5.9444  -13.1420   26.0314 C   0  0  0  0  0  0  0  0  0  0  0  0
    6.4494  -11.9750   25.5021 C   0  0  0  0  0  0  0  0  0  0  0  0
    7.4982  -12.0785   24.6175 C   0  0  0  0  0  0  0  0  0  0  0  0
    8.0334  -13.3101   24.2663 C   0  0  0  0  0  0  0  0  0  0  0  0
   10.0775  -17.0088   23.7183 C   0  0  0  0  0  0  0  0  0  0  0  0
   10.9237  -17.2927   22.8380 O   0  0  0  0  0  0  0  0  0  0  0  0
    9.9300  -17.9254   24.7839 N   0  0  0  0  0  0  0  0  0  0  0  0
   10.3805  -17.5269   26.1164 C   0  0  1  0  0  0  0  0  0  0  0  0
    9.4727  -16.3270   26.4613 C   0  0  0  0  0  0  0  0  0  0  0  0
    9.8810  -15.6533   27.6995 C   0  0  0  0  0  0  0  0  0  0  0  0
   10.5747  -14.4417   27.6738 C   0  0  0  0  0  0  0  0  0  0  0  0
   10.9662  -13.7771   28.7943 C   0  0  0  0  0  0  0  0  0  0  0  0
   10.6837  -14.2911   30.0347 C   0  0  0  0  0  0  0  0  0  0  0  0
   10.0035  -15.4796   30.0948 C   0  0  0  0  0  0  0  0  0  0  0  0
    9.6107  -16.1463   28.9666 C   0  0  0  0  0  0  0  0  0  0  0  0
   10.2108  -18.5514   27.1279 C   0  0  0  0  0  0  0  0  0  0  0  0
    8.9856  -19.0909   27.4596 O   0  0  0  0  0  0  0  0  0  0  0  0
   11.1992  -19.0263   27.7871 O   0  0  0  0  0  0  0  0  0  0  0  0
  2  1  1  1
  3  2  1  0
  4  3  1  0
  4  5  2  0
  6  5  1  0
  7  6  2  0
  8  9  2  0
  8  7  1  0
  9  4  1  0
 10 11  2  0
 10  2  1  0
 12 10  1  0
 13 14  1  1
 13 12  1  0
 15 16  2  0
 15 14  1  0
 17 16  1  0
 18 17  2  0
 19 18  1  0
 19 20  2  0
 20 15  1  0
 21 13  1  0
 22 21  2  0
 23 21  1  0
 24 23  1  0
 24 25  1  1
 25 26  1  0
 26 31  1  0
 27 26  2  0
 27 28  1  0
 28 29  2  0
 29 30  1  0
 31 30  2  0
 32 33  1  0
 32 24  1  0
 34 32  2  0
M  END
$$$$
