FFF.pdb
     RDKit          3D

 34 36  0  0  1  0  0  0  0  0999 V2000
    8.8226  -16.9757   19.7245 N   0  0  0  0  0  0  0  0  0  0  0  0
   10.0833  -16.5681   20.2740 C   0  0  1  0  0  0  0  0  0  0  0  0
   10.5358  -15.3012   19.5795 C   0  0  0  0  0  0  0  0  0  0  0  0
    9.3932  -14.3510   19.6186 C   0  0  0  0  0  0  0  0  0  0  0  0
    8.2005  -14.6792   20.2271 C   0  0  0  0  0  0  0  0  0  0  0  0
    7.1398  -13.7674   20.2507 C   0  0  0  0  0  0  0  0  0  0  0  0
    7.2518  -12.5326   19.6759 C   0  0  0  0  0  0  0  0  0  0  0  0
    8.4403  -12.1968   19.0658 C   0  0  0  0  0  0  0  0  0  0  0  0
    9.4987  -13.1057   19.0418 C   0  0  0  0  0  0  0  0  0  0  0  0
   10.0086  -16.4292   21.7276 C   0  0  0  0  0  0  0  0  0  0  0  0
   11.0000  -15.9876   22.3574 O   0  0  0  0  0  0  0  0  0  0  0  0
    8.8329  -16.7871   22.4276 N   0  0  0  0  0  0  0  0  0  0  0  0
    8.7976  -16.4725   23.9007 C   0  0  1  0  0  0  0  0  0  0  0  0
    7.3784  -16.1690   24.2499 C   0  0  0  0  0  0  0  0  0  0  0  0
    7.1679  -14.7841   24.6675 C   0  0  0  0  0  0  0  0  0  0  0  0
    6.3210  -14.5121   25.7548 C   0  0  0  0  0  0  0  0  0  0  0  0
    6.1218  -13.2408   26.2355 C   0  0  0  0  0  0  0  0  0  0  0  0
    6.7552  -12.1607   25.6616 C   0  0  0  0  0  0  0  0  0  0  0  0
    7.5892  -12.4046   24.5947 C   0  0  0  0  0  0  0  0  0  0  0  0
    7.7902  -13.6891   24.1087 C   0  0  0  0  0  0  0  0  0  0  0  0
    9.2677  -17.6949   24.5273 C   0  0  0  0  0  0  0  0  0  0  0  0
    8.5011  -18.6774   24.6640 O   0  0  0  0  0  0  0  0  0  0  0  0
   10.5914  -17.8450   24.9992 N   0  0  0  0  0  0  0  0  0  0  0  0
   10.9217  -17.3350   26.3289 C   0  0  1  0  0  0  0  0  0  0  0  0
   10.2750  -15.9336   26.3497 C   0  0  0  0  0  0  0  0  0  0  0  0
   10.4211  -15.2684   27.6497 C   0  0  0  0  0  0  0  0  0  0  0  0
   10.9390  -15.9424   28.7576 C   0  0  0  0  0  0  0  0  0  0  0  0
   11.1004  -15.3655   29.9789 C   0  0  0  0  0  0  0  0  0  0  0  0
   10.7478  -14.0539   30.1739 C   0  0  0  0  0  0  0  0  0  0  0  0
   10.2361  -13.3637   29.1059 C   0  0  0  0  0  0  0  0  0  0  0  0
   10.0747  -13.9458   27.8784 C   0  0  0  0  0  0  0  0  0  0  0  0
   10.3740  -18.1223   27.4160 C   0  0  0  0  0  0  0  0  0  0  0  0
   11.1419  -18.6311   28.4426 O   0  0  0  0  0  0  0  0  0  0  0  0
    9.1276  -18.4001   27.4936 O   0  0  0  0  0  0  0  0  0  0  0  0
  2  1  1  6
  3  2  1  0
  4  3  1  0
  4  5  2  0
  6  5  1  0
  7  6  2  0
  8  9  2  0
  8  7  1  0
  9  4  1  0
 10 11  2  0
 10  2  1  0
 12 10  1  0
 13 14  1  1
 13 12  1  0
 15 16  2  0
 15 14  1  0
 17 16  1  0
 18 17  2  0
 19 18  1  0
 19 20  2  0
 20 15  1  0
 21 13  1  0
 22 21  2  0
 23 21  1  0
 24 23  1  0
 24 25  1  6
 25 26  1  0
 26 31  1  0
 27 26  2  0
 27 28  1  0
 28 29  2  0
 29 30  1  0
 31 30  2  0
 32 33  1  0
 32 24  1  0
 34 32  2  0
M  END
$$$$
