FFF.pdb
     RDKit          3D

 34 36  0  0  1  0  0  0  0  0999 V2000
   10.8750  -17.6305   20.0147 N   0  0  0  0  0  0  0  0  0  0  0  0
   10.3694  -16.2993   20.1877 C   0  0  1  0  0  0  0  0  0  0  0  0
    9.1548  -16.1158   19.3028 C   0  0  0  0  0  0  0  0  0  0  0  0
    8.7804  -14.6787   19.3691 C   0  0  0  0  0  0  0  0  0  0  0  0
    9.6821  -13.6819   19.0629 C   0  0  0  0  0  0  0  0  0  0  0  0
    9.3055  -12.3364   19.1329 C   0  0  0  0  0  0  0  0  0  0  0  0
    8.0420  -11.9709   19.5040 C   0  0  0  0  0  0  0  0  0  0  0  0
    7.1349  -12.9610   19.8116 C   0  0  0  0  0  0  0  0  0  0  0  0
    7.5098  -14.3031   19.7421 C   0  0  0  0  0  0  0  0  0  0  0  0
   10.1008  -16.0126   21.5960 C   0  0  0  0  0  0  0  0  0  0  0  0
   10.9366  -15.3557   22.2627 O   0  0  0  0  0  0  0  0  0  0  0  0
    8.9114  -16.4676   22.2114 N   0  0  0  0  0  0  0  0  0  0  0  0
    8.5826  -15.8896   23.5635 C   0  0  1  0  0  0  0  0  0  0  0  0
    7.1190  -15.5968   23.5705 C   0  0  0  0  0  0  0  0  0  0  0  0
    6.6711  -14.9110   24.7813 C   0  0  0  0  0  0  0  0  0  0  0  0
    6.0421  -15.6471   25.7990 C   0  0  0  0  0  0  0  0  0  0  0  0
    5.6466  -15.0782   26.9852 C   0  0  0  0  0  0  0  0  0  0  0  0
    5.8539  -13.7388   27.2306 C   0  0  0  0  0  0  0  0  0  0  0  0
    6.4684  -12.9988   26.2467 C   0  0  0  0  0  0  0  0  0  0  0  0
    6.8677  -13.5736   25.0480 C   0  0  0  0  0  0  0  0  0  0  0  0
    8.9345  -16.9514   24.4889 C   0  0  0  0  0  0  0  0  0  0  0  0
    8.6520  -18.1447   24.2281 O   0  0  0  0  0  0  0  0  0  0  0  0
    9.6098  -16.7046   25.7057 N   0  0  0  0  0  0  0  0  0  0  0  0
   10.0464  -17.8466   26.5071 C   0  0  1  0  0  0  0  0  0  0  0  0
   11.2496  -17.2932   27.3002 C   0  0  0  0  0  0  0  0  0  0  0  0
   11.2502  -15.8271   27.3664 C   0  0  0  0  0  0  0  0  0  0  0  0
   11.0323  -15.1531   28.5697 C   0  0  0  0  0  0  0  0  0  0  0  0
   11.0320  -13.7973   28.6811 C   0  0  0  0  0  0  0  0  0  0  0  0
   11.2536  -13.0147   27.5761 C   0  0  0  0  0  0  0  0  0  0  0  0
   11.4710  -13.6456   26.3788 C   0  0  0  0  0  0  0  0  0  0  0  0
   11.4710  -15.0093   26.2690 C   0  0  0  0  0  0  0  0  0  0  0  0
    9.0483  -18.3283   27.4415 C   0  0  0  0  0  0  0  0  0  0  0  0
    7.8074  -17.7446   27.5900 O   0  0  0  0  0  0  0  0  0  0  0  0
    9.2571  -19.3380   28.1990 O   0  0  0  0  0  0  0  0  0  0  0  0
  2  1  1  1
  3  2  1  0
  4  3  1  0
  4  5  2  0
  6  5  1  0
  7  6  2  0
  8  9  2  0
  8  7  1  0
  9  4  1  0
 10 11  2  0
 10  2  1  0
 12 10  1  0
 13 14  1  6
 13 12  1  0
 15 16  2  0
 15 14  1  0
 17 16  1  0
 18 17  2  0
 19 18  1  0
 19 20  2  0
 20 15  1  0
 21 13  1  0
 22 21  2  0
 23 21  1  0
 24 23  1  0
 24 25  1  1
 25 26  1  0
 26 31  1  0
 27 26  2  0
 27 28  1  0
 28 29  2  0
 29 30  1  0
 31 30  2  0
 32 33  1  0
 32 24  1  0
 34 32  2  0
M  END
$$$$
