FFF.pdb
     RDKit          3D

 34 36  0  0  1  0  0  0  0  0999 V2000
   11.0075  -17.2546   18.7037 N   0  0  0  0  0  0  0  0  0  0  0  0
   10.2534  -17.9049   19.7362 C   0  0  1  0  0  0  0  0  0  0  0  0
   10.8924  -19.2425   20.0435 C   0  0  0  0  0  0  0  0  0  0  0  0
   10.6700  -20.1139   18.8599 C   0  0  0  0  0  0  0  0  0  0  0  0
   11.6918  -20.4233   17.9878 C   0  0  0  0  0  0  0  0  0  0  0  0
   11.4571  -21.2459   16.8808 C   0  0  0  0  0  0  0  0  0  0  0  0
   10.2176  -21.7644   16.6313 C   0  0  0  0  0  0  0  0  0  0  0  0
    9.1910  -21.4600   17.4980 C   0  0  0  0  0  0  0  0  0  0  0  0
    9.4242  -20.6397   18.6023 C   0  0  0  0  0  0  0  0  0  0  0  0
   10.1196  -17.0496   20.9144 C   0  0  0  0  0  0  0  0  0  0  0  0
   11.1095  -16.3904   21.3144 O   0  0  0  0  0  0  0  0  0  0  0  0
    8.8886  -16.9590   21.6048 N   0  0  0  0  0  0  0  0  0  0  0  0
    8.7985  -15.9276   22.6996 C   0  0  1  0  0  0  0  0  0  0  0  0
    7.3715  -15.4974   22.7798 C   0  0  0  0  0  0  0  0  0  0  0  0
    7.1009  -14.5927   23.8956 C   0  0  0  0  0  0  0  0  0  0  0  0
    6.5001  -15.0953   25.0617 C   0  0  0  0  0  0  0  0  0  0  0  0
    6.2684  -14.3147   26.1682 C   0  0  0  0  0  0  0  0  0  0  0  0
    6.6215  -12.9834   26.1807 C   0  0  0  0  0  0  0  0  0  0  0  0
    7.2112  -12.4704   25.0483 C   0  0  0  0  0  0  0  0  0  0  0  0
    7.4451  -13.2590   23.9302 C   0  0  0  0  0  0  0  0  0  0  0  0
    9.2230  -16.6458   23.8878 C   0  0  0  0  0  0  0  0  0  0  0  0
    8.7803  -17.7929   24.1321 O   0  0  0  0  0  0  0  0  0  0  0  0
   10.1475  -16.1063   24.8107 N   0  0  0  0  0  0  0  0  0  0  0  0
   10.7452  -16.9975   25.8035 C   0  0  1  0  0  0  0  0  0  0  0  0
   11.8392  -16.1274   26.4584 C   0  0  0  0  0  0  0  0  0  0  0  0
   11.2836  -15.1243   27.3742 C   0  0  0  0  0  0  0  0  0  0  0  0
   10.8573  -13.8765   26.9146 C   0  0  0  0  0  0  0  0  0  0  0  0
   10.3288  -12.9191   27.7237 C   0  0  0  0  0  0  0  0  0  0  0  0
   10.1903  -13.1526   29.0687 C   0  0  0  0  0  0  0  0  0  0  0  0
   10.5994  -14.3683   29.5522 C   0  0  0  0  0  0  0  0  0  0  0  0
   11.1306  -15.3298   28.7366 C   0  0  0  0  0  0  0  0  0  0  0  0
    9.8221  -17.4434   26.8285 C   0  0  0  0  0  0  0  0  0  0  0  0
    8.4983  -17.0588   26.8729 O   0  0  0  0  0  0  0  0  0  0  0  0
   10.1809  -18.2314   27.7704 O   0  0  0  0  0  0  0  0  0  0  0  0
  2  1  1  6
  3  2  1  0
  4  3  1  0
  4  5  2  0
  6  5  1  0
  7  6  2  0
  8  9  2  0
  8  7  1  0
  9  4  1  0
 10 11  2  0
 10  2  1  0
 12 10  1  0
 13 14  1  1
 13 12  1  0
 15 16  2  0
 15 14  1  0
 17 16  1  0
 18 17  2  0
 19 18  1  0
 19 20  2  0
 20 15  1  0
 21 13  1  0
 22 21  2  0
 23 21  1  0
 24 23  1  0
 24 25  1  1
 25 26  1  0
 26 31  1  0
 27 26  2  0
 27 28  1  0
 28 29  2  0
 29 30  1  0
 31 30  2  0
 32 33  1  0
 32 24  1  0
 34 32  2  0
M  END
$$$$
