FFF.pdb
     RDKit          3D

 34 36  0  0  1  0  0  0  0  0999 V2000
    9.6007  -18.3541   19.7014 N   0  0  0  0  0  0  0  0  0  0  0  0
    9.0270  -18.1159   20.9943 C   0  0  1  0  0  0  0  0  0  0  0  0
    9.4139  -19.2494   21.9203 C   0  0  0  0  0  0  0  0  0  0  0  0
    8.4841  -20.3756   21.6426 C   0  0  0  0  0  0  0  0  0  0  0  0
    7.4999  -20.2804   20.6821 C   0  0  0  0  0  0  0  0  0  0  0  0
    6.6370  -21.3545   20.4393 C   0  0  0  0  0  0  0  0  0  0  0  0
    6.7419  -22.5224   21.1412 C   0  0  0  0  0  0  0  0  0  0  0  0
    7.7228  -22.6256   22.1029 C   0  0  0  0  0  0  0  0  0  0  0  0
    8.5838  -21.5549   22.3456 C   0  0  0  0  0  0  0  0  0  0  0  0
    9.4061  -16.8009   21.5089 C   0  0  0  0  0  0  0  0  0  0  0  0
   10.4365  -16.2382   21.0659 O   0  0  0  0  0  0  0  0  0  0  0  0
    8.6245  -16.1599   22.4981 N   0  0  0  0  0  0  0  0  0  0  0  0
    9.0705  -14.7876   22.9317 C   0  0  1  0  0  0  0  0  0  0  0  0
    7.9344  -13.8551   22.6714 C   0  0  0  0  0  0  0  0  0  0  0  0
    7.7171  -13.5891   21.2505 C   0  0  0  0  0  0  0  0  0  0  0  0
    6.8379  -14.4072   20.5217 C   0  0  0  0  0  0  0  0  0  0  0  0
    6.5443  -14.1811   19.1989 C   0  0  0  0  0  0  0  0  0  0  0  0
    7.1096  -13.1243   18.5200 C   0  0  0  0  0  0  0  0  0  0  0  0
    7.9742  -12.3103   19.2150 C   0  0  0  0  0  0  0  0  0  0  0  0
    8.2711  -12.5390   20.5514 C   0  0  0  0  0  0  0  0  0  0  0  0
    9.3392  -14.9428   24.3500 C   0  0  0  0  0  0  0  0  0  0  0  0
    9.5483  -13.9403   25.0732 O   0  0  0  0  0  0  0  0  0  0  0  0
    9.3694  -16.2062   24.9827 N   0  0  0  0  0  0  0  0  0  0  0  0
    9.7068  -16.2686   26.4038 C   0  0  1  0  0  0  0  0  0  0  0  0
    8.3413  -16.1147   27.1069 C   0  0  0  0  0  0  0  0  0  0  0  0
    7.7793  -14.7681   26.9507 C   0  0  0  0  0  0  0  0  0  0  0  0
    6.6014  -14.5500   26.2331 C   0  0  0  0  0  0  0  0  0  0  0  0
    6.0391  -13.3223   26.0686 C   0  0  0  0  0  0  0  0  0  0  0  0
    6.6296  -12.2140   26.6214 C   0  0  0  0  0  0  0  0  0  0  0  0
    7.7876  -12.3938   27.3324 C   0  0  0  0  0  0  0  0  0  0  0  0
    8.3514  -13.6295   27.4966 C   0  0  0  0  0  0  0  0  0  0  0  0
   10.3084  -17.5223   26.8133 C   0  0  0  0  0  0  0  0  0  0  0  0
   10.5855  -18.5501   25.9363 O   0  0  0  0  0  0  0  0  0  0  0  0
   10.6241  -17.7594   28.0303 O   0  0  0  0  0  0  0  0  0  0  0  0
  2  1  1  6
  3  2  1  0
  4  3  1  0
  4  5  2  0
  6  5  1  0
  7  6  2  0
  8  9  2  0
  8  7  1  0
  9  4  1  0
 10 11  2  0
 10  2  1  0
 12 10  1  0
 13 14  1  1
 13 12  1  0
 15 16  2  0
 15 14  1  0
 17 16  1  0
 18 17  2  0
 19 18  1  0
 19 20  2  0
 20 15  1  0
 21 13  1  0
 22 21  2  0
 23 21  1  0
 24 23  1  0
 24 25  1  1
 25 26  1  0
 26 31  1  0
 27 26  2  0
 27 28  1  0
 28 29  2  0
 29 30  1  0
 31 30  2  0
 32 33  1  0
 32 24  1  0
 34 32  2  0
M  END
$$$$
