FFF.pdb
     RDKit          3D

 34 36  0  0  1  0  0  0  0  0999 V2000
    5.4030  -19.6724   23.2724 N   0  0  0  0  0  0  0  0  0  0  0  0
    6.3872  -19.2462   24.2248 C   0  0  1  0  0  0  0  0  0  0  0  0
    7.0326  -20.4674   24.8447 C   0  0  0  0  0  0  0  0  0  0  0  0
    7.9043  -19.9865   25.9487 C   0  0  0  0  0  0  0  0  0  0  0  0
    9.2789  -20.0446   25.8621 C   0  0  0  0  0  0  0  0  0  0  0  0
   10.0776  -19.5854   26.9149 C   0  0  0  0  0  0  0  0  0  0  0  0
    9.5247  -19.0692   28.0530 C   0  0  0  0  0  0  0  0  0  0  0  0
    8.1518  -19.0076   28.1475 C   0  0  0  0  0  0  0  0  0  0  0  0
    7.3544  -19.4653   27.0980 C   0  0  0  0  0  0  0  0  0  0  0  0
    7.3541  -18.3338   23.6165 C   0  0  0  0  0  0  0  0  0  0  0  0
    8.0940  -18.7459   22.6905 O   0  0  0  0  0  0  0  0  0  0  0  0
    7.4625  -16.9954   24.0608 N   0  0  0  0  0  0  0  0  0  0  0  0
    8.1889  -16.0359   23.1542 C   0  0  1  0  0  0  0  0  0  0  0  0
    7.3494  -14.8056   23.0557 C   0  0  0  0  0  0  0  0  0  0  0  0
    6.8958  -14.3082   24.3532 C   0  0  0  0  0  0  0  0  0  0  0  0
    7.3904  -14.8963   25.5292 C   0  0  0  0  0  0  0  0  0  0  0  0
    7.0506  -14.4432   26.7807 C   0  0  0  0  0  0  0  0  0  0  0  0
    6.1956  -13.3747   26.9377 C   0  0  0  0  0  0  0  0  0  0  0  0
    5.6990  -12.7839   25.7986 C   0  0  0  0  0  0  0  0  0  0  0  0
    6.0421  -13.2419   24.5340 C   0  0  0  0  0  0  0  0  0  0  0  0
    9.4432  -15.7907   23.8430 C   0  0  0  0  0  0  0  0  0  0  0  0
   10.2115  -14.8759   23.4630 O   0  0  0  0  0  0  0  0  0  0  0  0
    9.8543  -16.5481   24.9632 N   0  0  0  0  0  0  0  0  0  0  0  0
   11.2670  -16.5302   25.3389 C   0  0  1  0  0  0  0  0  0  0  0  0
   11.2314  -16.3475   26.8713 C   0  0  0  0  0  0  0  0  0  0  0  0
   10.9876  -14.9546   27.2639 C   0  0  0  0  0  0  0  0  0  0  0  0
   10.6284  -13.9861   26.3242 C   0  0  0  0  0  0  0  0  0  0  0  0
   10.3847  -12.6861   26.6420 C   0  0  0  0  0  0  0  0  0  0  0  0
   10.4865  -12.2637   27.9435 C   0  0  0  0  0  0  0  0  0  0  0  0
   10.8374  -13.1901   28.8909 C   0  0  0  0  0  0  0  0  0  0  0  0
   11.0820  -14.4972   28.5691 C   0  0  0  0  0  0  0  0  0  0  0  0
   11.9764  -17.7555   25.0274 C   0  0  0  0  0  0  0  0  0  0  0  0
   13.3482  -17.8758   25.1057 O   0  0  0  0  0  0  0  0  0  0  0  0
   11.3679  -18.8172   24.6541 O   0  0  0  0  0  0  0  0  0  0  0  0
  2  1  1  6
  3  2  1  0
  4  3  1  0
  4  5  2  0
  6  5  1  0
  7  6  2  0
  8  9  2  0
  8  7  1  0
  9  4  1  0
 10 11  2  0
 10  2  1  0
 12 10  1  0
 13 14  1  1
 13 12  1  0
 15 16  2  0
 15 14  1  0
 17 16  1  0
 18 17  2  0
 19 18  1  0
 19 20  2  0
 20 15  1  0
 21 13  1  0
 22 21  2  0
 23 21  1  0
 24 23  1  0
 24 25  1  1
 25 26  1  0
 26 31  1  0
 27 26  2  0
 27 28  1  0
 28 29  2  0
 29 30  1  0
 31 30  2  0
 32 33  1  0
 32 24  1  0
 34 32  2  0
M  END
$$$$
