SQM.pdb
     RDKit          3D

 24 23  0  0  1  0  0  0  0  0999 V2000
    4.8264  -19.5943   18.9007 O   0  0  0  0  0  0  0  0  0  0  0  0
    4.7601  -18.8945   20.1028 C   0  0  0  0  0  0  0  0  0  0  0  0
    4.2988  -19.8059   21.1984 C   0  0  2  0  0  0  0  0  0  0  0  0
    2.8987  -20.0528   21.0593 N   0  0  0  0  0  0  0  0  0  0  0  0
    4.5963  -19.2485   22.5455 C   0  0  0  0  0  0  0  0  0  0  0  0
    3.7417  -18.6748   23.2508 O   0  0  0  0  0  0  0  0  0  0  0  0
    7.9235  -21.6429   27.0027 N   0  0  0  0  0  0  0  0  0  0  0  0
    7.9078  -20.2862   27.4225 C   0  0  0  0  0  0  0  0  0  0  0  0
    8.2755  -19.9716   28.5752 O   0  0  0  0  0  0  0  0  0  0  0  0
    7.4541  -19.2701   26.4774 C   0  0  0  0  0  0  0  0  0  0  0  0
    7.0015  -19.7624   25.1496 C   0  0  0  0  0  0  0  0  0  0  0  0
    6.3157  -18.7351   24.2868 C   0  0  2  0  0  0  0  0  0  0  0  0
    5.9064  -19.3699   23.0590 N   0  0  0  0  0  0  0  0  0  0  0  0
    7.2326  -17.5693   24.0642 C   0  0  0  0  0  0  0  0  0  0  0  0
    7.6748  -17.3179   22.9430 O   0  0  0  0  0  0  0  0  0  0  0  0
    6.7412  -10.2798   26.2411 C   0  0  0  0  0  0  0  0  0  0  0  0
    6.0824  -11.9905   26.2646 S   0  0  0  0  0  0  0  0  0  0  0  0
    7.2181  -13.0051   25.3005 C   0  0  0  0  0  0  0  0  0  0  0  0
    6.8898  -14.4473   25.3081 C   0  0  0  0  0  0  0  0  0  0  0  0
    7.9886  -15.3578   25.0586 C   0  0  2  0  0  0  0  0  0  0  0  0
    7.5851  -16.7647   25.1409 N   0  0  0  0  0  0  0  0  0  0  0  0
    9.1891  -15.2053   25.8536 C   0  0  0  0  0  0  0  0  0  0  0  0
    9.3039  -15.9751   27.0434 O   0  0  0  0  0  0  0  0  0  0  0  0
   10.1732  -14.4534   25.6161 O   0  0  0  0  0  0  0  0  0  0  0  0
  2  1  1  0
  3  2  1  0
  3  4  1  1
  5  6  2  0
  5  3  1  0
  7  8  1  0
  8 10  1  0
  9  8  2  0
 10 11  1  0
 12 11  1  1
 12 13  1  0
 13  5  1  0
 14 12  1  0
 15 14  2  0
 16 17  1  0
 17 18  1  0
 19 18  1  0
 20 19  1  1
 20 21  1  0
 20 22  1  0
 21 14  1  0
 22 23  1  0
 24 22  2  0
M  END
$$$$
