SQM.pdb
     RDKit          3D

 24 23  0  0  1  0  0  0  0  0999 V2000
    6.5714  -18.6383   23.2841 O   0  0  0  0  0  0  0  0  0  0  0  0
    5.4771  -18.1280   22.5905 C   0  0  0  0  0  0  0  0  0  0  0  0
    5.7957  -18.0396   21.1295 C   0  0  2  0  0  0  0  0  0  0  0  0
    5.9508  -19.3539   20.5919 N   0  0  0  0  0  0  0  0  0  0  0  0
    7.0166  -17.2278   20.8763 C   0  0  0  0  0  0  0  0  0  0  0  0
    8.1181  -17.7283   20.5709 O   0  0  0  0  0  0  0  0  0  0  0  0
    8.6394  -14.5452   16.8893 N   0  0  0  0  0  0  0  0  0  0  0  0
    8.3920  -13.5338   17.8552 C   0  0  0  0  0  0  0  0  0  0  0  0
    9.0989  -12.5036   17.8944 O   0  0  0  0  0  0  0  0  0  0  0  0
    7.2942  -13.7254   18.7983 C   0  0  0  0  0  0  0  0  0  0  0  0
    7.6480  -13.6627   20.2410 C   0  0  0  0  0  0  0  0  0  0  0  0
    8.0889  -14.9691   20.8483 C   0  0  2  0  0  0  0  0  0  0  0  0
    6.9348  -15.8219   20.9846 N   0  0  0  0  0  0  0  0  0  0  0  0
    8.7816  -14.7110   22.1534 C   0  0  0  0  0  0  0  0  0  0  0  0
    9.8754  -14.1469   22.1878 O   0  0  0  0  0  0  0  0  0  0  0  0
    6.9170  -11.1668   28.5652 C   0  0  0  0  0  0  0  0  0  0  0  0
    6.4098  -11.8555   26.9436 S   0  0  0  0  0  0  0  0  0  0  0  0
    7.6619  -13.0623   26.4696 C   0  0  0  0  0  0  0  0  0  0  0  0
    7.4844  -13.6084   25.1064 C   0  0  0  0  0  0  0  0  0  0  0  0
    8.4670  -14.5794   24.6702 C   0  0  2  0  0  0  0  0  0  0  0  0
    8.1768  -15.1157   23.3372 N   0  0  0  0  0  0  0  0  0  0  0  0
    8.7395  -15.7052   25.5391 C   0  0  0  0  0  0  0  0  0  0  0  0
    9.1638  -15.4346   26.8688 O   0  0  0  0  0  0  0  0  0  0  0  0
    8.6452  -16.9304   25.2556 O   0  0  0  0  0  0  0  0  0  0  0  0
  2  1  1  0
  3  2  1  0
  3  4  1  1
  5  6  2  0
  5  3  1  0
  7  8  1  0
  8 10  1  0
  9  8  2  0
 10 11  1  0
 12 11  1  1
 12 13  1  0
 13  5  1  0
 14 12  1  0
 15 14  2  0
 16 17  1  0
 17 18  1  0
 19 18  1  0
 20 19  1  1
 20 21  1  0
 20 22  1  0
 21 14  1  0
 22 23  1  0
 24 22  2  0
M  END
$$$$
