SQM.pdb
     RDKit          3D

 24 23  0  0  1  0  0  0  0  0999 V2000
    6.7992  -19.0445   18.4613 O   0  0  0  0  0  0  0  0  0  0  0  0
    6.5745  -18.4082   19.6794 C   0  0  0  0  0  0  0  0  0  0  0  0
    5.8189  -19.3185   20.5983 C   0  0  2  0  0  0  0  0  0  0  0  0
    4.5175  -19.5666   20.0643 N   0  0  0  0  0  0  0  0  0  0  0  0
    5.7179  -18.7591   21.9733 C   0  0  0  0  0  0  0  0  0  0  0  0
    4.8980  -17.8741   22.2917 O   0  0  0  0  0  0  0  0  0  0  0  0
    8.0965  -21.6609   27.0707 N   0  0  0  0  0  0  0  0  0  0  0  0
    7.7037  -20.4015   27.5967 C   0  0  0  0  0  0  0  0  0  0  0  0
    7.8038  -20.1625   28.8196 O   0  0  0  0  0  0  0  0  0  0  0  0
    7.1827  -19.3947   26.6768 C   0  0  0  0  0  0  0  0  0  0  0  0
    7.1113  -19.7867   25.2445 C   0  0  0  0  0  0  0  0  0  0  0  0
    6.5946  -18.7197   24.3146 C   0  0  2  0  0  0  0  0  0  0  0  0
    6.5880  -19.2472   22.9732 N   0  0  0  0  0  0  0  0  0  0  0  0
    7.4311  -17.4823   24.4515 C   0  0  0  0  0  0  0  0  0  0  0  0
    8.5015  -17.3735   23.8532 O   0  0  0  0  0  0  0  0  0  0  0  0
    6.7115  -10.1120   27.1962 C   0  0  0  0  0  0  0  0  0  0  0  0
    5.8465  -11.5436   26.4455 S   0  0  0  0  0  0  0  0  0  0  0  0
    7.1121  -12.7442   25.9919 C   0  0  0  0  0  0  0  0  0  0  0  0
    6.5848  -14.0991   25.7196 C   0  0  0  0  0  0  0  0  0  0  0  0
    7.5539  -15.0958   25.3120 C   0  0  2  0  0  0  0  0  0  0  0  0
    6.9877  -16.4472   25.2657 N   0  0  0  0  0  0  0  0  0  0  0  0
    8.7976  -15.1733   26.0494 C   0  0  0  0  0  0  0  0  0  0  0  0
    8.9817  -16.2712   26.9338 O   0  0  0  0  0  0  0  0  0  0  0  0
    9.7650  -14.3656   26.0044 O   0  0  0  0  0  0  0  0  0  0  0  0
  2  1  1  0
  3  2  1  0
  3  4  1  6
  5  6  2  0
  5  3  1  0
  7  8  1  0
  8 10  1  0
  9  8  2  0
 10 11  1  0
 12 11  1  1
 12 13  1  0
 13  5  1  0
 14 12  1  0
 15 14  2  0
 16 17  1  0
 17 18  1  0
 19 18  1  0
 20 19  1  1
 20 21  1  0
 20 22  1  0
 21 14  1  0
 22 23  1  0
 24 22  2  0
M  END
$$$$
