SQM.pdb
     RDKit          3D

 24 23  0  0  1  0  0  0  0  0999 V2000
    9.1777  -14.1180   20.7070 O   0  0  0  0  0  0  0  0  0  0  0  0
    8.5970  -15.0924   19.8992 C   0  0  0  0  0  0  0  0  0  0  0  0
    9.3125  -16.3961   20.0786 C   0  0  2  0  0  0  0  0  0  0  0  0
    8.7951  -17.3579   19.1579 N   0  0  0  0  0  0  0  0  0  0  0  0
    9.2027  -16.9015   21.4737 C   0  0  0  0  0  0  0  0  0  0  0  0
    8.2102  -17.5285   21.8965 O   0  0  0  0  0  0  0  0  0  0  0  0
   12.8436  -20.7610   24.4535 N   0  0  0  0  0  0  0  0  0  0  0  0
   12.7127  -19.6737   25.3578 C   0  0  0  0  0  0  0  0  0  0  0  0
   13.5463  -19.5027   26.2735 O   0  0  0  0  0  0  0  0  0  0  0  0
   11.5846  -18.7619   25.1917 C   0  0  0  0  0  0  0  0  0  0  0  0
   11.4363  -18.1365   23.8512 C   0  0  0  0  0  0  0  0  0  0  0  0
   10.2757  -17.1856   23.7142 C   0  0  2  0  0  0  0  0  0  0  0  0
   10.2682  -16.6649   22.3701 N   0  0  0  0  0  0  0  0  0  0  0  0
   10.3773  -16.1115   24.7561 C   0  0  0  0  0  0  0  0  0  0  0  0
   11.3013  -15.2981   24.7376 O   0  0  0  0  0  0  0  0  0  0  0  0
    6.6942  -10.5301   26.0227 C   0  0  0  0  0  0  0  0  0  0  0  0
    6.4899  -12.3023   26.4457 S   0  0  0  0  0  0  0  0  0  0  0  0
    8.1419  -12.9756   26.7031 C   0  0  0  0  0  0  0  0  0  0  0  0
    8.1576  -14.4142   27.0467 C   0  0  0  0  0  0  0  0  0  0  0  0
    9.4225  -15.1006   26.8815 C   0  0  2  0  0  0  0  0  0  0  0  0
    9.4130  -16.0372   25.7539 N   0  0  0  0  0  0  0  0  0  0  0  0
    9.9656  -15.8053   28.0240 C   0  0  0  0  0  0  0  0  0  0  0  0
   10.5503  -15.0356   29.0666 O   0  0  0  0  0  0  0  0  0  0  0  0
    9.9856  -17.0516   28.2150 O   0  0  0  0  0  0  0  0  0  0  0  0
  2  1  1  0
  3  2  1  0
  3  4  1  6
  5  6  2  0
  5  3  1  0
  7  8  1  0
  8 10  1  0
  9  8  2  0
 10 11  1  0
 12 11  1  6
 12 13  1  0
 13  5  1  0
 14 12  1  0
 15 14  2  0
 16 17  1  0
 17 18  1  0
 19 18  1  0
 20 19  1  1
 20 21  1  0
 20 22  1  0
 21 14  1  0
 22 23  1  0
 24 22  2  0
M  END
$$$$
