SQM.pdb
     RDKit          3D

 24 23  0  0  1  0  0  0  0  0999 V2000
   10.7022  -14.8532   19.9706 O   0  0  0  0  0  0  0  0  0  0  0  0
   10.9777  -16.2169   19.9094 C   0  0  0  0  0  0  0  0  0  0  0  0
    9.6999  -16.9974   19.9485 C   0  0  2  0  0  0  0  0  0  0  0  0
    8.8474  -16.5757   18.8827 N   0  0  0  0  0  0  0  0  0  0  0  0
    9.0042  -16.8572   21.2562 C   0  0  0  0  0  0  0  0  0  0  0  0
    7.9130  -16.2669   21.3891 O   0  0  0  0  0  0  0  0  0  0  0  0
    5.9279  -20.8494   25.2738 N   0  0  0  0  0  0  0  0  0  0  0  0
    7.2850  -20.4413   25.1806 C   0  0  0  0  0  0  0  0  0  0  0  0
    8.1168  -20.7923   26.0453 O   0  0  0  0  0  0  0  0  0  0  0  0
    7.6848  -19.6049   24.0526 C   0  0  0  0  0  0  0  0  0  0  0  0
    8.9575  -18.8529   24.2102 C   0  0  0  0  0  0  0  0  0  0  0  0
    8.9342  -17.4403   23.6867 C   0  0  2  0  0  0  0  0  0  0  0  0
    9.6001  -17.4159   22.4085 N   0  0  0  0  0  0  0  0  0  0  0  0
    9.5626  -16.5195   24.6902 C   0  0  0  0  0  0  0  0  0  0  0  0
   10.7701  -16.2814   24.6605 O   0  0  0  0  0  0  0  0  0  0  0  0
    5.8839  -11.0279   25.3200 C   0  0  0  0  0  0  0  0  0  0  0  0
    6.2684  -12.2134   26.6647 S   0  0  0  0  0  0  0  0  0  0  0  0
    7.7421  -13.1206   26.1608 C   0  0  0  0  0  0  0  0  0  0  0  0
    8.2145  -14.1025   27.1611 C   0  0  0  0  0  0  0  0  0  0  0  0
    9.2384  -15.0274   26.7198 C   0  0  2  0  0  0  0  0  0  0  0  0
    8.7670  -15.9292   25.6647 N   0  0  0  0  0  0  0  0  0  0  0  0
    9.8946  -15.8407   27.7221 C   0  0  0  0  0  0  0  0  0  0  0  0
   10.7192  -15.1861   28.6775 O   0  0  0  0  0  0  0  0  0  0  0  0
    9.8245  -17.0926   27.8570 O   0  0  0  0  0  0  0  0  0  0  0  0
  2  1  1  0
  3  2  1  0
  3  4  1  6
  5  6  2  0
  5  3  1  0
  7  8  1  0
  8 10  1  0
  9  8  2  0
 10 11  1  0
 12 11  1  1
 12 13  1  0
 13  5  1  0
 14 12  1  0
 15 14  2  0
 16 17  1  0
 17 18  1  0
 19 18  1  0
 20 19  1  1
 20 21  1  0
 20 22  1  0
 21 14  1  0
 22 23  1  0
 24 22  2  0
M  END
$$$$
