SQM.pdb
     RDKit          3D

 24 23  0  0  1  0  0  0  0  0999 V2000
   10.4593  -12.7924   19.6054 O   0  0  0  0  0  0  0  0  0  0  0  0
   10.2197  -13.6284   18.5178 C   0  0  0  0  0  0  0  0  0  0  0  0
    8.7538  -13.9172   18.4100 C   0  0  2  0  0  0  0  0  0  0  0  0
    8.0559  -12.7259   18.0437 N   0  0  0  0  0  0  0  0  0  0  0  0
    8.2036  -14.4728   19.6758 C   0  0  0  0  0  0  0  0  0  0  0  0
    7.5585  -13.7902   20.4974 O   0  0  0  0  0  0  0  0  0  0  0  0
    8.7675  -20.6483   20.7655 N   0  0  0  0  0  0  0  0  0  0  0  0
    7.8021  -20.0754   19.8955 C   0  0  0  0  0  0  0  0  0  0  0  0
    7.2079  -20.7797   19.0508 O   0  0  0  0  0  0  0  0  0  0  0  0
    7.5200  -18.6476   20.0121 C   0  0  0  0  0  0  0  0  0  0  0  0
    8.2113  -17.9287   21.1146 C   0  0  0  0  0  0  0  0  0  0  0  0
    7.9361  -16.4490   21.1842 C   0  0  2  0  0  0  0  0  0  0  0  0
    8.4166  -15.8376   19.9705 N   0  0  0  0  0  0  0  0  0  0  0  0
    8.5685  -15.8752   22.4172 C   0  0  0  0  0  0  0  0  0  0  0  0
    9.7556  -15.5488   22.4255 O   0  0  0  0  0  0  0  0  0  0  0  0
    6.7264  -10.9103   28.0699 C   0  0  0  0  0  0  0  0  0  0  0  0
    6.1211  -11.9379   26.6774 S   0  0  0  0  0  0  0  0  0  0  0  0
    7.4226  -13.1247   26.2947 C   0  0  0  0  0  0  0  0  0  0  0  0
    7.1592  -13.9365   25.0866 C   0  0  0  0  0  0  0  0  0  0  0  0
    8.1725  -14.9093   24.7326 C   0  0  2  0  0  0  0  0  0  0  0  0
    7.8003  -15.7115   23.5635 N   0  0  0  0  0  0  0  0  0  0  0  0
    8.6210  -15.8255   25.7603 C   0  0  0  0  0  0  0  0  0  0  0  0
    9.4751  -15.3201   26.7784 O   0  0  0  0  0  0  0  0  0  0  0  0
    8.3410  -17.0504   25.8680 O   0  0  0  0  0  0  0  0  0  0  0  0
  2  1  1  0
  3  2  1  0
  3  4  1  1
  5  6  2  0
  5  3  1  0
  7  8  1  0
  8 10  1  0
  9  8  2  0
 10 11  1  0
 12 11  1  6
 12 13  1  0
 13  5  1  0
 14 12  1  0
 15 14  2  0
 16 17  1  0
 17 18  1  0
 19 18  1  0
 20 19  1  1
 20 21  1  0
 20 22  1  0
 21 14  1  0
 22 23  1  0
 24 22  2  0
M  END
$$$$
