SQM.pdb
     RDKit          3D

 24 23  0  0  1  0  0  0  0  0999 V2000
    8.6239  -11.9034   19.7720 O   0  0  0  0  0  0  0  0  0  0  0  0
    9.5304  -12.6884   19.0640 C   0  0  0  0  0  0  0  0  0  0  0  0
    8.8279  -13.8734   18.4757 C   0  0  2  0  0  0  0  0  0  0  0  0
    7.8864  -13.4348   17.4951 N   0  0  0  0  0  0  0  0  0  0  0  0
    8.1494  -14.6897   19.5183 C   0  0  0  0  0  0  0  0  0  0  0  0
    6.9100  -14.7248   19.6584 O   0  0  0  0  0  0  0  0  0  0  0  0
    9.8085  -19.9883   22.1414 N   0  0  0  0  0  0  0  0  0  0  0  0
   10.4852  -19.2671   21.1221 C   0  0  0  0  0  0  0  0  0  0  0  0
   11.5945  -19.6553   20.6961 O   0  0  0  0  0  0  0  0  0  0  0  0
    9.8551  -18.0648   20.5843 C   0  0  0  0  0  0  0  0  0  0  0  0
    8.5390  -17.6947   21.1684 C   0  0  0  0  0  0  0  0  0  0  0  0
    8.3653  -16.2301   21.4760 C   0  0  2  0  0  0  0  0  0  0  0  0
    8.9379  -15.4657   20.3964 N   0  0  0  0  0  0  0  0  0  0  0  0
    8.9840  -15.9166   22.8059 C   0  0  0  0  0  0  0  0  0  0  0  0
   10.2013  -15.7709   22.9182 O   0  0  0  0  0  0  0  0  0  0  0  0
    6.6131  -10.5908   26.1912 C   0  0  0  0  0  0  0  0  0  0  0  0
    6.4076  -12.3561   26.6414 S   0  0  0  0  0  0  0  0  0  0  0  0
    7.6388  -13.2840   25.7077 C   0  0  0  0  0  0  0  0  0  0  0  0
    7.6931  -14.7223   26.0488 C   0  0  0  0  0  0  0  0  0  0  0  0
    8.6284  -15.5277   25.2905 C   0  0  2  0  0  0  0  0  0  0  0  0
    8.1682  -15.7896   23.9236 N   0  0  0  0  0  0  0  0  0  0  0  0
    9.0465  -16.7935   25.8557 C   0  0  0  0  0  0  0  0  0  0  0  0
    9.9836  -16.7701   26.9247 O   0  0  0  0  0  0  0  0  0  0  0  0
    8.6731  -17.9468   25.5081 O   0  0  0  0  0  0  0  0  0  0  0  0
  2  1  1  0
  3  2  1  0
  3  4  1  6
  5  6  2  0
  5  3  1  0
  7  8  1  0
  8 10  1  0
  9  8  2  0
 10 11  1  0
 12 11  1  6
 12 13  1  0
 13  5  1  0
 14 12  1  0
 15 14  2  0
 16 17  1  0
 17 18  1  0
 19 18  1  0
 20 19  1  1
 20 21  1  0
 20 22  1  0
 21 14  1  0
 22 23  1  0
 24 22  2  0
M  END
$$$$
