SQM.pdb
     RDKit          3D

 24 23  0  0  1  0  0  0  0  0999 V2000
    8.4930  -12.7094   21.0457 O   0  0  0  0  0  0  0  0  0  0  0  0
    8.7250  -13.7356   20.1333 C   0  0  0  0  0  0  0  0  0  0  0  0
    7.7375  -14.8413   20.3477 C   0  0  2  0  0  0  0  0  0  0  0  0
    6.4133  -14.3498   20.1344 N   0  0  0  0  0  0  0  0  0  0  0  0
    7.8578  -15.4366   21.7059 C   0  0  0  0  0  0  0  0  0  0  0  0
    7.0309  -15.2306   22.6173 O   0  0  0  0  0  0  0  0  0  0  0  0
    9.3442  -21.0118   23.9521 N   0  0  0  0  0  0  0  0  0  0  0  0
    9.8494  -20.5466   22.7089 C   0  0  0  0  0  0  0  0  0  0  0  0
   10.5697  -21.2812   21.9988 O   0  0  0  0  0  0  0  0  0  0  0  0
    9.5070  -19.1935   22.2806 C   0  0  0  0  0  0  0  0  0  0  0  0
   10.0592  -18.0843   23.1022 C   0  0  0  0  0  0  0  0  0  0  0  0
    9.1447  -16.8991   23.2734 C   0  0  2  0  0  0  0  0  0  0  0  0
    8.9578  -16.2770   21.9866 N   0  0  0  0  0  0  0  0  0  0  0  0
    9.7167  -15.9637   24.2968 C   0  0  0  0  0  0  0  0  0  0  0  0
   10.7386  -15.3184   24.0624 O   0  0  0  0  0  0  0  0  0  0  0  0
    6.4265  -10.7807   25.2582 C   0  0  0  0  0  0  0  0  0  0  0  0
    6.7816  -11.9501   26.6248 S   0  0  0  0  0  0  0  0  0  0  0  0
    8.1013  -13.0383   26.0567 C   0  0  0  0  0  0  0  0  0  0  0  0
    8.5352  -14.0324   27.0624 C   0  0  0  0  0  0  0  0  0  0  0  0
    9.5394  -14.9843   26.6335 C   0  0  2  0  0  0  0  0  0  0  0  0
    9.0810  -15.8267   25.5249 N   0  0  0  0  0  0  0  0  0  0  0  0
   10.1137  -15.8603   27.6331 C   0  0  0  0  0  0  0  0  0  0  0  0
   10.8728  -15.2705   28.6807 O   0  0  0  0  0  0  0  0  0  0  0  0
   10.0227  -17.1167   27.6921 O   0  0  0  0  0  0  0  0  0  0  0  0
  2  1  1  0
  3  2  1  0
  3  4  1  1
  5  6  2  0
  5  3  1  0
  7  8  1  0
  8 10  1  0
  9  8  2  0
 10 11  1  0
 12 11  1  6
 12 13  1  0
 13  5  1  0
 14 12  1  0
 15 14  2  0
 16 17  1  0
 17 18  1  0
 19 18  1  0
 20 19  1  1
 20 21  1  0
 20 22  1  0
 21 14  1  0
 22 23  1  0
 24 22  2  0
M  END
$$$$
