SQM.pdb
     RDKit          3D

 24 23  0  0  1  0  0  0  0  0999 V2000
    6.1748  -18.9487   23.5131 O   0  0  0  0  0  0  0  0  0  0  0  0
    5.4069  -18.4679   22.4555 C   0  0  0  0  0  0  0  0  0  0  0  0
    6.2175  -18.4678   21.1958 C   0  0  2  0  0  0  0  0  0  0  0  0
    6.5360  -19.8114   20.8302 N   0  0  0  0  0  0  0  0  0  0  0  0
    7.4589  -17.6596   21.3353 C   0  0  0  0  0  0  0  0  0  0  0  0
    8.5980  -18.1642   21.4033 O   0  0  0  0  0  0  0  0  0  0  0  0
    7.9723  -12.1006   18.7275 N   0  0  0  0  0  0  0  0  0  0  0  0
    8.0985  -13.4066   18.1840 C   0  0  0  0  0  0  0  0  0  0  0  0
    7.9703  -13.6008   16.9558 O   0  0  0  0  0  0  0  0  0  0  0  0
    8.3820  -14.5142   19.0920 C   0  0  0  0  0  0  0  0  0  0  0  0
    8.2785  -14.2164   20.5449 C   0  0  0  0  0  0  0  0  0  0  0  0
    8.5088  -15.3935   21.4567 C   0  0  2  0  0  0  0  0  0  0  0  0
    7.3529  -16.2524   21.3945 N   0  0  0  0  0  0  0  0  0  0  0  0
    8.8011  -14.9072   22.8451 C   0  0  0  0  0  0  0  0  0  0  0  0
    9.0106  -13.7144   23.0662 O   0  0  0  0  0  0  0  0  0  0  0  0
    6.6343  -10.7440   26.8914 C   0  0  0  0  0  0  0  0  0  0  0  0
    6.2193  -12.5174   26.6804 S   0  0  0  0  0  0  0  0  0  0  0  0
    7.6060  -13.2835   25.8207 C   0  0  0  0  0  0  0  0  0  0  0  0
    7.4030  -14.7153   25.5097 C   0  0  0  0  0  0  0  0  0  0  0  0
    8.6005  -15.5046   25.3056 C   0  0  2  0  0  0  0  0  0  0  0  0
    8.8348  -15.8191   23.8931 N   0  0  0  0  0  0  0  0  0  0  0  0
    8.7341  -16.7386   26.0511 C   0  0  0  0  0  0  0  0  0  0  0  0
    9.1293  -16.6554   27.4143 O   0  0  0  0  0  0  0  0  0  0  0  0
    8.5386  -17.9113   25.6303 O   0  0  0  0  0  0  0  0  0  0  0  0
  2  1  1  0
  3  2  1  0
  3  4  1  1
  5  6  2  0
  5  3  1  0
  7  8  1  0
  8 10  1  0
  9  8  2  0
 10 11  1  0
 12 11  1  6
 12 13  1  0
 13  5  1  0
 14 12  1  0
 15 14  2  0
 16 17  1  0
 17 18  1  0
 19 18  1  0
 20 19  1  6
 20 21  1  0
 20 22  1  0
 21 14  1  0
 22 23  1  0
 24 22  2  0
M  END
$$$$
