SQM.pdb
     RDKit          3D

 24 23  0  0  1  0  0  0  0  0999 V2000
    9.0151  -18.6037   18.6274 O   0  0  0  0  0  0  0  0  0  0  0  0
    8.7277  -19.0564   19.9125 C   0  0  0  0  0  0  0  0  0  0  0  0
    7.2445  -19.1028   20.1168 C   0  0  2  0  0  0  0  0  0  0  0  0
    6.5928  -18.3894   19.0648 N   0  0  0  0  0  0  0  0  0  0  0  0
    6.8496  -18.5506   21.4408 C   0  0  0  0  0  0  0  0  0  0  0  0
    6.1332  -17.5373   21.5716 O   0  0  0  0  0  0  0  0  0  0  0  0
    7.8367  -21.7161   26.8867 N   0  0  0  0  0  0  0  0  0  0  0  0
    7.3377  -20.4656   27.3386 C   0  0  0  0  0  0  0  0  0  0  0  0
    7.1229  -20.2670   28.5540 O   0  0  0  0  0  0  0  0  0  0  0  0
    7.0834  -19.4198   26.3522 C   0  0  0  0  0  0  0  0  0  0  0  0
    7.2889  -19.7948   24.9283 C   0  0  0  0  0  0  0  0  0  0  0  0
    7.0050  -18.7010   23.9318 C   0  0  2  0  0  0  0  0  0  0  0  0
    7.3026  -19.1976   22.6117 N   0  0  0  0  0  0  0  0  0  0  0  0
    7.7952  -17.4767   24.2871 C   0  0  0  0  0  0  0  0  0  0  0  0
    8.9699  -17.3590   23.9379 O   0  0  0  0  0  0  0  0  0  0  0  0
    6.9943  -10.2348   27.4090 C   0  0  0  0  0  0  0  0  0  0  0  0
    6.1196  -11.7589   26.8863 S   0  0  0  0  0  0  0  0  0  0  0  0
    7.3788  -12.9273   26.3404 C   0  0  0  0  0  0  0  0  0  0  0  0
    6.8355  -14.2208   25.8718 C   0  0  0  0  0  0  0  0  0  0  0  0
    7.7982  -15.1748   25.3604 C   0  0  2  0  0  0  0  0  0  0  0  0
    7.1890  -16.4640   25.0205 N   0  0  0  0  0  0  0  0  0  0  0  0
    8.9719  -15.4496   26.1626 C   0  0  0  0  0  0  0  0  0  0  0  0
   10.0329  -14.5034   26.1391 O   0  0  0  0  0  0  0  0  0  0  0  0
    9.1766  -16.4519   26.9001 O   0  0  0  0  0  0  0  0  0  0  0  0
  2  1  1  0
  3  2  1  0
  3  4  1  6
  5  6  2  0
  5  3  1  0
  7  8  1  0
  8 10  1  0
  9  8  2  0
 10 11  1  0
 12 11  1  1
 12 13  1  0
 13  5  1  0
 14 12  1  0
 15 14  2  0
 16 17  1  0
 17 18  1  0
 19 18  1  0
 20 19  1  1
 20 21  1  0
 20 22  1  0
 21 14  1  0
 22 23  1  0
 24 22  2  0
M  END
$$$$
