SQM.pdb
     RDKit          3D

 24 23  0  0  1  0  0  0  0  0999 V2000
    9.1043  -11.8773   18.4899 O   0  0  0  0  0  0  0  0  0  0  0  0
    8.7115  -12.5473   19.6457 C   0  0  0  0  0  0  0  0  0  0  0  0
    8.2795  -13.9406   19.3053 C   0  0  2  0  0  0  0  0  0  0  0  0
    7.0324  -13.8997   18.6100 N   0  0  0  0  0  0  0  0  0  0  0  0
    8.1710  -14.7989   20.5158 C   0  0  0  0  0  0  0  0  0  0  0  0
    7.1489  -14.8458   21.2300 O   0  0  0  0  0  0  0  0  0  0  0  0
   11.9969  -19.7459   21.4277 N   0  0  0  0  0  0  0  0  0  0  0  0
   11.2204  -19.7431   22.6168 C   0  0  0  0  0  0  0  0  0  0  0  0
   11.3185  -20.6752   23.4441 O   0  0  0  0  0  0  0  0  0  0  0  0
   10.3077  -18.6276   22.8498 C   0  0  0  0  0  0  0  0  0  0  0  0
   10.2448  -17.5954   21.7817 C   0  0  0  0  0  0  0  0  0  0  0  0
    9.2306  -16.5041   22.0063 C   0  0  2  0  0  0  0  0  0  0  0  0
    9.2730  -15.6028   20.8822 N   0  0  0  0  0  0  0  0  0  0  0  0
    9.5049  -15.8210   23.3132 C   0  0  0  0  0  0  0  0  0  0  0  0
   10.4479  -15.0384   23.4318 O   0  0  0  0  0  0  0  0  0  0  0  0
    6.6025  -10.7323   26.5718 C   0  0  0  0  0  0  0  0  0  0  0  0
    6.3165  -12.5307   26.7845 S   0  0  0  0  0  0  0  0  0  0  0  0
    7.7245  -13.3785   26.0446 C   0  0  0  0  0  0  0  0  0  0  0  0
    7.7235  -14.8425   26.2565 C   0  0  0  0  0  0  0  0  0  0  0  0
    8.8775  -15.5643   25.7609 C   0  0  2  0  0  0  0  0  0  0  0  0
    8.6808  -16.0779   24.4021 N   0  0  0  0  0  0  0  0  0  0  0  0
    9.3920  -16.6535   26.5643 C   0  0  0  0  0  0  0  0  0  0  0  0
    9.2669  -17.9752   26.0553 O   0  0  0  0  0  0  0  0  0  0  0  0
    9.9526  -16.5742   27.6911 O   0  0  0  0  0  0  0  0  0  0  0  0
  2  1  1  0
  3  2  1  0
  3  4  1  1
  5  6  2  0
  5  3  1  0
  7  8  1  0
  8 10  1  0
  9  8  2  0
 10 11  1  0
 12 11  1  6
 12 13  1  0
 13  5  1  0
 14 12  1  0
 15 14  2  0
 16 17  1  0
 17 18  1  0
 19 18  1  0
 20 19  1  1
 20 21  1  0
 20 22  1  0
 21 14  1  0
 22 23  1  0
 24 22  2  0
M  END
$$$$
