SQM.pdb
     RDKit          3D

 24 23  0  0  1  0  0  0  0  0999 V2000
    8.9864  -13.5955   19.0976 O   0  0  0  0  0  0  0  0  0  0  0  0
    8.6413  -13.9411   20.4016 C   0  0  0  0  0  0  0  0  0  0  0  0
    8.4407  -15.4223   20.5004 C   0  0  2  0  0  0  0  0  0  0  0  0
    7.2236  -15.7861   19.8472 N   0  0  0  0  0  0  0  0  0  0  0  0
    8.4306  -15.8875   21.9136 C   0  0  0  0  0  0  0  0  0  0  0  0
    7.3957  -15.9364   22.6088 O   0  0  0  0  0  0  0  0  0  0  0  0
   12.6077  -20.0001   24.0399 N   0  0  0  0  0  0  0  0  0  0  0  0
   11.9188  -19.6598   25.2343 C   0  0  0  0  0  0  0  0  0  0  0  0
   12.1741  -20.2488   26.3070 O   0  0  0  0  0  0  0  0  0  0  0  0
   10.9085  -18.6073   25.1797 C   0  0  0  0  0  0  0  0  0  0  0  0
   10.6815  -17.9821   23.8500 C   0  0  0  0  0  0  0  0  0  0  0  0
    9.7127  -16.8282   23.8432 C   0  0  2  0  0  0  0  0  0  0  0  0
    9.6465  -16.2955   22.5054 N   0  0  0  0  0  0  0  0  0  0  0  0
   10.1356  -15.8078   24.8579 C   0  0  0  0  0  0  0  0  0  0  0  0
   11.1349  -15.1120   24.6761 O   0  0  0  0  0  0  0  0  0  0  0  0
    5.1835  -12.9573   26.3694 C   0  0  0  0  0  0  0  0  0  0  0  0
    6.6177  -11.9148   26.8360 S   0  0  0  0  0  0  0  0  0  0  0  0
    8.1032  -12.8382   26.4007 C   0  0  0  0  0  0  0  0  0  0  0  0
    8.4830  -13.8675   27.3928 C   0  0  0  0  0  0  0  0  0  0  0  0
    9.6478  -14.6678   27.0745 C   0  0  2  0  0  0  0  0  0  0  0  0
    9.3862  -15.6490   26.0172 N   0  0  0  0  0  0  0  0  0  0  0  0
   10.3073  -15.3658   28.1582 C   0  0  0  0  0  0  0  0  0  0  0  0
   10.4021  -16.7822   28.0800 O   0  0  0  0  0  0  0  0  0  0  0  0
   10.8223  -14.8600   29.1923 O   0  0  0  0  0  0  0  0  0  0  0  0
  2  1  1  0
  3  2  1  0
  3  4  1  1
  5  6  2  0
  5  3  1  0
  7  8  1  0
  8 10  1  0
  9  8  2  0
 10 11  1  0
 12 11  1  6
 12 13  1  0
 13  5  1  0
 14 12  1  0
 15 14  2  0
 16 17  1  0
 17 18  1  0
 19 18  1  0
 20 19  1  1
 20 21  1  0
 20 22  1  0
 21 14  1  0
 22 23  1  0
 24 22  2  0
M  END
$$$$
