SQM.pdb
     RDKit          3D

 24 23  0  0  1  0  0  0  0  0999 V2000
   10.1058  -13.6182   18.0487 O   0  0  0  0  0  0  0  0  0  0  0  0
    9.4939  -13.7249   19.2951 C   0  0  0  0  0  0  0  0  0  0  0  0
    8.1472  -14.3642   19.1488 C   0  0  2  0  0  0  0  0  0  0  0  0
    7.2302  -13.4268   18.5824 N   0  0  0  0  0  0  0  0  0  0  0  0
    7.6317  -14.8748   20.4477 C   0  0  0  0  0  0  0  0  0  0  0  0
    6.9648  -14.1776   21.2390 O   0  0  0  0  0  0  0  0  0  0  0  0
    5.5934  -20.1950   21.9026 N   0  0  0  0  0  0  0  0  0  0  0  0
    6.1690  -19.9263   23.1728 C   0  0  0  0  0  0  0  0  0  0  0  0
    5.7177  -20.4691   24.2046 O   0  0  0  0  0  0  0  0  0  0  0  0
    7.2985  -19.0039   23.2444 C   0  0  0  0  0  0  0  0  0  0  0  0
    7.6319  -18.2743   21.9928 C   0  0  0  0  0  0  0  0  0  0  0  0
    7.4581  -16.7791   22.0588 C   0  0  2  0  0  0  0  0  0  0  0  0
    7.9053  -16.2119   20.8114 N   0  0  0  0  0  0  0  0  0  0  0  0
    8.1977  -16.2367   23.2455 C   0  0  0  0  0  0  0  0  0  0  0  0
    9.4279  -16.1906   23.2568 O   0  0  0  0  0  0  0  0  0  0  0  0
    6.9016  -10.2890   26.6545 C   0  0  0  0  0  0  0  0  0  0  0  0
    6.2540  -11.8171   27.4335 S   0  0  0  0  0  0  0  0  0  0  0  0
    7.4172  -13.1386   27.0466 C   0  0  0  0  0  0  0  0  0  0  0  0
    7.0115  -13.9792   25.8992 C   0  0  0  0  0  0  0  0  0  0  0  0
    8.0028  -14.9123   25.4040 C   0  0  2  0  0  0  0  0  0  0  0  0
    7.4804  -15.7809   24.3449 N   0  0  0  0  0  0  0  0  0  0  0  0
    8.6756  -15.7603   26.3657 C   0  0  0  0  0  0  0  0  0  0  0  0
    8.3921  -17.1533   26.3406 O   0  0  0  0  0  0  0  0  0  0  0  0
    9.5046  -15.4076   27.2482 O   0  0  0  0  0  0  0  0  0  0  0  0
  2  1  1  0
  3  2  1  0
  3  4  1  1
  5  6  2  0
  5  3  1  0
  7  8  1  0
  8 10  1  0
  9  8  2  0
 10 11  1  0
 12 11  1  6
 12 13  1  0
 13  5  1  0
 14 12  1  0
 15 14  2  0
 16 17  1  0
 17 18  1  0
 19 18  1  0
 20 19  1  1
 20 21  1  0
 20 22  1  0
 21 14  1  0
 22 23  1  0
 24 22  2  0
M  END
$$$$
