NQR.pdb
     RDKit          3D

 29 28  0  0  1  0  0  0  0  0999 V2000
   27.7756  -21.9539  -15.2284 N   0  0  0  0  0  0  0  0  0  0  0  0
   26.4411  -22.4210  -15.3449 C   0  0  0  0  0  0  0  0  0  0  0  0
   26.1271  -23.2115  -16.2643 O   0  0  0  0  0  0  0  0  0  0  0  0
   25.4131  -21.9750  -14.3809 C   0  0  0  0  0  0  0  0  0  0  0  0
   24.3451  -21.2280  -15.1649 C   0  0  2  0  0  0  0  0  0  0  0  0
   24.9338  -20.1132  -15.8481 N   0  0  0  0  0  0  0  0  0  0  0  0
   23.2074  -20.8274  -14.2904 C   0  0  0  0  0  0  0  0  0  0  0  0
   22.9656  -19.6065  -14.1844 O   0  0  0  0  0  0  0  0  0  0  0  0
   18.4953  -20.4153  -15.9979 N   0  0  0  0  0  0  0  0  0  0  0  0
   18.1171  -20.0331  -14.6663 C   0  0  0  0  0  0  0  0  0  0  0  0
   16.9023  -19.6475  -14.5422 O   0  0  0  0  0  0  0  0  0  0  0  0
   19.0354  -20.0781  -13.5258 C   0  0  0  0  0  0  0  0  0  0  0  0
   20.4026  -20.4782  -13.9257 C   0  0  0  0  0  0  0  0  0  0  0  0
   21.1160  -21.3819  -12.9969 C   0  0  2  0  0  0  0  0  0  0  0  0
   22.4134  -21.7522  -13.5941 N   0  0  0  0  0  0  0  0  0  0  0  0
   20.4685  -22.5032  -12.3626 C   0  0  0  0  0  0  0  0  0  0  0  0
   20.3019  -23.5941  -12.9546 O   0  0  0  0  0  0  0  0  0  0  0  0
   16.0644  -24.6173   -5.9905 N   0  0  0  0  0  0  0  0  0  0  0  0
   16.7650  -25.8608   -6.0159 C   0  0  0  0  0  0  0  0  0  0  0  0
   16.1696  -26.9861   -5.8036 N   0  0  0  0  0  0  0  0  0  0  0  0
   18.1558  -25.8846   -6.2689 N   0  0  0  0  0  0  0  0  0  0  0  0
   18.8189  -24.6869   -6.7286 C   0  0  0  0  0  0  0  0  0  0  0  0
   18.6938  -24.7087   -8.2595 C   0  0  0  0  0  0  0  0  0  0  0  0
   19.3148  -23.5371   -8.9281 C   0  0  0  0  0  0  0  0  0  0  0  0
   19.3226  -23.6421  -10.4230 C   0  0  2  0  0  0  0  0  0  0  0  0
   19.9658  -22.4621  -11.0170 N   0  0  0  0  0  0  0  0  0  0  0  0
   17.9799  -23.7414  -11.0212 C   0  0  0  0  0  0  0  0  0  0  0  0
   17.4277  -24.9794  -11.3098 O   0  0  0  0  0  0  0  0  0  0  0  0
   17.3038  -22.7336  -11.2848 O   0  0  0  0  0  0  0  0  0  0  0  0
  2  1  1  0
  3  2  2  0
  4  2  1  0
  5  6  1  1
  5  4  1  0
  7  5  1  0
  8  7  2  0
  9 10  1  0
 10 12  1  0
 10 11  2  0
 12 13  1  0
 14 13  1  6
 14 15  1  0
 15  7  1  0
 16 14  1  0
 16 17  2  0
 18 19  1  0
 19 20  2  0
 21 22  1  0
 21 19  1  0
 23 24  1  0
 23 22  1  0
 25 24  1  1
 25 26  1  0
 26 16  1  0
 27 25  1  0
 28 27  1  0
 29 27  2  0
M  END
$$$$
