NQR.pdb
     RDKit          3D

 29 28  0  0  1  0  0  0  0  0999 V2000
   16.0181  -14.4943  -15.8969 N   0  0  0  0  0  0  0  0  0  0  0  0
   16.9380  -13.6455  -16.5645 C   0  0  0  0  0  0  0  0  0  0  0  0
   17.0619  -13.7039  -17.8094 O   0  0  0  0  0  0  0  0  0  0  0  0
   17.7571  -12.6874  -15.7922 C   0  0  0  0  0  0  0  0  0  0  0  0
   19.1930  -12.8204  -16.2756 C   0  0  2  0  0  0  0  0  0  0  0  0
   19.7542  -14.0511  -15.7996 N   0  0  0  0  0  0  0  0  0  0  0  0
   20.0087  -11.6338  -15.8933 C   0  0  0  0  0  0  0  0  0  0  0  0
   19.9310  -11.2392  -14.7107 O   0  0  0  0  0  0  0  0  0  0  0  0
   25.6248  -10.1811  -17.8891 N   0  0  0  0  0  0  0  0  0  0  0  0
   25.2157   -8.9433  -17.2870 C   0  0  0  0  0  0  0  0  0  0  0  0
   26.1056   -8.0224  -17.2933 O   0  0  0  0  0  0  0  0  0  0  0  0
   23.8864   -8.7314  -16.7092 C   0  0  0  0  0  0  0  0  0  0  0  0
   23.0012   -9.9012  -16.9018 C   0  0  0  0  0  0  0  0  0  0  0  0
   21.6151   -9.7596  -16.4046 C   0  0  2  0  0  0  0  0  0  0  0  0
   20.8440  -10.9555  -16.7949 N   0  0  0  0  0  0  0  0  0  0  0  0
   20.8569   -8.5445  -16.5705 C   0  0  0  0  0  0  0  0  0  0  0  0
   20.3504   -8.2243  -17.6701 O   0  0  0  0  0  0  0  0  0  0  0  0
   13.5261   -4.9557  -15.4236 N   0  0  0  0  0  0  0  0  0  0  0  0
   14.3069   -5.5128  -16.4810 C   0  0  0  0  0  0  0  0  0  0  0  0
   13.7660   -6.0116  -17.5414 N   0  0  0  0  0  0  0  0  0  0  0  0
   15.7169   -5.5394  -16.3813 N   0  0  0  0  0  0  0  0  0  0  0  0
   16.3557   -5.0926  -15.1657 C   0  0  0  0  0  0  0  0  0  0  0  0
   17.8579   -5.0442  -15.4836 C   0  0  0  0  0  0  0  0  0  0  0  0
   18.5328   -6.3638  -15.3907 C   0  0  0  0  0  0  0  0  0  0  0  0
   19.9824   -6.3168  -15.7677 C   0  0  2  0  0  0  0  0  0  0  0  0
   20.6238   -7.6118  -15.5024 N   0  0  0  0  0  0  0  0  0  0  0  0
   20.7569   -5.3001  -15.0348 C   0  0  0  0  0  0  0  0  0  0  0  0
   21.5849   -4.4208  -15.7146 O   0  0  0  0  0  0  0  0  0  0  0  0
   20.6967   -5.1956  -13.7988 O   0  0  0  0  0  0  0  0  0  0  0  0
  2  1  1  0
  3  2  2  0
  4  2  1  0
  5  6  1  1
  5  4  1  0
  7  5  1  0
  8  7  2  0
  9 10  1  0
 10 12  1  0
 10 11  2  0
 12 13  1  0
 14 13  1  6
 14 15  1  0
 15  7  1  0
 16 14  1  0
 16 17  2  0
 18 19  1  0
 19 20  2  0
 21 22  1  0
 21 19  1  0
 23 24  1  0
 23 22  1  0
 25 24  1  1
 25 26  1  0
 26 16  1  0
 27 25  1  0
 28 27  1  0
 29 27  2  0
M  END
$$$$
