NQR.pdb
     RDKit          3D

 29 28  0  0  1  0  0  0  0  0999 V2000
   28.8269  -20.4636  -20.8932 N   0  0  0  0  0  0  0  0  0  0  0  0
   28.6343  -19.7154  -19.7034 C   0  0  0  0  0  0  0  0  0  0  0  0
   29.5710  -19.0335  -19.2279 O   0  0  0  0  0  0  0  0  0  0  0  0
   27.3250  -19.7384  -19.0175 C   0  0  0  0  0  0  0  0  0  0  0  0
   27.5937  -19.7531  -17.5206 C   0  0  2  0  0  0  0  0  0  0  0  0
   28.5607  -20.7653  -17.2101 N   0  0  0  0  0  0  0  0  0  0  0  0
   26.3328  -19.9083  -16.7422 C   0  0  0  0  0  0  0  0  0  0  0  0
   25.2571  -19.7029  -17.3429 O   0  0  0  0  0  0  0  0  0  0  0  0
   25.9818  -21.7394  -10.6593 N   0  0  0  0  0  0  0  0  0  0  0  0
   24.6233  -21.4212  -10.9990 C   0  0  0  0  0  0  0  0  0  0  0  0
   23.7796  -21.5831  -10.0493 O   0  0  0  0  0  0  0  0  0  0  0  0
   24.2166  -20.9434  -12.3228 C   0  0  0  0  0  0  0  0  0  0  0  0
   25.3534  -20.8836  -13.2679 C   0  0  0  0  0  0  0  0  0  0  0  0
   25.0519  -20.3622  -14.6191 C   0  0  2  0  0  0  0  0  0  0  0  0
   26.3091  -20.2686  -15.3857 N   0  0  0  0  0  0  0  0  0  0  0  0
   24.1979  -19.2201  -14.8319 C   0  0  0  0  0  0  0  0  0  0  0  0
   24.5236  -18.0702  -14.4579 O   0  0  0  0  0  0  0  0  0  0  0  0
   21.7136  -13.8190  -20.7536 N   0  0  0  0  0  0  0  0  0  0  0  0
   20.9838  -13.4685  -19.5778 C   0  0  0  0  0  0  0  0  0  0  0  0
   20.3841  -12.3318  -19.4582 N   0  0  0  0  0  0  0  0  0  0  0  0
   20.9103  -14.3736  -18.4943 N   0  0  0  0  0  0  0  0  0  0  0  0
   21.6357  -15.6208  -18.5547 C   0  0  0  0  0  0  0  0  0  0  0  0
   21.4130  -16.2932  -17.1916 C   0  0  0  0  0  0  0  0  0  0  0  0
   22.2302  -17.5160  -16.9861 C   0  0  0  0  0  0  0  0  0  0  0  0
   22.0706  -18.1141  -15.6213 C   0  0  2  0  0  0  0  0  0  0  0  0
   22.9186  -19.3057  -15.4808 N   0  0  0  0  0  0  0  0  0  0  0  0
   20.6927  -18.5332  -15.3109 C   0  0  0  0  0  0  0  0  0  0  0  0
   19.7404  -17.5988  -14.9355 O   0  0  0  0  0  0  0  0  0  0  0  0
   20.3395  -19.7221  -15.3736 O   0  0  0  0  0  0  0  0  0  0  0  0
  2  1  1  0
  3  2  2  0
  4  2  1  0
  5  6  1  6
  5  4  1  0
  7  5  1  0
  8  7  2  0
  9 10  1  0
 10 12  1  0
 10 11  2  0
 12 13  1  0
 14 13  1  1
 14 15  1  0
 15  7  1  0
 16 14  1  0
 16 17  2  0
 18 19  1  0
 19 20  2  0
 21 22  1  0
 21 19  1  0
 23 24  1  0
 23 22  1  0
 25 24  1  6
 25 26  1  0
 26 16  1  0
 27 25  1  0
 28 27  1  0
 29 27  2  0
M  END
$$$$
