NQR.pdb
     RDKit          3D

 29 28  0  0  1  0  0  0  0  0999 V2000
   19.7678  -15.6040  -18.8464 N   0  0  0  0  0  0  0  0  0  0  0  0
   20.1185  -15.9565  -17.5177 C   0  0  0  0  0  0  0  0  0  0  0  0
   19.6977  -17.0240  -17.0159 O   0  0  0  0  0  0  0  0  0  0  0  0
   20.9826  -15.0629  -16.7176 C   0  0  0  0  0  0  0  0  0  0  0  0
   21.2580  -13.8236  -17.5551 C   0  0  2  0  0  0  0  0  0  0  0  0
   22.2044  -14.1342  -18.5865 N   0  0  0  0  0  0  0  0  0  0  0  0
   21.6914  -12.6781  -16.7068 C   0  0  0  0  0  0  0  0  0  0  0  0
   20.9665  -12.3748  -15.7359 O   0  0  0  0  0  0  0  0  0  0  0  0
   27.5651  -10.6253  -16.1684 N   0  0  0  0  0  0  0  0  0  0  0  0
   26.9140  -11.8292  -15.7339 C   0  0  0  0  0  0  0  0  0  0  0  0
   27.7059  -12.7658  -15.3656 O   0  0  0  0  0  0  0  0  0  0  0  0
   25.4583  -11.9898  -15.7040 C   0  0  0  0  0  0  0  0  0  0  0  0
   24.7517  -10.7446  -16.0774 C   0  0  0  0  0  0  0  0  0  0  0  0
   23.2741  -10.8134  -16.0966 C   0  0  2  0  0  0  0  0  0  0  0  0
   22.8603  -11.9409  -16.9536 N   0  0  0  0  0  0  0  0  0  0  0  0
   22.4505   -9.6468  -16.2961 C   0  0  0  0  0  0  0  0  0  0  0  0
   22.3323   -9.1029  -17.4179 O   0  0  0  0  0  0  0  0  0  0  0  0
   14.6336  -10.2248  -15.9321 N   0  0  0  0  0  0  0  0  0  0  0  0
   15.4022  -10.2533  -17.1348 C   0  0  0  0  0  0  0  0  0  0  0  0
   14.9448  -10.7666  -18.2271 N   0  0  0  0  0  0  0  0  0  0  0  0
   16.7108   -9.7185  -17.1512 N   0  0  0  0  0  0  0  0  0  0  0  0
   17.2381   -9.0837  -15.9662 C   0  0  0  0  0  0  0  0  0  0  0  0
   18.6746   -8.6730  -16.3235 C   0  0  0  0  0  0  0  0  0  0  0  0
   19.4425   -8.1212  -15.1784 C   0  0  0  0  0  0  0  0  0  0  0  0
   20.8768   -7.8377  -15.5071 C   0  0  2  0  0  0  0  0  0  0  0  0
   21.7082   -9.0189  -15.2379 N   0  0  0  0  0  0  0  0  0  0  0  0
   21.4568   -6.7242  -14.7362 C   0  0  0  0  0  0  0  0  0  0  0  0
   21.1730   -5.4105  -15.0749 O   0  0  0  0  0  0  0  0  0  0  0  0
   22.2103   -6.9196  -13.7686 O   0  0  0  0  0  0  0  0  0  0  0  0
  2  1  1  0
  3  2  2  0
  4  2  1  0
  5  6  1  6
  5  4  1  0
  7  5  1  0
  8  7  2  0
  9 10  1  0
 10 12  1  0
 10 11  2  0
 12 13  1  0
 14 13  1  6
 14 15  1  0
 15  7  1  0
 16 14  1  0
 16 17  2  0
 18 19  1  0
 19 20  2  0
 21 22  1  0
 21 19  1  0
 23 24  1  0
 23 22  1  0
 25 24  1  1
 25 26  1  0
 26 16  1  0
 27 25  1  0
 28 27  1  0
 29 27  2  0
M  END
$$$$
