NQR.pdb
     RDKit          3D

 29 28  0  0  1  0  0  0  0  0999 V2000
   37.7437  -11.2311  -18.2511 N   0  0  0  0  0  0  0  0  0  0  0  0
   36.9036  -11.0626  -19.3818 C   0  0  0  0  0  0  0  0  0  0  0  0
   37.3556  -11.2408  -20.5362 O   0  0  0  0  0  0  0  0  0  0  0  0
   35.4888  -10.6737  -19.2023 C   0  0  0  0  0  0  0  0  0  0  0  0
   35.1712  -10.7776  -17.7185 C   0  0  2  0  0  0  0  0  0  0  0  0
   35.0552  -12.1562  -17.3414 N   0  0  0  0  0  0  0  0  0  0  0  0
   33.9617   -9.9835  -17.3633 C   0  0  0  0  0  0  0  0  0  0  0  0
   32.8642  -10.5798  -17.3545 O   0  0  0  0  0  0  0  0  0  0  0  0
   33.9570   -4.3374  -14.5261 N   0  0  0  0  0  0  0  0  0  0  0  0
   32.5922   -4.4938  -14.9444 C   0  0  0  0  0  0  0  0  0  0  0  0
   31.8202   -3.5197  -14.6356 O   0  0  0  0  0  0  0  0  0  0  0  0
   32.1040   -5.6679  -15.6719 C   0  0  0  0  0  0  0  0  0  0  0  0
   33.1885   -6.6278  -15.9742 C   0  0  0  0  0  0  0  0  0  0  0  0
   32.7948   -7.8441  -16.7185 C   0  0  2  0  0  0  0  0  0  0  0  0
   34.0084   -8.6170  -17.0453 N   0  0  0  0  0  0  0  0  0  0  0  0
   31.8603   -7.8077  -17.8159 C   0  0  0  0  0  0  0  0  0  0  0  0
   32.2362   -7.6676  -19.0022 O   0  0  0  0  0  0  0  0  0  0  0  0
   24.3380  -12.0715  -19.9100 N   0  0  0  0  0  0  0  0  0  0  0  0
   24.6661  -11.1644  -20.9622 C   0  0  0  0  0  0  0  0  0  0  0  0
   24.0229  -11.1528  -22.0812 N   0  0  0  0  0  0  0  0  0  0  0  0
   25.7310  -10.2485  -20.8008 N   0  0  0  0  0  0  0  0  0  0  0  0
   26.5133  -10.2692  -19.5871 C   0  0  0  0  0  0  0  0  0  0  0  0
   27.5453   -9.1420  -19.7431 C   0  0  0  0  0  0  0  0  0  0  0  0
   28.5116   -9.0547  -18.6189 C   0  0  0  0  0  0  0  0  0  0  0  0
   29.5454   -7.9861  -18.8065 C   0  0  2  0  0  0  0  0  0  0  0  0
   30.4388   -7.9261  -17.6416 N   0  0  0  0  0  0  0  0  0  0  0  0
   28.9827   -6.6357  -18.9815 C   0  0  0  0  0  0  0  0  0  0  0  0
   28.3180   -6.2960  -20.1493 O   0  0  0  0  0  0  0  0  0  0  0  0
   29.0823   -5.7653  -18.1014 O   0  0  0  0  0  0  0  0  0  0  0  0
  2  1  1  0
  3  2  2  0
  4  2  1  0
  5  6  1  6
  5  4  1  0
  7  5  1  0
  8  7  2  0
  9 10  1  0
 10 12  1  0
 10 11  2  0
 12 13  1  0
 14 13  1  6
 14 15  1  0
 15  7  1  0
 16 14  1  0
 16 17  2  0
 18 19  1  0
 19 20  2  0
 21 22  1  0
 21 19  1  0
 23 24  1  0
 23 22  1  0
 25 24  1  1
 25 26  1  0
 26 16  1  0
 27 25  1  0
 28 27  1  0
 29 27  2  0
M  END
$$$$
