NQR.pdb
     RDKit          3D

 29 28  0  0  1  0  0  0  0  0999 V2000
   27.1380  -22.8879  -15.0244 N   0  0  0  0  0  0  0  0  0  0  0  0
   27.1874  -21.5096  -15.3568 C   0  0  0  0  0  0  0  0  0  0  0  0
   28.1761  -21.0427  -15.9675 O   0  0  0  0  0  0  0  0  0  0  0  0
   26.0707  -20.6165  -14.9819 C   0  0  0  0  0  0  0  0  0  0  0  0
   24.9642  -21.4859  -14.4050 C   0  0  2  0  0  0  0  0  0  0  0  0
   24.7532  -22.6270  -15.2474 N   0  0  0  0  0  0  0  0  0  0  0  0
   23.7172  -20.7025  -14.1796 C   0  0  0  0  0  0  0  0  0  0  0  0
   23.8301  -19.5880  -13.6271 O   0  0  0  0  0  0  0  0  0  0  0  0
   22.4172  -16.9739  -17.2198 N   0  0  0  0  0  0  0  0  0  0  0  0
   21.0988  -17.0108  -16.6517 C   0  0  0  0  0  0  0  0  0  0  0  0
   20.3506  -16.0198  -16.9647 O   0  0  0  0  0  0  0  0  0  0  0  0
   20.6282  -18.0922  -15.7828 C   0  0  0  0  0  0  0  0  0  0  0  0
   21.6850  -19.0923  -15.5141 C   0  0  0  0  0  0  0  0  0  0  0  0
   21.2893  -20.2540  -14.6882 C   0  0  2  0  0  0  0  0  0  0  0  0
   22.4452  -21.1614  -14.5566 N   0  0  0  0  0  0  0  0  0  0  0  0
   20.0566  -20.9700  -14.9048 C   0  0  0  0  0  0  0  0  0  0  0  0
   19.9930  -21.9663  -15.6608 O   0  0  0  0  0  0  0  0  0  0  0  0
   18.3754  -26.6186  -10.7261 N   0  0  0  0  0  0  0  0  0  0  0  0
   19.2884  -25.9220  -11.5741 C   0  0  0  0  0  0  0  0  0  0  0  0
   20.4113  -26.4405  -11.9430 N   0  0  0  0  0  0  0  0  0  0  0  0
   18.9796  -24.6190  -12.0277 N   0  0  0  0  0  0  0  0  0  0  0  0
   17.7083  -24.0259  -11.6851 C   0  0  0  0  0  0  0  0  0  0  0  0
   17.6945  -22.6538  -12.3758 C   0  0  0  0  0  0  0  0  0  0  0  0
   17.6989  -22.7294  -13.8589 C   0  0  0  0  0  0  0  0  0  0  0  0
   17.5971  -21.3893  -14.5218 C   0  0  2  0  0  0  0  0  0  0  0  0
   18.8151  -20.6036  -14.2808 N   0  0  0  0  0  0  0  0  0  0  0  0
   16.4644  -20.5743  -14.0492 C   0  0  0  0  0  0  0  0  0  0  0  0
   15.1641  -21.0384  -14.1709 O   0  0  0  0  0  0  0  0  0  0  0  0
   16.6313  -19.4578  -13.5318 O   0  0  0  0  0  0  0  0  0  0  0  0
  2  1  1  0
  3  2  2  0
  4  2  1  0
  5  6  1  6
  5  4  1  0
  7  5  1  0
  8  7  2  0
  9 10  1  0
 10 12  1  0
 10 11  2  0
 12 13  1  0
 14 13  1  6
 14 15  1  0
 15  7  1  0
 16 14  1  0
 16 17  2  0
 18 19  1  0
 19 20  2  0
 21 22  1  0
 21 19  1  0
 23 24  1  0
 23 22  1  0
 25 24  1  1
 25 26  1  0
 26 16  1  0
 27 25  1  0
 28 27  1  0
 29 27  2  0
M  END
$$$$
