NQR.pdb
     RDKit          3D

 29 28  0  0  1  0  0  0  0  0999 V2000
   29.5175  -17.6130  -15.7161 N   0  0  0  0  0  0  0  0  0  0  0  0
   28.1401  -17.2910  -15.8246 C   0  0  0  0  0  0  0  0  0  0  0  0
   27.7865  -16.1549  -16.2156 O   0  0  0  0  0  0  0  0  0  0  0  0
   27.1143  -18.2962  -15.4748 C   0  0  0  0  0  0  0  0  0  0  0  0
   27.8410  -19.5384  -14.9829 C   0  0  2  0  0  0  0  0  0  0  0  0
   28.5737  -20.1327  -16.0628 N   0  0  0  0  0  0  0  0  0  0  0  0
   26.9036  -20.4962  -14.3320 C   0  0  0  0  0  0  0  0  0  0  0  0
   26.5419  -21.4892  -14.9978 O   0  0  0  0  0  0  0  0  0  0  0  0
   26.9447  -21.5365   -8.4165 N   0  0  0  0  0  0  0  0  0  0  0  0
   25.9274  -20.5702   -8.7223 C   0  0  0  0  0  0  0  0  0  0  0  0
   25.5768  -19.8291   -7.7385 O   0  0  0  0  0  0  0  0  0  0  0  0
   25.3287  -20.4266  -10.0515 C   0  0  0  0  0  0  0  0  0  0  0  0
   25.8101  -21.4598  -10.9949 C   0  0  0  0  0  0  0  0  0  0  0  0
   25.4541  -21.2617  -12.4170 C   0  0  2  0  0  0  0  0  0  0  0  0
   26.4206  -20.3271  -13.0248 N   0  0  0  0  0  0  0  0  0  0  0  0
   24.1019  -21.0009  -12.8442 C   0  0  0  0  0  0  0  0  0  0  0  0
   23.6806  -19.8376  -13.0377 O   0  0  0  0  0  0  0  0  0  0  0  0
   17.1169  -25.8828  -15.9650 N   0  0  0  0  0  0  0  0  0  0  0  0
   16.7539  -24.5041  -15.8925 C   0  0  0  0  0  0  0  0  0  0  0  0
   15.5893  -24.0830  -16.2565 N   0  0  0  0  0  0  0  0  0  0  0  0
   17.6853  -23.5508  -15.4208 N   0  0  0  0  0  0  0  0  0  0  0  0
   19.0102  -23.9766  -15.0352 C   0  0  0  0  0  0  0  0  0  0  0  0
   19.7215  -22.7093  -14.5375 C   0  0  0  0  0  0  0  0  0  0  0  0
   21.1403  -22.9285  -14.1576 C   0  0  0  0  0  0  0  0  0  0  0  0
   21.7912  -21.7143  -13.5679 C   0  0  2  0  0  0  0  0  0  0  0  0
   23.1378  -22.0404  -13.0787 N   0  0  0  0  0  0  0  0  0  0  0  0
   21.0542  -21.1347  -12.4314 C   0  0  0  0  0  0  0  0  0  0  0  0
   20.0242  -20.2327  -12.6468 O   0  0  0  0  0  0  0  0  0  0  0  0
   21.3254  -21.4293  -11.2558 O   0  0  0  0  0  0  0  0  0  0  0  0
  2  1  1  0
  3  2  2  0
  4  2  1  0
  5  6  1  6
  5  4  1  0
  7  5  1  0
  8  7  2  0
  9 10  1  0
 10 12  1  0
 10 11  2  0
 12 13  1  0
 14 13  1  1
 14 15  1  0
 15  7  1  0
 16 14  1  0
 16 17  2  0
 18 19  1  0
 19 20  2  0
 21 22  1  0
 21 19  1  0
 23 24  1  0
 23 22  1  0
 25 24  1  1
 25 26  1  0
 26 16  1  0
 27 25  1  0
 28 27  1  0
 29 27  2  0
M  END
$$$$
