NQR.pdb
     RDKit          3D

 29 28  0  0  1  0  0  0  0  0999 V2000
   24.3361  -14.3305  -16.3322 N   0  0  0  0  0  0  0  0  0  0  0  0
   23.6696  -14.7382  -17.5163 C   0  0  0  0  0  0  0  0  0  0  0  0
   24.1252  -15.6800  -18.2048 O   0  0  0  0  0  0  0  0  0  0  0  0
   22.4327  -14.0511  -17.9444 C   0  0  0  0  0  0  0  0  0  0  0  0
   22.1612  -12.9356  -16.9469 C   0  0  2  0  0  0  0  0  0  0  0  0
   21.8766  -13.4948  -15.6575 N   0  0  0  0  0  0  0  0  0  0  0  0
   21.0831  -12.0260  -17.4267 C   0  0  0  0  0  0  0  0  0  0  0  0
   21.2377  -11.4905  -18.5445 O   0  0  0  0  0  0  0  0  0  0  0  0
   15.0301  -12.3869  -16.1335 N   0  0  0  0  0  0  0  0  0  0  0  0
   15.1285  -11.0913  -16.7450 C   0  0  0  0  0  0  0  0  0  0  0  0
   14.0082  -10.5018  -16.9389 O   0  0  0  0  0  0  0  0  0  0  0  0
   16.4030  -10.4748  -17.1210 C   0  0  0  0  0  0  0  0  0  0  0  0
   17.5591  -11.3368  -16.7900 C   0  0  0  0  0  0  0  0  0  0  0  0
   18.8920  -10.8095  -17.1554 C   0  0  2  0  0  0  0  0  0  0  0  0
   19.9238  -11.7529  -16.6838 N   0  0  0  0  0  0  0  0  0  0  0  0
   19.2662   -9.4355  -16.9293 C   0  0  0  0  0  0  0  0  0  0  0  0
   20.0607   -9.1061  -16.0190 O   0  0  0  0  0  0  0  0  0  0  0  0
   19.0869   -0.9052  -19.9112 N   0  0  0  0  0  0  0  0  0  0  0  0
   20.1318   -1.8292  -20.2151 C   0  0  0  0  0  0  0  0  0  0  0  0
   21.2747   -1.4430  -20.6740 N   0  0  0  0  0  0  0  0  0  0  0  0
   19.9281   -3.2153  -20.0256 N   0  0  0  0  0  0  0  0  0  0  0  0
   18.6975   -3.6819  -19.4312 C   0  0  0  0  0  0  0  0  0  0  0  0
   19.1206   -4.6290  -18.2982 C   0  0  0  0  0  0  0  0  0  0  0  0
   18.7823   -6.0530  -18.5498 C   0  0  0  0  0  0  0  0  0  0  0  0
   19.1611   -6.9616  -17.4199 C   0  0  2  0  0  0  0  0  0  0  0  0
   18.7639   -8.3444  -17.7181 N   0  0  0  0  0  0  0  0  0  0  0  0
   18.5358   -6.6070  -16.1338 C   0  0  0  0  0  0  0  0  0  0  0  0
   19.2559   -5.9257  -15.1652 O   0  0  0  0  0  0  0  0  0  0  0  0
   17.3576   -6.9017  -15.8747 O   0  0  0  0  0  0  0  0  0  0  0  0
  2  1  1  0
  3  2  2  0
  4  2  1  0
  5  6  1  1
  5  4  1  0
  7  5  1  0
  8  7  2  0
  9 10  1  0
 10 12  1  0
 10 11  2  0
 12 13  1  0
 14 13  1  1
 14 15  1  0
 15  7  1  0
 16 14  1  0
 16 17  2  0
 18 19  1  0
 19 20  2  0
 21 22  1  0
 21 19  1  0
 23 24  1  0
 23 22  1  0
 25 24  1  6
 25 26  1  0
 26 16  1  0
 27 25  1  0
 28 27  1  0
 29 27  2  0
M  END
$$$$
