NQR.pdb
     RDKit          3D

 29 28  0  0  1  0  0  0  0  0999 V2000
   27.8835  -28.1476  -15.5555 N   0  0  0  0  0  0  0  0  0  0  0  0
   27.5853  -27.1540  -16.5231 C   0  0  0  0  0  0  0  0  0  0  0  0
   26.9809  -27.4600  -17.5765 O   0  0  0  0  0  0  0  0  0  0  0  0
   27.9884  -25.7506  -16.2926 C   0  0  0  0  0  0  0  0  0  0  0  0
   26.9176  -24.8612  -16.9053 C   0  0  2  0  0  0  0  0  0  0  0  0
   27.4548  -24.1619  -18.0361 N   0  0  0  0  0  0  0  0  0  0  0  0
   26.3271  -23.9423  -15.8920 C   0  0  0  0  0  0  0  0  0  0  0  0
   25.8434  -24.4568  -14.8617 O   0  0  0  0  0  0  0  0  0  0  0  0
   27.4804  -17.7854  -15.4588 N   0  0  0  0  0  0  0  0  0  0  0  0
   26.5550  -18.2453  -16.4559 C   0  0  0  0  0  0  0  0  0  0  0  0
   26.3269  -17.4132  -17.4022 O   0  0  0  0  0  0  0  0  0  0  0  0
   25.9151  -19.5623  -16.4120 C   0  0  0  0  0  0  0  0  0  0  0  0
   26.2556  -20.3074  -15.1800 C   0  0  0  0  0  0  0  0  0  0  0  0
   25.6682  -21.6590  -15.0514 C   0  0  2  0  0  0  0  0  0  0  0  0
   26.2938  -22.5478  -16.0493 N   0  0  0  0  0  0  0  0  0  0  0  0
   24.2466  -21.8748  -14.9450 C   0  0  0  0  0  0  0  0  0  0  0  0
   23.6986  -22.9105  -15.3871 O   0  0  0  0  0  0  0  0  0  0  0  0
   19.0017  -25.9614  -10.3514 N   0  0  0  0  0  0  0  0  0  0  0  0
   18.2236  -25.3905  -11.4033 C   0  0  0  0  0  0  0  0  0  0  0  0
   17.0658  -25.8584  -11.7294 N   0  0  0  0  0  0  0  0  0  0  0  0
   18.7204  -24.2850  -12.1312 N   0  0  0  0  0  0  0  0  0  0  0  0
   20.1316  -23.9810  -12.0941 C   0  0  0  0  0  0  0  0  0  0  0  0
   20.3343  -22.8424  -13.1052 C   0  0  0  0  0  0  0  0  0  0  0  0
   21.7518  -22.4307  -13.2677 C   0  0  0  0  0  0  0  0  0  0  0  0
   21.9266  -21.2486  -14.1720 C   0  0  2  0  0  0  0  0  0  0  0  0
   23.3523  -20.9315  -14.3324 N   0  0  0  0  0  0  0  0  0  0  0  0
   21.2700  -20.0228  -13.6853 C   0  0  0  0  0  0  0  0  0  0  0  0
   22.0182  -18.9957  -13.1318 O   0  0  0  0  0  0  0  0  0  0  0  0
   20.0397  -19.8675  -13.7523 O   0  0  0  0  0  0  0  0  0  0  0  0
  2  1  1  0
  3  2  2  0
  4  2  1  0
  5  6  1  6
  5  4  1  0
  7  5  1  0
  8  7  2  0
  9 10  1  0
 10 12  1  0
 10 11  2  0
 12 13  1  0
 14 13  1  6
 14 15  1  0
 15  7  1  0
 16 14  1  0
 16 17  2  0
 18 19  1  0
 19 20  2  0
 21 22  1  0
 21 19  1  0
 23 24  1  0
 23 22  1  0
 25 24  1  1
 25 26  1  0
 26 16  1  0
 27 25  1  0
 28 27  1  0
 29 27  2  0
M  END
$$$$
