NQR.pdb
     RDKit          3D

 29 28  0  0  1  0  0  0  0  0999 V2000
   27.5049  -23.6517  -16.9724 N   0  0  0  0  0  0  0  0  0  0  0  0
   28.0161  -22.6472  -16.1108 C   0  0  0  0  0  0  0  0  0  0  0  0
   29.2441  -22.5852  -15.8726 O   0  0  0  0  0  0  0  0  0  0  0  0
   27.0999  -21.6684  -15.4882 C   0  0  0  0  0  0  0  0  0  0  0  0
   26.7748  -20.6158  -16.5367 C   0  0  2  0  0  0  0  0  0  0  0  0
   27.9827  -19.9860  -16.9843 N   0  0  0  0  0  0  0  0  0  0  0  0
   25.7715  -19.6365  -16.0328 C   0  0  0  0  0  0  0  0  0  0  0  0
   25.5421  -19.6283  -14.8050 O   0  0  0  0  0  0  0  0  0  0  0  0
   25.3669  -14.0541  -16.3752 N   0  0  0  0  0  0  0  0  0  0  0  0
   23.9397  -14.2124  -16.3644 C   0  0  0  0  0  0  0  0  0  0  0  0
   23.2883  -13.1886  -15.9549 O   0  0  0  0  0  0  0  0  0  0  0  0
   23.2640  -15.4409  -16.7888 C   0  0  0  0  0  0  0  0  0  0  0  0
   24.2222  -16.5143  -17.1335 C   0  0  0  0  0  0  0  0  0  0  0  0
   24.1153  -17.7621  -16.3462 C   0  0  2  0  0  0  0  0  0  0  0  0
   25.0872  -18.7411  -16.8698 N   0  0  0  0  0  0  0  0  0  0  0  0
   22.8457  -18.3693  -16.0324 C   0  0  0  0  0  0  0  0  0  0  0  0
   22.3206  -19.2293  -16.7760 O   0  0  0  0  0  0  0  0  0  0  0  0
   18.8361  -21.7073  -11.0583 N   0  0  0  0  0  0  0  0  0  0  0  0
   17.5723  -21.0434  -11.0545 C   0  0  0  0  0  0  0  0  0  0  0  0
   16.4579  -21.6936  -11.0195 N   0  0  0  0  0  0  0  0  0  0  0  0
   17.5143  -19.6316  -11.1005 N   0  0  0  0  0  0  0  0  0  0  0  0
   18.7276  -18.8726  -11.2934 C   0  0  0  0  0  0  0  0  0  0  0  0
   19.1569  -19.1438  -12.7433 C   0  0  0  0  0  0  0  0  0  0  0  0
   20.3964  -18.4311  -13.1445 C   0  0  0  0  0  0  0  0  0  0  0  0
   20.8688  -18.7907  -14.5204 C   0  0  2  0  0  0  0  0  0  0  0  0
   22.0871  -18.0413  -14.8569 N   0  0  0  0  0  0  0  0  0  0  0  0
   19.8873  -18.5060  -15.5817 C   0  0  0  0  0  0  0  0  0  0  0  0
   19.0307  -19.4979  -16.0327 O   0  0  0  0  0  0  0  0  0  0  0  0
   19.7932  -17.3829  -16.1031 O   0  0  0  0  0  0  0  0  0  0  0  0
  2  1  1  0
  3  2  2  0
  4  2  1  0
  5  6  1  1
  5  4  1  0
  7  5  1  0
  8  7  2  0
  9 10  1  0
 10 12  1  0
 10 11  2  0
 12 13  1  0
 14 13  1  6
 14 15  1  0
 15  7  1  0
 16 14  1  0
 16 17  2  0
 18 19  1  0
 19 20  2  0
 21 22  1  0
 21 19  1  0
 23 24  1  0
 23 22  1  0
 25 24  1  1
 25 26  1  0
 26 16  1  0
 27 25  1  0
 28 27  1  0
 29 27  2  0
M  END
$$$$
