NQR.pdb
     RDKit          3D

 29 28  0  0  1  0  0  0  0  0999 V2000
   29.3412  -23.7021  -17.0855 N   0  0  0  0  0  0  0  0  0  0  0  0
   28.4966  -24.0340  -18.1759 C   0  0  0  0  0  0  0  0  0  0  0  0
   28.9836  -24.2415  -19.3110 O   0  0  0  0  0  0  0  0  0  0  0  0
   27.0353  -24.1354  -17.9773 C   0  0  0  0  0  0  0  0  0  0  0  0
   26.7460  -23.7834  -16.5263 C   0  0  2  0  0  0  0  0  0  0  0  0
   27.3807  -24.7334  -15.6597 N   0  0  0  0  0  0  0  0  0  0  0  0
   25.2820  -23.6685  -16.2749 C   0  0  0  0  0  0  0  0  0  0  0  0
   24.6147  -22.9739  -17.0703 O   0  0  0  0  0  0  0  0  0  0  0  0
   21.7710  -27.6195  -12.8807 N   0  0  0  0  0  0  0  0  0  0  0  0
   20.8582  -26.5534  -13.1847 C   0  0  0  0  0  0  0  0  0  0  0  0
   19.6556  -26.7461  -12.7890 O   0  0  0  0  0  0  0  0  0  0  0  0
   21.2552  -25.3316  -13.8885 C   0  0  0  0  0  0  0  0  0  0  0  0
   22.6832  -25.3494  -14.2755 C   0  0  0  0  0  0  0  0  0  0  0  0
   23.1947  -24.1303  -14.9391 C   0  0  2  0  0  0  0  0  0  0  0  0
   24.6375  -24.2982  -15.1985 N   0  0  0  0  0  0  0  0  0  0  0  0
   22.8766  -22.8050  -14.4683 C   0  0  0  0  0  0  0  0  0  0  0  0
   23.7581  -22.0230  -14.0442 O   0  0  0  0  0  0  0  0  0  0  0  0
   18.5648  -16.1953  -16.7128 N   0  0  0  0  0  0  0  0  0  0  0  0
   19.7176  -15.8400  -15.9494 C   0  0  0  0  0  0  0  0  0  0  0  0
   19.7252  -14.8231  -15.1546 N   0  0  0  0  0  0  0  0  0  0  0  0
   20.9019  -16.6043  -16.0587 N   0  0  0  0  0  0  0  0  0  0  0  0
   20.8178  -18.0430  -16.1505 C   0  0  0  0  0  0  0  0  0  0  0  0
   21.8487  -18.5807  -15.1464 C   0  0  0  0  0  0  0  0  0  0  0  0
   22.0815  -20.0435  -15.2520 C   0  0  0  0  0  0  0  0  0  0  0  0
   21.3047  -20.8421  -14.2498 C   0  0  2  0  0  0  0  0  0  0  0  0
   21.5395  -22.2793  -14.4455 N   0  0  0  0  0  0  0  0  0  0  0  0
   19.8478  -20.6350  -14.3218 C   0  0  0  0  0  0  0  0  0  0  0  0
   19.0675  -21.4103  -15.1650 O   0  0  0  0  0  0  0  0  0  0  0  0
   19.2743  -19.7706  -13.6392 O   0  0  0  0  0  0  0  0  0  0  0  0
  2  1  1  0
  3  2  2  0
  4  2  1  0
  5  6  1  1
  5  4  1  0
  7  5  1  0
  8  7  2  0
  9 10  1  0
 10 12  1  0
 10 11  2  0
 12 13  1  0
 14 13  1  1
 14 15  1  0
 15  7  1  0
 16 14  1  0
 16 17  2  0
 18 19  1  0
 19 20  2  0
 21 22  1  0
 21 19  1  0
 23 24  1  0
 23 22  1  0
 25 24  1  6
 25 26  1  0
 26 16  1  0
 27 25  1  0
 28 27  1  0
 29 27  2  0
M  END
$$$$
