VIV.pdb
     RDKit          3D

 23 22  0  0  1  0  0  0  0  0999 V2000
    7.4516  -20.0781   16.5600 C   0  0  0  0  0  0  0  0  0  0  0  0
    8.2077  -19.3235   17.6306 C   0  0  2  0  0  0  0  0  0  0  0  0
    7.4973  -19.5053   18.9343 C   0  0  0  0  0  0  0  0  0  0  0  0
    8.3404  -17.8531   17.2680 C   0  0  2  0  0  0  0  0  0  0  0  0
    9.1860  -17.6790   16.1073 N   0  0  0  0  0  0  0  0  0  0  0  0
    8.9209  -17.0736   18.3801 C   0  0  0  0  0  0  0  0  0  0  0  0
   10.1550  -17.1316   18.5841 O   0  0  0  0  0  0  0  0  0  0  0  0
    6.8083  -12.2527   20.0544 C   0  0  0  0  0  0  0  0  0  0  0  0
    7.8439  -13.2838   19.6518 C   0  0  0  0  0  0  0  0  0  0  0  0
    7.8858  -14.3310   20.7403 C   0  0  2  0  0  0  0  0  0  0  0  0
    8.5235  -13.7108   21.9726 C   0  0  0  0  0  0  0  0  0  0  0  0
    8.7586  -15.5085   20.3469 C   0  0  2  0  0  0  0  0  0  0  0  0
    8.1594  -16.2435   19.2545 N   0  0  0  0  0  0  0  0  0  0  0  0
    8.9813  -16.4087   21.5308 C   0  0  0  0  0  0  0  0  0  0  0  0
    8.0149  -16.9970   22.0795 O   0  0  0  0  0  0  0  0  0  0  0  0
   11.5848  -19.1850   21.7377 C   0  0  0  0  0  0  0  0  0  0  0  0
   11.7803  -18.3323   22.9584 C   0  0  2  0  0  0  0  0  0  0  0  0
   12.0615  -19.2362   24.1391 C   0  0  0  0  0  0  0  0  0  0  0  0
   10.5215  -17.5213   23.1764 C   0  0  2  0  0  0  0  0  0  0  0  0
   10.2738  -16.6240   22.0646 N   0  0  0  0  0  0  0  0  0  0  0  0
   10.5873  -16.7184   24.4148 C   0  0  0  0  0  0  0  0  0  0  0  0
   11.1386  -15.5940   24.3873 O   0  0  0  0  0  0  0  0  0  0  0  0
   10.0605  -17.1597   25.6178 O   0  0  0  0  0  0  0  0  0  0  0  0
  2  1  1  6
  2  3  1  0
  4  2  1  0
  4  5  1  6
  6 13  1  0
  6  4  1  0
  7  6  2  0
  8  9  1  0
  9 10  1  0
 10 12  1  0
 10 11  1  1
 12 13  1  6
 12 14  1  0
 14 20  1  0
 15 14  2  0
 17 18  1  1
 17 16  1  0
 19 21  1  0
 19 17  1  0
 19 20  1  6
 21 23  1  0
 22 21  2  0
M  END
$$$$
