VIV.pdb
     RDKit          3D

 23 22  0  0  1  0  0  0  0  0999 V2000
    7.9666  -17.4789   21.4431 C   0  0  0  0  0  0  0  0  0  0  0  0
    6.8175  -16.5113   21.2692 C   0  0  2  0  0  0  0  0  0  0  0  0
    6.0904  -16.8557   20.0082 C   0  0  0  0  0  0  0  0  0  0  0  0
    7.3147  -15.0747   21.2517 C   0  0  2  0  0  0  0  0  0  0  0  0
    8.2270  -14.8545   20.1509 N   0  0  0  0  0  0  0  0  0  0  0  0
    8.0164  -14.7315   22.5052 C   0  0  0  0  0  0  0  0  0  0  0  0
    9.2683  -14.7423   22.5239 O   0  0  0  0  0  0  0  0  0  0  0  0
    5.8909  -11.4153   26.3021 C   0  0  0  0  0  0  0  0  0  0  0  0
    6.8841  -12.0688   25.3618 C   0  0  0  0  0  0  0  0  0  0  0  0
    7.2495  -13.4110   25.9522 C   0  0  2  0  0  0  0  0  0  0  0  0
    8.1403  -13.1724   27.1602 C   0  0  0  0  0  0  0  0  0  0  0  0
    8.0571  -14.2471   24.9767 C   0  0  2  0  0  0  0  0  0  0  0  0
    7.3549  -14.3818   23.7192 N   0  0  0  0  0  0  0  0  0  0  0  0
    8.3475  -15.5991   25.5677 C   0  0  0  0  0  0  0  0  0  0  0  0
    7.4205  -16.4257   25.7634 O   0  0  0  0  0  0  0  0  0  0  0  0
   10.9182  -17.8987   24.1517 C   0  0  0  0  0  0  0  0  0  0  0  0
   11.2224  -17.8463   25.6215 C   0  0  2  0  0  0  0  0  0  0  0  0
   11.5904  -19.2380   26.0884 C   0  0  0  0  0  0  0  0  0  0  0  0
    9.9944  -17.3332   26.3415 C   0  0  2  0  0  0  0  0  0  0  0  0
    9.6618  -15.9859   25.9212 N   0  0  0  0  0  0  0  0  0  0  0  0
   10.1727  -17.3311   27.8081 C   0  0  0  0  0  0  0  0  0  0  0  0
   10.6657  -16.3225   28.3638 O   0  0  0  0  0  0  0  0  0  0  0  0
    9.8148  -18.4072   28.6038 O   0  0  0  0  0  0  0  0  0  0  0  0
  2  1  1  6
  2  3  1  0
  4  2  1  0
  4  5  1  6
  6 13  1  0
  6  4  1  0
  7  6  2  0
  8  9  1  0
  9 10  1  0
 10 12  1  0
 10 11  1  1
 12 13  1  6
 12 14  1  0
 14 20  1  0
 15 14  2  0
 17 18  1  1
 17 16  1  0
 19 21  1  0
 19 17  1  0
 19 20  1  6
 21 23  1  0
 22 21  2  0
M  END
$$$$
