VIV.pdb
     RDKit          3D

 23 22  0  0  1  0  0  0  0  0999 V2000
    7.9101  -17.6571   21.4285 C   0  0  0  0  0  0  0  0  0  0  0  0
    6.7766  -16.6625   21.3134 C   0  0  2  0  0  0  0  0  0  0  0  0
    6.0104  -16.9552   20.0625 C   0  0  0  0  0  0  0  0  0  0  0  0
    7.3022  -15.2360   21.3247 C   0  0  2  0  0  0  0  0  0  0  0  0
    8.1939  -15.0025   20.2097 N   0  0  0  0  0  0  0  0  0  0  0  0
    8.0385  -14.9423   22.5708 C   0  0  0  0  0  0  0  0  0  0  0  0
    9.2888  -15.0114   22.5690 O   0  0  0  0  0  0  0  0  0  0  0  0
    5.9580  -11.6151   26.3801 C   0  0  0  0  0  0  0  0  0  0  0  0
    7.0317  -12.2092   25.4901 C   0  0  0  0  0  0  0  0  0  0  0  0
    7.3509  -13.5861   26.0248 C   0  0  2  0  0  0  0  0  0  0  0  0
    8.2228  -13.4264   27.2592 C   0  0  0  0  0  0  0  0  0  0  0  0
    8.1565  -14.3977   25.0272 C   0  0  2  0  0  0  0  0  0  0  0  0
    7.4130  -14.5784   23.7996 N   0  0  0  0  0  0  0  0  0  0  0  0
    8.5294  -15.7283   25.6205 C   0  0  0  0  0  0  0  0  0  0  0  0
    7.6411  -16.5566   25.9458 O   0  0  0  0  0  0  0  0  0  0  0  0
   11.3738  -17.8475   24.0886 C   0  0  0  0  0  0  0  0  0  0  0  0
   11.5793  -17.8344   25.5763 C   0  0  2  0  0  0  0  0  0  0  0  0
   12.0073  -19.2175   26.0169 C   0  0  0  0  0  0  0  0  0  0  0  0
   10.2767  -17.4289   26.2310 C   0  0  2  0  0  0  0  0  0  0  0  0
    9.8801  -16.0925   25.8318 N   0  0  0  0  0  0  0  0  0  0  0  0
   10.3627  -17.4664   27.7055 C   0  0  0  0  0  0  0  0  0  0  0  0
   10.7336  -16.4421   28.3237 O   0  0  0  0  0  0  0  0  0  0  0  0
   10.0478  -18.5970   28.4417 O   0  0  0  0  0  0  0  0  0  0  0  0
  2  1  1  6
  2  3  1  0
  4  2  1  0
  4  5  1  6
  6 13  1  0
  6  4  1  0
  7  6  2  0
  8  9  1  0
  9 10  1  0
 10 12  1  0
 10 11  1  1
 12 13  1  6
 12 14  1  0
 14 20  1  0
 15 14  2  0
 17 18  1  1
 17 16  1  0
 19 21  1  0
 19 17  1  0
 19 20  1  1
 21 23  1  0
 22 21  2  0
M  END
$$$$
