VIV.pdb
     RDKit          3D

 23 22  0  0  1  0  0  0  0  0999 V2000
    7.8420  -20.7436   17.8293 C   0  0  0  0  0  0  0  0  0  0  0  0
    8.4917  -19.7706   18.7875 C   0  0  2  0  0  0  0  0  0  0  0  0
    7.8349  -19.9070   20.1244 C   0  0  0  0  0  0  0  0  0  0  0  0
    8.3981  -18.3469   18.2628 C   0  0  2  0  0  0  0  0  0  0  0  0
    9.1357  -18.1996   17.0270 N   0  0  0  0  0  0  0  0  0  0  0  0
    8.9365  -17.3763   19.2372 C   0  0  0  0  0  0  0  0  0  0  0  0
   10.1774  -17.2566   19.3540 O   0  0  0  0  0  0  0  0  0  0  0  0
    6.8487  -12.4222   20.2207 C   0  0  0  0  0  0  0  0  0  0  0  0
    7.7952  -13.5801   19.9739 C   0  0  0  0  0  0  0  0  0  0  0  0
    7.8084  -14.4274   21.2251 C   0  0  2  0  0  0  0  0  0  0  0  0
    8.4189  -13.6065   22.3489 C   0  0  0  0  0  0  0  0  0  0  0  0
    8.6865  -15.6537   21.0578 C   0  0  2  0  0  0  0  0  0  0  0  0
    8.1261  -16.5501   20.0705 N   0  0  0  0  0  0  0  0  0  0  0  0
    8.8535  -16.3570   22.3765 C   0  0  0  0  0  0  0  0  0  0  0  0
    7.8500  -16.7388   23.0309 O   0  0  0  0  0  0  0  0  0  0  0  0
   12.5850  -17.9469   23.4501 C   0  0  0  0  0  0  0  0  0  0  0  0
   11.2879  -18.4997   23.9673 C   0  0  2  0  0  0  0  0  0  0  0  0
   10.7555  -19.5006   22.9648 C   0  0  0  0  0  0  0  0  0  0  0  0
   10.3244  -17.3485   24.1574 C   0  0  2  0  0  0  0  0  0  0  0  0
   10.1334  -16.6121   22.9229 N   0  0  0  0  0  0  0  0  0  0  0  0
   10.7879  -16.4037   25.1943 C   0  0  0  0  0  0  0  0  0  0  0  0
   11.3005  -15.3151   24.8461 O   0  0  0  0  0  0  0  0  0  0  0  0
   10.6790  -16.6720   26.5491 O   0  0  0  0  0  0  0  0  0  0  0  0
  2  1  1  6
  2  3  1  0
  4  2  1  0
  4  5  1  6
  6 13  1  0
  6  4  1  0
  7  6  2  0
  8  9  1  0
  9 10  1  0
 10 12  1  0
 10 11  1  1
 12 13  1  6
 12 14  1  0
 14 20  1  0
 15 14  2  0
 17 18  1  6
 17 16  1  0
 19 21  1  0
 19 17  1  0
 19 20  1  6
 21 23  1  0
 22 21  2  0
M  END
$$$$
