VIV.pdb
     RDKit          3D

 23 22  0  0  1  0  0  0  0  0999 V2000
    7.5955  -17.2081   20.9604 C   0  0  0  0  0  0  0  0  0  0  0  0
    6.5668  -16.1000   20.9293 C   0  0  2  0  0  0  0  0  0  0  0  0
    5.7897  -16.2062   19.6556 C   0  0  0  0  0  0  0  0  0  0  0  0
    7.2299  -14.7390   21.0663 C   0  0  2  0  0  0  0  0  0  0  0  0
    8.1954  -14.5233   20.0108 N   0  0  0  0  0  0  0  0  0  0  0  0
    7.9281  -14.6070   22.3611 C   0  0  0  0  0  0  0  0  0  0  0  0
    9.1734  -14.7327   22.3960 O   0  0  0  0  0  0  0  0  0  0  0  0
    5.7427  -11.6108   26.4744 C   0  0  0  0  0  0  0  0  0  0  0  0
    6.7648  -12.1276   25.4814 C   0  0  0  0  0  0  0  0  0  0  0  0
    7.1233  -13.5364   25.8940 C   0  0  2  0  0  0  0  0  0  0  0  0
    7.9553  -13.4630   27.1636 C   0  0  0  0  0  0  0  0  0  0  0  0
    7.9861  -14.2200   24.8493 C   0  0  2  0  0  0  0  0  0  0  0  0
    7.2703  -14.3412   23.5982 N   0  0  0  0  0  0  0  0  0  0  0  0
    8.4243  -15.5719   25.3411 C   0  0  0  0  0  0  0  0  0  0  0  0
    7.5764  -16.4480   25.6484 O   0  0  0  0  0  0  0  0  0  0  0  0
   11.3598  -17.6450   23.7411 C   0  0  0  0  0  0  0  0  0  0  0  0
   11.5669  -17.5708   25.2267 C   0  0  2  0  0  0  0  0  0  0  0  0
   12.0780  -18.9105   25.7106 C   0  0  0  0  0  0  0  0  0  0  0  0
   10.2435  -17.2230   25.8728 C   0  0  2  0  0  0  0  0  0  0  0  0
    9.7933  -15.9035   25.4741 N   0  0  0  0  0  0  0  0  0  0  0  0
   10.3202  -17.2610   27.3477 C   0  0  0  0  0  0  0  0  0  0  0  0
    9.9627  -18.2977   27.9531 O   0  0  0  0  0  0  0  0  0  0  0  0
   10.7750  -16.1889   28.0981 O   0  0  0  0  0  0  0  0  0  0  0  0
  2  1  1  6
  2  3  1  0
  4  2  1  0
  4  5  1  6
  6 13  1  0
  6  4  1  0
  7  6  2  0
  8  9  1  0
  9 10  1  0
 10 12  1  0
 10 11  1  1
 12 13  1  6
 12 14  1  0
 14 20  1  0
 15 14  2  0
 17 18  1  1
 17 16  1  0
 19 21  1  0
 19 17  1  0
 19 20  1  1
 21 23  1  0
 22 21  2  0
M  END
$$$$
