VIV.pdb
     RDKit          3D

 23 22  0  0  1  0  0  0  0  0999 V2000
   13.2896  -18.6809   22.8510 C   0  0  0  0  0  0  0  0  0  0  0  0
   12.1599  -19.0876   21.9315 C   0  0  2  0  0  0  0  0  0  0  0  0
   12.6077  -20.2576   21.1142 C   0  0  0  0  0  0  0  0  0  0  0  0
   11.7299  -17.9246   21.0518 C   0  0  2  0  0  0  0  0  0  0  0  0
   12.8422  -17.4219   20.2755 N   0  0  0  0  0  0  0  0  0  0  0  0
   11.1908  -16.8099   21.8569 C   0  0  0  0  0  0  0  0  0  0  0  0
   11.9104  -15.8064   22.0648 O   0  0  0  0  0  0  0  0  0  0  0  0
    6.3671  -14.4703   21.3800 C   0  0  0  0  0  0  0  0  0  0  0  0
    7.8402  -14.7459   21.6078 C   0  0  0  0  0  0  0  0  0  0  0  0
    7.9752  -15.3816   22.9721 C   0  0  2  0  0  0  0  0  0  0  0  0
    7.5378  -14.3665   24.0151 C   0  0  0  0  0  0  0  0  0  0  0  0
    9.4191  -15.7289   23.2841 C   0  0  2  0  0  0  0  0  0  0  0  0
    9.8828  -16.7962   22.4249 N   0  0  0  0  0  0  0  0  0  0  0  0
    9.5596  -16.1154   24.7305 C   0  0  0  0  0  0  0  0  0  0  0  0
    9.4346  -17.3142   25.0888 O   0  0  0  0  0  0  0  0  0  0  0  0
   10.6794  -13.1737   27.5303 C   0  0  0  0  0  0  0  0  0  0  0  0
    9.8919  -14.3466   28.0400 C   0  0  2  0  0  0  0  0  0  0  0  0
   10.3575  -14.6676   29.4438 C   0  0  0  0  0  0  0  0  0  0  0  0
   10.1224  -15.5142   27.1055 C   0  0  2  0  0  0  0  0  0  0  0  0
    9.8351  -15.1533   25.7308 N   0  0  0  0  0  0  0  0  0  0  0  0
    9.2904  -16.6818   27.4622 C   0  0  0  0  0  0  0  0  0  0  0  0
    8.0884  -16.7078   27.1108 O   0  0  0  0  0  0  0  0  0  0  0  0
    9.7871  -17.7605   28.1759 O   0  0  0  0  0  0  0  0  0  0  0  0
  2  1  1  1
  2  3  1  0
  4  2  1  0
  4  5  1  1
  6 13  1  0
  6  4  1  0
  7  6  2  0
  8  9  1  0
  9 10  1  0
 10 12  1  0
 10 11  1  1
 12 13  1  6
 12 14  1  0
 14 20  1  0
 15 14  2  0
 17 18  1  1
 17 16  1  0
 19 21  1  0
 19 17  1  0
 19 20  1  6
 21 23  1  0
 22 21  2  0
M  END
$$$$
