VIV.pdb
     RDKit          3D

 23 22  0  0  1  0  0  0  0  0999 V2000
    6.3139  -16.3616   19.2413 C   0  0  0  0  0  0  0  0  0  0  0  0
    7.0800  -16.2105   20.5365 C   0  0  2  0  0  0  0  0  0  0  0  0
    6.4090  -17.0375   21.5869 C   0  0  0  0  0  0  0  0  0  0  0  0
    7.1680  -14.7498   20.9485 C   0  0  2  0  0  0  0  0  0  0  0  0
    7.8419  -13.9649   19.9373 N   0  0  0  0  0  0  0  0  0  0  0  0
    7.9041  -14.5912   22.2191 C   0  0  0  0  0  0  0  0  0  0  0  0
    9.1561  -14.5834   22.1996 O   0  0  0  0  0  0  0  0  0  0  0  0
    5.8498  -11.6121   26.3209 C   0  0  0  0  0  0  0  0  0  0  0  0
    6.8405  -12.1668   25.3167 C   0  0  0  0  0  0  0  0  0  0  0  0
    7.2016  -13.5646   25.7631 C   0  0  2  0  0  0  0  0  0  0  0  0
    8.0704  -13.4575   27.0054 C   0  0  0  0  0  0  0  0  0  0  0  0
    8.0294  -14.2870   24.7163 C   0  0  2  0  0  0  0  0  0  0  0  0
    7.2765  -14.4433   23.4911 N   0  0  0  0  0  0  0  0  0  0  0  0
    8.4739  -15.6254   25.2382 C   0  0  0  0  0  0  0  0  0  0  0  0
    7.6305  -16.4823   25.6064 O   0  0  0  0  0  0  0  0  0  0  0  0
   11.3431  -17.7315   23.5580 C   0  0  0  0  0  0  0  0  0  0  0  0
   11.5979  -17.6455   25.0356 C   0  0  2  0  0  0  0  0  0  0  0  0
   12.1196  -18.9830   25.5144 C   0  0  0  0  0  0  0  0  0  0  0  0
   10.2971  -17.2872   25.7207 C   0  0  2  0  0  0  0  0  0  0  0  0
    9.8441  -15.9655   25.3329 N   0  0  0  0  0  0  0  0  0  0  0  0
   10.4181  -17.3229   27.1927 C   0  0  0  0  0  0  0  0  0  0  0  0
   10.1028  -18.3673   27.8081 O   0  0  0  0  0  0  0  0  0  0  0  0
   10.8699  -16.2401   27.9296 O   0  0  0  0  0  0  0  0  0  0  0  0
  2  1  1  6
  2  3  1  0
  4  2  1  0
  4  5  1  6
  6 13  1  0
  6  4  1  0
  7  6  2  0
  8  9  1  0
  9 10  1  0
 10 12  1  0
 10 11  1  1
 12 13  1  6
 12 14  1  0
 14 20  1  0
 15 14  2  0
 17 18  1  1
 17 16  1  0
 19 21  1  0
 19 17  1  0
 19 20  1  1
 21 23  1  0
 22 21  2  0
M  END
$$$$
