VIV.pdb
     RDKit          3D

 23 22  0  0  1  0  0  0  0  0999 V2000
    7.8764  -17.4141   21.2801 C   0  0  0  0  0  0  0  0  0  0  0  0
    6.7061  -16.4592   21.2036 C   0  0  2  0  0  0  0  0  0  0  0  0
    5.9438  -16.7385   19.9473 C   0  0  0  0  0  0  0  0  0  0  0  0
    7.1784  -15.0153   21.2602 C   0  0  2  0  0  0  0  0  0  0  0  0
    8.0327  -14.7041   20.1350 N   0  0  0  0  0  0  0  0  0  0  0  0
    7.9343  -14.7432   22.4996 C   0  0  0  0  0  0  0  0  0  0  0  0
    9.1858  -14.7647   22.4657 O   0  0  0  0  0  0  0  0  0  0  0  0
    5.9681  -11.5221   26.4989 C   0  0  0  0  0  0  0  0  0  0  0  0
    6.9470  -12.1227   25.5096 C   0  0  0  0  0  0  0  0  0  0  0  0
    7.2955  -13.5078   26.0030 C   0  0  2  0  0  0  0  0  0  0  0  0
    8.1876  -13.3667   27.2252 C   0  0  0  0  0  0  0  0  0  0  0  0
    8.0940  -14.2820   24.9707 C   0  0  2  0  0  0  0  0  0  0  0  0
    7.3265  -14.4519   23.7564 N   0  0  0  0  0  0  0  0  0  0  0  0
    8.5063  -15.6170   25.5269 C   0  0  0  0  0  0  0  0  0  0  0  0
    7.6444  -16.4887   25.8068 O   0  0  0  0  0  0  0  0  0  0  0  0
   11.3042  -17.7464   23.9977 C   0  0  0  0  0  0  0  0  0  0  0  0
   11.5800  -17.6602   25.4715 C   0  0  2  0  0  0  0  0  0  0  0  0
   12.0643  -19.0110   25.9521 C   0  0  0  0  0  0  0  0  0  0  0  0
   10.2999  -17.2563   26.1702 C   0  0  2  0  0  0  0  0  0  0  0  0
    9.8658  -15.9371   25.7531 N   0  0  0  0  0  0  0  0  0  0  0  0
   10.4486  -17.2526   27.6401 C   0  0  0  0  0  0  0  0  0  0  0  0
   10.8121  -16.2016   28.2164 O   0  0  0  0  0  0  0  0  0  0  0  0
   10.2009  -18.3728   28.4169 O   0  0  0  0  0  0  0  0  0  0  0  0
  2  1  1  6
  2  3  1  0
  4  2  1  0
  4  5  1  6
  6 13  1  0
  6  4  1  0
  7  6  2  0
  8  9  1  0
  9 10  1  0
 10 12  1  0
 10 11  1  1
 12 13  1  6
 12 14  1  0
 14 20  1  0
 15 14  2  0
 17 18  1  1
 17 16  1  0
 19 21  1  0
 19 17  1  0
 19 20  1  6
 21 23  1  0
 22 21  2  0
M  END
$$$$
