VIV.pdb
     RDKit          3D

 23 22  0  0  1  0  0  0  0  0999 V2000
    5.5016  -20.8193   25.4268 C   0  0  0  0  0  0  0  0  0  0  0  0
    6.4284  -19.7513   24.8906 C   0  0  2  0  0  0  0  0  0  0  0  0
    7.5128  -19.5134   25.8930 C   0  0  0  0  0  0  0  0  0  0  0  0
    5.6642  -18.4739   24.5818 C   0  0  2  0  0  0  0  0  0  0  0  0
    4.6923  -18.6911   23.5326 N   0  0  0  0  0  0  0  0  0  0  0  0
    6.5730  -17.3929   24.1492 C   0  0  0  0  0  0  0  0  0  0  0  0
    6.9376  -17.3477   22.9522 O   0  0  0  0  0  0  0  0  0  0  0  0
    7.5351  -12.8303   27.3329 C   0  0  0  0  0  0  0  0  0  0  0  0
    7.6382  -14.2266   26.7521 C   0  0  0  0  0  0  0  0  0  0  0  0
    7.8545  -14.0820   25.2636 C   0  0  2  0  0  0  0  0  0  0  0  0
    6.5874  -13.5067   24.6526 C   0  0  0  0  0  0  0  0  0  0  0  0
    8.0827  -15.4279   24.6007 C   0  0  2  0  0  0  0  0  0  0  0  0
    7.0737  -16.3774   25.0163 N   0  0  0  0  0  0  0  0  0  0  0  0
    9.4581  -15.9411   24.9268 C   0  0  0  0  0  0  0  0  0  0  0  0
    9.7034  -16.4478   26.0512 O   0  0  0  0  0  0  0  0  0  0  0  0
   12.0736  -16.8104   21.7494 C   0  0  0  0  0  0  0  0  0  0  0  0
   11.9897  -17.5781   23.0374 C   0  0  2  0  0  0  0  0  0  0  0  0
   10.8490  -18.5675   22.9366 C   0  0  0  0  0  0  0  0  0  0  0  0
   11.7625  -16.5923   24.1627 C   0  0  2  0  0  0  0  0  0  0  0  0
   10.5155  -15.8730   23.9892 N   0  0  0  0  0  0  0  0  0  0  0  0
   12.8572  -15.6053   24.2639 C   0  0  0  0  0  0  0  0  0  0  0  0
   12.6986  -14.4625   23.7763 O   0  0  0  0  0  0  0  0  0  0  0  0
   14.0641  -15.8919   24.8810 O   0  0  0  0  0  0  0  0  0  0  0  0
  2  1  1  1
  2  3  1  0
  4  2  1  0
  4  5  1  6
  6 13  1  0
  6  4  1  0
  7  6  2  0
  8  9  1  0
  9 10  1  0
 10 12  1  0
 10 11  1  6
 12 13  1  1
 12 14  1  0
 14 20  1  0
 15 14  2  0
 17 18  1  6
 17 16  1  0
 19 21  1  0
 19 17  1  0
 19 20  1  6
 21 23  1  0
 22 21  2  0
M  END
$$$$
