VIV.pdb
     RDKit          3D

 23 22  0  0  1  0  0  0  0  0999 V2000
    6.5710  -16.6325   19.3398 C   0  0  0  0  0  0  0  0  0  0  0  0
    7.2866  -16.3487   20.6416 C   0  0  2  0  0  0  0  0  0  0  0  0
    6.6773  -17.1938   21.7150 C   0  0  0  0  0  0  0  0  0  0  0  0
    7.2170  -14.8703   20.9888 C   0  0  2  0  0  0  0  0  0  0  0  0
    7.8158  -14.0638   19.9478 N   0  0  0  0  0  0  0  0  0  0  0  0
    7.9190  -14.5800   22.2554 C   0  0  0  0  0  0  0  0  0  0  0  0
    9.1620  -14.4293   22.2410 O   0  0  0  0  0  0  0  0  0  0  0  0
    5.7644  -11.5910   26.2660 C   0  0  0  0  0  0  0  0  0  0  0  0
    6.7290  -12.1804   25.2561 C   0  0  0  0  0  0  0  0  0  0  0  0
    7.1501  -13.5369   25.7718 C   0  0  2  0  0  0  0  0  0  0  0  0
    8.0258  -13.3292   26.9964 C   0  0  0  0  0  0  0  0  0  0  0  0
    7.9961  -14.2810   24.7552 C   0  0  2  0  0  0  0  0  0  0  0  0
    7.2676  -14.4569   23.5180 N   0  0  0  0  0  0  0  0  0  0  0  0
    8.4250  -15.6113   25.3102 C   0  0  0  0  0  0  0  0  0  0  0  0
    7.5728  -16.4381   25.7238 O   0  0  0  0  0  0  0  0  0  0  0  0
   11.4479  -17.6607   23.7210 C   0  0  0  0  0  0  0  0  0  0  0  0
   11.5759  -17.6406   25.2172 C   0  0  2  0  0  0  0  0  0  0  0  0
   12.0430  -19.0035   25.6804 C   0  0  0  0  0  0  0  0  0  0  0  0
   10.2243  -17.2956   25.8038 C   0  0  2  0  0  0  0  0  0  0  0  0
    9.7897  -15.9769   25.3860 N   0  0  0  0  0  0  0  0  0  0  0  0
   10.2353  -17.3342   27.2807 C   0  0  0  0  0  0  0  0  0  0  0  0
   10.5768  -16.3112   27.9177 O   0  0  0  0  0  0  0  0  0  0  0  0
    9.8806  -18.4645   27.9992 O   0  0  0  0  0  0  0  0  0  0  0  0
  2  1  1  6
  2  3  1  0
  4  2  1  0
  4  5  1  6
  6 13  1  0
  6  4  1  0
  7  6  2  0
  8  9  1  0
  9 10  1  0
 10 12  1  0
 10 11  1  1
 12 13  1  6
 12 14  1  0
 14 20  1  0
 15 14  2  0
 17 18  1  1
 17 16  1  0
 19 21  1  0
 19 17  1  0
 19 20  1  1
 21 23  1  0
 22 21  2  0
M  END
$$$$
