VIV.pdb
     RDKit          3D

 23 22  0  0  1  0  0  0  0  0999 V2000
    6.5205  -16.2357   19.3130 C   0  0  0  0  0  0  0  0  0  0  0  0
    7.2807  -16.0457   20.6064 C   0  0  2  0  0  0  0  0  0  0  0  0
    6.6515  -16.9014   21.6597 C   0  0  0  0  0  0  0  0  0  0  0  0
    7.3000  -14.5816   21.0153 C   0  0  2  0  0  0  0  0  0  0  0  0
    7.9715  -13.7737   20.0207 N   0  0  0  0  0  0  0  0  0  0  0  0
    7.9929  -14.3910   22.3057 C   0  0  0  0  0  0  0  0  0  0  0  0
    9.2448  -14.3756   22.3272 O   0  0  0  0  0  0  0  0  0  0  0  0
    5.9122  -11.4273   26.4285 C   0  0  0  0  0  0  0  0  0  0  0  0
    6.8780  -12.0075   25.4144 C   0  0  0  0  0  0  0  0  0  0  0  0
    7.1980  -13.4183   25.8509 C   0  0  2  0  0  0  0  0  0  0  0  0
    8.0434  -13.3458   27.1117 C   0  0  0  0  0  0  0  0  0  0  0  0
    8.0304  -14.1472   24.8124 C   0  0  2  0  0  0  0  0  0  0  0  0
    7.3228  -14.2200   23.5528 N   0  0  0  0  0  0  0  0  0  0  0  0
    8.3820  -15.5249   25.3019 C   0  0  0  0  0  0  0  0  0  0  0  0
    7.4898  -16.3972   25.4570 O   0  0  0  0  0  0  0  0  0  0  0  0
   11.0018  -17.6799   23.6985 C   0  0  0  0  0  0  0  0  0  0  0  0
   11.3406  -17.6620   25.1615 C   0  0  2  0  0  0  0  0  0  0  0  0
   11.7968  -19.0464   25.5686 C   0  0  0  0  0  0  0  0  0  0  0  0
   10.1052  -17.2441   25.9289 C   0  0  2  0  0  0  0  0  0  0  0  0
    9.7167  -15.8858   25.6025 N   0  0  0  0  0  0  0  0  0  0  0  0
   10.3050  -17.3311   27.3902 C   0  0  0  0  0  0  0  0  0  0  0  0
   10.3879  -18.4578   27.9311 O   0  0  0  0  0  0  0  0  0  0  0  0
   10.4056  -16.2090   28.1965 O   0  0  0  0  0  0  0  0  0  0  0  0
  2  1  1  6
  2  3  1  0
  4  2  1  0
  4  5  1  6
  6 13  1  0
  6  4  1  0
  7  6  2  0
  8  9  1  0
  9 10  1  0
 10 12  1  0
 10 11  1  1
 12 13  1  6
 12 14  1  0
 14 20  1  0
 15 14  2  0
 17 18  1  1
 17 16  1  0
 19 21  1  0
 19 17  1  0
 19 20  1  1
 21 23  1  0
 22 21  2  0
M  END
$$$$
