VIV.pdb
     RDKit          3D

 23 22  0  0  1  0  0  0  0  0999 V2000
    7.7885  -17.4136   21.1109 C   0  0  0  0  0  0  0  0  0  0  0  0
    6.7786  -16.2897   21.0470 C   0  0  2  0  0  0  0  0  0  0  0  0
    6.0229  -16.4000   19.7608 C   0  0  0  0  0  0  0  0  0  0  0  0
    7.4611  -14.9377   21.1788 C   0  0  2  0  0  0  0  0  0  0  0  0
    8.4219  -14.7355   20.1164 N   0  0  0  0  0  0  0  0  0  0  0  0
    8.1701  -14.8148   22.4686 C   0  0  0  0  0  0  0  0  0  0  0  0
    9.4097  -14.9887   22.5000 O   0  0  0  0  0  0  0  0  0  0  0  0
    5.9711  -11.7159   26.4026 C   0  0  0  0  0  0  0  0  0  0  0  0
    7.0285  -12.2573   25.4610 C   0  0  0  0  0  0  0  0  0  0  0  0
    7.4344  -13.6199   25.9729 C   0  0  2  0  0  0  0  0  0  0  0  0
    8.3265  -13.4252   27.1877 C   0  0  0  0  0  0  0  0  0  0  0  0
    8.2577  -14.3773   24.9476 C   0  0  2  0  0  0  0  0  0  0  0  0
    7.5292  -14.5059   23.7045 N   0  0  0  0  0  0  0  0  0  0  0  0
    8.6352  -15.7314   25.4819 C   0  0  0  0  0  0  0  0  0  0  0  0
    7.7499  -16.5773   25.7680 O   0  0  0  0  0  0  0  0  0  0  0  0
   11.6169  -17.8407   24.0096 C   0  0  0  0  0  0  0  0  0  0  0  0
   11.7358  -17.8013   25.5062 C   0  0  2  0  0  0  0  0  0  0  0  0
   12.1864  -19.1623   25.9909 C   0  0  0  0  0  0  0  0  0  0  0  0
   10.3842  -17.4350   26.0794 C   0  0  2  0  0  0  0  0  0  0  0  0
    9.9871  -16.0988   25.6799 N   0  0  0  0  0  0  0  0  0  0  0  0
   10.3721  -17.5007   27.5553 C   0  0  0  0  0  0  0  0  0  0  0  0
   10.0367  -18.5683   28.1182 O   0  0  0  0  0  0  0  0  0  0  0  0
   10.7192  -16.4218   28.3521 O   0  0  0  0  0  0  0  0  0  0  0  0
  2  1  1  6
  2  3  1  0
  4  2  1  0
  4  5  1  6
  6 13  1  0
  6  4  1  0
  7  6  2  0
  8  9  1  0
  9 10  1  0
 10 12  1  0
 10 11  1  1
 12 13  1  6
 12 14  1  0
 14 20  1  0
 15 14  2  0
 17 18  1  1
 17 16  1  0
 19 21  1  0
 19 17  1  0
 19 20  1  1
 21 23  1  0
 22 21  2  0
M  END
$$$$
