VIV.pdb
     RDKit          3D

 23 22  0  0  1  0  0  0  0  0999 V2000
    7.4932  -17.3353   21.1502 C   0  0  0  0  0  0  0  0  0  0  0  0
    6.5511  -16.1625   20.9953 C   0  0  2  0  0  0  0  0  0  0  0  0
    5.8706  -16.2694   19.6675 C   0  0  0  0  0  0  0  0  0  0  0  0
    7.2960  -14.8448   21.1358 C   0  0  2  0  0  0  0  0  0  0  0  0
    8.3305  -14.7237   20.1319 N   0  0  0  0  0  0  0  0  0  0  0  0
    7.9291  -14.7221   22.4646 C   0  0  0  0  0  0  0  0  0  0  0  0
    9.1592  -14.9293   22.5735 O   0  0  0  0  0  0  0  0  0  0  0  0
    5.9288  -11.3261   26.2468 C   0  0  0  0  0  0  0  0  0  0  0  0
    6.9202  -12.0506   25.3580 C   0  0  0  0  0  0  0  0  0  0  0  0
    7.0777  -13.4507   25.9044 C   0  0  2  0  0  0  0  0  0  0  0  0
    7.8862  -13.3717   27.1889 C   0  0  0  0  0  0  0  0  0  0  0  0
    7.8619  -14.3349   24.9525 C   0  0  2  0  0  0  0  0  0  0  0  0
    7.2237  -14.3773   23.6551 N   0  0  0  0  0  0  0  0  0  0  0  0
    7.9958  -15.7204   25.5216 C   0  0  0  0  0  0  0  0  0  0  0  0
    6.9783  -16.4295   25.7288 O   0  0  0  0  0  0  0  0  0  0  0  0
   11.5759  -17.8185   25.2100 C   0  0  0  0  0  0  0  0  0  0  0  0
   10.2342  -18.4690   25.3891 C   0  0  2  0  0  0  0  0  0  0  0  0
    9.5627  -18.5713   24.0367 C   0  0  0  0  0  0  0  0  0  0  0  0
    9.4203  -17.6217   26.3427 C   0  0  2  0  0  0  0  0  0  0  0  0
    9.2596  -16.2708   25.8411 N   0  0  0  0  0  0  0  0  0  0  0  0
   10.0372  -17.5486   27.6832 C   0  0  0  0  0  0  0  0  0  0  0  0
   10.0527  -18.5708   28.4069 O   0  0  0  0  0  0  0  0  0  0  0  0
   10.6049  -16.3865   28.1797 O   0  0  0  0  0  0  0  0  0  0  0  0
  2  1  1  6
  2  3  1  0
  4  2  1  0
  4  5  1  6
  6 13  1  0
  6  4  1  0
  7  6  2  0
  8  9  1  0
  9 10  1  0
 10 12  1  0
 10 11  1  1
 12 13  1  6
 12 14  1  0
 14 20  1  0
 15 14  2  0
 17 18  1  6
 17 16  1  0
 19 21  1  0
 19 17  1  0
 19 20  1  6
 21 23  1  0
 22 21  2  0
M  END
$$$$
