VIV.pdb
     RDKit          3D

 23 22  0  0  1  0  0  0  0  0999 V2000
    8.1160  -17.3862   21.3038 C   0  0  0  0  0  0  0  0  0  0  0  0
    6.9667  -16.4171   21.1393 C   0  0  2  0  0  0  0  0  0  0  0  0
    6.2646  -16.7232   19.8545 C   0  0  0  0  0  0  0  0  0  0  0  0
    7.4589  -14.9792   21.1771 C   0  0  2  0  0  0  0  0  0  0  0  0
    8.4075  -14.7271   20.1144 N   0  0  0  0  0  0  0  0  0  0  0  0
    8.1160  -14.6676   22.4626 C   0  0  0  0  0  0  0  0  0  0  0  0
    9.3663  -14.6896   22.5274 O   0  0  0  0  0  0  0  0  0  0  0  0
    5.8553  -11.5011   26.3154 C   0  0  0  0  0  0  0  0  0  0  0  0
    6.9353  -12.0932   25.4317 C   0  0  0  0  0  0  0  0  0  0  0  0
    7.2152  -13.4902   25.9350 C   0  0  2  0  0  0  0  0  0  0  0  0
    8.0286  -13.3809   27.2141 C   0  0  0  0  0  0  0  0  0  0  0  0
    8.0597  -14.2778   24.9504 C   0  0  2  0  0  0  0  0  0  0  0  0
    7.4125  -14.3369   23.6582 N   0  0  0  0  0  0  0  0  0  0  0  0
    8.3161  -15.6628   25.4773 C   0  0  0  0  0  0  0  0  0  0  0  0
    7.3733  -16.4852   25.6039 O   0  0  0  0  0  0  0  0  0  0  0  0
   11.2730  -19.4402   25.7539 C   0  0  0  0  0  0  0  0  0  0  0  0
   10.9444  -18.0574   25.2686 C   0  0  2  0  0  0  0  0  0  0  0  0
   12.2159  -17.2368   25.2512 C   0  0  0  0  0  0  0  0  0  0  0  0
    9.9178  -17.4581   26.2050 C   0  0  2  0  0  0  0  0  0  0  0  0
    9.6148  -16.0863   25.8460 N   0  0  0  0  0  0  0  0  0  0  0  0
   10.3707  -17.4805   27.6110 C   0  0  0  0  0  0  0  0  0  0  0  0
   10.7747  -16.4202   28.1415 O   0  0  0  0  0  0  0  0  0  0  0  0
   10.3682  -18.6354   28.3763 O   0  0  0  0  0  0  0  0  0  0  0  0
  2  1  1  6
  2  3  1  0
  4  2  1  0
  4  5  1  6
  6 13  1  0
  6  4  1  0
  7  6  2  0
  8  9  1  0
  9 10  1  0
 10 12  1  0
 10 11  1  1
 12 13  1  6
 12 14  1  0
 14 20  1  0
 15 14  2  0
 17 18  1  1
 17 16  1  0
 19 21  1  0
 19 17  1  0
 19 20  1  6
 21 23  1  0
 22 21  2  0
M  END
$$$$
