VIV.pdb
     RDKit          3D

 23 22  0  0  1  0  0  0  0  0999 V2000
    6.0013  -17.1229   20.0629 C   0  0  0  0  0  0  0  0  0  0  0  0
    6.9046  -16.7829   21.2272 C   0  0  2  0  0  0  0  0  0  0  0  0
    6.4078  -17.5006   22.4419 C   0  0  0  0  0  0  0  0  0  0  0  0
    6.9605  -15.2803   21.4509 C   0  0  2  0  0  0  0  0  0  0  0  0
    7.5188  -14.6045   20.3002 N   0  0  0  0  0  0  0  0  0  0  0  0
    7.7855  -14.9405   22.6279 C   0  0  0  0  0  0  0  0  0  0  0  0
    9.0302  -14.8866   22.5029 O   0  0  0  0  0  0  0  0  0  0  0  0
    6.0027  -11.6021   26.5221 C   0  0  0  0  0  0  0  0  0  0  0  0
    6.9608  -12.2412   25.5366 C   0  0  0  0  0  0  0  0  0  0  0  0
    7.3634  -13.5830   26.1032 C   0  0  2  0  0  0  0  0  0  0  0  0
    8.3409  -13.3444   27.2421 C   0  0  0  0  0  0  0  0  0  0  0  0
    8.0944  -14.4253   25.0740 C   0  0  2  0  0  0  0  0  0  0  0  0
    7.2532  -14.6642   23.9218 N   0  0  0  0  0  0  0  0  0  0  0  0
    8.5353  -15.7263   25.6859 C   0  0  0  0  0  0  0  0  0  0  0  0
    7.6935  -16.5240   26.1719 O   0  0  0  0  0  0  0  0  0  0  0  0
   11.2790  -17.9627   23.9706 C   0  0  0  0  0  0  0  0  0  0  0  0
   11.5994  -17.8301   25.4319 C   0  0  2  0  0  0  0  0  0  0  0  0
   12.1074  -19.1628   25.9379 C   0  0  0  0  0  0  0  0  0  0  0  0
   10.3389  -17.4125   26.1574 C   0  0  2  0  0  0  0  0  0  0  0  0
    9.9000  -16.0962   25.7360 N   0  0  0  0  0  0  0  0  0  0  0  0
   10.5240  -17.3927   27.6230 C   0  0  0  0  0  0  0  0  0  0  0  0
   10.9115  -16.3383   28.1773 O   0  0  0  0  0  0  0  0  0  0  0  0
   10.2853  -18.5010   28.4192 O   0  0  0  0  0  0  0  0  0  0  0  0
  2  1  1  6
  2  3  1  0
  4  2  1  0
  4  5  1  6
  6 13  1  0
  6  4  1  0
  7  6  2  0
  8  9  1  0
  9 10  1  0
 10 12  1  0
 10 11  1  1
 12 13  1  6
 12 14  1  0
 14 20  1  0
 15 14  2  0
 17 18  1  1
 17 16  1  0
 19 21  1  0
 19 17  1  0
 19 20  1  6
 21 23  1  0
 22 21  2  0
M  END
$$$$
