WSH.pdb
     RDKit          3D

 31 33  0  0  1  0  0  0  0  0999 V2000
    6.4693  -17.5796   24.4392 N   0  0  0  0  0  0  0  0  0  0  0  0
    7.4502  -16.6371   23.9530 C   0  0  1  0  0  0  0  0  0  0  0  0
    7.8917  -15.7671   25.0906 C   0  0  0  0  0  0  0  0  0  0  0  0
    6.8928  -14.7588   25.4703 C   0  0  0  0  0  0  0  0  0  0  0  0
    5.7823  -14.9901   26.2790 C   0  0  0  0  0  0  0  0  0  0  0  0
    5.0751  -13.8534   26.3846 N   0  0  0  0  0  0  0  0  0  0  0  0
    5.6621  -12.8729   25.6842 C   0  0  0  0  0  0  0  0  0  0  0  0
    5.3034  -11.5516   25.5085 C   0  0  0  0  0  0  0  0  0  0  0  0
    6.0842  -10.7306   24.7406 C   0  0  0  0  0  0  0  0  0  0  0  0
    7.2092  -11.2698   24.1704 C   0  0  0  0  0  0  0  0  0  0  0  0
    7.5751  -12.6113   24.3472 C   0  0  0  0  0  0  0  0  0  0  0  0
    6.7927  -13.4263   25.1129 C   0  0  0  0  0  0  0  0  0  0  0  0
    8.5429  -17.3758   23.3145 C   0  0  0  0  0  0  0  0  0  0  0  0
    8.9334  -18.4840   23.7656 O   0  0  0  0  0  0  0  0  0  0  0  0
   10.7815  -15.1928   20.7314 O   0  0  0  0  0  0  0  0  0  0  0  0
   10.9839  -16.5584   20.5775 C   0  0  0  0  0  0  0  0  0  0  0  0
   10.6194  -17.2480   21.9206 C   0  0  2  0  0  0  0  0  0  0  0  0
    9.2437  -16.9075   22.1419 N   0  0  0  0  0  0  0  0  0  0  0  0
   11.5790  -16.7390   22.8904 C   0  0  0  0  0  0  0  0  0  0  0  0
   11.7922  -15.4879   22.8749 O   0  0  0  0  0  0  0  0  0  0  0  0
   12.3003  -17.4883   23.8524 N   0  0  0  0  0  0  0  0  0  0  0  0
   12.5500  -16.9059   25.1979 C   0  0  1  0  0  0  0  0  0  0  0  0
   11.2101  -16.5812   25.7713 C   0  0  0  0  0  0  0  0  0  0  0  0
   11.1884  -16.0291   27.1283 C   0  0  0  0  0  0  0  0  0  0  0  0
   12.2037  -15.7835   28.0170 C   0  0  0  0  0  0  0  0  0  0  0  0
   11.6443  -15.2204   29.1089 N   0  0  0  0  0  0  0  0  0  0  0  0
   10.3397  -15.1208   28.9047 C   0  0  0  0  0  0  0  0  0  0  0  0
   10.0484  -15.6082   27.7051 N   0  0  0  0  0  0  0  0  0  0  0  0
   13.0975  -18.0735   25.9786 C   0  0  0  0  0  0  0  0  0  0  0  0
   12.3996  -19.2866   26.0606 O   0  0  0  0  0  0  0  0  0  0  0  0
   14.1819  -18.0472   26.5919 O   0  0  0  0  0  0  0  0  0  0  0  0
  2  1  1  1
  2  3  1  0
  3  4  1  0
  4  5  2  0
  4 12  1  0
  5  6  1  0
  6  7  1  0
  7  8  2  0
  9  8  1  0
 10  9  2  0
 11 12  2  0
 11 10  1  0
 12  7  1  0
 13 14  2  0
 13  2  1  0
 15 16  1  0
 17 16  1  6
 17 18  1  0
 17 19  1  0
 18 13  1  0
 19 21  1  0
 20 19  2  0
 21 22  1  0
 22 29  1  0
 23 24  1  0
 22 23  1  1
 24 28  1  0
 25 24  2  0
 25 26  1  0
 26 27  1  0
 28 27  2  0
 29 31  2  0
 29 30  1  0
M  END
$$$$
