WSH.pdb
     RDKit          3D

 31 33  0  0  1  0  0  0  0  0999 V2000
   14.5735  -59.0485  -14.2690 N   0  0  0  0  0  0  0  0  0  0  0  0
   15.3366  -58.3565  -15.2817 C   0  0  1  0  0  0  0  0  0  0  0  0
   15.7749  -57.0310  -14.7367 C   0  0  0  0  0  0  0  0  0  0  0  0
   14.6869  -56.2796  -14.0962 C   0  0  0  0  0  0  0  0  0  0  0  0
   13.7368  -56.8180  -13.2311 C   0  0  0  0  0  0  0  0  0  0  0  0
   12.8801  -55.8503  -12.8671 N   0  0  0  0  0  0  0  0  0  0  0  0
   13.2140  -54.6897  -13.4485 C   0  0  0  0  0  0  0  0  0  0  0  0
   12.6343  -53.4398  -13.3641 C   0  0  0  0  0  0  0  0  0  0  0  0
   13.1745  -52.3907  -14.0577 C   0  0  0  0  0  0  0  0  0  0  0  0
   14.2889  -52.6352  -14.8192 C   0  0  0  0  0  0  0  0  0  0  0  0
   14.8788  -53.9037  -14.9065 C   0  0  0  0  0  0  0  0  0  0  0  0
   14.3359  -54.9469  -14.2139 C   0  0  0  0  0  0  0  0  0  0  0  0
   16.4440  -59.2149  -15.7112 C   0  0  0  0  0  0  0  0  0  0  0  0
   17.5938  -59.0958  -15.2134 O   0  0  0  0  0  0  0  0  0  0  0  0
   14.5076  -58.1645  -18.9887 O   0  0  0  0  0  0  0  0  0  0  0  0
   15.3760  -58.4539  -17.9438 C   0  0  0  0  0  0  0  0  0  0  0  0
   15.6407  -59.9842  -17.9548 C   0  0  2  0  0  0  0  0  0  0  0  0
   16.3114  -60.2454  -16.7141 N   0  0  0  0  0  0  0  0  0  0  0  0
   16.4011  -60.2372  -19.1705 C   0  0  0  0  0  0  0  0  0  0  0  0
   16.0063  -61.2003  -19.8968 O   0  0  0  0  0  0  0  0  0  0  0  0
   17.5341  -59.5235  -19.6334 N   0  0  0  0  0  0  0  0  0  0  0  0
   17.4711  -58.8164  -20.9403 C   0  0  1  0  0  0  0  0  0  0  0  0
   18.6564  -59.2746  -21.7243 C   0  0  0  0  0  0  0  0  0  0  0  0
   18.4272  -60.3344  -22.7097 C   0  0  0  0  0  0  0  0  0  0  0  0
   17.9059  -61.5955  -22.5711 C   0  0  0  0  0  0  0  0  0  0  0  0
   17.8666  -62.1433  -23.8042 N   0  0  0  0  0  0  0  0  0  0  0  0
   18.3419  -61.2598  -24.6685 C   0  0  0  0  0  0  0  0  0  0  0  0
   18.6863  -60.1557  -24.0174 N   0  0  0  0  0  0  0  0  0  0  0  0
   16.2490  -59.4120  -21.5915 C   0  0  0  0  0  0  0  0  0  0  0  0
   15.5140  -58.7001  -22.5499 O   0  0  0  0  0  0  0  0  0  0  0  0
   15.8137  -60.5506  -21.3331 O   0  0  0  0  0  0  0  0  0  0  0  0
  2  1  1  1
  2  3  1  0
  3  4  1  0
  4  5  2  0
  4 12  1  0
  5  6  1  0
  6  7  1  0
  7  8  2  0
  9  8  1  0
 10  9  2  0
 11 12  2  0
 11 10  1  0
 12  7  1  0
 13 14  2  0
 13  2  1  0
 15 16  1  0
 17 16  1  1
 17 18  1  0
 17 19  1  0
 18 13  1  0
 19 21  1  0
 20 19  2  0
 21 22  1  0
 22 29  1  0
 23 24  1  0
 22 23  1  6
 24 28  1  0
 25 24  2  0
 25 26  1  0
 26 27  1  0
 28 27  2  0
 29 31  2  0
 29 30  1  0
M  END
$$$$
