WSH.pdb
     RDKit          3D

 31 33  0  0  1  0  0  0  0  0999 V2000
    6.0284  -17.3439   23.5364 N   0  0  0  0  0  0  0  0  0  0  0  0
    7.0919  -16.4365   23.1728 C   0  0  1  0  0  0  0  0  0  0  0  0
    7.8465  -16.0538   24.4098 C   0  0  0  0  0  0  0  0  0  0  0  0
    7.1032  -15.1324   25.2800 C   0  0  0  0  0  0  0  0  0  0  0  0
    5.9960  -15.4726   26.0541 C   0  0  0  0  0  0  0  0  0  0  0  0
    5.5562  -14.3759   26.6921 N   0  0  0  0  0  0  0  0  0  0  0  0
    6.3188  -13.3186   26.3806 C   0  0  0  0  0  0  0  0  0  0  0  0
    6.2498  -12.0040   26.7959 C   0  0  0  0  0  0  0  0  0  0  0  0
    7.1646  -11.0958   26.3356 C   0  0  0  0  0  0  0  0  0  0  0  0
    8.1265  -11.5434   25.4662 C   0  0  0  0  0  0  0  0  0  0  0  0
    8.1981  -12.8777   25.0430 C   0  0  0  0  0  0  0  0  0  0  0  0
    7.2830  -13.7794   25.5038 C   0  0  0  0  0  0  0  0  0  0  0  0
    7.9234  -17.0671   22.1440 C   0  0  0  0  0  0  0  0  0  0  0  0
    7.5197  -18.0726   21.5036 O   0  0  0  0  0  0  0  0  0  0  0  0
    7.9918  -16.7978   18.8193 O   0  0  0  0  0  0  0  0  0  0  0  0
    8.7354  -15.9050   19.5807 C   0  0  0  0  0  0  0  0  0  0  0  0
    9.7302  -16.7286   20.4434 C   0  0  2  0  0  0  0  0  0  0  0  0
    9.2412  -16.5978   21.7855 N   0  0  0  0  0  0  0  0  0  0  0  0
   11.0424  -16.1592   20.1713 C   0  0  0  0  0  0  0  0  0  0  0  0
   11.1591  -14.9044   20.3227 O   0  0  0  0  0  0  0  0  0  0  0  0
   12.2058  -16.8539   19.7574 N   0  0  0  0  0  0  0  0  0  0  0  0
   13.0873  -17.4803   20.7784 C   0  0  1  0  0  0  0  0  0  0  0  0
   12.2981  -18.5890   21.3928 C   0  0  0  0  0  0  0  0  0  0  0  0
   11.9643  -18.4541   22.8130 C   0  0  0  0  0  0  0  0  0  0  0  0
   12.2254  -17.4482   23.7080 C   0  0  0  0  0  0  0  0  0  0  0  0
   11.6509  -17.8018   24.8772 N   0  0  0  0  0  0  0  0  0  0  0  0
   11.0591  -18.9750   24.7130 C   0  0  0  0  0  0  0  0  0  0  0  0
   11.2412  -19.3833   23.4634 N   0  0  0  0  0  0  0  0  0  0  0  0
   14.1741  -18.1141   19.9480 C   0  0  0  0  0  0  0  0  0  0  0  0
   15.5073  -18.1287   20.3813 O   0  0  0  0  0  0  0  0  0  0  0  0
   13.9728  -18.6573   18.8448 O   0  0  0  0  0  0  0  0  0  0  0  0
  2  1  1  1
  2  3  1  0
  3  4  1  0
  4  5  2  0
  4 12  1  0
  5  6  1  0
  6  7  1  0
  7  8  2  0
  9  8  1  0
 10  9  2  0
 11 12  2  0
 11 10  1  0
 12  7  1  0
 13 14  2  0
 13  2  1  0
 15 16  1  0
 17 16  1  6
 17 18  1  0
 17 19  1  0
 18 13  1  0
 19 21  1  0
 20 19  2  0
 21 22  1  0
 22 29  1  0
 23 24  1  0
 22 23  1  6
 24 28  1  0
 25 24  2  0
 25 26  1  0
 26 27  1  0
 28 27  2  0
 29 31  2  0
 29 30  1  0
M  END
$$$$
