WSH.pdb
     RDKit          3D

 31 33  0  0  1  0  0  0  0  0999 V2000
    6.3355  -17.7111   24.2183 N   0  0  0  0  0  0  0  0  0  0  0  0
    7.0292  -16.6122   23.5875 C   0  0  1  0  0  0  0  0  0  0  0  0
    7.9307  -15.9660   24.5954 C   0  0  0  0  0  0  0  0  0  0  0  0
    7.2144  -15.1012   25.5429 C   0  0  0  0  0  0  0  0  0  0  0  0
    6.2738  -15.5335   26.4752 C   0  0  0  0  0  0  0  0  0  0  0  0
    5.8031  -14.4695   27.1456 N   0  0  0  0  0  0  0  0  0  0  0  0
    6.3861  -13.3460   26.7048 C   0  0  0  0  0  0  0  0  0  0  0  0
    6.2234  -12.0325   27.0969 C   0  0  0  0  0  0  0  0  0  0  0  0
    6.9527  -11.0458   26.4904 C   0  0  0  0  0  0  0  0  0  0  0  0
    7.8288  -11.4156   25.5019 C   0  0  0  0  0  0  0  0  0  0  0  0
    7.9954  -12.7486   25.1020 C   0  0  0  0  0  0  0  0  0  0  0  0
    7.2651  -13.7289   25.7090 C   0  0  0  0  0  0  0  0  0  0  0  0
    7.7299  -17.1112   22.4011 C   0  0  0  0  0  0  0  0  0  0  0  0
    8.4651  -18.1312   22.4575 O   0  0  0  0  0  0  0  0  0  0  0  0
    8.2871  -14.3742   19.5994 O   0  0  0  0  0  0  0  0  0  0  0  0
    8.3419  -15.6320   19.0123 C   0  0  0  0  0  0  0  0  0  0  0  0
    8.6739  -16.6629   20.1254 C   0  0  2  0  0  0  0  0  0  0  0  0
    7.6354  -16.4920   21.0999 N   0  0  0  0  0  0  0  0  0  0  0  0
   10.0281  -16.3453   20.5562 C   0  0  0  0  0  0  0  0  0  0  0  0
   10.1392  -15.5467   21.5364 O   0  0  0  0  0  0  0  0  0  0  0  0
   11.2373  -16.8326   20.0015 N   0  0  0  0  0  0  0  0  0  0  0  0
   12.4059  -17.0735   20.8892 C   0  0  1  0  0  0  0  0  0  0  0  0
   12.0233  -18.1990   21.7928 C   0  0  0  0  0  0  0  0  0  0  0  0
   11.7805  -17.8643   23.1985 C   0  0  0  0  0  0  0  0  0  0  0  0
   11.9607  -16.6935   23.8896 C   0  0  0  0  0  0  0  0  0  0  0  0
   11.5317  -16.9103   25.1510 N   0  0  0  0  0  0  0  0  0  0  0  0
   11.1038  -18.1605   25.2368 C   0  0  0  0  0  0  0  0  0  0  0  0
   11.2488  -18.7522   24.0577 N   0  0  0  0  0  0  0  0  0  0  0  0
   13.4521  -17.6002   19.9402 C   0  0  0  0  0  0  0  0  0  0  0  0
   13.1315  -18.5411   18.9516 O   0  0  0  0  0  0  0  0  0  0  0  0
   14.6469  -17.2474   19.9638 O   0  0  0  0  0  0  0  0  0  0  0  0
  2  1  1  1
  2  3  1  0
  3  4  1  0
  4  5  2  0
  4 12  1  0
  5  6  1  0
  6  7  1  0
  7  8  2  0
  9  8  1  0
 10  9  2  0
 11 12  2  0
 11 10  1  0
 12  7  1  0
 13 14  2  0
 13  2  1  0
 15 16  1  0
 17 16  1  6
 17 18  1  0
 17 19  1  0
 18 13  1  0
 19 21  1  0
 20 19  2  0
 21 22  1  0
 22 29  1  0
 23 24  1  0
 22 23  1  1
 24 28  1  0
 25 24  2  0
 25 26  1  0
 26 27  1  0
 28 27  2  0
 29 31  2  0
 29 30  1  0
M  END
$$$$
