WSH.pdb
     RDKit          3D

 31 33  0  0  1  0  0  0  0  0999 V2000
    6.3209  -17.6006   24.4170 N   0  0  0  0  0  0  0  0  0  0  0  0
    7.2083  -16.6569   23.7776 C   0  0  1  0  0  0  0  0  0  0  0  0
    8.0510  -15.9970   24.8267 C   0  0  0  0  0  0  0  0  0  0  0  0
    7.3314  -14.9620   25.5814 C   0  0  0  0  0  0  0  0  0  0  0  0
    6.3571  -15.2011   26.5480 C   0  0  0  0  0  0  0  0  0  0  0  0
    5.8947  -14.0249   27.0017 N   0  0  0  0  0  0  0  0  0  0  0  0
    6.5154  -13.0106   26.3833 C   0  0  0  0  0  0  0  0  0  0  0  0
    6.3739  -11.6451   26.5275 C   0  0  0  0  0  0  0  0  0  0  0  0
    7.1418  -10.7980   25.7750 C   0  0  0  0  0  0  0  0  0  0  0  0
    8.0340  -11.3566   24.8956 C   0  0  0  0  0  0  0  0  0  0  0  0
    8.1791  -12.7429   24.7474 C   0  0  0  0  0  0  0  0  0  0  0  0
    7.4103  -13.5835   25.4991 C   0  0  0  0  0  0  0  0  0  0  0  0
    7.9837  -17.3557   22.7491 C   0  0  0  0  0  0  0  0  0  0  0  0
    8.4095  -18.5256   22.9343 O   0  0  0  0  0  0  0  0  0  0  0  0
    8.9976  -15.0982   19.7542 O   0  0  0  0  0  0  0  0  0  0  0  0
    9.4475  -16.3723   19.4315 C   0  0  0  0  0  0  0  0  0  0  0  0
    9.4663  -17.2150   20.7359 C   0  0  2  0  0  0  0  0  0  0  0  0
    8.3134  -16.7766   21.4680 N   0  0  0  0  0  0  0  0  0  0  0  0
   10.7620  -16.9544   21.3470 C   0  0  0  0  0  0  0  0  0  0  0  0
   10.8574  -15.9004   22.0476 O   0  0  0  0  0  0  0  0  0  0  0  0
   11.9294  -17.7510   21.2467 N   0  0  0  0  0  0  0  0  0  0  0  0
   13.1196  -17.4140   22.0724 C   0  0  1  0  0  0  0  0  0  0  0  0
   13.4979  -18.6643   22.7956 C   0  0  0  0  0  0  0  0  0  0  0  0
   12.6573  -19.0504   23.9319 C   0  0  0  0  0  0  0  0  0  0  0  0
   11.8910  -18.2955   24.7827 C   0  0  0  0  0  0  0  0  0  0  0  0
   11.2753  -19.1529   25.6242 N   0  0  0  0  0  0  0  0  0  0  0  0
   11.6435  -20.3848   25.3075 C   0  0  0  0  0  0  0  0  0  0  0  0
   12.4832  -20.3377   24.2807 N   0  0  0  0  0  0  0  0  0  0  0  0
   14.1880  -17.1553   21.0409 C   0  0  0  0  0  0  0  0  0  0  0  0
   13.9035  -17.2051   19.6690 O   0  0  0  0  0  0  0  0  0  0  0  0
   15.3710  -16.8852   21.3240 O   0  0  0  0  0  0  0  0  0  0  0  0
  2  1  1  1
  2  3  1  0
  3  4  1  0
  4  5  2  0
  4 12  1  0
  5  6  1  0
  6  7  1  0
  7  8  2  0
  9  8  1  0
 10  9  2  0
 11 12  2  0
 11 10  1  0
 12  7  1  0
 13 14  2  0
 13  2  1  0
 15 16  1  0
 17 16  1  6
 17 18  1  0
 17 19  1  0
 18 13  1  0
 19 21  1  0
 20 19  2  0
 21 22  1  0
 22 29  1  0
 23 24  1  0
 22 23  1  1
 24 28  1  0
 25 24  2  0
 25 26  1  0
 26 27  1  0
 28 27  2  0
 29 31  2  0
 29 30  1  0
M  END
$$$$
