WSH.pdb
     RDKit          3D

 31 33  0  0  1  0  0  0  0  0999 V2000
    6.9335  -16.9814   22.5626 N   0  0  0  0  0  0  0  0  0  0  0  0
    7.4517  -15.6420   22.4069 C   0  0  1  0  0  0  0  0  0  0  0  0
    8.2661  -15.2941   23.6160 C   0  0  0  0  0  0  0  0  0  0  0  0
    7.4489  -14.8916   24.7687 C   0  0  0  0  0  0  0  0  0  0  0  0
    6.6841  -15.7519   25.5534 C   0  0  0  0  0  0  0  0  0  0  0  0
    6.0462  -15.0347   26.4925 N   0  0  0  0  0  0  0  0  0  0  0  0
    6.3498  -13.7348   26.3720 C   0  0  0  0  0  0  0  0  0  0  0  0
    5.9414  -12.6418   27.1095 C   0  0  0  0  0  0  0  0  0  0  0  0
    6.4053  -11.3941   26.7912 C   0  0  0  0  0  0  0  0  0  0  0  0
    7.2718  -11.2859   25.7334 C   0  0  0  0  0  0  0  0  0  0  0  0
    7.6875  -12.3944   24.9831 C   0  0  0  0  0  0  0  0  0  0  0  0
    7.2213  -13.6364   25.3036 C   0  0  0  0  0  0  0  0  0  0  0  0
    8.1985  -15.5649   21.1484 C   0  0  0  0  0  0  0  0  0  0  0  0
    8.9131  -16.5227   20.7532 O   0  0  0  0  0  0  0  0  0  0  0  0
    7.6132  -13.1182   17.7496 O   0  0  0  0  0  0  0  0  0  0  0  0
    8.7535  -12.9362   18.5219 C   0  0  0  0  0  0  0  0  0  0  0  0
    9.1002  -14.2964   19.1866 C   0  0  2  0  0  0  0  0  0  0  0  0
    8.1753  -14.4139   20.2766 N   0  0  0  0  0  0  0  0  0  0  0  0
   10.5106  -14.2078   19.5377 C   0  0  0  0  0  0  0  0  0  0  0  0
   10.7909  -13.5870   20.6087 O   0  0  0  0  0  0  0  0  0  0  0  0
   11.6059  -14.7413   18.8146 N   0  0  0  0  0  0  0  0  0  0  0  0
   12.9907  -14.5080   19.3045 C   0  0  1  0  0  0  0  0  0  0  0  0
   13.6154  -15.8554   19.4582 C   0  0  0  0  0  0  0  0  0  0  0  0
   13.2508  -16.6202   20.6535 C   0  0  0  0  0  0  0  0  0  0  0  0
   12.9399  -16.2102   21.9248 C   0  0  0  0  0  0  0  0  0  0  0  0
   12.6281  -17.3177   22.6310 N   0  0  0  0  0  0  0  0  0  0  0  0
   12.7402  -18.3673   21.8315 C   0  0  0  0  0  0  0  0  0  0  0  0
   13.1178  -17.9584   20.6266 N   0  0  0  0  0  0  0  0  0  0  0  0
   13.6592  -13.8383   18.1310 C   0  0  0  0  0  0  0  0  0  0  0  0
   14.9734  -13.3581   18.2178 O   0  0  0  0  0  0  0  0  0  0  0  0
   13.1077  -13.6670   17.0268 O   0  0  0  0  0  0  0  0  0  0  0  0
  2  1  1  1
  2  3  1  0
  3  4  1  0
  4  5  2  0
  4 12  1  0
  5  6  1  0
  6  7  1  0
  7  8  2  0
  9  8  1  0
 10  9  2  0
 11 12  2  0
 11 10  1  0
 12  7  1  0
 13 14  2  0
 13  2  1  0
 15 16  1  0
 17 16  1  1
 17 18  1  0
 17 19  1  0
 18 13  1  0
 19 21  1  0
 20 19  2  0
 21 22  1  0
 22 29  1  0
 23 24  1  0
 22 23  1  6
 24 28  1  0
 25 24  2  0
 25 26  1  0
 26 27  1  0
 28 27  2  0
 29 31  2  0
 29 30  1  0
M  END
$$$$
