WSH.pdb
     RDKit          3D

 31 33  0  0  1  0  0  0  0  0999 V2000
    6.6264  -17.5812   23.7274 N   0  0  0  0  0  0  0  0  0  0  0  0
    7.7469  -16.6886   23.5413 C   0  0  1  0  0  0  0  0  0  0  0  0
    8.2298  -16.2307   24.8842 C   0  0  0  0  0  0  0  0  0  0  0  0
    7.2862  -15.3327   25.5638 C   0  0  0  0  0  0  0  0  0  0  0  0
    6.1758  -15.7393   26.3003 C   0  0  0  0  0  0  0  0  0  0  0  0
    5.5265  -14.6520   26.7468 N   0  0  0  0  0  0  0  0  0  0  0  0
    6.1521  -13.5375   26.3432 C   0  0  0  0  0  0  0  0  0  0  0  0
    5.8562  -12.2075   26.5646 C   0  0  0  0  0  0  0  0  0  0  0  0
    6.6667  -11.2344   26.0454 C   0  0  0  0  0  0  0  0  0  0  0  0
    7.7568  -11.6341   25.3151 C   0  0  0  0  0  0  0  0  0  0  0  0
    8.0588  -12.9841   25.0889 C   0  0  0  0  0  0  0  0  0  0  0  0
    7.2470  -13.9508   25.6077 C   0  0  0  0  0  0  0  0  0  0  0  0
    8.7709  -17.3712   22.7456 C   0  0  0  0  0  0  0  0  0  0  0  0
    9.0407  -18.5863   22.9323 O   0  0  0  0  0  0  0  0  0  0  0  0
   10.9737  -15.0773   20.3371 O   0  0  0  0  0  0  0  0  0  0  0  0
   11.1738  -16.4165   20.0268 C   0  0  0  0  0  0  0  0  0  0  0  0
   10.7962  -17.2565   21.2774 C   0  0  2  0  0  0  0  0  0  0  0  0
    9.5347  -16.7242   21.7048 N   0  0  0  0  0  0  0  0  0  0  0  0
   11.9127  -17.1023   22.1993 C   0  0  0  0  0  0  0  0  0  0  0  0
   11.8587  -16.1157   22.9960 O   0  0  0  0  0  0  0  0  0  0  0  0
   13.0536  -17.9355   22.3059 N   0  0  0  0  0  0  0  0  0  0  0  0
   14.1177  -17.5984   23.2888 C   0  0  1  0  0  0  0  0  0  0  0  0
   14.4796  -18.8758   23.9720 C   0  0  0  0  0  0  0  0  0  0  0  0
   13.5963  -19.3199   25.0534 C   0  0  0  0  0  0  0  0  0  0  0  0
   12.5912  -18.6674   25.7205 C   0  0  0  0  0  0  0  0  0  0  0  0
   12.0591  -19.5501   26.5923 N   0  0  0  0  0  0  0  0  0  0  0  0
   12.7058  -20.6991   26.4695 C   0  0  0  0  0  0  0  0  0  0  0  0
   13.6426  -20.5739   25.5378 N   0  0  0  0  0  0  0  0  0  0  0  0
   15.2830  -17.2165   22.4121 C   0  0  0  0  0  0  0  0  0  0  0  0
   16.5063  -16.8092   22.9627 O   0  0  0  0  0  0  0  0  0  0  0  0
   15.2460  -17.2345   21.1667 O   0  0  0  0  0  0  0  0  0  0  0  0
  2  1  1  1
  2  3  1  0
  3  4  1  0
  4  5  2  0
  4 12  1  0
  5  6  1  0
  6  7  1  0
  7  8  2  0
  9  8  1  0
 10  9  2  0
 11 12  2  0
 11 10  1  0
 12  7  1  0
 13 14  2  0
 13  2  1  0
 15 16  1  0
 17 16  1  6
 17 18  1  0
 17 19  1  0
 18 13  1  0
 19 21  1  0
 20 19  2  0
 21 22  1  0
 22 29  1  0
 23 24  1  0
 22 23  1  6
 24 28  1  0
 25 24  2  0
 25 26  1  0
 26 27  1  0
 28 27  2  0
 29 31  2  0
 29 30  1  0
M  END
$$$$
