WSH.pdb
     RDKit          3D

 31 33  0  0  1  0  0  0  0  0999 V2000
    6.5383  -17.0052   23.0569 N   0  0  0  0  0  0  0  0  0  0  0  0
    7.7770  -16.2620   23.0519 C   0  0  1  0  0  0  0  0  0  0  0  0
    8.2664  -16.1264   24.4619 C   0  0  0  0  0  0  0  0  0  0  0  0
    7.4194  -15.2552   25.2879 C   0  0  0  0  0  0  0  0  0  0  0  0
    6.2693  -15.6562   25.9640 C   0  0  0  0  0  0  0  0  0  0  0  0
    5.7358  -14.5925   26.5863 N   0  0  0  0  0  0  0  0  0  0  0  0
    6.4767  -13.4993   26.3578 C   0  0  0  0  0  0  0  0  0  0  0  0
    6.3212  -12.1983   26.7922 C   0  0  0  0  0  0  0  0  0  0  0  0
    7.2317  -11.2446   26.4247 C   0  0  0  0  0  0  0  0  0  0  0  0
    8.2769  -11.6340   25.6264 C   0  0  0  0  0  0  0  0  0  0  0  0
    8.4364  -12.9544   25.1839 C   0  0  0  0  0  0  0  0  0  0  0  0
    7.5254  -13.9016   25.5521 C   0  0  0  0  0  0  0  0  0  0  0  0
    8.7273  -16.9286   22.1574 C   0  0  0  0  0  0  0  0  0  0  0  0
    8.8740  -18.1785   22.1745 O   0  0  0  0  0  0  0  0  0  0  0  0
   10.8520  -14.4890   20.0146 O   0  0  0  0  0  0  0  0  0  0  0  0
   11.3449  -15.7567   19.7323 C   0  0  0  0  0  0  0  0  0  0  0  0
   10.8511  -16.7186   20.8473 C   0  0  2  0  0  0  0  0  0  0  0  0
    9.5520  -16.2253   21.2031 N   0  0  0  0  0  0  0  0  0  0  0  0
   11.8723  -16.6668   21.8840 C   0  0  0  0  0  0  0  0  0  0  0  0
   11.5120  -16.2134   23.0134 O   0  0  0  0  0  0  0  0  0  0  0  0
   13.2258  -17.0698   21.7704 N   0  0  0  0  0  0  0  0  0  0  0  0
   14.0294  -17.2938   23.0017 C   0  0  1  0  0  0  0  0  0  0  0  0
   13.5045  -18.5449   23.6251 C   0  0  0  0  0  0  0  0  0  0  0  0
   12.5168  -18.3856   24.6956 C   0  0  0  0  0  0  0  0  0  0  0  0
   11.9698  -17.2596   25.2560 C   0  0  0  0  0  0  0  0  0  0  0  0
   11.0683  -17.6731   26.1717 N   0  0  0  0  0  0  0  0  0  0  0  0
   11.0569  -18.9973   26.1772 C   0  0  0  0  0  0  0  0  0  0  0  0
   11.9321  -19.4439   25.2850 N   0  0  0  0  0  0  0  0  0  0  0  0
   15.4013  -17.6071   22.4612 C   0  0  0  0  0  0  0  0  0  0  0  0
   16.5451  -17.4865   23.2627 O   0  0  0  0  0  0  0  0  0  0  0  0
   15.6140  -17.9863   21.2935 O   0  0  0  0  0  0  0  0  0  0  0  0
  2  1  1  1
  2  3  1  0
  3  4  1  0
  4  5  2  0
  4 12  1  0
  5  6  1  0
  6  7  1  0
  7  8  2  0
  9  8  1  0
 10  9  2  0
 11 12  2  0
 11 10  1  0
 12  7  1  0
 13 14  2  0
 13  2  1  0
 15 16  1  0
 17 16  1  6
 17 18  1  0
 17 19  1  0
 18 13  1  0
 19 21  1  0
 20 19  2  0
 21 22  1  0
 22 29  1  0
 23 24  1  0
 22 23  1  6
 24 28  1  0
 25 24  2  0
 25 26  1  0
 26 27  1  0
 28 27  2  0
 29 31  2  0
 29 30  1  0
M  END
$$$$
