WSH.pdb
     RDKit          3D

 31 33  0  0  1  0  0  0  0  0999 V2000
    5.9999  -17.4278   21.2261 N   0  0  0  0  0  0  0  0  0  0  0  0
    6.6901  -16.6097   22.1963 C   0  0  1  0  0  0  0  0  0  0  0  0
    5.8211  -16.4580   23.4079 C   0  0  0  0  0  0  0  0  0  0  0  0
    6.4458  -15.6615   24.4728 C   0  0  0  0  0  0  0  0  0  0  0  0
    7.0549  -16.1791   25.6138 C   0  0  0  0  0  0  0  0  0  0  0  0
    7.4840  -15.1623   26.3787 N   0  0  0  0  0  0  0  0  0  0  0  0
    7.1901  -13.9889   25.8014 C   0  0  0  0  0  0  0  0  0  0  0  0
    7.4394  -12.6949   26.2122 C   0  0  0  0  0  0  0  0  0  0  0  0
    7.0422  -11.6440   25.4303 C   0  0  0  0  0  0  0  0  0  0  0  0
    6.4025  -11.9316   24.2515 C   0  0  0  0  0  0  0  0  0  0  0  0
    6.1482  -13.2448   23.8326 C   0  0  0  0  0  0  0  0  0  0  0  0
    6.5452  -14.2893   24.6163 C   0  0  0  0  0  0  0  0  0  0  0  0
    7.9980  -17.2079   22.4775 C   0  0  0  0  0  0  0  0  0  0  0  0
    8.1029  -18.4088   22.8390 O   0  0  0  0  0  0  0  0  0  0  0  0
   11.6701  -15.2125   21.9296 O   0  0  0  0  0  0  0  0  0  0  0  0
   11.5382  -16.5884   21.7906 C   0  0  0  0  0  0  0  0  0  0  0  0
   10.4755  -17.0706   22.8154 C   0  0  2  0  0  0  0  0  0  0  0  0
    9.2450  -16.4885   22.3633 N   0  0  0  0  0  0  0  0  0  0  0  0
   10.9632  -16.6315   24.1152 C   0  0  0  0  0  0  0  0  0  0  0  0
   10.5228  -15.5198   24.5406 O   0  0  0  0  0  0  0  0  0  0  0  0
   11.8755  -17.3115   24.9594 N   0  0  0  0  0  0  0  0  0  0  0  0
   12.1927  -16.7492   26.2992 C   0  0  1  0  0  0  0  0  0  0  0  0
   10.9425  -16.8585   27.1083 C   0  0  0  0  0  0  0  0  0  0  0  0
   11.0252  -16.4444   28.5113 C   0  0  0  0  0  0  0  0  0  0  0  0
   11.7906  -15.4850   29.1235 C   0  0  0  0  0  0  0  0  0  0  0  0
   11.4420  -15.4755   30.4276 N   0  0  0  0  0  0  0  0  0  0  0  0
   10.5012  -16.3886   30.6144 C   0  0  0  0  0  0  0  0  0  0  0  0
   10.2379  -16.9851   29.4584 N   0  0  0  0  0  0  0  0  0  0  0  0
   13.1760  -17.7436   26.8622 C   0  0  0  0  0  0  0  0  0  0  0  0
   13.9396  -17.4486   28.0003 O   0  0  0  0  0  0  0  0  0  0  0  0
   13.3768  -18.8709   26.3708 O   0  0  0  0  0  0  0  0  0  0  0  0
  2  1  1  6
  2  3  1  0
  3  4  1  0
  4  5  2  0
  4 12  1  0
  5  6  1  0
  6  7  1  0
  7  8  2  0
  9  8  1  0
 10  9  2  0
 11 12  2  0
 11 10  1  0
 12  7  1  0
 13 14  2  0
 13  2  1  0
 15 16  1  0
 17 16  1  6
 17 18  1  0
 17 19  1  0
 18 13  1  0
 19 21  1  0
 20 19  2  0
 21 22  1  0
 22 29  1  0
 23 24  1  0
 22 23  1  1
 24 28  1  0
 25 24  2  0
 25 26  1  0
 26 27  1  0
 28 27  2  0
 29 31  2  0
 29 30  1  0
M  END
$$$$
