WSH.pdb
     RDKit          3D

 31 33  0  0  1  0  0  0  0  0999 V2000
    6.8408  -17.4271   24.5891 N   0  0  0  0  0  0  0  0  0  0  0  0
    7.8256  -16.4535   24.1779 C   0  0  1  0  0  0  0  0  0  0  0  0
    8.1727  -15.5897   25.3524 C   0  0  0  0  0  0  0  0  0  0  0  0
    7.0931  -14.6687   25.7333 C   0  0  0  0  0  0  0  0  0  0  0  0
    5.8659  -15.0461   26.2738 C   0  0  0  0  0  0  0  0  0  0  0  0
    5.1175  -13.9478   26.4659 N   0  0  0  0  0  0  0  0  0  0  0  0
    5.7882  -12.8537   26.0792 C   0  0  0  0  0  0  0  0  0  0  0  0
    5.4262  -11.5217   26.0963 C   0  0  0  0  0  0  0  0  0  0  0  0
    6.3042  -10.5720   25.6484 C   0  0  0  0  0  0  0  0  0  0  0  0
    7.5271  -10.9966   25.1947 C   0  0  0  0  0  0  0  0  0  0  0  0
    7.8964  -12.3486   25.1762 C   0  0  0  0  0  0  0  0  0  0  0  0
    7.0171  -13.2920   25.6228 C   0  0  0  0  0  0  0  0  0  0  0  0
    8.9747  -17.1554   23.5996 C   0  0  0  0  0  0  0  0  0  0  0  0
    9.3830  -18.2453   24.0786 O   0  0  0  0  0  0  0  0  0  0  0  0
   10.4304  -15.5573   20.5124 O   0  0  0  0  0  0  0  0  0  0  0  0
   11.4822  -16.3704   20.9151 C   0  0  0  0  0  0  0  0  0  0  0  0
   11.0966  -17.0073   22.2781 C   0  0  2  0  0  0  0  0  0  0  0  0
    9.7144  -16.6692   22.4586 N   0  0  0  0  0  0  0  0  0  0  0  0
   12.0333  -16.4514   23.2444 C   0  0  0  0  0  0  0  0  0  0  0  0
   11.6214  -15.4682   23.9333 O   0  0  0  0  0  0  0  0  0  0  0  0
   13.3558  -16.8899   23.5018 N   0  0  0  0  0  0  0  0  0  0  0  0
   14.0534  -16.4309   24.7324 C   0  0  1  0  0  0  0  0  0  0  0  0
   13.3815  -17.1149   25.8771 C   0  0  0  0  0  0  0  0  0  0  0  0
   12.4137  -16.3250   26.6428 C   0  0  0  0  0  0  0  0  0  0  0  0
   11.9753  -15.0355   26.4817 C   0  0  0  0  0  0  0  0  0  0  0  0
   11.0393  -14.8161   27.4294 N   0  0  0  0  0  0  0  0  0  0  0  0
   10.9035  -15.9219   28.1452 C   0  0  0  0  0  0  0  0  0  0  0  0
   11.7324  -16.8473   27.6783 N   0  0  0  0  0  0  0  0  0  0  0  0
   15.4257  -17.0391   24.5934 C   0  0  0  0  0  0  0  0  0  0  0  0
   16.4518  -16.7370   25.4996 O   0  0  0  0  0  0  0  0  0  0  0  0
   15.7406  -17.8342   23.6871 O   0  0  0  0  0  0  0  0  0  0  0  0
  2  1  1  1
  2  3  1  0
  3  4  1  0
  4  5  2  0
  4 12  1  0
  5  6  1  0
  6  7  1  0
  7  8  2  0
  9  8  1  0
 10  9  2  0
 11 12  2  0
 11 10  1  0
 12  7  1  0
 13 14  2  0
 13  2  1  0
 15 16  1  0
 17 16  1  6
 17 18  1  0
 17 19  1  0
 18 13  1  0
 19 21  1  0
 20 19  2  0
 21 22  1  0
 22 29  1  0
 23 24  1  0
 22 23  1  1
 24 28  1  0
 25 24  2  0
 25 26  1  0
 26 27  1  0
 28 27  2  0
 29 31  2  0
 29 30  1  0
M  END
$$$$
