WSH.pdb
     RDKit          3D

 31 33  0  0  1  0  0  0  0  0999 V2000
    7.7737  -16.1925   21.6931 N   0  0  0  0  0  0  0  0  0  0  0  0
    8.4476  -16.1166   22.9686 C   0  0  1  0  0  0  0  0  0  0  0  0
    7.4275  -16.2154   24.0621 C   0  0  0  0  0  0  0  0  0  0  0  0
    6.8122  -14.9243   24.3987 C   0  0  0  0  0  0  0  0  0  0  0  0
    5.5705  -14.4821   23.9477 C   0  0  0  0  0  0  0  0  0  0  0  0
    5.3467  -13.2477   24.4267 N   0  0  0  0  0  0  0  0  0  0  0  0
    6.3813  -12.8448   25.1774 C   0  0  0  0  0  0  0  0  0  0  0  0
    6.5893  -11.6678   25.8681 C   0  0  0  0  0  0  0  0  0  0  0  0
    7.7437  -11.4927   26.5824 C   0  0  0  0  0  0  0  0  0  0  0  0
    8.6580  -12.5152   26.5786 C   0  0  0  0  0  0  0  0  0  0  0  0
    8.4489  -13.7109   25.8777 C   0  0  0  0  0  0  0  0  0  0  0  0
    7.2967  -13.8805   25.1661 C   0  0  0  0  0  0  0  0  0  0  0  0
    9.4773  -17.1579   23.0244 C   0  0  0  0  0  0  0  0  0  0  0  0
    9.5568  -18.0462   22.1364 O   0  0  0  0  0  0  0  0  0  0  0  0
   13.1106  -16.6314   23.4207 O   0  0  0  0  0  0  0  0  0  0  0  0
   12.4769  -17.7738   22.9483 C   0  0  0  0  0  0  0  0  0  0  0  0
   11.4851  -18.2549   24.0423 C   0  0  2  0  0  0  0  0  0  0  0  0
   10.4642  -17.2479   24.0748 N   0  0  0  0  0  0  0  0  0  0  0  0
   12.2846  -18.4092   25.2495 C   0  0  0  0  0  0  0  0  0  0  0  0
   13.3124  -19.1483   25.1588 O   0  0  0  0  0  0  0  0  0  0  0  0
   12.0416  -17.8219   26.5157 N   0  0  0  0  0  0  0  0  0  0  0  0
   11.7661  -18.6951   27.6877 C   0  0  1  0  0  0  0  0  0  0  0  0
   10.7307  -19.6766   27.2471 C   0  0  0  0  0  0  0  0  0  0  0  0
    9.3690  -19.1657   27.0697 C   0  0  0  0  0  0  0  0  0  0  0  0
    8.8661  -17.8928   27.1581 C   0  0  0  0  0  0  0  0  0  0  0  0
    7.5533  -17.9655   26.8522 N   0  0  0  0  0  0  0  0  0  0  0  0
    7.2567  -19.2281   26.5850 C   0  0  0  0  0  0  0  0  0  0  0  0
    8.3506  -19.9687   26.7131 N   0  0  0  0  0  0  0  0  0  0  0  0
   13.0568  -19.4551   27.8575 C   0  0  0  0  0  0  0  0  0  0  0  0
   13.2132  -20.4073   28.8745 O   0  0  0  0  0  0  0  0  0  0  0  0
   14.0530  -19.2974   27.1259 O   0  0  0  0  0  0  0  0  0  0  0  0
  2  1  1  6
  2  3  1  0
  3  4  1  0
  4  5  2  0
  4 12  1  0
  5  6  1  0
  6  7  1  0
  7  8  2  0
  9  8  1  0
 10  9  2  0
 11 12  2  0
 11 10  1  0
 12  7  1  0
 13 14  2  0
 13  2  1  0
 15 16  1  0
 17 16  1  6
 17 18  1  0
 17 19  1  0
 18 13  1  0
 19 21  1  0
 20 19  2  0
 21 22  1  0
 22 29  1  0
 23 24  1  0
 22 23  1  6
 24 28  1  0
 25 24  2  0
 25 26  1  0
 26 27  1  0
 28 27  2  0
 29 31  2  0
 29 30  1  0
M  END
$$$$
