WSH.pdb
     RDKit          3D

 31 33  0  0  1  0  0  0  0  0999 V2000
    8.9823  -18.0969   21.0752 N   0  0  0  0  0  0  0  0  0  0  0  0
    9.2131  -17.4019   22.3203 C   0  0  1  0  0  0  0  0  0  0  0  0
    7.9176  -16.8177   22.7964 C   0  0  0  0  0  0  0  0  0  0  0  0
    7.3175  -15.8806   21.8370 C   0  0  0  0  0  0  0  0  0  0  0  0
    6.1956  -16.1394   21.0527 C   0  0  0  0  0  0  0  0  0  0  0  0
    5.9532  -15.0735   20.2728 N   0  0  0  0  0  0  0  0  0  0  0  0
    6.8610  -14.1140   20.5000 C   0  0  0  0  0  0  0  0  0  0  0  0
    7.0040  -12.8586   19.9441 C   0  0  0  0  0  0  0  0  0  0  0  0
    8.0248  -12.0445   20.3548 C   0  0  0  0  0  0  0  0  0  0  0  0
    8.8747  -12.5235   21.3190 C   0  0  0  0  0  0  0  0  0  0  0  0
    8.7315  -13.7980   21.8845 C   0  0  0  0  0  0  0  0  0  0  0  0
    7.7127  -14.6066   21.4710 C   0  0  0  0  0  0  0  0  0  0  0  0
    9.8303  -18.3278   23.2738 C   0  0  0  0  0  0  0  0  0  0  0  0
   10.0710  -17.9804   24.4593 O   0  0  0  0  0  0  0  0  0  0  0  0
   11.2972  -22.0285   22.0687 O   0  0  0  0  0  0  0  0  0  0  0  0
   10.7956  -21.9349   23.3607 C   0  0  0  0  0  0  0  0  0  0  0  0
   10.9924  -20.4718   23.8430 C   0  0  2  0  0  0  0  0  0  0  0  0
   10.2020  -19.6833   22.9424 N   0  0  0  0  0  0  0  0  0  0  0  0
   12.4304  -20.2446   23.8149 C   0  0  0  0  0  0  0  0  0  0  0  0
   13.1404  -21.0122   24.5344 O   0  0  0  0  0  0  0  0  0  0  0  0
   13.1252  -19.2602   23.0695 N   0  0  0  0  0  0  0  0  0  0  0  0
   14.6046  -19.1617   23.1859 C   0  0  1  0  0  0  0  0  0  0  0  0
   15.0822  -18.5005   21.9353 C   0  0  0  0  0  0  0  0  0  0  0  0
   14.9569  -19.2674   20.6932 C   0  0  0  0  0  0  0  0  0  0  0  0
   14.4725  -20.5290   20.4587 C   0  0  0  0  0  0  0  0  0  0  0  0
   14.5349  -20.7337   19.1258 N   0  0  0  0  0  0  0  0  0  0  0  0
   15.0351  -19.6461   18.5598 C   0  0  0  0  0  0  0  0  0  0  0  0
   15.2961  -18.7467   19.5003 N   0  0  0  0  0  0  0  0  0  0  0  0
   14.7932  -18.1761   24.3109 C   0  0  0  0  0  0  0  0  0  0  0  0
   13.7008  -17.5211   24.8964 O   0  0  0  0  0  0  0  0  0  0  0  0
   15.9043  -17.8792   24.7905 O   0  0  0  0  0  0  0  0  0  0  0  0
  2  1  1  6
  2  3  1  0
  3  4  1  0
  4  5  2  0
  4 12  1  0
  5  6  1  0
  6  7  1  0
  7  8  2  0
  9  8  1  0
 10  9  2  0
 11 12  2  0
 11 10  1  0
 12  7  1  0
 13 14  2  0
 13  2  1  0
 15 16  1  0
 17 16  1  6
 17 18  1  0
 17 19  1  0
 18 13  1  0
 19 21  1  0
 20 19  2  0
 21 22  1  0
 22 29  1  0
 23 24  1  0
 22 23  1  6
 24 28  1  0
 25 24  2  0
 25 26  1  0
 26 27  1  0
 28 27  2  0
 29 31  2  0
 29 30  1  0
M  END
$$$$
