WSH.pdb
     RDKit          3D

 31 33  0  0  1  0  0  0  0  0999 V2000
    7.9556  -17.5475   22.0830 N   0  0  0  0  0  0  0  0  0  0  0  0
    9.0472  -16.7091   22.5215 C   0  0  1  0  0  0  0  0  0  0  0  0
    8.4944  -15.3923   22.9760 C   0  0  0  0  0  0  0  0  0  0  0  0
    7.7967  -14.6584   21.9115 C   0  0  0  0  0  0  0  0  0  0  0  0
    6.4149  -14.5181   21.8025 C   0  0  0  0  0  0  0  0  0  0  0  0
    6.1339  -13.8163   20.6927 N   0  0  0  0  0  0  0  0  0  0  0  0
    7.2641  -13.4805   20.0553 C   0  0  0  0  0  0  0  0  0  0  0  0
    7.4643  -12.7636   18.8928 C   0  0  0  0  0  0  0  0  0  0  0  0
    8.7370  -12.5409   18.4410 C   0  0  0  0  0  0  0  0  0  0  0  0
    9.7747  -13.0505   19.1793 C   0  0  0  0  0  0  0  0  0  0  0  0
    9.5736  -13.7789   20.3598 C   0  0  0  0  0  0  0  0  0  0  0  0
    8.3026  -13.9993   20.8057 C   0  0  0  0  0  0  0  0  0  0  0  0
    9.8070  -17.4198   23.5536 C   0  0  0  0  0  0  0  0  0  0  0  0
    9.2478  -18.2385   24.3288 O   0  0  0  0  0  0  0  0  0  0  0  0
   13.5942  -16.2529   24.2819 O   0  0  0  0  0  0  0  0  0  0  0  0
   13.3835  -17.5683   24.6755 C   0  0  0  0  0  0  0  0  0  0  0  0
   11.8642  -17.7476   24.9432 C   0  0  2  0  0  0  0  0  0  0  0  0
   11.2257  -17.2469   23.7604 N   0  0  0  0  0  0  0  0  0  0  0  0
   11.6007  -17.0249   26.1796 C   0  0  0  0  0  0  0  0  0  0  0  0
   11.3319  -15.7894   26.0685 O   0  0  0  0  0  0  0  0  0  0  0  0
   11.6095  -17.5511   27.4950 N   0  0  0  0  0  0  0  0  0  0  0  0
   11.3227  -16.6531   28.6453 C   0  0  1  0  0  0  0  0  0  0  0  0
    9.8538  -16.3867   28.6153 C   0  0  0  0  0  0  0  0  0  0  0  0
    9.4027  -15.2643   27.7886 C   0  0  0  0  0  0  0  0  0  0  0  0
    9.9296  -14.0112   27.6063 C   0  0  0  0  0  0  0  0  0  0  0  0
    9.1522  -13.3851   26.6975 N   0  0  0  0  0  0  0  0  0  0  0  0
    8.1867  -14.2146   26.3325 C   0  0  0  0  0  0  0  0  0  0  0  0
    8.3266  -15.3605   26.9874 N   0  0  0  0  0  0  0  0  0  0  0  0
   11.5916  -17.5326   29.8397 C   0  0  0  0  0  0  0  0  0  0  0  0
   11.6318  -17.0056   31.1382 O   0  0  0  0  0  0  0  0  0  0  0  0
   11.7922  -18.7600   29.7630 O   0  0  0  0  0  0  0  0  0  0  0  0
  2  1  1  1
  2  3  1  0
  3  4  1  0
  4  5  2  0
  4 12  1  0
  5  6  1  0
  6  7  1  0
  7  8  2  0
  9  8  1  0
 10  9  2  0
 11 12  2  0
 11 10  1  0
 12  7  1  0
 13 14  2  0
 13  2  1  0
 15 16  1  0
 17 16  1  6
 17 18  1  0
 17 19  1  0
 18 13  1  0
 19 21  1  0
 20 19  2  0
 21 22  1  0
 22 29  1  0
 23 24  1  0
 22 23  1  6
 24 28  1  0
 25 24  2  0
 25 26  1  0
 26 27  1  0
 28 27  2  0
 29 31  2  0
 29 30  1  0
M  END
$$$$
