DAD.pdb
     RDKit          3D

 22 21  0  0  1  0  0  0  0  0999 V2000
   27.8201  -34.2385   -4.6598 N   0  0  0  0  0  0  0  0  0  0  0  0
   27.7148  -34.8733   -3.3849 C   0  0  1  0  0  0  0  0  0  0  0  0
   28.9394  -35.7357   -3.1618 C   0  0  0  0  0  0  0  0  0  0  0  0
   28.9905  -36.8356   -4.1484 C   0  0  0  0  0  0  0  0  0  0  0  0
   30.0817  -37.1190   -4.6831 O   0  0  0  0  0  0  0  0  0  0  0  0
   27.5547  -33.9391   -2.2400 C   0  0  0  0  0  0  0  0  0  0  0  0
   28.3749  -32.9818   -2.1640 O   0  0  0  0  0  0  0  0  0  0  0  0
   27.8089  -37.5239   -4.4501 O   0  0  0  0  0  0  0  0  0  0  0  0
   24.9867  -32.9223    0.2644 C   0  0  0  0  0  0  0  0  0  0  0  0
   26.3999  -33.0987   -0.1628 C   0  0  2  0  0  0  0  0  0  0  0  0
   26.5807  -34.0318   -1.2489 N   0  0  0  0  0  0  0  0  0  0  0  0
   27.2384  -33.5070    0.9806 C   0  0  0  0  0  0  0  0  0  0  0  0
   27.6579  -34.6998    1.0301 O   0  0  0  0  0  0  0  0  0  0  0  0
   27.5982  -32.6306    2.0275 N   0  0  0  0  0  0  0  0  0  0  0  0
   28.3863  -33.1087    3.1890 C   0  0  1  0  0  0  0  0  0  0  0  0
   28.9407  -31.9362    3.9357 C   0  0  0  0  0  0  0  0  0  0  0  0
   29.7999  -32.3559    5.0517 C   0  0  0  0  0  0  0  0  0  0  0  0
   30.1010  -33.5339    5.3134 O   0  0  0  0  0  0  0  0  0  0  0  0
   27.4385  -33.8366    4.0665 C   0  0  0  0  0  0  0  0  0  0  0  0
   26.2260  -33.4350    4.0990 O   0  0  0  0  0  0  0  0  0  0  0  0
   30.3452  -31.3933    5.9141 O   0  0  0  0  0  0  0  0  0  0  0  0
   27.7172  -34.9138    4.8637 O   0  0  0  0  0  0  0  0  0  0  0  0
  2  6  1  0
  2  1  1  6
  3  2  1  0
  3  4  1  0
  4  5  2  0
  6 11  1  0
  7  6  2  0
  8  4  1  0
 10 11  1  0
 10 12  1  0
 10  9  1  1
 12 13  2  0
 12 14  1  0
 14 15  1  0
 15 19  1  0
 16 17  1  0
 15 16  1  1
 17 18  2  0
 19 20  2  0
 19 22  1  0
 21 17  1  0
M  END
$$$$
