DAD.pdb
     RDKit          3D

 22 21  0  0  1  0  0  0  0  0999 V2000
   17.8842  -23.7234  -13.2457 N   0  0  0  0  0  0  0  0  0  0  0  0
   19.1547  -23.5162  -12.6272 C   0  0  1  0  0  0  0  0  0  0  0  0
   19.8710  -22.3883  -13.3398 C   0  0  0  0  0  0  0  0  0  0  0  0
   20.1801  -22.7652  -14.7356 C   0  0  0  0  0  0  0  0  0  0  0  0
   20.1838  -23.9727  -15.0500 O   0  0  0  0  0  0  0  0  0  0  0  0
   19.0933  -23.2196  -11.1721 C   0  0  0  0  0  0  0  0  0  0  0  0
   20.1740  -22.8858  -10.6104 O   0  0  0  0  0  0  0  0  0  0  0  0
   20.4590  -21.7510  -15.6602 O   0  0  0  0  0  0  0  0  0  0  0  0
   16.8288  -22.0284   -8.5800 C   0  0  0  0  0  0  0  0  0  0  0  0
   17.8923  -22.9926   -8.9674 C   0  0  2  0  0  0  0  0  0  0  0  0
   17.9488  -23.2794  -10.3808 N   0  0  0  0  0  0  0  0  0  0  0  0
   17.7455  -24.2538   -8.2156 C   0  0  0  0  0  0  0  0  0  0  0  0
   17.1903  -25.2383   -8.7845 O   0  0  0  0  0  0  0  0  0  0  0  0
   18.1949  -24.4188   -6.8873 N   0  0  0  0  0  0  0  0  0  0  0  0
   17.9720  -25.6896   -6.1564 C   0  0  1  0  0  0  0  0  0  0  0  0
   18.6391  -25.6222   -4.8184 C   0  0  0  0  0  0  0  0  0  0  0  0
   18.4661  -26.8681   -4.0584 C   0  0  0  0  0  0  0  0  0  0  0  0
   17.9888  -27.9208   -4.5175 O   0  0  0  0  0  0  0  0  0  0  0  0
   16.5072  -25.8083   -5.9608 C   0  0  0  0  0  0  0  0  0  0  0  0
   15.8397  -24.7338   -5.7808 O   0  0  0  0  0  0  0  0  0  0  0  0
   18.8530  -26.9243   -2.7112 O   0  0  0  0  0  0  0  0  0  0  0  0
   15.7694  -26.9611   -5.9511 O   0  0  0  0  0  0  0  0  0  0  0  0
  2  6  1  0
  2  1  1  6
  3  2  1  0
  3  4  1  0
  4  5  2  0
  6 11  1  0
  7  6  2  0
  8  4  1  0
 10 11  1  0
 10 12  1  0
 10  9  1  6
 12 13  2  0
 12 14  1  0
 14 15  1  0
 15 19  1  0
 16 17  1  0
 15 16  1  1
 17 18  2  0
 19 20  2  0
 19 22  1  0
 21 17  1  0
M  END
$$$$
