DAD.pdb
     RDKit          3D

 22 21  0  0  1  0  0  0  0  0999 V2000
   17.6009  -11.9325  -16.2105 N   0  0  0  0  0  0  0  0  0  0  0  0
   18.4507  -11.0018  -16.8820 C   0  0  1  0  0  0  0  0  0  0  0  0
   17.6017  -10.0999  -17.7532 C   0  0  0  0  0  0  0  0  0  0  0  0
   16.8965  -10.8862  -18.7877 C   0  0  0  0  0  0  0  0  0  0  0  0
   15.6586  -10.7719  -18.8959 O   0  0  0  0  0  0  0  0  0  0  0  0
   19.2899  -10.1690  -15.9812 C   0  0  0  0  0  0  0  0  0  0  0  0
   18.6885   -9.5048  -15.0912 O   0  0  0  0  0  0  0  0  0  0  0  0
   17.6440  -11.7350  -19.6134 O   0  0  0  0  0  0  0  0  0  0  0  0
   22.9473   -9.5763  -15.2162 C   0  0  0  0  0  0  0  0  0  0  0  0
   21.4928   -9.2774  -15.1403 C   0  0  2  0  0  0  0  0  0  0  0  0
   20.6772  -10.0605  -16.0374 N   0  0  0  0  0  0  0  0  0  0  0  0
   21.2468   -7.8422  -15.3788 C   0  0  0  0  0  0  0  0  0  0  0  0
   21.1153   -7.4390  -16.5711 O   0  0  0  0  0  0  0  0  0  0  0  0
   21.1504   -6.8911  -14.3397 N   0  0  0  0  0  0  0  0  0  0  0  0
   21.0264   -5.4436  -14.6364 C   0  0  1  0  0  0  0  0  0  0  0  0
   19.6836   -4.9540  -14.1923 C   0  0  0  0  0  0  0  0  0  0  0  0
   19.5238   -3.5116  -14.4246 C   0  0  0  0  0  0  0  0  0  0  0  0
   20.3024   -2.6343  -14.0114 O   0  0  0  0  0  0  0  0  0  0  0  0
   22.0764   -4.7623  -13.8418 C   0  0  0  0  0  0  0  0  0  0  0  0
   22.3096   -3.5310  -14.0914 O   0  0  0  0  0  0  0  0  0  0  0  0
   18.4275   -3.0398  -15.1616 O   0  0  0  0  0  0  0  0  0  0  0  0
   22.8423   -5.3107  -12.8488 O   0  0  0  0  0  0  0  0  0  0  0  0
  2  6  1  0
  2  1  1  1
  3  2  1  0
  3  4  1  0
  4  5  2  0
  6 11  1  0
  7  6  2  0
  8  4  1  0
 10 11  1  0
 10 12  1  0
 10  9  1  6
 12 13  2  0
 12 14  1  0
 14 15  1  0
 15 19  1  0
 16 17  1  0
 15 16  1  1
 17 18  2  0
 19 20  2  0
 19 22  1  0
 21 17  1  0
M  END
$$$$
