DAD.pdb
     RDKit          3D

 22 21  0  0  1  0  0  0  0  0999 V2000
   17.6518  -11.3748  -15.4421 N   0  0  0  0  0  0  0  0  0  0  0  0
   18.6129  -10.6308  -16.1919 C   0  0  1  0  0  0  0  0  0  0  0  0
   17.9641  -10.1316  -17.4659 C   0  0  0  0  0  0  0  0  0  0  0  0
   17.5008  -11.2648  -18.2948 C   0  0  0  0  0  0  0  0  0  0  0  0
   18.2686  -12.2298  -18.4845 O   0  0  0  0  0  0  0  0  0  0  0  0
   19.2132   -9.4835  -15.4623 C   0  0  0  0  0  0  0  0  0  0  0  0
   18.4180   -8.7121  -14.8560 O   0  0  0  0  0  0  0  0  0  0  0  0
   16.2119  -11.2163  -18.8404 O   0  0  0  0  0  0  0  0  0  0  0  0
   22.5908   -8.1447  -14.4450 C   0  0  0  0  0  0  0  0  0  0  0  0
   21.1457   -8.0194  -14.7720 C   0  0  2  0  0  0  0  0  0  0  0  0
   20.5728   -9.1897  -15.3926 N   0  0  0  0  0  0  0  0  0  0  0  0
   20.9101   -6.8427  -15.6305 C   0  0  0  0  0  0  0  0  0  0  0  0
   20.4710   -7.0252  -16.8032 O   0  0  0  0  0  0  0  0  0  0  0  0
   21.1509   -5.5170  -15.2085 N   0  0  0  0  0  0  0  0  0  0  0  0
   20.9370   -4.3713  -16.1252 C   0  0  1  0  0  0  0  0  0  0  0  0
   19.5010   -4.3256  -16.5442 C   0  0  0  0  0  0  0  0  0  0  0  0
   19.2072   -3.1386  -17.3594 C   0  0  0  0  0  0  0  0  0  0  0  0
   19.7458   -2.0267  -17.2164 O   0  0  0  0  0  0  0  0  0  0  0  0
   21.2529   -3.1489  -15.3479 C   0  0  0  0  0  0  0  0  0  0  0  0
   21.5189   -2.0808  -15.9965 O   0  0  0  0  0  0  0  0  0  0  0  0
   18.2561   -3.2148  -18.3875 O   0  0  0  0  0  0  0  0  0  0  0  0
   21.2929   -3.0283  -13.9850 O   0  0  0  0  0  0  0  0  0  0  0  0
  2  6  1  0
  2  1  1  1
  3  2  1  0
  3  4  1  0
  4  5  2  0
  6 11  1  0
  7  6  2  0
  8  4  1  0
 10 11  1  0
 10 12  1  0
 10  9  1  6
 12 13  2  0
 12 14  1  0
 14 15  1  0
 15 19  1  0
 16 17  1  0
 15 16  1  1
 17 18  2  0
 19 20  2  0
 19 22  1  0
 21 17  1  0
M  END
$$$$
