DAD.pdb
     RDKit          3D

 22 21  0  0  1  0  0  0  0  0999 V2000
   18.2871  -11.3477  -17.3232 N   0  0  0  0  0  0  0  0  0  0  0  0
   18.1322  -10.9507  -15.9602 C   0  0  1  0  0  0  0  0  0  0  0  0
   17.9523  -12.1873  -15.1048 C   0  0  0  0  0  0  0  0  0  0  0  0
   16.6856  -12.8731  -15.4378 C   0  0  0  0  0  0  0  0  0  0  0  0
   15.6951  -12.1891  -15.7665 O   0  0  0  0  0  0  0  0  0  0  0  0
   19.2537  -10.1377  -15.4214 C   0  0  0  0  0  0  0  0  0  0  0  0
   19.2001   -9.8289  -14.1980 O   0  0  0  0  0  0  0  0  0  0  0  0
   16.6405  -14.2712  -15.3729 O   0  0  0  0  0  0  0  0  0  0  0  0
   22.7527   -9.1524  -16.2666 C   0  0  0  0  0  0  0  0  0  0  0  0
   21.4358   -8.8924  -15.6269 C   0  0  2  0  0  0  0  0  0  0  0  0
   20.3527   -9.6898  -16.1503 N   0  0  0  0  0  0  0  0  0  0  0  0
   21.0860   -7.4624  -15.7265 C   0  0  0  0  0  0  0  0  0  0  0  0
   20.4502   -7.0628  -16.7450 O   0  0  0  0  0  0  0  0  0  0  0  0
   21.4263   -6.5125  -14.7389 N   0  0  0  0  0  0  0  0  0  0  0  0
   21.0278   -5.0908  -14.8750 C   0  0  1  0  0  0  0  0  0  0  0  0
   19.6240   -4.9145  -14.3872 C   0  0  0  0  0  0  0  0  0  0  0  0
   19.2093   -3.5048  -14.4137 C   0  0  0  0  0  0  0  0  0  0  0  0
   19.0461   -2.7925  -13.4074 O   0  0  0  0  0  0  0  0  0  0  0  0
   21.9432   -4.3146  -14.0045 C   0  0  0  0  0  0  0  0  0  0  0  0
   22.7430   -4.9642  -13.2491 O   0  0  0  0  0  0  0  0  0  0  0  0
   18.9676   -2.8706  -15.6413 O   0  0  0  0  0  0  0  0  0  0  0  0
   22.0340   -2.9518  -13.9143 O   0  0  0  0  0  0  0  0  0  0  0  0
  2  6  1  0
  2  1  1  6
  3  2  1  0
  3  4  1  0
  4  5  2  0
  6 11  1  0
  7  6  2  0
  8  4  1  0
 10 11  1  0
 10 12  1  0
 10  9  1  6
 12 13  2  0
 12 14  1  0
 14 15  1  0
 15 19  1  0
 16 17  1  0
 15 16  1  1
 17 18  2  0
 19 20  2  0
 19 22  1  0
 21 17  1  0
M  END
$$$$
