DAD.pdb
     RDKit          3D

 22 21  0  0  1  0  0  0  0  0999 V2000
   17.9674  -11.0808  -17.3980 N   0  0  0  0  0  0  0  0  0  0  0  0
   17.6884  -10.2849  -16.2454 C   0  0  1  0  0  0  0  0  0  0  0  0
   16.9069  -11.1168  -15.2503 C   0  0  0  0  0  0  0  0  0  0  0  0
   15.5740  -11.4606  -15.7897 C   0  0  0  0  0  0  0  0  0  0  0  0
   15.4852  -12.3436  -16.6668 O   0  0  0  0  0  0  0  0  0  0  0  0
   18.8903   -9.7193  -15.5786 C   0  0  0  0  0  0  0  0  0  0  0  0
   18.7035   -9.0945  -14.4971 O   0  0  0  0  0  0  0  0  0  0  0  0
   14.4531  -10.7814  -15.2964 O   0  0  0  0  0  0  0  0  0  0  0  0
   22.6570   -9.7323  -15.9442 C   0  0  0  0  0  0  0  0  0  0  0  0
   21.3587   -9.2334  -15.4186 C   0  0  2  0  0  0  0  0  0  0  0  0
   20.1986   -9.8200  -16.0454 N   0  0  0  0  0  0  0  0  0  0  0  0
   21.2866   -7.7638  -15.5292 C   0  0  0  0  0  0  0  0  0  0  0  0
   20.9002   -7.2556  -16.6218 O   0  0  0  0  0  0  0  0  0  0  0  0
   21.6287   -6.8913  -14.4731 N   0  0  0  0  0  0  0  0  0  0  0  0
   21.6124   -5.4204  -14.6600 C   0  0  1  0  0  0  0  0  0  0  0  0
   20.2174   -4.9684  -14.9590 C   0  0  0  0  0  0  0  0  0  0  0  0
   20.1249   -3.5044  -15.0490 C   0  0  0  0  0  0  0  0  0  0  0  0
   20.9590   -2.7724  -15.6104 O   0  0  0  0  0  0  0  0  0  0  0  0
   22.0459   -4.8301  -13.3709 C   0  0  0  0  0  0  0  0  0  0  0  0
   22.2077   -3.5638  -13.3183 O   0  0  0  0  0  0  0  0  0  0  0  0
   19.0334   -2.8366  -14.4744 O   0  0  0  0  0  0  0  0  0  0  0  0
   22.2982   -5.4987  -12.2035 O   0  0  0  0  0  0  0  0  0  0  0  0
  2  6  1  0
  2  1  1  6
  3  2  1  0
  3  4  1  0
  4  5  2  0
  6 11  1  0
  7  6  2  0
  8  4  1  0
 10 11  1  0
 10 12  1  0
 10  9  1  6
 12 13  2  0
 12 14  1  0
 14 15  1  0
 15 19  1  0
 16 17  1  0
 15 16  1  1
 17 18  2  0
 19 20  2  0
 19 22  1  0
 21 17  1  0
M  END
$$$$
