DAD.pdb
     RDKit          3D

 22 21  0  0  1  0  0  0  0  0999 V2000
   18.3621  -10.5243  -16.8150 N   0  0  0  0  0  0  0  0  0  0  0  0
   17.9805  -10.0095  -15.5387 C   0  0  1  0  0  0  0  0  0  0  0  0
   17.0135  -10.9757  -14.8873 C   0  0  0  0  0  0  0  0  0  0  0  0
   15.8920  -11.2867  -15.7991 C   0  0  0  0  0  0  0  0  0  0  0  0
   15.8810  -10.7807  -16.9396 O   0  0  0  0  0  0  0  0  0  0  0  0
   19.1138   -9.7475  -14.6134 C   0  0  0  0  0  0  0  0  0  0  0  0
   18.8214   -9.3991  -13.4353 O   0  0  0  0  0  0  0  0  0  0  0  0
   14.8773  -12.1412  -15.3504 O   0  0  0  0  0  0  0  0  0  0  0  0
   22.8860  -10.0205  -14.5236 C   0  0  0  0  0  0  0  0  0  0  0  0
   21.5630   -9.5248  -14.0600 C   0  0  2  0  0  0  0  0  0  0  0  0
   20.4644   -9.8533  -14.9364 N   0  0  0  0  0  0  0  0  0  0  0  0
   21.6032   -8.0651  -13.8482 C   0  0  0  0  0  0  0  0  0  0  0  0
   22.5049   -7.5848  -13.1015 O   0  0  0  0  0  0  0  0  0  0  0  0
   20.6824   -7.1725  -14.4389 N   0  0  0  0  0  0  0  0  0  0  0  0
   20.8054   -5.7075  -14.2460 C   0  0  1  0  0  0  0  0  0  0  0  0
   22.0230   -5.2083  -14.9587 C   0  0  0  0  0  0  0  0  0  0  0  0
   22.1336   -3.7443  -14.8918 C   0  0  0  0  0  0  0  0  0  0  0  0
   21.4100   -3.0075  -14.1987 O   0  0  0  0  0  0  0  0  0  0  0  0
   19.6014   -5.1016  -14.8636 C   0  0  0  0  0  0  0  0  0  0  0  0
   19.4021   -3.8525  -14.6835 O   0  0  0  0  0  0  0  0  0  0  0  0
   23.1123   -3.0821  -15.6475 O   0  0  0  0  0  0  0  0  0  0  0  0
   18.6570   -5.7389  -15.6223 O   0  0  0  0  0  0  0  0  0  0  0  0
  2  6  1  0
  2  1  1  6
  3  2  1  0
  3  4  1  0
  4  5  2  0
  6 11  1  0
  7  6  2  0
  8  4  1  0
 10 11  1  0
 10 12  1  0
 10  9  1  6
 12 13  2  0
 12 14  1  0
 14 15  1  0
 15 19  1  0
 16 17  1  0
 15 16  1  6
 17 18  2  0
 19 20  2  0
 19 22  1  0
 21 17  1  0
M  END
$$$$
