DAD.pdb
     RDKit          3D

 22 21  0  0  1  0  0  0  0  0999 V2000
   16.6249   -9.9934  -13.8903 N   0  0  0  0  0  0  0  0  0  0  0  0
   17.4850   -9.3198  -14.8101 C   0  0  1  0  0  0  0  0  0  0  0  0
   17.0121   -7.8901  -14.9695 C   0  0  0  0  0  0  0  0  0  0  0  0
   15.6449   -7.8517  -15.5310 C   0  0  0  0  0  0  0  0  0  0  0  0
   14.7708   -7.1767  -14.9504 O   0  0  0  0  0  0  0  0  0  0  0  0
   18.9219   -9.3241  -14.4301 C   0  0  0  0  0  0  0  0  0  0  0  0
   19.1922   -9.1229  -13.2129 O   0  0  0  0  0  0  0  0  0  0  0  0
   15.3769   -8.5764  -16.6989 O   0  0  0  0  0  0  0  0  0  0  0  0
   22.2246  -10.4221  -15.8201 C   0  0  0  0  0  0  0  0  0  0  0  0
   21.3800   -9.5935  -14.9196 C   0  0  2  0  0  0  0  0  0  0  0  0
   19.9894   -9.5299  -15.3005 N   0  0  0  0  0  0  0  0  0  0  0  0
   21.9238   -8.2258  -14.8145 C   0  0  0  0  0  0  0  0  0  0  0  0
   23.1396   -8.0790  -14.4959 O   0  0  0  0  0  0  0  0  0  0  0  0
   21.1531   -7.0669  -15.0522 N   0  0  0  0  0  0  0  0  0  0  0  0
   21.7582   -5.7157  -14.9713 C   0  0  1  0  0  0  0  0  0  0  0  0
   20.8803   -4.7300  -15.6768 C   0  0  0  0  0  0  0  0  0  0  0  0
   20.8660   -4.9530  -17.1294 C   0  0  0  0  0  0  0  0  0  0  0  0
   19.8544   -5.2357  -17.7955 O   0  0  0  0  0  0  0  0  0  0  0  0
   21.8149   -5.3682  -13.5311 C   0  0  0  0  0  0  0  0  0  0  0  0
   21.0484   -6.0060  -12.7322 O   0  0  0  0  0  0  0  0  0  0  0  0
   22.0566   -4.8507  -17.8639 O   0  0  0  0  0  0  0  0  0  0  0  0
   22.6116   -4.4227  -12.9438 O   0  0  0  0  0  0  0  0  0  0  0  0
  2  6  1  0
  2  1  1  1
  3  2  1  0
  3  4  1  0
  4  5  2  0
  6 11  1  0
  7  6  2  0
  8  4  1  0
 10 11  1  0
 10 12  1  0
 10  9  1  6
 12 13  2  0
 12 14  1  0
 14 15  1  0
 15 19  1  0
 16 17  1  0
 15 16  1  6
 17 18  2  0
 19 20  2  0
 19 22  1  0
 21 17  1  0
M  END
$$$$
