DAD.pdb
     RDKit          3D

 22 21  0  0  1  0  0  0  0  0999 V2000
   17.9956  -13.4612  -16.9233 N   0  0  0  0  0  0  0  0  0  0  0  0
   17.3637  -12.3836  -16.2312 C   0  0  1  0  0  0  0  0  0  0  0  0
   17.3898  -12.6707  -14.7446 C   0  0  0  0  0  0  0  0  0  0  0  0
   16.6054  -13.8846  -14.4333 C   0  0  0  0  0  0  0  0  0  0  0  0
   17.1888  -14.8738  -13.9453 O   0  0  0  0  0  0  0  0  0  0  0  0
   17.9643  -11.0481  -16.4858 C   0  0  0  0  0  0  0  0  0  0  0  0
   19.2254  -10.9801  -16.4932 O   0  0  0  0  0  0  0  0  0  0  0  0
   15.2301  -13.8828  -14.6973 O   0  0  0  0  0  0  0  0  0  0  0  0
   16.8598   -7.6633  -17.7298 C   0  0  0  0  0  0  0  0  0  0  0  0
   17.8313   -8.6137  -17.1268 C   0  0  2  0  0  0  0  0  0  0  0  0
   17.2554   -9.8714  -16.7150 N   0  0  0  0  0  0  0  0  0  0  0  0
   18.5209   -7.9904  -15.9808 C   0  0  0  0  0  0  0  0  0  0  0  0
   18.1029   -8.2391  -14.8126 O   0  0  0  0  0  0  0  0  0  0  0  0
   19.6287   -7.1263  -16.1218 N   0  0  0  0  0  0  0  0  0  0  0  0
   20.2388   -6.4658  -14.9428 C   0  0  1  0  0  0  0  0  0  0  0  0
   21.6161   -5.9937  -15.2894 C   0  0  0  0  0  0  0  0  0  0  0  0
   22.2815   -5.3608  -14.1419 C   0  0  0  0  0  0  0  0  0  0  0  0
   21.8243   -5.3247  -12.9859 O   0  0  0  0  0  0  0  0  0  0  0  0
   19.3884   -5.2910  -14.6348 C   0  0  0  0  0  0  0  0  0  0  0  0
   18.9724   -4.5819  -15.6129 O   0  0  0  0  0  0  0  0  0  0  0  0
   23.5267   -4.7379  -14.3127 O   0  0  0  0  0  0  0  0  0  0  0  0
   18.9871   -4.8681  -13.3964 O   0  0  0  0  0  0  0  0  0  0  0  0
  2  6  1  0
  2  1  1  6
  3  2  1  0
  3  4  1  0
  4  5  2  0
  6 11  1  0
  7  6  2  0
  8  4  1  0
 10 11  1  0
 10 12  1  0
 10  9  1  1
 12 13  2  0
 12 14  1  0
 14 15  1  0
 15 19  1  0
 16 17  1  0
 15 16  1  6
 17 18  2  0
 19 20  2  0
 19 22  1  0
 21 17  1  0
M  END
$$$$
