DAD.pdb
     RDKit          3D

 22 21  0  0  1  0  0  0  0  0999 V2000
   20.9848  -12.5487  -17.6959 N   0  0  0  0  0  0  0  0  0  0  0  0
   20.0601  -11.8858  -16.8328 C   0  0  1  0  0  0  0  0  0  0  0  0
   19.1953  -12.9232  -16.1481 C   0  0  0  0  0  0  0  0  0  0  0  0
   18.2900  -13.5724  -17.1201 C   0  0  0  0  0  0  0  0  0  0  0  0
   18.2581  -13.1496  -18.2936 O   0  0  0  0  0  0  0  0  0  0  0  0
   20.6882  -11.0129  -15.8068 C   0  0  0  0  0  0  0  0  0  0  0  0
   19.9314  -10.5525  -14.9067 O   0  0  0  0  0  0  0  0  0  0  0  0
   17.4967  -14.6430  -16.6893 O   0  0  0  0  0  0  0  0  0  0  0  0
   24.1046   -9.8354  -14.7096 C   0  0  0  0  0  0  0  0  0  0  0  0
   22.6249   -9.7379  -14.8176 C   0  0  2  0  0  0  0  0  0  0  0  0
   22.0350  -10.6619  -15.7564 N   0  0  0  0  0  0  0  0  0  0  0  0
   22.2213   -8.3614  -15.1634 C   0  0  0  0  0  0  0  0  0  0  0  0
   22.2057   -8.0216  -16.3822 O   0  0  0  0  0  0  0  0  0  0  0  0
   21.8500   -7.3992  -14.1991 N   0  0  0  0  0  0  0  0  0  0  0  0
   21.5701   -5.9957  -14.5869 C   0  0  1  0  0  0  0  0  0  0  0  0
   20.0940   -5.8027  -14.7406 C   0  0  0  0  0  0  0  0  0  0  0  0
   19.7547   -4.4063  -15.0488 C   0  0  0  0  0  0  0  0  0  0  0  0
   20.5473   -3.5678  -15.5128 O   0  0  0  0  0  0  0  0  0  0  0  0
   22.0548   -5.1486  -13.4707 C   0  0  0  0  0  0  0  0  0  0  0  0
   22.0258   -3.8808  -13.6269 O   0  0  0  0  0  0  0  0  0  0  0  0
   18.4529   -3.9367  -14.8199 O   0  0  0  0  0  0  0  0  0  0  0  0
   22.5401   -5.5761  -12.2644 O   0  0  0  0  0  0  0  0  0  0  0  0
  2  6  1  0
  2  1  1  1
  3  2  1  0
  3  4  1  0
  4  5  2  0
  6 11  1  0
  7  6  2  0
  8  4  1  0
 10 11  1  0
 10 12  1  0
 10  9  1  6
 12 13  2  0
 12 14  1  0
 14 15  1  0
 15 19  1  0
 16 17  1  0
 15 16  1  1
 17 18  2  0
 19 20  2  0
 19 22  1  0
 21 17  1  0
M  END
$$$$
