DAD.pdb
     RDKit          3D

 22 21  0  0  1  0  0  0  0  0999 V2000
   16.2194  -11.2503  -16.5104 N   0  0  0  0  0  0  0  0  0  0  0  0
   16.3279  -10.6740  -15.2082 C   0  0  1  0  0  0  0  0  0  0  0  0
   16.9673  -11.6815  -14.2758 C   0  0  0  0  0  0  0  0  0  0  0  0
   16.0862  -12.8541  -14.0903 C   0  0  0  0  0  0  0  0  0  0  0  0
   14.8497  -12.6982  -14.1523 O   0  0  0  0  0  0  0  0  0  0  0  0
   17.0926   -9.4006  -15.1571 C   0  0  0  0  0  0  0  0  0  0  0  0
   18.1901   -9.3671  -15.7811 O   0  0  0  0  0  0  0  0  0  0  0  0
   16.6711  -14.1038  -13.8508 O   0  0  0  0  0  0  0  0  0  0  0  0
   16.4943   -5.8143  -14.1668 C   0  0  0  0  0  0  0  0  0  0  0  0
   17.3475   -6.9604  -14.5780 C   0  0  2  0  0  0  0  0  0  0  0  0
   16.7016   -8.2474  -14.4811 N   0  0  0  0  0  0  0  0  0  0  0  0
   18.5997   -6.9790  -13.7976 C   0  0  0  0  0  0  0  0  0  0  0  0
   18.5767   -7.4530  -12.6245 O   0  0  0  0  0  0  0  0  0  0  0  0
   19.8281   -6.4923  -14.2951 N   0  0  0  0  0  0  0  0  0  0  0  0
   21.0794   -6.6297  -13.5115 C   0  0  1  0  0  0  0  0  0  0  0  0
   22.0324   -7.5239  -14.2411 C   0  0  0  0  0  0  0  0  0  0  0  0
   22.2949   -7.0452  -15.6056 C   0  0  0  0  0  0  0  0  0  0  0  0
   23.2893   -7.3505  -16.2873 O   0  0  0  0  0  0  0  0  0  0  0  0
   21.6661   -5.2713  -13.4185 C   0  0  0  0  0  0  0  0  0  0  0  0
   22.7003   -5.1164  -12.6843 O   0  0  0  0  0  0  0  0  0  0  0  0
   21.3858   -6.1775  -16.2287 O   0  0  0  0  0  0  0  0  0  0  0  0
   21.2193   -4.1379  -14.0424 O   0  0  0  0  0  0  0  0  0  0  0  0
  2  6  1  0
  2  1  1  6
  3  2  1  0
  3  4  1  0
  4  5  2  0
  6 11  1  0
  7  6  2  0
  8  4  1  0
 10 11  1  0
 10 12  1  0
 10  9  1  1
 12 13  2  0
 12 14  1  0
 14 15  1  0
 15 19  1  0
 16 17  1  0
 15 16  1  6
 17 18  2  0
 19 20  2  0
 19 22  1  0
 21 17  1  0
M  END
$$$$
