SCK.pdb
     RDKit          3D

 22 21  0  0  1  0  0  0  0  0999 V2000
   20.3689  -11.4466  -16.8259 O   0  0  0  0  0  0  0  0  0  0  0  0
   20.5249  -10.8405  -18.0671 C   0  0  0  0  0  0  0  0  0  0  0  0
   22.0018  -10.8496  -18.3896 C   0  0  2  0  0  0  0  0  0  0  0  0
   22.5539  -12.1687  -18.3626 N   0  0  0  0  0  0  0  0  0  0  0  0
   22.7697   -9.9609  -17.4848 C   0  0  0  0  0  0  0  0  0  0  0  0
   23.9823  -10.1585  -17.2960 O   0  0  0  0  0  0  0  0  0  0  0  0
   22.0966   -8.8929  -16.8474 N   0  0  0  0  0  0  0  0  0  0  0  0
   22.7859   -7.8641  -16.1000 C   0  0  1  0  0  0  0  0  0  0  0  0
   23.8022   -7.2270  -17.0354 C   0  0  0  0  0  0  0  0  0  0  0  0
   24.5316   -5.7608  -16.2588 S   0  0  0  0  0  0  0  0  0  0  0  0
   21.8432   -6.8410  -15.6019 C   0  0  0  0  0  0  0  0  0  0  0  0
   21.0494   -6.2139  -16.3583 O   0  0  0  0  0  0  0  0  0  0  0  0
   21.8321   -6.5531  -14.2131 N   0  0  0  0  0  0  0  0  0  0  0  0
   20.7858   -5.7677  -13.5948 C   0  0  1  0  0  0  0  0  0  0  0  0
   20.2572   -6.4003  -12.3393 C   0  0  0  0  0  0  0  0  0  0  0  0
   19.0129   -5.7338  -11.8317 C   0  0  0  0  0  0  0  0  0  0  0  0
   18.4070   -6.4789  -10.6619 C   0  0  0  0  0  0  0  0  0  0  0  0
   17.0498   -5.9109  -10.3151 C   0  0  0  0  0  0  0  0  0  0  0  0
   16.5769   -6.5471   -9.0929 N   0  0  0  0  0  0  0  0  0  0  0  0
   21.3095   -4.4119  -13.2912 C   0  0  0  0  0  0  0  0  0  0  0  0
   22.5137   -4.2167  -12.9908 O   0  0  0  0  0  0  0  0  0  0  0  0
   20.4694   -3.3082  -13.3320 O   0  0  0  0  0  0  0  0  0  0  0  0
  1  2  1  0
  3  5  1  0
  3  2  1  0
  3  4  1  1
  5  6  2  0
  7  8  1  0
  7  5  1  0
  8 11  1  0
  8  9  1  6
 10  9  1  0
 11 13  1  0
 11 12  2  0
 13 14  1  0
 14 15  1  1
 15 16  1  0
 16 17  1  0
 17 18  1  0
 18 19  1  0
 20 22  1  0
 20 14  1  0
 21 20  2  0
M  END
$$$$
