SCK.pdb
     RDKit          3D

 22 21  0  0  1  0  0  0  0  0999 V2000
   28.3092  -18.9860  -16.1987 O   0  0  0  0  0  0  0  0  0  0  0  0
   27.1753  -19.7360  -15.9090 C   0  0  0  0  0  0  0  0  0  0  0  0
   27.6339  -20.9875  -15.1959 C   0  0  2  0  0  0  0  0  0  0  0  0
   28.0318  -22.0153  -16.1073 N   0  0  0  0  0  0  0  0  0  0  0  0
   26.5987  -21.5055  -14.2694 C   0  0  0  0  0  0  0  0  0  0  0  0
   25.8681  -22.4502  -14.6141 O   0  0  0  0  0  0  0  0  0  0  0  0
   26.4631  -20.9052  -12.9961 N   0  0  0  0  0  0  0  0  0  0  0  0
   25.3463  -21.1722  -12.1165 C   0  0  1  0  0  0  0  0  0  0  0  0
   25.7282  -20.6698  -10.7325 C   0  0  0  0  0  0  0  0  0  0  0  0
   24.2989  -20.7557   -9.6213 S   0  0  0  0  0  0  0  0  0  0  0  0
   24.1213  -20.4908  -12.5839 C   0  0  0  0  0  0  0  0  0  0  0  0
   24.0591  -19.2428  -12.7692 O   0  0  0  0  0  0  0  0  0  0  0  0
   22.9666  -21.2754  -12.8341 N   0  0  0  0  0  0  0  0  0  0  0  0
   21.7222  -20.6957  -13.2919 C   0  0  1  0  0  0  0  0  0  0  0  0
   21.2109  -21.3469  -14.5450 C   0  0  0  0  0  0  0  0  0  0  0  0
   19.9783  -20.6830  -15.0838 C   0  0  0  0  0  0  0  0  0  0  0  0
   19.3829  -21.4492  -16.2453 C   0  0  0  0  0  0  0  0  0  0  0  0
   19.7761  -20.8137  -17.5592 C   0  0  0  0  0  0  0  0  0  0  0  0
   19.1193  -21.5353  -18.6409 N   0  0  0  0  0  0  0  0  0  0  0  0
   20.7060  -20.8118  -12.2156 C   0  0  0  0  0  0  0  0  0  0  0  0
   20.6670  -21.8014  -11.4425 O   0  0  0  0  0  0  0  0  0  0  0  0
   19.7583  -19.8148  -12.0328 O   0  0  0  0  0  0  0  0  0  0  0  0
  1  2  1  0
  3  5  1  0
  3  2  1  0
  3  4  1  6
  5  6  2  0
  7  8  1  0
  7  5  1  0
  8 11  1  0
  8  9  1  1
 10  9  1  0
 11 13  1  0
 11 12  2  0
 13 14  1  0
 14 15  1  6
 15 16  1  0
 16 17  1  0
 17 18  1  0
 18 19  1  0
 20 22  1  0
 20 14  1  0
 21 20  2  0
M  END
$$$$
