SCK.pdb
     RDKit          3D

 22 21  0  0  1  0  0  0  0  0999 V2000
   33.0546  -21.4177  -21.1125 O   0  0  0  0  0  0  0  0  0  0  0  0
   33.1910  -21.4464  -19.7295 C   0  0  0  0  0  0  0  0  0  0  0  0
   34.1410  -22.5735  -19.3945 C   0  0  2  0  0  0  0  0  0  0  0  0
   35.3056  -22.5650  -20.2245 N   0  0  0  0  0  0  0  0  0  0  0  0
   33.4758  -23.8965  -19.4693 C   0  0  0  0  0  0  0  0  0  0  0  0
   33.9287  -24.7823  -20.2146 O   0  0  0  0  0  0  0  0  0  0  0  0
   32.3247  -24.1251  -18.6802 N   0  0  0  0  0  0  0  0  0  0  0  0
   31.6542  -25.4053  -18.6210 C   0  0  1  0  0  0  0  0  0  0  0  0
   32.6331  -26.4033  -18.0213 C   0  0  0  0  0  0  0  0  0  0  0  0
   31.7321  -27.7473  -17.2047 S   0  0  0  0  0  0  0  0  0  0  0  0
   30.4324  -25.3325  -17.7932 C   0  0  0  0  0  0  0  0  0  0  0  0
   30.4055  -24.7801  -16.6575 O   0  0  0  0  0  0  0  0  0  0  0  0
   29.2395  -25.9093  -18.2990 N   0  0  0  0  0  0  0  0  0  0  0  0
   27.9721  -25.7932  -17.6103 C   0  0  1  0  0  0  0  0  0  0  0  0
   26.7995  -25.8792  -18.5449 C   0  0  0  0  0  0  0  0  0  0  0  0
   25.4878  -25.6484  -17.8547 C   0  0  0  0  0  0  0  0  0  0  0  0
   24.6228  -26.8904  -17.8502 C   0  0  0  0  0  0  0  0  0  0  0  0
   23.2651  -26.5908  -17.2569 C   0  0  0  0  0  0  0  0  0  0  0  0
   22.4524  -27.7981  -17.3200 N   0  0  0  0  0  0  0  0  0  0  0  0
   27.8756  -26.8624  -16.5846 C   0  0  0  0  0  0  0  0  0  0  0  0
   27.3337  -26.6654  -15.4683 O   0  0  0  0  0  0  0  0  0  0  0  0
   28.3893  -28.1267  -16.8363 O   0  0  0  0  0  0  0  0  0  0  0  0
  1  2  1  0
  3  5  1  0
  3  2  1  0
  3  4  1  6
  5  6  2  0
  7  8  1  0
  7  5  1  0
  8 11  1  0
  8  9  1  1
 10  9  1  0
 11 13  1  0
 11 12  2  0
 13 14  1  0
 14 15  1  6
 15 16  1  0
 16 17  1  0
 17 18  1  0
 18 19  1  0
 20 22  1  0
 20 14  1  0
 21 20  2  0
M  END
$$$$
