SCK.pdb
     RDKit          3D

 22 21  0  0  1  0  0  0  0  0999 V2000
   19.6909  -13.0146  -19.4374 O   0  0  0  0  0  0  0  0  0  0  0  0
   19.2014  -12.0253  -18.5924 C   0  0  0  0  0  0  0  0  0  0  0  0
   19.8152  -12.2534  -17.2299 C   0  0  2  0  0  0  0  0  0  0  0  0
   19.3751  -13.4776  -16.6356 N   0  0  0  0  0  0  0  0  0  0  0  0
   19.5525  -11.1210  -16.3097 C   0  0  0  0  0  0  0  0  0  0  0  0
   18.4646  -11.0395  -15.7139 O   0  0  0  0  0  0  0  0  0  0  0  0
   20.5592  -10.1446  -16.1272 N   0  0  0  0  0  0  0  0  0  0  0  0
   20.3956   -9.0004  -15.2576 C   0  0  1  0  0  0  0  0  0  0  0  0
   21.7611   -8.6776  -14.6703 C   0  0  0  0  0  0  0  0  0  0  0  0
   21.6281   -7.2963  -13.5045 S   0  0  0  0  0  0  0  0  0  0  0  0
   19.8733   -7.8340  -15.9992 C   0  0  0  0  0  0  0  0  0  0  0  0
   20.4515   -7.3512  -17.0132 O   0  0  0  0  0  0  0  0  0  0  0  0
   18.6699   -7.2327  -15.5500 N   0  0  0  0  0  0  0  0  0  0  0  0
   18.0966   -6.0725  -16.1976 C   0  0  1  0  0  0  0  0  0  0  0  0
   16.5953   -6.0732  -16.1553 C   0  0  0  0  0  0  0  0  0  0  0  0
   15.9900   -7.1467  -17.0107 C   0  0  0  0  0  0  0  0  0  0  0  0
   14.9954   -7.9905  -16.2429 C   0  0  0  0  0  0  0  0  0  0  0  0
   14.4043   -9.0587  -17.1343 C   0  0  0  0  0  0  0  0  0  0  0  0
   13.3450   -9.7415  -16.4038 N   0  0  0  0  0  0  0  0  0  0  0  0
   18.6162   -4.8443  -15.5451 C   0  0  0  0  0  0  0  0  0  0  0  0
   18.3743   -3.6978  -15.9986 O   0  0  0  0  0  0  0  0  0  0  0  0
   19.3948   -4.9320  -14.3998 O   0  0  0  0  0  0  0  0  0  0  0  0
  1  2  1  0
  3  5  1  0
  3  2  1  0
  3  4  1  1
  5  6  2  0
  7  8  1  0
  7  5  1  0
  8 11  1  0
  8  9  1  6
 10  9  1  0
 11 13  1  0
 11 12  2  0
 13 14  1  0
 14 15  1  1
 15 16  1  0
 16 17  1  0
 17 18  1  0
 18 19  1  0
 20 22  1  0
 20 14  1  0
 21 20  2  0
M  END
$$$$
