SCK.pdb
     RDKit          3D

 22 21  0  0  1  0  0  0  0  0999 V2000
   24.1474  -14.6444  -17.5736 O   0  0  0  0  0  0  0  0  0  0  0  0
   23.2637  -14.1409  -18.5210 C   0  0  0  0  0  0  0  0  0  0  0  0
   23.5581  -12.6658  -18.6716 C   0  0  2  0  0  0  0  0  0  0  0  0
   24.8853  -12.4241  -19.1466 N   0  0  0  0  0  0  0  0  0  0  0  0
   23.3305  -11.9258  -17.4072 C   0  0  0  0  0  0  0  0  0  0  0  0
   22.1957  -11.8875  -16.9012 O   0  0  0  0  0  0  0  0  0  0  0  0
   24.4244  -11.2704  -16.7958 N   0  0  0  0  0  0  0  0  0  0  0  0
   24.2915  -10.4701  -15.5983 C   0  0  1  0  0  0  0  0  0  0  0  0
   25.6875  -10.2706  -15.0281 C   0  0  0  0  0  0  0  0  0  0  0  0
   26.6603   -9.2002  -16.1202 S   0  0  0  0  0  0  0  0  0  0  0  0
   23.6721   -9.1616  -15.8942 C   0  0  0  0  0  0  0  0  0  0  0  0
   23.9218   -8.5068  -16.9452 O   0  0  0  0  0  0  0  0  0  0  0  0
   22.7578   -8.6202  -14.9548 N   0  0  0  0  0  0  0  0  0  0  0  0
   22.0989   -7.3485  -15.1619 C   0  0  1  0  0  0  0  0  0  0  0  0
   20.6449   -7.5032  -15.5051 C   0  0  0  0  0  0  0  0  0  0  0  0
   19.9313   -6.1886  -15.6189 C   0  0  0  0  0  0  0  0  0  0  0  0
   18.4528   -6.3671  -15.8885 C   0  0  0  0  0  0  0  0  0  0  0  0
   17.7730   -5.0249  -16.0346 C   0  0  0  0  0  0  0  0  0  0  0  0
   16.3755   -5.2456  -16.3814 N   0  0  0  0  0  0  0  0  0  0  0  0
   22.2399   -6.5219  -13.9367 C   0  0  0  0  0  0  0  0  0  0  0  0
   22.2795   -7.0344  -12.7902 O   0  0  0  0  0  0  0  0  0  0  0  0
   22.3331   -5.1403  -14.0274 O   0  0  0  0  0  0  0  0  0  0  0  0
  1  2  1  0
  3  5  1  0
  3  2  1  0
  3  4  1  1
  5  6  2  0
  7  8  1  0
  7  5  1  0
  8 11  1  0
  8  9  1  6
 10  9  1  0
 11 13  1  0
 11 12  2  0
 13 14  1  0
 14 15  1  1
 15 16  1  0
 16 17  1  0
 17 18  1  0
 18 19  1  0
 20 22  1  0
 20 14  1  0
 21 20  2  0
M  END
$$$$
