SCK.pdb
     RDKit          3D

 22 21  0  0  1  0  0  0  0  0999 V2000
   29.2293  -20.7049  -16.9038 O   0  0  0  0  0  0  0  0  0  0  0  0
   28.1134  -21.3503  -16.3836 C   0  0  0  0  0  0  0  0  0  0  0  0
   27.4473  -20.3925  -15.4222 C   0  0  2  0  0  0  0  0  0  0  0  0
   28.3433  -19.9350  -14.4056 N   0  0  0  0  0  0  0  0  0  0  0  0
   26.2382  -20.9851  -14.8019 C   0  0  0  0  0  0  0  0  0  0  0  0
   25.2900  -21.3586  -15.5136 O   0  0  0  0  0  0  0  0  0  0  0  0
   26.1890  -21.1144  -13.3944 N   0  0  0  0  0  0  0  0  0  0  0  0
   25.0544  -21.6777  -12.6962 C   0  0  1  0  0  0  0  0  0  0  0  0
   25.4010  -21.7064  -11.2154 C   0  0  0  0  0  0  0  0  0  0  0  0
   25.7930  -20.0352  -10.6338 S   0  0  0  0  0  0  0  0  0  0  0  0
   23.8356  -20.8720  -12.9168 C   0  0  0  0  0  0  0  0  0  0  0  0
   23.8294  -19.6099  -12.8659 O   0  0  0  0  0  0  0  0  0  0  0  0
   22.6212  -21.5489  -13.1977 N   0  0  0  0  0  0  0  0  0  0  0  0
   21.4078  -20.8446  -13.5523 C   0  0  1  0  0  0  0  0  0  0  0  0
   21.2669  -20.6520  -15.0352 C   0  0  0  0  0  0  0  0  0  0  0  0
   19.9888  -19.9638  -15.4132 C   0  0  0  0  0  0  0  0  0  0  0  0
   19.7819  -19.9347  -16.9122 C   0  0  0  0  0  0  0  0  0  0  0  0
   18.5654  -19.1097  -17.2653 C   0  0  0  0  0  0  0  0  0  0  0  0
   18.3867  -19.1380  -18.7108 N   0  0  0  0  0  0  0  0  0  0  0  0
   20.2385  -21.5964  -13.0308 C   0  0  0  0  0  0  0  0  0  0  0  0
   19.1690  -21.0214  -12.7081 O   0  0  0  0  0  0  0  0  0  0  0  0
   20.2974  -22.9750  -12.8840 O   0  0  0  0  0  0  0  0  0  0  0  0
  1  2  1  0
  3  5  1  0
  3  2  1  0
  3  4  1  1
  5  6  2  0
  7  8  1  0
  7  5  1  0
  8 11  1  0
  8  9  1  1
 10  9  1  0
 11 13  1  0
 11 12  2  0
 13 14  1  0
 14 15  1  6
 15 16  1  0
 16 17  1  0
 17 18  1  0
 18 19  1  0
 20 22  1  0
 20 14  1  0
 21 20  2  0
M  END
$$$$
