SCK.pdb
     RDKit          3D

 22 21  0  0  1  0  0  0  0  0999 V2000
   17.7735  -11.2249  -18.6963 O   0  0  0  0  0  0  0  0  0  0  0  0
   19.0763  -11.6249  -18.9700 C   0  0  0  0  0  0  0  0  0  0  0  0
   19.6527  -12.1864  -17.6902 C   0  0  2  0  0  0  0  0  0  0  0  0
   18.7601  -13.1026  -17.0505 N   0  0  0  0  0  0  0  0  0  0  0  0
   20.0418  -11.1141  -16.7432 C   0  0  0  0  0  0  0  0  0  0  0  0
   19.2451  -10.7341  -15.8679 O   0  0  0  0  0  0  0  0  0  0  0  0
   21.3286  -10.5388  -16.8577 N   0  0  0  0  0  0  0  0  0  0  0  0
   21.8085   -9.5037  -15.9688 C   0  0  1  0  0  0  0  0  0  0  0  0
   23.3101   -9.6943  -15.8184 C   0  0  0  0  0  0  0  0  0  0  0  0
   23.6665  -10.7197  -14.3670 S   0  0  0  0  0  0  0  0  0  0  0  0
   21.5189   -8.1584  -16.5072 C   0  0  0  0  0  0  0  0  0  0  0  0
   21.6861   -7.8555  -17.7220 O   0  0  0  0  0  0  0  0  0  0  0  0
   21.0324   -7.1663  -15.6180 N   0  0  0  0  0  0  0  0  0  0  0  0
   20.7182   -5.8231  -16.0554 C   0  0  1  0  0  0  0  0  0  0  0  0
   19.2466   -5.5286  -15.9973 C   0  0  0  0  0  0  0  0  0  0  0  0
   18.9131   -4.1396  -16.4552 C   0  0  0  0  0  0  0  0  0  0  0  0
   17.4317   -3.8479  -16.3502 C   0  0  0  0  0  0  0  0  0  0  0  0
   16.6360   -4.8310  -17.1781 C   0  0  0  0  0  0  0  0  0  0  0  0
   15.2670   -4.3458  -17.2893 N   0  0  0  0  0  0  0  0  0  0  0  0
   21.4581   -4.8508  -15.2118 C   0  0  0  0  0  0  0  0  0  0  0  0
   21.7610   -5.1019  -14.0186 O   0  0  0  0  0  0  0  0  0  0  0  0
   21.8402   -3.6205  -15.7274 O   0  0  0  0  0  0  0  0  0  0  0  0
  1  2  1  0
  3  5  1  0
  3  2  1  0
  3  4  1  1
  5  6  2  0
  7  8  1  0
  7  5  1  0
  8 11  1  0
  8  9  1  6
 10  9  1  0
 11 13  1  0
 11 12  2  0
 13 14  1  0
 14 15  1  1
 15 16  1  0
 16 17  1  0
 17 18  1  0
 18 19  1  0
 20 22  1  0
 20 14  1  0
 21 20  2  0
M  END
$$$$
