SCK.pdb
     RDKit          3D

 22 21  0  0  1  0  0  0  0  0999 V2000
   18.3172  -22.4533  -16.0596 O   0  0  0  0  0  0  0  0  0  0  0  0
   19.5888  -22.7823  -15.6047 C   0  0  0  0  0  0  0  0  0  0  0  0
   19.5797  -22.6374  -14.1000 C   0  0  2  0  0  0  0  0  0  0  0  0
   20.3353  -21.5056  -13.6602 N   0  0  0  0  0  0  0  0  0  0  0  0
   20.0663  -23.8643  -13.4246 C   0  0  0  0  0  0  0  0  0  0  0  0
   21.2761  -24.0017  -13.1741 O   0  0  0  0  0  0  0  0  0  0  0  0
   19.1306  -24.8655  -13.0750 N   0  0  0  0  0  0  0  0  0  0  0  0
   19.5175  -26.1401  -12.5114 C   0  0  1  0  0  0  0  0  0  0  0  0
   18.5626  -26.4386  -11.3655 C   0  0  0  0  0  0  0  0  0  0  0  0
   19.4569  -26.4277   -9.7892 S   0  0  0  0  0  0  0  0  0  0  0  0
   19.4495  -27.2158  -13.5221 C   0  0  0  0  0  0  0  0  0  0  0  0
   18.4677  -27.3615  -14.3034 O   0  0  0  0  0  0  0  0  0  0  0  0
   20.5359  -28.1227  -13.6162 N   0  0  0  0  0  0  0  0  0  0  0  0
   20.5042  -29.2797  -14.4849 C   0  0  1  0  0  0  0  0  0  0  0  0
   21.8101  -30.0213  -14.5032 C   0  0  0  0  0  0  0  0  0  0  0  0
   22.3817  -30.1582  -15.8834 C   0  0  0  0  0  0  0  0  0  0  0  0
   23.7604  -30.7822  -15.8673 C   0  0  0  0  0  0  0  0  0  0  0  0
   24.2534  -31.0195  -17.2764 C   0  0  0  0  0  0  0  0  0  0  0  0
   25.5460  -31.6881  -17.2115 N   0  0  0  0  0  0  0  0  0  0  0  0
   19.4168  -30.1896  -14.0444 C   0  0  0  0  0  0  0  0  0  0  0  0
   19.1468  -30.3631  -12.8296 O   0  0  0  0  0  0  0  0  0  0  0  0
   18.6586  -30.8827  -14.9773 O   0  0  0  0  0  0  0  0  0  0  0  0
  1  2  1  0
  3  5  1  0
  3  2  1  0
  3  4  1  6
  5  6  2  0
  7  8  1  0
  7  5  1  0
  8 11  1  0
  8  9  1  1
 10  9  1  0
 11 13  1  0
 11 12  2  0
 13 14  1  0
 14 15  1  1
 15 16  1  0
 16 17  1  0
 17 18  1  0
 18 19  1  0
 20 22  1  0
 20 14  1  0
 21 20  2  0
M  END
$$$$
