SCK.pdb
     RDKit          3D

 22 21  0  0  1  0  0  0  0  0999 V2000
   13.2677  -12.8939   -9.5981 O   0  0  0  0  0  0  0  0  0  0  0  0
   13.5339  -11.7229  -10.2981 C   0  0  0  0  0  0  0  0  0  0  0  0
   13.1010  -10.5680   -9.4239 C   0  0  2  0  0  0  0  0  0  0  0  0
   11.6779  -10.4709   -9.3203 N   0  0  0  0  0  0  0  0  0  0  0  0
   13.6635   -9.2792   -9.8937 C   0  0  0  0  0  0  0  0  0  0  0  0
   13.1202   -8.6635  -10.8270 O   0  0  0  0  0  0  0  0  0  0  0  0
   14.8219   -8.7712   -9.2612 N   0  0  0  0  0  0  0  0  0  0  0  0
   15.4455   -7.5247   -9.6477 C   0  0  1  0  0  0  0  0  0  0  0  0
   15.6179   -6.6928   -8.3860 C   0  0  0  0  0  0  0  0  0  0  0  0
   16.7621   -5.3214   -8.6944 S   0  0  0  0  0  0  0  0  0  0  0  0
   16.7578   -7.7573  -10.2858 C   0  0  0  0  0  0  0  0  0  0  0  0
   17.7036   -8.3630   -9.7076 O   0  0  0  0  0  0  0  0  0  0  0  0
   16.9609   -7.2780  -11.6051 N   0  0  0  0  0  0  0  0  0  0  0  0
   18.1625   -7.5693  -12.3570 C   0  0  1  0  0  0  0  0  0  0  0  0
   17.9005   -8.4593  -13.5381 C   0  0  0  0  0  0  0  0  0  0  0  0
   19.1533   -8.8339  -14.2732 C   0  0  0  0  0  0  0  0  0  0  0  0
   18.8616   -9.6605  -15.5071 C   0  0  0  0  0  0  0  0  0  0  0  0
   20.1448  -10.1766  -16.1170 C   0  0  0  0  0  0  0  0  0  0  0  0
   19.8108  -11.0993  -17.1937 N   0  0  0  0  0  0  0  0  0  0  0  0
   18.7715   -6.2948  -12.8147 C   0  0  0  0  0  0  0  0  0  0  0  0
   18.0845   -5.2596  -13.0016 O   0  0  0  0  0  0  0  0  0  0  0  0
   20.1363   -6.2127  -13.0514 O   0  0  0  0  0  0  0  0  0  0  0  0
  1  2  1  0
  3  5  1  0
  3  2  1  0
  3  4  1  6
  5  6  2  0
  7  8  1  0
  7  5  1  0
  8 11  1  0
  8  9  1  1
 10  9  1  0
 11 13  1  0
 11 12  2  0
 13 14  1  0
 14 15  1  6
 15 16  1  0
 16 17  1  0
 17 18  1  0
 18 19  1  0
 20 22  1  0
 20 14  1  0
 21 20  2  0
M  END
$$$$
