SCK.pdb
     RDKit          3D

 22 21  0  0  1  0  0  0  0  0999 V2000
   21.3597  -13.1665  -19.1887 O   0  0  0  0  0  0  0  0  0  0  0  0
   21.6061  -12.0827  -18.3539 C   0  0  0  0  0  0  0  0  0  0  0  0
   22.8403  -12.4099  -17.5446 C   0  0  2  0  0  0  0  0  0  0  0  0
   22.6983  -13.6279  -16.8086 N   0  0  0  0  0  0  0  0  0  0  0  0
   23.2079  -11.3044  -16.6275 C   0  0  0  0  0  0  0  0  0  0  0  0
   22.5285  -11.0845  -15.6101 O   0  0  0  0  0  0  0  0  0  0  0  0
   24.3391  -10.5130  -16.9345 N   0  0  0  0  0  0  0  0  0  0  0  0
   24.7794   -9.4152  -16.1020 C   0  0  1  0  0  0  0  0  0  0  0  0
   26.2952   -9.3451  -16.2070 C   0  0  0  0  0  0  0  0  0  0  0  0
   27.0525  -10.6167  -15.1608 S   0  0  0  0  0  0  0  0  0  0  0  0
   24.1805   -8.1372  -16.5397 C   0  0  0  0  0  0  0  0  0  0  0  0
   24.3276   -7.6750  -17.7061 O   0  0  0  0  0  0  0  0  0  0  0  0
   23.4076   -7.3999  -15.6067 N   0  0  0  0  0  0  0  0  0  0  0  0
   22.7495   -6.1596  -15.9569 C   0  0  1  0  0  0  0  0  0  0  0  0
   21.2751   -6.3348  -16.1839 C   0  0  0  0  0  0  0  0  0  0  0  0
   20.6060   -5.0777  -16.6553 C   0  0  0  0  0  0  0  0  0  0  0  0
   19.1490   -5.3041  -16.9965 C   0  0  0  0  0  0  0  0  0  0  0  0
   18.5146   -4.0258  -17.4951 C   0  0  0  0  0  0  0  0  0  0  0  0
   17.1643   -4.3236  -17.9533 N   0  0  0  0  0  0  0  0  0  0  0  0
   22.9761   -5.1663  -14.8769 C   0  0  0  0  0  0  0  0  0  0  0  0
   23.1174   -5.5102  -13.6767 O   0  0  0  0  0  0  0  0  0  0  0  0
   23.0388   -3.8113  -15.1695 O   0  0  0  0  0  0  0  0  0  0  0  0
  1  2  1  0
  3  5  1  0
  3  2  1  0
  3  4  1  1
  5  6  2  0
  7  8  1  0
  7  5  1  0
  8 11  1  0
  8  9  1  6
 10  9  1  0
 11 13  1  0
 11 12  2  0
 13 14  1  0
 14 15  1  1
 15 16  1  0
 16 17  1  0
 17 18  1  0
 18 19  1  0
 20 22  1  0
 20 14  1  0
 21 20  2  0
M  END
$$$$
