SCK.pdb
     RDKit          3D

 22 21  0  0  1  0  0  0  0  0999 V2000
   27.2372  -23.2860  -15.9310 O   0  0  0  0  0  0  0  0  0  0  0  0
   28.1604  -24.1537  -16.5028 C   0  0  0  0  0  0  0  0  0  0  0  0
   29.4770  -23.4159  -16.5900 C   0  0  2  0  0  0  0  0  0  0  0  0
   29.4372  -22.3472  -17.5395 N   0  0  0  0  0  0  0  0  0  0  0  0
   30.6018  -24.3296  -16.9032 C   0  0  0  0  0  0  0  0  0  0  0  0
   30.8086  -24.6871  -18.0757 O   0  0  0  0  0  0  0  0  0  0  0  0
   31.4266  -24.7810  -15.8468 N   0  0  0  0  0  0  0  0  0  0  0  0
   32.4626  -25.7739  -16.0279 C   0  0  1  0  0  0  0  0  0  0  0  0
   33.4122  -25.6604  -14.8451 C   0  0  0  0  0  0  0  0  0  0  0  0
   34.5699  -27.0549  -14.8384 S   0  0  0  0  0  0  0  0  0  0  0  0
   31.8937  -27.1361  -16.0933 C   0  0  0  0  0  0  0  0  0  0  0  0
   30.9868  -27.5386  -15.3117 O   0  0  0  0  0  0  0  0  0  0  0  0
   32.3902  -28.0279  -17.0781 N   0  0  0  0  0  0  0  0  0  0  0  0
   31.8100  -29.3348  -17.3005 C   0  0  1  0  0  0  0  0  0  0  0  0
   30.3432  -29.2668  -17.6165 C   0  0  0  0  0  0  0  0  0  0  0  0
   29.7244  -30.6210  -17.7992 C   0  0  0  0  0  0  0  0  0  0  0  0
   28.9719  -31.0720  -16.5659 C   0  0  0  0  0  0  0  0  0  0  0  0
   28.4318  -32.4712  -16.7544 C   0  0  0  0  0  0  0  0  0  0  0  0
   27.7645  -32.8825  -15.5266 N   0  0  0  0  0  0  0  0  0  0  0  0
   32.5318  -30.0053  -18.4113 C   0  0  0  0  0  0  0  0  0  0  0  0
   32.9200  -29.3760  -19.4271 O   0  0  0  0  0  0  0  0  0  0  0  0
   32.8006  -31.3655  -18.3555 O   0  0  0  0  0  0  0  0  0  0  0  0
  1  2  1  0
  3  5  1  0
  3  2  1  0
  3  4  1  6
  5  6  2  0
  7  8  1  0
  7  5  1  0
  8 11  1  0
  8  9  1  1
 10  9  1  0
 11 13  1  0
 11 12  2  0
 13 14  1  0
 14 15  1  6
 15 16  1  0
 16 17  1  0
 17 18  1  0
 18 19  1  0
 20 22  1  0
 20 14  1  0
 21 20  2  0
M  END
$$$$
