SCK.pdb
     RDKit          3D

 22 21  0  0  1  0  0  0  0  0999 V2000
   21.8100  -11.4002  -15.9509 O   0  0  0  0  0  0  0  0  0  0  0  0
   21.0670  -10.5647  -15.1250 C   0  0  0  0  0  0  0  0  0  0  0  0
   20.7357   -9.3234  -15.9218 C   0  0  2  0  0  0  0  0  0  0  0  0
   21.8771   -8.7972  -16.6042 N   0  0  0  0  0  0  0  0  0  0  0  0
   20.1227   -8.2717  -15.0754 C   0  0  0  0  0  0  0  0  0  0  0  0
   19.1264   -8.5319  -14.3791 O   0  0  0  0  0  0  0  0  0  0  0  0
   20.6926   -6.9774  -15.0787 N   0  0  0  0  0  0  0  0  0  0  0  0
   20.1519   -5.8788  -14.3088 C   0  0  1  0  0  0  0  0  0  0  0  0
   21.2582   -5.3786  -13.3923 C   0  0  0  0  0  0  0  0  0  0  0  0
   22.6010   -4.6562  -14.3720 S   0  0  0  0  0  0  0  0  0  0  0  0
   19.6878   -4.7855  -15.1879 C   0  0  0  0  0  0  0  0  0  0  0  0
   20.2440   -4.5067  -16.2872 O   0  0  0  0  0  0  0  0  0  0  0  0
   18.5687   -4.0177  -14.7761 N   0  0  0  0  0  0  0  0  0  0  0  0
   18.0276   -2.9455  -15.5834 C   0  0  1  0  0  0  0  0  0  0  0  0
   16.5273   -2.9746  -15.6476 C   0  0  0  0  0  0  0  0  0  0  0  0
   15.9991   -4.1884  -16.3532 C   0  0  0  0  0  0  0  0  0  0  0  0
   14.4862   -4.2301  -16.3552 C   0  0  0  0  0  0  0  0  0  0  0  0
   13.9890   -5.4645  -17.0721 C   0  0  0  0  0  0  0  0  0  0  0  0
   12.5331   -5.4282  -17.1075 N   0  0  0  0  0  0  0  0  0  0  0  0
   18.4808   -1.6439  -15.0312 C   0  0  0  0  0  0  0  0  0  0  0  0
   18.5868   -1.4473  -13.7947 O   0  0  0  0  0  0  0  0  0  0  0  0
   18.8042   -0.5944  -15.8795 O   0  0  0  0  0  0  0  0  0  0  0  0
  1  2  1  0
  3  5  1  0
  3  2  1  0
  3  4  1  1
  5  6  2  0
  7  8  1  0
  7  5  1  0
  8 11  1  0
  8  9  1  1
 10  9  1  0
 11 13  1  0
 11 12  2  0
 13 14  1  0
 14 15  1  1
 15 16  1  0
 16 17  1  0
 17 18  1  0
 18 19  1  0
 20 22  1  0
 20 14  1  0
 21 20  2  0
M  END
$$$$
