SCK.pdb
     RDKit          3D

 22 21  0  0  1  0  0  0  0  0999 V2000
   17.0291  -11.6692  -18.0206 O   0  0  0  0  0  0  0  0  0  0  0  0
   17.6500  -10.8940  -17.0482 C   0  0  0  0  0  0  0  0  0  0  0  0
   18.8957  -11.6316  -16.6127 C   0  0  2  0  0  0  0  0  0  0  0  0
   18.5931  -12.8682  -15.9611 N   0  0  0  0  0  0  0  0  0  0  0  0
   19.7547  -10.7963  -15.7395 C   0  0  0  0  0  0  0  0  0  0  0  0
   19.3309  -10.4010  -14.6398 O   0  0  0  0  0  0  0  0  0  0  0  0
   21.0556  -10.4626  -16.1827 N   0  0  0  0  0  0  0  0  0  0  0  0
   21.9594   -9.6352  -15.4142 C   0  0  1  0  0  0  0  0  0  0  0  0
   23.3744   -9.9767  -15.8559 C   0  0  0  0  0  0  0  0  0  0  0  0
   24.1082  -11.1838  -14.7204 S   0  0  0  0  0  0  0  0  0  0  0  0
   21.6910   -8.1992  -15.6360 C   0  0  0  0  0  0  0  0  0  0  0  0
   21.6025   -7.6881  -16.7877 O   0  0  0  0  0  0  0  0  0  0  0  0
   21.5261   -7.3610  -14.5037 N   0  0  0  0  0  0  0  0  0  0  0  0
   21.2938   -5.9377  -14.6229 C   0  0  1  0  0  0  0  0  0  0  0  0
   19.8389   -5.5811  -14.5131 C   0  0  0  0  0  0  0  0  0  0  0  0
   19.5836   -4.1152  -14.7030 C   0  0  0  0  0  0  0  0  0  0  0  0
   18.1136   -3.7752  -14.5845 C   0  0  0  0  0  0  0  0  0  0  0  0
   17.8755   -2.3203  -14.9186 C   0  0  0  0  0  0  0  0  0  0  0  0
   16.4514   -2.0405  -14.7937 N   0  0  0  0  0  0  0  0  0  0  0  0
   22.0647   -5.2288  -13.5704 C   0  0  0  0  0  0  0  0  0  0  0  0
   22.3858   -4.0193  -13.6829 O   0  0  0  0  0  0  0  0  0  0  0  0
   22.4567   -5.8939  -12.4174 O   0  0  0  0  0  0  0  0  0  0  0  0
  1  2  1  0
  3  5  1  0
  3  2  1  0
  3  4  1  1
  5  6  2  0
  7  8  1  0
  7  5  1  0
  8 11  1  0
  8  9  1  6
 10  9  1  0
 11 13  1  0
 11 12  2  0
 13 14  1  0
 14 15  1  1
 15 16  1  0
 16 17  1  0
 17 18  1  0
 18 19  1  0
 20 22  1  0
 20 14  1  0
 21 20  2  0
M  END
$$$$
