SCK.pdb
     RDKit          3D

 22 21  0  0  1  0  0  0  0  0999 V2000
   20.0434  -14.6277  -20.2147 O   0  0  0  0  0  0  0  0  0  0  0  0
   20.9368  -13.9009  -19.4364 C   0  0  0  0  0  0  0  0  0  0  0  0
   20.9815  -14.5547  -18.0740 C   0  0  2  0  0  0  0  0  0  0  0  0
   19.8579  -15.4096  -17.8463 N   0  0  0  0  0  0  0  0  0  0  0  0
   21.0851  -13.5540  -16.9849 C   0  0  0  0  0  0  0  0  0  0  0  0
   20.0693  -13.2026  -16.3606 O   0  0  0  0  0  0  0  0  0  0  0  0
   22.3549  -13.0135  -16.6757 N   0  0  0  0  0  0  0  0  0  0  0  0
   22.5502  -11.9909  -15.6716 C   0  0  1  0  0  0  0  0  0  0  0  0
   23.9757  -12.1251  -15.1581 C   0  0  0  0  0  0  0  0  0  0  0  0
   24.1458  -13.6402  -14.1782 S   0  0  0  0  0  0  0  0  0  0  0  0
   22.3379  -10.6408  -16.2334 C   0  0  0  0  0  0  0  0  0  0  0  0
   22.7811  -10.2909  -17.3633 O   0  0  0  0  0  0  0  0  0  0  0  0
   21.6041   -9.6992  -15.4675 N   0  0  0  0  0  0  0  0  0  0  0  0
   21.2079   -8.4123  -15.9977 C   0  0  1  0  0  0  0  0  0  0  0  0
   19.7404   -8.3461  -16.3105 C   0  0  0  0  0  0  0  0  0  0  0  0
   19.3076   -6.9903  -16.7845 C   0  0  0  0  0  0  0  0  0  0  0  0
   17.8381   -6.9577  -17.1453 C   0  0  0  0  0  0  0  0  0  0  0  0
   17.4268   -5.5683  -17.5756 C   0  0  0  0  0  0  0  0  0  0  0  0
   16.0108   -5.5864  -17.9174 N   0  0  0  0  0  0  0  0  0  0  0  0
   21.5605   -7.3531  -15.0188 C   0  0  0  0  0  0  0  0  0  0  0  0
   21.5871   -7.5734  -13.7821 O   0  0  0  0  0  0  0  0  0  0  0  0
   21.8745   -6.0724  -15.4511 O   0  0  0  0  0  0  0  0  0  0  0  0
  1  2  1  0
  3  5  1  0
  3  2  1  0
  3  4  1  1
  5  6  2  0
  7  8  1  0
  7  5  1  0
  8 11  1  0
  8  9  1  6
 10  9  1  0
 11 13  1  0
 11 12  2  0
 13 14  1  0
 14 15  1  1
 15 16  1  0
 16 17  1  0
 17 18  1  0
 18 19  1  0
 20 22  1  0
 20 14  1  0
 21 20  2  0
M  END
$$$$
