FES.pdb
     RDKit          3D

 27 27  0  0  1  0  0  0  0  0999 V2000
    6.8375  -17.1260   22.6306 N   0  0  0  0  0  0  0  0  0  0  0  0
    8.0142  -16.6011   22.0295 C   0  0  1  0  0  0  0  0  0  0  0  0
    8.3176  -15.1832   22.3264 C   0  0  0  0  0  0  0  0  0  0  0  0
    8.0053  -14.2155   21.2613 C   0  0  0  0  0  0  0  0  0  0  0  0
    9.0561  -13.5243   20.6940 C   0  0  0  0  0  0  0  0  0  0  0  0
    8.8621  -12.5879   19.6942 C   0  0  0  0  0  0  0  0  0  0  0  0
    7.5512  -12.3794   19.2903 C   0  0  0  0  0  0  0  0  0  0  0  0
    6.5024  -13.0705   19.8578 C   0  0  0  0  0  0  0  0  0  0  0  0
    6.7115  -14.0068   20.8597 C   0  0  0  0  0  0  0  0  0  0  0  0
    9.2302  -17.4413   22.3303 C   0  0  0  0  0  0  0  0  0  0  0  0
    9.3675  -17.9284   23.4667 O   0  0  0  0  0  0  0  0  0  0  0  0
   10.2124  -17.6788   21.3368 N   0  0  0  0  0  0  0  0  0  0  0  0
   11.5089  -18.2141   21.5111 C   0  0  1  0  0  0  0  0  0  0  0  0
   12.3769  -18.1701   20.3003 C   0  0  0  0  0  0  0  0  0  0  0  0
   13.7297  -18.7399   20.4060 C   0  0  0  0  0  0  0  0  0  0  0  0
   14.4860  -18.7367   19.1536 C   0  0  0  0  0  0  0  0  0  0  0  0
   14.2887  -19.5310   18.2076 O   0  0  0  0  0  0  0  0  0  0  0  0
   12.2468  -17.7179   22.7206 C   0  0  0  0  0  0  0  0  0  0  0  0
   12.7693  -16.6145   22.8698 O   0  0  0  0  0  0  0  0  0  0  0  0
   15.5208  -17.7948   18.9442 O   0  0  0  0  0  0  0  0  0  0  0  0
   11.6747  -19.8131   26.2002 O   0  0  0  0  0  0  0  0  0  0  0  0
   12.1747  -18.5208   26.2682 C   0  0  0  0  0  0  0  0  0  0  0  0
   13.0459  -18.1817   25.0647 C   0  0  2  0  0  0  0  0  0  0  0  0
   12.3739  -18.6024   23.8525 N   0  0  0  0  0  0  0  0  0  0  0  0
   14.2787  -18.9945   25.2012 C   0  0  0  0  0  0  0  0  0  0  0  0
   14.6008  -19.9760   24.2784 O   0  0  0  0  0  0  0  0  0  0  0  0
   15.0718  -18.8201   26.1582 O   0  0  0  0  0  0  0  0  0  0  0  0
  2  1  1  1
  3  2  1  0
  4  9  2  0
  4  3  1  0
  5  4  1  0
  6  7  1  0
  6  5  2  0
  7  8  2  0
  8  9  1  0
 10 12  1  0
 10  2  1  0
 11 10  2  0
 13 12  1  0
 13 14  1  6
 14 15  1  0
 15 16  1  0
 16 17  2  0
 18 19  2  0
 18 13  1  0
 20 16  1  0
 22 21  1  0
 23 22  1  1
 23 24  1  0
 24 18  1  0
 25 23  1  0
 26 25  1  0
 27 25  2  0
M  END
$$$$
