FES.pdb
     RDKit          3D

 27 27  0  0  1  0  0  0  0  0999 V2000
    5.8313  -16.1778   25.1804 N   0  0  0  0  0  0  0  0  0  0  0  0
    7.1715  -15.7684   24.9401 C   0  0  1  0  0  0  0  0  0  0  0  0
    7.7113  -14.7417   25.8593 C   0  0  0  0  0  0  0  0  0  0  0  0
    7.0729  -13.4161   25.7992 C   0  0  0  0  0  0  0  0  0  0  0  0
    7.5180  -12.5326   24.8374 C   0  0  0  0  0  0  0  0  0  0  0  0
    6.9874  -11.2614   24.7088 C   0  0  0  0  0  0  0  0  0  0  0  0
    5.9808  -10.9201   25.6005 C   0  0  0  0  0  0  0  0  0  0  0  0
    5.5371  -11.8036   26.5609 C   0  0  0  0  0  0  0  0  0  0  0  0
    6.0784  -13.0753   26.6785 C   0  0  0  0  0  0  0  0  0  0  0  0
    8.1232  -16.9375   24.8895 C   0  0  0  0  0  0  0  0  0  0  0  0
    7.9798  -17.8744   25.6953 O   0  0  0  0  0  0  0  0  0  0  0  0
    9.1734  -16.9781   23.9389 N   0  0  0  0  0  0  0  0  0  0  0  0
   10.3687  -17.7300   24.0005 C   0  0  1  0  0  0  0  0  0  0  0  0
   11.3104  -17.5104   22.8663 C   0  0  0  0  0  0  0  0  0  0  0  0
   10.7720  -17.6080   21.5001 C   0  0  0  0  0  0  0  0  0  0  0  0
   11.7506  -17.3437   20.4450 C   0  0  0  0  0  0  0  0  0  0  0  0
   12.3572  -16.2594   20.3001 O   0  0  0  0  0  0  0  0  0  0  0  0
   11.0892  -17.6764   25.3164 C   0  0  0  0  0  0  0  0  0  0  0  0
   11.7449  -16.7377   25.7653 O   0  0  0  0  0  0  0  0  0  0  0  0
   12.0707  -18.3449   19.4979 O   0  0  0  0  0  0  0  0  0  0  0  0
    9.7608  -20.0443   28.2303 O   0  0  0  0  0  0  0  0  0  0  0  0
   10.7053  -19.0857   28.5676 C   0  0  0  0  0  0  0  0  0  0  0  0
   11.7162  -18.8623   27.4492 C   0  0  2  0  0  0  0  0  0  0  0  0
   11.0248  -18.8320   26.1768 N   0  0  0  0  0  0  0  0  0  0  0  0
   12.6062  -20.0484   27.4497 C   0  0  0  0  0  0  0  0  0  0  0  0
   13.3503  -20.3908   28.5666 O   0  0  0  0  0  0  0  0  0  0  0  0
   12.7149  -20.7821   26.4371 O   0  0  0  0  0  0  0  0  0  0  0  0
  2  1  1  1
  3  2  1  0
  4  9  2  0
  4  3  1  0
  5  4  1  0
  6  7  1  0
  6  5  2  0
  7  8  2  0
  8  9  1  0
 10 12  1  0
 10  2  1  0
 11 10  2  0
 13 12  1  0
 13 14  1  6
 14 15  1  0
 15 16  1  0
 16 17  2  0
 18 19  2  0
 18 13  1  0
 20 16  1  0
 22 21  1  0
 23 22  1  1
 23 24  1  0
 24 18  1  0
 25 23  1  0
 26 25  1  0
 27 25  2  0
M  END
$$$$
