FES.pdb
     RDKit          3D

 27 27  0  0  1  0  0  0  0  0999 V2000
    5.8644  -18.0660   24.3531 N   0  0  0  0  0  0  0  0  0  0  0  0
    6.5217  -16.8179   24.5305 C   0  0  1  0  0  0  0  0  0  0  0  0
    5.9680  -15.9364   25.5827 C   0  0  0  0  0  0  0  0  0  0  0  0
    6.4091  -14.5319   25.5516 C   0  0  0  0  0  0  0  0  0  0  0  0
    6.4982  -13.8606   26.7537 C   0  0  0  0  0  0  0  0  0  0  0  0
    6.8934  -12.5366   26.8257 C   0  0  0  0  0  0  0  0  0  0  0  0
    7.1965  -11.9171   25.6219 C   0  0  0  0  0  0  0  0  0  0  0  0
    7.1069  -12.5888   24.4217 C   0  0  0  0  0  0  0  0  0  0  0  0
    6.7091  -13.9164   24.3643 C   0  0  0  0  0  0  0  0  0  0  0  0
    8.0047  -16.9821   24.7518 C   0  0  0  0  0  0  0  0  0  0  0  0
    8.4051  -17.7233   25.6672 O   0  0  0  0  0  0  0  0  0  0  0  0
    8.9405  -16.3034   23.9322 N   0  0  0  0  0  0  0  0  0  0  0  0
   10.3507  -16.3254   24.0267 C   0  0  1  0  0  0  0  0  0  0  0  0
   11.0695  -15.7325   22.8634 C   0  0  0  0  0  0  0  0  0  0  0  0
   12.5404  -15.7790   22.8709 C   0  0  0  0  0  0  0  0  0  0  0  0
   13.1174  -16.7851   21.9789 C   0  0  0  0  0  0  0  0  0  0  0  0
   14.2771  -17.2416   22.0859 O   0  0  0  0  0  0  0  0  0  0  0  0
   10.9113  -15.8154   25.3226 C   0  0  0  0  0  0  0  0  0  0  0  0
   11.3146  -14.6780   25.5598 O   0  0  0  0  0  0  0  0  0  0  0  0
   12.3587  -17.3114   20.9070 O   0  0  0  0  0  0  0  0  0  0  0  0
    9.5798  -16.7503   28.8174 O   0  0  0  0  0  0  0  0  0  0  0  0
   10.6309  -15.8573   28.6675 C   0  0  0  0  0  0  0  0  0  0  0  0
   11.6650  -16.3561   27.6653 C   0  0  2  0  0  0  0  0  0  0  0  0
   10.9988  -16.7296   26.4346 N   0  0  0  0  0  0  0  0  0  0  0  0
   12.2521  -17.5858   28.2503 C   0  0  0  0  0  0  0  0  0  0  0  0
   12.9289  -17.5571   29.4584 O   0  0  0  0  0  0  0  0  0  0  0  0
   12.1553  -18.6943   27.6696 O   0  0  0  0  0  0  0  0  0  0  0  0
  2  1  1  1
  3  2  1  0
  4  9  2  0
  4  3  1  0
  5  4  1  0
  6  7  1  0
  6  5  2  0
  7  8  2  0
  8  9  1  0
 10 12  1  0
 10  2  1  0
 11 10  2  0
 13 12  1  0
 13 14  1  6
 14 15  1  0
 15 16  1  0
 16 17  2  0
 18 19  2  0
 18 13  1  0
 20 16  1  0
 22 21  1  0
 23 22  1  1
 23 24  1  0
 24 18  1  0
 25 23  1  0
 26 25  1  0
 27 25  2  0
M  END
$$$$
