FES.pdb
     RDKit          3D

 27 27  0  0  1  0  0  0  0  0999 V2000
    5.4433  -17.7065   24.6366 N   0  0  0  0  0  0  0  0  0  0  0  0
    6.3860  -16.6660   24.8604 C   0  0  1  0  0  0  0  0  0  0  0  0
    6.4166  -16.1008   26.2279 C   0  0  0  0  0  0  0  0  0  0  0  0
    7.0214  -14.7653   26.3653 C   0  0  0  0  0  0  0  0  0  0  0  0
    6.2518  -13.6737   26.0193 C   0  0  0  0  0  0  0  0  0  0  0  0
    6.7352  -12.3802   26.1046 C   0  0  0  0  0  0  0  0  0  0  0  0
    8.0387  -12.2374   26.5579 C   0  0  0  0  0  0  0  0  0  0  0  0
    8.8064  -13.3288   26.9032 C   0  0  0  0  0  0  0  0  0  0  0  0
    8.3089  -14.6204   26.8126 C   0  0  0  0  0  0  0  0  0  0  0  0
    7.7832  -17.0682   24.4593 C   0  0  0  0  0  0  0  0  0  0  0  0
    8.2819  -18.1003   24.9426 O   0  0  0  0  0  0  0  0  0  0  0  0
    8.5293  -16.2855   23.5432 N   0  0  0  0  0  0  0  0  0  0  0  0
    9.8897  -16.4299   23.1881 C   0  0  1  0  0  0  0  0  0  0  0  0
   10.3300  -15.6014   22.0299 C   0  0  0  0  0  0  0  0  0  0  0  0
   11.7259  -15.7351   21.5832 C   0  0  0  0  0  0  0  0  0  0  0  0
   11.8766  -16.1827   20.1984 C   0  0  0  0  0  0  0  0  0  0  0  0
   11.1389  -15.8208   19.2552 O   0  0  0  0  0  0  0  0  0  0  0  0
   10.8615  -16.3219   24.3272 C   0  0  0  0  0  0  0  0  0  0  0  0
   11.4415  -15.3088   24.7140 O   0  0  0  0  0  0  0  0  0  0  0  0
   12.9077  -17.0849   19.8455 O   0  0  0  0  0  0  0  0  0  0  0  0
   10.8462  -19.3125   27.0527 O   0  0  0  0  0  0  0  0  0  0  0  0
   11.5779  -18.1781   27.3728 C   0  0  0  0  0  0  0  0  0  0  0  0
   12.1583  -17.5051   26.1347 C   0  0  2  0  0  0  0  0  0  0  0  0
   11.1703  -17.5155   25.0756 N   0  0  0  0  0  0  0  0  0  0  0  0
   13.2962  -18.3493   25.6971 C   0  0  0  0  0  0  0  0  0  0  0  0
   13.2922  -18.9823   24.4651 O   0  0  0  0  0  0  0  0  0  0  0  0
   14.3017  -18.5184   26.4291 O   0  0  0  0  0  0  0  0  0  0  0  0
  2  1  1  1
  3  2  1  0
  4  9  2  0
  4  3  1  0
  5  4  1  0
  6  7  1  0
  6  5  2  0
  7  8  2  0
  8  9  1  0
 10 12  1  0
 10  2  1  0
 11 10  2  0
 13 12  1  0
 13 14  1  6
 14 15  1  0
 15 16  1  0
 16 17  2  0
 18 19  2  0
 18 13  1  0
 20 16  1  0
 22 21  1  0
 23 22  1  1
 23 24  1  0
 24 18  1  0
 25 23  1  0
 26 25  1  0
 27 25  2  0
M  END
$$$$
