FES.pdb
     RDKit          3D

 27 27  0  0  1  0  0  0  0  0999 V2000
    6.5795  -16.3928   26.0401 N   0  0  0  0  0  0  0  0  0  0  0  0
    7.1632  -15.5672   25.0406 C   0  0  1  0  0  0  0  0  0  0  0  0
    8.0297  -14.4710   25.5287 C   0  0  0  0  0  0  0  0  0  0  0  0
    7.3480  -13.3610   26.2153 C   0  0  0  0  0  0  0  0  0  0  0  0
    5.9794  -13.4453   26.3688 C   0  0  0  0  0  0  0  0  0  0  0  0
    5.2495  -12.4483   26.9912 C   0  0  0  0  0  0  0  0  0  0  0  0
    5.9679  -11.3557   27.4547 C   0  0  0  0  0  0  0  0  0  0  0  0
    7.3351  -11.2728   27.3007 C   0  0  0  0  0  0  0  0  0  0  0  0
    8.0544  -12.2799   26.6744 C   0  0  0  0  0  0  0  0  0  0  0  0
    7.9139  -16.3693   24.0071 C   0  0  0  0  0  0  0  0  0  0  0  0
    8.4720  -17.4282   24.3460 O   0  0  0  0  0  0  0  0  0  0  0  0
    7.9899  -15.9301   22.6619 N   0  0  0  0  0  0  0  0  0  0  0  0
    8.8406  -16.4108   21.6406 C   0  0  1  0  0  0  0  0  0  0  0  0
    8.3421  -16.1967   20.2524 C   0  0  0  0  0  0  0  0  0  0  0  0
    7.0734  -16.8391   19.8734 C   0  0  0  0  0  0  0  0  0  0  0  0
    7.1506  -18.2936   19.7354 C   0  0  0  0  0  0  0  0  0  0  0  0
    7.0104  -19.1009   20.6806 O   0  0  0  0  0  0  0  0  0  0  0  0
   10.2800  -16.0028   21.7645 C   0  0  0  0  0  0  0  0  0  0  0  0
   10.7208  -14.8590   21.8648 O   0  0  0  0  0  0  0  0  0  0  0  0
    7.3983  -18.8811   18.4724 O   0  0  0  0  0  0  0  0  0  0  0  0
   12.3759  -17.8178   24.7754 O   0  0  0  0  0  0  0  0  0  0  0  0
   12.1475  -16.6817   24.0125 C   0  0  0  0  0  0  0  0  0  0  0  0
   12.5016  -16.8983   22.5462 C   0  0  2  0  0  0  0  0  0  0  0  0
   11.2840  -17.0381   21.7744 N   0  0  0  0  0  0  0  0  0  0  0  0
   13.2274  -18.1898   22.4798 C   0  0  0  0  0  0  0  0  0  0  0  0
   14.4612  -18.3554   23.0869 O   0  0  0  0  0  0  0  0  0  0  0  0
   12.7472  -19.1767   21.8706 O   0  0  0  0  0  0  0  0  0  0  0  0
  2  1  1  1
  3  2  1  0
  4  9  2  0
  4  3  1  0
  5  4  1  0
  6  7  1  0
  6  5  2  0
  7  8  2  0
  8  9  1  0
 10 12  1  0
 10  2  1  0
 11 10  2  0
 13 12  1  0
 13 14  1  6
 14 15  1  0
 15 16  1  0
 16 17  2  0
 18 19  2  0
 18 13  1  0
 20 16  1  0
 22 21  1  0
 23 22  1  1
 23 24  1  0
 24 18  1  0
 25 23  1  0
 26 25  1  0
 27 25  2  0
M  END
$$$$
