FES.pdb
     RDKit          3D

 27 27  0  0  1  0  0  0  0  0999 V2000
    6.1310  -16.3906   25.4268 N   0  0  0  0  0  0  0  0  0  0  0  0
    7.3371  -15.8901   24.8646 C   0  0  1  0  0  0  0  0  0  0  0  0
    8.0365  -14.8489   25.6504 C   0  0  0  0  0  0  0  0  0  0  0  0
    7.3352  -13.5620   25.7927 C   0  0  0  0  0  0  0  0  0  0  0  0
    6.5873  -13.3616   26.9347 C   0  0  0  0  0  0  0  0  0  0  0  0
    5.8851  -12.1899   27.1541 C   0  0  0  0  0  0  0  0  0  0  0  0
    5.9726  -11.2234   26.1625 C   0  0  0  0  0  0  0  0  0  0  0  0
    6.7200  -11.4250   25.0221 C   0  0  0  0  0  0  0  0  0  0  0  0
    7.4191  -12.6050   24.8150 C   0  0  0  0  0  0  0  0  0  0  0  0
    8.3090  -16.9934   24.5284 C   0  0  0  0  0  0  0  0  0  0  0  0
    8.4839  -17.9190   25.3410 O   0  0  0  0  0  0  0  0  0  0  0  0
    9.0214  -16.9851   23.3033 N   0  0  0  0  0  0  0  0  0  0  0  0
   10.1925  -17.7063   22.9776 C   0  0  1  0  0  0  0  0  0  0  0  0
   10.7043  -17.4858   21.5952 C   0  0  0  0  0  0  0  0  0  0  0  0
    9.9597  -18.0983   20.4833 C   0  0  0  0  0  0  0  0  0  0  0  0
    9.9644  -17.3135   19.2485 C   0  0  0  0  0  0  0  0  0  0  0  0
   10.9970  -16.9938   18.6190 O   0  0  0  0  0  0  0  0  0  0  0  0
   11.3021  -17.6095   23.9841 C   0  0  0  0  0  0  0  0  0  0  0  0
   12.1118  -16.6922   24.1097 O   0  0  0  0  0  0  0  0  0  0  0  0
    8.7492  -16.8593   18.6840 O   0  0  0  0  0  0  0  0  0  0  0  0
   12.7368  -19.1890   28.3211 O   0  0  0  0  0  0  0  0  0  0  0  0
   11.8204  -19.1494   27.2803 C   0  0  0  0  0  0  0  0  0  0  0  0
   12.4400  -18.6159   25.9943 C   0  0  2  0  0  0  0  0  0  0  0  0
   11.4651  -18.6897   24.9256 N   0  0  0  0  0  0  0  0  0  0  0  0
   13.5511  -19.5373   25.6543 C   0  0  0  0  0  0  0  0  0  0  0  0
   13.5260  -20.3015   24.4994 O   0  0  0  0  0  0  0  0  0  0  0  0
   14.5520  -19.6554   26.4023 O   0  0  0  0  0  0  0  0  0  0  0  0
  2  1  1  1
  3  2  1  0
  4  9  2  0
  4  3  1  0
  5  4  1  0
  6  7  1  0
  6  5  2  0
  7  8  2  0
  8  9  1  0
 10 12  1  0
 10  2  1  0
 11 10  2  0
 13 12  1  0
 13 14  1  6
 14 15  1  0
 15 16  1  0
 16 17  2  0
 18 19  2  0
 18 13  1  0
 20 16  1  0
 22 21  1  0
 23 22  1  1
 23 24  1  0
 24 18  1  0
 25 23  1  0
 26 25  1  0
 27 25  2  0
M  END
$$$$
