FES.pdb
     RDKit          3D

 27 27  0  0  1  0  0  0  0  0999 V2000
    8.3522  -17.1350   20.5135 N   0  0  0  0  0  0  0  0  0  0  0  0
    9.5274  -16.4554   20.9358 C   0  0  1  0  0  0  0  0  0  0  0  0
    9.3215  -15.1294   21.5603 C   0  0  0  0  0  0  0  0  0  0  0  0
    8.5802  -14.1418   20.7581 C   0  0  0  0  0  0  0  0  0  0  0  0
    7.3726  -13.6915   21.2505 C   0  0  0  0  0  0  0  0  0  0  0  0
    6.5991  -12.7719   20.5648 C   0  0  0  0  0  0  0  0  0  0  0  0
    7.1030  -12.3244   19.3519 C   0  0  0  0  0  0  0  0  0  0  0  0
    8.3095  -12.7752   18.8612 C   0  0  0  0  0  0  0  0  0  0  0  0
    9.0747  -13.6977   19.5594 C   0  0  0  0  0  0  0  0  0  0  0  0
   10.3799  -17.3043   21.8455 C   0  0  0  0  0  0  0  0  0  0  0  0
    9.8882  -17.7532   22.8964 O   0  0  0  0  0  0  0  0  0  0  0  0
   11.7278  -17.5929   21.5169 N   0  0  0  0  0  0  0  0  0  0  0  0
   12.6637  -18.3351   22.2726 C   0  0  1  0  0  0  0  0  0  0  0  0
   13.9729  -18.5694   21.5999 C   0  0  0  0  0  0  0  0  0  0  0  0
   14.6585  -17.4075   21.0117 C   0  0  0  0  0  0  0  0  0  0  0  0
   15.6123  -17.7410   19.9535 C   0  0  0  0  0  0  0  0  0  0  0  0
   15.4527  -17.4604   18.7450 O   0  0  0  0  0  0  0  0  0  0  0  0
   12.8608  -17.8641   23.6844 C   0  0  0  0  0  0  0  0  0  0  0  0
   13.3621  -16.8019   24.0488 O   0  0  0  0  0  0  0  0  0  0  0  0
   16.8115  -18.4263   20.2602 O   0  0  0  0  0  0  0  0  0  0  0  0
   10.2598  -18.8962   26.4792 O   0  0  0  0  0  0  0  0  0  0  0  0
   11.2310  -17.9344   26.7166 C   0  0  0  0  0  0  0  0  0  0  0  0
   12.5847  -18.3368   26.1438 C   0  0  2  0  0  0  0  0  0  0  0  0
   12.4232  -18.7229   24.7572 N   0  0  0  0  0  0  0  0  0  0  0  0
   13.0152  -19.5386   26.8984 C   0  0  0  0  0  0  0  0  0  0  0  0
   13.2488  -19.4877   28.2627 O   0  0  0  0  0  0  0  0  0  0  0  0
   13.1822  -20.6428   26.3255 O   0  0  0  0  0  0  0  0  0  0  0  0
  2  1  1  1
  3  2  1  0
  4  9  2  0
  4  3  1  0
  5  4  1  0
  6  7  1  0
  6  5  2  0
  7  8  2  0
  8  9  1  0
 10 12  1  0
 10  2  1  0
 11 10  2  0
 13 12  1  0
 13 14  1  6
 14 15  1  0
 15 16  1  0
 16 17  2  0
 18 19  2  0
 18 13  1  0
 20 16  1  0
 22 21  1  0
 23 22  1  1
 23 24  1  0
 24 18  1  0
 25 23  1  0
 26 25  1  0
 27 25  2  0
M  END
$$$$
