FES.pdb
     RDKit          3D

 27 27  0  0  1  0  0  0  0  0999 V2000
    5.9096  -17.7214   22.2559 N   0  0  0  0  0  0  0  0  0  0  0  0
    7.0629  -16.8920   22.1974 C   0  0  1  0  0  0  0  0  0  0  0  0
    6.8919  -15.5067   22.6895 C   0  0  0  0  0  0  0  0  0  0  0  0
    7.2605  -14.4339   21.7506 C   0  0  0  0  0  0  0  0  0  0  0  0
    7.5636  -14.7927   20.4533 C   0  0  0  0  0  0  0  0  0  0  0  0
    7.9306  -13.8580   19.5016 C   0  0  0  0  0  0  0  0  0  0  0  0
    7.9779  -12.5363   19.9212 C   0  0  0  0  0  0  0  0  0  0  0  0
    7.6749  -12.1793   21.2175 C   0  0  0  0  0  0  0  0  0  0  0  0
    7.3086  -13.1272   22.1616 C   0  0  0  0  0  0  0  0  0  0  0  0
    8.2500  -17.5189   22.8851 C   0  0  0  0  0  0  0  0  0  0  0  0
    8.0787  -18.1411   23.9486 O   0  0  0  0  0  0  0  0  0  0  0  0
    9.5510  -17.4055   22.3349 N   0  0  0  0  0  0  0  0  0  0  0  0
   10.7823  -17.7291   22.9490 C   0  0  1  0  0  0  0  0  0  0  0  0
   11.9896  -17.4746   22.1129 C   0  0  0  0  0  0  0  0  0  0  0  0
   12.0859  -18.1698   20.8193 C   0  0  0  0  0  0  0  0  0  0  0  0
   13.2046  -17.7356   19.9822 C   0  0  0  0  0  0  0  0  0  0  0  0
   14.2059  -17.1176   20.4068 O   0  0  0  0  0  0  0  0  0  0  0  0
   10.9649  -17.1870   24.3370 C   0  0  0  0  0  0  0  0  0  0  0  0
   11.3176  -16.0509   24.6492 O   0  0  0  0  0  0  0  0  0  0  0  0
   13.2069  -18.0055   18.5934 O   0  0  0  0  0  0  0  0  0  0  0  0
    8.5590  -18.1295   27.0781 O   0  0  0  0  0  0  0  0  0  0  0  0
    9.5644  -17.2396   27.4275 C   0  0  0  0  0  0  0  0  0  0  0  0
   10.9063  -17.6263   26.8174 C   0  0  2  0  0  0  0  0  0  0  0  0
   10.7037  -18.0641   25.4516 N   0  0  0  0  0  0  0  0  0  0  0  0
   11.3971  -18.7898   27.5948 C   0  0  0  0  0  0  0  0  0  0  0  0
   11.6067  -20.0207   26.9954 O   0  0  0  0  0  0  0  0  0  0  0  0
   11.6391  -18.6977   28.8230 O   0  0  0  0  0  0  0  0  0  0  0  0
  2  1  1  1
  3  2  1  0
  4  9  2  0
  4  3  1  0
  5  4  1  0
  6  7  1  0
  6  5  2  0
  7  8  2  0
  8  9  1  0
 10 12  1  0
 10  2  1  0
 11 10  2  0
 13 12  1  0
 13 14  1  6
 14 15  1  0
 15 16  1  0
 16 17  2  0
 18 19  2  0
 18 13  1  0
 20 16  1  0
 22 21  1  0
 23 22  1  1
 23 24  1  0
 24 18  1  0
 25 23  1  0
 26 25  1  0
 27 25  2  0
M  END
$$$$
