FES.pdb
     RDKit          3D

 27 27  0  0  1  0  0  0  0  0999 V2000
    6.1807  -16.4432   25.2013 N   0  0  0  0  0  0  0  0  0  0  0  0
    7.3336  -15.8075   24.6646 C   0  0  1  0  0  0  0  0  0  0  0  0
    8.0223  -14.8498   25.5586 C   0  0  0  0  0  0  0  0  0  0  0  0
    7.2766  -13.6261   25.8973 C   0  0  0  0  0  0  0  0  0  0  0  0
    6.5340  -13.6284   27.0601 C   0  0  0  0  0  0  0  0  0  0  0  0
    5.7923  -12.5302   27.4577 C   0  0  0  0  0  0  0  0  0  0  0  0
    5.8345  -11.4225   26.6232 C   0  0  0  0  0  0  0  0  0  0  0  0
    6.5767  -11.4216   25.4618 C   0  0  0  0  0  0  0  0  0  0  0  0
    7.3157  -12.5300   25.0753 C   0  0  0  0  0  0  0  0  0  0  0  0
    8.3374  -16.8015   24.1361 C   0  0  0  0  0  0  0  0  0  0  0  0
    8.4783  -17.8921   24.7179 O   0  0  0  0  0  0  0  0  0  0  0  0
    9.1176  -16.5062   22.9905 N   0  0  0  0  0  0  0  0  0  0  0  0
   10.2939  -17.1562   22.5527 C   0  0  1  0  0  0  0  0  0  0  0  0
   10.5925  -17.0078   21.1001 C   0  0  0  0  0  0  0  0  0  0  0  0
    9.5833  -17.4849   20.1410 C   0  0  0  0  0  0  0  0  0  0  0  0
    9.9070  -17.2160   18.7397 C   0  0  0  0  0  0  0  0  0  0  0  0
   10.8881  -17.7033   18.1358 O   0  0  0  0  0  0  0  0  0  0  0  0
   11.5161  -16.8912   23.3832 C   0  0  0  0  0  0  0  0  0  0  0  0
   11.8550  -15.8201   23.8836 O   0  0  0  0  0  0  0  0  0  0  0  0
    9.0911  -16.3551   17.9685 O   0  0  0  0  0  0  0  0  0  0  0  0
   12.2021  -19.0982   27.1240 O   0  0  0  0  0  0  0  0  0  0  0  0
   11.7602  -18.6448   25.8895 C   0  0  0  0  0  0  0  0  0  0  0  0
   12.9167  -18.2456   24.9809 C   0  0  2  0  0  0  0  0  0  0  0  0
   12.4125  -17.9897   23.6473 N   0  0  0  0  0  0  0  0  0  0  0  0
   13.8123  -19.4251   24.9047 C   0  0  0  0  0  0  0  0  0  0  0  0
   15.0854  -19.3998   25.4497 O   0  0  0  0  0  0  0  0  0  0  0  0
   13.4462  -20.4863   24.3434 O   0  0  0  0  0  0  0  0  0  0  0  0
  2  1  1  1
  3  2  1  0
  4  9  2  0
  4  3  1  0
  5  4  1  0
  6  7  1  0
  6  5  2  0
  7  8  2  0
  8  9  1  0
 10 12  1  0
 10  2  1  0
 11 10  2  0
 13 12  1  0
 13 14  1  6
 14 15  1  0
 15 16  1  0
 16 17  2  0
 18 19  2  0
 18 13  1  0
 20 16  1  0
 22 21  1  0
 23 22  1  1
 23 24  1  0
 24 18  1  0
 25 23  1  0
 26 25  1  0
 27 25  2  0
M  END
$$$$
