ELD.pdb
     RDKit          3D

 26 25  0  0  1  0  0  0  0  0999 V2000
    9.1092  -14.9243   20.5058 N   0  0  0  0  0  0  0  0  0  0  0  0
    8.4140  -15.7900   21.4708 C   0  0  1  0  0  0  0  0  0  0  0  0
    8.7203  -17.2193   21.2216 C   0  0  0  0  0  0  0  0  0  0  0  0
    7.5051  -18.0150   20.9081 C   0  0  0  0  0  0  0  0  0  0  0  0
    7.8393  -19.4268   20.6341 C   0  0  0  0  0  0  0  0  0  0  0  0
    7.6668  -20.3547   21.4434 O   0  0  0  0  0  0  0  0  0  0  0  0
    8.8952  -15.3915   22.8194 C   0  0  0  0  0  0  0  0  0  0  0  0
   10.0990  -15.2173   23.1275 O   0  0  0  0  0  0  0  0  0  0  0  0
    8.3900  -19.7831   19.3895 O   0  0  0  0  0  0  0  0  0  0  0  0
    5.5547  -12.3873   26.2144 C   0  0  0  0  0  0  0  0  0  0  0  0
    6.8196  -12.8339   25.4706 C   0  0  1  0  0  0  0  0  0  0  0  0
    7.7651  -11.6866   25.4782 C   0  0  0  0  0  0  0  0  0  0  0  0
    7.3055  -14.1223   26.0035 C   0  0  0  0  0  0  0  0  0  0  0  0
    8.3717  -14.8001   25.1935 C   0  0  2  0  0  0  0  0  0  0  0  0
    7.9550  -15.1827   23.8642 N   0  0  0  0  0  0  0  0  0  0  0  0
    8.8775  -16.0285   25.8673 C   0  0  0  0  0  0  0  0  0  0  0  0
    8.3076  -17.1207   25.6526 O   0  0  0  0  0  0  0  0  0  0  0  0
    9.9849  -16.0229   26.7519 N   0  0  0  0  0  0  0  0  0  0  0  0
   10.5800  -17.1815   27.3427 C   0  0  1  0  0  0  0  0  0  0  0  0
   11.8932  -17.4867   26.6516 C   0  0  0  0  0  0  0  0  0  0  0  0
   11.7911  -18.5742   25.6683 C   0  0  0  0  0  0  0  0  0  0  0  0
   12.7900  -18.8890   24.9911 O   0  0  0  0  0  0  0  0  0  0  0  0
   10.7475  -17.0689   28.8109 C   0  0  0  0  0  0  0  0  0  0  0  0
   10.9845  -18.0987   29.5038 O   0  0  0  0  0  0  0  0  0  0  0  0
   10.6090  -19.2494   25.4859 O   0  0  0  0  0  0  0  0  0  0  0  0
   10.6628  -15.8744   29.5217 O   0  0  0  0  0  0  0  0  0  0  0  0
  2  7  1  0
  2  1  1  6
  3  2  1  0
  4  3  1  0
  5  9  1  0
  5  4  1  0
  6  5  2  0
  7  8  2  0
 11 10  1  1
 11 12  1  0
 13 11  1  0
 14 13  1  1
 15 14  1  0
 15  7  1  0
 16 18  1  0
 16 14  1  0
 17 16  2  0
 19 23  1  0
 19 18  1  0
 19 20  1  6
 21 22  2  0
 21 20  1  0
 23 26  1  0
 24 23  2  0
 25 21  1  0
M  END
$$$$
