ELD.pdb
     RDKit          3D

 26 25  0  0  1  0  0  0  0  0999 V2000
   10.2200  -15.9130   20.4048 N   0  0  0  0  0  0  0  0  0  0  0  0
    8.9372  -16.0930   21.1021 C   0  0  1  0  0  0  0  0  0  0  0  0
    8.5574  -17.5253   21.1579 C   0  0  0  0  0  0  0  0  0  0  0  0
    9.7388  -18.4264   21.1777 C   0  0  0  0  0  0  0  0  0  0  0  0
    9.3361  -19.8465   21.1416 C   0  0  0  0  0  0  0  0  0  0  0  0
    8.1560  -20.2372   21.1248 O   0  0  0  0  0  0  0  0  0  0  0  0
    9.1247  -15.5598   22.4767 C   0  0  0  0  0  0  0  0  0  0  0  0
   10.1965  -15.6167   23.1267 O   0  0  0  0  0  0  0  0  0  0  0  0
   10.3224  -20.8496   21.1247 O   0  0  0  0  0  0  0  0  0  0  0  0
    8.1579  -12.1730   26.6128 C   0  0  0  0  0  0  0  0  0  0  0  0
    7.0193  -13.1664   26.3495 C   0  0  1  0  0  0  0  0  0  0  0  0
    5.7762  -12.5721   26.9078 C   0  0  0  0  0  0  0  0  0  0  0  0
    7.0041  -13.5718   24.9299 C   0  0  0  0  0  0  0  0  0  0  0  0
    8.1579  -14.4219   24.4843 C   0  0  2  0  0  0  0  0  0  0  0  0
    8.0350  -14.9322   23.1383 N   0  0  0  0  0  0  0  0  0  0  0  0
    8.3580  -15.5929   25.3828 C   0  0  0  0  0  0  0  0  0  0  0  0
    7.4341  -16.4250   25.5156 O   0  0  0  0  0  0  0  0  0  0  0  0
    9.5568  -15.8148   26.1057 N   0  0  0  0  0  0  0  0  0  0  0  0
    9.8548  -16.9799   26.8798 C   0  0  1  0  0  0  0  0  0  0  0  0
   10.8860  -17.8211   26.1557 C   0  0  0  0  0  0  0  0  0  0  0  0
   11.2848  -19.0206   26.9055 C   0  0  0  0  0  0  0  0  0  0  0  0
   10.7220  -19.2879   27.9859 O   0  0  0  0  0  0  0  0  0  0  0  0
   10.2775  -16.6692   28.2658 C   0  0  0  0  0  0  0  0  0  0  0  0
   10.6513  -17.5963   29.0386 O   0  0  0  0  0  0  0  0  0  0  0  0
   12.2698  -19.8520   26.4310 O   0  0  0  0  0  0  0  0  0  0  0  0
   10.2993  -15.3882   28.8116 O   0  0  0  0  0  0  0  0  0  0  0  0
  2  7  1  0
  2  1  1  6
  3  2  1  0
  4  3  1  0
  5  9  1  0
  5  4  1  0
  6  5  2  0
  7  8  2  0
 11 10  1  6
 11 12  1  0
 13 11  1  0
 14 13  1  1
 15 14  1  0
 15  7  1  0
 16 18  1  0
 16 14  1  0
 17 16  2  0
 19 23  1  0
 19 18  1  0
 19 20  1  6
 21 22  2  0
 21 20  1  0
 23 26  1  0
 24 23  2  0
 25 21  1  0
M  END
$$$$
