ELD.pdb
     RDKit          3D

 26 25  0  0  1  0  0  0  0  0999 V2000
    9.1067  -17.8877   17.5236 N   0  0  0  0  0  0  0  0  0  0  0  0
   10.2962  -17.1438   17.0810 C   0  0  1  0  0  0  0  0  0  0  0  0
   10.1626  -16.7178   15.6670 C   0  0  0  0  0  0  0  0  0  0  0  0
   10.2633  -17.8568   14.7181 C   0  0  0  0  0  0  0  0  0  0  0  0
   10.6852  -17.4070   13.3765 C   0  0  0  0  0  0  0  0  0  0  0  0
   11.6458  -17.8865   12.7496 O   0  0  0  0  0  0  0  0  0  0  0  0
   10.4041  -15.9542   17.9654 C   0  0  0  0  0  0  0  0  0  0  0  0
   10.4181  -14.7644   17.5668 O   0  0  0  0  0  0  0  0  0  0  0  0
    9.9801  -16.3721   12.7354 O   0  0  0  0  0  0  0  0  0  0  0  0
    8.1649  -12.5800   19.0368 C   0  0  0  0  0  0  0  0  0  0  0  0
    8.2115  -13.3703   20.3505 C   0  0  1  0  0  0  0  0  0  0  0  0
    6.9441  -13.0950   21.0772 C   0  0  0  0  0  0  0  0  0  0  0  0
    8.5577  -14.7823   20.0930 C   0  0  0  0  0  0  0  0  0  0  0  0
    9.9991  -15.1461   20.2985 C   0  0  2  0  0  0  0  0  0  0  0  0
   10.5005  -16.1343   19.3717 N   0  0  0  0  0  0  0  0  0  0  0  0
   10.2450  -15.6660   21.6725 C   0  0  0  0  0  0  0  0  0  0  0  0
   10.0366  -14.9194   22.6538 O   0  0  0  0  0  0  0  0  0  0  0  0
   10.7106  -16.9800   21.9284 N   0  0  0  0  0  0  0  0  0  0  0  0
   11.2368  -17.4454   23.1742 C   0  0  1  0  0  0  0  0  0  0  0  0
   11.2379  -18.9603   23.1912 C   0  0  0  0  0  0  0  0  0  0  0  0
   11.4512  -19.5243   24.5316 C   0  0  0  0  0  0  0  0  0  0  0  0
   11.6439  -18.7603   25.4985 O   0  0  0  0  0  0  0  0  0  0  0  0
   12.5763  -16.8937   23.4863 C   0  0  0  0  0  0  0  0  0  0  0  0
   13.4191  -16.7118   22.5626 O   0  0  0  0  0  0  0  0  0  0  0  0
   11.4405  -20.8828   24.7334 O   0  0  0  0  0  0  0  0  0  0  0  0
   13.0030  -16.5434   24.7648 O   0  0  0  0  0  0  0  0  0  0  0  0
  2  7  1  0
  2  1  1  1
  3  2  1  0
  4  3  1  0
  5  9  1  0
  5  4  1  0
  6  5  2  0
  7  8  2  0
 11 10  1  6
 11 12  1  0
 13 11  1  0
 14 13  1  6
 15 14  1  0
 15  7  1  0
 16 18  1  0
 16 14  1  0
 17 16  2  0
 19 23  1  0
 19 18  1  0
 19 20  1  6
 21 22  2  0
 21 20  1  0
 23 26  1  0
 24 23  2  0
 25 21  1  0
M  END
$$$$
