ELD.pdb
     RDKit          3D

 26 25  0  0  1  0  0  0  0  0999 V2000
    8.3133  -17.4750   21.6437 N   0  0  0  0  0  0  0  0  0  0  0  0
    9.7276  -17.1370   21.8665 C   0  0  1  0  0  0  0  0  0  0  0  0
   10.3761  -16.7009   20.6063 C   0  0  0  0  0  0  0  0  0  0  0  0
    9.9074  -17.4754   19.4280 C   0  0  0  0  0  0  0  0  0  0  0  0
   10.5801  -17.0353   18.1895 C   0  0  0  0  0  0  0  0  0  0  0  0
   11.4706  -16.1687   18.1489 O   0  0  0  0  0  0  0  0  0  0  0  0
    9.7467  -16.0321   22.8604 C   0  0  0  0  0  0  0  0  0  0  0  0
   10.7513  -15.3313   23.1327 O   0  0  0  0  0  0  0  0  0  0  0  0
   10.2165  -17.6099   16.9578 O   0  0  0  0  0  0  0  0  0  0  0  0
    7.9874  -12.0095   25.8945 C   0  0  0  0  0  0  0  0  0  0  0  0
    7.2031  -13.2958   26.1821 C   0  0  1  0  0  0  0  0  0  0  0  0
    5.8695  -12.8936   26.7018 C   0  0  0  0  0  0  0  0  0  0  0  0
    7.2365  -14.1950   25.0114 C   0  0  0  0  0  0  0  0  0  0  0  0
    8.5729  -14.8000   24.6945 C   0  0  2  0  0  0  0  0  0  0  0  0
    8.5610  -15.7144   23.5761 N   0  0  0  0  0  0  0  0  0  0  0  0
    9.1336  -15.5377   25.8608 C   0  0  0  0  0  0  0  0  0  0  0  0
    9.4210  -14.9064   26.9012 O   0  0  0  0  0  0  0  0  0  0  0  0
    9.3625  -16.9364   25.8514 N   0  0  0  0  0  0  0  0  0  0  0  0
    9.9847  -17.6819   26.9014 C   0  0  1  0  0  0  0  0  0  0  0  0
    9.2366  -18.9821   27.1138 C   0  0  0  0  0  0  0  0  0  0  0  0
    9.1796  -19.3939   28.5235 C   0  0  0  0  0  0  0  0  0  0  0  0
    9.8425  -18.7693   29.3756 O   0  0  0  0  0  0  0  0  0  0  0  0
   11.4312  -17.9133   26.6769 C   0  0  0  0  0  0  0  0  0  0  0  0
   11.8731  -18.0812   25.5051 O   0  0  0  0  0  0  0  0  0  0  0  0
    8.4046  -20.4581   28.9151 O   0  0  0  0  0  0  0  0  0  0  0  0
   12.3851  -17.9629   27.6903 O   0  0  0  0  0  0  0  0  0  0  0  0
  2  7  1  0
  2  1  1  6
  3  2  1  0
  4  3  1  0
  5  9  1  0
  5  4  1  0
  6  5  2  0
  7  8  2  0
 11 10  1  6
 11 12  1  0
 13 11  1  0
 14 13  1  1
 15 14  1  0
 15  7  1  0
 16 18  1  0
 16 14  1  0
 17 16  2  0
 19 23  1  0
 19 18  1  0
 19 20  1  6
 21 22  2  0
 21 20  1  0
 23 26  1  0
 24 23  2  0
 25 21  1  0
M  END
$$$$
