ELD.pdb
     RDKit          3D

 26 25  0  0  1  0  0  0  0  0999 V2000
    7.8332  -18.1465   17.4068 N   0  0  0  0  0  0  0  0  0  0  0  0
    9.2314  -17.8858   17.0309 C   0  0  1  0  0  0  0  0  0  0  0  0
    9.3177  -17.3074   15.6683 C   0  0  0  0  0  0  0  0  0  0  0  0
   10.7206  -17.0737   15.2376 C   0  0  0  0  0  0  0  0  0  0  0  0
   10.7839  -16.5737   13.8498 C   0  0  0  0  0  0  0  0  0  0  0  0
    9.7862  -16.3013   13.1598 O   0  0  0  0  0  0  0  0  0  0  0  0
    9.7652  -16.9233   18.0297 C   0  0  0  0  0  0  0  0  0  0  0  0
   10.9602  -16.5453   18.0923 O   0  0  0  0  0  0  0  0  0  0  0  0
   12.0348  -16.3811   13.2355 O   0  0  0  0  0  0  0  0  0  0  0  0
    6.4192  -12.9498   20.4463 C   0  0  0  0  0  0  0  0  0  0  0  0
    7.6064  -13.6044   19.7289 C   0  0  1  0  0  0  0  0  0  0  0  0
    8.4489  -12.5098   19.1793 C   0  0  0  0  0  0  0  0  0  0  0  0
    8.2609  -14.5935   20.6083 C   0  0  0  0  0  0  0  0  0  0  0  0
    9.3535  -15.4042   19.9746 C   0  0  2  0  0  0  0  0  0  0  0  0
    8.8911  -16.3674   19.0023 N   0  0  0  0  0  0  0  0  0  0  0  0
   10.1456  -16.1505   20.9917 C   0  0  0  0  0  0  0  0  0  0  0  0
    9.7290  -17.2574   21.3976 O   0  0  0  0  0  0  0  0  0  0  0  0
   11.3625  -15.6636   21.5311 N   0  0  0  0  0  0  0  0  0  0  0  0
   12.1418  -16.3139   22.5387 C   0  0  1  0  0  0  0  0  0  0  0  0
   13.4858  -15.6260   22.6645 C   0  0  0  0  0  0  0  0  0  0  0  0
   14.3999  -16.3062   23.5929 C   0  0  0  0  0  0  0  0  0  0  0  0
   14.0262  -17.3426   24.1777 O   0  0  0  0  0  0  0  0  0  0  0  0
   11.4494  -16.4052   23.8458 C   0  0  0  0  0  0  0  0  0  0  0  0
   11.6539  -17.3944   24.6050 O   0  0  0  0  0  0  0  0  0  0  0  0
   15.6615  -15.8152   23.8247 O   0  0  0  0  0  0  0  0  0  0  0  0
   10.5553  -15.4532   24.3290 O   0  0  0  0  0  0  0  0  0  0  0  0
  2  7  1  0
  2  1  1  1
  3  2  1  0
  4  3  1  0
  5  9  1  0
  5  4  1  0
  6  5  2  0
  7  8  2  0
 11 10  1  1
 11 12  1  0
 13 11  1  0
 14 13  1  1
 15 14  1  0
 15  7  1  0
 16 18  1  0
 16 14  1  0
 17 16  2  0
 19 23  1  0
 19 18  1  0
 19 20  1  1
 21 22  2  0
 21 20  1  0
 23 26  1  0
 24 23  2  0
 25 21  1  0
M  END
$$$$
