ELD.pdb
     RDKit          3D

 26 25  0  0  1  0  0  0  0  0999 V2000
    9.1746  -14.9736   20.2044 N   0  0  0  0  0  0  0  0  0  0  0  0
    8.0575  -15.2610   21.1174 C   0  0  1  0  0  0  0  0  0  0  0  0
    7.5710  -16.6508   20.9432 C   0  0  0  0  0  0  0  0  0  0  0  0
    8.6775  -17.6162   20.7150 C   0  0  0  0  0  0  0  0  0  0  0  0
    8.1643  -18.9797   20.4752 C   0  0  0  0  0  0  0  0  0  0  0  0
    8.7062  -20.0144   20.9010 O   0  0  0  0  0  0  0  0  0  0  0  0
    8.5788  -15.0708   22.4962 C   0  0  0  0  0  0  0  0  0  0  0  0
    9.7816  -15.1973   22.8309 O   0  0  0  0  0  0  0  0  0  0  0  0
    6.9903  -19.1591   19.7209 O   0  0  0  0  0  0  0  0  0  0  0  0
    5.6448  -12.0274   26.2899 C   0  0  0  0  0  0  0  0  0  0  0  0
    6.8254  -12.5417   25.4566 C   0  0  1  0  0  0  0  0  0  0  0  0
    7.9107  -11.5305   25.5565 C   0  0  0  0  0  0  0  0  0  0  0  0
    7.1527  -13.9331   25.8267 C   0  0  0  0  0  0  0  0  0  0  0  0
    8.1155  -14.6383   24.9166 C   0  0  2  0  0  0  0  0  0  0  0  0
    7.6820  -14.7194   23.5409 N   0  0  0  0  0  0  0  0  0  0  0  0
    8.3883  -16.0290   25.3753 C   0  0  0  0  0  0  0  0  0  0  0  0
    7.7590  -16.9770   24.8567 O   0  0  0  0  0  0  0  0  0  0  0  0
    9.3357  -16.3371   26.3835 N   0  0  0  0  0  0  0  0  0  0  0  0
    9.9661  -17.6074   26.5686 C   0  0  1  0  0  0  0  0  0  0  0  0
   10.8493  -17.9149   25.3767 C   0  0  0  0  0  0  0  0  0  0  0  0
   11.6111  -19.1628   25.5271 C   0  0  0  0  0  0  0  0  0  0  0  0
   11.0047  -20.2503   25.6015 O   0  0  0  0  0  0  0  0  0  0  0  0
   10.7134  -17.7093   27.8443 C   0  0  0  0  0  0  0  0  0  0  0  0
   11.1913  -18.8193   28.2134 O   0  0  0  0  0  0  0  0  0  0  0  0
   12.9832  -19.1471   25.5862 O   0  0  0  0  0  0  0  0  0  0  0  0
   10.9439  -16.6407   28.7070 O   0  0  0  0  0  0  0  0  0  0  0  0
  2  7  1  0
  2  1  1  6
  3  2  1  0
  4  3  1  0
  5  9  1  0
  5  4  1  0
  6  5  2  0
  7  8  2  0
 11 10  1  1
 11 12  1  0
 13 11  1  0
 14 13  1  1
 15 14  1  0
 15  7  1  0
 16 18  1  0
 16 14  1  0
 17 16  2  0
 19 23  1  0
 19 18  1  0
 19 20  1  6
 21 22  2  0
 21 20  1  0
 23 26  1  0
 24 23  2  0
 25 21  1  0
M  END
$$$$
