ELD.pdb
     RDKit          3D

 26 25  0  0  1  0  0  0  0  0999 V2000
    7.8629  -14.8769   21.0893 N   0  0  0  0  0  0  0  0  0  0  0  0
    8.1635  -15.9704   22.0264 C   0  0  1  0  0  0  0  0  0  0  0  0
    9.1906  -16.8829   21.4686 C   0  0  0  0  0  0  0  0  0  0  0  0
    8.6994  -17.6367   20.2859 C   0  0  0  0  0  0  0  0  0  0  0  0
    9.6987  -18.6172   19.8167 C   0  0  0  0  0  0  0  0  0  0  0  0
   10.8180  -18.7753   20.3342 O   0  0  0  0  0  0  0  0  0  0  0  0
    8.6672  -15.3336   23.2713 C   0  0  0  0  0  0  0  0  0  0  0  0
    9.8284  -14.8839   23.4265 O   0  0  0  0  0  0  0  0  0  0  0  0
    9.4013  -19.4422   18.7166 O   0  0  0  0  0  0  0  0  0  0  0  0
    5.7046  -11.8415   26.2653 C   0  0  0  0  0  0  0  0  0  0  0  0
    6.8576  -12.5638   25.5572 C   0  0  1  0  0  0  0  0  0  0  0  0
    7.8983  -11.5458   25.2557 C   0  0  0  0  0  0  0  0  0  0  0  0
    7.2707  -13.7556   26.3247 C   0  0  0  0  0  0  0  0  0  0  0  0
    8.2616  -14.6550   25.6452 C   0  0  2  0  0  0  0  0  0  0  0  0
    7.8018  -15.2055   24.3911 N   0  0  0  0  0  0  0  0  0  0  0  0
    8.6502  -15.8013   26.5134 C   0  0  0  0  0  0  0  0  0  0  0  0
    9.0970  -15.5748   27.6592 O   0  0  0  0  0  0  0  0  0  0  0  0
    8.5394  -17.1531   26.1020 N   0  0  0  0  0  0  0  0  0  0  0  0
    8.9404  -18.2896   26.8720 C   0  0  1  0  0  0  0  0  0  0  0  0
    8.3527  -19.5474   26.2653 C   0  0  0  0  0  0  0  0  0  0  0  0
    7.9415  -20.5376   27.2705 C   0  0  0  0  0  0  0  0  0  0  0  0
    8.1870  -20.3313   28.4759 O   0  0  0  0  0  0  0  0  0  0  0  0
   10.4094  -18.3962   27.0364 C   0  0  0  0  0  0  0  0  0  0  0  0
   10.8944  -19.0206   28.0220 O   0  0  0  0  0  0  0  0  0  0  0  0
    7.2894  -21.6881   26.8994 O   0  0  0  0  0  0  0  0  0  0  0  0
   11.3398  -17.8439   26.1597 O   0  0  0  0  0  0  0  0  0  0  0  0
  2  7  1  0
  2  1  1  6
  3  2  1  0
  4  3  1  0
  5  9  1  0
  5  4  1  0
  6  5  2  0
  7  8  2  0
 11 10  1  1
 11 12  1  0
 13 11  1  0
 14 13  1  1
 15 14  1  0
 15  7  1  0
 16 18  1  0
 16 14  1  0
 17 16  2  0
 19 23  1  0
 19 18  1  0
 19 20  1  6
 21 22  2  0
 21 20  1  0
 23 26  1  0
 24 23  2  0
 25 21  1  0
M  END
$$$$
