ELD.pdb
     RDKit          3D

 26 25  0  0  1  0  0  0  0  0999 V2000
    7.0259  -16.7089   22.3781 N   0  0  0  0  0  0  0  0  0  0  0  0
    8.3967  -16.3401   21.9920 C   0  0  1  0  0  0  0  0  0  0  0  0
    8.4077  -15.6016   20.7063 C   0  0  0  0  0  0  0  0  0  0  0  0
    7.5076  -16.2108   19.6929 C   0  0  0  0  0  0  0  0  0  0  0  0
    8.2348  -16.5356   18.4496 C   0  0  0  0  0  0  0  0  0  0  0  0
    9.1481  -17.3757   18.3743 O   0  0  0  0  0  0  0  0  0  0  0  0
    8.9253  -15.4781   23.0814 C   0  0  0  0  0  0  0  0  0  0  0  0
   10.0495  -14.9209   23.0719 O   0  0  0  0  0  0  0  0  0  0  0  0
    7.9012  -15.8724   17.2545 O   0  0  0  0  0  0  0  0  0  0  0  0
    5.4539  -12.3599   26.1541 C   0  0  0  0  0  0  0  0  0  0  0  0
    6.6047  -12.8869   25.2878 C   0  0  1  0  0  0  0  0  0  0  0  0
    7.1929  -11.7210   24.5773 C   0  0  0  0  0  0  0  0  0  0  0  0
    7.5151  -13.7266   26.0916 C   0  0  0  0  0  0  0  0  0  0  0  0
    8.6028  -14.4225   25.3268 C   0  0  2  0  0  0  0  0  0  0  0  0
    8.1303  -15.2428   24.2354 N   0  0  0  0  0  0  0  0  0  0  0  0
    9.4249  -15.2957   26.2103 C   0  0  0  0  0  0  0  0  0  0  0  0
    9.3788  -15.1269   27.4485 O   0  0  0  0  0  0  0  0  0  0  0  0
   10.2687  -16.3203   25.7133 N   0  0  0  0  0  0  0  0  0  0  0  0
   10.9608  -17.2844   26.5115 C   0  0  1  0  0  0  0  0  0  0  0  0
    9.9618  -18.0844   27.3220 C   0  0  0  0  0  0  0  0  0  0  0  0
   10.5877  -19.1291   28.1449 C   0  0  0  0  0  0  0  0  0  0  0  0
   11.4535  -18.8153   28.9861 O   0  0  0  0  0  0  0  0  0  0  0  0
   11.8547  -18.1642   25.7220 C   0  0  0  0  0  0  0  0  0  0  0  0
   12.5972  -19.0034   26.3059 O   0  0  0  0  0  0  0  0  0  0  0  0
   10.2309  -20.4474   27.9996 O   0  0  0  0  0  0  0  0  0  0  0  0
   11.9494  -18.1441   24.3327 O   0  0  0  0  0  0  0  0  0  0  0  0
  2  7  1  0
  2  1  1  1
  3  2  1  0
  4  3  1  0
  5  9  1  0
  5  4  1  0
  6  5  2  0
  7  8  2  0
 11 10  1  1
 11 12  1  0
 13 11  1  0
 14 13  1  1
 15 14  1  0
 15  7  1  0
 16 18  1  0
 16 14  1  0
 17 16  2  0
 19 23  1  0
 19 18  1  0
 19 20  1  6
 21 22  2  0
 21 20  1  0
 23 26  1  0
 24 23  2  0
 25 21  1  0
M  END
$$$$
