ELD.pdb
     RDKit          3D

 26 25  0  0  1  0  0  0  0  0999 V2000
    7.4611  -17.3867   21.7965 N   0  0  0  0  0  0  0  0  0  0  0  0
    8.8299  -16.8983   21.5684 C   0  0  1  0  0  0  0  0  0  0  0  0
    8.9810  -16.3580   20.1958 C   0  0  0  0  0  0  0  0  0  0  0  0
    7.6832  -16.2538   19.4796 C   0  0  0  0  0  0  0  0  0  0  0  0
    7.8718  -16.2620   18.0152 C   0  0  0  0  0  0  0  0  0  0  0  0
    7.4293  -17.1443   17.2593 O   0  0  0  0  0  0  0  0  0  0  0  0
    9.0683  -15.8257   22.5692 C   0  0  0  0  0  0  0  0  0  0  0  0
   10.1161  -15.1397   22.6478 O   0  0  0  0  0  0  0  0  0  0  0  0
    8.5928  -15.2221   17.4003 O   0  0  0  0  0  0  0  0  0  0  0  0
    7.8793  -11.5632   25.5143 C   0  0  0  0  0  0  0  0  0  0  0  0
    7.1916  -12.8210   26.0596 C   0  0  1  0  0  0  0  0  0  0  0  0
    5.9741  -12.3782   26.7889 C   0  0  0  0  0  0  0  0  0  0  0  0
    7.0190  -13.8222   24.9881 C   0  0  0  0  0  0  0  0  0  0  0  0
    8.2675  -14.5350   24.5574 C   0  0  2  0  0  0  0  0  0  0  0  0
    8.0608  -15.5240   23.5248 N   0  0  0  0  0  0  0  0  0  0  0  0
    8.9304  -15.2232   25.7001 C   0  0  0  0  0  0  0  0  0  0  0  0
    9.3644  -14.5413   26.6543 O   0  0  0  0  0  0  0  0  0  0  0  0
    9.0981  -16.6292   25.7618 N   0  0  0  0  0  0  0  0  0  0  0  0
    9.7224  -17.3436   26.8320 C   0  0  1  0  0  0  0  0  0  0  0  0
    9.2189  -18.7724   26.8510 C   0  0  0  0  0  0  0  0  0  0  0  0
    9.8916  -19.6102   27.8539 C   0  0  0  0  0  0  0  0  0  0  0  0
    9.3767  -19.7569   28.9804 O   0  0  0  0  0  0  0  0  0  0  0  0
   11.2026  -17.2856   26.7890 C   0  0  0  0  0  0  0  0  0  0  0  0
   11.8003  -17.1297   25.6867 O   0  0  0  0  0  0  0  0  0  0  0  0
   11.0807  -20.2346   27.5662 O   0  0  0  0  0  0  0  0  0  0  0  0
   12.0255  -17.3924   27.9074 O   0  0  0  0  0  0  0  0  0  0  0  0
  2  7  1  0
  2  1  1  6
  3  2  1  0
  4  3  1  0
  5  9  1  0
  5  4  1  0
  6  5  2  0
  7  8  2  0
 11 10  1  6
 11 12  1  0
 13 11  1  0
 14 13  1  1
 15 14  1  0
 15  7  1  0
 16 18  1  0
 16 14  1  0
 17 16  2  0
 19 23  1  0
 19 18  1  0
 19 20  1  6
 21 22  2  0
 21 20  1  0
 23 26  1  0
 24 23  2  0
 25 21  1  0
M  END
$$$$
