ELD.pdb
     RDKit          3D

 26 25  0  0  1  0  0  0  0  0999 V2000
    6.7515  -16.3668   21.7495 N   0  0  0  0  0  0  0  0  0  0  0  0
    8.2022  -16.2558   21.5319 C   0  0  1  0  0  0  0  0  0  0  0  0
    8.5022  -15.3709   20.3806 C   0  0  0  0  0  0  0  0  0  0  0  0
    7.7578  -15.7605   19.1549 C   0  0  0  0  0  0  0  0  0  0  0  0
    8.1658  -14.9461   17.9929 C   0  0  0  0  0  0  0  0  0  0  0  0
    9.0313  -14.0546   18.0346 O   0  0  0  0  0  0  0  0  0  0  0  0
    8.7742  -15.6840   22.7789 C   0  0  0  0  0  0  0  0  0  0  0  0
    9.9633  -15.3066   22.9139 O   0  0  0  0  0  0  0  0  0  0  0  0
    7.5585  -15.1636   16.7426 O   0  0  0  0  0  0  0  0  0  0  0  0
    5.8274  -12.5329   26.3190 C   0  0  0  0  0  0  0  0  0  0  0  0
    7.0123  -13.0573   25.4983 C   0  0  1  0  0  0  0  0  0  0  0  0
    7.9972  -11.9493   25.3862 C   0  0  0  0  0  0  0  0  0  0  0  0
    7.4909  -14.3432   26.0437 C   0  0  0  0  0  0  0  0  0  0  0  0
    8.4778  -15.0843   25.1899 C   0  0  2  0  0  0  0  0  0  0  0  0
    7.9469  -15.5372   23.9249 N   0  0  0  0  0  0  0  0  0  0  0  0
    9.0243  -16.2793   25.8914 C   0  0  0  0  0  0  0  0  0  0  0  0
    8.2478  -17.2039   26.2169 O   0  0  0  0  0  0  0  0  0  0  0  0
   10.3968  -16.4236   26.2146 N   0  0  0  0  0  0  0  0  0  0  0  0
   10.9608  -17.4935   26.9779 C   0  0  1  0  0  0  0  0  0  0  0  0
   12.4040  -17.7045   26.5679 C   0  0  0  0  0  0  0  0  0  0  0  0
   12.5448  -18.3273   25.2441 C   0  0  0  0  0  0  0  0  0  0  0  0
   11.5284  -18.7143   24.6334 O   0  0  0  0  0  0  0  0  0  0  0  0
   10.8305  -17.3003   28.4414 C   0  0  0  0  0  0  0  0  0  0  0  0
   11.1027  -18.2463   29.2336 O   0  0  0  0  0  0  0  0  0  0  0  0
   13.7821  -18.4882   24.6700 O   0  0  0  0  0  0  0  0  0  0  0  0
   10.4165  -16.1146   29.0432 O   0  0  0  0  0  0  0  0  0  0  0  0
  2  7  1  0
  2  1  1  1
  3  2  1  0
  4  3  1  0
  5  9  1  0
  5  4  1  0
  6  5  2  0
  7  8  2  0
 11 10  1  1
 11 12  1  0
 13 11  1  0
 14 13  1  1
 15 14  1  0
 15  7  1  0
 16 18  1  0
 16 14  1  0
 17 16  2  0
 19 23  1  0
 19 18  1  0
 19 20  1  1
 21 22  2  0
 21 20  1  0
 23 26  1  0
 24 23  2  0
 25 21  1  0
M  END
$$$$
