ELD.pdb
     RDKit          3D

 26 25  0  0  1  0  0  0  0  0999 V2000
    8.9776  -14.9959   19.5462 N   0  0  0  0  0  0  0  0  0  0  0  0
    7.8778  -15.2363   20.4932 C   0  0  1  0  0  0  0  0  0  0  0  0
    7.4727  -16.6627   20.4883 C   0  0  0  0  0  0  0  0  0  0  0  0
    8.5638  -17.5621   20.0316 C   0  0  0  0  0  0  0  0  0  0  0  0
    8.1149  -18.9673   19.9677 C   0  0  0  0  0  0  0  0  0  0  0  0
    8.4127  -19.8342   20.8076 O   0  0  0  0  0  0  0  0  0  0  0  0
    8.3854  -14.8535   21.8367 C   0  0  0  0  0  0  0  0  0  0  0  0
    9.5973  -14.8139   22.1597 O   0  0  0  0  0  0  0  0  0  0  0  0
    7.2975  -19.3893   18.9032 O   0  0  0  0  0  0  0  0  0  0  0  0
    8.4137  -11.8271   26.2584 C   0  0  0  0  0  0  0  0  0  0  0  0
    7.2802  -12.8600   26.2869 C   0  0  1  0  0  0  0  0  0  0  0  0
    6.2147  -12.3227   27.1736 C   0  0  0  0  0  0  0  0  0  0  0  0
    6.8961  -13.2449   24.9142 C   0  0  0  0  0  0  0  0  0  0  0  0
    7.9071  -14.0584   24.1603 C   0  0  2  0  0  0  0  0  0  0  0  0
    7.4632  -14.4996   22.8582 N   0  0  0  0  0  0  0  0  0  0  0  0
    8.3148  -15.2723   24.9213 C   0  0  0  0  0  0  0  0  0  0  0  0
    7.4698  -16.1677   25.1400 O   0  0  0  0  0  0  0  0  0  0  0  0
    9.6280  -15.4666   25.4181 N   0  0  0  0  0  0  0  0  0  0  0  0
   10.1222  -16.6733   26.0054 C   0  0  1  0  0  0  0  0  0  0  0  0
   11.4845  -16.9987   25.4278 C   0  0  0  0  0  0  0  0  0  0  0  0
   12.0902  -18.2022   26.0151 C   0  0  0  0  0  0  0  0  0  0  0  0
   11.3591  -19.0723   26.5291 O   0  0  0  0  0  0  0  0  0  0  0  0
   10.1510  -16.6341   27.4866 C   0  0  0  0  0  0  0  0  0  0  0  0
   10.4630  -17.6677   28.1432 O   0  0  0  0  0  0  0  0  0  0  0  0
   13.4519  -18.3814   26.0048 O   0  0  0  0  0  0  0  0  0  0  0  0
    9.8514  -15.5075   28.2483 O   0  0  0  0  0  0  0  0  0  0  0  0
  2  7  1  0
  2  1  1  6
  3  2  1  0
  4  3  1  0
  5  9  1  0
  5  4  1  0
  6  5  2  0
  7  8  2  0
 11 10  1  6
 11 12  1  0
 13 11  1  0
 14 13  1  1
 15 14  1  0
 15  7  1  0
 16 18  1  0
 16 14  1  0
 17 16  2  0
 19 23  1  0
 19 18  1  0
 19 20  1  6
 21 22  2  0
 21 20  1  0
 23 26  1  0
 24 23  2  0
 25 21  1  0
M  END
$$$$
