ELD.pdb
     RDKit          3D

 26 25  0  0  1  0  0  0  0  0999 V2000
    7.0834  -16.2657   22.0902 N   0  0  0  0  0  0  0  0  0  0  0  0
    8.4155  -15.7018   21.8222 C   0  0  1  0  0  0  0  0  0  0  0  0
    8.3617  -14.7059   20.7250 C   0  0  0  0  0  0  0  0  0  0  0  0
    7.5859  -15.1911   19.5542 C   0  0  0  0  0  0  0  0  0  0  0  0
    8.1846  -14.7371   18.2832 C   0  0  0  0  0  0  0  0  0  0  0  0
    9.1836  -14.0011   18.2058 O   0  0  0  0  0  0  0  0  0  0  0  0
    8.8604  -15.0510   23.0822 C   0  0  0  0  0  0  0  0  0  0  0  0
    9.9346  -14.4174   23.2203 O   0  0  0  0  0  0  0  0  0  0  0  0
    7.6158  -15.1421   17.0618 O   0  0  0  0  0  0  0  0  0  0  0  0
    5.5635  -12.3901   26.6405 C   0  0  0  0  0  0  0  0  0  0  0  0
    6.7659  -12.8152   25.7884 C   0  0  1  0  0  0  0  0  0  0  0  0
    7.6184  -11.6126   25.5957 C   0  0  0  0  0  0  0  0  0  0  0  0
    7.4032  -14.0196   26.3571 C   0  0  0  0  0  0  0  0  0  0  0  0
    8.4851  -14.6386   25.5213 C   0  0  2  0  0  0  0  0  0  0  0  0
    8.0376  -15.1288   24.2381 N   0  0  0  0  0  0  0  0  0  0  0  0
    9.1399  -15.7772   26.2239 C   0  0  0  0  0  0  0  0  0  0  0  0
    9.5455  -15.6188   27.3961 O   0  0  0  0  0  0  0  0  0  0  0  0
    9.3306  -17.0471   25.6240 N   0  0  0  0  0  0  0  0  0  0  0  0
   10.0032  -18.1562   26.2265 C   0  0  1  0  0  0  0  0  0  0  0  0
    9.1800  -19.4138   26.0364 C   0  0  0  0  0  0  0  0  0  0  0  0
    8.3097  -19.7149   27.1818 C   0  0  0  0  0  0  0  0  0  0  0  0
    8.3631  -18.9991   28.2019 O   0  0  0  0  0  0  0  0  0  0  0  0
   11.3920  -18.3325   25.7404 C   0  0  0  0  0  0  0  0  0  0  0  0
   12.1382  -19.2125   26.2556 O   0  0  0  0  0  0  0  0  0  0  0  0
    7.4370  -20.7748   27.1433 O   0  0  0  0  0  0  0  0  0  0  0  0
   11.9687  -17.5795   24.7207 O   0  0  0  0  0  0  0  0  0  0  0  0
  2  7  1  0
  2  1  1  1
  3  2  1  0
  4  3  1  0
  5  9  1  0
  5  4  1  0
  6  5  2  0
  7  8  2  0
 11 10  1  1
 11 12  1  0
 13 11  1  0
 14 13  1  1
 15 14  1  0
 15  7  1  0
 16 18  1  0
 16 14  1  0
 17 16  2  0
 19 23  1  0
 19 18  1  0
 19 20  1  6
 21 22  2  0
 21 20  1  0
 23 26  1  0
 24 23  2  0
 25 21  1  0
M  END
$$$$
