ELD.pdb
     RDKit          3D

 26 25  0  0  1  0  0  0  0  0999 V2000
   10.7369  -16.2534   14.2721 N   0  0  0  0  0  0  0  0  0  0  0  0
    9.9688  -16.8482   15.3768 C   0  0  1  0  0  0  0  0  0  0  0  0
   10.3944  -18.2459   15.6297 C   0  0  0  0  0  0  0  0  0  0  0  0
   11.8463  -18.4507   15.3885 C   0  0  0  0  0  0  0  0  0  0  0  0
   12.2566  -19.8340   15.7021 C   0  0  0  0  0  0  0  0  0  0  0  0
   12.1181  -20.3675   16.8164 O   0  0  0  0  0  0  0  0  0  0  0  0
   10.2320  -16.0088   16.5747 C   0  0  0  0  0  0  0  0  0  0  0  0
   11.3569  -15.5580   16.9002 O   0  0  0  0  0  0  0  0  0  0  0  0
   12.8456  -20.6291   14.7020 O   0  0  0  0  0  0  0  0  0  0  0  0
    8.9380  -12.0489   19.9239 C   0  0  0  0  0  0  0  0  0  0  0  0
    8.2450  -13.3575   20.3234 C   0  0  1  0  0  0  0  0  0  0  0  0
    7.0204  -12.9948   21.0843 C   0  0  0  0  0  0  0  0  0  0  0  0
    8.0831  -14.2370   19.1485 C   0  0  0  0  0  0  0  0  0  0  0  0
    9.3507  -14.8122   18.5876 C   0  0  2  0  0  0  0  0  0  0  0  0
    9.1578  -15.6694   17.4408 N   0  0  0  0  0  0  0  0  0  0  0  0
   10.0953  -15.6021   19.6077 C   0  0  0  0  0  0  0  0  0  0  0  0
    9.7616  -16.7876   19.8242 O   0  0  0  0  0  0  0  0  0  0  0  0
   11.1756  -15.0718   20.3564 N   0  0  0  0  0  0  0  0  0  0  0  0
   11.9283  -15.7823   21.3433 C   0  0  1  0  0  0  0  0  0  0  0  0
   13.2472  -15.0762   21.5822 C   0  0  0  0  0  0  0  0  0  0  0  0
   14.1085  -15.0396   20.3918 C   0  0  0  0  0  0  0  0  0  0  0  0
   14.1782  -16.0400   19.6502 O   0  0  0  0  0  0  0  0  0  0  0  0
   11.1838  -15.9933   22.6072 C   0  0  0  0  0  0  0  0  0  0  0  0
   10.0727  -15.4209   22.7928 O   0  0  0  0  0  0  0  0  0  0  0  0
   14.8378  -13.9169   20.0851 O   0  0  0  0  0  0  0  0  0  0  0  0
   11.6227  -16.8034   23.6514 O   0  0  0  0  0  0  0  0  0  0  0  0
  2  7  1  0
  2  1  1  6
  3  2  1  0
  4  3  1  0
  5  9  1  0
  5  4  1  0
  6  5  2  0
  7  8  2  0
 11 10  1  6
 11 12  1  0
 13 11  1  0
 14 13  1  1
 15 14  1  0
 15  7  1  0
 16 18  1  0
 16 14  1  0
 17 16  2  0
 19 23  1  0
 19 18  1  0
 19 20  1  1
 21 22  2  0
 21 20  1  0
 23 26  1  0
 24 23  2  0
 25 21  1  0
M  END
$$$$
