FRG.pdb
     RDKit          3D

 27 27  0  0  1  0  0  0  0  0999 V2000
    9.7517  -18.4552   26.6533 N   0  0  0  0  0  0  0  0  0  0  0  0
    9.6480  -17.1780   26.0020 C   0  0  1  0  0  0  0  0  0  0  0  0
   10.7575  -16.2988   26.5331 C   0  0  0  0  0  0  0  0  0  0  0  0
   10.2930  -15.3791   27.5867 C   0  0  0  0  0  0  0  0  0  0  0  0
   10.6564  -15.5204   28.9181 C   0  0  0  0  0  0  0  0  0  0  0  0
   10.1668  -14.6077   29.8180 C   0  0  0  0  0  0  0  0  0  0  0  0
    9.3358  -13.5680   29.4453 C   0  0  0  0  0  0  0  0  0  0  0  0
    8.9690  -13.4201   28.1206 C   0  0  0  0  0  0  0  0  0  0  0  0
    9.4619  -14.3402   27.2104 C   0  0  0  0  0  0  0  0  0  0  0  0
    9.9377  -17.3622   24.5327 C   0  0  0  0  0  0  0  0  0  0  0  0
   10.8033  -18.2004   24.1791 O   0  0  0  0  0  0  0  0  0  0  0  0
    8.0102  -11.8566   18.7484 N   0  0  0  0  0  0  0  0  0  0  0  0
    7.8945  -13.2763   18.5562 C   0  0  0  0  0  0  0  0  0  0  0  0
    8.0759  -13.7987   17.3933 N   0  0  0  0  0  0  0  0  0  0  0  0
    7.5792  -14.1282   19.6392 N   0  0  0  0  0  0  0  0  0  0  0  0
    7.3573  -13.6433   20.9735 C   0  0  0  0  0  0  0  0  0  0  0  0
    7.9703  -14.5793   21.9986 C   0  0  0  0  0  0  0  0  0  0  0  0
    8.7653  -15.6610   21.3158 C   0  0  0  0  0  0  0  0  0  0  0  0
    9.7141  -16.3798   22.2096 C   0  0  2  0  0  0  0  0  0  0  0  0
    9.2516  -16.6077   23.5475 N   0  0  0  0  0  0  0  0  0  0  0  0
   11.1126  -15.8500   22.1711 C   0  0  0  0  0  0  0  0  0  0  0  0
   11.5280  -15.0430   23.0301 O   0  0  0  0  0  0  0  0  0  0  0  0
    8.0002  -14.8230   17.2365 N   0  0  0  0  0  0  0  0  0  0  0  0
   12.0132  -16.2411   21.1655 C   0  0  0  0  0  0  0  0  0  0  0  0
   13.2597  -15.5278   20.8986 C   0  0  0  0  0  0  0  0  0  0  0  0
   14.0265  -16.1326   19.8117 O   0  0  0  0  0  0  0  0  0  0  0  0
   13.6026  -17.1669   19.2394 O   0  0  0  0  0  0  0  0  0  0  0  0
  2  1  1  1
  2  3  1  0
  2 10  1  0
  4  3  1  0
  4  5  2  0
  6  5  1  0
  7  6  2  0
  8  9  2  0
  8  7  1  0
  9  4  1  0
 10 11  2  0
 13 15  1  0
 13 12  1  0
 14 13  2  0
 16 15  1  0
 17 16  1  0
 17 18  1  0
 19 18  1  1
 20 19  1  0
 20 10  1  0
 21 22  2  0
 21 19  1  0
 23 21  1  0
 24 23  1  0
 24 25  1  0
 25 27  1  0
 26 25  2  0
M  END
$$$$
