FRG.pdb
     RDKit          3D

 27 27  0  0  1  0  0  0  0  0999 V2000
    7.2625  -18.2821   26.5677 N   0  0  0  0  0  0  0  0  0  0  0  0
    6.9960  -16.9119   26.2243 C   0  0  1  0  0  0  0  0  0  0  0  0
    7.6178  -16.0403   27.2918 C   0  0  0  0  0  0  0  0  0  0  0  0
    7.1477  -14.6452   27.2253 C   0  0  0  0  0  0  0  0  0  0  0  0
    5.8022  -14.3071   27.2282 C   0  0  0  0  0  0  0  0  0  0  0  0
    5.4740  -12.9765   27.1628 C   0  0  0  0  0  0  0  0  0  0  0  0
    6.4273  -11.9779   27.0951 C   0  0  0  0  0  0  0  0  0  0  0  0
    7.7701  -12.3063   27.0917 C   0  0  0  0  0  0  0  0  0  0  0  0
    8.1038  -13.6488   27.1576 C   0  0  0  0  0  0  0  0  0  0  0  0
    7.7303  -16.5844   24.9475 C   0  0  0  0  0  0  0  0  0  0  0  0
    8.8735  -17.0675   24.7567 O   0  0  0  0  0  0  0  0  0  0  0  0
   10.2982  -14.3571   18.7328 N   0  0  0  0  0  0  0  0  0  0  0  0
    9.4121  -13.2770   18.3945 C   0  0  0  0  0  0  0  0  0  0  0  0
    9.8788  -12.1217   18.0696 N   0  0  0  0  0  0  0  0  0  0  0  0
    8.0107  -13.4606   18.4113 N   0  0  0  0  0  0  0  0  0  0  0  0
    7.3514  -14.3459   19.3314 C   0  0  0  0  0  0  0  0  0  0  0  0
    7.5261  -13.8687   20.7612 C   0  0  0  0  0  0  0  0  0  0  0  0
    6.7966  -14.7792   21.7137 C   0  0  0  0  0  0  0  0  0  0  0  0
    7.6837  -15.5244   22.6482 C   0  0  2  0  0  0  0  0  0  0  0  0
    7.1537  -15.7431   23.9624 N   0  0  0  0  0  0  0  0  0  0  0  0
    9.0958  -15.0312   22.6767 C   0  0  0  0  0  0  0  0  0  0  0  0
    9.4124  -13.9959   23.3007 O   0  0  0  0  0  0  0  0  0  0  0  0
    9.2534  -11.3260   17.8348 N   0  0  0  0  0  0  0  0  0  0  0  0
   10.1210  -15.7154   22.0013 C   0  0  0  0  0  0  0  0  0  0  0  0
   11.4915  -15.2153   21.9284 C   0  0  0  0  0  0  0  0  0  0  0  0
   12.3636  -16.0901   21.1478 O   0  0  0  0  0  0  0  0  0  0  0  0
   11.9488  -17.2088   20.7563 O   0  0  0  0  0  0  0  0  0  0  0  0
  2  1  1  1
  2  3  1  0
  2 10  1  0
  4  3  1  0
  4  5  2  0
  6  5  1  0
  7  6  2  0
  8  9  2  0
  8  7  1  0
  9  4  1  0
 10 11  2  0
 13 15  1  0
 13 12  1  0
 14 13  2  0
 16 15  1  0
 17 16  1  0
 17 18  1  0
 19 18  1  1
 20 19  1  0
 20 10  1  0
 21 22  2  0
 21 19  1  0
 23 21  1  0
 24 23  1  0
 24 25  1  0
 25 27  1  0
 26 25  2  0
M  END
$$$$
