FRG.pdb
     RDKit          3D

 27 27  0  0  1  0  0  0  0  0999 V2000
    7.2714  -16.8251   26.9306 N   0  0  0  0  0  0  0  0  0  0  0  0
    7.3210  -16.0296   25.7344 C   0  0  1  0  0  0  0  0  0  0  0  0
    8.1316  -14.7901   26.0389 C   0  0  0  0  0  0  0  0  0  0  0  0
    7.2891  -13.6506   26.4433 C   0  0  0  0  0  0  0  0  0  0  0  0
    6.0141  -13.4447   25.9367 C   0  0  0  0  0  0  0  0  0  0  0  0
    5.3151  -12.3510   26.3815 C   0  0  0  0  0  0  0  0  0  0  0  0
    5.8335  -11.4618   27.3040 C   0  0  0  0  0  0  0  0  0  0  0  0
    7.1032  -11.6599   27.8137 C   0  0  0  0  0  0  0  0  0  0  0  0
    7.8107  -12.7631   27.3663 C   0  0  0  0  0  0  0  0  0  0  0  0
    8.1022  -16.7841   24.6869 C   0  0  0  0  0  0  0  0  0  0  0  0
    8.7341  -17.8171   25.0193 O   0  0  0  0  0  0  0  0  0  0  0  0
   10.2277  -13.9698   18.5608 N   0  0  0  0  0  0  0  0  0  0  0  0
    8.9329  -13.5735   18.0784 C   0  0  0  0  0  0  0  0  0  0  0  0
    8.7567  -12.4142   17.5464 N   0  0  0  0  0  0  0  0  0  0  0  0
    7.8268  -14.4479   18.1780 N   0  0  0  0  0  0  0  0  0  0  0  0
    7.8867  -15.7051   18.8713 C   0  0  0  0  0  0  0  0  0  0  0  0
    8.3843  -15.5164   20.2924 C   0  0  0  0  0  0  0  0  0  0  0  0
    8.5906  -16.8505   20.9602 C   0  0  0  0  0  0  0  0  0  0  0  0
    9.0956  -16.7636   22.3577 C   0  0  2  0  0  0  0  0  0  0  0  0
    8.1351  -16.3483   23.3379 N   0  0  0  0  0  0  0  0  0  0  0  0
   10.3992  -16.0425   22.4941 C   0  0  0  0  0  0  0  0  0  0  0  0
   10.4492  -14.7970   22.5840 O   0  0  0  0  0  0  0  0  0  0  0  0
    7.8293  -12.1129   17.1876 N   0  0  0  0  0  0  0  0  0  0  0  0
   11.6188  -16.7403   22.5266 C   0  0  0  0  0  0  0  0  0  0  0  0
   12.9064  -16.0752   22.7093 C   0  0  0  0  0  0  0  0  0  0  0  0
   14.0267  -17.0130   22.6855 O   0  0  0  0  0  0  0  0  0  0  0  0
   13.8145  -18.2506   22.6952 O   0  0  0  0  0  0  0  0  0  0  0  0
  2  1  1  1
  2  3  1  0
  2 10  1  0
  4  3  1  0
  4  5  2  0
  6  5  1  0
  7  6  2  0
  8  9  2  0
  8  7  1  0
  9  4  1  0
 10 11  2  0
 13 15  1  0
 13 12  1  0
 14 13  2  0
 16 15  1  0
 17 16  1  0
 17 18  1  0
 19 18  1  6
 20 19  1  0
 20 10  1  0
 21 22  2  0
 21 19  1  0
 23 21  1  0
 24 23  1  0
 24 25  1  0
 25 27  1  0
 26 25  2  0
M  END
$$$$
