FRG.pdb
     RDKit          3D

 27 27  0  0  1  0  0  0  0  0999 V2000
    6.1433  -18.1199   25.5080 N   0  0  0  0  0  0  0  0  0  0  0  0
    6.3733  -16.7148   25.3109 C   0  0  1  0  0  0  0  0  0  0  0  0
    6.8518  -16.1378   26.6240 C   0  0  0  0  0  0  0  0  0  0  0  0
    6.9166  -14.6657   26.6030 C   0  0  0  0  0  0  0  0  0  0  0  0
    8.0980  -13.9650   26.7983 C   0  0  0  0  0  0  0  0  0  0  0  0
    8.0461  -12.5945   26.7587 C   0  0  0  0  0  0  0  0  0  0  0  0
    6.8718  -11.9009   26.5339 C   0  0  0  0  0  0  0  0  0  0  0  0
    5.6903  -12.5916   26.3383 C   0  0  0  0  0  0  0  0  0  0  0  0
    5.7402  -13.9750   26.3778 C   0  0  0  0  0  0  0  0  0  0  0  0
    7.5207  -16.5458   24.3457 C   0  0  0  0  0  0  0  0  0  0  0  0
    8.4986  -17.3307   24.4127 O   0  0  0  0  0  0  0  0  0  0  0  0
    8.6793  -12.6531   16.3922 N   0  0  0  0  0  0  0  0  0  0  0  0
    8.2702  -13.8504   17.0742 C   0  0  0  0  0  0  0  0  0  0  0  0
    8.2126  -14.9751   16.4497 N   0  0  0  0  0  0  0  0  0  0  0  0
    7.9226  -13.8182   18.4439 N   0  0  0  0  0  0  0  0  0  0  0  0
    7.3548  -14.9454   19.1309 C   0  0  0  0  0  0  0  0  0  0  0  0
    6.9967  -14.5839   20.5604 C   0  0  0  0  0  0  0  0  0  0  0  0
    8.2398  -14.2803   21.3547 C   0  0  0  0  0  0  0  0  0  0  0  0
    8.5533  -15.2842   22.4081 C   0  0  2  0  0  0  0  0  0  0  0  0
    7.5140  -15.5194   23.3674 N   0  0  0  0  0  0  0  0  0  0  0  0
    9.8922  -15.1009   23.0498 C   0  0  0  0  0  0  0  0  0  0  0  0
   10.0597  -14.2953   23.9903 O   0  0  0  0  0  0  0  0  0  0  0  0
    7.8852  -15.8434   16.9170 N   0  0  0  0  0  0  0  0  0  0  0  0
   11.0138  -15.8296   22.6181 C   0  0  0  0  0  0  0  0  0  0  0  0
   12.3408  -15.6605   23.2045 C   0  0  0  0  0  0  0  0  0  0  0  0
   13.3798  -16.3474   22.4403 O   0  0  0  0  0  0  0  0  0  0  0  0
   13.0655  -17.1466   21.5242 O   0  0  0  0  0  0  0  0  0  0  0  0
  2  1  1  1
  2  3  1  0
  2 10  1  0
  4  3  1  0
  4  5  2  0
  6  5  1  0
  7  6  2  0
  8  9  2  0
  8  7  1  0
  9  4  1  0
 10 11  2  0
 13 15  1  0
 13 12  1  0
 14 13  2  0
 16 15  1  0
 17 16  1  0
 17 18  1  0
 19 18  1  1
 20 19  1  0
 20 10  1  0
 21 22  2  0
 21 19  1  0
 23 21  1  0
 24 23  1  0
 24 25  1  0
 25 27  1  0
 26 25  2  0
M  END
$$$$
