FRG.pdb
     RDKit          3D

 27 27  0  0  1  0  0  0  0  0999 V2000
    6.6765  -16.4020   25.9807 N   0  0  0  0  0  0  0  0  0  0  0  0
    7.1447  -15.4876   24.9753 C   0  0  1  0  0  0  0  0  0  0  0  0
    8.0243  -14.4643   25.6573 C   0  0  0  0  0  0  0  0  0  0  0  0
    7.2451  -13.4136   26.3361 C   0  0  0  0  0  0  0  0  0  0  0  0
    6.0763  -12.8870   25.8056 C   0  0  0  0  0  0  0  0  0  0  0  0
    5.4288  -11.9114   26.5208 C   0  0  0  0  0  0  0  0  0  0  0  0
    5.8973  -11.4441   27.7343 C   0  0  0  0  0  0  0  0  0  0  0  0
    7.0612  -11.9636   28.2698 C   0  0  0  0  0  0  0  0  0  0  0  0
    7.7166  -12.9484   27.5497 C   0  0  0  0  0  0  0  0  0  0  0  0
    8.0467  -16.2369   24.0258 C   0  0  0  0  0  0  0  0  0  0  0  0
    8.3077  -17.4441   24.2525 O   0  0  0  0  0  0  0  0  0  0  0  0
    8.1801  -13.0938   17.7308 N   0  0  0  0  0  0  0  0  0  0  0  0
    8.4092  -14.2574   16.9187 C   0  0  0  0  0  0  0  0  0  0  0  0
    8.9127  -14.1462   15.7387 N   0  0  0  0  0  0  0  0  0  0  0  0
    8.0866  -15.5474   17.3982 N   0  0  0  0  0  0  0  0  0  0  0  0
    7.4347  -15.7698   18.6593 C   0  0  0  0  0  0  0  0  0  0  0  0
    8.3325  -15.3607   19.8123 C   0  0  0  0  0  0  0  0  0  0  0  0
    8.7450  -16.5677   20.6132 C   0  0  0  0  0  0  0  0  0  0  0  0
    9.4217  -16.2464   21.8995 C   0  0  2  0  0  0  0  0  0  0  0  0
    8.6031  -15.6037   22.8856 N   0  0  0  0  0  0  0  0  0  0  0  0
   10.7533  -15.5829   21.7419 C   0  0  0  0  0  0  0  0  0  0  0  0
   10.8485  -14.3576   21.5152 O   0  0  0  0  0  0  0  0  0  0  0  0
    9.1134  -14.9782   15.1497 N   0  0  0  0  0  0  0  0  0  0  0  0
   11.9492  -16.3142   21.8434 C   0  0  0  0  0  0  0  0  0  0  0  0
   13.0210  -15.9538   22.7680 C   0  0  0  0  0  0  0  0  0  0  0  0
   14.1664  -16.8562   22.6728 O   0  0  0  0  0  0  0  0  0  0  0  0
   14.2325  -17.8722   23.4078 O   0  0  0  0  0  0  0  0  0  0  0  0
  2  1  1  1
  2  3  1  0
  2 10  1  0
  4  3  1  0
  4  5  2  0
  6  5  1  0
  7  6  2  0
  8  9  2  0
  8  7  1  0
  9  4  1  0
 10 11  2  0
 13 15  1  0
 13 12  1  0
 14 13  2  0
 16 15  1  0
 17 16  1  0
 17 18  1  0
 19 18  1  6
 20 19  1  0
 20 10  1  0
 21 22  2  0
 21 19  1  0
 23 21  1  0
 24 23  1  0
 24 25  1  0
 25 27  1  0
 26 25  2  0
M  END
$$$$
