FRG.pdb
     RDKit          3D

 27 27  0  0  1  0  0  0  0  0999 V2000
    8.5008  -16.8958   22.5426 N   0  0  0  0  0  0  0  0  0  0  0  0
    9.5422  -16.5087   21.6306 C   0  0  1  0  0  0  0  0  0  0  0  0
    9.8649  -15.0546   21.8904 C   0  0  0  0  0  0  0  0  0  0  0  0
    8.8529  -14.1431   21.3274 C   0  0  0  0  0  0  0  0  0  0  0  0
    7.7573  -14.5941   20.6057 C   0  0  0  0  0  0  0  0  0  0  0  0
    6.8752  -13.6592   20.1258 C   0  0  0  0  0  0  0  0  0  0  0  0
    7.0414  -12.3031   20.3357 C   0  0  0  0  0  0  0  0  0  0  0  0
    8.1305  -11.8455   21.0538 C   0  0  0  0  0  0  0  0  0  0  0  0
    9.0223  -12.7873   21.5392 C   0  0  0  0  0  0  0  0  0  0  0  0
   10.7947  -17.2755   21.9770 C   0  0  0  0  0  0  0  0  0  0  0  0
   10.9499  -17.6986   23.1490 O   0  0  0  0  0  0  0  0  0  0  0  0
   12.3326  -23.3339   19.8795 N   0  0  0  0  0  0  0  0  0  0  0  0
   11.9936  -23.0798   18.5060 C   0  0  0  0  0  0  0  0  0  0  0  0
   11.4631  -24.0008   17.7791 N   0  0  0  0  0  0  0  0  0  0  0  0
   12.2353  -21.8141   17.9250 N   0  0  0  0  0  0  0  0  0  0  0  0
   13.1811  -20.8764   18.4646 C   0  0  0  0  0  0  0  0  0  0  0  0
   12.5773  -20.1044   19.6231 C   0  0  0  0  0  0  0  0  0  0  0  0
   13.5294  -19.0395   20.1002 C   0  0  0  0  0  0  0  0  0  0  0  0
   13.0215  -18.2319   21.2428 C   0  0  2  0  0  0  0  0  0  0  0  0
   11.7964  -17.5258   21.0051 N   0  0  0  0  0  0  0  0  0  0  0  0
   14.0585  -17.3731   21.8947 C   0  0  0  0  0  0  0  0  0  0  0  0
   14.5559  -16.3901   21.3050 O   0  0  0  0  0  0  0  0  0  0  0  0
   11.2257  -23.8399   16.7805 N   0  0  0  0  0  0  0  0  0  0  0  0
   14.5129  -17.6404   23.1976 C   0  0  0  0  0  0  0  0  0  0  0  0
   15.9298  -17.7545   23.5336 C   0  0  0  0  0  0  0  0  0  0  0  0
   16.6061  -16.4593   23.5454 O   0  0  0  0  0  0  0  0  0  0  0  0
   16.5245  -15.6953   22.5522 O   0  0  0  0  0  0  0  0  0  0  0  0
  2  1  1  1
  2  3  1  0
  2 10  1  0
  4  3  1  0
  4  5  2  0
  6  5  1  0
  7  6  2  0
  8  9  2  0
  8  7  1  0
  9  4  1  0
 10 11  2  0
 13 15  1  0
 13 12  1  0
 14 13  2  0
 16 15  1  0
 17 16  1  0
 17 18  1  0
 19 18  1  6
 20 19  1  0
 20 10  1  0
 21 22  2  0
 21 19  1  0
 23 21  1  0
 24 23  1  0
 24 25  1  0
 25 27  1  0
 26 25  2  0
M  END
$$$$
