FRG.pdb
     RDKit          3D

 27 27  0  0  1  0  0  0  0  0999 V2000
    7.0613  -16.2595   26.6350 N   0  0  0  0  0  0  0  0  0  0  0  0
    6.9503  -15.8216   25.2704 C   0  0  1  0  0  0  0  0  0  0  0  0
    7.8005  -14.5812   25.1142 C   0  0  0  0  0  0  0  0  0  0  0  0
    7.3459  -13.4739   25.9739 C   0  0  0  0  0  0  0  0  0  0  0  0
    8.0369  -13.0743   27.1086 C   0  0  0  0  0  0  0  0  0  0  0  0
    7.5251  -12.0310   27.8382 C   0  0  0  0  0  0  0  0  0  0  0  0
    6.3608  -11.3760   27.4834 C   0  0  0  0  0  0  0  0  0  0  0  0
    5.6664  -11.7681   26.3542 C   0  0  0  0  0  0  0  0  0  0  0  0
    6.1810  -12.8209   25.6161 C   0  0  0  0  0  0  0  0  0  0  0  0
    7.5772  -16.8643   24.3780 C   0  0  0  0  0  0  0  0  0  0  0  0
    7.0160  -17.9805   24.2515 O   0  0  0  0  0  0  0  0  0  0  0  0
    8.7344  -12.1496   19.4584 N   0  0  0  0  0  0  0  0  0  0  0  0
    8.4936  -13.1015   18.4087 C   0  0  0  0  0  0  0  0  0  0  0  0
    9.0440  -12.9586   17.2533 N   0  0  0  0  0  0  0  0  0  0  0  0
    7.6481  -14.2138   18.6227 N   0  0  0  0  0  0  0  0  0  0  0  0
    7.0655  -14.5157   19.9012 C   0  0  0  0  0  0  0  0  0  0  0  0
    8.1351  -14.9030   20.9055 C   0  0  0  0  0  0  0  0  0  0  0  0
    7.9232  -16.3156   21.3829 C   0  0  0  0  0  0  0  0  0  0  0  0
    8.9955  -16.8255   22.2805 C   0  0  2  0  0  0  0  0  0  0  0  0
    8.7854  -16.6065   23.6819 N   0  0  0  0  0  0  0  0  0  0  0  0
   10.3807  -16.4630   21.8472 C   0  0  0  0  0  0  0  0  0  0  0  0
   10.6526  -16.2452   20.6470 O   0  0  0  0  0  0  0  0  0  0  0  0
    8.8646  -13.6247   16.4765 N   0  0  0  0  0  0  0  0  0  0  0  0
   11.4302  -16.3534   22.7757 C   0  0  0  0  0  0  0  0  0  0  0  0
   12.8316  -16.2502   22.3772 C   0  0  0  0  0  0  0  0  0  0  0  0
   13.7238  -16.0634   23.5193 O   0  0  0  0  0  0  0  0  0  0  0  0
   13.2691  -16.1050   24.6891 O   0  0  0  0  0  0  0  0  0  0  0  0
  2  1  1  1
  2  3  1  0
  2 10  1  0
  4  3  1  0
  4  5  2  0
  6  5  1  0
  7  6  2  0
  8  9  2  0
  8  7  1  0
  9  4  1  0
 10 11  2  0
 13 15  1  0
 13 12  1  0
 14 13  2  0
 16 15  1  0
 17 16  1  0
 17 18  1  0
 19 18  1  6
 20 19  1  0
 20 10  1  0
 21 22  2  0
 21 19  1  0
 23 21  1  0
 24 23  1  0
 24 25  1  0
 25 27  1  0
 26 25  2  0
M  END
$$$$
