FRG.pdb
     RDKit          3D

 27 27  0  0  1  0  0  0  0  0999 V2000
    8.1397  -16.2263   26.0237 N   0  0  0  0  0  0  0  0  0  0  0  0
    6.8780  -16.4196   25.3627 C   0  0  1  0  0  0  0  0  0  0  0  0
    5.9675  -15.2822   25.7669 C   0  0  0  0  0  0  0  0  0  0  0  0
    6.7068  -14.0358   26.0346 C   0  0  0  0  0  0  0  0  0  0  0  0
    7.6905  -13.5510   25.1848 C   0  0  0  0  0  0  0  0  0  0  0  0
    8.3171  -12.3801   25.5295 C   0  0  0  0  0  0  0  0  0  0  0  0
    8.0039  -11.6794   26.6790 C   0  0  0  0  0  0  0  0  0  0  0  0
    7.0250  -12.1556   27.5310 C   0  0  0  0  0  0  0  0  0  0  0  0
    6.3910  -13.3374   27.1853 C   0  0  0  0  0  0  0  0  0  0  0  0
    7.0860  -16.2706   23.8757 C   0  0  0  0  0  0  0  0  0  0  0  0
    6.0861  -16.1461   23.1264 O   0  0  0  0  0  0  0  0  0  0  0  0
    6.6432  -14.0913   17.2475 N   0  0  0  0  0  0  0  0  0  0  0  0
    7.9566  -13.5082   17.2810 C   0  0  0  0  0  0  0  0  0  0  0  0
    8.7991  -13.7321   16.3333 N   0  0  0  0  0  0  0  0  0  0  0  0
    8.3505  -12.6773   18.3545 N   0  0  0  0  0  0  0  0  0  0  0  0
    7.9612  -12.9249   19.7155 C   0  0  0  0  0  0  0  0  0  0  0  0
    8.7927  -14.0399   20.3221 C   0  0  0  0  0  0  0  0  0  0  0  0
    8.0111  -14.7596   21.3895 C   0  0  0  0  0  0  0  0  0  0  0  0
    8.6960  -15.9581   21.9463 C   0  0  2  0  0  0  0  0  0  0  0  0
    8.3869  -16.2688   23.3115 N   0  0  0  0  0  0  0  0  0  0  0  0
   10.1649  -16.0089   21.6674 C   0  0  0  0  0  0  0  0  0  0  0  0
   10.6034  -16.1673   20.5080 O   0  0  0  0  0  0  0  0  0  0  0  0
    9.7538  -13.3224   16.3428 N   0  0  0  0  0  0  0  0  0  0  0  0
   11.1084  -15.8799   22.7011 C   0  0  0  0  0  0  0  0  0  0  0  0
   12.1207  -16.8954   22.9797 C   0  0  0  0  0  0  0  0  0  0  0  0
   13.1004  -16.4497   23.9680 O   0  0  0  0  0  0  0  0  0  0  0  0
   12.9901  -15.3178   24.5003 O   0  0  0  0  0  0  0  0  0  0  0  0
  2  1  1  1
  2  3  1  0
  2 10  1  0
  4  3  1  0
  4  5  2  0
  6  5  1  0
  7  6  2  0
  8  9  2  0
  8  7  1  0
  9  4  1  0
 10 11  2  0
 13 15  1  0
 13 12  1  0
 14 13  2  0
 16 15  1  0
 17 16  1  0
 17 18  1  0
 19 18  1  1
 20 19  1  0
 20 10  1  0
 21 22  2  0
 21 19  1  0
 23 21  1  0
 24 23  1  0
 24 25  1  0
 25 27  1  0
 26 25  2  0
M  END
$$$$
