GED.pdb
     RDKit          3D

 22 21  0  0  1  0  0  0  0  0999 V2000
   15.6923  -10.2628  -16.3335 N   0  0  0  0  0  0  0  0  0  0  0  0
   16.1770   -8.9112  -16.4895 C   0  0  0  0  0  0  0  0  0  0  0  0
   17.5663   -8.7632  -15.8972 C   0  0  0  0  0  0  0  0  0  0  0  0
   17.6904   -8.8103  -14.6561 O   0  0  0  0  0  0  0  0  0  0  0  0
   18.6682   -8.5752  -16.7417 N   0  0  0  0  0  0  0  0  0  0  0  0
   20.0184   -8.3249  -16.3906 C   0  0  1  0  0  0  0  0  0  0  0  0
   21.0508   -9.2123  -17.0926 C   0  0  0  0  0  0  0  0  0  0  0  0
   22.3825   -8.9124  -16.5069 C   0  0  0  0  0  0  0  0  0  0  0  0
   23.4758   -9.7259  -17.0770 C   0  0  0  0  0  0  0  0  0  0  0  0
   23.7731  -10.8654  -16.7185 O   0  0  0  0  0  0  0  0  0  0  0  0
   20.4218   -6.9145  -16.3129 C   0  0  0  0  0  0  0  0  0  0  0  0
   20.6852   -6.3187  -17.3754 O   0  0  0  0  0  0  0  0  0  0  0  0
   24.2219   -9.1243  -18.1082 O   0  0  0  0  0  0  0  0  0  0  0  0
   20.5237   -6.2051  -15.0963 N   0  0  0  0  0  0  0  0  0  0  0  0
   20.9643   -4.8315  -14.9578 C   0  0  1  0  0  0  0  0  0  0  0  0
   19.8278   -4.0430  -14.3442 C   0  0  0  0  0  0  0  0  0  0  0  0
   18.7436   -3.7589  -15.2997 C   0  0  0  0  0  0  0  0  0  0  0  0
   19.0518   -3.3105  -16.4374 O   0  0  0  0  0  0  0  0  0  0  0  0
   22.1431   -4.8169  -14.0348 C   0  0  0  0  0  0  0  0  0  0  0  0
   22.5232   -5.8456  -13.4719 O   0  0  0  0  0  0  0  0  0  0  0  0
   17.4276   -3.9656  -14.9886 O   0  0  0  0  0  0  0  0  0  0  0  0
   22.8057   -3.5865  -13.8312 O   0  0  0  0  0  0  0  0  0  0  0  0
  1  2  1  0
  2  3  1  0
  3  4  2  0
  5  6  1  0
  5  3  1  0
  6 11  1  0
  6  7  1  6
  8  7  1  0
  9  8  1  0
  9 10  2  0
 11 14  1  0
 11 12  2  0
 13  9  1  0
 14 15  1  0
 15 19  1  0
 15 16  1  1
 16 17  1  0
 17 21  1  0
 17 18  2  0
 19 22  1  0
 20 19  2  0
M  END
$$$$
