GED.pdb
     RDKit          3D

 22 21  0  0  1  0  0  0  0  0999 V2000
   17.0698  -11.4578  -15.3721 N   0  0  0  0  0  0  0  0  0  0  0  0
   16.5037  -10.2825  -15.9923 C   0  0  0  0  0  0  0  0  0  0  0  0
   17.0264   -9.0190  -15.3342 C   0  0  0  0  0  0  0  0  0  0  0  0
   16.6347   -8.7448  -14.1812 O   0  0  0  0  0  0  0  0  0  0  0  0
   17.9232   -8.1928  -16.0241 N   0  0  0  0  0  0  0  0  0  0  0  0
   18.5083   -6.9739  -15.5988 C   0  0  1  0  0  0  0  0  0  0  0  0
   20.0336   -6.9042  -15.7214 C   0  0  0  0  0  0  0  0  0  0  0  0
   20.6133   -7.8575  -14.7408 C   0  0  0  0  0  0  0  0  0  0  0  0
   22.0895   -7.9050  -14.7643 C   0  0  0  0  0  0  0  0  0  0  0  0
   22.8341   -6.9776  -14.4469 O   0  0  0  0  0  0  0  0  0  0  0  0
   17.8341   -5.7415  -16.0284 C   0  0  0  0  0  0  0  0  0  0  0  0
   17.5001   -5.6402  -17.2249 O   0  0  0  0  0  0  0  0  0  0  0  0
   22.6629   -9.1183  -15.1901 O   0  0  0  0  0  0  0  0  0  0  0  0
   17.5473   -4.6713  -15.1531 N   0  0  0  0  0  0  0  0  0  0  0  0
   16.9523   -3.4069  -15.5369 C   0  0  1  0  0  0  0  0  0  0  0  0
   15.5593   -3.3559  -14.9480 C   0  0  0  0  0  0  0  0  0  0  0  0
   14.8552   -2.0969  -15.2452 C   0  0  0  0  0  0  0  0  0  0  0  0
   15.2391   -1.4168  -16.2355 O   0  0  0  0  0  0  0  0  0  0  0  0
   17.7864   -2.3094  -14.9526 C   0  0  0  0  0  0  0  0  0  0  0  0
   17.4898   -1.1251  -15.1234 O   0  0  0  0  0  0  0  0  0  0  0  0
   13.8093   -1.6517  -14.4842 O   0  0  0  0  0  0  0  0  0  0  0  0
   18.9232   -2.6753  -14.1989 O   0  0  0  0  0  0  0  0  0  0  0  0
  1  2  1  0
  2  3  1  0
  3  4  2  0
  5  6  1  0
  5  3  1  0
  6 11  1  0
  6  7  1  6
  8  7  1  0
  9  8  1  0
  9 10  2  0
 11 14  1  0
 11 12  2  0
 13  9  1  0
 14 15  1  0
 15 19  1  0
 15 16  1  1
 16 17  1  0
 17 21  1  0
 17 18  2  0
 19 22  1  0
 20 19  2  0
M  END
$$$$
