GED.pdb
     RDKit          3D

 22 21  0  0  1  0  0  0  0  0999 V2000
   16.7831  -12.4986  -14.7851 N   0  0  0  0  0  0  0  0  0  0  0  0
   16.8855  -11.4813  -15.8053 C   0  0  0  0  0  0  0  0  0  0  0  0
   18.2328  -10.7859  -15.7422 C   0  0  0  0  0  0  0  0  0  0  0  0
   18.6990  -10.4957  -14.6213 O   0  0  0  0  0  0  0  0  0  0  0  0
   18.9176  -10.4831  -16.9263 N   0  0  0  0  0  0  0  0  0  0  0  0
   20.1439   -9.7904  -17.0859 C   0  0  1  0  0  0  0  0  0  0  0  0
   20.8628  -10.0335  -18.4164 C   0  0  0  0  0  0  0  0  0  0  0  0
   22.2272   -9.4564  -18.3089 C   0  0  0  0  0  0  0  0  0  0  0  0
   22.9974   -9.5213  -19.5677 C   0  0  0  0  0  0  0  0  0  0  0  0
   23.1707   -8.5805  -20.3425 O   0  0  0  0  0  0  0  0  0  0  0  0
   20.1571   -8.3824  -16.6673 C   0  0  0  0  0  0  0  0  0  0  0  0
   19.2502   -7.6362  -17.0843 O   0  0  0  0  0  0  0  0  0  0  0  0
   23.5645  -10.7709  -19.8824 O   0  0  0  0  0  0  0  0  0  0  0  0
   21.1445   -7.8373  -15.8177 N   0  0  0  0  0  0  0  0  0  0  0  0
   21.1353   -6.4959  -15.2695 C   0  0  1  0  0  0  0  0  0  0  0  0
   21.7395   -6.5606  -13.8837 C   0  0  0  0  0  0  0  0  0  0  0  0
   21.7638   -5.2535  -13.2054 C   0  0  0  0  0  0  0  0  0  0  0  0
   22.8828   -4.7639  -12.8912 O   0  0  0  0  0  0  0  0  0  0  0  0
   21.9854   -5.6330  -16.1496 C   0  0  0  0  0  0  0  0  0  0  0  0
   22.1010   -4.4245  -15.9355 O   0  0  0  0  0  0  0  0  0  0  0  0
   20.6185   -4.5659  -12.9107 O   0  0  0  0  0  0  0  0  0  0  0  0
   22.6510   -6.2490  -17.2321 O   0  0  0  0  0  0  0  0  0  0  0  0
  1  2  1  0
  2  3  1  0
  3  4  2  0
  5  6  1  0
  5  3  1  0
  6 11  1  0
  6  7  1  6
  8  7  1  0
  9  8  1  0
  9 10  2  0
 11 14  1  0
 11 12  2  0
 13  9  1  0
 14 15  1  0
 15 19  1  0
 15 16  1  1
 16 17  1  0
 17 21  1  0
 17 18  2  0
 19 22  1  0
 20 19  2  0
M  END
$$$$
