GED.pdb
     RDKit          3D

 22 21  0  0  1  0  0  0  0  0999 V2000
   18.0565  -16.5121  -15.2881 N   0  0  0  0  0  0  0  0  0  0  0  0
   17.5161  -15.3010  -14.7158 C   0  0  0  0  0  0  0  0  0  0  0  0
   17.5436  -14.1673  -15.7242 C   0  0  0  0  0  0  0  0  0  0  0  0
   17.1635  -14.4006  -16.8900 O   0  0  0  0  0  0  0  0  0  0  0  0
   17.9924  -12.8984  -15.3352 N   0  0  0  0  0  0  0  0  0  0  0  0
   17.8327  -11.6602  -16.0063 C   0  0  1  0  0  0  0  0  0  0  0  0
   16.4042  -11.3424  -16.4587 C   0  0  0  0  0  0  0  0  0  0  0  0
   15.5779  -11.1304  -15.2427 C   0  0  0  0  0  0  0  0  0  0  0  0
   14.2321  -10.5930  -15.5287 C   0  0  0  0  0  0  0  0  0  0  0  0
   13.8597   -9.4456  -15.2833 O   0  0  0  0  0  0  0  0  0  0  0  0
   18.5267  -10.5059  -15.4199 C   0  0  0  0  0  0  0  0  0  0  0  0
   18.3010  -10.2281  -14.2261 O   0  0  0  0  0  0  0  0  0  0  0  0
   13.3232  -11.4865  -16.1268 O   0  0  0  0  0  0  0  0  0  0  0  0
   19.4341   -9.7003  -16.1420 N   0  0  0  0  0  0  0  0  0  0  0  0
   20.1622   -8.5671  -15.6077 C   0  0  1  0  0  0  0  0  0  0  0  0
   21.1577   -8.1229  -16.6572 C   0  0  0  0  0  0  0  0  0  0  0  0
   22.0040   -7.0036  -16.2099 C   0  0  0  0  0  0  0  0  0  0  0  0
   21.9064   -6.6223  -15.0117 O   0  0  0  0  0  0  0  0  0  0  0  0
   19.1786   -7.4681  -15.3496 C   0  0  0  0  0  0  0  0  0  0  0  0
   18.2772   -7.2195  -16.1529 O   0  0  0  0  0  0  0  0  0  0  0  0
   22.8815   -6.3747  -17.0500 O   0  0  0  0  0  0  0  0  0  0  0  0
   19.3168   -6.7266  -14.1557 O   0  0  0  0  0  0  0  0  0  0  0  0
  1  2  1  0
  2  3  1  0
  3  4  2  0
  5  6  1  0
  5  3  1  0
  6 11  1  0
  6  7  1  1
  8  7  1  0
  9  8  1  0
  9 10  2  0
 11 14  1  0
 11 12  2  0
 13  9  1  0
 14 15  1  0
 15 19  1  0
 15 16  1  6
 16 17  1  0
 17 21  1  0
 17 18  2  0
 19 22  1  0
 20 19  2  0
M  END
$$$$
