GED.pdb
     RDKit          3D

 22 21  0  0  1  0  0  0  0  0999 V2000
   15.8982   -4.3097   -6.6955 N   0  0  0  0  0  0  0  0  0  0  0  0
   15.1793   -4.9382   -7.7793 C   0  0  0  0  0  0  0  0  0  0  0  0
   16.0099   -6.0392   -8.4124 C   0  0  0  0  0  0  0  0  0  0  0  0
   17.1941   -6.1764   -8.0427 O   0  0  0  0  0  0  0  0  0  0  0  0
   15.4419   -6.8675   -9.3892 N   0  0  0  0  0  0  0  0  0  0  0  0
   16.0486   -7.9233  -10.1145 C   0  0  1  0  0  0  0  0  0  0  0  0
   15.1101   -9.0677  -10.5094 C   0  0  0  0  0  0  0  0  0  0  0  0
   15.9461  -10.1946  -10.9967 C   0  0  0  0  0  0  0  0  0  0  0  0
   15.1603  -11.3573  -11.4579 C   0  0  0  0  0  0  0  0  0  0  0  0
   15.3638  -12.5261  -11.1297 O   0  0  0  0  0  0  0  0  0  0  0  0
   16.9708   -7.5314  -11.1887 C   0  0  0  0  0  0  0  0  0  0  0  0
   16.6143   -6.6280  -11.9696 O   0  0  0  0  0  0  0  0  0  0  0  0
   14.1031  -11.0772  -12.3445 O   0  0  0  0  0  0  0  0  0  0  0  0
   18.2372   -8.1272  -11.3765 N   0  0  0  0  0  0  0  0  0  0  0  0
   19.2131   -7.7325  -12.3724 C   0  0  1  0  0  0  0  0  0  0  0  0
   20.3133   -8.7714  -12.3760 C   0  0  0  0  0  0  0  0  0  0  0  0
   21.3714   -8.4850  -13.3596 C   0  0  0  0  0  0  0  0  0  0  0  0
   21.6886   -7.2814  -13.5628 O   0  0  0  0  0  0  0  0  0  0  0  0
   18.5307   -7.7172  -13.7050 C   0  0  0  0  0  0  0  0  0  0  0  0
   17.8653   -8.6808  -14.0902 O   0  0  0  0  0  0  0  0  0  0  0  0
   22.0104   -9.4780  -14.0501 O   0  0  0  0  0  0  0  0  0  0  0  0
   18.6735   -6.5626  -14.5054 O   0  0  0  0  0  0  0  0  0  0  0  0
  1  2  1  0
  2  3  1  0
  3  4  2  0
  5  6  1  0
  5  3  1  0
  6 11  1  0
  6  7  1  6
  8  7  1  0
  9  8  1  0
  9 10  2  0
 11 14  1  0
 11 12  2  0
 13  9  1  0
 14 15  1  0
 15 19  1  0
 15 16  1  6
 16 17  1  0
 17 21  1  0
 17 18  2  0
 19 22  1  0
 20 19  2  0
M  END
$$$$
