GED.pdb
     RDKit          3D

 22 21  0  0  1  0  0  0  0  0999 V2000
   15.5589  -13.8328  -14.0541 N   0  0  0  0  0  0  0  0  0  0  0  0
   14.9029  -12.5460  -14.0685 C   0  0  0  0  0  0  0  0  0  0  0  0
   15.5484  -11.5989  -13.0739 C   0  0  0  0  0  0  0  0  0  0  0  0
   15.4209  -11.8402  -11.8559 O   0  0  0  0  0  0  0  0  0  0  0  0
   16.2622  -10.4846  -13.5338 N   0  0  0  0  0  0  0  0  0  0  0  0
   16.9143   -9.4787  -12.7775 C   0  0  1  0  0  0  0  0  0  0  0  0
   18.0795   -8.7813  -13.4862 C   0  0  0  0  0  0  0  0  0  0  0  0
   19.0313   -9.8290  -13.9365 C   0  0  0  0  0  0  0  0  0  0  0  0
   20.1498   -9.3033  -14.7456 C   0  0  0  0  0  0  0  0  0  0  0  0
   21.3394   -9.5629  -14.5645 O   0  0  0  0  0  0  0  0  0  0  0  0
   16.0464   -8.5528  -12.0377 C   0  0  0  0  0  0  0  0  0  0  0  0
   15.1066   -8.0106  -12.6509 O   0  0  0  0  0  0  0  0  0  0  0  0
   19.7984   -8.4371  -15.7984 O   0  0  0  0  0  0  0  0  0  0  0  0
   16.2258   -8.2503  -10.6702 N   0  0  0  0  0  0  0  0  0  0  0  0
   15.3927   -7.3573   -9.8899 C   0  0  1  0  0  0  0  0  0  0  0  0
   15.2445   -7.9559   -8.5080 C   0  0  0  0  0  0  0  0  0  0  0  0
   14.4354   -7.1212   -7.6037 C   0  0  0  0  0  0  0  0  0  0  0  0
   14.9190   -6.8154   -6.4798 O   0  0  0  0  0  0  0  0  0  0  0  0
   16.0949   -6.0383   -9.7946 C   0  0  0  0  0  0  0  0  0  0  0  0
   17.2921   -5.9336  -10.0691 O   0  0  0  0  0  0  0  0  0  0  0  0
   13.1884   -6.6754   -7.9468 O   0  0  0  0  0  0  0  0  0  0  0  0
   15.3406   -4.9184   -9.3811 O   0  0  0  0  0  0  0  0  0  0  0  0
  1  2  1  0
  2  3  1  0
  3  4  2  0
  5  6  1  0
  5  3  1  0
  6 11  1  0
  6  7  1  6
  8  7  1  0
  9  8  1  0
  9 10  2  0
 11 14  1  0
 11 12  2  0
 13  9  1  0
 14 15  1  0
 15 19  1  0
 15 16  1  1
 16 17  1  0
 17 21  1  0
 17 18  2  0
 19 22  1  0
 20 19  2  0
M  END
$$$$
