GED.pdb
     RDKit          3D

 22 21  0  0  1  0  0  0  0  0999 V2000
   16.9305  -11.2634  -16.2251 N   0  0  0  0  0  0  0  0  0  0  0  0
   16.9686   -9.8300  -16.0509 C   0  0  0  0  0  0  0  0  0  0  0  0
   18.3092   -9.3885  -15.4936 C   0  0  0  0  0  0  0  0  0  0  0  0
   18.4614   -9.3742  -14.2548 O   0  0  0  0  0  0  0  0  0  0  0  0
   19.3361   -9.0066  -16.3669 N   0  0  0  0  0  0  0  0  0  0  0  0
   20.6545   -8.5915  -16.0532 C   0  0  1  0  0  0  0  0  0  0  0  0
   21.7701   -9.3961  -16.7274 C   0  0  0  0  0  0  0  0  0  0  0  0
   21.6754  -10.7980  -16.2456 C   0  0  0  0  0  0  0  0  0  0  0  0
   22.6906  -11.6951  -16.8342 C   0  0  0  0  0  0  0  0  0  0  0  0
   22.4505  -12.7539  -17.4146 O   0  0  0  0  0  0  0  0  0  0  0  0
   20.9005   -7.1433  -16.0547 C   0  0  0  0  0  0  0  0  0  0  0  0
   21.0733   -6.5772  -17.1515 O   0  0  0  0  0  0  0  0  0  0  0  0
   24.0306  -11.2833  -16.7038 O   0  0  0  0  0  0  0  0  0  0  0  0
   20.9492   -6.3658  -14.8771 N   0  0  0  0  0  0  0  0  0  0  0  0
   21.1761   -4.9356  -14.8221 C   0  0  1  0  0  0  0  0  0  0  0  0
   19.9005   -4.2855  -14.3321 C   0  0  0  0  0  0  0  0  0  0  0  0
   18.8428   -4.2505  -15.3563 C   0  0  0  0  0  0  0  0  0  0  0  0
   19.1553   -3.8989  -16.5265 O   0  0  0  0  0  0  0  0  0  0  0  0
   22.2793   -4.6817  -13.8421 C   0  0  0  0  0  0  0  0  0  0  0  0
   22.7688   -5.6012  -13.1830 O   0  0  0  0  0  0  0  0  0  0  0  0
   17.5465   -4.5848  -15.0746 O   0  0  0  0  0  0  0  0  0  0  0  0
   22.7410   -3.3549  -13.6985 O   0  0  0  0  0  0  0  0  0  0  0  0
  1  2  1  0
  2  3  1  0
  3  4  2  0
  5  6  1  0
  5  3  1  0
  6 11  1  0
  6  7  1  6
  8  7  1  0
  9  8  1  0
  9 10  2  0
 11 14  1  0
 11 12  2  0
 13  9  1  0
 14 15  1  0
 15 19  1  0
 15 16  1  1
 16 17  1  0
 17 21  1  0
 17 18  2  0
 19 22  1  0
 20 19  2  0
M  END
$$$$
