GED.pdb
     RDKit          3D

 22 21  0  0  1  0  0  0  0  0999 V2000
   15.5391  -11.9230  -14.8250 N   0  0  0  0  0  0  0  0  0  0  0  0
   15.8724  -10.8875  -15.7753 C   0  0  0  0  0  0  0  0  0  0  0  0
   16.9979  -10.0148  -15.2513 C   0  0  0  0  0  0  0  0  0  0  0  0
   16.9824   -9.6857  -14.0474 O   0  0  0  0  0  0  0  0  0  0  0  0
   18.0173   -9.5968  -16.1168 N   0  0  0  0  0  0  0  0  0  0  0  0
   19.0896   -8.7076  -15.8553 C   0  0  1  0  0  0  0  0  0  0  0  0
   20.4807   -9.2392  -16.2137 C   0  0  0  0  0  0  0  0  0  0  0  0
   21.4857   -8.3054  -15.6442 C   0  0  0  0  0  0  0  0  0  0  0  0
   22.8822   -8.6993  -15.9210 C   0  0  0  0  0  0  0  0  0  0  0  0
   23.5466   -8.3245  -16.8871 O   0  0  0  0  0  0  0  0  0  0  0  0
   18.8851   -7.3062  -16.2452 C   0  0  0  0  0  0  0  0  0  0  0  0
   18.6222   -7.0599  -17.4383 O   0  0  0  0  0  0  0  0  0  0  0  0
   23.4740   -9.5754  -14.9913 O   0  0  0  0  0  0  0  0  0  0  0  0
   18.9711   -6.2298  -15.3354 N   0  0  0  0  0  0  0  0  0  0  0  0
   18.7005   -4.8408  -15.6476 C   0  0  1  0  0  0  0  0  0  0  0  0
   17.6311   -4.3544  -14.6938 C   0  0  0  0  0  0  0  0  0  0  0  0
   17.3207   -2.9242  -14.8589 C   0  0  0  0  0  0  0  0  0  0  0  0
   17.1389   -2.4830  -16.0263 O   0  0  0  0  0  0  0  0  0  0  0  0
   19.9621   -4.0651  -15.4274 C   0  0  0  0  0  0  0  0  0  0  0  0
   20.8967   -4.5410  -14.7795 O   0  0  0  0  0  0  0  0  0  0  0  0
   17.2263   -2.0728  -13.7924 O   0  0  0  0  0  0  0  0  0  0  0  0
   20.0466   -2.7713  -15.9870 O   0  0  0  0  0  0  0  0  0  0  0  0
  1  2  1  0
  2  3  1  0
  3  4  2  0
  5  6  1  0
  5  3  1  0
  6 11  1  0
  6  7  1  6
  8  7  1  0
  9  8  1  0
  9 10  2  0
 11 14  1  0
 11 12  2  0
 13  9  1  0
 14 15  1  0
 15 19  1  0
 15 16  1  1
 16 17  1  0
 17 21  1  0
 17 18  2  0
 19 22  1  0
 20 19  2  0
M  END
$$$$
