GED.pdb
     RDKit          3D

 22 21  0  0  1  0  0  0  0  0999 V2000
   14.3235   -8.5171  -15.2390 N   0  0  0  0  0  0  0  0  0  0  0  0
   15.1285   -7.4437  -15.7738 C   0  0  0  0  0  0  0  0  0  0  0  0
   16.5233   -7.4644  -15.1761 C   0  0  0  0  0  0  0  0  0  0  0  0
   16.6676   -7.0926  -13.9933 O   0  0  0  0  0  0  0  0  0  0  0  0
   17.6087   -7.8905  -15.9526 N   0  0  0  0  0  0  0  0  0  0  0  0
   18.9817   -7.9354  -15.6035 C   0  0  1  0  0  0  0  0  0  0  0  0
   19.7551   -9.1397  -16.1495 C   0  0  0  0  0  0  0  0  0  0  0  0
   19.2584  -10.3538  -15.4526 C   0  0  0  0  0  0  0  0  0  0  0  0
   19.9563  -11.5925  -15.8533 C   0  0  0  0  0  0  0  0  0  0  0  0
   19.4545  -12.5117  -16.5004 O   0  0  0  0  0  0  0  0  0  0  0  0
   19.7237   -6.6721  -15.7095 C   0  0  0  0  0  0  0  0  0  0  0  0
   19.9542   -6.2190  -16.8474 O   0  0  0  0  0  0  0  0  0  0  0  0
   21.2996  -11.7050  -15.4470 O   0  0  0  0  0  0  0  0  0  0  0  0
   20.1851   -5.9496  -14.5875 N   0  0  0  0  0  0  0  0  0  0  0  0
   20.9445   -4.7163  -14.6353 C   0  0  1  0  0  0  0  0  0  0  0  0
   20.1369   -3.6507  -13.9266 C   0  0  0  0  0  0  0  0  0  0  0  0
   19.0132   -3.1481  -14.7351 C   0  0  0  0  0  0  0  0  0  0  0  0
   19.2441   -2.7899  -15.9221 O   0  0  0  0  0  0  0  0  0  0  0  0
   22.2327   -4.9401  -13.9058 C   0  0  0  0  0  0  0  0  0  0  0  0
   23.0814   -4.0496  -13.8254 O   0  0  0  0  0  0  0  0  0  0  0  0
   17.7418   -3.0603  -14.2379 O   0  0  0  0  0  0  0  0  0  0  0  0
   22.4431   -6.2041  -13.3123 O   0  0  0  0  0  0  0  0  0  0  0  0
  1  2  1  0
  2  3  1  0
  3  4  2  0
  5  6  1  0
  5  3  1  0
  6 11  1  0
  6  7  1  6
  8  7  1  0
  9  8  1  0
  9 10  2  0
 11 14  1  0
 11 12  2  0
 13  9  1  0
 14 15  1  0
 15 19  1  0
 15 16  1  1
 16 17  1  0
 17 21  1  0
 17 18  2  0
 19 22  1  0
 20 19  2  0
M  END
$$$$
