GED.pdb
     RDKit          3D

 22 21  0  0  1  0  0  0  0  0999 V2000
   10.8253  -12.8003   -9.9992 N   0  0  0  0  0  0  0  0  0  0  0  0
   11.1516  -11.7198  -10.9004 C   0  0  0  0  0  0  0  0  0  0  0  0
   12.5949  -11.2856  -10.7238 C   0  0  0  0  0  0  0  0  0  0  0  0
   13.0342  -11.1433   -9.5641 O   0  0  0  0  0  0  0  0  0  0  0  0
   13.3958  -11.0518  -11.8493 N   0  0  0  0  0  0  0  0  0  0  0  0
   14.7031  -10.5071  -11.9063 C   0  0  1  0  0  0  0  0  0  0  0  0
   15.5196  -10.8971  -13.1422 C   0  0  0  0  0  0  0  0  0  0  0  0
   15.6522  -12.3765  -13.1521 C   0  0  0  0  0  0  0  0  0  0  0  0
   16.3625  -12.8984  -14.3374 C   0  0  0  0  0  0  0  0  0  0  0  0
   17.5039  -13.3595  -14.3342 O   0  0  0  0  0  0  0  0  0  0  0  0
   14.8353   -9.0890  -11.5464 C   0  0  0  0  0  0  0  0  0  0  0  0
   14.0284   -8.2787  -12.0419 O   0  0  0  0  0  0  0  0  0  0  0  0
   15.6555  -12.8495  -15.5540 O   0  0  0  0  0  0  0  0  0  0  0  0
   15.8290   -8.6032  -10.6686 N   0  0  0  0  0  0  0  0  0  0  0  0
   16.0273   -7.2135  -10.3091 C   0  0  1  0  0  0  0  0  0  0  0  0
   15.9982   -7.1199   -8.7990 C   0  0  0  0  0  0  0  0  0  0  0  0
   16.2423   -5.7548   -8.3028 C   0  0  0  0  0  0  0  0  0  0  0  0
   16.2390   -4.8069   -9.1347 O   0  0  0  0  0  0  0  0  0  0  0  0
   17.3734   -6.7950  -10.8136 C   0  0  0  0  0  0  0  0  0  0  0  0
   18.2320   -7.6305  -11.1040 O   0  0  0  0  0  0  0  0  0  0  0  0
   16.4700   -5.4920   -6.9798 O   0  0  0  0  0  0  0  0  0  0  0  0
   17.6267   -5.4121  -10.9470 O   0  0  0  0  0  0  0  0  0  0  0  0
  1  2  1  0
  2  3  1  0
  3  4  2  0
  5  6  1  0
  5  3  1  0
  6 11  1  0
  6  7  1  6
  8  7  1  0
  9  8  1  0
  9 10  2  0
 11 14  1  0
 11 12  2  0
 13  9  1  0
 14 15  1  0
 15 19  1  0
 15 16  1  1
 16 17  1  0
 17 21  1  0
 17 18  2  0
 19 22  1  0
 20 19  2  0
M  END
$$$$
