GED.pdb
     RDKit          3D

 22 21  0  0  1  0  0  0  0  0999 V2000
   15.9536  -12.7217  -14.6162 N   0  0  0  0  0  0  0  0  0  0  0  0
   15.9963  -11.4830  -15.3578 C   0  0  0  0  0  0  0  0  0  0  0  0
   17.4032  -10.9147  -15.3808 C   0  0  0  0  0  0  0  0  0  0  0  0
   18.1299  -11.0887  -14.3811 O   0  0  0  0  0  0  0  0  0  0  0  0
   17.8533  -10.2117  -16.5060 N   0  0  0  0  0  0  0  0  0  0  0  0
   19.1192   -9.6137  -16.7267 C   0  0  1  0  0  0  0  0  0  0  0  0
   19.6741   -9.7648  -18.1464 C   0  0  0  0  0  0  0  0  0  0  0  0
   18.8267   -8.9512  -19.0554 C   0  0  0  0  0  0  0  0  0  0  0  0
   19.2629   -8.9938  -20.4661 C   0  0  0  0  0  0  0  0  0  0  0  0
   18.6830   -9.5957  -21.3699 O   0  0  0  0  0  0  0  0  0  0  0  0
   19.3121   -8.2690  -16.1677 C   0  0  0  0  0  0  0  0  0  0  0  0
   18.3420   -7.4866  -16.1693 O   0  0  0  0  0  0  0  0  0  0  0  0
   20.4394   -8.2835  -20.7718 O   0  0  0  0  0  0  0  0  0  0  0  0
   20.5395   -7.8236  -15.6301 N   0  0  0  0  0  0  0  0  0  0  0  0
   20.7980   -6.4953  -15.1115 C   0  0  1  0  0  0  0  0  0  0  0  0
   21.6414   -6.6443  -13.8640 C   0  0  0  0  0  0  0  0  0  0  0  0
   21.9798   -5.3532  -13.2412 C   0  0  0  0  0  0  0  0  0  0  0  0
   21.1748   -4.3926  -13.3818 O   0  0  0  0  0  0  0  0  0  0  0  0
   21.5648   -5.7368  -16.1500 C   0  0  0  0  0  0  0  0  0  0  0  0
   22.2493   -6.3238  -16.9906 O   0  0  0  0  0  0  0  0  0  0  0  0
   23.1303   -5.1713  -12.5239 O   0  0  0  0  0  0  0  0  0  0  0  0
   21.4773   -4.3274  -16.1356 O   0  0  0  0  0  0  0  0  0  0  0  0
  1  2  1  0
  2  3  1  0
  3  4  2  0
  5  6  1  0
  5  3  1  0
  6 11  1  0
  6  7  1  6
  8  7  1  0
  9  8  1  0
  9 10  2  0
 11 14  1  0
 11 12  2  0
 13  9  1  0
 14 15  1  0
 15 19  1  0
 15 16  1  1
 16 17  1  0
 17 21  1  0
 17 18  2  0
 19 22  1  0
 20 19  2  0
M  END
$$$$
