GED.pdb
     RDKit          3D

 22 21  0  0  1  0  0  0  0  0999 V2000
   21.5335  -12.7065  -17.7847 N   0  0  0  0  0  0  0  0  0  0  0  0
   21.0772  -12.3172  -16.4708 C   0  0  0  0  0  0  0  0  0  0  0  0
   20.3912  -10.9643  -16.5155 C   0  0  0  0  0  0  0  0  0  0  0  0
   20.7689  -10.1353  -17.3688 O   0  0  0  0  0  0  0  0  0  0  0  0
   19.3637  -10.6729  -15.6088 N   0  0  0  0  0  0  0  0  0  0  0  0
   18.6863   -9.4446  -15.4054 C   0  0  1  0  0  0  0  0  0  0  0  0
   17.2007   -9.5688  -15.0537 C   0  0  0  0  0  0  0  0  0  0  0  0
   16.5661  -10.4540  -16.0637 C   0  0  0  0  0  0  0  0  0  0  0  0
   15.1173  -10.6491  -15.8518 C   0  0  0  0  0  0  0  0  0  0  0  0
   14.3842  -11.3419  -16.5575 O   0  0  0  0  0  0  0  0  0  0  0  0
   19.3909   -8.4359  -14.6028 C   0  0  0  0  0  0  0  0  0  0  0  0
   20.1018   -8.8282  -13.6573 O   0  0  0  0  0  0  0  0  0  0  0  0
   14.5567   -9.9753  -14.7500 O   0  0  0  0  0  0  0  0  0  0  0  0
   19.3015   -7.0489  -14.8519 N   0  0  0  0  0  0  0  0  0  0  0  0
   20.0252   -6.0174  -14.1361 C   0  0  1  0  0  0  0  0  0  0  0  0
   21.5037   -6.2648  -14.3423 C   0  0  0  0  0  0  0  0  0  0  0  0
   22.3482   -5.1869  -13.7999 C   0  0  0  0  0  0  0  0  0  0  0  0
   22.1836   -4.8467  -12.5967 O   0  0  0  0  0  0  0  0  0  0  0  0
   19.6485   -4.6950  -14.7288 C   0  0  0  0  0  0  0  0  0  0  0  0
   19.8570   -3.6429  -14.1211 O   0  0  0  0  0  0  0  0  0  0  0  0
   23.2940   -4.5529  -14.5581 O   0  0  0  0  0  0  0  0  0  0  0  0
   19.0477   -4.6926  -16.0068 O   0  0  0  0  0  0  0  0  0  0  0  0
  1  2  1  0
  2  3  1  0
  3  4  2  0
  5  6  1  0
  5  3  1  0
  6 11  1  0
  6  7  1  1
  8  7  1  0
  9  8  1  0
  9 10  2  0
 11 14  1  0
 11 12  2  0
 13  9  1  0
 14 15  1  0
 15 19  1  0
 15 16  1  6
 16 17  1  0
 17 21  1  0
 17 18  2  0
 19 22  1  0
 20 19  2  0
M  END
$$$$
