KEE.pdb
     RDKit          3D

 28 27  0  0  1  0  0  0  0  0999 V2000
    9.3019  -15.6959   17.8101 N   0  0  0  0  0  0  0  0  0  0  0  0
   10.2630  -14.7320   18.2961 C   0  0  1  0  0  0  0  0  0  0  0  0
    9.6634  -13.8848   19.3243 C   0  0  0  0  0  0  0  0  0  0  0  0
    8.3776  -13.2057   18.9020 C   0  0  0  0  0  0  0  0  0  0  0  0
    7.8724  -12.3284   20.0324 C   0  0  0  0  0  0  0  0  0  0  0  0
    6.5543  -11.6909   19.6598 C   0  0  0  0  0  0  0  0  0  0  0  0
    6.1000  -10.8811   20.7680 N   0  0  0  0  0  0  0  0  0  0  0  0
   11.5118  -15.4132   18.6271 C   0  0  0  0  0  0  0  0  0  0  0  0
   11.4558  -16.6003   19.0344 O   0  0  0  0  0  0  0  0  0  0  0  0
   12.7991  -14.8369   18.5255 N   0  0  0  0  0  0  0  0  0  0  0  0
   13.9773  -15.3141   19.2421 C   0  0  1  0  0  0  0  0  0  0  0  0
   15.1525  -14.6125   18.6719 C   0  0  0  0  0  0  0  0  0  0  0  0
   15.5205  -15.0107   17.2705 C   0  0  0  0  0  0  0  0  0  0  0  0
   16.6692  -14.2142   16.8141 C   0  0  0  0  0  0  0  0  0  0  0  0
   16.6016  -13.5830   15.7317 O   0  0  0  0  0  0  0  0  0  0  0  0
   13.8193  -15.0916   20.7079 C   0  0  0  0  0  0  0  0  0  0  0  0
   13.0097  -14.2205   21.1079 O   0  0  0  0  0  0  0  0  0  0  0  0
   17.8212  -14.1549   17.5713 O   0  0  0  0  0  0  0  0  0  0  0  0
   14.5487  -15.8266   21.6730 N   0  0  0  0  0  0  0  0  0  0  0  0
   14.0672  -16.1664   22.9664 C   0  0  1  0  0  0  0  0  0  0  0  0
   12.6951  -16.7369   22.9712 C   0  0  0  0  0  0  0  0  0  0  0  0
   12.1211  -17.2180   24.2380 C   0  0  0  0  0  0  0  0  0  0  0  0
   10.7727  -17.7837   24.1930 C   0  0  0  0  0  0  0  0  0  0  0  0
    9.7805  -17.0674   23.9276 O   0  0  0  0  0  0  0  0  0  0  0  0
   15.0322  -16.9865   23.7481 C   0  0  0  0  0  0  0  0  0  0  0  0
   14.9932  -17.0404   25.1290 O   0  0  0  0  0  0  0  0  0  0  0  0
   10.5250  -19.1340   24.4414 O   0  0  0  0  0  0  0  0  0  0  0  0
   15.9055  -17.6471   23.1456 O   0  0  0  0  0  0  0  0  0  0  0  0
  2  1  1  1
  2  3  1  0
  4  3  1  0
  5  4  1  0
  6  5  1  0
  7  6  1  0
  8  9  2  0
  8  2  1  0
 10  8  1  0
 11 10  1  0
 11 12  1  6
 13 14  1  0
 13 12  1  0
 14 15  2  0
 16 17  2  0
 16 11  1  0
 18 14  1  0
 19 16  1  0
 20 21  1  6
 20 19  1  0
 22 23  1  0
 22 21  1  0
 23 27  1  0
 24 23  2  0
 25 20  1  0
 26 25  1  0
 28 25  2  0
M  END
$$$$
