KEE.pdb
     RDKit          3D

 28 27  0  0  1  0  0  0  0  0999 V2000
    7.7043  -17.4514   20.5238 N   0  0  0  0  0  0  0  0  0  0  0  0
    8.4248  -16.3928   21.1940 C   0  0  1  0  0  0  0  0  0  0  0  0
    7.5007  -15.5237   21.9188 C   0  0  0  0  0  0  0  0  0  0  0  0
    7.6291  -14.0538   21.5784 C   0  0  0  0  0  0  0  0  0  0  0  0
    7.8265  -13.8952   20.0822 C   0  0  0  0  0  0  0  0  0  0  0  0
    7.9209  -12.4334   19.7123 C   0  0  0  0  0  0  0  0  0  0  0  0
    8.1418  -12.3278   18.2874 N   0  0  0  0  0  0  0  0  0  0  0  0
    9.5428  -16.9619   21.9419 C   0  0  0  0  0  0  0  0  0  0  0  0
    9.3284  -17.9654   22.6667 O   0  0  0  0  0  0  0  0  0  0  0  0
   10.8674  -16.4679   21.9172 N   0  0  0  0  0  0  0  0  0  0  0  0
   11.9941  -17.0884   22.6063 C   0  0  1  0  0  0  0  0  0  0  0  0
   13.2078  -16.3155   22.2485 C   0  0  0  0  0  0  0  0  0  0  0  0
   14.4887  -16.8135   22.8563 C   0  0  0  0  0  0  0  0  0  0  0  0
   15.6140  -15.9944   22.3820 C   0  0  0  0  0  0  0  0  0  0  0  0
   16.4364  -15.5254   23.2056 O   0  0  0  0  0  0  0  0  0  0  0  0
   11.7433  -17.1341   24.0754 C   0  0  0  0  0  0  0  0  0  0  0  0
   11.4661  -16.0698   24.6792 O   0  0  0  0  0  0  0  0  0  0  0  0
   15.7722  -15.7404   21.0350 O   0  0  0  0  0  0  0  0  0  0  0  0
   11.8049  -18.3352   24.8218 N   0  0  0  0  0  0  0  0  0  0  0  0
   11.6787  -18.4181   26.2351 C   0  0  1  0  0  0  0  0  0  0  0  0
   11.0281  -19.6658   26.7127 C   0  0  0  0  0  0  0  0  0  0  0  0
   10.9378  -19.9211   28.1593 C   0  0  0  0  0  0  0  0  0  0  0  0
   10.4089  -21.2181   28.5812 C   0  0  0  0  0  0  0  0  0  0  0  0
    9.4419  -21.7457   27.9859 O   0  0  0  0  0  0  0  0  0  0  0  0
   12.9508  -18.1248   26.9497 C   0  0  0  0  0  0  0  0  0  0  0  0
   14.1838  -18.3332   26.3602 O   0  0  0  0  0  0  0  0  0  0  0  0
   10.9474  -21.9258   29.6562 O   0  0  0  0  0  0  0  0  0  0  0  0
   12.9105  -17.6778   28.1162 O   0  0  0  0  0  0  0  0  0  0  0  0
  2  1  1  1
  2  3  1  0
  4  3  1  0
  5  4  1  0
  6  5  1  0
  7  6  1  0
  8  9  2  0
  8  2  1  0
 10  8  1  0
 11 10  1  0
 11 12  1  1
 13 14  1  0
 13 12  1  0
 14 15  2  0
 16 17  2  0
 16 11  1  0
 18 14  1  0
 19 16  1  0
 20 21  1  6
 20 19  1  0
 22 23  1  0
 22 21  1  0
 23 27  1  0
 24 23  2  0
 25 20  1  0
 26 25  1  0
 28 25  2  0
M  END
$$$$
