KEE.pdb
     RDKit          3D

 28 27  0  0  1  0  0  0  0  0999 V2000
    9.8235  -15.7160   19.2898 N   0  0  0  0  0  0  0  0  0  0  0  0
    9.8909  -17.1517   19.4418 C   0  0  1  0  0  0  0  0  0  0  0  0
    9.3019  -17.8175   18.2822 C   0  0  0  0  0  0  0  0  0  0  0  0
    7.9384  -18.4247   18.5368 C   0  0  0  0  0  0  0  0  0  0  0  0
    7.8591  -19.7885   17.8761 C   0  0  0  0  0  0  0  0  0  0  0  0
    6.4517  -20.3325   17.9510 C   0  0  0  0  0  0  0  0  0  0  0  0
    6.4091  -21.6070   17.2698 N   0  0  0  0  0  0  0  0  0  0  0  0
   11.2460  -17.5382   19.8255 C   0  0  0  0  0  0  0  0  0  0  0  0
   11.3916  -18.5057   20.6137 O   0  0  0  0  0  0  0  0  0  0  0  0
   12.4263  -16.9024   19.3760 N   0  0  0  0  0  0  0  0  0  0  0  0
   13.7779  -17.3788   19.6508 C   0  0  1  0  0  0  0  0  0  0  0  0
   14.5890  -17.1243   18.4359 C   0  0  0  0  0  0  0  0  0  0  0  0
   14.6560  -18.2634   17.4582 C   0  0  0  0  0  0  0  0  0  0  0  0
   15.4830  -17.8789   16.3047 C   0  0  0  0  0  0  0  0  0  0  0  0
   14.9485  -17.7044   15.1829 O   0  0  0  0  0  0  0  0  0  0  0  0
   14.3257  -16.7143   20.8679 C   0  0  0  0  0  0  0  0  0  0  0  0
   14.4860  -15.4700   20.8624 O   0  0  0  0  0  0  0  0  0  0  0  0
   16.8443  -17.7065   16.4496 O   0  0  0  0  0  0  0  0  0  0  0  0
   14.6741  -17.4329   22.0366 N   0  0  0  0  0  0  0  0  0  0  0  0
   15.1214  -16.8405   23.2487 C   0  0  1  0  0  0  0  0  0  0  0  0
   14.5812  -17.4857   24.4734 C   0  0  0  0  0  0  0  0  0  0  0  0
   13.1240  -17.5481   24.6700 C   0  0  0  0  0  0  0  0  0  0  0  0
   12.6329  -18.3045   25.8218 C   0  0  0  0  0  0  0  0  0  0  0  0
   13.3966  -19.0476   26.4795 O   0  0  0  0  0  0  0  0  0  0  0  0
   16.5983  -16.6631   23.2977 C   0  0  0  0  0  0  0  0  0  0  0  0
   17.4295  -17.1930   22.3285 O   0  0  0  0  0  0  0  0  0  0  0  0
   11.3041  -18.2390   26.2417 O   0  0  0  0  0  0  0  0  0  0  0  0
   17.1082  -16.0184   24.2393 O   0  0  0  0  0  0  0  0  0  0  0  0
  2  1  1  6
  2  3  1  0
  4  3  1  0
  5  4  1  0
  6  5  1  0
  7  6  1  0
  8  9  2  0
  8  2  1  0
 10  8  1  0
 11 10  1  0
 11 12  1  6
 13 14  1  0
 13 12  1  0
 14 15  2  0
 16 17  2  0
 16 11  1  0
 18 14  1  0
 19 16  1  0
 20 21  1  1
 20 19  1  0
 22 23  1  0
 22 21  1  0
 23 27  1  0
 24 23  2  0
 25 20  1  0
 26 25  1  0
 28 25  2  0
M  END
$$$$
