KEE.pdb
     RDKit          3D

 28 27  0  0  1  0  0  0  0  0999 V2000
    7.9142  -18.2680   20.0034 N   0  0  0  0  0  0  0  0  0  0  0  0
    9.0441  -17.3827   20.1725 C   0  0  1  0  0  0  0  0  0  0  0  0
    8.5917  -16.0297   20.4876 C   0  0  0  0  0  0  0  0  0  0  0  0
    8.5058  -15.1056   19.2912 C   0  0  0  0  0  0  0  0  0  0  0  0
    8.1292  -13.7103   19.7541 C   0  0  0  0  0  0  0  0  0  0  0  0
    8.2003  -12.7333   18.6040 C   0  0  0  0  0  0  0  0  0  0  0  0
    7.7800  -11.4319   19.0729 N   0  0  0  0  0  0  0  0  0  0  0  0
   10.0140  -17.9972   21.0751 C   0  0  0  0  0  0  0  0  0  0  0  0
    9.6713  -19.0246   21.7117 O   0  0  0  0  0  0  0  0  0  0  0  0
   11.3278  -17.5228   21.2951 N   0  0  0  0  0  0  0  0  0  0  0  0
   12.3256  -18.2024   22.1147 C   0  0  1  0  0  0  0  0  0  0  0  0
   13.6469  -17.9657   21.4847 C   0  0  0  0  0  0  0  0  0  0  0  0
   14.8059  -18.6591   22.1434 C   0  0  0  0  0  0  0  0  0  0  0  0
   16.0431  -18.3682   21.4040 C   0  0  0  0  0  0  0  0  0  0  0  0
   16.7659  -19.3109   20.9997 O   0  0  0  0  0  0  0  0  0  0  0  0
   12.2563  -17.7203   23.5239 C   0  0  0  0  0  0  0  0  0  0  0  0
   13.1632  -16.9686   23.9557 O   0  0  0  0  0  0  0  0  0  0  0  0
   16.4129  -17.0633   21.1500 O   0  0  0  0  0  0  0  0  0  0  0  0
   11.2034  -18.0771   24.4001 N   0  0  0  0  0  0  0  0  0  0  0  0
   11.3052  -19.0430   25.4378 C   0  0  1  0  0  0  0  0  0  0  0  0
   11.0619  -20.4392   24.9914 C   0  0  0  0  0  0  0  0  0  0  0  0
   11.2187  -21.5399   25.9557 C   0  0  0  0  0  0  0  0  0  0  0  0
   10.9583  -22.8968   25.4751 C   0  0  0  0  0  0  0  0  0  0  0  0
   11.4633  -23.3115   24.4069 O   0  0  0  0  0  0  0  0  0  0  0  0
   12.5523  -18.9058   26.2383 C   0  0  0  0  0  0  0  0  0  0  0  0
   13.8031  -19.0833   25.6767 O   0  0  0  0  0  0  0  0  0  0  0  0
   10.1429  -23.7883   26.1728 O   0  0  0  0  0  0  0  0  0  0  0  0
   12.4740  -18.6230   27.4532 O   0  0  0  0  0  0  0  0  0  0  0  0
  2  1  1  1
  2  3  1  0
  4  3  1  0
  5  4  1  0
  6  5  1  0
  7  6  1  0
  8  9  2  0
  8  2  1  0
 10  8  1  0
 11 10  1  0
 11 12  1  6
 13 14  1  0
 13 12  1  0
 14 15  2  0
 16 17  2  0
 16 11  1  0
 18 14  1  0
 19 16  1  0
 20 21  1  6
 20 19  1  0
 22 23  1  0
 22 21  1  0
 23 27  1  0
 24 23  2  0
 25 20  1  0
 26 25  1  0
 28 25  2  0
M  END
$$$$
