KEE.pdb
     RDKit          3D

 28 27  0  0  1  0  0  0  0  0999 V2000
    7.4131  -17.5713   19.9027 N   0  0  0  0  0  0  0  0  0  0  0  0
    8.1117  -16.3233   20.1110 C   0  0  1  0  0  0  0  0  0  0  0  0
    7.3858  -15.4825   21.0603 C   0  0  0  0  0  0  0  0  0  0  0  0
    7.8667  -14.0479   21.1182 C   0  0  0  0  0  0  0  0  0  0  0  0
    7.8157  -13.4395   19.7289 C   0  0  0  0  0  0  0  0  0  0  0  0
    8.2624  -11.9967   19.7657 C   0  0  0  0  0  0  0  0  0  0  0  0
    8.2154  -11.4612   18.4235 N   0  0  0  0  0  0  0  0  0  0  0  0
    9.5198  -16.5935   20.3887 C   0  0  0  0  0  0  0  0  0  0  0  0
    9.8036  -17.4281   21.2838 O   0  0  0  0  0  0  0  0  0  0  0  0
   10.6073  -15.9826   19.7225 N   0  0  0  0  0  0  0  0  0  0  0  0
   12.0116  -16.2595   20.0063 C   0  0  1  0  0  0  0  0  0  0  0  0
   12.8152  -15.5492   18.9825 C   0  0  0  0  0  0  0  0  0  0  0  0
   14.3037  -15.6092   19.1791 C   0  0  0  0  0  0  0  0  0  0  0  0
   14.9742  -14.8232   18.1328 C   0  0  0  0  0  0  0  0  0  0  0  0
   15.5992  -13.7791   18.4393 O   0  0  0  0  0  0  0  0  0  0  0  0
   12.3500  -15.8517   21.4000 C   0  0  0  0  0  0  0  0  0  0  0  0
   12.3769  -14.6308   21.6878 O   0  0  0  0  0  0  0  0  0  0  0  0
   14.9221  -15.2289   16.8150 O   0  0  0  0  0  0  0  0  0  0  0  0
   12.6438  -16.7902   22.4182 N   0  0  0  0  0  0  0  0  0  0  0  0
   12.9943  -16.4533   23.7538 C   0  0  1  0  0  0  0  0  0  0  0  0
   12.3704  -17.3260   24.7820 C   0  0  0  0  0  0  0  0  0  0  0  0
   12.7981  -18.7301   24.8887 C   0  0  0  0  0  0  0  0  0  0  0  0
   12.1423  -19.5575   25.9013 C   0  0  0  0  0  0  0  0  0  0  0  0
   11.2925  -19.0706   26.6815 O   0  0  0  0  0  0  0  0  0  0  0  0
   14.4617  -16.2977   23.9473 C   0  0  0  0  0  0  0  0  0  0  0  0
   14.9880  -15.6578   25.0540 O   0  0  0  0  0  0  0  0  0  0  0  0
   12.4268  -20.9152   26.0494 O   0  0  0  0  0  0  0  0  0  0  0  0
   15.2460  -16.7555   23.0886 O   0  0  0  0  0  0  0  0  0  0  0  0
  2  1  1  1
  2  3  1  0
  4  3  1  0
  5  4  1  0
  6  5  1  0
  7  6  1  0
  8  9  2  0
  8  2  1  0
 10  8  1  0
 11 10  1  0
 11 12  1  6
 13 14  1  0
 13 12  1  0
 14 15  2  0
 16 17  2  0
 16 11  1  0
 18 14  1  0
 19 16  1  0
 20 21  1  1
 20 19  1  0
 22 23  1  0
 22 21  1  0
 23 27  1  0
 24 23  2  0
 25 20  1  0
 26 25  1  0
 28 25  2  0
M  END
$$$$
