KEE.pdb
     RDKit          3D

 28 27  0  0  1  0  0  0  0  0999 V2000
    8.2751  -15.9308   19.0303 N   0  0  0  0  0  0  0  0  0  0  0  0
    8.8338  -15.0506   20.0314 C   0  0  1  0  0  0  0  0  0  0  0  0
    7.9555  -13.9041   20.2527 C   0  0  0  0  0  0  0  0  0  0  0  0
    7.2923  -13.3745   18.9988 C   0  0  0  0  0  0  0  0  0  0  0  0
    8.3261  -13.2410   17.8960 C   0  0  0  0  0  0  0  0  0  0  0  0
    7.7322  -13.6312   16.5628 C   0  0  0  0  0  0  0  0  0  0  0  0
    7.4343  -12.4291   15.8169 N   0  0  0  0  0  0  0  0  0  0  0  0
    9.2314  -15.8314   21.1998 C   0  0  0  0  0  0  0  0  0  0  0  0
    8.6709  -15.5917   22.2983 O   0  0  0  0  0  0  0  0  0  0  0  0
   10.2112  -16.8509   21.1961 N   0  0  0  0  0  0  0  0  0  0  0  0
   10.5066  -17.7176   22.3323 C   0  0  1  0  0  0  0  0  0  0  0  0
   11.3263  -18.8440   21.8243 C   0  0  0  0  0  0  0  0  0  0  0  0
   11.7820  -19.8273   22.8652 C   0  0  0  0  0  0  0  0  0  0  0  0
   12.5508  -20.9055   22.2260 C   0  0  0  0  0  0  0  0  0  0  0  0
   13.0286  -20.7367   21.0781 O   0  0  0  0  0  0  0  0  0  0  0  0
   11.1829  -16.9448   23.4133 C   0  0  0  0  0  0  0  0  0  0  0  0
   11.9846  -16.0322   23.0992 O   0  0  0  0  0  0  0  0  0  0  0  0
   12.7519  -22.1021   22.8830 O   0  0  0  0  0  0  0  0  0  0  0  0
   10.9567  -17.1990   24.7872 N   0  0  0  0  0  0  0  0  0  0  0  0
   11.5331  -16.4573   25.8539 C   0  0  1  0  0  0  0  0  0  0  0  0
   10.5622  -15.6152   26.5998 C   0  0  0  0  0  0  0  0  0  0  0  0
   11.0441  -14.7676   27.7022 C   0  0  0  0  0  0  0  0  0  0  0  0
   10.0413  -14.0306   28.4711 C   0  0  0  0  0  0  0  0  0  0  0  0
    9.7993  -12.8260   28.2295 O   0  0  0  0  0  0  0  0  0  0  0  0
   12.3769  -17.2920   26.7519 C   0  0  0  0  0  0  0  0  0  0  0  0
   13.4904  -16.7796   27.3912 O   0  0  0  0  0  0  0  0  0  0  0  0
    9.3119  -14.6239   29.5018 O   0  0  0  0  0  0  0  0  0  0  0  0
   12.0765  -18.4910   26.9371 O   0  0  0  0  0  0  0  0  0  0  0  0
  2  1  1  6
  2  3  1  0
  4  3  1  0
  5  4  1  0
  6  5  1  0
  7  6  1  0
  8  9  2  0
  8  2  1  0
 10  8  1  0
 11 10  1  0
 11 12  1  6
 13 14  1  0
 13 12  1  0
 14 15  2  0
 16 17  2  0
 16 11  1  0
 18 14  1  0
 19 16  1  0
 20 21  1  1
 20 19  1  0
 22 23  1  0
 22 21  1  0
 23 27  1  0
 24 23  2  0
 25 20  1  0
 26 25  1  0
 28 25  2  0
M  END
$$$$
