KEE.pdb
     RDKit          3D

 28 27  0  0  1  0  0  0  0  0999 V2000
    7.7836  -15.7001   18.4781 N   0  0  0  0  0  0  0  0  0  0  0  0
    8.6772  -14.6906   18.9990 C   0  0  1  0  0  0  0  0  0  0  0  0
    7.9998  -13.3983   19.0771 C   0  0  0  0  0  0  0  0  0  0  0  0
    7.1545  -13.0624   17.8666 C   0  0  0  0  0  0  0  0  0  0  0  0
    7.8707  -13.5132   16.6069 C   0  0  0  0  0  0  0  0  0  0  0  0
    7.1095  -13.0734   15.3784 C   0  0  0  0  0  0  0  0  0  0  0  0
    7.7290  -13.6620   14.2122 N   0  0  0  0  0  0  0  0  0  0  0  0
    9.3218  -15.1887   20.2111 C   0  0  0  0  0  0  0  0  0  0  0  0
   10.1784  -14.4627   20.7746 O   0  0  0  0  0  0  0  0  0  0  0  0
    9.0570  -16.4412   20.8117 N   0  0  0  0  0  0  0  0  0  0  0  0
    9.8157  -17.0007   21.9256 C   0  0  1  0  0  0  0  0  0  0  0  0
    9.1688  -18.2817   22.2984 C   0  0  0  0  0  0  0  0  0  0  0  0
    9.9043  -19.0982   23.3234 C   0  0  0  0  0  0  0  0  0  0  0  0
    9.2131  -20.3803   23.5252 C   0  0  0  0  0  0  0  0  0  0  0  0
    8.3054  -20.4721   24.3867 O   0  0  0  0  0  0  0  0  0  0  0  0
   11.2499  -17.1587   21.5500 C   0  0  0  0  0  0  0  0  0  0  0  0
   11.5374  -17.7318   20.4715 O   0  0  0  0  0  0  0  0  0  0  0  0
    9.5556  -21.4832   22.7701 O   0  0  0  0  0  0  0  0  0  0  0  0
   12.3071  -16.6861   22.3640 N   0  0  0  0  0  0  0  0  0  0  0  0
   13.6137  -16.3780   21.8969 C   0  0  1  0  0  0  0  0  0  0  0  0
   13.6368  -15.6194   20.6195 C   0  0  0  0  0  0  0  0  0  0  0  0
   14.9279  -15.1745   20.0708 C   0  0  0  0  0  0  0  0  0  0  0  0
   14.9102  -14.5008   18.7724 C   0  0  0  0  0  0  0  0  0  0  0  0
   15.9727  -14.2622   18.1543 O   0  0  0  0  0  0  0  0  0  0  0  0
   14.4748  -15.7643   22.9442 C   0  0  0  0  0  0  0  0  0  0  0  0
   13.9770  -15.4145   24.1856 O   0  0  0  0  0  0  0  0  0  0  0  0
   13.7232  -14.0933   18.1631 O   0  0  0  0  0  0  0  0  0  0  0  0
   15.6829  -15.5558   22.7009 O   0  0  0  0  0  0  0  0  0  0  0  0
  2  1  1  1
  2  3  1  0
  4  3  1  0
  5  4  1  0
  6  5  1  0
  7  6  1  0
  8  9  2  0
  8  2  1  0
 10  8  1  0
 11 10  1  0
 11 12  1  6
 13 14  1  0
 13 12  1  0
 14 15  2  0
 16 17  2  0
 16 11  1  0
 18 14  1  0
 19 16  1  0
 20 21  1  6
 20 19  1  0
 22 23  1  0
 22 21  1  0
 23 27  1  0
 24 23  2  0
 25 20  1  0
 26 25  1  0
 28 25  2  0
M  END
$$$$
