KEE.pdb
     RDKit          3D

 28 27  0  0  1  0  0  0  0  0999 V2000
   11.2427  -16.5900   16.4501 N   0  0  0  0  0  0  0  0  0  0  0  0
   11.6936  -17.7979   17.1034 C   0  0  1  0  0  0  0  0  0  0  0  0
   12.6079  -18.5380   16.2367 C   0  0  0  0  0  0  0  0  0  0  0  0
   11.9609  -19.1168   14.9961 C   0  0  0  0  0  0  0  0  0  0  0  0
   13.0022  -19.8620   14.1818 C   0  0  0  0  0  0  0  0  0  0  0  0
   12.3887  -20.4168   12.9176 C   0  0  0  0  0  0  0  0  0  0  0  0
   12.1950  -19.3330   11.9805 N   0  0  0  0  0  0  0  0  0  0  0  0
   12.1522  -17.4799   18.4530 C   0  0  0  0  0  0  0  0  0  0  0  0
   12.9381  -16.5116   18.6051 O   0  0  0  0  0  0  0  0  0  0  0  0
   11.7788  -18.1840   19.6210 N   0  0  0  0  0  0  0  0  0  0  0  0
   12.2760  -17.8862   20.9603 C   0  0  1  0  0  0  0  0  0  0  0  0
   11.4227  -18.6267   21.9205 C   0  0  0  0  0  0  0  0  0  0  0  0
   11.8037  -18.4768   23.3663 C   0  0  0  0  0  0  0  0  0  0  0  0
   10.8511  -19.2145   24.2093 C   0  0  0  0  0  0  0  0  0  0  0  0
   11.1547  -19.4998   25.3929 O   0  0  0  0  0  0  0  0  0  0  0  0
   13.7201  -18.2406   21.0690 C   0  0  0  0  0  0  0  0  0  0  0  0
   14.2105  -19.0556   20.2508 O   0  0  0  0  0  0  0  0  0  0  0  0
    9.6233  -19.5931   23.7063 O   0  0  0  0  0  0  0  0  0  0  0  0
   14.5663  -17.6926   22.0627 N   0  0  0  0  0  0  0  0  0  0  0  0
   15.9451  -17.3992   21.8809 C   0  0  1  0  0  0  0  0  0  0  0  0
   16.2495  -16.6796   20.6169 C   0  0  0  0  0  0  0  0  0  0  0  0
   16.9976  -17.3739   19.5567 C   0  0  0  0  0  0  0  0  0  0  0  0
   17.3212  -16.6101   18.3517 C   0  0  0  0  0  0  0  0  0  0  0  0
   17.1822  -17.1114   17.2127 O   0  0  0  0  0  0  0  0  0  0  0  0
   16.5633  -16.7544   23.0712 C   0  0  0  0  0  0  0  0  0  0  0  0
   15.8045  -16.3176   24.1411 O   0  0  0  0  0  0  0  0  0  0  0  0
   17.7964  -15.2996   18.4082 O   0  0  0  0  0  0  0  0  0  0  0  0
   17.8029  -16.5997   23.1110 O   0  0  0  0  0  0  0  0  0  0  0  0
  2  1  1  6
  2  3  1  0
  4  3  1  0
  5  4  1  0
  6  5  1  0
  7  6  1  0
  8  9  2  0
  8  2  1  0
 10  8  1  0
 11 10  1  0
 11 12  1  1
 13 14  1  0
 13 12  1  0
 14 15  2  0
 16 17  2  0
 16 11  1  0
 18 14  1  0
 19 16  1  0
 20 21  1  6
 20 19  1  0
 22 23  1  0
 22 21  1  0
 23 27  1  0
 24 23  2  0
 25 20  1  0
 26 25  1  0
 28 25  2  0
M  END
$$$$
