KEE.pdb
     RDKit          3D

 28 27  0  0  1  0  0  0  0  0999 V2000
    7.8005  -17.3398   18.6574 N   0  0  0  0  0  0  0  0  0  0  0  0
    8.9785  -16.5027   18.6803 C   0  0  1  0  0  0  0  0  0  0  0  0
    8.6695  -15.2000   19.2651 C   0  0  0  0  0  0  0  0  0  0  0  0
    7.5897  -14.4286   18.5359 C   0  0  0  0  0  0  0  0  0  0  0  0
    7.2844  -13.1476   19.2901 C   0  0  0  0  0  0  0  0  0  0  0  0
    6.1344  -12.4127   18.6422 C   0  0  0  0  0  0  0  0  0  0  0  0
    5.7517  -11.3072   19.4918 N   0  0  0  0  0  0  0  0  0  0  0  0
   10.0965  -17.2500   19.2501 C   0  0  0  0  0  0  0  0  0  0  0  0
    9.8575  -18.0823   20.1604 O   0  0  0  0  0  0  0  0  0  0  0  0
   11.4472  -17.1111   18.8554 N   0  0  0  0  0  0  0  0  0  0  0  0
   12.5706  -17.7802   19.5031 C   0  0  1  0  0  0  0  0  0  0  0  0
   13.7377  -17.6560   18.5970 C   0  0  0  0  0  0  0  0  0  0  0  0
   13.7227  -18.5667   17.4019 C   0  0  0  0  0  0  0  0  0  0  0  0
   14.9420  -18.3609   16.6062 C   0  0  0  0  0  0  0  0  0  0  0  0
   14.9136  -17.6087   15.6022 O   0  0  0  0  0  0  0  0  0  0  0  0
   12.8150  -17.1961   20.8530 C   0  0  0  0  0  0  0  0  0  0  0  0
   12.9486  -15.9535   20.9638 O   0  0  0  0  0  0  0  0  0  0  0  0
   16.1189  -18.9890   16.9591 O   0  0  0  0  0  0  0  0  0  0  0  0
   12.9030  -17.9897   22.0218 N   0  0  0  0  0  0  0  0  0  0  0  0
   13.0990  -17.4801   23.3341 C   0  0  1  0  0  0  0  0  0  0  0  0
   12.4944  -18.3149   24.4044 C   0  0  0  0  0  0  0  0  0  0  0  0
   12.6921  -17.9331   25.8119 C   0  0  0  0  0  0  0  0  0  0  0  0
   12.0463  -18.7614   26.8302 C   0  0  0  0  0  0  0  0  0  0  0  0
   11.3760  -19.7701   26.5121 O   0  0  0  0  0  0  0  0  0  0  0  0
   14.5176  -17.1276   23.6140 C   0  0  0  0  0  0  0  0  0  0  0  0
   14.8639  -16.2254   24.6027 O   0  0  0  0  0  0  0  0  0  0  0  0
   12.1416  -18.4736   28.1920 O   0  0  0  0  0  0  0  0  0  0  0  0
   15.4265  -17.6579   22.9396 O   0  0  0  0  0  0  0  0  0  0  0  0
  2  1  1  1
  2  3  1  0
  4  3  1  0
  5  4  1  0
  6  5  1  0
  7  6  1  0
  8  9  2  0
  8  2  1  0
 10  8  1  0
 11 10  1  0
 11 12  1  6
 13 14  1  0
 13 12  1  0
 14 15  2  0
 16 17  2  0
 16 11  1  0
 18 14  1  0
 19 16  1  0
 20 21  1  1
 20 19  1  0
 22 23  1  0
 22 21  1  0
 23 27  1  0
 24 23  2  0
 25 20  1  0
 26 25  1  0
 28 25  2  0
M  END
$$$$
