KEE.pdb
     RDKit          3D

 28 27  0  0  1  0  0  0  0  0999 V2000
    8.1154  -17.4665   19.0861 N   0  0  0  0  0  0  0  0  0  0  0  0
    9.1348  -16.4653   19.3036 C   0  0  1  0  0  0  0  0  0  0  0  0
    8.6051  -15.3593   20.0979 C   0  0  0  0  0  0  0  0  0  0  0  0
    8.7333  -15.5483   21.5947 C   0  0  0  0  0  0  0  0  0  0  0  0
    8.1806  -14.3288   22.3091 C   0  0  0  0  0  0  0  0  0  0  0  0
    8.3748  -14.4559   23.8019 C   0  0  0  0  0  0  0  0  0  0  0  0
    7.7904  -13.3013   24.4466 N   0  0  0  0  0  0  0  0  0  0  0  0
   10.3579  -17.1094   19.7751 C   0  0  0  0  0  0  0  0  0  0  0  0
   10.2558  -18.0821   20.5635 O   0  0  0  0  0  0  0  0  0  0  0  0
   11.6682  -16.7214   19.4117 N   0  0  0  0  0  0  0  0  0  0  0  0
   12.8837  -17.3907   19.8633 C   0  0  1  0  0  0  0  0  0  0  0  0
   13.8943  -17.2381   18.7891 C   0  0  0  0  0  0  0  0  0  0  0  0
   15.2068  -17.9256   19.0398 C   0  0  0  0  0  0  0  0  0  0  0  0
   16.1117  -17.6963   17.9037 C   0  0  0  0  0  0  0  0  0  0  0  0
   15.9928  -18.3846   16.8612 O   0  0  0  0  0  0  0  0  0  0  0  0
   13.3313  -16.8289   21.1699 C   0  0  0  0  0  0  0  0  0  0  0  0
   13.2333  -15.5937   21.3672 O   0  0  0  0  0  0  0  0  0  0  0  0
   17.0901  -16.7261   17.9766 O   0  0  0  0  0  0  0  0  0  0  0  0
   13.8651  -17.6356   22.2032 N   0  0  0  0  0  0  0  0  0  0  0  0
   14.2025  -17.1692   23.5027 C   0  0  1  0  0  0  0  0  0  0  0  0
   13.6098  -17.9690   24.6060 C   0  0  0  0  0  0  0  0  0  0  0  0
   12.3589  -17.5128   25.2328 C   0  0  0  0  0  0  0  0  0  0  0  0
   11.8041  -18.3389   26.3050 C   0  0  0  0  0  0  0  0  0  0  0  0
   12.3085  -19.4485   26.5920 O   0  0  0  0  0  0  0  0  0  0  0  0
   15.6633  -16.9448   23.6777 C   0  0  0  0  0  0  0  0  0  0  0  0
   16.5980  -17.5518   22.8598 O   0  0  0  0  0  0  0  0  0  0  0  0
   10.6971  -17.9390   27.0539 O   0  0  0  0  0  0  0  0  0  0  0  0
   16.0633  -16.1878   24.5883 O   0  0  0  0  0  0  0  0  0  0  0  0
  2  1  1  1
  2  3  1  0
  4  3  1  0
  5  4  1  0
  6  5  1  0
  7  6  1  0
  8  9  2  0
  8  2  1  0
 10  8  1  0
 11 10  1  0
 11 12  1  6
 13 14  1  0
 13 12  1  0
 14 15  2  0
 16 17  2  0
 16 11  1  0
 18 14  1  0
 19 16  1  0
 20 21  1  1
 20 19  1  0
 22 23  1  0
 22 21  1  0
 23 27  1  0
 24 23  2  0
 25 20  1  0
 26 25  1  0
 28 25  2  0
M  END
$$$$
