KEE.pdb
     RDKit          3D

 28 27  0  0  1  0  0  0  0  0999 V2000
    8.9430  -15.7273   17.6634 N   0  0  0  0  0  0  0  0  0  0  0  0
    9.8369  -14.7745   18.2815 C   0  0  1  0  0  0  0  0  0  0  0  0
    9.2295  -14.2077   19.4834 C   0  0  0  0  0  0  0  0  0  0  0  0
    8.1687  -13.1616   19.2129 C   0  0  0  0  0  0  0  0  0  0  0  0
    7.6333  -12.6300   20.5295 C   0  0  0  0  0  0  0  0  0  0  0  0
    6.5381  -11.6182   20.2863 C   0  0  0  0  0  0  0  0  0  0  0  0
    6.0687  -11.1256   21.5619 N   0  0  0  0  0  0  0  0  0  0  0  0
   11.1656  -15.3665   18.4120 C   0  0  0  0  0  0  0  0  0  0  0  0
   11.2519  -16.6021   18.6218 O   0  0  0  0  0  0  0  0  0  0  0  0
   12.3821  -14.6515   18.3208 N   0  0  0  0  0  0  0  0  0  0  0  0
   13.6776  -15.1656   18.7532 C   0  0  1  0  0  0  0  0  0  0  0  0
   14.7154  -14.4677   17.9566 C   0  0  0  0  0  0  0  0  0  0  0  0
   16.1340  -14.8412   18.2823 C   0  0  0  0  0  0  0  0  0  0  0  0
   17.0497  -14.1776   17.3425 C   0  0  0  0  0  0  0  0  0  0  0  0
   18.0475  -13.5534   17.7776 O   0  0  0  0  0  0  0  0  0  0  0  0
   13.8463  -14.9790   20.2228 C   0  0  0  0  0  0  0  0  0  0  0  0
   13.4067  -13.9330   20.7583 O   0  0  0  0  0  0  0  0  0  0  0  0
   16.8191  -14.2395   15.9835 O   0  0  0  0  0  0  0  0  0  0  0  0
   14.4852  -15.9386   21.0441 N   0  0  0  0  0  0  0  0  0  0  0  0
   14.3853  -15.9874   22.4611 C   0  0  1  0  0  0  0  0  0  0  0  0
   12.9895  -16.0396   22.9682 C   0  0  0  0  0  0  0  0  0  0  0  0
   12.1607  -17.2192   22.6722 C   0  0  0  0  0  0  0  0  0  0  0  0
   10.8370  -17.2833   23.2916 C   0  0  0  0  0  0  0  0  0  0  0  0
   10.0744  -18.2550   23.0864 O   0  0  0  0  0  0  0  0  0  0  0  0
   15.2557  -17.0304   23.0689 C   0  0  0  0  0  0  0  0  0  0  0  0
   15.4825  -17.0883   24.4314 O   0  0  0  0  0  0  0  0  0  0  0  0
   10.3607  -16.2768   24.1322 O   0  0  0  0  0  0  0  0  0  0  0  0
   15.8009  -17.8805   22.3325 O   0  0  0  0  0  0  0  0  0  0  0  0
  2  1  1  1
  2  3  1  0
  4  3  1  0
  5  4  1  0
  6  5  1  0
  7  6  1  0
  8  9  2  0
  8  2  1  0
 10  8  1  0
 11 10  1  0
 11 12  1  6
 13 14  1  0
 13 12  1  0
 14 15  2  0
 16 17  2  0
 16 11  1  0
 18 14  1  0
 19 16  1  0
 20 21  1  6
 20 19  1  0
 22 23  1  0
 22 21  1  0
 23 27  1  0
 24 23  2  0
 25 20  1  0
 26 25  1  0
 28 25  2  0
M  END
$$$$
