KEE.pdb
     RDKit          3D

 28 27  0  0  1  0  0  0  0  0999 V2000
    8.1418  -15.4215   18.6202 N   0  0  0  0  0  0  0  0  0  0  0  0
    9.1005  -14.4141   19.0136 C   0  0  1  0  0  0  0  0  0  0  0  0
    8.5636  -13.0761   18.7767 C   0  0  0  0  0  0  0  0  0  0  0  0
    7.5063  -13.0103   17.6948 C   0  0  0  0  0  0  0  0  0  0  0  0
    8.0812  -13.5330   16.3913 C   0  0  0  0  0  0  0  0  0  0  0  0
    7.0441  -13.4763   15.2943 C   0  0  0  0  0  0  0  0  0  0  0  0
    7.6126  -14.0343   14.0878 N   0  0  0  0  0  0  0  0  0  0  0  0
    9.5999  -14.7132   20.3531 C   0  0  0  0  0  0  0  0  0  0  0  0
   10.4403  -13.9330   20.8662 O   0  0  0  0  0  0  0  0  0  0  0  0
    9.2092  -15.8269   21.1320 N   0  0  0  0  0  0  0  0  0  0  0  0
    9.8447  -16.2236   22.3842 C   0  0  1  0  0  0  0  0  0  0  0  0
    8.9463  -17.2026   23.0421 C   0  0  0  0  0  0  0  0  0  0  0  0
    8.3592  -18.2464   22.1344 C   0  0  0  0  0  0  0  0  0  0  0  0
    7.5844  -19.2132   22.9263 C   0  0  0  0  0  0  0  0  0  0  0  0
    7.5415  -19.1060   24.1758 O   0  0  0  0  0  0  0  0  0  0  0  0
   11.2092  -16.7660   22.1253 C   0  0  0  0  0  0  0  0  0  0  0  0
   11.3529  -17.6677   21.2649 O   0  0  0  0  0  0  0  0  0  0  0  0
    6.9017  -20.2372   22.3024 O   0  0  0  0  0  0  0  0  0  0  0  0
   12.3563  -16.3030   22.8135 N   0  0  0  0  0  0  0  0  0  0  0  0
   13.6846  -16.7404   22.5600 C   0  0  1  0  0  0  0  0  0  0  0  0
   14.2066  -16.3492   21.2249 C   0  0  0  0  0  0  0  0  0  0  0  0
   14.2337  -14.9256   20.8526 C   0  0  0  0  0  0  0  0  0  0  0  0
   14.8542  -14.5768   19.5746 C   0  0  0  0  0  0  0  0  0  0  0  0
   14.8122  -13.4052   19.1349 O   0  0  0  0  0  0  0  0  0  0  0  0
   14.6259  -16.4080   23.6638 C   0  0  0  0  0  0  0  0  0  0  0  0
   14.2195  -15.7045   24.7824 O   0  0  0  0  0  0  0  0  0  0  0  0
   15.5162  -15.5202   18.7882 O   0  0  0  0  0  0  0  0  0  0  0  0
   15.8191  -16.7713   23.5835 O   0  0  0  0  0  0  0  0  0  0  0  0
  2  1  1  1
  2  3  1  0
  4  3  1  0
  5  4  1  0
  6  5  1  0
  7  6  1  0
  8  9  2  0
  8  2  1  0
 10  8  1  0
 11 10  1  0
 11 12  1  6
 13 14  1  0
 13 12  1  0
 14 15  2  0
 16 17  2  0
 16 11  1  0
 18 14  1  0
 19 16  1  0
 20 21  1  6
 20 19  1  0
 22 23  1  0
 22 21  1  0
 23 27  1  0
 24 23  2  0
 25 20  1  0
 26 25  1  0
 28 25  2  0
M  END
$$$$
