KEE.pdb
     RDKit          3D

 28 27  0  0  1  0  0  0  0  0999 V2000
    6.4179  -17.6602   26.3034 N   0  0  0  0  0  0  0  0  0  0  0  0
    6.1648  -16.9723   25.0577 C   0  0  1  0  0  0  0  0  0  0  0  0
    5.6074  -15.6455   25.3096 C   0  0  0  0  0  0  0  0  0  0  0  0
    6.5917  -14.6561   25.8972 C   0  0  0  0  0  0  0  0  0  0  0  0
    5.8938  -13.3311   26.1422 C   0  0  0  0  0  0  0  0  0  0  0  0
    6.8593  -12.3224   26.7189 C   0  0  0  0  0  0  0  0  0  0  0  0
    6.1412  -11.0995   27.0000 N   0  0  0  0  0  0  0  0  0  0  0  0
    7.3478  -17.0564   24.2054 C   0  0  0  0  0  0  0  0  0  0  0  0
    8.1691  -17.9845   24.4120 O   0  0  0  0  0  0  0  0  0  0  0  0
    7.6497  -16.1646   23.1505 N   0  0  0  0  0  0  0  0  0  0  0  0
    8.7786  -16.3154   22.2381 C   0  0  1  0  0  0  0  0  0  0  0  0
    8.5307  -15.4221   21.0809 C   0  0  0  0  0  0  0  0  0  0  0  0
    9.6064  -15.4167   20.0317 C   0  0  0  0  0  0  0  0  0  0  0  0
    9.5841  -16.6874   19.2921 C   0  0  0  0  0  0  0  0  0  0  0  0
    8.7638  -16.8519   18.3569 O   0  0  0  0  0  0  0  0  0  0  0  0
   10.0588  -16.0171   22.9419 C   0  0  0  0  0  0  0  0  0  0  0  0
   10.3670  -14.8214   23.1646 O   0  0  0  0  0  0  0  0  0  0  0  0
   10.4625  -17.6999   19.6194 O   0  0  0  0  0  0  0  0  0  0  0  0
   10.9461  -17.0325   23.3722 N   0  0  0  0  0  0  0  0  0  0  0  0
   12.1834  -16.8010   24.0321 C   0  0  1  0  0  0  0  0  0  0  0  0
   12.4209  -17.6863   25.2016 C   0  0  0  0  0  0  0  0  0  0  0  0
   11.4509  -17.6910   26.3084 C   0  0  0  0  0  0  0  0  0  0  0  0
   11.7262  -18.5766   27.4398 C   0  0  0  0  0  0  0  0  0  0  0  0
   12.8945  -18.9409   27.7053 O   0  0  0  0  0  0  0  0  0  0  0  0
   13.3412  -16.7619   23.0978 C   0  0  0  0  0  0  0  0  0  0  0  0
   13.2078  -17.0716   21.7571 O   0  0  0  0  0  0  0  0  0  0  0  0
   10.7138  -19.0565   28.2710 O   0  0  0  0  0  0  0  0  0  0  0  0
   14.4690  -16.4414   23.5310 O   0  0  0  0  0  0  0  0  0  0  0  0
  2  1  1  1
  2  3  1  0
  4  3  1  0
  5  4  1  0
  6  5  1  0
  7  6  1  0
  8  9  2  0
  8  2  1  0
 10  8  1  0
 11 10  1  0
 11 12  1  6
 13 14  1  0
 13 12  1  0
 14 15  2  0
 16 17  2  0
 16 11  1  0
 18 14  1  0
 19 16  1  0
 20 21  1  1
 20 19  1  0
 22 23  1  0
 22 21  1  0
 23 27  1  0
 24 23  2  0
 25 20  1  0
 26 25  1  0
 28 25  2  0
M  END
$$$$
