AMT.pdb
     RDKit          3D

 21 20  0  0  1  0  0  0  0  0999 V2000
    7.0324  -17.7872   20.6477 C   0  0  0  0  0  0  0  0  0  0  0  0
    7.4391  -16.3317   20.5780 C   0  0  2  0  0  0  0  0  0  0  0  0
    8.3577  -16.2016   19.4740 N   0  0  0  0  0  0  0  0  0  0  0  0
    8.1178  -15.8964   21.8397 C   0  0  0  0  0  0  0  0  0  0  0  0
    9.3436  -16.0091   21.9545 O   0  0  0  0  0  0  0  0  0  0  0  0
    6.4042  -10.9407   26.4916 C   0  0  0  0  0  0  0  0  0  0  0  0
    6.8009  -12.4731   27.2981 S   0  0  0  0  0  0  0  0  0  0  0  0
    7.6925  -13.6775   26.3475 C   0  0  0  0  0  0  0  0  0  0  0  0
    7.1534  -13.9962   24.9839 C   0  0  0  0  0  0  0  0  0  0  0  0
    7.8767  -14.9718   24.1865 C   0  0  2  0  0  0  0  0  0  0  0  0
    7.3902  -15.3574   22.9078 N   0  0  0  0  0  0  0  0  0  0  0  0
    8.0167  -16.2151   25.0640 C   0  0  0  0  0  0  0  0  0  0  0  0
    6.9836  -16.8682   25.3249 O   0  0  0  0  0  0  0  0  0  0  0  0
    9.6668  -19.3239   24.2486 C   0  0  0  0  0  0  0  0  0  0  0  0
   10.3126  -18.8574   25.5283 C   0  0  1  0  0  0  0  0  0  0  0  0
   11.5161  -18.2510   25.1802 O   0  0  0  0  0  0  0  0  0  0  0  0
    9.4679  -17.8748   26.2872 C   0  0  2  0  0  0  0  0  0  0  0  0
    9.2549  -16.6412   25.5804 N   0  0  0  0  0  0  0  0  0  0  0  0
   10.1497  -17.5796   27.5787 C   0  0  0  0  0  0  0  0  0  0  0  0
   10.6462  -16.4373   27.7917 O   0  0  0  0  0  0  0  0  0  0  0  0
   10.2788  -18.5110   28.5976 O   0  0  0  0  0  0  0  0  0  0  0  0
  2  1  1  1
  3  2  1  0
  4  2  1  0
  4 11  1  0
  5  4  2  0
  7  6  1  0
  8  7  1  0
 10  9  1  1
  9  8  1  0
 10 11  1  0
 10 12  1  0
 12 18  1  0
 12 13  2  0
 15 17  1  0
 15 14  1  6
 16 15  1  0
 17 19  1  0
 17 18  1  6
 19 21  1  0
 20 19  2  0
M  END
$$$$
