AMT.pdb
     RDKit          3D

 21 20  0  0  1  0  0  0  0  0999 V2000
    7.9741  -12.6022   19.3385 C   0  0  0  0  0  0  0  0  0  0  0  0
    8.0534  -14.0183   19.8648 C   0  0  2  0  0  0  0  0  0  0  0  0
    6.7314  -14.5842   19.7567 N   0  0  0  0  0  0  0  0  0  0  0  0
    8.4853  -14.0416   21.2983 C   0  0  0  0  0  0  0  0  0  0  0  0
    9.6794  -13.9045   21.5879 O   0  0  0  0  0  0  0  0  0  0  0  0
    5.9386  -11.0085   26.9874 C   0  0  0  0  0  0  0  0  0  0  0  0
    7.3402  -12.0934   26.8663 S   0  0  0  0  0  0  0  0  0  0  0  0
    7.0734  -13.6737   26.1042 C   0  0  0  0  0  0  0  0  0  0  0  0
    6.7675  -13.6726   24.6350 C   0  0  0  0  0  0  0  0  0  0  0  0
    7.7972  -14.1610   23.7340 C   0  0  2  0  0  0  0  0  0  0  0  0
    7.5592  -14.2170   22.3338 N   0  0  0  0  0  0  0  0  0  0  0  0
    8.1695  -15.5563   24.2340 C   0  0  0  0  0  0  0  0  0  0  0  0
    7.2514  -16.3917   24.3795 O   0  0  0  0  0  0  0  0  0  0  0  0
   10.3951  -18.1789   22.6700 C   0  0  0  0  0  0  0  0  0  0  0  0
   10.9369  -17.8510   24.0380 C   0  0  1  0  0  0  0  0  0  0  0  0
   11.9811  -16.9487   23.8574 O   0  0  0  0  0  0  0  0  0  0  0  0
    9.9084  -17.2382   24.9446 C   0  0  2  0  0  0  0  0  0  0  0  0
    9.4951  -15.9246   24.5317 N   0  0  0  0  0  0  0  0  0  0  0  0
   10.4906  -17.1531   26.3134 C   0  0  0  0  0  0  0  0  0  0  0  0
   10.7717  -16.0295   26.8186 O   0  0  0  0  0  0  0  0  0  0  0  0
   10.7528  -18.2673   27.0958 O   0  0  0  0  0  0  0  0  0  0  0  0
  2  1  1  1
  3  2  1  0
  4  2  1  0
  4 11  1  0
  5  4  2  0
  7  6  1  0
  8  7  1  0
 10  9  1  1
  9  8  1  0
 10 11  1  0
 10 12  1  0
 12 18  1  0
 12 13  2  0
 15 17  1  0
 15 14  1  6
 16 15  1  0
 17 19  1  0
 17 18  1  6
 19 21  1  0
 20 19  2  0
M  END
$$$$
