AMT.pdb
     RDKit          3D

 21 20  0  0  1  0  0  0  0  0999 V2000
    8.2443  -14.1073   19.1919 C   0  0  0  0  0  0  0  0  0  0  0  0
    8.3965  -15.2921   20.1202 C   0  0  2  0  0  0  0  0  0  0  0  0
    7.1349  -15.9907   20.1245 N   0  0  0  0  0  0  0  0  0  0  0  0
    8.7226  -14.8519   21.5136 C   0  0  0  0  0  0  0  0  0  0  0  0
    9.8576  -14.4439   21.7849 O   0  0  0  0  0  0  0  0  0  0  0  0
    6.8458  -10.7670   27.0998 C   0  0  0  0  0  0  0  0  0  0  0  0
    6.1452  -12.3835   26.8718 S   0  0  0  0  0  0  0  0  0  0  0  0
    7.1748  -13.6077   26.1034 C   0  0  0  0  0  0  0  0  0  0  0  0
    6.9079  -13.9037   24.6566 C   0  0  0  0  0  0  0  0  0  0  0  0
    7.9426  -14.5999   23.9113 C   0  0  2  0  0  0  0  0  0  0  0  0
    7.7619  -14.8909   22.5318 N   0  0  0  0  0  0  0  0  0  0  0  0
    8.2045  -15.9022   24.6669 C   0  0  0  0  0  0  0  0  0  0  0  0
    7.2331  -16.6558   24.8910 O   0  0  0  0  0  0  0  0  0  0  0  0
   10.2606  -18.6244   23.4016 C   0  0  0  0  0  0  0  0  0  0  0  0
   10.8034  -18.3199   24.7745 C   0  0  1  0  0  0  0  0  0  0  0  0
   11.9480  -17.5479   24.5983 O   0  0  0  0  0  0  0  0  0  0  0  0
    9.8304  -17.5676   25.6362 C   0  0  2  0  0  0  0  0  0  0  0  0
    9.4871  -16.2737   25.1121 N   0  0  0  0  0  0  0  0  0  0  0  0
   10.4429  -17.3957   26.9835 C   0  0  0  0  0  0  0  0  0  0  0  0
   10.6681  -18.4011   27.7151 O   0  0  0  0  0  0  0  0  0  0  0  0
   10.7940  -16.1596   27.5041 O   0  0  0  0  0  0  0  0  0  0  0  0
  2  1  1  6
  3  2  1  0
  4  2  1  0
  4 11  1  0
  5  4  2  0
  7  6  1  0
  8  7  1  0
 10  9  1  1
  9  8  1  0
 10 11  1  0
 10 12  1  0
 12 18  1  0
 12 13  2  0
 15 17  1  0
 15 14  1  6
 16 15  1  0
 17 19  1  0
 17 18  1  6
 19 21  1  0
 20 19  2  0
M  END
$$$$
