AMT.pdb
     RDKit          3D

 21 20  0  0  1  0  0  0  0  0999 V2000
    7.4660  -12.7029   19.6843 C   0  0  0  0  0  0  0  0  0  0  0  0
    7.7326  -14.1184   20.1470 C   0  0  2  0  0  0  0  0  0  0  0  0
    6.4606  -14.7968   20.1872 N   0  0  0  0  0  0  0  0  0  0  0  0
    8.3461  -14.1370   21.5127 C   0  0  0  0  0  0  0  0  0  0  0  0
    9.5440  -13.8678   21.6575 O   0  0  0  0  0  0  0  0  0  0  0  0
    7.4176  -11.6580   27.7291 C   0  0  0  0  0  0  0  0  0  0  0  0
    6.0963  -12.0482   26.6075 S   0  0  0  0  0  0  0  0  0  0  0  0
    6.5477  -12.7608   25.0462 C   0  0  0  0  0  0  0  0  0  0  0  0
    7.1303  -14.1434   25.0775 C   0  0  0  0  0  0  0  0  0  0  0  0
    8.0253  -14.5200   23.9968 C   0  0  2  0  0  0  0  0  0  0  0  0
    7.5878  -14.4556   22.6459 N   0  0  0  0  0  0  0  0  0  0  0  0
    8.4857  -15.9441   24.3058 C   0  0  0  0  0  0  0  0  0  0  0  0
    7.6108  -16.8246   24.4523 O   0  0  0  0  0  0  0  0  0  0  0  0
   10.5573  -18.1659   22.1437 C   0  0  0  0  0  0  0  0  0  0  0  0
   11.2548  -18.0610   23.4760 C   0  0  1  0  0  0  0  0  0  0  0  0
   12.2696  -17.1195   23.3319 O   0  0  0  0  0  0  0  0  0  0  0  0
   10.3385  -17.6311   24.5854 C   0  0  2  0  0  0  0  0  0  0  0  0
    9.8445  -16.2901   24.4290 N   0  0  0  0  0  0  0  0  0  0  0  0
   11.0913  -17.7217   25.8680 C   0  0  0  0  0  0  0  0  0  0  0  0
   11.3498  -16.6777   26.5313 O   0  0  0  0  0  0  0  0  0  0  0  0
   11.5421  -18.9205   26.3989 O   0  0  0  0  0  0  0  0  0  0  0  0
  2  1  1  1
  3  2  1  0
  4  2  1  0
  4 11  1  0
  5  4  2  0
  7  6  1  0
  8  7  1  0
 10  9  1  1
  9  8  1  0
 10 11  1  0
 10 12  1  0
 12 18  1  0
 12 13  2  0
 15 17  1  0
 15 14  1  6
 16 15  1  0
 17 19  1  0
 17 18  1  6
 19 21  1  0
 20 19  2  0
M  END
$$$$
