AMT.pdb
     RDKit          3D

 21 20  0  0  1  0  0  0  0  0999 V2000
    5.9764  -19.2895   21.8393 C   0  0  0  0  0  0  0  0  0  0  0  0
    6.1957  -17.8416   21.4596 C   0  0  2  0  0  0  0  0  0  0  0  0
    6.7889  -17.8342   20.1452 N   0  0  0  0  0  0  0  0  0  0  0  0
    7.1190  -17.1615   22.4224 C   0  0  0  0  0  0  0  0  0  0  0  0
    8.3424  -17.2218   22.2554 O   0  0  0  0  0  0  0  0  0  0  0  0
    6.4231  -11.2338   26.3549 C   0  0  0  0  0  0  0  0  0  0  0  0
    6.8331  -12.7104   27.2536 S   0  0  0  0  0  0  0  0  0  0  0  0
    7.5968  -14.0254   26.3388 C   0  0  0  0  0  0  0  0  0  0  0  0
    6.7508  -14.7102   25.3057 C   0  0  0  0  0  0  0  0  0  0  0  0
    7.3700  -15.7651   24.5219 C   0  0  2  0  0  0  0  0  0  0  0  0
    6.6258  -16.4488   23.5223 N   0  0  0  0  0  0  0  0  0  0  0  0
    7.9058  -16.7816   25.5294 C   0  0  0  0  0  0  0  0  0  0  0  0
    7.0780  -17.4383   26.1967 O   0  0  0  0  0  0  0  0  0  0  0  0
   10.3758  -19.5951   24.6112 C   0  0  0  0  0  0  0  0  0  0  0  0
   10.9034  -18.8421   25.8059 C   0  0  1  0  0  0  0  0  0  0  0  0
   11.8787  -17.9664   25.3376 O   0  0  0  0  0  0  0  0  0  0  0  0
    9.8407  -18.0582   26.5210 C   0  0  2  0  0  0  0  0  0  0  0  0
    9.2826  -16.9981   25.7264 N   0  0  0  0  0  0  0  0  0  0  0  0
   10.4463  -17.4728   27.7500 C   0  0  0  0  0  0  0  0  0  0  0  0
   10.6473  -16.2279   27.8317 O   0  0  0  0  0  0  0  0  0  0  0  0
   10.8165  -18.2334   28.8485 O   0  0  0  0  0  0  0  0  0  0  0  0
  2  1  1  1
  3  2  1  0
  4  2  1  0
  4 11  1  0
  5  4  2  0
  7  6  1  0
  8  7  1  0
 10  9  1  1
  9  8  1  0
 10 11  1  0
 10 12  1  0
 12 18  1  0
 12 13  2  0
 15 17  1  0
 15 14  1  6
 16 15  1  0
 17 19  1  0
 17 18  1  6
 19 21  1  0
 20 19  2  0
M  END
$$$$
