AMT.pdb
     RDKit          3D

 21 20  0  0  1  0  0  0  0  0999 V2000
    6.9493  -15.8332   19.9841 C   0  0  0  0  0  0  0  0  0  0  0  0
    7.3289  -14.4472   20.4569 C   0  0  2  0  0  0  0  0  0  0  0  0
    8.1462  -13.8576   19.4254 N   0  0  0  0  0  0  0  0  0  0  0  0
    8.1089  -14.5036   21.7337 C   0  0  0  0  0  0  0  0  0  0  0  0
    9.3430  -14.4358   21.7094 O   0  0  0  0  0  0  0  0  0  0  0  0
    6.3668  -10.4427   27.3211 C   0  0  0  0  0  0  0  0  0  0  0  0
    6.5397  -12.2011   27.1355 S   0  0  0  0  0  0  0  0  0  0  0  0
    7.0500  -12.7976   25.5440 C   0  0  0  0  0  0  0  0  0  0  0  0
    7.3473  -14.2645   25.4355 C   0  0  0  0  0  0  0  0  0  0  0  0
    8.0669  -14.7190   24.2581 C   0  0  2  0  0  0  0  0  0  0  0  0
    7.4678  -14.6327   22.9720 N   0  0  0  0  0  0  0  0  0  0  0  0
    8.4533  -16.1718   24.5332 C   0  0  0  0  0  0  0  0  0  0  0  0
    7.5356  -17.0149   24.6282 O   0  0  0  0  0  0  0  0  0  0  0  0
   10.8835  -18.5972   22.6686 C   0  0  0  0  0  0  0  0  0  0  0  0
   11.3119  -18.4243   24.1035 C   0  0  1  0  0  0  0  0  0  0  0  0
   12.3534  -17.5012   24.1096 O   0  0  0  0  0  0  0  0  0  0  0  0
   10.2067  -17.9252   24.9893 C   0  0  2  0  0  0  0  0  0  0  0  0
    9.7910  -16.5839   24.6809 N   0  0  0  0  0  0  0  0  0  0  0  0
   10.6882  -17.9694   26.3987 C   0  0  0  0  0  0  0  0  0  0  0  0
   10.8248  -16.9014   27.0601 O   0  0  0  0  0  0  0  0  0  0  0  0
   11.0071  -19.1489   27.0538 O   0  0  0  0  0  0  0  0  0  0  0  0
  2  1  1  6
  3  2  1  0
  4  2  1  0
  4 11  1  0
  5  4  2  0
  7  6  1  0
  8  7  1  0
 10  9  1  1
  9  8  1  0
 10 11  1  0
 10 12  1  0
 12 18  1  0
 12 13  2  0
 15 17  1  0
 15 14  1  6
 16 15  1  0
 17 19  1  0
 17 18  1  6
 19 21  1  0
 20 19  2  0
M  END
$$$$
