AMT.pdb
     RDKit          3D

 21 20  0  0  1  0  0  0  0  0999 V2000
    7.7906  -13.0481   18.8793 C   0  0  0  0  0  0  0  0  0  0  0  0
    8.1289  -14.3514   19.5689 C   0  0  2  0  0  0  0  0  0  0  0  0
    6.9229  -15.1416   19.5948 N   0  0  0  0  0  0  0  0  0  0  0  0
    8.5972  -14.1180   20.9717 C   0  0  0  0  0  0  0  0  0  0  0  0
    9.7625  -13.7645   21.1852 O   0  0  0  0  0  0  0  0  0  0  0  0
    7.3598  -11.5911   28.2389 C   0  0  0  0  0  0  0  0  0  0  0  0
    6.5878  -12.1931   26.7564 S   0  0  0  0  0  0  0  0  0  0  0  0
    7.5109  -13.3524   25.7800 C   0  0  0  0  0  0  0  0  0  0  0  0
    7.1087  -13.4956   24.3414 C   0  0  0  0  0  0  0  0  0  0  0  0
    8.0442  -14.1520   23.4443 C   0  0  2  0  0  0  0  0  0  0  0  0
    7.7377  -14.2921   22.0634 N   0  0  0  0  0  0  0  0  0  0  0  0
    8.3037  -15.5345   24.0416 C   0  0  0  0  0  0  0  0  0  0  0  0
    7.3254  -16.2935   24.2106 O   0  0  0  0  0  0  0  0  0  0  0  0
   10.4756  -18.0865   22.4354 C   0  0  0  0  0  0  0  0  0  0  0  0
   10.9537  -17.9435   23.8578 C   0  0  1  0  0  0  0  0  0  0  0  0
   12.0843  -17.1322   23.8283 O   0  0  0  0  0  0  0  0  0  0  0  0
    9.9271  -17.3241   24.7620 C   0  0  2  0  0  0  0  0  0  0  0  0
    9.5917  -15.9732   24.4023 N   0  0  0  0  0  0  0  0  0  0  0  0
   10.4678  -17.3339   26.1504 C   0  0  0  0  0  0  0  0  0  0  0  0
   10.7512  -16.2487   26.7325 O   0  0  0  0  0  0  0  0  0  0  0  0
   10.6875  -18.4986   26.8698 O   0  0  0  0  0  0  0  0  0  0  0  0
  2  1  1  1
  3  2  1  0
  4  2  1  0
  4 11  1  0
  5  4  2  0
  7  6  1  0
  8  7  1  0
 10  9  1  1
  9  8  1  0
 10 11  1  0
 10 12  1  0
 12 18  1  0
 12 13  2  0
 15 17  1  0
 15 14  1  6
 16 15  1  0
 17 19  1  0
 17 18  1  6
 19 21  1  0
 20 19  2  0
M  END
$$$$
