AMT.pdb
     RDKit          3D

 21 20  0  0  1  0  0  0  0  0999 V2000
    7.1590  -16.8824   20.5241 C   0  0  0  0  0  0  0  0  0  0  0  0
    7.4590  -15.4049   20.6499 C   0  0  2  0  0  0  0  0  0  0  0  0
    8.3707  -15.0665   19.5850 N   0  0  0  0  0  0  0  0  0  0  0  0
    8.0985  -15.0907   21.9667 C   0  0  0  0  0  0  0  0  0  0  0  0
    9.3279  -14.9912   22.0504 O   0  0  0  0  0  0  0  0  0  0  0  0
    7.4387  -11.3642   27.7425 C   0  0  0  0  0  0  0  0  0  0  0  0
    6.1378  -11.6574   26.5687 S   0  0  0  0  0  0  0  0  0  0  0  0
    6.5314  -12.6687   25.1646 C   0  0  0  0  0  0  0  0  0  0  0  0
    6.9546  -14.0807   25.4460 C   0  0  0  0  0  0  0  0  0  0  0  0
    7.7890  -14.7417   24.4573 C   0  0  2  0  0  0  0  0  0  0  0  0
    7.3296  -14.9039   23.1220 N   0  0  0  0  0  0  0  0  0  0  0  0
    8.1284  -16.1134   25.0394 C   0  0  0  0  0  0  0  0  0  0  0  0
    7.1827  -16.8662   25.3568 O   0  0  0  0  0  0  0  0  0  0  0  0
   10.3328  -18.8971   23.5255 C   0  0  0  0  0  0  0  0  0  0  0  0
   10.8484  -18.5439   24.8973 C   0  0  1  0  0  0  0  0  0  0  0  0
   11.9483  -17.7102   24.7173 O   0  0  0  0  0  0  0  0  0  0  0  0
    9.8285  -17.8372   25.7431 C   0  0  2  0  0  0  0  0  0  0  0  0
    9.4538  -16.5490   25.2266 N   0  0  0  0  0  0  0  0  0  0  0  0
   10.4005  -17.6624   27.1078 C   0  0  0  0  0  0  0  0  0  0  0  0
   10.6547  -18.6699   27.8270 O   0  0  0  0  0  0  0  0  0  0  0  0
   10.6816  -16.4214   27.6583 O   0  0  0  0  0  0  0  0  0  0  0  0
  2  1  1  1
  3  2  1  0
  4  2  1  0
  4 11  1  0
  5  4  2  0
  7  6  1  0
  8  7  1  0
 10  9  1  1
  9  8  1  0
 10 11  1  0
 10 12  1  0
 12 18  1  0
 12 13  2  0
 15 17  1  0
 15 14  1  6
 16 15  1  0
 17 19  1  0
 17 18  1  6
 19 21  1  0
 20 19  2  0
M  END
$$$$
