AMT.pdb
     RDKit          3D

 21 20  0  0  1  0  0  0  0  0999 V2000
    6.9001  -15.2337   19.8297 C   0  0  0  0  0  0  0  0  0  0  0  0
    7.2390  -13.8928   20.4427 C   0  0  2  0  0  0  0  0  0  0  0  0
    8.0709  -13.1928   19.4953 N   0  0  0  0  0  0  0  0  0  0  0  0
    7.9862  -14.0573   21.7298 C   0  0  0  0  0  0  0  0  0  0  0  0
    9.2223  -14.0349   21.7358 O   0  0  0  0  0  0  0  0  0  0  0  0
    7.7425  -11.2046   27.9715 C   0  0  0  0  0  0  0  0  0  0  0  0
    6.3490  -11.7921   27.0392 S   0  0  0  0  0  0  0  0  0  0  0  0
    6.6835  -12.4898   25.4422 C   0  0  0  0  0  0  0  0  0  0  0  0
    7.1359  -13.9203   25.4108 C   0  0  0  0  0  0  0  0  0  0  0  0
    7.8755  -14.3657   24.2424 C   0  0  2  0  0  0  0  0  0  0  0  0
    7.3120  -14.2382   22.9437 N   0  0  0  0  0  0  0  0  0  0  0  0
    8.2223  -15.8324   24.4951 C   0  0  0  0  0  0  0  0  0  0  0  0
    7.2818  -16.6507   24.5831 O   0  0  0  0  0  0  0  0  0  0  0  0
   10.0315  -18.3014   22.3947 C   0  0  0  0  0  0  0  0  0  0  0  0
   10.7784  -18.1958   23.6999 C   0  0  1  0  0  0  0  0  0  0  0  0
   11.8532  -17.3376   23.4861 O   0  0  0  0  0  0  0  0  0  0  0  0
    9.9328  -17.6565   24.8175 C   0  0  2  0  0  0  0  0  0  0  0  0
    9.5487  -16.2838   24.6302 N   0  0  0  0  0  0  0  0  0  0  0  0
   10.7109  -17.7717   26.0830 C   0  0  0  0  0  0  0  0  0  0  0  0
   11.0552  -16.7343   26.7170 O   0  0  0  0  0  0  0  0  0  0  0  0
   11.0948  -18.9872   26.6284 O   0  0  0  0  0  0  0  0  0  0  0  0
  2  1  1  6
  3  2  1  0
  4  2  1  0
  4 11  1  0
  5  4  2  0
  7  6  1  0
  8  7  1  0
 10  9  1  1
  9  8  1  0
 10 11  1  0
 10 12  1  0
 12 18  1  0
 12 13  2  0
 15 17  1  0
 15 14  1  6
 16 15  1  0
 17 19  1  0
 17 18  1  6
 19 21  1  0
 20 19  2  0
M  END
$$$$
