AMT.pdb
     RDKit          3D

 21 20  0  0  1  0  0  0  0  0999 V2000
    7.9780  -14.5356   18.7633 C   0  0  0  0  0  0  0  0  0  0  0  0
    8.0839  -15.6568   19.7734 C   0  0  2  0  0  0  0  0  0  0  0  0
    6.7445  -16.1304   20.0215 N   0  0  0  0  0  0  0  0  0  0  0  0
    8.6840  -15.1757   21.0580 C   0  0  0  0  0  0  0  0  0  0  0  0
    9.9073  -15.0240   21.1519 O   0  0  0  0  0  0  0  0  0  0  0  0
    5.7548  -12.5069   27.6105 C   0  0  0  0  0  0  0  0  0  0  0  0
    6.9090  -11.8861   26.4110 S   0  0  0  0  0  0  0  0  0  0  0  0
    7.9063  -13.0806   25.5580 C   0  0  0  0  0  0  0  0  0  0  0  0
    7.4488  -13.4886   24.1883 C   0  0  0  0  0  0  0  0  0  0  0  0
    8.2998  -14.3963   23.4383 C   0  0  2  0  0  0  0  0  0  0  0  0
    7.8844  -14.8890   22.1713 N   0  0  0  0  0  0  0  0  0  0  0  0
    8.5800  -15.5775   24.3666 C   0  0  0  0  0  0  0  0  0  0  0  0
    7.6092  -16.1142   24.9424 O   0  0  0  0  0  0  0  0  0  0  0  0
   10.6202  -18.5898   23.0897 C   0  0  0  0  0  0  0  0  0  0  0  0
   11.1539  -18.1661   24.4344 C   0  0  1  0  0  0  0  0  0  0  0  0
   12.3063  -17.4219   24.1996 O   0  0  0  0  0  0  0  0  0  0  0  0
   10.1799  -17.3316   25.2155 C   0  0  2  0  0  0  0  0  0  0  0  0
    9.8785  -16.0726   24.5902 N   0  0  0  0  0  0  0  0  0  0  0  0
   10.7664  -17.0743   26.5608 C   0  0  0  0  0  0  0  0  0  0  0  0
   10.9474  -18.0271   27.3708 O   0  0  0  0  0  0  0  0  0  0  0  0
   11.1393  -15.8118   26.9959 O   0  0  0  0  0  0  0  0  0  0  0  0
  2  1  1  6
  3  2  1  0
  4  2  1  0
  4 11  1  0
  5  4  2  0
  7  6  1  0
  8  7  1  0
 10  9  1  1
  9  8  1  0
 10 11  1  0
 10 12  1  0
 12 18  1  0
 12 13  2  0
 15 17  1  0
 15 14  1  6
 16 15  1  0
 17 19  1  0
 17 18  1  6
 19 21  1  0
 20 19  2  0
M  END
$$$$
