AMT.pdb
     RDKit          3D

 21 20  0  0  1  0  0  0  0  0999 V2000
    7.7442  -12.7526   19.8052 C   0  0  0  0  0  0  0  0  0  0  0  0
    7.8000  -14.1774   20.3106 C   0  0  2  0  0  0  0  0  0  0  0  0
    6.4385  -14.6375   20.4300 N   0  0  0  0  0  0  0  0  0  0  0  0
    8.4666  -14.2532   21.6492 C   0  0  0  0  0  0  0  0  0  0  0  0
    9.6855  -14.0703   21.7456 O   0  0  0  0  0  0  0  0  0  0  0  0
    7.0468  -11.4787   27.7357 C   0  0  0  0  0  0  0  0  0  0  0  0
    5.9831  -11.8420   26.3599 S   0  0  0  0  0  0  0  0  0  0  0  0
    6.7202  -12.6489   24.9617 C   0  0  0  0  0  0  0  0  0  0  0  0
    7.3793  -13.9729   25.2155 C   0  0  0  0  0  0  0  0  0  0  0  0
    8.2005  -14.5291   24.1539 C   0  0  2  0  0  0  0  0  0  0  0  0
    7.7351  -14.5296   22.8108 N   0  0  0  0  0  0  0  0  0  0  0  0
    8.5190  -15.9638   24.5732 C   0  0  0  0  0  0  0  0  0  0  0  0
    7.5670  -16.7640   24.6962 O   0  0  0  0  0  0  0  0  0  0  0  0
   10.4535  -18.4871   22.6919 C   0  0  0  0  0  0  0  0  0  0  0  0
   11.1143  -18.3493   24.0398 C   0  0  1  0  0  0  0  0  0  0  0  0
   12.2099  -17.5073   23.8726 O   0  0  0  0  0  0  0  0  0  0  0  0
   10.2030  -17.7697   25.0832 C   0  0  2  0  0  0  0  0  0  0  0  0
    9.8322  -16.4055   24.8217 N   0  0  0  0  0  0  0  0  0  0  0  0
   10.9027  -17.8365   26.3969 C   0  0  0  0  0  0  0  0  0  0  0  0
   11.2398  -16.7756   26.9950 O   0  0  0  0  0  0  0  0  0  0  0  0
   11.2187  -19.0303   27.0272 O   0  0  0  0  0  0  0  0  0  0  0  0
  2  1  1  1
  3  2  1  0
  4  2  1  0
  4 11  1  0
  5  4  2  0
  7  6  1  0
  8  7  1  0
 10  9  1  1
  9  8  1  0
 10 11  1  0
 10 12  1  0
 12 18  1  0
 12 13  2  0
 15 17  1  0
 15 14  1  6
 16 15  1  0
 17 19  1  0
 17 18  1  6
 19 21  1  0
 20 19  2  0
M  END
$$$$
