AMT.pdb
     RDKit          3D

 21 20  0  0  1  0  0  0  0  0999 V2000
    7.1015  -16.8438   19.9027 C   0  0  0  0  0  0  0  0  0  0  0  0
    7.4421  -15.3753   20.0297 C   0  0  2  0  0  0  0  0  0  0  0  0
    8.3709  -15.0635   18.9715 N   0  0  0  0  0  0  0  0  0  0  0  0
    8.0804  -15.0781   21.3511 C   0  0  0  0  0  0  0  0  0  0  0  0
    9.2979  -15.2327   21.4999 O   0  0  0  0  0  0  0  0  0  0  0  0
    6.9799  -10.5178   27.1207 C   0  0  0  0  0  0  0  0  0  0  0  0
    6.5486  -12.2410   27.0909 S   0  0  0  0  0  0  0  0  0  0  0  0
    7.5108  -13.2951   26.0363 C   0  0  0  0  0  0  0  0  0  0  0  0
    6.9590  -13.5672   24.6676 C   0  0  0  0  0  0  0  0  0  0  0  0
    7.7701  -14.3627   23.7621 C   0  0  2  0  0  0  0  0  0  0  0  0
    7.3236  -14.6231   22.4380 N   0  0  0  0  0  0  0  0  0  0  0  0
    8.0212  -15.6909   24.4753 C   0  0  0  0  0  0  0  0  0  0  0  0
    7.0622  -16.4834   24.5939 O   0  0  0  0  0  0  0  0  0  0  0  0
   10.0485  -18.5271   23.4423 C   0  0  0  0  0  0  0  0  0  0  0  0
   10.5796  -18.1190   24.7927 C   0  0  1  0  0  0  0  0  0  0  0  0
   11.7194  -17.3525   24.5679 O   0  0  0  0  0  0  0  0  0  0  0  0
    9.5950  -17.3140   25.5913 C   0  0  2  0  0  0  0  0  0  0  0  0
    9.2806  -16.0441   24.9952 N   0  0  0  0  0  0  0  0  0  0  0  0
   10.1761  -17.0820   26.9435 C   0  0  0  0  0  0  0  0  0  0  0  0
   10.5534  -15.9258   27.2860 O   0  0  0  0  0  0  0  0  0  0  0  0
   10.3349  -18.0893   27.8829 O   0  0  0  0  0  0  0  0  0  0  0  0
  2  1  1  1
  3  2  1  0
  4  2  1  0
  4 11  1  0
  5  4  2  0
  7  6  1  0
  8  7  1  0
 10  9  1  1
  9  8  1  0
 10 11  1  0
 10 12  1  0
 12 18  1  0
 12 13  2  0
 15 17  1  0
 15 14  1  6
 16 15  1  0
 17 19  1  0
 17 18  1  6
 19 21  1  0
 20 19  2  0
M  END
$$$$
