AMT.pdb
     RDKit          3D

 21 20  0  0  1  0  0  0  0  0999 V2000
    6.8267  -17.4291   20.1005 C   0  0  0  0  0  0  0  0  0  0  0  0
    7.2333  -15.9728   20.0485 C   0  0  2  0  0  0  0  0  0  0  0  0
    8.1460  -15.8279   18.9414 N   0  0  0  0  0  0  0  0  0  0  0  0
    7.9188  -15.5549   21.3123 C   0  0  0  0  0  0  0  0  0  0  0  0
    9.1488  -15.6368   21.4062 O   0  0  0  0  0  0  0  0  0  0  0  0
    7.2396  -11.4876   28.2303 C   0  0  0  0  0  0  0  0  0  0  0  0
    6.5113  -12.1096   26.7340 S   0  0  0  0  0  0  0  0  0  0  0  0
    7.4959  -13.2169   25.7575 C   0  0  0  0  0  0  0  0  0  0  0  0
    6.9030  -13.6834   24.4603 C   0  0  0  0  0  0  0  0  0  0  0  0
    7.7008  -14.5790   23.6405 C   0  0  2  0  0  0  0  0  0  0  0  0
    7.1930  -15.0667   22.4057 N   0  0  0  0  0  0  0  0  0  0  0  0
    8.0608  -15.7640   24.5360 C   0  0  0  0  0  0  0  0  0  0  0  0
    7.1298  -16.4781   24.9664 O   0  0  0  0  0  0  0  0  0  0  0  0
   10.6985  -18.4676   23.6097 C   0  0  0  0  0  0  0  0  0  0  0  0
   10.9777  -17.9418   24.9946 C   0  0  1  0  0  0  0  0  0  0  0  0
   12.0306  -17.0384   24.8832 O   0  0  0  0  0  0  0  0  0  0  0  0
    9.7958  -17.2468   25.6073 C   0  0  2  0  0  0  0  0  0  0  0  0
    9.3890  -16.0716   24.8861 N   0  0  0  0  0  0  0  0  0  0  0  0
   10.1587  -16.8577   26.9991 C   0  0  0  0  0  0  0  0  0  0  0  0
   10.2571  -15.6383   27.3156 O   0  0  0  0  0  0  0  0  0  0  0  0
   10.4040  -17.7805   28.0043 O   0  0  0  0  0  0  0  0  0  0  0  0
  2  1  1  1
  3  2  1  0
  4  2  1  0
  4 11  1  0
  5  4  2  0
  7  6  1  0
  8  7  1  0
 10  9  1  1
  9  8  1  0
 10 11  1  0
 10 12  1  0
 12 18  1  0
 12 13  2  0
 15 17  1  0
 15 14  1  6
 16 15  1  0
 17 19  1  0
 17 18  1  6
 19 21  1  0
 20 19  2  0
M  END
$$$$
