AMT.pdb
     RDKit          3D

 21 20  0  0  1  0  0  0  0  0999 V2000
    7.5420  -17.3706   20.2406 C   0  0  0  0  0  0  0  0  0  0  0  0
    7.8806  -15.8963   20.2611 C   0  0  2  0  0  0  0  0  0  0  0  0
    8.8617  -15.6733   19.2279 N   0  0  0  0  0  0  0  0  0  0  0  0
    8.4537  -15.4889   21.5830 C   0  0  0  0  0  0  0  0  0  0  0  0
    9.6647  -15.6133   21.7982 O   0  0  0  0  0  0  0  0  0  0  0  0
    6.6118  -10.6626   26.5929 C   0  0  0  0  0  0  0  0  0  0  0  0
    6.5876  -12.3710   27.0797 S   0  0  0  0  0  0  0  0  0  0  0  0
    7.5960  -13.4909   26.1425 C   0  0  0  0  0  0  0  0  0  0  0  0
    7.1508  -13.7899   24.7410 C   0  0  0  0  0  0  0  0  0  0  0  0
    8.0182  -14.6203   23.9232 C   0  0  2  0  0  0  0  0  0  0  0  0
    7.6423  -14.9632   22.5960 N   0  0  0  0  0  0  0  0  0  0  0  0
    8.2542  -15.9012   24.7228 C   0  0  0  0  0  0  0  0  0  0  0  0
    7.2626  -16.6078   25.0044 O   0  0  0  0  0  0  0  0  0  0  0  0
   10.7304  -18.6748   23.6622 C   0  0  0  0  0  0  0  0  0  0  0  0
   11.0050  -18.2708   25.0883 C   0  0  1  0  0  0  0  0  0  0  0  0
   12.0943  -17.4049   25.0642 O   0  0  0  0  0  0  0  0  0  0  0  0
    9.8404  -17.5786   25.7363 C   0  0  2  0  0  0  0  0  0  0  0  0
    9.5348  -16.3039   25.1459 N   0  0  0  0  0  0  0  0  0  0  0  0
   10.1647  -17.3783   27.1766 C   0  0  0  0  0  0  0  0  0  0  0  0
   10.3586  -16.2154   27.6313 O   0  0  0  0  0  0  0  0  0  0  0  0
   10.2709  -18.4231   28.0818 O   0  0  0  0  0  0  0  0  0  0  0  0
  2  1  1  1
  3  2  1  0
  4  2  1  0
  4 11  1  0
  5  4  2  0
  7  6  1  0
  8  7  1  0
 10  9  1  1
  9  8  1  0
 10 11  1  0
 10 12  1  0
 12 18  1  0
 12 13  2  0
 15 17  1  0
 15 14  1  6
 16 15  1  0
 17 19  1  0
 17 18  1  6
 19 21  1  0
 20 19  2  0
M  END
$$$$
