AMT.pdb
     RDKit          3D

 21 20  0  0  1  0  0  0  0  0999 V2000
    7.5752  -13.0181   19.6501 C   0  0  0  0  0  0  0  0  0  0  0  0
    7.9039  -14.3639   20.2580 C   0  0  2  0  0  0  0  0  0  0  0  0
    6.6687  -15.1037   20.3404 N   0  0  0  0  0  0  0  0  0  0  0  0
    8.4824  -14.2132   21.6307 C   0  0  0  0  0  0  0  0  0  0  0  0
    9.6226  -13.7580   21.7760 O   0  0  0  0  0  0  0  0  0  0  0  0
    7.3543  -11.4172   27.6992 C   0  0  0  0  0  0  0  0  0  0  0  0
    6.1597  -11.8939   26.4737 S   0  0  0  0  0  0  0  0  0  0  0  0
    6.7773  -12.6859   25.0106 C   0  0  0  0  0  0  0  0  0  0  0  0
    7.3317  -14.0707   25.1744 C   0  0  0  0  0  0  0  0  0  0  0  0
    8.1952  -14.5777   24.1217 C   0  0  2  0  0  0  0  0  0  0  0  0
    7.7554  -14.5794   22.7701 N   0  0  0  0  0  0  0  0  0  0  0  0
    8.5659  -16.0033   24.5287 C   0  0  0  0  0  0  0  0  0  0  0  0
    7.6376  -16.8075   24.7598 O   0  0  0  0  0  0  0  0  0  0  0  0
   10.2901  -18.4960   22.4305 C   0  0  0  0  0  0  0  0  0  0  0  0
   11.1039  -18.3473   23.6907 C   0  0  1  0  0  0  0  0  0  0  0  0
   12.1491  -17.4753   23.4005 O   0  0  0  0  0  0  0  0  0  0  0  0
   10.3094  -17.7978   24.8404 C   0  0  2  0  0  0  0  0  0  0  0  0
    9.9009  -16.4326   24.6499 N   0  0  0  0  0  0  0  0  0  0  0  0
   11.1511  -17.8832   26.0668 C   0  0  0  0  0  0  0  0  0  0  0  0
   11.5314  -16.8311   26.6543 O   0  0  0  0  0  0  0  0  0  0  0  0
   11.5582  -19.0856   26.6242 O   0  0  0  0  0  0  0  0  0  0  0  0
  2  1  1  1
  3  2  1  0
  4  2  1  0
  4 11  1  0
  5  4  2  0
  7  6  1  0
  8  7  1  0
 10  9  1  1
  9  8  1  0
 10 11  1  0
 10 12  1  0
 12 18  1  0
 12 13  2  0
 15 17  1  0
 15 14  1  6
 16 15  1  0
 17 19  1  0
 17 18  1  6
 19 21  1  0
 20 19  2  0
M  END
$$$$
