TAP.pdb
     RDKit          3D

 20 20  0  0  1  0  0  0  0  0999 V2000
   10.9028  -14.6233   21.0328 C   0  0  0  0  0  0  0  0  0  0  0  0
   10.3725  -13.5474   20.1131 C   0  0  1  0  0  0  0  0  0  0  0  0
   11.0866  -13.5300   18.9028 O   0  0  0  0  0  0  0  0  0  0  0  0
    8.9489  -13.8663   19.7770 C   0  0  2  0  0  0  0  0  0  0  0  0
    8.3866  -12.9339   18.8154 N   0  0  0  0  0  0  0  0  0  0  0  0
    8.1586  -13.8078   21.0580 C   0  0  0  0  0  0  0  0  0  0  0  0
    7.8427  -12.7013   21.5629 O   0  0  0  0  0  0  0  0  0  0  0  0
    6.2770  -16.1826   23.2825 C   0  0  0  0  0  0  0  0  0  0  0  0
    7.0242  -14.9060   22.9941 C   0  0  2  0  0  0  0  0  0  0  0  0
    7.7428  -14.9826   21.7397 N   0  0  0  0  0  0  0  0  0  0  0  0
    7.9212  -14.5034   24.0958 C   0  0  0  0  0  0  0  0  0  0  0  0
    9.0929  -14.9580   24.0605 O   0  0  0  0  0  0  0  0  0  0  0  0
    7.5233  -13.6517   25.1563 N   0  0  0  0  0  0  0  0  0  0  0  0
    6.2892  -12.8885   25.2045 C   0  0  0  0  0  0  0  0  0  0  0  0
    6.5552  -11.7555   26.1972 C   0  0  0  0  0  0  0  0  0  0  0  0
    7.4612  -12.4424   27.1845 C   0  0  0  0  0  0  0  0  0  0  0  0
    8.2547  -13.3906   26.3566 C   0  0  1  0  0  0  0  0  0  0  0  0
    8.5281  -14.6019   27.1499 C   0  0  0  0  0  0  0  0  0  0  0  0
    7.8709  -15.6578   26.9890 O   0  0  0  0  0  0  0  0  0  0  0  0
    9.5280  -14.5794   28.0916 O   0  0  0  0  0  0  0  0  0  0  0  0
  2  1  1  1
  3  2  1  0
  4  6  1  0
  4  2  1  0
  4  5  1  6
  6 10  1  0
  7  6  2  0
  9  8  1  1
  9 11  1  0
 10  9  1  0
 11 13  1  0
 11 12  2  0
 13 17  1  0
 14 15  1  0
 14 13  1  0
 15 16  1  0
 16 17  1  0
 17 18  1  1
 18 19  2  0
 18 20  1  0
M  END
$$$$
