TAP.pdb
     RDKit          3D

 20 20  0  0  1  0  0  0  0  0999 V2000
    6.7444  -15.9488   20.7909 C   0  0  0  0  0  0  0  0  0  0  0  0
    7.6473  -14.9081   20.1697 C   0  0  1  0  0  0  0  0  0  0  0  0
    7.4620  -14.8546   18.7776 O   0  0  0  0  0  0  0  0  0  0  0  0
    7.2713  -13.5647   20.7133 C   0  0  2  0  0  0  0  0  0  0  0  0
    7.9302  -12.4795   20.0075 N   0  0  0  0  0  0  0  0  0  0  0  0
    7.6702  -13.5376   22.1656 C   0  0  0  0  0  0  0  0  0  0  0  0
    8.8744  -13.3920   22.4940 O   0  0  0  0  0  0  0  0  0  0  0  0
    6.0212  -13.3266   25.5261 C   0  0  0  0  0  0  0  0  0  0  0  0
    7.1299  -13.7465   24.5957 C   0  0  2  0  0  0  0  0  0  0  0  0
    6.7172  -13.6735   23.2101 N   0  0  0  0  0  0  0  0  0  0  0  0
    7.6760  -15.0803   24.9172 C   0  0  0  0  0  0  0  0  0  0  0  0
    7.1625  -16.0572   24.3150 O   0  0  0  0  0  0  0  0  0  0  0  0
    8.7229  -15.2926   25.8485 N   0  0  0  0  0  0  0  0  0  0  0  0
    9.4844  -14.2489   26.5107 C   0  0  0  0  0  0  0  0  0  0  0  0
   10.7913  -14.9165   26.9422 C   0  0  0  0  0  0  0  0  0  0  0  0
   10.3115  -16.3047   27.2739 C   0  0  0  0  0  0  0  0  0  0  0  0
    9.2151  -16.5567   26.3001 C   0  0  1  0  0  0  0  0  0  0  0  0
    8.1847  -17.3880   26.9473 C   0  0  0  0  0  0  0  0  0  0  0  0
    7.1165  -16.8949   27.3812 O   0  0  0  0  0  0  0  0  0  0  0  0
    8.3950  -18.7388   27.0814 O   0  0  0  0  0  0  0  0  0  0  0  0
  2  1  1  1
  3  2  1  0
  4  6  1  0
  4  2  1  0
  4  5  1  6
  6 10  1  0
  7  6  2  0
  9  8  1  1
  9 11  1  0
 10  9  1  0
 11 13  1  0
 11 12  2  0
 13 17  1  0
 14 15  1  0
 14 13  1  0
 15 16  1  0
 16 17  1  0
 17 18  1  1
 18 19  2  0
 18 20  1  0
M  END
$$$$
