TAP.pdb
     RDKit          3D

 20 20  0  0  1  0  0  0  0  0999 V2000
   10.3113  -14.5762   18.6276 C   0  0  0  0  0  0  0  0  0  0  0  0
    9.7195  -14.3862   20.0054 C   0  0  1  0  0  0  0  0  0  0  0  0
   10.3407  -13.3158   20.6713 O   0  0  0  0  0  0  0  0  0  0  0  0
    8.2729  -14.0299   19.8581 C   0  0  2  0  0  0  0  0  0  0  0  0
    8.0844  -12.7439   19.2094 N   0  0  0  0  0  0  0  0  0  0  0  0
    7.6747  -13.9904   21.2399 C   0  0  0  0  0  0  0  0  0  0  0  0
    7.4223  -12.8916   21.7948 O   0  0  0  0  0  0  0  0  0  0  0  0
    6.0997  -16.4358   23.6234 C   0  0  0  0  0  0  0  0  0  0  0  0
    6.7358  -15.1183   23.2617 C   0  0  2  0  0  0  0  0  0  0  0  0
    7.3748  -15.1751   21.9640 N   0  0  0  0  0  0  0  0  0  0  0  0
    7.6724  -14.6297   24.2934 C   0  0  0  0  0  0  0  0  0  0  0  0
    8.8739  -14.9795   24.1719 O   0  0  0  0  0  0  0  0  0  0  0  0
    7.2799  -13.8081   25.3795 N   0  0  0  0  0  0  0  0  0  0  0  0
    5.9316  -13.3313   25.6293 C   0  0  0  0  0  0  0  0  0  0  0  0
    6.0995  -12.0963   26.5161 C   0  0  0  0  0  0  0  0  0  0  0  0
    7.2948  -12.4928   27.3414 C   0  0  0  0  0  0  0  0  0  0  0  0
    8.1285  -13.3044   26.4139 C   0  0  1  0  0  0  0  0  0  0  0  0
    8.8041  -14.3638   27.1838 C   0  0  0  0  0  0  0  0  0  0  0  0
    8.4171  -15.5560   27.1449 O   0  0  0  0  0  0  0  0  0  0  0  0
    9.8865  -14.0424   27.9662 O   0  0  0  0  0  0  0  0  0  0  0  0
  2  1  1  6
  3  2  1  0
  4  6  1  0
  4  2  1  0
  4  5  1  1
  6 10  1  0
  7  6  2  0
  9  8  1  1
  9 11  1  0
 10  9  1  0
 11 13  1  0
 11 12  2  0
 13 17  1  0
 14 15  1  0
 14 13  1  0
 15 16  1  0
 16 17  1  0
 17 18  1  1
 18 19  2  0
 18 20  1  0
M  END
$$$$
