TAP.pdb
     RDKit          3D

 20 20  0  0  1  0  0  0  0  0999 V2000
   10.7272  -14.5763   18.5927 C   0  0  0  0  0  0  0  0  0  0  0  0
   10.1426  -14.3509   19.9682 C   0  0  1  0  0  0  0  0  0  0  0  0
   10.7943  -13.2892   20.6187 O   0  0  0  0  0  0  0  0  0  0  0  0
    8.7063  -13.9565   19.8172 C   0  0  2  0  0  0  0  0  0  0  0  0
    8.5545  -12.6518   19.1969 N   0  0  0  0  0  0  0  0  0  0  0  0
    8.0971  -13.9342   21.1946 C   0  0  0  0  0  0  0  0  0  0  0  0
    7.9962  -12.8550   21.8304 O   0  0  0  0  0  0  0  0  0  0  0  0
    6.1565  -16.3502   23.3424 C   0  0  0  0  0  0  0  0  0  0  0  0
    6.8653  -15.0506   23.0594 C   0  0  2  0  0  0  0  0  0  0  0  0
    7.6179  -15.1138   21.8244 N   0  0  0  0  0  0  0  0  0  0  0  0
    7.7192  -14.6058   24.1790 C   0  0  0  0  0  0  0  0  0  0  0  0
    8.9166  -14.9886   24.1584 O   0  0  0  0  0  0  0  0  0  0  0  0
    7.2541  -13.7904   25.2407 N   0  0  0  0  0  0  0  0  0  0  0  0
    5.9236  -13.2184   25.3415 C   0  0  0  0  0  0  0  0  0  0  0  0
    6.0682  -12.0282   26.2914 C   0  0  0  0  0  0  0  0  0  0  0  0
    7.1179  -12.5415   27.2411 C   0  0  0  0  0  0  0  0  0  0  0  0
    8.0002  -13.3861   26.3913 C   0  0  1  0  0  0  0  0  0  0  0  0
    8.4942  -14.5181   27.1952 C   0  0  0  0  0  0  0  0  0  0  0  0
    9.3926  -14.3717   28.0578 O   0  0  0  0  0  0  0  0  0  0  0  0
    7.9600  -15.7683   26.9985 O   0  0  0  0  0  0  0  0  0  0  0  0
  2  1  1  6
  3  2  1  0
  4  6  1  0
  4  2  1  0
  4  5  1  1
  6 10  1  0
  7  6  2  0
  9  8  1  1
  9 11  1  0
 10  9  1  0
 11 13  1  0
 11 12  2  0
 13 17  1  0
 14 15  1  0
 14 13  1  0
 15 16  1  0
 16 17  1  0
 17 18  1  1
 18 19  2  0
 18 20  1  0
M  END
$$$$
