TAP.pdb
     RDKit          3D

 20 20  0  0  1  0  0  0  0  0999 V2000
   10.0511  -16.2290   19.3769 C   0  0  0  0  0  0  0  0  0  0  0  0
    9.4783  -15.6514   20.6507 C   0  0  1  0  0  0  0  0  0  0  0  0
    9.9079  -14.3260   20.8342 O   0  0  0  0  0  0  0  0  0  0  0  0
    7.9865  -15.6154   20.5293 C   0  0  2  0  0  0  0  0  0  0  0  0
    7.5372  -14.6672   19.5247 N   0  0  0  0  0  0  0  0  0  0  0  0
    7.4333  -15.2247   21.8748 C   0  0  0  0  0  0  0  0  0  0  0  0
    7.1387  -14.0281   22.1206 O   0  0  0  0  0  0  0  0  0  0  0  0
    6.0773  -16.9508   24.9212 C   0  0  0  0  0  0  0  0  0  0  0  0
    6.6913  -15.7822   24.1942 C   0  0  2  0  0  0  0  0  0  0  0  0
    7.2243  -16.1773   22.9075 N   0  0  0  0  0  0  0  0  0  0  0  0
    7.7105  -15.0769   24.9969 C   0  0  0  0  0  0  0  0  0  0  0  0
    8.9035  -15.4381   24.8322 O   0  0  0  0  0  0  0  0  0  0  0  0
    7.4037  -14.0423   25.9155 N   0  0  0  0  0  0  0  0  0  0  0  0
    6.1012  -13.4226   26.0803 C   0  0  0  0  0  0  0  0  0  0  0  0
    6.3809  -12.0635   26.7243 C   0  0  0  0  0  0  0  0  0  0  0  0
    7.5582  -12.3959   27.6023 C   0  0  0  0  0  0  0  0  0  0  0  0
    8.3086  -13.4268   26.8354 C   0  0  1  0  0  0  0  0  0  0  0  0
    8.9156  -14.3778   27.7834 C   0  0  0  0  0  0  0  0  0  0  0  0
    8.4206  -15.5118   27.9877 O   0  0  0  0  0  0  0  0  0  0  0  0
   10.0534  -14.0178   28.4637 O   0  0  0  0  0  0  0  0  0  0  0  0
  2  1  1  6
  3  2  1  0
  4  6  1  0
  4  2  1  0
  4  5  1  6
  6 10  1  0
  7  6  2  0
  9  8  1  1
  9 11  1  0
 10  9  1  0
 11 13  1  0
 11 12  2  0
 13 17  1  0
 14 15  1  0
 14 13  1  0
 15 16  1  0
 16 17  1  0
 17 18  1  1
 18 19  2  0
 18 20  1  0
M  END
$$$$
