TAP.pdb
     RDKit          3D

 20 20  0  0  1  0  0  0  0  0999 V2000
   10.5217  -14.7604   18.7554 C   0  0  0  0  0  0  0  0  0  0  0  0
    9.8761  -14.4481   20.0859 C   0  0  1  0  0  0  0  0  0  0  0  0
   10.4649  -13.3144   20.6716 O   0  0  0  0  0  0  0  0  0  0  0  0
    8.4341  -14.1209   19.8512 C   0  0  2  0  0  0  0  0  0  0  0  0
    8.2609  -12.8557   19.1588 N   0  0  0  0  0  0  0  0  0  0  0  0
    7.7611  -14.0556   21.1972 C   0  0  0  0  0  0  0  0  0  0  0  0
    7.6003  -12.9527   21.7774 O   0  0  0  0  0  0  0  0  0  0  0  0
    5.9407  -16.4205   23.5062 C   0  0  0  0  0  0  0  0  0  0  0  0
    6.6496  -15.1376   23.1555 C   0  0  2  0  0  0  0  0  0  0  0  0
    7.2869  -15.2200   21.8583 N   0  0  0  0  0  0  0  0  0  0  0  0
    7.6099  -14.7094   24.1923 C   0  0  0  0  0  0  0  0  0  0  0  0
    8.7894  -15.1278   24.0722 O   0  0  0  0  0  0  0  0  0  0  0  0
    7.2625  -13.8719   25.2815 N   0  0  0  0  0  0  0  0  0  0  0  0
    5.9706  -13.2393   25.4777 C   0  0  0  0  0  0  0  0  0  0  0  0
    6.2394  -12.0557   26.4086 C   0  0  0  0  0  0  0  0  0  0  0  0
    7.3320  -12.6153   27.2805 C   0  0  0  0  0  0  0  0  0  0  0  0
    8.1094  -13.5008   26.3719 C   0  0  1  0  0  0  0  0  0  0  0  0
    8.6094  -14.6531   27.1425 C   0  0  0  0  0  0  0  0  0  0  0  0
    8.0860  -15.7885   27.0450 O   0  0  0  0  0  0  0  0  0  0  0  0
    9.6764  -14.4845   27.9911 O   0  0  0  0  0  0  0  0  0  0  0  0
  2  1  1  6
  3  2  1  0
  4  6  1  0
  4  2  1  0
  4  5  1  1
  6 10  1  0
  7  6  2  0
  9  8  1  1
  9 11  1  0
 10  9  1  0
 11 13  1  0
 11 12  2  0
 13 17  1  0
 14 15  1  0
 14 13  1  0
 15 16  1  0
 16 17  1  0
 17 18  1  1
 18 19  2  0
 18 20  1  0
M  END
$$$$
