TAP.pdb
     RDKit          3D

 20 20  0  0  1  0  0  0  0  0999 V2000
   10.8191  -14.2100   21.1006 C   0  0  0  0  0  0  0  0  0  0  0  0
   10.1307  -13.3082   20.1020 C   0  0  1  0  0  0  0  0  0  0  0  0
   10.8278  -13.2920   18.8818 O   0  0  0  0  0  0  0  0  0  0  0  0
    8.7680  -13.8608   19.8205 C   0  0  2  0  0  0  0  0  0  0  0  0
    8.0263  -13.0452   18.8745 N   0  0  0  0  0  0  0  0  0  0  0  0
    8.0246  -13.9174   21.1292 C   0  0  0  0  0  0  0  0  0  0  0  0
    7.5171  -12.8781   21.6204 O   0  0  0  0  0  0  0  0  0  0  0  0
    6.6436  -16.5329   23.4347 C   0  0  0  0  0  0  0  0  0  0  0  0
    7.1771  -15.1578   23.1254 C   0  0  2  0  0  0  0  0  0  0  0  0
    7.8676  -15.1294   21.8533 N   0  0  0  0  0  0  0  0  0  0  0  0
    8.0282  -14.6154   24.2033 C   0  0  0  0  0  0  0  0  0  0  0  0
    9.2471  -14.9212   24.1639 O   0  0  0  0  0  0  0  0  0  0  0  0
    7.5380  -13.7903   25.2460 N   0  0  0  0  0  0  0  0  0  0  0  0
    6.2002  -13.2308   25.3178 C   0  0  0  0  0  0  0  0  0  0  0  0
    6.3175  -12.0261   26.2531 C   0  0  0  0  0  0  0  0  0  0  0  0
    7.3571  -12.5153   27.2264 C   0  0  0  0  0  0  0  0  0  0  0  0
    8.2615  -13.3625   26.4026 C   0  0  1  0  0  0  0  0  0  0  0  0
    8.7540  -14.4780   27.2299 C   0  0  0  0  0  0  0  0  0  0  0  0
    9.6690  -14.3198   28.0728 O   0  0  0  0  0  0  0  0  0  0  0  0
    8.1998  -15.7257   27.0779 O   0  0  0  0  0  0  0  0  0  0  0  0
  2  1  1  1
  3  2  1  0
  4  6  1  0
  4  2  1  0
  4  5  1  6
  6 10  1  0
  7  6  2  0
  9  8  1  1
  9 11  1  0
 10  9  1  0
 11 13  1  0
 11 12  2  0
 13 17  1  0
 14 15  1  0
 14 13  1  0
 15 16  1  0
 16 17  1  0
 17 18  1  1
 18 19  2  0
 18 20  1  0
M  END
$$$$
