TAP.pdb
     RDKit          3D

 20 20  0  0  1  0  0  0  0  0999 V2000
    8.4846  -12.6405   20.3192 C   0  0  0  0  0  0  0  0  0  0  0  0
    7.9795  -13.6275   19.2920 C   0  0  1  0  0  0  0  0  0  0  0  0
    8.7427  -13.5553   18.1141 O   0  0  0  0  0  0  0  0  0  0  0  0
    8.1467  -15.0115   19.8380 C   0  0  2  0  0  0  0  0  0  0  0  0
    7.6554  -16.0283   18.9243 N   0  0  0  0  0  0  0  0  0  0  0  0
    7.3786  -15.0823   21.1317 C   0  0  0  0  0  0  0  0  0  0  0  0
    6.1712  -15.4303   21.1388 O   0  0  0  0  0  0  0  0  0  0  0  0
    6.9317  -16.5105   23.7311 C   0  0  0  0  0  0  0  0  0  0  0  0
    7.3041  -15.0537   23.6287 C   0  0  2  0  0  0  0  0  0  0  0  0
    7.9768  -14.7636   22.3801 N   0  0  0  0  0  0  0  0  0  0  0  0
    8.0971  -14.5807   24.7810 C   0  0  0  0  0  0  0  0  0  0  0  0
    9.2790  -15.0020   24.8601 O   0  0  0  0  0  0  0  0  0  0  0  0
    7.5918  -13.6984   25.7683 N   0  0  0  0  0  0  0  0  0  0  0  0
    6.2352  -13.1840   25.8218 C   0  0  0  0  0  0  0  0  0  0  0  0
    6.3211  -11.9095   26.6634 C   0  0  0  0  0  0  0  0  0  0  0  0
    7.3925  -12.2869   27.6518 C   0  0  0  0  0  0  0  0  0  0  0  0
    8.3157  -13.1597   26.8772 C   0  0  1  0  0  0  0  0  0  0  0  0
    8.8618  -14.1920   27.7760 C   0  0  0  0  0  0  0  0  0  0  0  0
    8.4340  -15.3707   27.7631 O   0  0  0  0  0  0  0  0  0  0  0  0
    9.8657  -13.8596   28.6527 O   0  0  0  0  0  0  0  0  0  0  0  0
  2  1  1  1
  3  2  1  0
  4  6  1  0
  4  2  1  0
  4  5  1  6
  6 10  1  0
  7  6  2  0
  9  8  1  1
  9 11  1  0
 10  9  1  0
 11 13  1  0
 11 12  2  0
 13 17  1  0
 14 15  1  0
 14 13  1  0
 15 16  1  0
 16 17  1  0
 17 18  1  1
 18 19  2  0
 18 20  1  0
M  END
$$$$
