TAP.pdb
     RDKit          3D

 20 20  0  0  1  0  0  0  0  0999 V2000
   10.4687  -13.5978   21.1181 C   0  0  0  0  0  0  0  0  0  0  0  0
    9.4956  -13.1507   20.0516 C   0  0  1  0  0  0  0  0  0  0  0  0
   10.1186  -13.1137   18.7924 O   0  0  0  0  0  0  0  0  0  0  0  0
    8.3895  -14.1559   19.9635 C   0  0  2  0  0  0  0  0  0  0  0  0
    7.4040  -13.8052   18.9555 N   0  0  0  0  0  0  0  0  0  0  0  0
    7.7281  -14.2190   21.3153 C   0  0  0  0  0  0  0  0  0  0  0  0
    7.0130  -13.2687   21.7208 O   0  0  0  0  0  0  0  0  0  0  0  0
    6.6246  -16.7462   23.7273 C   0  0  0  0  0  0  0  0  0  0  0  0
    7.2231  -15.3883   23.4645 C   0  0  2  0  0  0  0  0  0  0  0  0
    7.8820  -15.3382   22.1764 N   0  0  0  0  0  0  0  0  0  0  0  0
    8.1288  -14.9409   24.5415 C   0  0  0  0  0  0  0  0  0  0  0  0
    9.3255  -15.3182   24.4617 O   0  0  0  0  0  0  0  0  0  0  0  0
    7.7127  -14.1287   25.6258 N   0  0  0  0  0  0  0  0  0  0  0  0
    6.3637  -13.6361   25.8386 C   0  0  0  0  0  0  0  0  0  0  0  0
    6.5198  -12.4159   26.7478 C   0  0  0  0  0  0  0  0  0  0  0  0
    7.6821  -12.8407   27.6057 C   0  0  0  0  0  0  0  0  0  0  0  0
    8.5341  -13.6514   26.6941 C   0  0  1  0  0  0  0  0  0  0  0  0
    9.1694  -14.7309   27.4705 C   0  0  0  0  0  0  0  0  0  0  0  0
   10.1266  -14.5075   28.2493 O   0  0  0  0  0  0  0  0  0  0  0  0
    8.7049  -16.0172   27.3413 O   0  0  0  0  0  0  0  0  0  0  0  0
  2  1  1  1
  3  2  1  0
  4  6  1  0
  4  2  1  0
  4  5  1  6
  6 10  1  0
  7  6  2  0
  9  8  1  1
  9 11  1  0
 10  9  1  0
 11 13  1  0
 11 12  2  0
 13 17  1  0
 14 15  1  0
 14 13  1  0
 15 16  1  0
 16 17  1  0
 17 18  1  1
 18 19  2  0
 18 20  1  0
M  END
$$$$
