TAP.pdb
     RDKit          3D

 20 20  0  0  1  0  0  0  0  0999 V2000
   11.4925  -17.0427   22.9138 C   0  0  0  0  0  0  0  0  0  0  0  0
   11.1753  -16.4194   21.5739 C   0  0  1  0  0  0  0  0  0  0  0  0
   11.9838  -16.9694   20.5645 O   0  0  0  0  0  0  0  0  0  0  0  0
    9.7561  -16.7413   21.2222 C   0  0  2  0  0  0  0  0  0  0  0  0
    9.4054  -16.2997   19.8835 N   0  0  0  0  0  0  0  0  0  0  0  0
    8.8737  -16.0505   22.2286 C   0  0  0  0  0  0  0  0  0  0  0  0
    8.6942  -14.8080   22.1735 O   0  0  0  0  0  0  0  0  0  0  0  0
    6.4533  -17.0442   24.9346 C   0  0  0  0  0  0  0  0  0  0  0  0
    7.3679  -16.0815   24.2218 C   0  0  2  0  0  0  0  0  0  0  0  0
    8.2167  -16.7627   23.2673 N   0  0  0  0  0  0  0  0  0  0  0  0
    8.1677  -15.2554   25.1483 C   0  0  0  0  0  0  0  0  0  0  0  0
    9.3330  -15.6576   25.3957 O   0  0  0  0  0  0  0  0  0  0  0  0
    7.6862  -14.0655   25.7489 N   0  0  0  0  0  0  0  0  0  0  0  0
    6.4279  -13.4137   25.4336 C   0  0  0  0  0  0  0  0  0  0  0  0
    6.6039  -11.9615   25.8810 C   0  0  0  0  0  0  0  0  0  0  0  0
    7.4762  -12.1364   27.0958 C   0  0  0  0  0  0  0  0  0  0  0  0
    8.3429  -13.2987   26.7612 C   0  0  1  0  0  0  0  0  0  0  0  0
    8.6109  -14.0631   27.9922 C   0  0  0  0  0  0  0  0  0  0  0  0
    8.0473  -15.1593   28.2235 O   0  0  0  0  0  0  0  0  0  0  0  0
    9.5005  -13.5665   28.9136 O   0  0  0  0  0  0  0  0  0  0  0  0
  2  1  1  1
  3  2  1  0
  4  6  1  0
  4  2  1  0
  4  5  1  6
  6 10  1  0
  7  6  2  0
  9  8  1  1
  9 11  1  0
 10  9  1  0
 11 13  1  0
 11 12  2  0
 13 17  1  0
 14 15  1  0
 14 13  1  0
 15 16  1  0
 16 17  1  0
 17 18  1  1
 18 19  2  0
 18 20  1  0
M  END
$$$$
