TAP.pdb
     RDKit          3D

 20 20  0  0  1  0  0  0  0  0999 V2000
    7.2150  -17.3210   22.2712 C   0  0  0  0  0  0  0  0  0  0  0  0
    8.1493  -16.4394   21.4749 C   0  0  1  0  0  0  0  0  0  0  0  0
    8.1124  -16.7776   20.1113 O   0  0  0  0  0  0  0  0  0  0  0  0
    7.6797  -15.0223   21.5875 C   0  0  2  0  0  0  0  0  0  0  0  0
    8.3145  -14.1514   20.6134 N   0  0  0  0  0  0  0  0  0  0  0  0
    8.0079  -14.5471   22.9786 C   0  0  0  0  0  0  0  0  0  0  0  0
    9.1662  -14.1497   23.2605 O   0  0  0  0  0  0  0  0  0  0  0  0
    6.1191  -13.7411   26.1384 C   0  0  0  0  0  0  0  0  0  0  0  0
    7.3614  -14.0303   25.3357 C   0  0  2  0  0  0  0  0  0  0  0  0
    7.0373  -14.5280   24.0155 N   0  0  0  0  0  0  0  0  0  0  0  0
    8.2963  -14.9380   26.0303 C   0  0  0  0  0  0  0  0  0  0  0  0
    8.2875  -16.1407   25.6640 O   0  0  0  0  0  0  0  0  0  0  0  0
    9.1740  -14.5174   27.0604 N   0  0  0  0  0  0  0  0  0  0  0  0
    9.2457  -13.1750   27.6086 C   0  0  0  0  0  0  0  0  0  0  0  0
   10.6364  -13.0707   28.2370 C   0  0  0  0  0  0  0  0  0  0  0  0
   10.8317  -14.4755   28.7427 C   0  0  0  0  0  0  0  0  0  0  0  0
   10.1375  -15.3268   27.7390 C   0  0  1  0  0  0  0  0  0  0  0  0
    9.5453  -16.4877   28.4270 C   0  0  0  0  0  0  0  0  0  0  0  0
   10.2567  -17.3935   28.9231 O   0  0  0  0  0  0  0  0  0  0  0  0
    8.1790  -16.5849   28.5305 O   0  0  0  0  0  0  0  0  0  0  0  0
  2  1  1  1
  3  2  1  0
  4  6  1  0
  4  2  1  0
  4  5  1  6
  6 10  1  0
  7  6  2  0
  9  8  1  1
  9 11  1  0
 10  9  1  0
 11 13  1  0
 11 12  2  0
 13 17  1  0
 14 15  1  0
 14 13  1  0
 15 16  1  0
 16 17  1  0
 17 18  1  1
 18 19  2  0
 18 20  1  0
M  END
$$$$
