TAP.pdb
     RDKit          3D

 20 20  0  0  1  0  0  0  0  0999 V2000
    8.3617  -12.6509   20.3194 C   0  0  0  0  0  0  0  0  0  0  0  0
    7.8655  -13.6729   19.3225 C   0  0  1  0  0  0  0  0  0  0  0  0
    8.6114  -13.6117   18.1330 O   0  0  0  0  0  0  0  0  0  0  0  0
    8.0707  -15.0396   19.8982 C   0  0  2  0  0  0  0  0  0  0  0  0
    7.5433  -16.0853   19.0390 N   0  0  0  0  0  0  0  0  0  0  0  0
    7.3681  -15.0787   21.2300 C   0  0  0  0  0  0  0  0  0  0  0  0
    6.1132  -15.0528   21.2904 O   0  0  0  0  0  0  0  0  0  0  0  0
    7.0109  -16.6845   24.0215 C   0  0  0  0  0  0  0  0  0  0  0  0
    7.3894  -15.2568   23.7217 C   0  0  2  0  0  0  0  0  0  0  0  0
    8.0826  -15.1453   22.4558 N   0  0  0  0  0  0  0  0  0  0  0  0
    8.1654  -14.6273   24.8090 C   0  0  0  0  0  0  0  0  0  0  0  0
    9.3907  -14.9048   24.8575 O   0  0  0  0  0  0  0  0  0  0  0  0
    7.5988  -13.7510   25.7678 N   0  0  0  0  0  0  0  0  0  0  0  0
    6.2240  -13.2843   25.7722 C   0  0  0  0  0  0  0  0  0  0  0  0
    6.2388  -11.9970   26.5984 C   0  0  0  0  0  0  0  0  0  0  0  0
    7.2912  -12.3236   27.6246 C   0  0  0  0  0  0  0  0  0  0  0  0
    8.2681  -13.1730   26.8911 C   0  0  1  0  0  0  0  0  0  0  0  0
    8.8214  -14.1738   27.8206 C   0  0  0  0  0  0  0  0  0  0  0  0
    8.4629  -15.3750   27.7859 O   0  0  0  0  0  0  0  0  0  0  0  0
    9.7545  -13.7861   28.7511 O   0  0  0  0  0  0  0  0  0  0  0  0
  2  1  1  1
  3  2  1  0
  4  6  1  0
  4  2  1  0
  4  5  1  6
  6 10  1  0
  7  6  2  0
  9  8  1  1
  9 11  1  0
 10  9  1  0
 11 13  1  0
 11 12  2  0
 13 17  1  0
 14 15  1  0
 14 13  1  0
 15 16  1  0
 16 17  1  0
 17 18  1  1
 18 19  2  0
 18 20  1  0
M  END
$$$$
