TAP.pdb
     RDKit          3D

 20 20  0  0  1  0  0  0  0  0999 V2000
   10.8772  -14.6500   20.8872 C   0  0  0  0  0  0  0  0  0  0  0  0
   10.2425  -13.5664   20.0462 C   0  0  1  0  0  0  0  0  0  0  0  0
   10.8619  -13.4856   18.7873 O   0  0  0  0  0  0  0  0  0  0  0  0
    8.8092  -13.9267   19.8067 C   0  0  2  0  0  0  0  0  0  0  0  0
    8.1510  -13.0003   18.9018 N   0  0  0  0  0  0  0  0  0  0  0  0
    8.1106  -13.9106   21.1411 C   0  0  0  0  0  0  0  0  0  0  0  0
    7.8134  -12.8214   21.6927 O   0  0  0  0  0  0  0  0  0  0  0  0
    6.4284  -16.4087   23.4019 C   0  0  0  0  0  0  0  0  0  0  0  0
    7.0459  -15.0723   23.0796 C   0  0  2  0  0  0  0  0  0  0  0  0
    7.7631  -15.1074   21.8226 N   0  0  0  0  0  0  0  0  0  0  0  0
    7.9040  -14.5585   24.1660 C   0  0  0  0  0  0  0  0  0  0  0  0
    9.1146  -14.8964   24.1326 O   0  0  0  0  0  0  0  0  0  0  0  0
    7.4291  -13.7263   25.2101 N   0  0  0  0  0  0  0  0  0  0  0  0
    6.1482  -13.0430   25.2247 C   0  0  0  0  0  0  0  0  0  0  0  0
    6.3195  -11.8882   26.2132 C   0  0  0  0  0  0  0  0  0  0  0  0
    7.2448  -12.5089   27.2260 C   0  0  0  0  0  0  0  0  0  0  0  0
    8.1153  -13.4105   26.4239 C   0  0  1  0  0  0  0  0  0  0  0  0
    8.4472  -14.5963   27.2334 C   0  0  0  0  0  0  0  0  0  0  0  0
    7.9044  -15.7079   27.0280 O   0  0  0  0  0  0  0  0  0  0  0  0
    9.3749  -14.4865   28.2406 O   0  0  0  0  0  0  0  0  0  0  0  0
  2  1  1  1
  3  2  1  0
  4  6  1  0
  4  2  1  0
  4  5  1  6
  6 10  1  0
  7  6  2  0
  9  8  1  1
  9 11  1  0
 10  9  1  0
 11 13  1  0
 11 12  2  0
 13 17  1  0
 14 15  1  0
 14 13  1  0
 15 16  1  0
 16 17  1  0
 17 18  1  1
 18 19  2  0
 18 20  1  0
M  END
$$$$
