DMH.pdb
     RDKit          3D

 27 27  0  0  1  0  0  0  0  0999 V2000
   21.1778  -13.6362  -16.7492 N   0  0  0  0  0  0  0  0  0  0  0  0
   20.8801  -12.2532  -17.2100 C   0  0  1  0  0  0  0  0  0  0  0  0
   19.3885  -12.1275  -17.1076 C   0  0  0  0  0  0  0  0  0  0  0  0
   18.6697  -12.9839  -18.0582 C   0  0  0  0  0  0  0  0  0  0  0  0
   17.8020  -13.7722  -17.5889 O   0  0  0  0  0  0  0  0  0  0  0  0
   21.5784  -11.3532  -16.2538 C   0  0  0  0  0  0  0  0  0  0  0  0
   21.5786  -11.7097  -15.0619 O   0  0  0  0  0  0  0  0  0  0  0  0
   18.9221  -12.9396  -19.4119 O   0  0  0  0  0  0  0  0  0  0  0  0
   27.7150  -11.7875  -15.7179 C   0  0  0  0  0  0  0  0  0  0  0  0
   26.9416  -10.1928  -16.1194 S   0  0  0  0  0  0  0  0  0  0  0  0
   25.1784  -10.3551  -15.8875 C   0  0  0  0  0  0  0  0  0  0  0  0
   24.3745   -9.0978  -16.0686 C   0  0  0  0  0  0  0  0  0  0  0  0
   22.9346   -9.2179  -15.8610 C   0  0  2  0  0  0  0  0  0  0  0  0
   22.2187  -10.1563  -16.6684 N   0  0  0  0  0  0  0  0  0  0  0  0
   22.1542   -8.0254  -15.5452 C   0  0  0  0  0  0  0  0  0  0  0  0
   21.4328   -7.5050  -16.4281 O   0  0  0  0  0  0  0  0  0  0  0  0
   22.1928   -7.4340  -14.2442 N   0  0  0  0  0  0  0  0  0  0  0  0
   21.3959   -6.2485  -14.0224 C   0  0  1  0  0  0  0  0  0  0  0  0
   20.6647   -6.4248  -12.7073 C   0  0  0  0  0  0  0  0  0  0  0  0
   19.5364   -7.3545  -12.7787 C   0  0  0  0  0  0  0  0  0  0  0  0
   19.0837   -8.0505  -13.8703 C   0  0  0  0  0  0  0  0  0  0  0  0
   17.9949   -8.8025  -13.5206 N   0  0  0  0  0  0  0  0  0  0  0  0
   17.7772   -8.5729  -12.2289 C   0  0  0  0  0  0  0  0  0  0  0  0
   18.6914   -7.7057  -11.7614 N   0  0  0  0  0  0  0  0  0  0  0  0
   22.3023   -5.0913  -13.9207 C   0  0  0  0  0  0  0  0  0  0  0  0
   23.5387   -5.2545  -14.0148 O   0  0  0  0  0  0  0  0  0  0  0  0
   21.7885   -3.8243  -13.7217 O   0  0  0  0  0  0  0  0  0  0  0  0
  2  1  1  1
  2  3  1  0
  3  4  1  0
  4  5  2  0
  6  7  2  0
  6  2  1  0
  8  4  1  0
  9 10  1  0
 10 11  1  0
 11 12  1  0
 13 12  1  6
 13 14  1  0
 14  6  1  0
 15 16  2  0
 15 13  1  0
 17 15  1  0
 18 19  1  1
 18 17  1  0
 20 24  1  0
 20 19  1  0
 21 20  2  0
 22 21  1  0
 22 23  1  0
 23 24  2  0
 25 18  1  0
 26 25  2  0
 27 25  1  0
M  END
$$$$
