DMH.pdb
     RDKit          3D

 27 27  0  0  1  0  0  0  0  0999 V2000
   21.2070  -13.4763  -16.8128 N   0  0  0  0  0  0  0  0  0  0  0  0
   21.3718  -12.2805  -17.6827 C   0  0  1  0  0  0  0  0  0  0  0  0
   19.9954  -11.9954  -18.2075 C   0  0  0  0  0  0  0  0  0  0  0  0
   19.4831  -13.0505  -19.0896 C   0  0  0  0  0  0  0  0  0  0  0  0
   20.2449  -13.4588  -20.0103 O   0  0  0  0  0  0  0  0  0  0  0  0
   21.8581  -11.1973  -16.7871 C   0  0  0  0  0  0  0  0  0  0  0  0
   21.1538  -10.9474  -15.7925 O   0  0  0  0  0  0  0  0  0  0  0  0
   18.2226  -13.5833  -18.9305 O   0  0  0  0  0  0  0  0  0  0  0  0
   27.8853  -12.6142  -14.8238 C   0  0  0  0  0  0  0  0  0  0  0  0
   27.4541  -10.9589  -15.4376 S   0  0  0  0  0  0  0  0  0  0  0  0
   25.6817  -10.8857  -15.6432 C   0  0  0  0  0  0  0  0  0  0  0  0
   25.1223   -9.5483  -16.0411 C   0  0  0  0  0  0  0  0  0  0  0  0
   23.6758   -9.4841  -16.2269 C   0  0  2  0  0  0  0  0  0  0  0  0
   23.0610  -10.4875  -17.0394 N   0  0  0  0  0  0  0  0  0  0  0  0
   23.0246   -8.1824  -16.3382 C   0  0  0  0  0  0  0  0  0  0  0  0
   22.9631   -7.6134  -17.4531 O   0  0  0  0  0  0  0  0  0  0  0  0
   22.4510   -7.5376  -15.1983 N   0  0  0  0  0  0  0  0  0  0  0  0
   21.8717   -6.2272  -15.3899 C   0  0  1  0  0  0  0  0  0  0  0  0
   20.3651   -6.3791  -15.3463 C   0  0  0  0  0  0  0  0  0  0  0  0
   19.6399   -5.1131  -15.4640 C   0  0  0  0  0  0  0  0  0  0  0  0
   20.1592   -3.8559  -15.6395 C   0  0  0  0  0  0  0  0  0  0  0  0
   19.1444   -2.9387  -15.6879 N   0  0  0  0  0  0  0  0  0  0  0  0
   18.0121   -3.6212  -15.5430 C   0  0  0  0  0  0  0  0  0  0  0  0
   18.2851   -4.9301  -15.4068 N   0  0  0  0  0  0  0  0  0  0  0  0
   22.3031   -5.3612  -14.2785 C   0  0  0  0  0  0  0  0  0  0  0  0
   22.0536   -4.1361  -14.3063 O   0  0  0  0  0  0  0  0  0  0  0  0
   22.9834   -5.9009  -13.2038 O   0  0  0  0  0  0  0  0  0  0  0  0
  2  1  1  1
  2  3  1  0
  3  4  1  0
  4  5  2  0
  6  7  2  0
  6  2  1  0
  8  4  1  0
  9 10  1  0
 10 11  1  0
 11 12  1  0
 13 12  1  6
 13 14  1  0
 14  6  1  0
 15 16  2  0
 15 13  1  0
 17 15  1  0
 18 19  1  1
 18 17  1  0
 20 24  1  0
 20 19  1  0
 21 20  2  0
 22 21  1  0
 22 23  1  0
 23 24  2  0
 25 18  1  0
 26 25  2  0
 27 25  1  0
M  END
$$$$
