DMH.pdb
     RDKit          3D

 27 27  0  0  1  0  0  0  0  0999 V2000
   26.6932  -21.5003  -11.6054 N   0  0  0  0  0  0  0  0  0  0  0  0
   25.4419  -20.9358  -11.0314 C   0  0  1  0  0  0  0  0  0  0  0  0
   25.8908  -20.1396   -9.8416 C   0  0  0  0  0  0  0  0  0  0  0  0
   27.1185  -20.6593   -9.2282 C   0  0  0  0  0  0  0  0  0  0  0  0
   27.7363  -21.5706   -9.8466 O   0  0  0  0  0  0  0  0  0  0  0  0
   24.8696  -20.0675  -12.0946 C   0  0  0  0  0  0  0  0  0  0  0  0
   23.9056  -19.3541  -11.7635 O   0  0  0  0  0  0  0  0  0  0  0  0
   27.5895  -20.1807   -8.0251 O   0  0  0  0  0  0  0  0  0  0  0  0
   28.6609  -18.3598  -16.9947 C   0  0  0  0  0  0  0  0  0  0  0  0
   27.9976  -17.0801  -15.8879 S   0  0  0  0  0  0  0  0  0  0  0  0
   26.8147  -17.8494  -14.7934 C   0  0  0  0  0  0  0  0  0  0  0  0
   25.7579  -18.6889  -15.4554 C   0  0  0  0  0  0  0  0  0  0  0  0
   24.8406  -19.3918  -14.5635 C   0  0  2  0  0  0  0  0  0  0  0  0
   25.3912  -20.0406  -13.4143 N   0  0  0  0  0  0  0  0  0  0  0  0
   23.6975  -20.1034  -15.1271 C   0  0  0  0  0  0  0  0  0  0  0  0
   23.6745  -21.3562  -15.1038 O   0  0  0  0  0  0  0  0  0  0  0  0
   22.5962  -19.4006  -15.7079 N   0  0  0  0  0  0  0  0  0  0  0  0
   21.2684  -19.9200  -15.4698 C   0  0  1  0  0  0  0  0  0  0  0  0
   20.9986  -19.8289  -13.9818 C   0  0  0  0  0  0  0  0  0  0  0  0
   19.6697  -20.3029  -13.5923 C   0  0  0  0  0  0  0  0  0  0  0  0
   19.0729  -21.4966  -13.9085 C   0  0  0  0  0  0  0  0  0  0  0  0
   17.8202  -21.5474  -13.3594 N   0  0  0  0  0  0  0  0  0  0  0  0
   17.6451  -20.3985  -12.7128 C   0  0  0  0  0  0  0  0  0  0  0  0
   18.7436  -19.6345  -12.8388 N   0  0  0  0  0  0  0  0  0  0  0  0
   20.3017  -19.0724  -16.1896 C   0  0  0  0  0  0  0  0  0  0  0  0
   20.5710  -17.8731  -16.4204 O   0  0  0  0  0  0  0  0  0  0  0  0
   19.0966  -19.6006  -16.6112 O   0  0  0  0  0  0  0  0  0  0  0  0
  2  1  1  6
  2  3  1  0
  3  4  1  0
  4  5  2  0
  6  7  2  0
  6  2  1  0
  8  4  1  0
  9 10  1  0
 10 11  1  0
 11 12  1  0
 13 12  1  6
 13 14  1  0
 14  6  1  0
 15 16  2  0
 15 13  1  0
 17 15  1  0
 18 19  1  1
 18 17  1  0
 20 24  1  0
 20 19  1  0
 21 20  2  0
 22 21  1  0
 22 23  1  0
 23 24  2  0
 25 18  1  0
 26 25  2  0
 27 25  1  0
M  END
$$$$
