DMH.pdb
     RDKit          3D

 27 27  0  0  1  0  0  0  0  0999 V2000
   19.7971  -13.8648  -16.3848 N   0  0  0  0  0  0  0  0  0  0  0  0
   19.2043  -12.5210  -16.6226 C   0  0  1  0  0  0  0  0  0  0  0  0
   17.7215  -12.7496  -16.6180 C   0  0  0  0  0  0  0  0  0  0  0  0
   17.2527  -13.5247  -17.7727 C   0  0  0  0  0  0  0  0  0  0  0  0
   17.7026  -13.2051  -18.9084 O   0  0  0  0  0  0  0  0  0  0  0  0
   19.6386  -11.6824  -15.4736 C   0  0  0  0  0  0  0  0  0  0  0  0
   19.3267  -12.0946  -14.3420 O   0  0  0  0  0  0  0  0  0  0  0  0
   16.3570  -14.5628  -17.6367 O   0  0  0  0  0  0  0  0  0  0  0  0
   26.1468  -10.3689  -15.0295 C   0  0  0  0  0  0  0  0  0  0  0  0
   24.8661   -9.0838  -15.1342 S   0  0  0  0  0  0  0  0  0  0  0  0
   23.2794   -9.8554  -14.8576 C   0  0  0  0  0  0  0  0  0  0  0  0
   22.1002   -8.9252  -14.7929 C   0  0  0  0  0  0  0  0  0  0  0  0
   20.7912   -9.5535  -14.6417 C   0  0  2  0  0  0  0  0  0  0  0  0
   20.3749  -10.4814  -15.6469 N   0  0  0  0  0  0  0  0  0  0  0  0
   19.6849   -8.7799  -14.0864 C   0  0  0  0  0  0  0  0  0  0  0  0
   18.8534   -8.2462  -14.8574 O   0  0  0  0  0  0  0  0  0  0  0  0
   19.5259   -8.6163  -12.6750 N   0  0  0  0  0  0  0  0  0  0  0  0
   18.3863   -7.8571  -12.2120 C   0  0  1  0  0  0  0  0  0  0  0  0
   17.9993   -8.3930  -10.8489 C   0  0  0  0  0  0  0  0  0  0  0  0
   16.9245   -7.6397  -10.2012 C   0  0  0  0  0  0  0  0  0  0  0  0
   16.2697   -6.5299  -10.6708 C   0  0  0  0  0  0  0  0  0  0  0  0
   15.3381   -6.1203   -9.7555 N   0  0  0  0  0  0  0  0  0  0  0  0
   15.4174   -6.9664   -8.7325 C   0  0  0  0  0  0  0  0  0  0  0  0
   16.3640   -7.8883   -8.9779 N   0  0  0  0  0  0  0  0  0  0  0  0
   18.7901   -6.4462  -12.0804 C   0  0  0  0  0  0  0  0  0  0  0  0
   19.9925   -6.1535  -11.8995 O   0  0  0  0  0  0  0  0  0  0  0  0
   17.8419   -5.4442  -12.1570 O   0  0  0  0  0  0  0  0  0  0  0  0
  2  1  1  1
  2  3  1  0
  3  4  1  0
  4  5  2  0
  6  7  2  0
  6  2  1  0
  8  4  1  0
  9 10  1  0
 10 11  1  0
 11 12  1  0
 13 12  1  6
 13 14  1  0
 14  6  1  0
 15 16  2  0
 15 13  1  0
 17 15  1  0
 18 19  1  1
 18 17  1  0
 20 24  1  0
 20 19  1  0
 21 20  2  0
 22 21  1  0
 22 23  1  0
 23 24  2  0
 25 18  1  0
 26 25  2  0
 27 25  1  0
M  END
$$$$
