DMH.pdb
     RDKit          3D

 27 27  0  0  1  0  0  0  0  0999 V2000
   28.8636  -22.0837  -17.3156 N   0  0  0  0  0  0  0  0  0  0  0  0
   28.4930  -20.7544  -16.7595 C   0  0  1  0  0  0  0  0  0  0  0  0
   27.5785  -20.1512  -17.7846 C   0  0  0  0  0  0  0  0  0  0  0  0
   28.2598  -19.8145  -19.0401 C   0  0  0  0  0  0  0  0  0  0  0  0
   29.3121  -19.1209  -18.9623 O   0  0  0  0  0  0  0  0  0  0  0  0
   27.7837  -21.0375  -15.4833 C   0  0  0  0  0  0  0  0  0  0  0  0
   26.7290  -21.6912  -15.5727 O   0  0  0  0  0  0  0  0  0  0  0  0
   27.7807  -20.2324  -20.2625 O   0  0  0  0  0  0  0  0  0  0  0  0
   30.3325  -22.9075   -9.3615 C   0  0  0  0  0  0  0  0  0  0  0  0
   30.8936  -21.5873  -10.4771 S   0  0  0  0  0  0  0  0  0  0  0  0
   29.8254  -21.5765  -11.9083 C   0  0  0  0  0  0  0  0  0  0  0  0
   28.5578  -20.7795  -11.7746 C   0  0  0  0  0  0  0  0  0  0  0  0
   27.6787  -20.7665  -12.9400 C   0  0  2  0  0  0  0  0  0  0  0  0
   28.2778  -20.5980  -14.2274 N   0  0  0  0  0  0  0  0  0  0  0  0
   26.3624  -20.1440  -12.8377 C   0  0  0  0  0  0  0  0  0  0  0  0
   26.0562  -19.2102  -13.6154 O   0  0  0  0  0  0  0  0  0  0  0  0
   25.4077  -20.5777  -11.8657 N   0  0  0  0  0  0  0  0  0  0  0  0
   24.0200  -20.2426  -12.0926 C   0  0  1  0  0  0  0  0  0  0  0  0
   23.5698  -20.9687  -13.3437 C   0  0  0  0  0  0  0  0  0  0  0  0
   22.1536  -20.7776  -13.6604 C   0  0  0  0  0  0  0  0  0  0  0  0
   21.2320  -20.0201  -12.9839 C   0  0  0  0  0  0  0  0  0  0  0  0
   20.0126  -20.1175  -13.5979 N   0  0  0  0  0  0  0  0  0  0  0  0
   20.1790  -20.9262  -14.6404 C   0  0  0  0  0  0  0  0  0  0  0  0
   21.4579  -21.3354  -14.6982 N   0  0  0  0  0  0  0  0  0  0  0  0
   23.2320  -20.7233  -10.9441 C   0  0  0  0  0  0  0  0  0  0  0  0
   23.6961  -21.6094  -10.1935 O   0  0  0  0  0  0  0  0  0  0  0  0
   21.9796  -20.1960  -10.6941 O   0  0  0  0  0  0  0  0  0  0  0  0
  2  1  1  6
  2  3  1  0
  3  4  1  0
  4  5  2  0
  6  7  2  0
  6  2  1  0
  8  4  1  0
  9 10  1  0
 10 11  1  0
 11 12  1  0
 13 12  1  1
 13 14  1  0
 14  6  1  0
 15 16  2  0
 15 13  1  0
 17 15  1  0
 18 19  1  6
 18 17  1  0
 20 24  1  0
 20 19  1  0
 21 20  2  0
 22 21  1  0
 22 23  1  0
 23 24  2  0
 25 18  1  0
 26 25  2  0
 27 25  1  0
M  END
$$$$
