DMH.pdb
     RDKit          3D

 27 27  0  0  1  0  0  0  0  0999 V2000
   22.5399  -13.6453  -20.9133 N   0  0  0  0  0  0  0  0  0  0  0  0
   22.8436  -14.7188  -19.9289 C   0  0  1  0  0  0  0  0  0  0  0  0
   24.0925  -15.3706  -20.4454 C   0  0  0  0  0  0  0  0  0  0  0  0
   23.8953  -16.0676  -21.7217 C   0  0  0  0  0  0  0  0  0  0  0  0
   24.7170  -15.8248  -22.6493 O   0  0  0  0  0  0  0  0  0  0  0  0
   23.0768  -14.0224  -18.6357 C   0  0  0  0  0  0  0  0  0  0  0  0
   23.5890  -14.7024  -17.7285 O   0  0  0  0  0  0  0  0  0  0  0  0
   22.8586  -16.9544  -21.9136 O   0  0  0  0  0  0  0  0  0  0  0  0
   27.1133   -9.8942  -14.1311 C   0  0  0  0  0  0  0  0  0  0  0  0
   26.7744  -11.1451  -15.4050 S   0  0  0  0  0  0  0  0  0  0  0  0
   25.0674  -10.9832  -15.9041 C   0  0  0  0  0  0  0  0  0  0  0  0
   24.6103  -11.9162  -16.9906 C   0  0  0  0  0  0  0  0  0  0  0  0
   23.2226  -11.7739  -17.4208 C   0  0  2  0  0  0  0  0  0  0  0  0
   22.7447  -12.6565  -18.4393 N   0  0  0  0  0  0  0  0  0  0  0  0
   22.6282  -10.4428  -17.4948 C   0  0  0  0  0  0  0  0  0  0  0  0
   22.9880   -9.6527  -18.3988 O   0  0  0  0  0  0  0  0  0  0  0  0
   21.6385  -10.0165  -16.5552 N   0  0  0  0  0  0  0  0  0  0  0  0
   21.1634   -8.6548  -16.6528 C   0  0  1  0  0  0  0  0  0  0  0  0
   19.6907   -8.6547  -16.2977 C   0  0  0  0  0  0  0  0  0  0  0  0
   19.1135   -7.3155  -16.1719 C   0  0  0  0  0  0  0  0  0  0  0  0
   19.7356   -6.1073  -16.3562 C   0  0  0  0  0  0  0  0  0  0  0  0
   18.8480   -5.0904  -16.1295 N   0  0  0  0  0  0  0  0  0  0  0  0
   17.6918   -5.6637  -15.8081 C   0  0  0  0  0  0  0  0  0  0  0  0
   17.8272   -7.0007  -15.8271 N   0  0  0  0  0  0  0  0  0  0  0  0
   21.8975   -7.8350  -15.6730 C   0  0  0  0  0  0  0  0  0  0  0  0
   22.1487   -6.6357  -15.9233 O   0  0  0  0  0  0  0  0  0  0  0  0
   22.3093   -8.3891  -14.4762 O   0  0  0  0  0  0  0  0  0  0  0  0
  2  1  1  6
  2  3  1  0
  3  4  1  0
  4  5  2  0
  6  7  2  0
  6  2  1  0
  8  4  1  0
  9 10  1  0
 10 11  1  0
 11 12  1  0
 13 12  1  6
 13 14  1  0
 14  6  1  0
 15 16  2  0
 15 13  1  0
 17 15  1  0
 18 19  1  1
 18 17  1  0
 20 24  1  0
 20 19  1  0
 21 20  2  0
 22 21  1  0
 22 23  1  0
 23 24  2  0
 25 18  1  0
 26 25  2  0
 27 25  1  0
M  END
$$$$
