DMH.pdb
     RDKit          3D

 27 27  0  0  1  0  0  0  0  0999 V2000
   19.2959  -24.4805  -14.5316 N   0  0  0  0  0  0  0  0  0  0  0  0
   18.6700  -25.7433  -14.0546 C   0  0  1  0  0  0  0  0  0  0  0  0
   19.4162  -26.8336  -14.7656 C   0  0  0  0  0  0  0  0  0  0  0  0
   18.7316  -27.3102  -15.9730 C   0  0  0  0  0  0  0  0  0  0  0  0
   17.6248  -26.7757  -16.2627 O   0  0  0  0  0  0  0  0  0  0  0  0
   18.9055  -25.7776  -12.5866 C   0  0  0  0  0  0  0  0  0  0  0  0
   20.0117  -26.2099  -12.2162 O   0  0  0  0  0  0  0  0  0  0  0  0
   19.2645  -28.3012  -16.7682 O   0  0  0  0  0  0  0  0  0  0  0  0
   20.7137  -20.9959   -7.3279 C   0  0  0  0  0  0  0  0  0  0  0  0
   20.7117  -21.7484   -8.9820 S   0  0  0  0  0  0  0  0  0  0  0  0
   19.3910  -22.9488   -9.0459 C   0  0  0  0  0  0  0  0  0  0  0  0
   19.2193  -23.6659  -10.3559 C   0  0  0  0  0  0  0  0  0  0  0  0
   18.1494  -24.6575  -10.4125 C   0  0  2  0  0  0  0  0  0  0  0  0
   17.9326  -25.3369  -11.6519 N   0  0  0  0  0  0  0  0  0  0  0  0
   16.9165  -24.4248   -9.6665 C   0  0  0  0  0  0  0  0  0  0  0  0
   16.1596  -23.4827   -9.9984 O   0  0  0  0  0  0  0  0  0  0  0  0
   16.5493  -25.2519   -8.5596 N   0  0  0  0  0  0  0  0  0  0  0  0
   15.3140  -24.9456   -7.8742 C   0  0  1  0  0  0  0  0  0  0  0  0
   14.9437  -26.1497   -7.0327 C   0  0  0  0  0  0  0  0  0  0  0  0
   14.3263  -27.2359   -7.7951 C   0  0  0  0  0  0  0  0  0  0  0  0
   13.8539  -27.2017   -9.0822 C   0  0  0  0  0  0  0  0  0  0  0  0
   13.3394  -28.4245   -9.4190 N   0  0  0  0  0  0  0  0  0  0  0  0
   13.4915  -29.2042   -8.3524 C   0  0  0  0  0  0  0  0  0  0  0  0
   14.0825  -28.5115   -7.3640 N   0  0  0  0  0  0  0  0  0  0  0  0
   15.5473  -23.7904   -6.9898 C   0  0  0  0  0  0  0  0  0  0  0  0
   16.6770  -23.2561   -6.9428 O   0  0  0  0  0  0  0  0  0  0  0  0
   14.5188  -23.2953   -6.2113 O   0  0  0  0  0  0  0  0  0  0  0  0
  2  1  1  6
  2  3  1  0
  3  4  1  0
  4  5  2  0
  6  7  2  0
  6  2  1  0
  8  4  1  0
  9 10  1  0
 10 11  1  0
 11 12  1  0
 13 12  1  6
 13 14  1  0
 14  6  1  0
 15 16  2  0
 15 13  1  0
 17 15  1  0
 18 19  1  1
 18 17  1  0
 20 24  1  0
 20 19  1  0
 21 20  2  0
 22 21  1  0
 22 23  1  0
 23 24  2  0
 25 18  1  0
 26 25  2  0
 27 25  1  0
M  END
$$$$
