DMH.pdb
     RDKit          3D

 27 27  0  0  1  0  0  0  0  0999 V2000
   14.6625  -21.3661    1.5675 N   0  0  0  0  0  0  0  0  0  0  0  0
   14.4090  -20.2454    2.5127 C   0  0  1  0  0  0  0  0  0  0  0  0
   13.3535  -20.7619    3.4457 C   0  0  0  0  0  0  0  0  0  0  0  0
   11.9913  -20.4082    3.0300 C   0  0  0  0  0  0  0  0  0  0  0  0
   11.0372  -20.8501    3.7293 O   0  0  0  0  0  0  0  0  0  0  0  0
   15.7002  -20.0116    3.2127 C   0  0  0  0  0  0  0  0  0  0  0  0
   16.4328  -21.0057    3.3633 O   0  0  0  0  0  0  0  0  0  0  0  0
   11.7488  -19.6256    1.9223 O   0  0  0  0  0  0  0  0  0  0  0  0
   18.2207  -13.8686    1.5594 C   0  0  0  0  0  0  0  0  0  0  0  0
   18.0942  -14.5084    3.2556 S   0  0  0  0  0  0  0  0  0  0  0  0
   17.7675  -16.2618    3.1663 C   0  0  0  0  0  0  0  0  0  0  0  0
   17.6359  -16.9724    4.4845 C   0  0  0  0  0  0  0  0  0  0  0  0
   17.2599  -18.3816    4.4223 C   0  0  2  0  0  0  0  0  0  0  0  0
   16.0883  -18.7287    3.6797 N   0  0  0  0  0  0  0  0  0  0  0  0
   17.4662  -19.2305    5.5917 C   0  0  0  0  0  0  0  0  0  0  0  0
   16.7944  -20.2806    5.7216 O   0  0  0  0  0  0  0  0  0  0  0  0
   18.4230  -18.8909    6.5983 N   0  0  0  0  0  0  0  0  0  0  0  0
   18.7062  -19.8786    7.6150 C   0  0  1  0  0  0  0  0  0  0  0  0
   19.4139  -21.0387    6.9453 C   0  0  0  0  0  0  0  0  0  0  0  0
   18.5818  -22.2341    6.8003 C   0  0  0  0  0  0  0  0  0  0  0  0
   17.3720  -22.3486    6.1646 C   0  0  0  0  0  0  0  0  0  0  0  0
   16.9158  -23.6350    6.2662 N   0  0  0  0  0  0  0  0  0  0  0  0
   17.8324  -24.3066    6.9572 C   0  0  0  0  0  0  0  0  0  0  0  0
   18.8431  -23.4852    7.2889 N   0  0  0  0  0  0  0  0  0  0  0  0
   19.6061  -19.2738    8.6128 C   0  0  0  0  0  0  0  0  0  0  0  0
   20.3288  -18.3032    8.2970 O   0  0  0  0  0  0  0  0  0  0  0  0
   19.6530  -19.7772    9.8986 O   0  0  0  0  0  0  0  0  0  0  0  0
  2  1  1  6
  2  3  1  0
  3  4  1  0
  4  5  2  0
  6  7  2  0
  6  2  1  0
  8  4  1  0
  9 10  1  0
 10 11  1  0
 11 12  1  0
 13 12  1  1
 13 14  1  0
 14  6  1  0
 15 16  2  0
 15 13  1  0
 17 15  1  0
 18 19  1  6
 18 17  1  0
 20 24  1  0
 20 19  1  0
 21 20  2  0
 22 21  1  0
 22 23  1  0
 23 24  2  0
 25 18  1  0
 26 25  2  0
 27 25  1  0
M  END
$$$$
