DMH.pdb
     RDKit          3D

 27 27  0  0  1  0  0  0  0  0999 V2000
   25.0839  -33.3460  -19.0988 N   0  0  0  0  0  0  0  0  0  0  0  0
   25.5188  -32.0569  -19.7012 C   0  0  1  0  0  0  0  0  0  0  0  0
   24.2438  -31.3377  -20.0299 C   0  0  0  0  0  0  0  0  0  0  0  0
   23.5124  -31.9406  -21.1502 C   0  0  0  0  0  0  0  0  0  0  0  0
   24.1923  -32.5136  -22.0468 O   0  0  0  0  0  0  0  0  0  0  0  0
   26.2904  -31.3583  -18.6388 C   0  0  0  0  0  0  0  0  0  0  0  0
   26.0284  -30.1540  -18.4695 O   0  0  0  0  0  0  0  0  0  0  0  0
   22.1380  -31.8905  -21.2328 O   0  0  0  0  0  0  0  0  0  0  0  0
   23.8340  -32.8475  -14.6088 C   0  0  0  0  0  0  0  0  0  0  0  0
   25.3255  -32.9816  -15.6383 S   0  0  0  0  0  0  0  0  0  0  0  0
   26.6677  -32.1729  -14.7817 C   0  0  0  0  0  0  0  0  0  0  0  0
   27.9938  -32.1754  -15.4897 C   0  0  0  0  0  0  0  0  0  0  0  0
   28.0399  -31.4836  -16.7743 C   0  0  2  0  0  0  0  0  0  0  0  0
   27.2676  -32.0210  -17.8511 N   0  0  0  0  0  0  0  0  0  0  0  0
   29.2918  -30.8777  -17.2174 C   0  0  0  0  0  0  0  0  0  0  0  0
   29.9944  -30.2383  -16.3998 O   0  0  0  0  0  0  0  0  0  0  0  0
   29.7388  -30.9978  -18.5701 N   0  0  0  0  0  0  0  0  0  0  0  0
   30.9726  -30.3361  -18.9301 C   0  0  1  0  0  0  0  0  0  0  0  0
   32.0176  -31.4073  -19.1656 C   0  0  0  0  0  0  0  0  0  0  0  0
   32.5404  -32.0032  -17.9352 C   0  0  0  0  0  0  0  0  0  0  0  0
   33.1951  -31.3769  -16.9056 C   0  0  0  0  0  0  0  0  0  0  0  0
   33.5313  -32.2928  -15.9458 N   0  0  0  0  0  0  0  0  0  0  0  0
   33.0905  -33.4708  -16.3779 C   0  0  0  0  0  0  0  0  0  0  0  0
   32.4914  -33.3215  -17.5716 N   0  0  0  0  0  0  0  0  0  0  0  0
   30.7523  -29.5913  -20.1823 C   0  0  0  0  0  0  0  0  0  0  0  0
   29.6059  -29.5244  -20.6774 O   0  0  0  0  0  0  0  0  0  0  0  0
   31.8113  -28.9654  -20.8113 O   0  0  0  0  0  0  0  0  0  0  0  0
  2  1  1  1
  2  3  1  0
  3  4  1  0
  4  5  2  0
  6  7  2  0
  6  2  1  0
  8  4  1  0
  9 10  1  0
 10 11  1  0
 11 12  1  0
 13 12  1  1
 13 14  1  0
 14  6  1  0
 15 16  2  0
 15 13  1  0
 17 15  1  0
 18 19  1  6
 18 17  1  0
 20 24  1  0
 20 19  1  0
 21 20  2  0
 22 21  1  0
 22 23  1  0
 23 24  2  0
 25 18  1  0
 26 25  2  0
 27 25  1  0
M  END
$$$$
