DMH.pdb
     RDKit          3D

 27 27  0  0  1  0  0  0  0  0999 V2000
   28.4849  -20.0313  -14.0860 N   0  0  0  0  0  0  0  0  0  0  0  0
   27.2167  -19.8221  -14.8356 C   0  0  1  0  0  0  0  0  0  0  0  0
   27.4570  -20.4478  -16.1779 C   0  0  0  0  0  0  0  0  0  0  0  0
   28.3487  -19.6562  -17.0333 C   0  0  0  0  0  0  0  0  0  0  0  0
   28.7693  -18.5573  -16.5749 O   0  0  0  0  0  0  0  0  0  0  0  0
   26.1718  -20.5480  -14.0655 C   0  0  0  0  0  0  0  0  0  0  0  0
   25.2365  -21.0323  -14.7276 O   0  0  0  0  0  0  0  0  0  0  0  0
   28.7204  -20.0835  -18.2894 O   0  0  0  0  0  0  0  0  0  0  0  0
   26.8994  -19.3634   -7.2713 C   0  0  0  0  0  0  0  0  0  0  0  0
   25.8151  -20.5435   -8.1282 S   0  0  0  0  0  0  0  0  0  0  0  0
   26.5925  -20.9947   -9.6713 C   0  0  0  0  0  0  0  0  0  0  0  0
   25.8095  -21.9281  -10.5519 C   0  0  0  0  0  0  0  0  0  0  0  0
   25.3038  -21.3646  -11.8000 C   0  0  2  0  0  0  0  0  0  0  0  0
   26.2325  -20.6928  -12.6549 N   0  0  0  0  0  0  0  0  0  0  0  0
   23.9698  -20.7728  -11.8303 C   0  0  0  0  0  0  0  0  0  0  0  0
   23.8454  -19.5263  -11.8675 O   0  0  0  0  0  0  0  0  0  0  0  0
   22.7944  -21.5867  -11.8195 N   0  0  0  0  0  0  0  0  0  0  0  0
   21.5372  -20.9537  -12.1489 C   0  0  1  0  0  0  0  0  0  0  0  0
   21.8338  -19.5241  -12.5533 C   0  0  0  0  0  0  0  0  0  0  0  0
   21.4413  -19.2052  -13.9268 C   0  0  0  0  0  0  0  0  0  0  0  0
   20.9052  -20.0459  -14.8685 C   0  0  0  0  0  0  0  0  0  0  0  0
   20.6919  -19.3598  -16.0335 N   0  0  0  0  0  0  0  0  0  0  0  0
   21.0924  -18.1108  -15.8142 C   0  0  0  0  0  0  0  0  0  0  0  0
   21.5467  -17.9940  -14.5547 N   0  0  0  0  0  0  0  0  0  0  0  0
   20.9434  -21.6670  -13.2933 C   0  0  0  0  0  0  0  0  0  0  0  0
   21.4983  -22.6910  -13.7489 O   0  0  0  0  0  0  0  0  0  0  0  0
   19.7728  -21.2066  -13.8647 O   0  0  0  0  0  0  0  0  0  0  0  0
  2  1  1  1
  2  3  1  0
  3  4  1  0
  4  5  2  0
  6  7  2  0
  6  2  1  0
  8  4  1  0
  9 10  1  0
 10 11  1  0
 11 12  1  0
 13 12  1  1
 13 14  1  0
 14  6  1  0
 15 16  2  0
 15 13  1  0
 17 15  1  0
 18 19  1  6
 18 17  1  0
 20 24  1  0
 20 19  1  0
 21 20  2  0
 22 21  1  0
 22 23  1  0
 23 24  2  0
 25 18  1  0
 26 25  2  0
 27 25  1  0
M  END
$$$$
