DMH.pdb
     RDKit          3D

 27 27  0  0  1  0  0  0  0  0999 V2000
   14.6480   -9.9540  -10.0731 N   0  0  0  0  0  0  0  0  0  0  0  0
   16.0105   -9.5214  -10.4858 C   0  0  1  0  0  0  0  0  0  0  0  0
   16.2541  -10.2164  -11.7929 C   0  0  0  0  0  0  0  0  0  0  0  0
   16.4519  -11.6635  -11.6501 C   0  0  0  0  0  0  0  0  0  0  0  0
   16.4492  -12.1376  -10.4797 O   0  0  0  0  0  0  0  0  0  0  0  0
   15.9297   -8.0455  -10.6502 C   0  0  0  0  0  0  0  0  0  0  0  0
   15.0015   -7.6206  -11.3612 O   0  0  0  0  0  0  0  0  0  0  0  0
   16.6345  -12.4840  -12.7418 O   0  0  0  0  0  0  0  0  0  0  0  0
   12.2169   -5.1319   -7.7397 C   0  0  0  0  0  0  0  0  0  0  0  0
   14.0134   -4.9464   -7.5379 S   0  0  0  0  0  0  0  0  0  0  0  0
   14.7641   -5.0017   -9.1574 C   0  0  0  0  0  0  0  0  0  0  0  0
   16.2642   -4.9082   -9.1885 C   0  0  0  0  0  0  0  0  0  0  0  0
   16.9416   -5.7424  -10.1765 C   0  0  2  0  0  0  0  0  0  0  0  0
   16.8501   -7.1617  -10.0287 N   0  0  0  0  0  0  0  0  0  0  0  0
   18.2232   -5.3075  -10.7237 C   0  0  0  0  0  0  0  0  0  0  0  0
   19.2500   -5.3505  -10.0064 O   0  0  0  0  0  0  0  0  0  0  0  0
   18.3355   -4.8316  -12.0672 N   0  0  0  0  0  0  0  0  0  0  0  0
   19.6586   -4.5225  -12.5608 C   0  0  1  0  0  0  0  0  0  0  0  0
   19.9304   -5.4263  -13.7458 C   0  0  0  0  0  0  0  0  0  0  0  0
   20.0030   -6.8469  -13.4010 C   0  0  0  0  0  0  0  0  0  0  0  0
   20.9520   -7.4843  -12.6433 C   0  0  0  0  0  0  0  0  0  0  0  0
   20.6644   -8.8205  -12.5696 N   0  0  0  0  0  0  0  0  0  0  0  0
   19.5518   -9.0061  -13.2741 C   0  0  0  0  0  0  0  0  0  0  0  0
   19.1359   -7.8339  -13.7832 N   0  0  0  0  0  0  0  0  0  0  0  0
   19.6712   -3.1191  -13.0096 C   0  0  0  0  0  0  0  0  0  0  0  0
   18.6202   -2.4421  -12.9771 O   0  0  0  0  0  0  0  0  0  0  0  0
   20.8436   -2.5485  -13.4666 O   0  0  0  0  0  0  0  0  0  0  0  0
  2  1  1  6
  2  3  1  0
  3  4  1  0
  4  5  2  0
  6  7  2  0
  6  2  1  0
  8  4  1  0
  9 10  1  0
 10 11  1  0
 11 12  1  0
 13 12  1  1
 13 14  1  0
 14  6  1  0
 15 16  2  0
 15 13  1  0
 17 15  1  0
 18 19  1  6
 18 17  1  0
 20 24  1  0
 20 19  1  0
 21 20  2  0
 22 21  1  0
 22 23  1  0
 23 24  2  0
 25 18  1  0
 26 25  2  0
 27 25  1  0
M  END
$$$$
