DMH.pdb
     RDKit          3D

 27 27  0  0  1  0  0  0  0  0999 V2000
   20.7711  -11.7262  -17.3583 N   0  0  0  0  0  0  0  0  0  0  0  0
   19.9737  -11.3120  -16.1725 C   0  0  1  0  0  0  0  0  0  0  0  0
   19.6304  -12.5947  -15.4740 C   0  0  0  0  0  0  0  0  0  0  0  0
   18.6070  -13.3786  -16.1753 C   0  0  0  0  0  0  0  0  0  0  0  0
   18.1387  -12.8981  -17.2450 O   0  0  0  0  0  0  0  0  0  0  0  0
   20.8816  -10.4629  -15.3559 C   0  0  0  0  0  0  0  0  0  0  0  0
   20.5442  -10.2747  -14.1733 O   0  0  0  0  0  0  0  0  0  0  0  0
   18.1657  -14.5928  -15.6964 O   0  0  0  0  0  0  0  0  0  0  0  0
   27.6019  -11.2892  -17.1110 C   0  0  0  0  0  0  0  0  0  0  0  0
   26.7339  -10.8574  -15.5738 S   0  0  0  0  0  0  0  0  0  0  0  0
   25.1355  -10.1886  -16.0061 C   0  0  0  0  0  0  0  0  0  0  0  0
   24.3149   -9.6595  -14.8630 C   0  0  0  0  0  0  0  0  0  0  0  0
   23.0255   -9.0714  -15.2132 C   0  0  2  0  0  0  0  0  0  0  0  0
   22.0728   -9.9003  -15.8841 N   0  0  0  0  0  0  0  0  0  0  0  0
   22.9658   -7.6759  -15.6371 C   0  0  0  0  0  0  0  0  0  0  0  0
   22.9446   -7.3998  -16.8594 O   0  0  0  0  0  0  0  0  0  0  0  0
   22.9298   -6.6100  -14.6850 N   0  0  0  0  0  0  0  0  0  0  0  0
   22.2645   -5.3866  -15.0727 C   0  0  1  0  0  0  0  0  0  0  0  0
   20.7981   -5.7058  -15.2799 C   0  0  0  0  0  0  0  0  0  0  0  0
   20.4296   -5.9065  -16.6821 C   0  0  0  0  0  0  0  0  0  0  0  0
   21.2158   -5.7413  -17.7936 C   0  0  0  0  0  0  0  0  0  0  0  0
   20.4889   -6.0179  -18.9199 N   0  0  0  0  0  0  0  0  0  0  0  0
   19.2682   -6.3489  -18.5089 C   0  0  0  0  0  0  0  0  0  0  0  0
   19.2088   -6.2892  -17.1675 N   0  0  0  0  0  0  0  0  0  0  0  0
   22.3976   -4.4162  -13.9719 C   0  0  0  0  0  0  0  0  0  0  0  0
   22.0585   -3.2247  -14.1434 O   0  0  0  0  0  0  0  0  0  0  0  0
   22.8967   -4.8204  -12.7487 O   0  0  0  0  0  0  0  0  0  0  0  0
  2  1  1  6
  2  3  1  0
  3  4  1  0
  4  5  2  0
  6  7  2  0
  6  2  1  0
  8  4  1  0
  9 10  1  0
 10 11  1  0
 11 12  1  0
 13 12  1  6
 13 14  1  0
 14  6  1  0
 15 16  2  0
 15 13  1  0
 17 15  1  0
 18 19  1  1
 18 17  1  0
 20 24  1  0
 20 19  1  0
 21 20  2  0
 22 21  1  0
 22 23  1  0
 23 24  2  0
 25 18  1  0
 26 25  2  0
 27 25  1  0
M  END
$$$$
