DMH.pdb
     RDKit          3D

 27 27  0  0  1  0  0  0  0  0999 V2000
   20.1386  -16.5841  -15.0124 N   0  0  0  0  0  0  0  0  0  0  0  0
   20.1376  -15.5954  -16.1243 C   0  0  1  0  0  0  0  0  0  0  0  0
   18.6947  -15.2289  -16.3104 C   0  0  0  0  0  0  0  0  0  0  0  0
   17.9001  -16.3011  -16.9209 C   0  0  0  0  0  0  0  0  0  0  0  0
   18.5270  -17.2261  -17.5090 O   0  0  0  0  0  0  0  0  0  0  0  0
   20.9429  -14.4438  -15.6373 C   0  0  0  0  0  0  0  0  0  0  0  0
   20.4875  -13.8290  -14.6562 O   0  0  0  0  0  0  0  0  0  0  0  0
   16.5236  -16.3102  -16.8619 O   0  0  0  0  0  0  0  0  0  0  0  0
   27.9710  -10.8874  -15.0183 C   0  0  0  0  0  0  0  0  0  0  0  0
   27.1142  -12.3592  -15.6524 S   0  0  0  0  0  0  0  0  0  0  0  0
   25.3554  -12.0816  -15.5154 C   0  0  0  0  0  0  0  0  0  0  0  0
   24.4764  -13.2324  -15.9192 C   0  0  0  0  0  0  0  0  0  0  0  0
   23.0374  -12.9911  -15.8738 C   0  0  2  0  0  0  0  0  0  0  0  0
   22.1677  -14.0636  -16.2455 N   0  0  0  0  0  0  0  0  0  0  0  0
   22.5184  -11.6797  -16.2499 C   0  0  0  0  0  0  0  0  0  0  0  0
   22.2369  -11.4450  -17.4484 O   0  0  0  0  0  0  0  0  0  0  0  0
   22.3216  -10.6504  -15.2773 N   0  0  0  0  0  0  0  0  0  0  0  0
   21.7727   -9.3932  -15.7329 C   0  0  1  0  0  0  0  0  0  0  0  0
   20.3478   -9.6480  -16.1798 C   0  0  0  0  0  0  0  0  0  0  0  0
   19.6450   -8.4448  -16.6280 C   0  0  0  0  0  0  0  0  0  0  0  0
   20.1291   -7.1640  -16.7056 C   0  0  0  0  0  0  0  0  0  0  0  0
   19.1485   -6.3256  -17.1626 N   0  0  0  0  0  0  0  0  0  0  0  0
   18.0714   -7.0794  -17.3637 C   0  0  0  0  0  0  0  0  0  0  0  0
   18.3462   -8.3569  -17.0492 N   0  0  0  0  0  0  0  0  0  0  0  0
   21.7633   -8.4520  -14.5992 C   0  0  0  0  0  0  0  0  0  0  0  0
   22.1936   -8.8135  -13.4820 O   0  0  0  0  0  0  0  0  0  0  0  0
   21.2798   -7.1688  -14.7682 O   0  0  0  0  0  0  0  0  0  0  0  0
  2  1  1  1
  2  3  1  0
  3  4  1  0
  4  5  2  0
  6  7  2  0
  6  2  1  0
  8  4  1  0
  9 10  1  0
 10 11  1  0
 11 12  1  0
 13 12  1  6
 13 14  1  0
 14  6  1  0
 15 16  2  0
 15 13  1  0
 17 15  1  0
 18 19  1  1
 18 17  1  0
 20 24  1  0
 20 19  1  0
 21 20  2  0
 22 21  1  0
 22 23  1  0
 23 24  2  0
 25 18  1  0
 26 25  2  0
 27 25  1  0
M  END
$$$$
