DMH.pdb
     RDKit          3D

 27 27  0  0  1  0  0  0  0  0999 V2000
   24.7162   -3.2174  -20.8019 N   0  0  0  0  0  0  0  0  0  0  0  0
   24.8445   -3.4992  -19.3466 C   0  0  1  0  0  0  0  0  0  0  0  0
   23.5328   -3.0726  -18.7562 C   0  0  0  0  0  0  0  0  0  0  0  0
   23.3989   -1.6160  -18.6372 C   0  0  0  0  0  0  0  0  0  0  0  0
   24.3979   -0.9127  -18.9565 O   0  0  0  0  0  0  0  0  0  0  0  0
   25.0481   -4.9685  -19.2394 C   0  0  0  0  0  0  0  0  0  0  0  0
   25.7390   -5.4952  -20.1299 O   0  0  0  0  0  0  0  0  0  0  0  0
   22.2346   -1.0262  -18.1959 O   0  0  0  0  0  0  0  0  0  0  0  0
   27.8588  -11.5474  -18.0774 C   0  0  0  0  0  0  0  0  0  0  0  0
   27.8853   -9.7506  -18.3485 S   0  0  0  0  0  0  0  0  0  0  0  0
   26.2984   -9.0910  -17.8630 C   0  0  0  0  0  0  0  0  0  0  0  0
   26.0987   -7.6202  -18.1014 C   0  0  0  0  0  0  0  0  0  0  0  0
   24.7545   -7.1047  -17.8598 C   0  0  2  0  0  0  0  0  0  0  0  0
   24.4961   -5.7353  -18.1802 N   0  0  0  0  0  0  0  0  0  0  0  0
   24.0081   -7.5682  -16.6941 C   0  0  0  0  0  0  0  0  0  0  0  0
   24.2858   -7.1140  -15.5595 O   0  0  0  0  0  0  0  0  0  0  0  0
   22.9606   -8.5335  -16.8169 N   0  0  0  0  0  0  0  0  0  0  0  0
   22.2197   -8.8748  -15.6235 C   0  0  1  0  0  0  0  0  0  0  0  0
   21.5085   -7.6238  -15.1499 C   0  0  0  0  0  0  0  0  0  0  0  0
   20.5371   -7.8651  -14.0819 C   0  0  0  0  0  0  0  0  0  0  0  0
   20.6699   -8.6825  -12.9887 C   0  0  0  0  0  0  0  0  0  0  0  0
   19.5273   -8.6383  -12.2364 N   0  0  0  0  0  0  0  0  0  0  0  0
   18.6985   -7.8045  -12.8581 C   0  0  0  0  0  0  0  0  0  0  0  0
   19.2839   -7.3273  -13.9698 N   0  0  0  0  0  0  0  0  0  0  0  0
   21.2184   -9.8972  -15.9745 C   0  0  0  0  0  0  0  0  0  0  0  0
   21.1727  -10.3554  -17.1373 O   0  0  0  0  0  0  0  0  0  0  0  0
   20.3288  -10.3518  -15.0202 O   0  0  0  0  0  0  0  0  0  0  0  0
  2  1  1  6
  2  3  1  0
  3  4  1  0
  4  5  2  0
  6  7  2  0
  6  2  1  0
  8  4  1  0
  9 10  1  0
 10 11  1  0
 11 12  1  0
 13 12  1  1
 13 14  1  0
 14  6  1  0
 15 16  2  0
 15 13  1  0
 17 15  1  0
 18 19  1  6
 18 17  1  0
 20 24  1  0
 20 19  1  0
 21 20  2  0
 22 21  1  0
 22 23  1  0
 23 24  2  0
 25 18  1  0
 26 25  2  0
 27 25  1  0
M  END
$$$$
