FHR.pdb
     RDKit          3D

 33 34  0  0  1  0  0  0  0  0999 V2000
   24.4829  -14.6916  -16.9050 N   0  0  0  0  0  0  0  0  0  0  0  0
   24.7622  -16.0725  -16.6351 C   0  0  1  0  0  0  0  0  0  0  0  0
   25.7224  -16.1806  -15.4727 C   0  0  0  0  0  0  0  0  0  0  0  0
   27.0815  -15.7387  -15.8359 C   0  0  0  0  0  0  0  0  0  0  0  0
   27.5870  -14.5375  -15.4392 C   0  0  0  0  0  0  0  0  0  0  0  0
   28.8772  -14.1656  -15.8087 C   0  0  0  0  0  0  0  0  0  0  0  0
   29.6736  -14.9869  -16.5758 C   0  0  0  0  0  0  0  0  0  0  0  0
   29.1554  -16.2002  -16.9732 C   0  0  0  0  0  0  0  0  0  0  0  0
   27.8746  -16.5800  -16.6119 C   0  0  0  0  0  0  0  0  0  0  0  0
   23.4737  -16.7401  -16.2270 C   0  0  0  0  0  0  0  0  0  0  0  0
   22.8101  -16.3058  -15.2529 O   0  0  0  0  0  0  0  0  0  0  0  0
   22.9842  -17.8704  -16.9329 N   0  0  0  0  0  0  0  0  0  0  0  0
   21.7770  -18.5936  -16.6339 C   0  0  1  0  0  0  0  0  0  0  0  0
   20.9534  -18.9378  -17.8226 C   0  0  0  0  0  0  0  0  0  0  0  0
   19.6585  -19.5603  -17.4813 C   0  0  0  0  0  0  0  0  0  0  0  0
   19.1466  -19.8765  -16.2460 C   0  0  0  0  0  0  0  0  0  0  0  0
   17.9119  -20.4393  -16.4042 N   0  0  0  0  0  0  0  0  0  0  0  0
   17.6667  -20.4680  -17.7426 C   0  0  0  0  0  0  0  0  0  0  0  0
   18.7318  -19.9334  -18.3744 N   0  0  0  0  0  0  0  0  0  0  0  0
   21.9369  -19.6830  -15.6408 C   0  0  0  0  0  0  0  0  0  0  0  0
   22.7567  -20.6004  -15.8583 O   0  0  0  0  0  0  0  0  0  0  0  0
   27.1745  -20.1733  -11.4660 N   0  0  0  0  0  0  0  0  0  0  0  0
   26.5647  -21.3118  -12.0457 C   0  0  0  0  0  0  0  0  0  0  0  0
   27.2770  -22.1646  -12.6963 N   0  0  0  0  0  0  0  0  0  0  0  0
   25.1697  -21.5571  -11.9356 N   0  0  0  0  0  0  0  0  0  0  0  0
   24.2423  -20.5805  -11.4125 C   0  0  0  0  0  0  0  0  0  0  0  0
   22.8283  -21.1027  -11.4209 C   0  0  0  0  0  0  0  0  0  0  0  0
   21.8797  -20.2509  -12.1803 C   0  0  0  0  0  0  0  0  0  0  0  0
   21.4064  -20.8465  -13.4861 C   0  0  2  0  0  0  0  0  0  0  0  0
   21.2065  -19.7549  -14.4360 N   0  0  0  0  0  0  0  0  0  0  0  0
   20.1055  -21.5117  -13.3248 C   0  0  0  0  0  0  0  0  0  0  0  0
   18.9114  -20.8267  -13.3884 O   0  0  0  0  0  0  0  0  0  0  0  0
   20.0687  -22.7423  -13.1223 O   0  0  0  0  0  0  0  0  0  0  0  0
  2  1  1  1
  2 10  1  0
  2  3  1  0
  4  3  1  0
  4  5  2  0
  6  5  1  0
  7  6  2  0
  8  9  2  0
  8  7  1  0
  9  4  1  0
 10 11  2  0
 12 13  1  0
 12 10  1  0
 13 14  1  6
 15 14  1  0
 16 15  2  0
 17 16  1  0
 18 17  1  0
 18 19  2  0
 19 15  1  0
 20 30  1  0
 20 13  1  0
 21 20  2  0
 23 24  2  0
 23 22  1  0
 25 23  1  0
 26 25  1  0
 26 27  1  0
 27 28  1  0
 29 30  1  0
 29 28  1  1
 31 32  1  0
 31 29  1  0
 33 31  2  0
M  END
$$$$
