FHR.pdb
     RDKit          3D

 33 34  0  0  1  0  0  0  0  0999 V2000
   25.1519  -21.2301   -7.2326 N   0  0  0  0  0  0  0  0  0  0  0  0
   25.6550  -20.2773   -8.1796 C   0  0  1  0  0  0  0  0  0  0  0  0
   27.1634  -20.2250   -8.0979 C   0  0  0  0  0  0  0  0  0  0  0  0
   27.6284  -19.6970   -6.8020 C   0  0  0  0  0  0  0  0  0  0  0  0
   27.4405  -18.3986   -6.4349 C   0  0  0  0  0  0  0  0  0  0  0  0
   27.8987  -17.9479   -5.1994 C   0  0  0  0  0  0  0  0  0  0  0  0
   28.5475  -18.7867   -4.3203 C   0  0  0  0  0  0  0  0  0  0  0  0
   28.7339  -20.0985   -4.6986 C   0  0  0  0  0  0  0  0  0  0  0  0
   28.2827  -20.5571   -5.9239 C   0  0  0  0  0  0  0  0  0  0  0  0
   25.2886  -20.7529   -9.5624 C   0  0  0  0  0  0  0  0  0  0  0  0
   25.4872  -21.9462   -9.9007 O   0  0  0  0  0  0  0  0  0  0  0  0
   24.7130  -19.8650  -10.5088 N   0  0  0  0  0  0  0  0  0  0  0  0
   24.3322  -20.1987  -11.8554 C   0  0  1  0  0  0  0  0  0  0  0  0
   23.0037  -19.6751  -12.2688 C   0  0  0  0  0  0  0  0  0  0  0  0
   21.8758  -20.2921  -11.5422 C   0  0  0  0  0  0  0  0  0  0  0  0
   21.8995  -21.2311  -10.5393 C   0  0  0  0  0  0  0  0  0  0  0  0
   20.6175  -21.5139  -10.1610 N   0  0  0  0  0  0  0  0  0  0  0  0
   19.8052  -20.7446  -10.9360 C   0  0  0  0  0  0  0  0  0  0  0  0
   20.5833  -20.0152  -11.7619 N   0  0  0  0  0  0  0  0  0  0  0  0
   25.4111  -20.0448  -12.8609 C   0  0  0  0  0  0  0  0  0  0  0  0
   26.1432  -19.0329  -12.8299 O   0  0  0  0  0  0  0  0  0  0  0  0
   31.2141  -25.7301  -16.4047 N   0  0  0  0  0  0  0  0  0  0  0  0
   31.3972  -24.4812  -17.0456 C   0  0  0  0  0  0  0  0  0  0  0  0
   32.3464  -24.3282  -17.9020 N   0  0  0  0  0  0  0  0  0  0  0  0
   30.5578  -23.3669  -16.7772 N   0  0  0  0  0  0  0  0  0  0  0  0
   29.4313  -23.4349  -15.8750 C   0  0  0  0  0  0  0  0  0  0  0  0
   28.7093  -22.1143  -15.7936 C   0  0  0  0  0  0  0  0  0  0  0  0
   27.5313  -22.1304  -14.8913 C   0  0  0  0  0  0  0  0  0  0  0  0
   26.7849  -20.8189  -14.8079 C   0  0  2  0  0  0  0  0  0  0  0  0
   25.6728  -20.9887  -13.8762 N   0  0  0  0  0  0  0  0  0  0  0  0
   26.1984  -20.4592  -16.1070 C   0  0  0  0  0  0  0  0  0  0  0  0
   24.8860  -20.7313  -16.4270 O   0  0  0  0  0  0  0  0  0  0  0  0
   26.9059  -19.8856  -16.9598 O   0  0  0  0  0  0  0  0  0  0  0  0
  2  1  1  1
  2 10  1  0
  2  3  1  0
  4  3  1  0
  4  5  2  0
  6  5  1  0
  7  6  2  0
  8  9  2  0
  8  7  1  0
  9  4  1  0
 10 11  2  0
 12 13  1  0
 12 10  1  0
 13 14  1  6
 15 14  1  0
 16 15  2  0
 17 16  1  0
 18 17  1  0
 18 19  2  0
 19 15  1  0
 20 30  1  0
 20 13  1  0
 21 20  2  0
 23 24  2  0
 23 22  1  0
 25 23  1  0
 26 25  1  0
 26 27  1  0
 27 28  1  0
 29 30  1  0
 29 28  1  6
 31 32  1  0
 31 29  1  0
 33 31  2  0
M  END
$$$$
