FHR.pdb
     RDKit          3D

 33 34  0  0  1  0  0  0  0  0999 V2000
   27.1527  -19.9784  -19.3220 N   0  0  0  0  0  0  0  0  0  0  0  0
   26.8032  -19.0149  -18.3184 C   0  0  1  0  0  0  0  0  0  0  0  0
   25.7716  -18.0569  -18.8687 C   0  0  0  0  0  0  0  0  0  0  0  0
   26.3293  -17.1911  -19.9241 C   0  0  0  0  0  0  0  0  0  0  0  0
   25.9927  -17.3337  -21.2364 C   0  0  0  0  0  0  0  0  0  0  0  0
   26.5473  -16.4906  -22.1961 C   0  0  0  0  0  0  0  0  0  0  0  0
   27.4413  -15.4993  -21.8563 C   0  0  0  0  0  0  0  0  0  0  0  0
   27.7769  -15.3613  -20.5270 C   0  0  0  0  0  0  0  0  0  0  0  0
   27.2319  -16.1935  -19.5649 C   0  0  0  0  0  0  0  0  0  0  0  0
   26.1734  -19.7498  -17.1626 C   0  0  0  0  0  0  0  0  0  0  0  0
   25.4067  -20.7237  -17.3667 O   0  0  0  0  0  0  0  0  0  0  0  0
   26.4328  -19.3582  -15.8229 N   0  0  0  0  0  0  0  0  0  0  0  0
   25.8524  -19.9459  -14.6450 C   0  0  1  0  0  0  0  0  0  0  0  0
   26.6248  -19.7158  -13.3959 C   0  0  0  0  0  0  0  0  0  0  0  0
   25.9678  -20.2574  -12.1893 C   0  0  0  0  0  0  0  0  0  0  0  0
   26.0683  -21.5107  -11.6351 C   0  0  0  0  0  0  0  0  0  0  0  0
   25.2833  -21.5703  -10.5186 N   0  0  0  0  0  0  0  0  0  0  0  0
   24.6993  -20.3479  -10.3886 C   0  0  0  0  0  0  0  0  0  0  0  0
   25.1250  -19.5709  -11.4057 N   0  0  0  0  0  0  0  0  0  0  0  0
   24.3857  -19.7668  -14.5212 C   0  0  0  0  0  0  0  0  0  0  0  0
   23.8955  -18.6204  -14.6008 O   0  0  0  0  0  0  0  0  0  0  0  0
   17.8524  -23.0349  -12.1003 N   0  0  0  0  0  0  0  0  0  0  0  0
   17.0890  -22.8716  -13.2812 C   0  0  0  0  0  0  0  0  0  0  0  0
   15.8146  -22.7030  -13.2078 N   0  0  0  0  0  0  0  0  0  0  0  0
   17.6846  -22.8853  -14.5710 N   0  0  0  0  0  0  0  0  0  0  0  0
   19.1094  -23.0139  -14.7736 C   0  0  0  0  0  0  0  0  0  0  0  0
   19.8513  -21.8085  -14.2551 C   0  0  0  0  0  0  0  0  0  0  0  0
   21.3140  -21.8540  -14.5008 C   0  0  0  0  0  0  0  0  0  0  0  0
   22.0558  -20.5947  -14.1164 C   0  0  2  0  0  0  0  0  0  0  0  0
   23.4837  -20.8315  -14.3141 N   0  0  0  0  0  0  0  0  0  0  0  0
   21.8710  -20.2847  -12.6913 C   0  0  0  0  0  0  0  0  0  0  0  0
   20.9263  -19.3855  -12.2463 O   0  0  0  0  0  0  0  0  0  0  0  0
   22.5906  -20.8509  -11.8438 O   0  0  0  0  0  0  0  0  0  0  0  0
  2  1  1  6
  2 10  1  0
  2  3  1  0
  4  3  1  0
  4  5  2  0
  6  5  1  0
  7  6  2  0
  8  9  2  0
  8  7  1  0
  9  4  1  0
 10 11  2  0
 12 13  1  0
 12 10  1  0
 13 14  1  1
 15 14  1  0
 16 15  2  0
 17 16  1  0
 18 17  1  0
 18 19  2  0
 19 15  1  0
 20 30  1  0
 20 13  1  0
 21 20  2  0
 23 24  2  0
 23 22  1  0
 25 23  1  0
 26 25  1  0
 26 27  1  0
 27 28  1  0
 29 30  1  0
 29 28  1  1
 31 32  1  0
 31 29  1  0
 33 31  2  0
M  END
$$$$
