FHR.pdb
     RDKit          3D

 33 34  0  0  1  0  0  0  0  0999 V2000
   28.8449  -19.4127  -12.4585 N   0  0  0  0  0  0  0  0  0  0  0  0
   27.9498  -20.5336  -12.4538 C   0  0  1  0  0  0  0  0  0  0  0  0
   27.9179  -21.1547  -11.0761 C   0  0  0  0  0  0  0  0  0  0  0  0
   29.2600  -21.5655  -10.6242 C   0  0  0  0  0  0  0  0  0  0  0  0
   30.1008  -22.2958  -11.4088 C   0  0  0  0  0  0  0  0  0  0  0  0
   31.3592  -22.6594  -10.9359 C   0  0  0  0  0  0  0  0  0  0  0  0
   31.7898  -22.2986   -9.6782 C   0  0  0  0  0  0  0  0  0  0  0  0
   30.9339  -21.5601   -8.8904 C   0  0  0  0  0  0  0  0  0  0  0  0
   29.6811  -21.1932   -9.3501 C   0  0  0  0  0  0  0  0  0  0  0  0
   26.5630  -20.0270  -12.7587 C   0  0  0  0  0  0  0  0  0  0  0  0
   26.1148  -19.0057  -12.1808 O   0  0  0  0  0  0  0  0  0  0  0  0
   25.7367  -20.6914  -13.7027 N   0  0  0  0  0  0  0  0  0  0  0  0
   24.4259  -20.2702  -14.1200 C   0  0  1  0  0  0  0  0  0  0  0  0
   24.3108  -19.9551  -15.5682 C   0  0  0  0  0  0  0  0  0  0  0  0
   22.9836  -19.4348  -15.9537 C   0  0  0  0  0  0  0  0  0  0  0  0
   21.8742  -19.2223  -15.1713 C   0  0  0  0  0  0  0  0  0  0  0  0
   20.8656  -18.7292  -15.9498 N   0  0  0  0  0  0  0  0  0  0  0  0
   21.3598  -18.6394  -17.2147 C   0  0  0  0  0  0  0  0  0  0  0  0
   22.6381  -19.0694  -17.1958 N   0  0  0  0  0  0  0  0  0  0  0  0
   23.3101  -21.0690  -13.5580 C   0  0  0  0  0  0  0  0  0  0  0  0
   23.5579  -22.1291  -12.9453 O   0  0  0  0  0  0  0  0  0  0  0  0
   19.3438  -24.1980   -7.2622 N   0  0  0  0  0  0  0  0  0  0  0  0
   18.4305  -23.6571   -8.1988 C   0  0  0  0  0  0  0  0  0  0  0  0
   17.1984  -24.0307   -8.1887 N   0  0  0  0  0  0  0  0  0  0  0  0
   18.8264  -22.6978   -9.1690 N   0  0  0  0  0  0  0  0  0  0  0  0
   20.2108  -22.3905   -9.4462 C   0  0  0  0  0  0  0  0  0  0  0  0
   20.3375  -21.2807  -10.4583 C   0  0  0  0  0  0  0  0  0  0  0  0
   21.3850  -21.5202  -11.4818 C   0  0  0  0  0  0  0  0  0  0  0  0
   20.9106  -21.3868  -12.9105 C   0  0  2  0  0  0  0  0  0  0  0  0
   21.9525  -20.7024  -13.6720 N   0  0  0  0  0  0  0  0  0  0  0  0
   19.7056  -20.5489  -12.9929 C   0  0  0  0  0  0  0  0  0  0  0  0
   18.4372  -21.0578  -12.8165 O   0  0  0  0  0  0  0  0  0  0  0  0
   19.8235  -19.3298  -13.2310 O   0  0  0  0  0  0  0  0  0  0  0  0
  2  1  1  1
  2 10  1  0
  2  3  1  0
  4  3  1  0
  4  5  2  0
  6  5  1  0
  7  6  2  0
  8  9  2  0
  8  7  1  0
  9  4  1  0
 10 11  2  0
 12 13  1  0
 12 10  1  0
 13 14  1  6
 15 14  1  0
 16 15  2  0
 17 16  1  0
 18 17  1  0
 18 19  2  0
 19 15  1  0
 20 30  1  0
 20 13  1  0
 21 20  2  0
 23 24  2  0
 23 22  1  0
 25 23  1  0
 26 25  1  0
 26 27  1  0
 27 28  1  0
 29 30  1  0
 29 28  1  1
 31 32  1  0
 31 29  1  0
 33 31  2  0
M  END
$$$$
