FHR.pdb
     RDKit          3D

 33 34  0  0  1  0  0  0  0  0999 V2000
   27.8050  -19.3386   -9.4929 N   0  0  0  0  0  0  0  0  0  0  0  0
   27.1396  -20.6089   -9.4541 C   0  0  1  0  0  0  0  0  0  0  0  0
   26.3287  -20.7210   -8.1834 C   0  0  0  0  0  0  0  0  0  0  0  0
   27.0924  -20.2835   -7.0003 C   0  0  0  0  0  0  0  0  0  0  0  0
   27.0962  -18.9898   -6.5735 C   0  0  0  0  0  0  0  0  0  0  0  0
   27.8344  -18.6264   -5.4498 C   0  0  0  0  0  0  0  0  0  0  0  0
   28.5742  -19.5485   -4.7429 C   0  0  0  0  0  0  0  0  0  0  0  0
   28.5654  -20.8549   -5.1806 C   0  0  0  0  0  0  0  0  0  0  0  0
   27.8356  -21.2272   -6.2959 C   0  0  0  0  0  0  0  0  0  0  0  0
   26.1801  -20.6709  -10.6152 C   0  0  0  0  0  0  0  0  0  0  0  0
   25.5535  -19.6456  -10.9812 O   0  0  0  0  0  0  0  0  0  0  0  0
   25.9654  -21.8856  -11.3178 N   0  0  0  0  0  0  0  0  0  0  0  0
   25.1809  -22.0408  -12.5137 C   0  0  1  0  0  0  0  0  0  0  0  0
   25.5622  -23.2056  -13.3551 C   0  0  0  0  0  0  0  0  0  0  0  0
   24.8280  -23.2729  -14.6346 C   0  0  0  0  0  0  0  0  0  0  0  0
   25.0367  -22.5639  -15.7930 C   0  0  0  0  0  0  0  0  0  0  0  0
   24.1173  -22.9513  -16.7263 N   0  0  0  0  0  0  0  0  0  0  0  0
   23.3420  -23.9019  -16.1366 C   0  0  0  0  0  0  0  0  0  0  0  0
   23.7869  -24.0813  -14.8759 N   0  0  0  0  0  0  0  0  0  0  0  0
   23.7225  -21.8481  -12.3278 C   0  0  0  0  0  0  0  0  0  0  0  0
   23.2386  -21.8757  -11.1763 O   0  0  0  0  0  0  0  0  0  0  0  0
   17.8478  -16.8801  -15.9605 N   0  0  0  0  0  0  0  0  0  0  0  0
   17.2598  -17.2751  -14.7349 C   0  0  0  0  0  0  0  0  0  0  0  0
   16.0727  -16.8792  -14.4313 N   0  0  0  0  0  0  0  0  0  0  0  0
   17.9400  -18.1091  -13.8075 N   0  0  0  0  0  0  0  0  0  0  0  0
   19.0907  -18.9049  -14.1683 C   0  0  0  0  0  0  0  0  0  0  0  0
   19.7047  -19.5660  -12.9608 C   0  0  0  0  0  0  0  0  0  0  0  0
   21.1299  -19.9379  -13.1415 C   0  0  0  0  0  0  0  0  0  0  0  0
   21.3949  -21.4257  -13.1536 C   0  0  2  0  0  0  0  0  0  0  0  0
   22.8217  -21.6300  -13.3914 N   0  0  0  0  0  0  0  0  0  0  0  0
   20.6826  -22.0822  -14.2593 C   0  0  0  0  0  0  0  0  0  0  0  0
   19.4639  -22.7024  -14.0895 O   0  0  0  0  0  0  0  0  0  0  0  0
   21.1909  -22.0839  -15.3988 O   0  0  0  0  0  0  0  0  0  0  0  0
  2  1  1  1
  2 10  1  0
  2  3  1  0
  4  3  1  0
  4  5  2  0
  6  5  1  0
  7  6  2  0
  8  9  2  0
  8  7  1  0
  9  4  1  0
 10 11  2  0
 12 13  1  0
 12 10  1  0
 13 14  1  1
 15 14  1  0
 16 15  2  0
 17 16  1  0
 18 17  1  0
 18 19  2  0
 19 15  1  0
 20 30  1  0
 20 13  1  0
 21 20  2  0
 23 24  2  0
 23 22  1  0
 25 23  1  0
 26 25  1  0
 26 27  1  0
 27 28  1  0
 29 30  1  0
 29 28  1  6
 31 32  1  0
 31 29  1  0
 33 31  2  0
M  END
$$$$
