FHR.pdb
     RDKit          3D

 33 34  0  0  1  0  0  0  0  0999 V2000
   28.9673  -20.9822   -9.1516 N   0  0  0  0  0  0  0  0  0  0  0  0
   27.5542  -20.8905   -8.9224 C   0  0  1  0  0  0  0  0  0  0  0  0
   27.2385  -19.6054   -8.1919 C   0  0  0  0  0  0  0  0  0  0  0  0
   27.7216  -19.6289   -6.7989 C   0  0  0  0  0  0  0  0  0  0  0  0
   27.9338  -18.4899   -6.0823 C   0  0  0  0  0  0  0  0  0  0  0  0
   28.3912  -18.5650   -4.7691 C   0  0  0  0  0  0  0  0  0  0  0  0
   28.6406  -19.7748   -4.1595 C   0  0  0  0  0  0  0  0  0  0  0  0
   28.4237  -20.9224   -4.8906 C   0  0  0  0  0  0  0  0  0  0  0  0
   27.9694  -20.8596   -6.1963 C   0  0  0  0  0  0  0  0  0  0  0  0
   26.8649  -20.8357  -10.2620 C   0  0  0  0  0  0  0  0  0  0  0  0
   27.3989  -20.2411  -11.2311 O   0  0  0  0  0  0  0  0  0  0  0  0
   25.6014  -21.4532  -10.4562 N   0  0  0  0  0  0  0  0  0  0  0  0
   24.8736  -21.5130  -11.6957 C   0  0  1  0  0  0  0  0  0  0  0  0
   24.6875  -22.8851  -12.2365 C   0  0  0  0  0  0  0  0  0  0  0  0
   25.4301  -23.1296  -13.4894 C   0  0  0  0  0  0  0  0  0  0  0  0
   26.1433  -22.2451  -14.2621 C   0  0  0  0  0  0  0  0  0  0  0  0
   26.6668  -22.9096  -15.3349 N   0  0  0  0  0  0  0  0  0  0  0  0
   26.2722  -24.2069  -15.2186 C   0  0  0  0  0  0  0  0  0  0  0  0
   25.5276  -24.3188  -14.0994 N   0  0  0  0  0  0  0  0  0  0  0  0
   23.6726  -20.6451  -11.7518 C   0  0  0  0  0  0  0  0  0  0  0  0
   22.9113  -20.5809  -10.7633 O   0  0  0  0  0  0  0  0  0  0  0  0
   19.6636  -14.4958  -16.3692 N   0  0  0  0  0  0  0  0  0  0  0  0
   21.0342  -14.8488  -16.3424 C   0  0  0  0  0  0  0  0  0  0  0  0
   21.9374  -13.9403  -16.4725 N   0  0  0  0  0  0  0  0  0  0  0  0
   21.4626  -16.1927  -16.1731 N   0  0  0  0  0  0  0  0  0  0  0  0
   20.5412  -17.2911  -15.9935 C   0  0  0  0  0  0  0  0  0  0  0  0
   20.6412  -17.8739  -14.6070 C   0  0  0  0  0  0  0  0  0  0  0  0
   21.9277  -18.5628  -14.3383 C   0  0  0  0  0  0  0  0  0  0  0  0
   22.0149  -19.2260  -12.9831 C   0  0  2  0  0  0  0  0  0  0  0  0
   23.3231  -19.8672  -12.8756 N   0  0  0  0  0  0  0  0  0  0  0  0
   21.0091  -20.2895  -12.8476 C   0  0  0  0  0  0  0  0  0  0  0  0
   19.8498  -20.1232  -12.1215 O   0  0  0  0  0  0  0  0  0  0  0  0
   21.2016  -21.3881  -13.4068 O   0  0  0  0  0  0  0  0  0  0  0  0
  2  1  1  6
  2 10  1  0
  2  3  1  0
  4  3  1  0
  4  5  2  0
  6  5  1  0
  7  6  2  0
  8  9  2  0
  8  7  1  0
  9  4  1  0
 10 11  2  0
 12 13  1  0
 12 10  1  0
 13 14  1  1
 15 14  1  0
 16 15  2  0
 17 16  1  0
 18 17  1  0
 18 19  2  0
 19 15  1  0
 20 30  1  0
 20 13  1  0
 21 20  2  0
 23 24  2  0
 23 22  1  0
 25 23  1  0
 26 25  1  0
 26 27  1  0
 27 28  1  0
 29 30  1  0
 29 28  1  6
 31 32  1  0
 31 29  1  0
 33 31  2  0
M  END
$$$$
