FHR.pdb
     RDKit          3D

 33 34  0  0  1  0  0  0  0  0999 V2000
   25.8073  -22.2136   -9.4494 N   0  0  0  0  0  0  0  0  0  0  0  0
   25.4288  -20.8890   -9.8496 C   0  0  1  0  0  0  0  0  0  0  0  0
   26.6659  -20.0431  -10.0468 C   0  0  0  0  0  0  0  0  0  0  0  0
   27.3681  -19.7867   -8.7757 C   0  0  0  0  0  0  0  0  0  0  0  0
   28.4407  -20.5245   -8.3746 C   0  0  0  0  0  0  0  0  0  0  0  0
   29.0699  -20.2430   -7.1645 C   0  0  0  0  0  0  0  0  0  0  0  0
   28.6357  -19.2247   -6.3448 C   0  0  0  0  0  0  0  0  0  0  0  0
   27.5503  -18.4828   -6.7572 C   0  0  0  0  0  0  0  0  0  0  0  0
   26.9174  -18.7538   -7.9577 C   0  0  0  0  0  0  0  0  0  0  0  0
   24.7242  -20.9846  -11.1789 C   0  0  0  0  0  0  0  0  0  0  0  0
   25.1170  -21.7967  -12.0530 O   0  0  0  0  0  0  0  0  0  0  0  0
   23.6048  -20.1614  -11.4701 N   0  0  0  0  0  0  0  0  0  0  0  0
   22.7315  -20.2962  -12.6054 C   0  0  1  0  0  0  0  0  0  0  0  0
   21.3900  -19.6806  -12.4285 C   0  0  0  0  0  0  0  0  0  0  0  0
   20.5230  -20.4188  -11.4882 C   0  0  0  0  0  0  0  0  0  0  0  0
   20.7689  -21.5953  -10.8223 C   0  0  0  0  0  0  0  0  0  0  0  0
   19.6833  -21.9104  -10.0551 N   0  0  0  0  0  0  0  0  0  0  0  0
   18.7684  -20.9223  -10.2521 C   0  0  0  0  0  0  0  0  0  0  0  0
   19.2939  -20.0328  -11.1193 N   0  0  0  0  0  0  0  0  0  0  0  0
   23.3749  -20.0395  -13.9164 C   0  0  0  0  0  0  0  0  0  0  0  0
   23.9581  -18.9526  -14.1149 O   0  0  0  0  0  0  0  0  0  0  0  0
   28.3331  -24.8026  -18.4445 N   0  0  0  0  0  0  0  0  0  0  0  0
   27.3705  -24.8977  -17.4109 C   0  0  0  0  0  0  0  0  0  0  0  0
   27.6037  -25.6290  -16.3771 N   0  0  0  0  0  0  0  0  0  0  0  0
   26.1323  -24.2037  -17.4688 N   0  0  0  0  0  0  0  0  0  0  0  0
   25.7838  -23.3140  -18.5527 C   0  0  0  0  0  0  0  0  0  0  0  0
   25.3161  -21.9761  -18.0394 C   0  0  0  0  0  0  0  0  0  0  0  0
   24.6221  -22.0464  -16.7297 C   0  0  0  0  0  0  0  0  0  0  0  0
   24.1264  -20.7173  -16.2085 C   0  0  2  0  0  0  0  0  0  0  0  0
   23.3724  -20.9641  -14.9819 N   0  0  0  0  0  0  0  0  0  0  0  0
   23.1969  -20.0888  -17.1582 C   0  0  0  0  0  0  0  0  0  0  0  0
   21.8541  -20.3964  -17.1927 O   0  0  0  0  0  0  0  0  0  0  0  0
   23.6286  -19.2435  -17.9681 O   0  0  0  0  0  0  0  0  0  0  0  0
  2  1  1  6
  2 10  1  0
  2  3  1  0
  4  3  1  0
  4  5  2  0
  6  5  1  0
  7  6  2  0
  8  9  2  0
  8  7  1  0
  9  4  1  0
 10 11  2  0
 12 13  1  0
 12 10  1  0
 13 14  1  1
 15 14  1  0
 16 15  2  0
 17 16  1  0
 18 17  1  0
 18 19  2  0
 19 15  1  0
 20 30  1  0
 20 13  1  0
 21 20  2  0
 23 24  2  0
 23 22  1  0
 25 23  1  0
 26 25  1  0
 26 27  1  0
 27 28  1  0
 29 30  1  0
 29 28  1  6
 31 32  1  0
 31 29  1  0
 33 31  2  0
M  END
$$$$
