FHR.pdb
     RDKit          3D

 33 34  0  0  1  0  0  0  0  0999 V2000
   28.4364  -20.1086  -12.2297 N   0  0  0  0  0  0  0  0  0  0  0  0
   27.4665  -21.1246  -11.9386 C   0  0  1  0  0  0  0  0  0  0  0  0
   27.5414  -21.4965  -10.4754 C   0  0  0  0  0  0  0  0  0  0  0  0
   28.9212  -21.7987  -10.0522 C   0  0  0  0  0  0  0  0  0  0  0  0
   29.4794  -21.2454   -8.9395 C   0  0  0  0  0  0  0  0  0  0  0  0
   30.7873  -21.5627   -8.5817 C   0  0  0  0  0  0  0  0  0  0  0  0
   31.5493  -22.4334   -9.3293 C   0  0  0  0  0  0  0  0  0  0  0  0
   30.9779  -22.9890  -10.4532 C   0  0  0  0  0  0  0  0  0  0  0  0
   29.6790  -22.6808  -10.8182 C   0  0  0  0  0  0  0  0  0  0  0  0
   26.0960  -20.5512  -12.1946 C   0  0  0  0  0  0  0  0  0  0  0  0
   25.7787  -19.4258  -11.7357 O   0  0  0  0  0  0  0  0  0  0  0  0
   25.1379  -21.2688  -12.9578 N   0  0  0  0  0  0  0  0  0  0  0  0
   23.7733  -20.8736  -13.1849 C   0  0  1  0  0  0  0  0  0  0  0  0
   23.5185  -20.2747  -14.5214 C   0  0  0  0  0  0  0  0  0  0  0  0
   24.7495  -20.0180  -15.2957 C   0  0  0  0  0  0  0  0  0  0  0  0
   26.0570  -20.2674  -14.9547 C   0  0  0  0  0  0  0  0  0  0  0  0
   26.8700  -19.8683  -15.9775 N   0  0  0  0  0  0  0  0  0  0  0  0
   26.0565  -19.3722  -16.9493 C   0  0  0  0  0  0  0  0  0  0  0  0
   24.7821  -19.4715  -16.5188 N   0  0  0  0  0  0  0  0  0  0  0  0
   22.7597  -21.8561  -12.7309 C   0  0  0  0  0  0  0  0  0  0  0  0
   22.9848  -23.0783  -12.8588 O   0  0  0  0  0  0  0  0  0  0  0  0
   17.1213  -24.1692   -7.0948 N   0  0  0  0  0  0  0  0  0  0  0  0
   17.7819  -25.2123   -7.7872 C   0  0  0  0  0  0  0  0  0  0  0  0
   17.2822  -26.3990   -7.7958 N   0  0  0  0  0  0  0  0  0  0  0  0
   18.9987  -24.9982   -8.4885 N   0  0  0  0  0  0  0  0  0  0  0  0
   19.6253  -23.7002   -8.5904 C   0  0  0  0  0  0  0  0  0  0  0  0
   19.0243  -22.8837   -9.7058 C   0  0  0  0  0  0  0  0  0  0  0  0
   19.9875  -21.9645  -10.3611 C   0  0  0  0  0  0  0  0  0  0  0  0
   20.6005  -22.4994  -11.6347 C   0  0  2  0  0  0  0  0  0  0  0  0
   21.5266  -21.4936  -12.1492 N   0  0  0  0  0  0  0  0  0  0  0  0
   19.5776  -22.7030  -12.6706 C   0  0  0  0  0  0  0  0  0  0  0  0
   19.0277  -23.9387  -12.9346 O   0  0  0  0  0  0  0  0  0  0  0  0
   19.1846  -21.7277  -13.3423 O   0  0  0  0  0  0  0  0  0  0  0  0
  2  1  1  1
  2 10  1  0
  2  3  1  0
  4  3  1  0
  4  5  2  0
  6  5  1  0
  7  6  2  0
  8  9  2  0
  8  7  1  0
  9  4  1  0
 10 11  2  0
 12 13  1  0
 12 10  1  0
 13 14  1  6
 15 14  1  0
 16 15  2  0
 17 16  1  0
 18 17  1  0
 18 19  2  0
 19 15  1  0
 20 30  1  0
 20 13  1  0
 21 20  2  0
 23 24  2  0
 23 22  1  0
 25 23  1  0
 26 25  1  0
 26 27  1  0
 27 28  1  0
 29 30  1  0
 29 28  1  1
 31 32  1  0
 31 29  1  0
 33 31  2  0
M  END
$$$$
