FHR.pdb
     RDKit          3D

 33 34  0  0  1  0  0  0  0  0999 V2000
   23.7669  -20.3533  -20.2434 N   0  0  0  0  0  0  0  0  0  0  0  0
   23.5935  -19.4577  -19.1363 C   0  0  1  0  0  0  0  0  0  0  0  0
   22.3487  -18.6257  -19.3438 C   0  0  0  0  0  0  0  0  0  0  0  0
   22.5056  -17.6634  -20.4501 C   0  0  0  0  0  0  0  0  0  0  0  0
   23.3204  -16.5755  -20.3590 C   0  0  0  0  0  0  0  0  0  0  0  0
   23.4344  -15.6955  -21.4322 C   0  0  0  0  0  0  0  0  0  0  0  0
   22.7378  -15.8921  -22.6042 C   0  0  0  0  0  0  0  0  0  0  0  0
   21.9158  -16.9946  -22.6889 C   0  0  0  0  0  0  0  0  0  0  0  0
   21.7948  -17.8757  -21.6286 C   0  0  0  0  0  0  0  0  0  0  0  0
   23.3883  -20.2845  -17.8925 C   0  0  0  0  0  0  0  0  0  0  0  0
   22.6207  -21.2787  -17.9061 O   0  0  0  0  0  0  0  0  0  0  0  0
   24.0563  -19.9581  -16.6832 N   0  0  0  0  0  0  0  0  0  0  0  0
   24.0128  -20.7198  -15.4635 C   0  0  1  0  0  0  0  0  0  0  0  0
   25.2711  -20.6907  -14.6725 C   0  0  0  0  0  0  0  0  0  0  0  0
   26.3998  -21.3729  -15.3367 C   0  0  0  0  0  0  0  0  0  0  0  0
   26.4412  -21.9861  -16.5656 C   0  0  0  0  0  0  0  0  0  0  0  0
   27.6955  -22.4857  -16.7742 N   0  0  0  0  0  0  0  0  0  0  0  0
   28.4255  -22.1771  -15.6678 C   0  0  0  0  0  0  0  0  0  0  0  0
   27.6262  -21.5061  -14.8132 N   0  0  0  0  0  0  0  0  0  0  0  0
   22.7682  -20.5558  -14.6744 C   0  0  0  0  0  0  0  0  0  0  0  0
   22.2122  -19.4381  -14.6246 O   0  0  0  0  0  0  0  0  0  0  0  0
   17.8536  -26.2443   -9.6145 N   0  0  0  0  0  0  0  0  0  0  0  0
   17.7909  -26.1234  -11.0236 C   0  0  0  0  0  0  0  0  0  0  0  0
   17.4995  -27.1480  -11.7470 N   0  0  0  0  0  0  0  0  0  0  0  0
   18.0407  -24.8915  -11.6856 N   0  0  0  0  0  0  0  0  0  0  0  0
   18.9092  -23.8728  -11.1417 C   0  0  0  0  0  0  0  0  0  0  0  0
   19.0775  -22.7220  -12.1005 C   0  0  0  0  0  0  0  0  0  0  0  0
   20.3494  -22.7597  -12.8640 C   0  0  0  0  0  0  0  0  0  0  0  0
   20.9027  -21.4022  -13.2317 C   0  0  2  0  0  0  0  0  0  0  0  0
   22.1541  -21.6044  -13.9576 N   0  0  0  0  0  0  0  0  0  0  0  0
   21.2307  -20.6204  -12.0309 C   0  0  0  0  0  0  0  0  0  0  0  0
   20.3083  -19.8168  -11.3965 O   0  0  0  0  0  0  0  0  0  0  0  0
   22.3843  -20.6788  -11.5592 O   0  0  0  0  0  0  0  0  0  0  0  0
  2  1  1  6
  2 10  1  0
  2  3  1  0
  4  3  1  0
  4  5  2  0
  6  5  1  0
  7  6  2  0
  8  9  2  0
  8  7  1  0
  9  4  1  0
 10 11  2  0
 12 13  1  0
 12 10  1  0
 13 14  1  1
 15 14  1  0
 16 15  2  0
 17 16  1  0
 18 17  1  0
 18 19  2  0
 19 15  1  0
 20 30  1  0
 20 13  1  0
 21 20  2  0
 23 24  2  0
 23 22  1  0
 25 23  1  0
 26 25  1  0
 26 27  1  0
 27 28  1  0
 29 30  1  0
 29 28  1  1
 31 32  1  0
 31 29  1  0
 33 31  2  0
M  END
$$$$
