FHR.pdb
     RDKit          3D

 33 34  0  0  1  0  0  0  0  0999 V2000
   25.3174  -21.5342   -7.7715 N   0  0  0  0  0  0  0  0  0  0  0  0
   25.4240  -20.3996   -8.6428 C   0  0  1  0  0  0  0  0  0  0  0  0
   26.8687  -19.9659   -8.7406 C   0  0  0  0  0  0  0  0  0  0  0  0
   27.3993  -19.5148   -7.4409 C   0  0  0  0  0  0  0  0  0  0  0  0
   28.4428  -20.1370   -6.8247 C   0  0  0  0  0  0  0  0  0  0  0  0
   28.9074  -19.6725   -5.5967 C   0  0  0  0  0  0  0  0  0  0  0  0
   28.3364  -18.5850   -4.9732 C   0  0  0  0  0  0  0  0  0  0  0  0
   27.2815  -17.9610   -5.6026 C   0  0  0  0  0  0  0  0  0  0  0  0
   26.8115  -18.4140   -6.8229 C   0  0  0  0  0  0  0  0  0  0  0  0
   24.9798  -20.8229  -10.0198 C   0  0  0  0  0  0  0  0  0  0  0  0
   25.4607  -21.8509  -10.5580 O   0  0  0  0  0  0  0  0  0  0  0  0
   24.0113  -20.0709  -10.7353 N   0  0  0  0  0  0  0  0  0  0  0  0
   23.4545  -20.4150  -12.0164 C   0  0  1  0  0  0  0  0  0  0  0  0
   22.0036  -20.1236  -12.1571 C   0  0  0  0  0  0  0  0  0  0  0  0
   21.4444  -20.5344  -13.4607 C   0  0  0  0  0  0  0  0  0  0  0  0
   21.0317  -21.7779  -13.8747 C   0  0  0  0  0  0  0  0  0  0  0  0
   20.5828  -21.6944  -15.1623 N   0  0  0  0  0  0  0  0  0  0  0  0
   20.7213  -20.3938  -15.5385 C   0  0  0  0  0  0  0  0  0  0  0  0
   21.2423  -19.7110  -14.4984 N   0  0  0  0  0  0  0  0  0  0  0  0
   24.2903  -20.0303  -13.1792 C   0  0  0  0  0  0  0  0  0  0  0  0
   25.0019  -19.0054  -13.1150 O   0  0  0  0  0  0  0  0  0  0  0  0
   27.8009  -26.0664  -15.9132 N   0  0  0  0  0  0  0  0  0  0  0  0
   27.2305  -25.6835  -17.1509 C   0  0  0  0  0  0  0  0  0  0  0  0
   26.7293  -26.5745  -17.9338 N   0  0  0  0  0  0  0  0  0  0  0  0
   27.1867  -24.3275  -17.5725 N   0  0  0  0  0  0  0  0  0  0  0  0
   27.4207  -23.2206  -16.6739 C   0  0  0  0  0  0  0  0  0  0  0  0
   26.1517  -22.4545  -16.4002 C   0  0  0  0  0  0  0  0  0  0  0  0
   26.3581  -21.2174  -15.6072 C   0  0  0  0  0  0  0  0  0  0  0  0
   25.1462  -20.3190  -15.5162 C   0  0  2  0  0  0  0  0  0  0  0  0
   24.3370  -20.7629  -14.3839 N   0  0  0  0  0  0  0  0  0  0  0  0
   24.3032  -20.4431  -16.7141 C   0  0  0  0  0  0  0  0  0  0  0  0
   24.4323  -19.6041  -17.7997 O   0  0  0  0  0  0  0  0  0  0  0  0
   23.4351  -21.3380  -16.7611 O   0  0  0  0  0  0  0  0  0  0  0  0
  2  1  1  1
  2 10  1  0
  2  3  1  0
  4  3  1  0
  4  5  2  0
  6  5  1  0
  7  6  2  0
  8  9  2  0
  8  7  1  0
  9  4  1  0
 10 11  2  0
 12 13  1  0
 12 10  1  0
 13 14  1  6
 15 14  1  0
 16 15  2  0
 17 16  1  0
 18 17  1  0
 18 19  2  0
 19 15  1  0
 20 30  1  0
 20 13  1  0
 21 20  2  0
 23 24  2  0
 23 22  1  0
 25 23  1  0
 26 25  1  0
 26 27  1  0
 27 28  1  0
 29 30  1  0
 29 28  1  6
 31 32  1  0
 31 29  1  0
 33 31  2  0
M  END
$$$$
