FHR.pdb
     RDKit          3D

 33 34  0  0  1  0  0  0  0  0999 V2000
   29.0101  -20.8400   -9.1409 N   0  0  0  0  0  0  0  0  0  0  0  0
   27.5874  -20.7220   -8.9998 C   0  0  1  0  0  0  0  0  0  0  0  0
   27.2464  -19.3912   -8.3693 C   0  0  0  0  0  0  0  0  0  0  0  0
   27.7654  -19.2827   -6.9933 C   0  0  0  0  0  0  0  0  0  0  0  0
   28.8594  -18.5319   -6.6848 C   0  0  0  0  0  0  0  0  0  0  0  0
   29.3108  -18.4618   -5.3692 C   0  0  0  0  0  0  0  0  0  0  0  0
   28.6763  -19.1388   -4.3511 C   0  0  0  0  0  0  0  0  0  0  0  0
   27.5705  -19.8960   -4.6710 C   0  0  0  0  0  0  0  0  0  0  0  0
   27.1132  -19.9730   -5.9749 C   0  0  0  0  0  0  0  0  0  0  0  0
   26.9765  -20.7445  -10.3779 C   0  0  0  0  0  0  0  0  0  0  0  0
   27.4486  -20.0308  -11.2974 O   0  0  0  0  0  0  0  0  0  0  0  0
   25.8581  -21.5705  -10.6647 N   0  0  0  0  0  0  0  0  0  0  0  0
   25.2166  -21.7066  -11.9453 C   0  0  1  0  0  0  0  0  0  0  0  0
   25.1093  -23.1057  -12.4361 C   0  0  0  0  0  0  0  0  0  0  0  0
   24.5519  -23.2101  -13.7996 C   0  0  0  0  0  0  0  0  0  0  0  0
   25.1630  -22.9736  -15.0073 C   0  0  0  0  0  0  0  0  0  0  0  0
   24.2659  -23.1950  -16.0135 N   0  0  0  0  0  0  0  0  0  0  0  0
   23.0999  -23.5687  -15.4192 C   0  0  0  0  0  0  0  0  0  0  0  0
   23.2933  -23.5716  -14.0842 N   0  0  0  0  0  0  0  0  0  0  0  0
   23.9959  -20.8828  -12.1178 C   0  0  0  0  0  0  0  0  0  0  0  0
   23.1902  -20.7681  -11.1699 O   0  0  0  0  0  0  0  0  0  0  0  0
   21.4837  -15.7783  -18.9413 N   0  0  0  0  0  0  0  0  0  0  0  0
   22.3203  -15.5977  -17.8137 C   0  0  0  0  0  0  0  0  0  0  0  0
   23.2450  -14.7018  -17.8330 N   0  0  0  0  0  0  0  0  0  0  0  0
   22.1773  -16.3803  -16.6368 N   0  0  0  0  0  0  0  0  0  0  0  0
   21.1908  -17.4283  -16.5089 C   0  0  0  0  0  0  0  0  0  0  0  0
   21.1991  -18.0278  -15.1260 C   0  0  0  0  0  0  0  0  0  0  0  0
   22.3812  -18.8813  -14.8502 C   0  0  0  0  0  0  0  0  0  0  0  0
   22.4130  -19.4831  -13.4643 C   0  0  2  0  0  0  0  0  0  0  0  0
   23.6752  -20.2023  -13.3113 N   0  0  0  0  0  0  0  0  0  0  0  0
   21.3384  -20.4710  -13.2905 C   0  0  0  0  0  0  0  0  0  0  0  0
   21.3630  -21.7060  -13.9012 O   0  0  0  0  0  0  0  0  0  0  0  0
   20.3624  -20.1919  -12.5650 O   0  0  0  0  0  0  0  0  0  0  0  0
  2  1  1  6
  2 10  1  0
  2  3  1  0
  4  3  1  0
  4  5  2  0
  6  5  1  0
  7  6  2  0
  8  9  2  0
  8  7  1  0
  9  4  1  0
 10 11  2  0
 12 13  1  0
 12 10  1  0
 13 14  1  1
 15 14  1  0
 16 15  2  0
 17 16  1  0
 18 17  1  0
 18 19  2  0
 19 15  1  0
 20 30  1  0
 20 13  1  0
 21 20  2  0
 23 24  2  0
 23 22  1  0
 25 23  1  0
 26 25  1  0
 26 27  1  0
 27 28  1  0
 29 30  1  0
 29 28  1  6
 31 32  1  0
 31 29  1  0
 33 31  2  0
M  END
$$$$
