FHR.pdb
     RDKit          3D

 33 34  0  0  1  0  0  0  0  0999 V2000
   28.3666  -20.2230  -10.0657 N   0  0  0  0  0  0  0  0  0  0  0  0
   27.2097  -21.0676   -9.9880 C   0  0  1  0  0  0  0  0  0  0  0  0
   26.5028  -20.8438   -8.6708 C   0  0  0  0  0  0  0  0  0  0  0  0
   27.4432  -20.4851   -7.5931 C   0  0  0  0  0  0  0  0  0  0  0  0
   28.5744  -21.2025   -7.3450 C   0  0  0  0  0  0  0  0  0  0  0  0
   29.4312  -20.8230   -6.3148 C   0  0  0  0  0  0  0  0  0  0  0  0
   29.1679  -19.7264   -5.5239 C   0  0  0  0  0  0  0  0  0  0  0  0
   28.0219  -19.0058   -5.7808 C   0  0  0  0  0  0  0  0  0  0  0  0
   27.1634  -19.3739   -6.8020 C   0  0  0  0  0  0  0  0  0  0  0  0
   26.2616  -20.6661  -11.0892 C   0  0  0  0  0  0  0  0  0  0  0  0
   25.8383  -19.4861  -11.1687 O   0  0  0  0  0  0  0  0  0  0  0  0
   25.8287  -21.6102  -12.0569 N   0  0  0  0  0  0  0  0  0  0  0  0
   25.0336  -21.3209  -13.2206 C   0  0  1  0  0  0  0  0  0  0  0  0
   25.7939  -21.3004  -14.4979 C   0  0  0  0  0  0  0  0  0  0  0  0
   26.5632  -20.0571  -14.7051 C   0  0  0  0  0  0  0  0  0  0  0  0
   26.6470  -18.9446  -13.9029 C   0  0  0  0  0  0  0  0  0  0  0  0
   27.4774  -18.0319  -14.4892 N   0  0  0  0  0  0  0  0  0  0  0  0
   27.9040  -18.5880  -15.6558 C   0  0  0  0  0  0  0  0  0  0  0  0
   27.3415  -19.8089  -15.7673 N   0  0  0  0  0  0  0  0  0  0  0  0
   23.7316  -22.0284  -13.2733 C   0  0  0  0  0  0  0  0  0  0  0  0
   23.6819  -23.2490  -13.0118 O   0  0  0  0  0  0  0  0  0  0  0  0
   17.5268  -23.6800  -11.6371 N   0  0  0  0  0  0  0  0  0  0  0  0
   17.1211  -22.5572  -10.8764 C   0  0  0  0  0  0  0  0  0  0  0  0
   16.7072  -22.7124   -9.6670 N   0  0  0  0  0  0  0  0  0  0  0  0
   17.1539  -21.2385  -11.4039 N   0  0  0  0  0  0  0  0  0  0  0  0
   17.7172  -20.9268  -12.6974 C   0  0  0  0  0  0  0  0  0  0  0  0
   18.8218  -21.8849  -13.0633 C   0  0  0  0  0  0  0  0  0  0  0  0
   20.1703  -21.2657  -13.0810 C   0  0  0  0  0  0  0  0  0  0  0  0
   21.2580  -22.1437  -13.6553 C   0  0  2  0  0  0  0  0  0  0  0  0
   22.5139  -21.3992  -13.6076 N   0  0  0  0  0  0  0  0  0  0  0  0
   21.0004  -22.4501  -15.0698 C   0  0  0  0  0  0  0  0  0  0  0  0
   20.4083  -23.6262  -15.4761 O   0  0  0  0  0  0  0  0  0  0  0  0
   21.3257  -21.6216  -15.9442 O   0  0  0  0  0  0  0  0  0  0  0  0
  2  1  1  1
  2 10  1  0
  2  3  1  0
  4  3  1  0
  4  5  2  0
  6  5  1  0
  7  6  2  0
  8  9  2  0
  8  7  1  0
  9  4  1  0
 10 11  2  0
 12 13  1  0
 12 10  1  0
 13 14  1  6
 15 14  1  0
 16 15  2  0
 17 16  1  0
 18 17  1  0
 18 19  2  0
 19 15  1  0
 20 30  1  0
 20 13  1  0
 21 20  2  0
 23 24  2  0
 23 22  1  0
 25 23  1  0
 26 25  1  0
 26 27  1  0
 27 28  1  0
 29 30  1  0
 29 28  1  6
 31 32  1  0
 31 29  1  0
 33 31  2  0
M  END
$$$$
