FHR.pdb
     RDKit          3D

 33 34  0  0  1  0  0  0  0  0999 V2000
   24.2403  -18.6056  -17.3461 N   0  0  0  0  0  0  0  0  0  0  0  0
   24.7716  -17.8556  -16.2447 C   0  0  1  0  0  0  0  0  0  0  0  0
   23.6628  -17.0740  -15.5781 C   0  0  0  0  0  0  0  0  0  0  0  0
   23.1573  -15.9887  -16.4390 C   0  0  0  0  0  0  0  0  0  0  0  0
   23.9393  -14.9430  -16.8273 C   0  0  0  0  0  0  0  0  0  0  0  0
   23.4147  -13.9421  -17.6412 C   0  0  0  0  0  0  0  0  0  0  0  0
   22.1076  -13.9750  -18.0746 C   0  0  0  0  0  0  0  0  0  0  0  0
   21.3229  -15.0358  -17.6777 C   0  0  0  0  0  0  0  0  0  0  0  0
   21.8337  -16.0359  -16.8689 C   0  0  0  0  0  0  0  0  0  0  0  0
   25.3152  -18.8314  -15.2323 C   0  0  0  0  0  0  0  0  0  0  0  0
   24.6200  -19.8032  -14.8448 O   0  0  0  0  0  0  0  0  0  0  0  0
   26.6205  -18.6732  -14.6970 N   0  0  0  0  0  0  0  0  0  0  0  0
   27.2122  -19.4816  -13.6644 C   0  0  1  0  0  0  0  0  0  0  0  0
   28.6981  -19.4490  -13.6305 C   0  0  0  0  0  0  0  0  0  0  0  0
   29.2820  -20.3115  -12.5837 C   0  0  0  0  0  0  0  0  0  0  0  0
   29.5859  -21.6506  -12.6324 C   0  0  0  0  0  0  0  0  0  0  0  0
   30.1105  -22.0343  -11.4308 N   0  0  0  0  0  0  0  0  0  0  0  0
   30.1279  -20.9250  -10.6426 C   0  0  0  0  0  0  0  0  0  0  0  0
   29.6243  -19.8970  -11.3562 N   0  0  0  0  0  0  0  0  0  0  0  0
   26.5492  -19.3809  -12.3419 C   0  0  0  0  0  0  0  0  0  0  0  0
   26.2702  -18.2557  -11.8760 O   0  0  0  0  0  0  0  0  0  0  0  0
   19.6909  -22.7497   -8.4341 N   0  0  0  0  0  0  0  0  0  0  0  0
   20.5796  -22.6129   -7.3408 C   0  0  0  0  0  0  0  0  0  0  0  0
   20.1284  -22.6387   -6.1351 N   0  0  0  0  0  0  0  0  0  0  0  0
   21.9785  -22.4459   -7.5237 N   0  0  0  0  0  0  0  0  0  0  0  0
   22.5985  -22.4110   -8.8283 C   0  0  0  0  0  0  0  0  0  0  0  0
   23.7221  -21.4074   -8.8785 C   0  0  0  0  0  0  0  0  0  0  0  0
   24.4081  -21.3415  -10.1927 C   0  0  0  0  0  0  0  0  0  0  0  0
   25.5438  -20.3467  -10.2602 C   0  0  2  0  0  0  0  0  0  0  0  0
   26.2036  -20.4992  -11.5545 N   0  0  0  0  0  0  0  0  0  0  0  0
   26.5565  -20.6278   -9.2323 C   0  0  0  0  0  0  0  0  0  0  0  0
   26.5646  -19.9938   -8.0089 O   0  0  0  0  0  0  0  0  0  0  0  0
   27.4469  -21.4702   -9.4653 O   0  0  0  0  0  0  0  0  0  0  0  0
  2  1  1  6
  2 10  1  0
  2  3  1  0
  4  3  1  0
  4  5  2  0
  6  5  1  0
  7  6  2  0
  8  9  2  0
  8  7  1  0
  9  4  1  0
 10 11  2  0
 12 13  1  0
 12 10  1  0
 13 14  1  1
 15 14  1  0
 16 15  2  0
 17 16  1  0
 18 17  1  0
 18 19  2  0
 19 15  1  0
 20 30  1  0
 20 13  1  0
 21 20  2  0
 23 24  2  0
 23 22  1  0
 25 23  1  0
 26 25  1  0
 26 27  1  0
 27 28  1  0
 29 30  1  0
 29 28  1  6
 31 32  1  0
 31 29  1  0
 33 31  2  0
M  END
$$$$
