FHR.pdb
     RDKit          3D

 33 34  0  0  1  0  0  0  0  0999 V2000
   28.7264  -19.9281  -14.6251 N   0  0  0  0  0  0  0  0  0  0  0  0
   27.4944  -19.2807  -14.9726 C   0  0  1  0  0  0  0  0  0  0  0  0
   27.5913  -18.7180  -16.3721 C   0  0  0  0  0  0  0  0  0  0  0  0
   27.5663  -17.2437  -16.3777 C   0  0  0  0  0  0  0  0  0  0  0  0
   27.1750  -16.5178  -15.2933 C   0  0  0  0  0  0  0  0  0  0  0  0
   27.1686  -15.1263  -15.3486 C   0  0  0  0  0  0  0  0  0  0  0  0
   27.5518  -14.4471  -16.4841 C   0  0  0  0  0  0  0  0  0  0  0  0
   27.9462  -15.1881  -17.5768 C   0  0  0  0  0  0  0  0  0  0  0  0
   27.9564  -16.5713  -17.5330 C   0  0  0  0  0  0  0  0  0  0  0  0
   26.4026  -20.3203  -14.9727 C   0  0  0  0  0  0  0  0  0  0  0  0
   26.6769  -21.5343  -15.1425 O   0  0  0  0  0  0  0  0  0  0  0  0
   25.0455  -19.9504  -14.7813 N   0  0  0  0  0  0  0  0  0  0  0  0
   23.9160  -20.8408  -14.8143 C   0  0  1  0  0  0  0  0  0  0  0  0
   22.6134  -20.1973  -14.4996 C   0  0  0  0  0  0  0  0  0  0  0  0
   21.4617  -21.1150  -14.6094 C   0  0  0  0  0  0  0  0  0  0  0  0
   21.4251  -22.4107  -15.0654 C   0  0  0  0  0  0  0  0  0  0  0  0
   20.1428  -22.8758  -14.9889 N   0  0  0  0  0  0  0  0  0  0  0  0
   19.3907  -21.8601  -14.4838 C   0  0  0  0  0  0  0  0  0  0  0  0
   20.2046  -20.8076  -14.2617 N   0  0  0  0  0  0  0  0  0  0  0  0
   23.8959  -21.7742  -15.9663 C   0  0  0  0  0  0  0  0  0  0  0  0
   23.7954  -21.3205  -17.1260 O   0  0  0  0  0  0  0  0  0  0  0  0
   27.8698  -29.3814  -16.3873 N   0  0  0  0  0  0  0  0  0  0  0  0
   28.1248  -27.9891  -16.4059 C   0  0  0  0  0  0  0  0  0  0  0  0
   29.2552  -27.5342  -15.9896 N   0  0  0  0  0  0  0  0  0  0  0  0
   27.1644  -27.0538  -16.8763 N   0  0  0  0  0  0  0  0  0  0  0  0
   25.8630  -27.4474  -17.3653 C   0  0  0  0  0  0  0  0  0  0  0  0
   25.0298  -26.2492  -17.7421 C   0  0  0  0  0  0  0  0  0  0  0  0
   24.8722  -25.2607  -16.6466 C   0  0  0  0  0  0  0  0  0  0  0  0
   24.0454  -24.0482  -17.0075 C   0  0  2  0  0  0  0  0  0  0  0  0
   23.9849  -23.1762  -15.8371 N   0  0  0  0  0  0  0  0  0  0  0  0
   22.6611  -24.4263  -17.3264 C   0  0  0  0  0  0  0  0  0  0  0  0
   21.6696  -24.4784  -16.3709 O   0  0  0  0  0  0  0  0  0  0  0  0
   22.3609  -24.7128  -18.5031 O   0  0  0  0  0  0  0  0  0  0  0  0
  2  1  1  6
  2 10  1  0
  2  3  1  0
  4  3  1  0
  4  5  2  0
  6  5  1  0
  7  6  2  0
  8  9  2  0
  8  7  1  0
  9  4  1  0
 10 11  2  0
 12 13  1  0
 12 10  1  0
 13 14  1  6
 15 14  1  0
 16 15  2  0
 17 16  1  0
 18 17  1  0
 18 19  2  0
 19 15  1  0
 20 30  1  0
 20 13  1  0
 21 20  2  0
 23 24  2  0
 23 22  1  0
 25 23  1  0
 26 25  1  0
 26 27  1  0
 27 28  1  0
 29 30  1  0
 29 28  1  1
 31 32  1  0
 31 29  1  0
 33 31  2  0
M  END
$$$$
