FHR.pdb
     RDKit          3D

 33 34  0  0  1  0  0  0  0  0999 V2000
   25.5653  -21.8509  -19.1691 N   0  0  0  0  0  0  0  0  0  0  0  0
   24.4822  -20.9162  -19.2744 C   0  0  1  0  0  0  0  0  0  0  0  0
   23.3280  -21.5544  -20.0129 C   0  0  0  0  0  0  0  0  0  0  0  0
   23.4944  -21.4709  -21.4757 C   0  0  0  0  0  0  0  0  0  0  0  0
   23.1740  -20.3512  -22.1823 C   0  0  0  0  0  0  0  0  0  0  0  0
   23.3493  -20.3221  -23.5636 C   0  0  0  0  0  0  0  0  0  0  0  0
   23.8450  -21.4077  -24.2515 C   0  0  0  0  0  0  0  0  0  0  0  0
   24.1668  -22.5365  -23.5299 C   0  0  0  0  0  0  0  0  0  0  0  0
   23.9966  -22.5766  -22.1571 C   0  0  0  0  0  0  0  0  0  0  0  0
   24.0083  -20.5894  -17.8811 C   0  0  0  0  0  0  0  0  0  0  0  0
   24.1059  -21.4361  -16.9584 O   0  0  0  0  0  0  0  0  0  0  0  0
   23.4435  -19.3214  -17.5832 N   0  0  0  0  0  0  0  0  0  0  0  0
   23.0827  -18.8455  -16.2743 C   0  0  1  0  0  0  0  0  0  0  0  0
   23.1720  -17.3710  -16.1076 C   0  0  0  0  0  0  0  0  0  0  0  0
   24.5589  -16.8646  -16.0807 C   0  0  0  0  0  0  0  0  0  0  0  0
   25.7385  -17.5583  -16.2046 C   0  0  0  0  0  0  0  0  0  0  0  0
   26.7835  -16.6825  -16.1197 N   0  0  0  0  0  0  0  0  0  0  0  0
   26.2413  -15.4468  -15.9428 C   0  0  0  0  0  0  0  0  0  0  0  0
   24.8990  -15.5782  -15.9222 N   0  0  0  0  0  0  0  0  0  0  0  0
   21.8679  -19.4724  -15.6999 C   0  0  0  0  0  0  0  0  0  0  0  0
   20.7913  -19.4239  -16.3317 O   0  0  0  0  0  0  0  0  0  0  0  0
   17.6332  -24.2687  -11.0752 N   0  0  0  0  0  0  0  0  0  0  0  0
   17.6456  -25.1252  -12.2022 C   0  0  0  0  0  0  0  0  0  0  0  0
   16.6385  -25.8907  -12.4423 N   0  0  0  0  0  0  0  0  0  0  0  0
   18.7469  -25.1746  -13.0984 N   0  0  0  0  0  0  0  0  0  0  0  0
   19.9457  -24.3907  -12.9090 C   0  0  0  0  0  0  0  0  0  0  0  0
   19.6872  -22.9234  -13.1379 C   0  0  0  0  0  0  0  0  0  0  0  0
   20.8402  -22.1964  -13.7244 C   0  0  0  0  0  0  0  0  0  0  0  0
   20.6158  -20.7148  -13.9205 C   0  0  2  0  0  0  0  0  0  0  0  0
   21.8461  -20.1369  -14.4556 N   0  0  0  0  0  0  0  0  0  0  0  0
   20.3549  -20.0439  -12.6387 C   0  0  0  0  0  0  0  0  0  0  0  0
   19.0947  -19.9681  -12.0864 O   0  0  0  0  0  0  0  0  0  0  0  0
   21.3024  -19.5200  -12.0186 O   0  0  0  0  0  0  0  0  0  0  0  0
  2  1  1  1
  2 10  1  0
  2  3  1  0
  4  3  1  0
  4  5  2  0
  6  5  1  0
  7  6  2  0
  8  9  2  0
  8  7  1  0
  9  4  1  0
 10 11  2  0
 12 13  1  0
 12 10  1  0
 13 14  1  6
 15 14  1  0
 16 15  2  0
 17 16  1  0
 18 17  1  0
 18 19  2  0
 19 15  1  0
 20 30  1  0
 20 13  1  0
 21 20  2  0
 23 24  2  0
 23 22  1  0
 25 23  1  0
 26 25  1  0
 26 27  1  0
 27 28  1  0
 29 30  1  0
 29 28  1  1
 31 32  1  0
 31 29  1  0
 33 31  2  0
M  END
$$$$
