MKQ.pdb
     RDKit          3D

 27 26  0  0  1  0  0  0  0  0999 V2000
   27.4885  -11.9952  -21.4197 C   0  0  0  0  0  0  0  0  0  0  0  0
   25.8489  -11.2715  -21.1228 S   0  0  0  0  0  0  0  0  0  0  0  0
   24.7569  -12.6071  -20.5578 C   0  0  0  0  0  0  0  0  0  0  0  0
   23.3425  -12.1501  -20.4012 C   0  0  0  0  0  0  0  0  0  0  0  0
   22.4773  -13.3339  -20.0542 C   0  0  2  0  0  0  0  0  0  0  0  0
   22.4075  -14.2812  -21.1453 N   0  0  0  0  0  0  0  0  0  0  0  0
   21.1056  -12.9470  -19.6760 C   0  0  0  0  0  0  0  0  0  0  0  0
   20.3292  -12.5254  -20.5620 O   0  0  0  0  0  0  0  0  0  0  0  0
   20.6853  -13.0516  -18.3461 N   0  0  0  0  0  0  0  0  0  0  0  0
   19.3191  -12.7184  -17.9144 C   0  0  1  0  0  0  0  0  0  0  0  0
   18.8779  -13.9034  -17.0815 C   0  0  0  0  0  0  0  0  0  0  0  0
   17.4918  -13.7929  -16.5580 C   0  0  0  0  0  0  0  0  0  0  0  0
   17.1078  -15.0632  -15.8517 C   0  0  0  0  0  0  0  0  0  0  0  0
   15.6706  -15.0799  -15.4457 C   0  0  0  0  0  0  0  0  0  0  0  0
   15.4118  -16.3191  -14.7365 N   0  0  0  0  0  0  0  0  0  0  0  0
   19.3909  -11.4548  -17.1720 C   0  0  0  0  0  0  0  0  0  0  0  0
   20.3390  -11.2720  -16.3685 O   0  0  0  0  0  0  0  0  0  0  0  0
   19.1159   -6.1125  -19.2713 N   0  0  0  0  0  0  0  0  0  0  0  0
   18.8618   -5.6687  -17.9279 C   0  0  0  0  0  0  0  0  0  0  0  0
   18.7978   -4.4489  -17.7248 O   0  0  0  0  0  0  0  0  0  0  0  0
   18.7026   -6.7277  -16.9192 C   0  0  0  0  0  0  0  0  0  0  0  0
   18.6791   -8.0855  -17.5159 C   0  0  0  0  0  0  0  0  0  0  0  0
   18.5366   -9.2257  -16.5683 C   0  0  2  0  0  0  0  0  0  0  0  0
   18.4293  -10.4478  -17.3361 N   0  0  0  0  0  0  0  0  0  0  0  0
   17.3857   -9.0660  -15.6386 C   0  0  0  0  0  0  0  0  0  0  0  0
   17.6155   -8.5152  -14.5319 O   0  0  0  0  0  0  0  0  0  0  0  0
   16.1152   -9.4801  -15.9217 O   0  0  0  0  0  0  0  0  0  0  0  0
  1  2  1  0
  3  4  1  0
  3  2  1  0
  4  5  1  0
  5  6  1  6
  7  8  2  0
  7  5  1  0
  9  7  1  0
 10  9  1  0
 10 11  1  1
 11 12  1  0
 12 13  1  0
 13 14  1  0
 14 15  1  0
 16 10  1  0
 17 16  2  0
 19 18  1  0
 19 21  1  0
 20 19  2  0
 23 22  1  6
 22 21  1  0
 23 24  1  0
 24 16  1  0
 25 23  1  0
 26 25  2  0
 27 25  1  0
M  END
$$$$
