MKQ.pdb
     RDKit          3D

 27 26  0  0  1  0  0  0  0  0999 V2000
   31.3476   -7.0491  -17.0913 C   0  0  0  0  0  0  0  0  0  0  0  0
   31.1903   -8.8161  -17.4830 S   0  0  0  0  0  0  0  0  0  0  0  0
   30.4420   -8.9452  -19.1319 C   0  0  0  0  0  0  0  0  0  0  0  0
   29.0409   -8.4254  -19.1569 C   0  0  0  0  0  0  0  0  0  0  0  0
   28.0913   -9.5517  -18.8404 C   0  0  2  0  0  0  0  0  0  0  0  0
   28.2532  -10.6589  -19.7573 N   0  0  0  0  0  0  0  0  0  0  0  0
   26.6788   -9.1287  -18.8553 C   0  0  0  0  0  0  0  0  0  0  0  0
   26.1974   -8.6625  -19.9120 O   0  0  0  0  0  0  0  0  0  0  0  0
   25.8952   -9.2488  -17.7031 N   0  0  0  0  0  0  0  0  0  0  0  0
   24.4747   -8.8685  -17.6634 C   0  0  1  0  0  0  0  0  0  0  0  0
   23.7499  -10.1282  -17.2385 C   0  0  0  0  0  0  0  0  0  0  0  0
   22.2824   -9.9578  -17.0793 C   0  0  0  0  0  0  0  0  0  0  0  0
   21.6380  -11.2892  -16.8107 C   0  0  0  0  0  0  0  0  0  0  0  0
   20.1515  -11.1937  -16.7021 C   0  0  0  0  0  0  0  0  0  0  0  0
   19.6157  -12.5371  -16.5863 N   0  0  0  0  0  0  0  0  0  0  0  0
   24.3466   -7.7532  -16.7186 C   0  0  0  0  0  0  0  0  0  0  0  0
   25.0758   -7.7329  -15.6959 O   0  0  0  0  0  0  0  0  0  0  0  0
   22.6346   -2.1952  -18.3142 N   0  0  0  0  0  0  0  0  0  0  0  0
   22.6779   -1.9364  -16.9010 C   0  0  0  0  0  0  0  0  0  0  0  0
   22.4405   -0.7834  -16.5172 O   0  0  0  0  0  0  0  0  0  0  0  0
   23.0058   -3.0873  -16.0454 C   0  0  0  0  0  0  0  0  0  0  0  0
   23.1351   -4.3504  -16.8124 C   0  0  0  0  0  0  0  0  0  0  0  0
   23.4175   -5.5816  -16.0232 C   0  0  2  0  0  0  0  0  0  0  0  0
   23.4322   -6.7112  -16.9277 N   0  0  0  0  0  0  0  0  0  0  0  0
   22.4522   -5.7902  -14.9100 C   0  0  0  0  0  0  0  0  0  0  0  0
   21.4593   -6.5256  -15.1429 O   0  0  0  0  0  0  0  0  0  0  0  0
   22.5880   -5.2331  -13.6702 O   0  0  0  0  0  0  0  0  0  0  0  0
  1  2  1  0
  3  4  1  0
  3  2  1  0
  4  5  1  0
  5  6  1  6
  7  8  2  0
  7  5  1  0
  9  7  1  0
 10  9  1  0
 10 11  1  1
 11 12  1  0
 12 13  1  0
 13 14  1  0
 14 15  1  0
 16 10  1  0
 17 16  2  0
 19 18  1  0
 19 21  1  0
 20 19  2  0
 23 22  1  6
 22 21  1  0
 23 24  1  0
 24 16  1  0
 25 23  1  0
 26 25  2  0
 27 25  1  0
M  END
$$$$
