MKQ.pdb
     RDKit          3D

 27 26  0  0  1  0  0  0  0  0999 V2000
   29.3933  -35.4225  -16.2437 C   0  0  0  0  0  0  0  0  0  0  0  0
   28.4881  -33.8509  -16.1380 S   0  0  0  0  0  0  0  0  0  0  0  0
   29.5880  -32.6393  -15.3519 C   0  0  0  0  0  0  0  0  0  0  0  0
   28.9862  -31.2716  -15.3171 C   0  0  0  0  0  0  0  0  0  0  0  0
   28.5856  -30.8734  -16.7141 C   0  0  2  0  0  0  0  0  0  0  0  0
   29.7401  -30.6575  -17.5585 N   0  0  0  0  0  0  0  0  0  0  0  0
   27.7455  -29.6619  -16.7435 C   0  0  0  0  0  0  0  0  0  0  0  0
   26.6179  -29.6937  -16.2021 O   0  0  0  0  0  0  0  0  0  0  0  0
   28.2075  -28.4992  -17.3685 N   0  0  0  0  0  0  0  0  0  0  0  0
   27.4601  -27.2324  -17.3456 C   0  0  1  0  0  0  0  0  0  0  0  0
   28.4367  -26.1988  -17.8658 C   0  0  0  0  0  0  0  0  0  0  0  0
   27.8246  -24.8739  -18.1446 C   0  0  0  0  0  0  0  0  0  0  0  0
   28.0174  -23.9619  -16.9652 C   0  0  0  0  0  0  0  0  0  0  0  0
   27.3870  -22.6232  -17.1682 C   0  0  0  0  0  0  0  0  0  0  0  0
   27.7025  -21.7922  -16.0213 N   0  0  0  0  0  0  0  0  0  0  0  0
   26.2699  -27.4114  -18.1848 C   0  0  0  0  0  0  0  0  0  0  0  0
   26.4167  -27.6946  -19.3998 O   0  0  0  0  0  0  0  0  0  0  0  0
   23.0275  -31.4879  -18.1604 N   0  0  0  0  0  0  0  0  0  0  0  0
   22.5398  -30.7010  -17.0608 C   0  0  0  0  0  0  0  0  0  0  0  0
   22.0548  -31.3001  -16.0918 O   0  0  0  0  0  0  0  0  0  0  0  0
   22.6696  -29.2427  -17.2052 C   0  0  0  0  0  0  0  0  0  0  0  0
   23.3728  -28.8528  -18.4517 C   0  0  0  0  0  0  0  0  0  0  0  0
   23.8336  -27.4392  -18.5407 C   0  0  2  0  0  0  0  0  0  0  0  0
   24.9747  -27.2741  -17.6660 N   0  0  0  0  0  0  0  0  0  0  0  0
   22.7600  -26.4589  -18.2233 C   0  0  0  0  0  0  0  0  0  0  0  0
   21.7661  -26.4285  -18.9929 O   0  0  0  0  0  0  0  0  0  0  0  0
   22.7990  -25.6058  -17.1571 O   0  0  0  0  0  0  0  0  0  0  0  0
  1  2  1  0
  3  4  1  0
  3  2  1  0
  4  5  1  0
  5  6  1  6
  7  8  2  0
  7  5  1  0
  9  7  1  0
 10  9  1  0
 10 11  1  6
 11 12  1  0
 12 13  1  0
 13 14  1  0
 14 15  1  0
 16 10  1  0
 17 16  2  0
 19 18  1  0
 19 21  1  0
 20 19  2  0
 23 22  1  1
 22 21  1  0
 23 24  1  0
 24 16  1  0
 25 23  1  0
 26 25  2  0
 27 25  1  0
M  END
$$$$
