MKQ.pdb
     RDKit          3D

 27 26  0  0  1  0  0  0  0  0999 V2000
   26.1743  -17.2688  -18.1045 C   0  0  0  0  0  0  0  0  0  0  0  0
   27.9475  -17.5215  -17.8005 S   0  0  0  0  0  0  0  0  0  0  0  0
   28.1639  -19.2275  -17.2186 C   0  0  0  0  0  0  0  0  0  0  0  0
   27.0516  -19.6612  -16.3193 C   0  0  0  0  0  0  0  0  0  0  0  0
   27.3831  -21.0129  -15.7418 C   0  0  2  0  0  0  0  0  0  0  0  0
   27.3627  -22.0451  -16.7552 N   0  0  0  0  0  0  0  0  0  0  0  0
   26.4738  -21.4054  -14.6493 C   0  0  0  0  0  0  0  0  0  0  0  0
   25.5157  -22.1689  -14.9037 O   0  0  0  0  0  0  0  0  0  0  0  0
   26.6842  -20.9279  -13.3517 N   0  0  0  0  0  0  0  0  0  0  0  0
   25.7288  -21.1530  -12.2560 C   0  0  1  0  0  0  0  0  0  0  0  0
   26.4716  -20.7347  -11.0046 C   0  0  0  0  0  0  0  0  0  0  0  0
   25.6760  -20.8647   -9.7564 C   0  0  0  0  0  0  0  0  0  0  0  0
   26.4898  -20.4037   -8.5795 C   0  0  0  0  0  0  0  0  0  0  0  0
   25.7294  -20.4730   -7.2959 C   0  0  0  0  0  0  0  0  0  0  0  0
   26.5684  -19.9382   -6.2397 N   0  0  0  0  0  0  0  0  0  0  0  0
   24.5354  -20.3494  -12.5441 C   0  0  0  0  0  0  0  0  0  0  0  0
   24.6777  -19.1816  -12.9846 O   0  0  0  0  0  0  0  0  0  0  0  0
   23.3376  -19.9385  -17.0221 N   0  0  0  0  0  0  0  0  0  0  0  0
   21.9106  -19.8534  -16.8714 C   0  0  0  0  0  0  0  0  0  0  0  0
   21.2345  -19.6354  -17.8855 O   0  0  0  0  0  0  0  0  0  0  0  0
   21.3954  -20.0365  -15.5056 C   0  0  0  0  0  0  0  0  0  0  0  0
   22.4452  -20.4738  -14.5533 C   0  0  0  0  0  0  0  0  0  0  0  0
   22.1381  -20.3116  -13.1049 C   0  0  2  0  0  0  0  0  0  0  0  0
   23.2422  -20.8509  -12.3402 N   0  0  0  0  0  0  0  0  0  0  0  0
   20.8477  -20.9403  -12.7123 C   0  0  0  0  0  0  0  0  0  0  0  0
   19.7962  -20.4214  -13.1662 O   0  0  0  0  0  0  0  0  0  0  0  0
   20.7497  -22.0330  -11.8985 O   0  0  0  0  0  0  0  0  0  0  0  0
  1  2  1  0
  3  4  1  0
  3  2  1  0
  4  5  1  0
  5  6  1  6
  7  8  2  0
  7  5  1  0
  9  7  1  0
 10  9  1  0
 10 11  1  1
 11 12  1  0
 12 13  1  0
 13 14  1  0
 14 15  1  0
 16 10  1  0
 17 16  2  0
 19 18  1  0
 19 21  1  0
 20 19  2  0
 23 22  1  6
 22 21  1  0
 23 24  1  0
 24 16  1  0
 25 23  1  0
 26 25  2  0
 27 25  1  0
M  END
$$$$
