MKQ.pdb
     RDKit          3D

 27 26  0  0  1  0  0  0  0  0999 V2000
   26.8218  -24.6705  -21.2042 C   0  0  0  0  0  0  0  0  0  0  0  0
   28.0306  -25.8311  -20.5025 S   0  0  0  0  0  0  0  0  0  0  0  0
   28.9745  -24.9366  -19.2358 C   0  0  0  0  0  0  0  0  0  0  0  0
   28.0865  -24.1843  -18.2980 C   0  0  0  0  0  0  0  0  0  0  0  0
   28.9386  -23.4287  -17.3113 C   0  0  2  0  0  0  0  0  0  0  0  0
   29.3385  -24.2660  -16.2016 N   0  0  0  0  0  0  0  0  0  0  0  0
   28.2675  -22.2282  -16.7796 C   0  0  0  0  0  0  0  0  0  0  0  0
   27.7048  -22.2931  -15.6639 O   0  0  0  0  0  0  0  0  0  0  0  0
   28.2635  -21.0390  -17.5158 N   0  0  0  0  0  0  0  0  0  0  0  0
   27.5733  -19.8227  -17.0595 C   0  0  1  0  0  0  0  0  0  0  0  0
   28.3290  -18.6833  -17.7101 C   0  0  0  0  0  0  0  0  0  0  0  0
   27.4954  -17.4854  -17.9895 C   0  0  0  0  0  0  0  0  0  0  0  0
   28.3439  -16.3991  -18.5895 C   0  0  0  0  0  0  0  0  0  0  0  0
   27.6111  -15.1036  -18.7134 C   0  0  0  0  0  0  0  0  0  0  0  0
   28.4558  -14.1693  -19.4337 N   0  0  0  0  0  0  0  0  0  0  0  0
   26.1714  -19.9317  -17.4789 C   0  0  0  0  0  0  0  0  0  0  0  0
   25.7952  -20.9638  -18.0884 O   0  0  0  0  0  0  0  0  0  0  0  0
   23.2644  -20.4185  -13.0315 N   0  0  0  0  0  0  0  0  0  0  0  0
   22.5201  -21.2257  -13.9592 C   0  0  0  0  0  0  0  0  0  0  0  0
   21.6279  -21.9542  -13.5047 O   0  0  0  0  0  0  0  0  0  0  0  0
   22.9035  -21.0999  -15.3739 C   0  0  0  0  0  0  0  0  0  0  0  0
   24.0016  -20.1248  -15.5832 C   0  0  0  0  0  0  0  0  0  0  0  0
   23.9032  -19.2624  -16.7935 C   0  0  2  0  0  0  0  0  0  0  0  0
   25.2425  -18.9148  -17.2175 N   0  0  0  0  0  0  0  0  0  0  0  0
   23.0712  -18.0483  -16.5736 C   0  0  0  0  0  0  0  0  0  0  0  0
   21.8243  -18.2068  -16.5390 O   0  0  0  0  0  0  0  0  0  0  0  0
   23.5845  -16.7929  -16.4103 O   0  0  0  0  0  0  0  0  0  0  0  0
  1  2  1  0
  3  4  1  0
  3  2  1  0
  4  5  1  0
  5  6  1  1
  7  8  2  0
  7  5  1  0
  9  7  1  0
 10  9  1  0
 10 11  1  6
 11 12  1  0
 12 13  1  0
 13 14  1  0
 14 15  1  0
 16 10  1  0
 17 16  2  0
 19 18  1  0
 19 21  1  0
 20 19  2  0
 23 22  1  1
 22 21  1  0
 23 24  1  0
 24 16  1  0
 25 23  1  0
 26 25  2  0
 27 25  1  0
M  END
$$$$
