MKQ.pdb
     RDKit          3D

 27 26  0  0  1  0  0  0  0  0999 V2000
   29.2629  -19.2971   -6.1272 C   0  0  0  0  0  0  0  0  0  0  0  0
   27.4605  -19.4126   -5.9315 S   0  0  0  0  0  0  0  0  0  0  0  0
   26.8522  -20.5972   -7.1654 C   0  0  0  0  0  0  0  0  0  0  0  0
   27.2097  -20.1923   -8.5590 C   0  0  0  0  0  0  0  0  0  0  0  0
   25.9827  -20.2832   -9.4290 C   0  0  2  0  0  0  0  0  0  0  0  0
   25.4524  -21.6287   -9.4637 N   0  0  0  0  0  0  0  0  0  0  0  0
   26.2297  -19.8368  -10.8125 C   0  0  0  0  0  0  0  0  0  0  0  0
   26.4890  -18.6309  -11.0226 O   0  0  0  0  0  0  0  0  0  0  0  0
   26.1731  -20.7518  -11.8688 N   0  0  0  0  0  0  0  0  0  0  0  0
   26.0343  -20.3383  -13.2736 C   0  0  1  0  0  0  0  0  0  0  0  0
   27.3397  -20.7428  -13.9255 C   0  0  0  0  0  0  0  0  0  0  0  0
   27.4558  -20.3379  -15.3504 C   0  0  0  0  0  0  0  0  0  0  0  0
   28.7395  -20.8636  -15.9297 C   0  0  0  0  0  0  0  0  0  0  0  0
   28.9789  -20.3802  -17.3225 C   0  0  0  0  0  0  0  0  0  0  0  0
   27.7219  -20.4322  -18.0453 N   0  0  0  0  0  0  0  0  0  0  0  0
   24.8542  -21.0208  -13.8161 C   0  0  0  0  0  0  0  0  0  0  0  0
   24.7255  -22.2567  -13.6319 O   0  0  0  0  0  0  0  0  0  0  0  0
   20.8411  -19.6743  -11.1506 N   0  0  0  0  0  0  0  0  0  0  0  0
   20.0544  -20.7123  -11.7587 C   0  0  0  0  0  0  0  0  0  0  0  0
   18.9169  -20.9118  -11.3121 O   0  0  0  0  0  0  0  0  0  0  0  0
   20.6942  -21.4406  -12.8652 C   0  0  0  0  0  0  0  0  0  0  0  0
   22.0951  -21.0115  -13.0967 C   0  0  0  0  0  0  0  0  0  0  0  0
   22.5026  -20.8088  -14.5149 C   0  0  2  0  0  0  0  0  0  0  0  0
   23.8681  -20.3298  -14.5343 N   0  0  0  0  0  0  0  0  0  0  0  0
   21.5944  -19.8897  -15.2529 C   0  0  0  0  0  0  0  0  0  0  0  0
   20.4400  -20.3134  -15.5151 O   0  0  0  0  0  0  0  0  0  0  0  0
   21.9452  -18.6315  -15.6527 O   0  0  0  0  0  0  0  0  0  0  0  0
  1  2  1  0
  3  4  1  0
  3  2  1  0
  4  5  1  0
  5  6  1  6
  7  8  2  0
  7  5  1  0
  9  7  1  0
 10  9  1  0
 10 11  1  6
 11 12  1  0
 12 13  1  0
 13 14  1  0
 14 15  1  0
 16 10  1  0
 17 16  2  0
 19 18  1  0
 19 21  1  0
 20 19  2  0
 23 22  1  1
 22 21  1  0
 23 24  1  0
 24 16  1  0
 25 23  1  0
 26 25  2  0
 27 25  1  0
M  END
$$$$
