MKQ.pdb
     RDKit          3D

 27 26  0  0  1  0  0  0  0  0999 V2000
   21.3385  -28.2746  -10.3615 C   0  0  0  0  0  0  0  0  0  0  0  0
   20.1117  -27.0708  -10.9500 S   0  0  0  0  0  0  0  0  0  0  0  0
   18.5683  -27.3775  -10.0448 C   0  0  0  0  0  0  0  0  0  0  0  0
   18.6811  -27.0139   -8.5995 C   0  0  0  0  0  0  0  0  0  0  0  0
   18.1668  -25.6114   -8.4022 C   0  0  2  0  0  0  0  0  0  0  0  0
   19.0515  -24.6311   -8.9929 N   0  0  0  0  0  0  0  0  0  0  0  0
   17.9663  -25.2715   -6.9814 C   0  0  0  0  0  0  0  0  0  0  0  0
   18.9578  -24.9460   -6.2909 O   0  0  0  0  0  0  0  0  0  0  0  0
   16.6859  -25.3146   -6.4205 N   0  0  0  0  0  0  0  0  0  0  0  0
   16.4158  -24.9417   -5.0234 C   0  0  1  0  0  0  0  0  0  0  0  0
   15.1405  -24.1275   -5.0811 C   0  0  0  0  0  0  0  0  0  0  0  0
   14.6941  -23.6075   -3.7628 C   0  0  0  0  0  0  0  0  0  0  0  0
   13.4826  -22.7351   -3.9394 C   0  0  0  0  0  0  0  0  0  0  0  0
   12.9905  -22.1711   -2.6470 C   0  0  0  0  0  0  0  0  0  0  0  0
   11.9312  -21.2229   -2.9374 N   0  0  0  0  0  0  0  0  0  0  0  0
   16.3013  -26.1851   -4.2530 C   0  0  0  0  0  0  0  0  0  0  0  0
   16.0594  -27.2586   -4.8590 O   0  0  0  0  0  0  0  0  0  0  0  0
   18.5863  -29.7361    0.0405 N   0  0  0  0  0  0  0  0  0  0  0  0
   18.0420  -28.6635    0.8274 C   0  0  0  0  0  0  0  0  0  0  0  0
   18.0636  -28.7824    2.0597 O   0  0  0  0  0  0  0  0  0  0  0  0
   17.5072  -27.5190    0.0735 C   0  0  0  0  0  0  0  0  0  0  0  0
   17.5471  -27.7330   -1.3937 C   0  0  0  0  0  0  0  0  0  0  0  0
   16.2900  -27.4513   -2.1412 C   0  0  2  0  0  0  0  0  0  0  0  0
   16.4543  -26.2057   -2.8595 N   0  0  0  0  0  0  0  0  0  0  0  0
   15.0892  -27.4169   -1.2629 C   0  0  0  0  0  0  0  0  0  0  0  0
   14.5421  -28.5174   -0.9971 O   0  0  0  0  0  0  0  0  0  0  0  0
   14.5608  -26.2708   -0.7402 O   0  0  0  0  0  0  0  0  0  0  0  0
  1  2  1  0
  3  4  1  0
  3  2  1  0
  4  5  1  0
  5  6  1  1
  7  8  2  0
  7  5  1  0
  9  7  1  0
 10  9  1  0
 10 11  1  6
 11 12  1  0
 12 13  1  0
 13 14  1  0
 14 15  1  0
 16 10  1  0
 17 16  2  0
 19 18  1  0
 19 21  1  0
 20 19  2  0
 23 22  1  1
 22 21  1  0
 23 24  1  0
 24 16  1  0
 25 23  1  0
 26 25  2  0
 27 25  1  0
M  END
$$$$
