MKQ.pdb
     RDKit          3D

 27 26  0  0  1  0  0  0  0  0999 V2000
   22.4409  -18.1722  -20.9004 C   0  0  0  0  0  0  0  0  0  0  0  0
   23.8291  -17.0292  -20.6417 S   0  0  0  0  0  0  0  0  0  0  0  0
   25.3194  -18.0316  -20.3768 C   0  0  0  0  0  0  0  0  0  0  0  0
   25.0349  -19.2642  -19.5809 C   0  0  0  0  0  0  0  0  0  0  0  0
   25.3734  -19.0068  -18.1353 C   0  0  2  0  0  0  0  0  0  0  0  0
   26.7725  -19.2540  -17.8632 N   0  0  0  0  0  0  0  0  0  0  0  0
   24.5615  -19.8146  -17.2064 C   0  0  0  0  0  0  0  0  0  0  0  0
   23.6732  -20.5627  -17.6721 O   0  0  0  0  0  0  0  0  0  0  0  0
   24.7856  -19.7408  -15.8279 N   0  0  0  0  0  0  0  0  0  0  0  0
   23.9638  -20.4675  -14.8478 C   0  0  1  0  0  0  0  0  0  0  0  0
   24.6611  -20.2483  -13.5217 C   0  0  0  0  0  0  0  0  0  0  0  0
   23.9690  -20.8709  -12.3636 C   0  0  0  0  0  0  0  0  0  0  0  0
   24.7079  -20.5532  -11.0936 C   0  0  0  0  0  0  0  0  0  0  0  0
   24.0226  -21.0951   -9.8822 C   0  0  0  0  0  0  0  0  0  0  0  0
   24.8769  -20.8620   -8.7327 N   0  0  0  0  0  0  0  0  0  0  0  0
   22.6083  -19.9097  -14.9140 C   0  0  0  0  0  0  0  0  0  0  0  0
   22.4565  -18.6648  -14.8429 O   0  0  0  0  0  0  0  0  0  0  0  0
   18.0070  -21.7039  -18.1972 N   0  0  0  0  0  0  0  0  0  0  0  0
   17.2631  -20.7531  -17.4171 C   0  0  0  0  0  0  0  0  0  0  0  0
   16.0983  -20.5100  -17.7596 O   0  0  0  0  0  0  0  0  0  0  0  0
   17.9758  -20.1586  -16.2757 C   0  0  0  0  0  0  0  0  0  0  0  0
   19.3828  -20.6185  -16.1789 C   0  0  0  0  0  0  0  0  0  0  0  0
   20.1585  -20.1417  -15.0002 C   0  0  2  0  0  0  0  0  0  0  0  0
   21.4798  -20.7297  -15.0540 N   0  0  0  0  0  0  0  0  0  0  0  0
   19.4856  -20.4365  -13.7061 C   0  0  0  0  0  0  0  0  0  0  0  0
   18.4885  -19.7319  -13.4053 O   0  0  0  0  0  0  0  0  0  0  0  0
   19.8891  -21.4163  -12.8440 O   0  0  0  0  0  0  0  0  0  0  0  0
  1  2  1  0
  3  4  1  0
  3  2  1  0
  4  5  1  0
  5  6  1  6
  7  8  2  0
  7  5  1  0
  9  7  1  0
 10  9  1  0
 10 11  1  1
 11 12  1  0
 12 13  1  0
 13 14  1  0
 14 15  1  0
 16 10  1  0
 17 16  2  0
 19 18  1  0
 19 21  1  0
 20 19  2  0
 23 22  1  6
 22 21  1  0
 23 24  1  0
 24 16  1  0
 25 23  1  0
 26 25  2  0
 27 25  1  0
M  END
$$$$
