MKQ.pdb
     RDKit          3D

 27 26  0  0  1  0  0  0  0  0999 V2000
   26.5411  -14.6940  -14.3693 C   0  0  0  0  0  0  0  0  0  0  0  0
   27.5053  -14.3699  -15.8746 S   0  0  0  0  0  0  0  0  0  0  0  0
   26.4327  -14.7223  -17.2962 C   0  0  0  0  0  0  0  0  0  0  0  0
   25.7595  -13.4917  -17.8125 C   0  0  0  0  0  0  0  0  0  0  0  0
   24.7880  -12.9893  -16.7760 C   0  0  2  0  0  0  0  0  0  0  0  0
   23.7847  -13.9824  -16.4602 N   0  0  0  0  0  0  0  0  0  0  0  0
   24.1096  -11.7456  -17.1850 C   0  0  0  0  0  0  0  0  0  0  0  0
   24.8025  -10.7441  -17.4720 O   0  0  0  0  0  0  0  0  0  0  0  0
   22.7134  -11.6928  -17.2486 N   0  0  0  0  0  0  0  0  0  0  0  0
   21.9803  -10.4845  -17.6566 C   0  0  1  0  0  0  0  0  0  0  0  0
   20.5648  -10.9591  -17.9094 C   0  0  0  0  0  0  0  0  0  0  0  0
   19.6195   -9.8740  -18.2793 C   0  0  0  0  0  0  0  0  0  0  0  0
   18.2335  -10.4340  -18.4389 C   0  0  0  0  0  0  0  0  0  0  0  0
   17.2303   -9.3858  -18.7929 C   0  0  0  0  0  0  0  0  0  0  0  0
   15.9581  -10.0379  -19.0412 N   0  0  0  0  0  0  0  0  0  0  0  0
   22.1023   -9.5099  -16.5666 C   0  0  0  0  0  0  0  0  0  0  0  0
   22.0881   -9.9179  -15.3786 O   0  0  0  0  0  0  0  0  0  0  0  0
   23.7008   -3.5220  -17.0751 N   0  0  0  0  0  0  0  0  0  0  0  0
   22.2798   -3.7006  -17.1981 C   0  0  0  0  0  0  0  0  0  0  0  0
   21.6182   -2.7645  -17.6661 O   0  0  0  0  0  0  0  0  0  0  0  0
   21.7525   -4.9978  -16.7469 C   0  0  0  0  0  0  0  0  0  0  0  0
   22.8144   -5.8999  -16.2381 C   0  0  0  0  0  0  0  0  0  0  0  0
   22.3686   -7.2180  -15.7067 C   0  0  2  0  0  0  0  0  0  0  0  0
   22.2336   -8.1367  -16.8168 N   0  0  0  0  0  0  0  0  0  0  0  0
   21.1090   -7.1293  -14.9194 C   0  0  0  0  0  0  0  0  0  0  0  0
   21.2138   -6.8292  -13.7028 O   0  0  0  0  0  0  0  0  0  0  0  0
   19.8671   -7.3532  -15.4422 O   0  0  0  0  0  0  0  0  0  0  0  0
  1  2  1  0
  3  4  1  0
  3  2  1  0
  4  5  1  0
  5  6  1  6
  7  8  2  0
  7  5  1  0
  9  7  1  0
 10  9  1  0
 10 11  1  1
 11 12  1  0
 12 13  1  0
 13 14  1  0
 14 15  1  0
 16 10  1  0
 17 16  2  0
 19 18  1  0
 19 21  1  0
 20 19  2  0
 23 22  1  6
 22 21  1  0
 23 24  1  0
 24 16  1  0
 25 23  1  0
 26 25  2  0
 27 25  1  0
M  END
$$$$
