MKQ.pdb
     RDKit          3D

 27 26  0  0  1  0  0  0  0  0999 V2000
   30.1283  -21.2548  -11.5790 C   0  0  0  0  0  0  0  0  0  0  0  0
   29.7339  -20.6392   -9.9159 S   0  0  0  0  0  0  0  0  0  0  0  0
   28.1369  -21.3551   -9.4333 C   0  0  0  0  0  0  0  0  0  0  0  0
   27.3077  -21.7323  -10.6182 C   0  0  0  0  0  0  0  0  0  0  0  0
   26.3140  -20.6338  -10.8944 C   0  0  2  0  0  0  0  0  0  0  0  0
   25.3691  -20.4846   -9.8093 N   0  0  0  0  0  0  0  0  0  0  0  0
   25.5653  -20.8433  -12.1474 C   0  0  0  0  0  0  0  0  0  0  0  0
   26.1995  -21.0841  -13.1988 O   0  0  0  0  0  0  0  0  0  0  0  0
   24.1685  -20.7722  -12.1539 N   0  0  0  0  0  0  0  0  0  0  0  0
   23.3683  -20.9439  -13.3762 C   0  0  1  0  0  0  0  0  0  0  0  0
   21.9814  -21.2983  -12.8828 C   0  0  0  0  0  0  0  0  0  0  0  0
   20.9946  -21.5345  -13.9683 C   0  0  0  0  0  0  0  0  0  0  0  0
   19.6483  -21.8485  -13.3777 C   0  0  0  0  0  0  0  0  0  0  0  0
   18.5888  -22.0030  -14.4190 C   0  0  0  0  0  0  0  0  0  0  0  0
   17.3048  -22.1055  -13.7510 N   0  0  0  0  0  0  0  0  0  0  0  0
   23.4367  -19.6837  -14.1245 C   0  0  0  0  0  0  0  0  0  0  0  0
   23.5153  -18.6015  -13.4915 O   0  0  0  0  0  0  0  0  0  0  0  0
   28.0923  -18.8972  -14.8235 N   0  0  0  0  0  0  0  0  0  0  0  0
   27.9262  -17.9530  -15.8945 C   0  0  0  0  0  0  0  0  0  0  0  0
   28.9300  -17.3454  -16.2900 O   0  0  0  0  0  0  0  0  0  0  0  0
   26.5585  -17.8048  -16.4159 C   0  0  0  0  0  0  0  0  0  0  0  0
   25.5938  -18.7179  -15.7555 C   0  0  0  0  0  0  0  0  0  0  0  0
   24.1842  -18.6535  -16.2324 C   0  0  2  0  0  0  0  0  0  0  0  0
   23.4163  -19.6564  -15.5261 N   0  0  0  0  0  0  0  0  0  0  0  0
   24.0634  -18.8160  -17.7066 C   0  0  0  0  0  0  0  0  0  0  0  0
   24.6038  -17.9376  -18.4259 O   0  0  0  0  0  0  0  0  0  0  0  0
   23.4069  -19.8525  -18.3070 O   0  0  0  0  0  0  0  0  0  0  0  0
  1  2  1  0
  3  4  1  0
  3  2  1  0
  4  5  1  0
  5  6  1  1
  7  8  2  0
  7  5  1  0
  9  7  1  0
 10  9  1  0
 10 11  1  1
 11 12  1  0
 12 13  1  0
 13 14  1  0
 14 15  1  0
 16 10  1  0
 17 16  2  0
 19 18  1  0
 19 21  1  0
 20 19  2  0
 23 22  1  1
 22 21  1  0
 23 24  1  0
 24 16  1  0
 25 23  1  0
 26 25  2  0
 27 25  1  0
M  END
$$$$
