MKQ.pdb
     RDKit          3D

 27 26  0  0  1  0  0  0  0  0999 V2000
   24.3956  -21.2102   -9.2145 C   0  0  0  0  0  0  0  0  0  0  0  0
   26.1494  -20.9598   -8.8121 S   0  0  0  0  0  0  0  0  0  0  0  0
   26.9185  -20.1171  -10.2243 C   0  0  0  0  0  0  0  0  0  0  0  0
   26.3470  -20.5690  -11.5293 C   0  0  0  0  0  0  0  0  0  0  0  0
   27.1306  -19.9430  -12.6539 C   0  0  2  0  0  0  0  0  0  0  0  0
   27.0791  -18.4984  -12.5999 N   0  0  0  0  0  0  0  0  0  0  0  0
   26.6705  -20.3828  -13.9840 C   0  0  0  0  0  0  0  0  0  0  0  0
   25.6635  -19.8368  -14.4875 O   0  0  0  0  0  0  0  0  0  0  0  0
   27.3530  -21.3949  -14.6666 N   0  0  0  0  0  0  0  0  0  0  0  0
   26.9870  -21.8259  -16.0246 C   0  0  1  0  0  0  0  0  0  0  0  0
   28.1737  -22.6341  -16.5058 C   0  0  0  0  0  0  0  0  0  0  0  0
   28.0256  -23.1640  -17.8860 C   0  0  0  0  0  0  0  0  0  0  0  0
   28.2126  -22.0551  -18.8836 C   0  0  0  0  0  0  0  0  0  0  0  0
   27.9680  -22.5016  -20.2877 C   0  0  0  0  0  0  0  0  0  0  0  0
   28.2570  -21.3912  -21.1759 N   0  0  0  0  0  0  0  0  0  0  0  0
   25.7402  -22.5922  -15.9194 C   0  0  0  0  0  0  0  0  0  0  0  0
   25.6214  -23.4414  -15.0014 O   0  0  0  0  0  0  0  0  0  0  0  0
   22.4034  -20.6147  -13.0080 N   0  0  0  0  0  0  0  0  0  0  0  0
   21.3026  -21.3872  -13.5154 C   0  0  0  0  0  0  0  0  0  0  0  0
   20.2287  -21.3354  -12.9013 O   0  0  0  0  0  0  0  0  0  0  0  0
   21.5724  -22.1716  -14.7304 C   0  0  0  0  0  0  0  0  0  0  0  0
   22.9809  -22.0587  -15.1818 C   0  0  0  0  0  0  0  0  0  0  0  0
   23.3394  -22.7874  -16.4303 C   0  0  2  0  0  0  0  0  0  0  0  0
   24.6797  -22.4014  -16.8163 N   0  0  0  0  0  0  0  0  0  0  0  0
   22.3689  -22.5570  -17.5346 C   0  0  0  0  0  0  0  0  0  0  0  0
   22.6274  -21.6263  -18.3395 O   0  0  0  0  0  0  0  0  0  0  0  0
   21.2319  -23.2924  -17.7147 O   0  0  0  0  0  0  0  0  0  0  0  0
  1  2  1  0
  3  4  1  0
  3  2  1  0
  4  5  1  0
  5  6  1  6
  7  8  2  0
  7  5  1  0
  9  7  1  0
 10  9  1  0
 10 11  1  1
 11 12  1  0
 12 13  1  0
 13 14  1  0
 14 15  1  0
 16 10  1  0
 17 16  2  0
 19 18  1  0
 19 21  1  0
 20 19  2  0
 23 22  1  1
 22 21  1  0
 23 24  1  0
 24 16  1  0
 25 23  1  0
 26 25  2  0
 27 25  1  0
M  END
$$$$
