MKQ.pdb
     RDKit          3D

 27 26  0  0  1  0  0  0  0  0999 V2000
   22.9948  -28.0170  -16.5737 C   0  0  0  0  0  0  0  0  0  0  0  0
   23.7685  -27.2151  -18.0086 S   0  0  0  0  0  0  0  0  0  0  0  0
   24.5424  -25.6802  -17.4247 C   0  0  0  0  0  0  0  0  0  0  0  0
   23.8452  -25.1177  -16.2283 C   0  0  0  0  0  0  0  0  0  0  0  0
   24.5420  -23.8517  -15.8015 C   0  0  2  0  0  0  0  0  0  0  0  0
   25.8615  -24.1215  -15.2735 N   0  0  0  0  0  0  0  0  0  0  0  0
   23.7775  -23.0904  -14.7963 C   0  0  0  0  0  0  0  0  0  0  0  0
   23.9448  -23.3503  -13.5839 O   0  0  0  0  0  0  0  0  0  0  0  0
   22.8808  -22.0952  -15.1984 N   0  0  0  0  0  0  0  0  0  0  0  0
   22.0513  -21.3396  -14.2472 C   0  0  1  0  0  0  0  0  0  0  0  0
   21.6907  -20.0638  -14.9787 C   0  0  0  0  0  0  0  0  0  0  0  0
   20.7427  -19.1899  -14.2401 C   0  0  0  0  0  0  0  0  0  0  0  0
   20.4735  -17.9410  -15.0324 C   0  0  0  0  0  0  0  0  0  0  0  0
   19.4578  -17.0593  -14.3829 C   0  0  0  0  0  0  0  0  0  0  0  0
   19.3233  -15.8547  -15.1805 N   0  0  0  0  0  0  0  0  0  0  0  0
   20.9002  -22.1826  -13.9049 C   0  0  0  0  0  0  0  0  0  0  0  0
   20.3711  -22.8863  -14.8009 O   0  0  0  0  0  0  0  0  0  0  0  0
   17.6037  -24.4082   -7.9754 N   0  0  0  0  0  0  0  0  0  0  0  0
   18.5645  -24.8263   -8.9594 C   0  0  0  0  0  0  0  0  0  0  0  0
   19.5173  -25.5192   -8.5786 O   0  0  0  0  0  0  0  0  0  0  0  0
   18.3108  -24.3788  -10.3377 C   0  0  0  0  0  0  0  0  0  0  0  0
   19.4402  -23.6004  -10.9023 C   0  0  0  0  0  0  0  0  0  0  0  0
   19.2819  -23.1201  -12.3032 C   0  0  2  0  0  0  0  0  0  0  0  0
   20.3761  -22.2222  -12.6052 N   0  0  0  0  0  0  0  0  0  0  0  0
   17.9648  -22.4723  -12.5483 C   0  0  0  0  0  0  0  0  0  0  0  0
   17.9420  -21.2156  -12.5822 O   0  0  0  0  0  0  0  0  0  0  0  0
   16.8004  -23.1616  -12.7348 O   0  0  0  0  0  0  0  0  0  0  0  0
  1  2  1  0
  3  4  1  0
  3  2  1  0
  4  5  1  0
  5  6  1  1
  7  8  2  0
  7  5  1  0
  9  7  1  0
 10  9  1  0
 10 11  1  6
 11 12  1  0
 12 13  1  0
 13 14  1  0
 14 15  1  0
 16 10  1  0
 17 16  2  0
 19 18  1  0
 19 21  1  0
 20 19  2  0
 23 22  1  1
 22 21  1  0
 23 24  1  0
 24 16  1  0
 25 23  1  0
 26 25  2  0
 27 25  1  0
M  END
$$$$
