MKQ.pdb
     RDKit          3D

 27 26  0  0  1  0  0  0  0  0999 V2000
   17.9625  -31.1282  -11.6888 C   0  0  0  0  0  0  0  0  0  0  0  0
   18.2107  -32.1277  -13.1854 S   0  0  0  0  0  0  0  0  0  0  0  0
   20.0003  -32.3110  -13.4288 C   0  0  0  0  0  0  0  0  0  0  0  0
   20.6357  -33.1229  -12.3468 C   0  0  0  0  0  0  0  0  0  0  0  0
   22.1261  -33.1561  -12.5657 C   0  0  2  0  0  0  0  0  0  0  0  0
   22.4781  -33.9586  -13.7167 N   0  0  0  0  0  0  0  0  0  0  0  0
   22.8641  -33.6619  -11.3936 C   0  0  0  0  0  0  0  0  0  0  0  0
   22.8410  -34.8883  -11.1465 O   0  0  0  0  0  0  0  0  0  0  0  0
   23.5763  -32.7796  -10.5749 N   0  0  0  0  0  0  0  0  0  0  0  0
   24.3052  -33.2194   -9.3752 C   0  0  1  0  0  0  0  0  0  0  0  0
   25.6244  -32.4782   -9.4320 C   0  0  0  0  0  0  0  0  0  0  0  0
   26.5532  -32.8094   -8.3205 C   0  0  0  0  0  0  0  0  0  0  0  0
   26.9680  -34.2515   -8.4117 C   0  0  0  0  0  0  0  0  0  0  0  0
   27.8415  -34.6685   -7.2743 C   0  0  0  0  0  0  0  0  0  0  0  0
   28.0755  -36.0967   -7.3791 N   0  0  0  0  0  0  0  0  0  0  0  0
   23.4763  -32.8837   -8.2120 C   0  0  0  0  0  0  0  0  0  0  0  0
   23.0950  -31.6969   -8.0564 O   0  0  0  0  0  0  0  0  0  0  0  0
   18.5657  -33.9273   -6.6394 N   0  0  0  0  0  0  0  0  0  0  0  0
   18.8492  -33.8568   -5.2320 C   0  0  0  0  0  0  0  0  0  0  0  0
   17.9117  -33.5972   -4.4660 O   0  0  0  0  0  0  0  0  0  0  0  0
   20.2465  -34.1039   -4.8436 C   0  0  0  0  0  0  0  0  0  0  0  0
   21.1333  -34.3248   -6.0119 C   0  0  0  0  0  0  0  0  0  0  0  0
   22.3404  -33.4571   -6.1039 C   0  0  2  0  0  0  0  0  0  0  0  0
   23.0998  -33.8522   -7.2709 N   0  0  0  0  0  0  0  0  0  0  0  0
   23.1766  -33.4955   -4.8736 C   0  0  0  0  0  0  0  0  0  0  0  0
   24.3053  -34.0421   -4.9650 O   0  0  0  0  0  0  0  0  0  0  0  0
   22.7870  -32.9763   -3.6717 O   0  0  0  0  0  0  0  0  0  0  0  0
  1  2  1  0
  3  4  1  0
  3  2  1  0
  4  5  1  0
  5  6  1  6
  7  8  2  0
  7  5  1  0
  9  7  1  0
 10  9  1  0
 10 11  1  1
 11 12  1  0
 12 13  1  0
 13 14  1  0
 14 15  1  0
 16 10  1  0
 17 16  2  0
 19 18  1  0
 19 21  1  0
 20 19  2  0
 23 22  1  1
 22 21  1  0
 23 24  1  0
 24 16  1  0
 25 23  1  0
 26 25  2  0
 27 25  1  0
M  END
$$$$
