CQV.pdb
     RDKit          3D

 23 22  0  0  1  0  0  0  0  0999 V2000
    8.0112  -15.6588   18.7668 N   0  0  0  0  0  0  0  0  0  0  0  0
    8.4012  -14.7862   19.8571 C   0  0  1  0  0  0  0  0  0  0  0  0
    7.8228  -13.4256   19.5662 C   0  0  0  0  0  0  0  0  0  0  0  0
    8.2825  -12.1778   20.7651 S   0  0  0  0  0  0  0  0  0  0  0  0
    7.9559  -15.3362   21.1473 C   0  0  0  0  0  0  0  0  0  0  0  0
    6.7709  -15.6967   21.3757 O   0  0  0  0  0  0  0  0  0  0  0  0
    8.8010  -20.4205   21.9307 N   0  0  0  0  0  0  0  0  0  0  0  0
    9.5905  -19.3631   22.4185 C   0  0  0  0  0  0  0  0  0  0  0  0
   10.6882  -19.6574   22.9986 O   0  0  0  0  0  0  0  0  0  0  0  0
    9.1861  -17.9481   22.2775 C   0  0  0  0  0  0  0  0  0  0  0  0
    8.9490  -17.3685   23.6295 C   0  0  0  0  0  0  0  0  0  0  0  0
    8.5828  -15.8875   23.5278 C   0  0  2  0  0  0  0  0  0  0  0  0
    8.8892  -15.4742   22.1932 N   0  0  0  0  0  0  0  0  0  0  0  0
    9.3153  -15.1892   24.5792 C   0  0  0  0  0  0  0  0  0  0  0  0
   10.5479  -14.9608   24.5463 O   0  0  0  0  0  0  0  0  0  0  0  0
    6.8302  -13.6137   27.4800 C   0  0  0  0  0  0  0  0  0  0  0  0
    8.1393  -12.9462   27.2125 C   0  0  2  0  0  0  0  0  0  0  0  0
    7.9712  -12.0032   26.0213 C   0  0  0  0  0  0  0  0  0  0  0  0
    9.1855  -13.9820   26.7851 C   0  0  2  0  0  0  0  0  0  0  0  0
    8.5875  -14.7386   25.7132 N   0  0  0  0  0  0  0  0  0  0  0  0
    9.4341  -14.8385   27.9497 C   0  0  0  0  0  0  0  0  0  0  0  0
    8.9821  -16.0001   28.0852 O   0  0  0  0  0  0  0  0  0  0  0  0
   10.2200  -14.3488   28.9822 O   0  0  0  0  0  0  0  0  0  0  0  0
  2  1  1  6
  2  3  1  0
  3  4  1  0
  5 13  1  0
  5  2  1  0
  6  5  2  0
  8  7  1  0
  9  8  2  0
 10  8  1  0
 11 10  1  0
 12 11  1  6
 12 14  1  0
 12 13  1  0
 14 15  2  0
 17 16  1  6
 17 19  1  0
 17 18  1  0
 20 14  1  0
 19 20  1  6
 21 19  1  0
 21 23  1  0
 22 21  2  0
M  END
$$$$
