CQV.pdb
     RDKit          3D

 23 22  0  0  1  0  0  0  0  0999 V2000
    6.7993  -16.4228   18.9355 N   0  0  0  0  0  0  0  0  0  0  0  0
    7.7535  -15.6403   19.6967 C   0  0  1  0  0  0  0  0  0  0  0  0
    7.6735  -14.2242   19.1881 C   0  0  0  0  0  0  0  0  0  0  0  0
    8.7363  -13.0832   20.0680 S   0  0  0  0  0  0  0  0  0  0  0  0
    7.4816  -15.7493   21.1388 C   0  0  0  0  0  0  0  0  0  0  0  0
    6.3519  -15.5296   21.6503 O   0  0  0  0  0  0  0  0  0  0  0  0
   11.0410  -19.3521   24.7121 N   0  0  0  0  0  0  0  0  0  0  0  0
   10.1761  -18.7641   25.6533 C   0  0  0  0  0  0  0  0  0  0  0  0
   10.2465  -19.1686   26.8614 O   0  0  0  0  0  0  0  0  0  0  0  0
    9.2078  -17.7103   25.2826 C   0  0  0  0  0  0  0  0  0  0  0  0
    9.3627  -17.3883   23.8361 C   0  0  0  0  0  0  0  0  0  0  0  0
    8.4126  -16.2626   23.4265 C   0  0  2  0  0  0  0  0  0  0  0  0
    8.5270  -16.1174   22.0082 N   0  0  0  0  0  0  0  0  0  0  0  0
    8.7802  -15.0840   24.2045 C   0  0  0  0  0  0  0  0  0  0  0  0
    9.8603  -14.4610   24.0713 O   0  0  0  0  0  0  0  0  0  0  0  0
    5.9127  -12.5055   25.2026 C   0  0  0  0  0  0  0  0  0  0  0  0
    6.7009  -12.9289   26.3986 C   0  0  2  0  0  0  0  0  0  0  0  0
    6.9510  -11.7029   27.2766 C   0  0  0  0  0  0  0  0  0  0  0  0
    8.0851  -13.4304   25.9716 C   0  0  2  0  0  0  0  0  0  0  0  0
    7.8570  -14.6105   25.1752 N   0  0  0  0  0  0  0  0  0  0  0  0
    8.8120  -13.7658   27.2008 C   0  0  0  0  0  0  0  0  0  0  0  0
    9.3538  -12.9245   27.9563 O   0  0  0  0  0  0  0  0  0  0  0  0
    8.9185  -15.0983   27.5701 O   0  0  0  0  0  0  0  0  0  0  0  0
  2  1  1  6
  2  3  1  0
  3  4  1  0
  5 13  1  0
  5  2  1  0
  6  5  2  0
  8  7  1  0
  9  8  2  0
 10  8  1  0
 11 10  1  0
 12 11  1  1
 12 14  1  0
 12 13  1  0
 14 15  2  0
 17 16  1  6
 17 19  1  0
 17 18  1  0
 20 14  1  0
 19 20  1  6
 21 19  1  0
 21 23  1  0
 22 21  2  0
M  END
$$$$
