CQV.pdb
     RDKit          3D

 23 22  0  0  1  0  0  0  0  0999 V2000
    7.1973  -15.8642   18.9267 N   0  0  0  0  0  0  0  0  0  0  0  0
    7.8119  -15.0093   19.9236 C   0  0  1  0  0  0  0  0  0  0  0  0
    7.6802  -13.5902   19.4342 C   0  0  0  0  0  0  0  0  0  0  0  0
    9.0147  -13.0744   18.3577 S   0  0  0  0  0  0  0  0  0  0  0  0
    7.1945  -15.2221   21.2423 C   0  0  0  0  0  0  0  0  0  0  0  0
    5.9536  -15.1535   21.4464 O   0  0  0  0  0  0  0  0  0  0  0  0
    8.1130  -19.7569   24.8224 N   0  0  0  0  0  0  0  0  0  0  0  0
    7.4826  -18.8810   25.7252 C   0  0  0  0  0  0  0  0  0  0  0  0
    7.0597  -19.3646   26.8276 O   0  0  0  0  0  0  0  0  0  0  0  0
    7.3026  -17.4431   25.4322 C   0  0  0  0  0  0  0  0  0  0  0  0
    7.7817  -17.1604   24.0499 C   0  0  0  0  0  0  0  0  0  0  0  0
    7.5690  -15.6890   23.6929 C   0  0  2  0  0  0  0  0  0  0  0  0
    8.0182  -15.5189   22.3457 N   0  0  0  0  0  0  0  0  0  0  0  0
    8.2799  -14.8962   24.6908 C   0  0  0  0  0  0  0  0  0  0  0  0
    9.5253  -14.9006   24.8369 O   0  0  0  0  0  0  0  0  0  0  0  0
    5.7885  -13.0393   27.4725 C   0  0  0  0  0  0  0  0  0  0  0  0
    7.0009  -12.2814   27.0403 C   0  0  2  0  0  0  0  0  0  0  0  0
    6.6422  -11.4489   25.8096 C   0  0  0  0  0  0  0  0  0  0  0  0
    8.0991  -13.2504   26.5877 C   0  0  2  0  0  0  0  0  0  0  0  0
    7.5141  -14.0660   25.5527 N   0  0  0  0  0  0  0  0  0  0  0  0
    8.4517  -14.0661   27.7548 C   0  0  0  0  0  0  0  0  0  0  0  0
    8.0682  -15.2458   27.9375 O   0  0  0  0  0  0  0  0  0  0  0  0
    9.2633  -13.5135   28.7342 O   0  0  0  0  0  0  0  0  0  0  0  0
  2  1  1  6
  2  3  1  0
  3  4  1  0
  5 13  1  0
  5  2  1  0
  6  5  2  0
  8  7  1  0
  9  8  2  0
 10  8  1  0
 11 10  1  0
 12 11  1  1
 12 14  1  0
 12 13  1  0
 14 15  2  0
 17 16  1  6
 17 19  1  0
 17 18  1  0
 20 14  1  0
 19 20  1  6
 21 19  1  0
 21 23  1  0
 22 21  2  0
M  END
$$$$
