CQV.pdb
     RDKit          3D

 23 22  0  0  1  0  0  0  0  0999 V2000
    6.1353  -17.1577   19.5057 N   0  0  0  0  0  0  0  0  0  0  0  0
    7.0796  -16.3320   20.2328 C   0  0  1  0  0  0  0  0  0  0  0  0
    7.1636  -15.0119   19.5111 C   0  0  0  0  0  0  0  0  0  0  0  0
    8.2731  -13.8390   20.2849 S   0  0  0  0  0  0  0  0  0  0  0  0
    6.6721  -16.1929   21.6399 C   0  0  0  0  0  0  0  0  0  0  0  0
    5.5215  -15.8245   21.9956 O   0  0  0  0  0  0  0  0  0  0  0  0
    8.1409  -20.1225   25.9037 N   0  0  0  0  0  0  0  0  0  0  0  0
    7.5841  -19.0903   26.6808 C   0  0  0  0  0  0  0  0  0  0  0  0
    7.3567  -19.3288   27.9135 O   0  0  0  0  0  0  0  0  0  0  0  0
    7.2628  -17.7631   26.1141 C   0  0  0  0  0  0  0  0  0  0  0  0
    7.6480  -17.7379   24.6749 C   0  0  0  0  0  0  0  0  0  0  0  0
    7.3601  -16.3678   24.0606 C   0  0  2  0  0  0  0  0  0  0  0  0
    7.6038  -16.4823   22.6559 N   0  0  0  0  0  0  0  0  0  0  0  0
    8.1960  -15.3975   24.7603 C   0  0  0  0  0  0  0  0  0  0  0  0
    9.4475  -15.3655   24.6894 O   0  0  0  0  0  0  0  0  0  0  0  0
    6.0321  -12.9243   27.2938 C   0  0  0  0  0  0  0  0  0  0  0  0
    7.2686  -12.3441   26.6893 C   0  0  2  0  0  0  0  0  0  0  0  0
    6.9022  -11.7022   25.3513 C   0  0  0  0  0  0  0  0  0  0  0  0
    8.2716  -13.4563   26.3620 C   0  0  2  0  0  0  0  0  0  0  0  0
    7.5529  -14.4265   25.5740 N   0  0  0  0  0  0  0  0  0  0  0  0
    8.6936  -14.0362   27.6417 C   0  0  0  0  0  0  0  0  0  0  0  0
    8.3299  -15.1586   28.0660 O   0  0  0  0  0  0  0  0  0  0  0  0
    9.5531  -13.3096   28.4521 O   0  0  0  0  0  0  0  0  0  0  0  0
  2  1  1  6
  2  3  1  0
  3  4  1  0
  5 13  1  0
  5  2  1  0
  6  5  2  0
  8  7  1  0
  9  8  2  0
 10  8  1  0
 11 10  1  0
 12 11  1  1
 12 14  1  0
 12 13  1  0
 14 15  2  0
 17 16  1  6
 17 19  1  0
 17 18  1  0
 20 14  1  0
 19 20  1  6
 21 19  1  0
 21 23  1  0
 22 21  2  0
M  END
$$$$
