CQV.pdb
     RDKit          3D

 23 22  0  0  1  0  0  0  0  0999 V2000
    7.0201  -16.1316   18.6431 N   0  0  0  0  0  0  0  0  0  0  0  0
    7.8916  -15.3466   19.4954 C   0  0  1  0  0  0  0  0  0  0  0  0
    7.7695  -13.9110   19.0541 C   0  0  0  0  0  0  0  0  0  0  0  0
    8.7062  -12.7666   20.0633 S   0  0  0  0  0  0  0  0  0  0  0  0
    7.5475  -15.5435   20.9125 C   0  0  0  0  0  0  0  0  0  0  0  0
    6.3792  -15.4192   21.3663 O   0  0  0  0  0  0  0  0  0  0  0  0
   10.6842  -19.5271   24.3429 N   0  0  0  0  0  0  0  0  0  0  0  0
    9.8700  -18.9125   25.3118 C   0  0  0  0  0  0  0  0  0  0  0  0
    9.8544  -19.4167   26.4839 O   0  0  0  0  0  0  0  0  0  0  0  0
    9.0491  -17.7206   25.0098 C   0  0  0  0  0  0  0  0  0  0  0  0
    9.2349  -17.3465   23.5795 C   0  0  0  0  0  0  0  0  0  0  0  0
    8.3771  -16.1328   23.2208 C   0  0  2  0  0  0  0  0  0  0  0  0
    8.5642  -15.8895   21.8238 N   0  0  0  0  0  0  0  0  0  0  0  0
    8.7827  -15.0427   24.1022 C   0  0  0  0  0  0  0  0  0  0  0  0
    9.9030  -14.4813   24.0581 O   0  0  0  0  0  0  0  0  0  0  0  0
    6.1968  -12.2555   25.2074 C   0  0  0  0  0  0  0  0  0  0  0  0
    6.8069  -12.9123   26.4021 C   0  0  2  0  0  0  0  0  0  0  0  0
    7.1272  -11.8364   27.4395 C   0  0  0  0  0  0  0  0  0  0  0  0
    8.1498  -13.5504   26.0290 C   0  0  2  0  0  0  0  0  0  0  0  0
    7.8504  -14.5871   25.0727 N   0  0  0  0  0  0  0  0  0  0  0  0
    8.7031  -14.1239   27.2605 C   0  0  0  0  0  0  0  0  0  0  0  0
    8.5832  -15.3250   27.5999 O   0  0  0  0  0  0  0  0  0  0  0  0
    9.4102  -13.2982   28.1218 O   0  0  0  0  0  0  0  0  0  0  0  0
  2  1  1  6
  2  3  1  0
  3  4  1  0
  5 13  1  0
  5  2  1  0
  6  5  2  0
  8  7  1  0
  9  8  2  0
 10  8  1  0
 11 10  1  0
 12 11  1  1
 12 14  1  0
 12 13  1  0
 14 15  2  0
 17 16  1  6
 17 19  1  0
 17 18  1  0
 20 14  1  0
 19 20  1  6
 21 19  1  0
 21 23  1  0
 22 21  2  0
M  END
$$$$
