CQV.pdb
     RDKit          3D

 23 22  0  0  1  0  0  0  0  0999 V2000
    7.6296  -16.3947   18.3312 N   0  0  0  0  0  0  0  0  0  0  0  0
    8.1997  -15.4788   19.2999 C   0  0  1  0  0  0  0  0  0  0  0  0
    8.1692  -14.1042   18.6833 C   0  0  0  0  0  0  0  0  0  0  0  0
    8.8222  -12.8232   19.7502 S   0  0  0  0  0  0  0  0  0  0  0  0
    7.4709  -15.5526   20.5761 C   0  0  0  0  0  0  0  0  0  0  0  0
    6.2233  -15.4094   20.6717 O   0  0  0  0  0  0  0  0  0  0  0  0
    6.9594  -19.3427   26.6050 N   0  0  0  0  0  0  0  0  0  0  0  0
    7.4234  -18.8745   25.3621 C   0  0  0  0  0  0  0  0  0  0  0  0
    8.0804  -19.6851   24.6275 O   0  0  0  0  0  0  0  0  0  0  0  0
    7.1728  -17.4937   24.8969 C   0  0  0  0  0  0  0  0  0  0  0  0
    7.8031  -17.3043   23.5602 C   0  0  0  0  0  0  0  0  0  0  0  0
    7.6224  -15.8658   23.0747 C   0  0  2  0  0  0  0  0  0  0  0  0
    8.1891  -15.7953   21.7633 N   0  0  0  0  0  0  0  0  0  0  0  0
    8.2419  -14.9946   24.0680 C   0  0  0  0  0  0  0  0  0  0  0  0
    9.4793  -14.8989   24.2469 O   0  0  0  0  0  0  0  0  0  0  0  0
    7.1487  -11.2180   27.0752 C   0  0  0  0  0  0  0  0  0  0  0  0
    6.7117  -12.3051   26.1489 C   0  0  2  0  0  0  0  0  0  0  0  0
    5.6635  -13.1602   26.8609 C   0  0  0  0  0  0  0  0  0  0  0  0
    7.8837  -13.2444   25.8425 C   0  0  2  0  0  0  0  0  0  0  0  0
    7.3906  -14.2036   24.8856 N   0  0  0  0  0  0  0  0  0  0  0  0
    8.2387  -13.9042   27.1036 C   0  0  0  0  0  0  0  0  0  0  0  0
    7.8264  -15.0358   27.4526 O   0  0  0  0  0  0  0  0  0  0  0  0
    9.0868  -13.2488   27.9837 O   0  0  0  0  0  0  0  0  0  0  0  0
  2  1  1  6
  2  3  1  0
  3  4  1  0
  5 13  1  0
  5  2  1  0
  6  5  2  0
  8  7  1  0
  9  8  2  0
 10  8  1  0
 11 10  1  0
 12 11  1  1
 12 14  1  0
 12 13  1  0
 14 15  2  0
 17 16  1  1
 17 19  1  0
 17 18  1  0
 20 14  1  0
 19 20  1  6
 21 19  1  0
 21 23  1  0
 22 21  2  0
M  END
$$$$
