CQV.pdb
     RDKit          3D

 23 22  0  0  1  0  0  0  0  0999 V2000
    6.4934  -16.9467   19.2208 N   0  0  0  0  0  0  0  0  0  0  0  0
    7.3442  -16.0992   20.0333 C   0  0  1  0  0  0  0  0  0  0  0  0
    7.3967  -14.7500   19.3643 C   0  0  0  0  0  0  0  0  0  0  0  0
    8.3178  -13.5245   20.2891 S   0  0  0  0  0  0  0  0  0  0  0  0
    6.8457  -16.0360   21.4163 C   0  0  0  0  0  0  0  0  0  0  0  0
    5.6464  -15.7885   21.7107 O   0  0  0  0  0  0  0  0  0  0  0  0
    8.0635  -19.9632   25.7046 N   0  0  0  0  0  0  0  0  0  0  0  0
    7.2995  -19.0007   26.3895 C   0  0  0  0  0  0  0  0  0  0  0  0
    6.8047  -19.3266   27.5196 O   0  0  0  0  0  0  0  0  0  0  0  0
    7.0615  -17.6483   25.8416 C   0  0  0  0  0  0  0  0  0  0  0  0
    7.5974  -17.5803   24.4530 C   0  0  0  0  0  0  0  0  0  0  0  0
    7.4152  -16.1788   23.8697 C   0  0  2  0  0  0  0  0  0  0  0  0
    7.7417  -16.2612   22.4796 N   0  0  0  0  0  0  0  0  0  0  0  0
    8.2507  -15.2741   24.6527 C   0  0  0  0  0  0  0  0  0  0  0  0
    9.5009  -15.3481   24.7165 O   0  0  0  0  0  0  0  0  0  0  0  0
    6.0784  -12.8965   27.2235 C   0  0  0  0  0  0  0  0  0  0  0  0
    7.3034  -12.2542   26.6598 C   0  0  2  0  0  0  0  0  0  0  0  0
    6.9207  -11.5169   25.3767 C   0  0  0  0  0  0  0  0  0  0  0  0
    8.3197  -13.3237   26.2436 C   0  0  2  0  0  0  0  0  0  0  0  0
    7.6090  -14.2432   25.3903 N   0  0  0  0  0  0  0  0  0  0  0  0
    8.7601  -13.9909   27.4735 C   0  0  0  0  0  0  0  0  0  0  0  0
    8.3852  -15.1315   27.8349 O   0  0  0  0  0  0  0  0  0  0  0  0
    9.6518  -13.3324   28.3070 O   0  0  0  0  0  0  0  0  0  0  0  0
  2  1  1  6
  2  3  1  0
  3  4  1  0
  5 13  1  0
  5  2  1  0
  6  5  2  0
  8  7  1  0
  9  8  2  0
 10  8  1  0
 11 10  1  0
 12 11  1  1
 12 14  1  0
 12 13  1  0
 14 15  2  0
 17 16  1  6
 17 19  1  0
 17 18  1  0
 20 14  1  0
 19 20  1  6
 21 19  1  0
 21 23  1  0
 22 21  2  0
M  END
$$$$
