CQV.pdb
     RDKit          3D

 23 22  0  0  1  0  0  0  0  0999 V2000
    7.0286  -17.1561   18.9720 N   0  0  0  0  0  0  0  0  0  0  0  0
    7.6723  -16.1712   19.8192 C   0  0  1  0  0  0  0  0  0  0  0  0
    7.5936  -14.8484   19.1020 C   0  0  0  0  0  0  0  0  0  0  0  0
    8.2600  -13.4793   20.0438 S   0  0  0  0  0  0  0  0  0  0  0  0
    7.0453  -16.1417   21.1502 C   0  0  0  0  0  0  0  0  0  0  0  0
    5.8095  -15.9798   21.3313 O   0  0  0  0  0  0  0  0  0  0  0  0
    8.1525  -20.0140   25.4892 N   0  0  0  0  0  0  0  0  0  0  0  0
    7.4184  -19.0483   26.2019 C   0  0  0  0  0  0  0  0  0  0  0  0
    7.0057  -19.3557   27.3695 O   0  0  0  0  0  0  0  0  0  0  0  0
    7.1201  -17.7134   25.6410 C   0  0  0  0  0  0  0  0  0  0  0  0
    7.6080  -17.6521   24.2344 C   0  0  0  0  0  0  0  0  0  0  0  0
    7.3921  -16.2574   23.6462 C   0  0  2  0  0  0  0  0  0  0  0  0
    7.8532  -16.3010   22.2929 N   0  0  0  0  0  0  0  0  0  0  0  0
    8.0902  -15.3120   24.5114 C   0  0  0  0  0  0  0  0  0  0  0  0
    9.3376  -15.1961   24.5661 O   0  0  0  0  0  0  0  0  0  0  0  0
    5.9648  -12.0094   25.8789 C   0  0  0  0  0  0  0  0  0  0  0  0
    6.7036  -12.7879   26.9177 C   0  0  2  0  0  0  0  0  0  0  0  0
    7.3171  -11.8075   27.9171 C   0  0  0  0  0  0  0  0  0  0  0  0
    7.8822  -13.5348   26.2829 C   0  0  2  0  0  0  0  0  0  0  0  0
    7.3086  -14.4683   25.3457 N   0  0  0  0  0  0  0  0  0  0  0  0
    8.5685  -14.2438   27.3683 C   0  0  0  0  0  0  0  0  0  0  0  0
    8.2802  -15.4020   27.7525 O   0  0  0  0  0  0  0  0  0  0  0  0
    9.6097  -13.6073   28.0271 O   0  0  0  0  0  0  0  0  0  0  0  0
  2  1  1  6
  2  3  1  0
  3  4  1  0
  5 13  1  0
  5  2  1  0
  6  5  2  0
  8  7  1  0
  9  8  2  0
 10  8  1  0
 11 10  1  0
 12 11  1  1
 12 14  1  0
 12 13  1  0
 14 15  2  0
 17 16  1  6
 17 19  1  0
 17 18  1  0
 20 14  1  0
 19 20  1  6
 21 19  1  0
 21 23  1  0
 22 21  2  0
M  END
$$$$
