CQV.pdb
     RDKit          3D

 23 22  0  0  1  0  0  0  0  0999 V2000
    5.8692  -18.5152   20.1413 N   0  0  0  0  0  0  0  0  0  0  0  0
    6.9191  -17.7303   20.7610 C   0  0  1  0  0  0  0  0  0  0  0  0
    7.1796  -16.5487   19.8630 C   0  0  0  0  0  0  0  0  0  0  0  0
    8.3354  -15.3657   20.5488 S   0  0  0  0  0  0  0  0  0  0  0  0
    6.5384  -17.3406   22.1279 C   0  0  0  0  0  0  0  0  0  0  0  0
    5.4357  -16.8036   22.4144 O   0  0  0  0  0  0  0  0  0  0  0  0
    6.8968  -21.0118   27.0747 N   0  0  0  0  0  0  0  0  0  0  0  0
    7.3280  -19.6934   27.3096 C   0  0  0  0  0  0  0  0  0  0  0  0
    8.1793  -19.5019   28.2407 O   0  0  0  0  0  0  0  0  0  0  0  0
    6.8280  -18.5484   26.5193 C   0  0  0  0  0  0  0  0  0  0  0  0
    7.8048  -18.2342   25.4389 C   0  0  0  0  0  0  0  0  0  0  0  0
    7.2717  -17.1248   24.5320 C   0  0  2  0  0  0  0  0  0  0  0  0
    7.4411  -17.5721   23.1840 N   0  0  0  0  0  0  0  0  0  0  0  0
    7.9910  -15.9028   24.8773 C   0  0  0  0  0  0  0  0  0  0  0  0
    9.1702  -15.6575   24.5286 O   0  0  0  0  0  0  0  0  0  0  0  0
    5.6937  -12.5907   25.8274 C   0  0  0  0  0  0  0  0  0  0  0  0
    6.8152  -12.8839   26.7692 C   0  0  2  0  0  0  0  0  0  0  0  0
    7.4580  -11.5619   27.1884 C   0  0  0  0  0  0  0  0  0  0  0  0
    7.9143  -13.6784   26.0546 C   0  0  2  0  0  0  0  0  0  0  0  0
    7.3139  -14.9279   25.6581 N   0  0  0  0  0  0  0  0  0  0  0  0
    8.9810  -13.9031   27.0362 C   0  0  0  0  0  0  0  0  0  0  0  0
    9.0226  -14.8738   27.8288 O   0  0  0  0  0  0  0  0  0  0  0  0
   10.0236  -12.9914   27.1086 O   0  0  0  0  0  0  0  0  0  0  0  0
  2  1  1  6
  2  3  1  0
  3  4  1  0
  5 13  1  0
  5  2  1  0
  6  5  2  0
  8  7  1  0
  9  8  2  0
 10  8  1  0
 11 10  1  0
 12 11  1  1
 12 14  1  0
 12 13  1  0
 14 15  2  0
 17 16  1  6
 17 19  1  0
 17 18  1  0
 20 14  1  0
 19 20  1  1
 21 19  1  0
 21 23  1  0
 22 21  2  0
M  END
$$$$
