CQV.pdb
     RDKit          3D

 23 22  0  0  1  0  0  0  0  0999 V2000
    7.5376  -15.7272   18.3242 N   0  0  0  0  0  0  0  0  0  0  0  0
    8.1629  -14.8819   19.3226 C   0  0  1  0  0  0  0  0  0  0  0  0
    7.6835  -13.4746   19.0767 C   0  0  0  0  0  0  0  0  0  0  0  0
    8.4001  -12.2669   20.1874 S   0  0  0  0  0  0  0  0  0  0  0  0
    7.8560  -15.3650   20.6783 C   0  0  0  0  0  0  0  0  0  0  0  0
    6.6894  -15.6280   21.0734 O   0  0  0  0  0  0  0  0  0  0  0  0
   11.5986  -18.9743   23.8665 N   0  0  0  0  0  0  0  0  0  0  0  0
   10.6094  -18.6662   24.8183 C   0  0  0  0  0  0  0  0  0  0  0  0
   10.5805  -19.3551   25.8920 O   0  0  0  0  0  0  0  0  0  0  0  0
    9.6231  -17.5852   24.6077 C   0  0  0  0  0  0  0  0  0  0  0  0
    9.7877  -17.0315   23.2342 C   0  0  0  0  0  0  0  0  0  0  0  0
    8.7568  -15.9352   22.9646 C   0  0  2  0  0  0  0  0  0  0  0  0
    8.9087  -15.5490   21.5958 N   0  0  0  0  0  0  0  0  0  0  0  0
    8.9900  -14.8750   23.9399 C   0  0  0  0  0  0  0  0  0  0  0  0
   10.0036  -14.1366   23.9486 O   0  0  0  0  0  0  0  0  0  0  0  0
    6.3660  -12.3017   24.8070 C   0  0  0  0  0  0  0  0  0  0  0  0
    6.7249  -13.0084   26.0730 C   0  0  2  0  0  0  0  0  0  0  0  0
    6.8277  -11.9758   27.1953 C   0  0  0  0  0  0  0  0  0  0  0  0
    8.1168  -13.6392   25.9524 C   0  0  2  0  0  0  0  0  0  0  0  0
    8.0076  -14.6643   24.9444 N   0  0  0  0  0  0  0  0  0  0  0  0
    8.4301  -14.2270   27.2593 C   0  0  0  0  0  0  0  0  0  0  0  0
    8.7217  -13.5649   28.2833 O   0  0  0  0  0  0  0  0  0  0  0  0
    8.4078  -15.6073   27.3924 O   0  0  0  0  0  0  0  0  0  0  0  0
  2  1  1  6
  2  3  1  0
  3  4  1  0
  5 13  1  0
  5  2  1  0
  6  5  2  0
  8  7  1  0
  9  8  2  0
 10  8  1  0
 11 10  1  0
 12 11  1  1
 12 14  1  0
 12 13  1  0
 14 15  2  0
 17 16  1  6
 17 19  1  0
 17 18  1  0
 20 14  1  0
 19 20  1  6
 21 19  1  0
 21 23  1  0
 22 21  2  0
M  END
$$$$
