CQV.pdb
     RDKit          3D

 23 22  0  0  1  0  0  0  0  0999 V2000
    6.8423  -16.8531   18.8793 N   0  0  0  0  0  0  0  0  0  0  0  0
    7.5790  -15.9654   19.7577 C   0  0  1  0  0  0  0  0  0  0  0  0
    7.5694  -14.6002   19.1198 C   0  0  0  0  0  0  0  0  0  0  0  0
    8.3831  -13.3427   20.1007 S   0  0  0  0  0  0  0  0  0  0  0  0
    6.9979  -15.9722   21.1096 C   0  0  0  0  0  0  0  0  0  0  0  0
    5.7999  -15.6677   21.3511 O   0  0  0  0  0  0  0  0  0  0  0  0
    8.0178  -20.1683   25.2704 N   0  0  0  0  0  0  0  0  0  0  0  0
    7.3171  -19.2010   26.0139 C   0  0  0  0  0  0  0  0  0  0  0  0
    6.8243  -19.5542   27.1366 O   0  0  0  0  0  0  0  0  0  0  0  0
    7.1422  -17.8134   25.5345 C   0  0  0  0  0  0  0  0  0  0  0  0
    7.6496  -17.7094   24.1374 C   0  0  0  0  0  0  0  0  0  0  0  0
    7.4081  -16.3080   23.5759 C   0  0  2  0  0  0  0  0  0  0  0  0
    7.8082  -16.3355   22.2029 N   0  0  0  0  0  0  0  0  0  0  0  0
    8.1443  -15.3727   24.4201 C   0  0  0  0  0  0  0  0  0  0  0  0
    9.3909  -15.3781   24.5562 O   0  0  0  0  0  0  0  0  0  0  0  0
    6.3699  -11.7984   25.2350 C   0  0  0  0  0  0  0  0  0  0  0  0
    6.9071  -12.4758   26.4530 C   0  0  2  0  0  0  0  0  0  0  0  0
    7.5833  -11.4270   27.3358 C   0  0  0  0  0  0  0  0  0  0  0  0
    8.0062  -13.4716   26.0653 C   0  0  2  0  0  0  0  0  0  0  0  0
    7.4036  -14.3928   25.1341 N   0  0  0  0  0  0  0  0  0  0  0  0
    8.4045  -14.1633   27.2960 C   0  0  0  0  0  0  0  0  0  0  0  0
    7.8593  -15.2045   27.7326 O   0  0  0  0  0  0  0  0  0  0  0  0
    9.4533  -13.6465   28.0420 O   0  0  0  0  0  0  0  0  0  0  0  0
  2  1  1  6
  2  3  1  0
  3  4  1  0
  5 13  1  0
  5  2  1  0
  6  5  2  0
  8  7  1  0
  9  8  2  0
 10  8  1  0
 11 10  1  0
 12 11  1  1
 12 14  1  0
 12 13  1  0
 14 15  2  0
 17 16  1  6
 17 19  1  0
 17 18  1  0
 20 14  1  0
 19 20  1  6
 21 19  1  0
 21 23  1  0
 22 21  2  0
M  END
$$$$
