CQV.pdb
     RDKit          3D

 23 22  0  0  1  0  0  0  0  0999 V2000
    8.7614  -15.3810   19.2374 N   0  0  0  0  0  0  0  0  0  0  0  0
    8.4938  -14.0802   19.8192 C   0  0  1  0  0  0  0  0  0  0  0  0
    7.5092  -13.3834   18.9161 C   0  0  0  0  0  0  0  0  0  0  0  0
    7.6854  -13.8191   17.1885 S   0  0  0  0  0  0  0  0  0  0  0  0
    8.0076  -14.2193   21.2011 C   0  0  0  0  0  0  0  0  0  0  0  0
    7.6135  -13.2476   21.8989 O   0  0  0  0  0  0  0  0  0  0  0  0
    7.7309  -19.9934   23.7432 N   0  0  0  0  0  0  0  0  0  0  0  0
    7.1241  -19.1932   24.7286 C   0  0  0  0  0  0  0  0  0  0  0  0
    6.6493  -19.7756   25.7599 O   0  0  0  0  0  0  0  0  0  0  0  0
    7.0258  -17.7237   24.5996 C   0  0  0  0  0  0  0  0  0  0  0  0
    7.5933  -17.3075   23.2862 C   0  0  0  0  0  0  0  0  0  0  0  0
    7.4513  -15.7981   23.0883 C   0  0  2  0  0  0  0  0  0  0  0  0
    7.9737  -15.4978   21.7911 N   0  0  0  0  0  0  0  0  0  0  0  0
    8.1387  -15.1509   24.2011 C   0  0  0  0  0  0  0  0  0  0  0  0
    9.3759  -15.2122   24.3960 O   0  0  0  0  0  0  0  0  0  0  0  0
    6.3049  -11.8338   25.5871 C   0  0  0  0  0  0  0  0  0  0  0  0
    6.8094  -12.7016   26.6931 C   0  0  2  0  0  0  0  0  0  0  0  0
    7.4435  -11.8107   27.7612 C   0  0  0  0  0  0  0  0  0  0  0  0
    7.9324  -13.6120   26.1833 C   0  0  2  0  0  0  0  0  0  0  0  0
    7.3583  -14.4034   25.1236 N   0  0  0  0  0  0  0  0  0  0  0  0
    8.3318  -14.4631   27.3093 C   0  0  0  0  0  0  0  0  0  0  0  0
    7.9235  -15.6343   27.4928 O   0  0  0  0  0  0  0  0  0  0  0  0
    9.2207  -13.9567   28.2457 O   0  0  0  0  0  0  0  0  0  0  0  0
  2  1  1  6
  2  3  1  0
  3  4  1  0
  5 13  1  0
  5  2  1  0
  6  5  2  0
  8  7  1  0
  9  8  2  0
 10  8  1  0
 11 10  1  0
 12 11  1  1
 12 14  1  0
 12 13  1  0
 14 15  2  0
 17 16  1  6
 17 19  1  0
 17 18  1  0
 20 14  1  0
 19 20  1  6
 21 19  1  0
 21 23  1  0
 22 21  2  0
M  END
$$$$
