CQV.pdb
     RDKit          3D

 23 22  0  0  1  0  0  0  0  0999 V2000
    7.2187  -15.1628   19.3101 N   0  0  0  0  0  0  0  0  0  0  0  0
    8.0497  -14.5255   20.3129 C   0  0  1  0  0  0  0  0  0  0  0  0
    7.4541  -13.1687   20.5868 C   0  0  0  0  0  0  0  0  0  0  0  0
    8.3032  -12.2573   21.8729 S   0  0  0  0  0  0  0  0  0  0  0  0
    8.1459  -15.3649   21.5177 C   0  0  0  0  0  0  0  0  0  0  0  0
    7.1582  -15.9487   22.0370 O   0  0  0  0  0  0  0  0  0  0  0  0
   12.1452  -19.5607   22.2589 N   0  0  0  0  0  0  0  0  0  0  0  0
   10.9928  -19.3136   21.4905 C   0  0  0  0  0  0  0  0  0  0  0  0
   10.7516  -20.0940   20.5102 O   0  0  0  0  0  0  0  0  0  0  0  0
   10.0737  -18.1940   21.7865 C   0  0  0  0  0  0  0  0  0  0  0  0
   10.5986  -17.4225   22.9482 C   0  0  0  0  0  0  0  0  0  0  0  0
    9.6402  -16.2927   23.3260 C   0  0  2  0  0  0  0  0  0  0  0  0
    9.3997  -15.5361   22.1363 N   0  0  0  0  0  0  0  0  0  0  0  0
   10.2579  -15.5515   24.4208 C   0  0  0  0  0  0  0  0  0  0  0  0
   10.8845  -14.4748   24.2770 O   0  0  0  0  0  0  0  0  0  0  0  0
   10.1813  -13.3944   28.2934 C   0  0  0  0  0  0  0  0  0  0  0  0
    9.7391  -14.1759   27.0998 C   0  0  2  0  0  0  0  0  0  0  0  0
    8.3366  -14.7219   27.3669 C   0  0  0  0  0  0  0  0  0  0  0  0
   10.6383  -15.4021   26.9054 C   0  0  2  0  0  0  0  0  0  0  0  0
   10.1434  -16.0817   25.7340 N   0  0  0  0  0  0  0  0  0  0  0  0
   10.4766  -16.2395   28.0988 C   0  0  0  0  0  0  0  0  0  0  0  0
    9.6529  -17.1794   28.1995 O   0  0  0  0  0  0  0  0  0  0  0  0
   11.2799  -15.9910   29.2018 O   0  0  0  0  0  0  0  0  0  0  0  0
  2  1  1  6
  2  3  1  0
  3  4  1  0
  5 13  1  0
  5  2  1  0
  6  5  2  0
  8  7  1  0
  9  8  2  0
 10  8  1  0
 11 10  1  0
 12 11  1  6
 12 14  1  0
 12 13  1  0
 14 15  2  0
 17 16  1  1
 17 19  1  0
 17 18  1  0
 20 14  1  0
 19 20  1  6
 21 19  1  0
 21 23  1  0
 22 21  2  0
M  END
$$$$
