CQV.pdb
     RDKit          3D

 23 22  0  0  1  0  0  0  0  0999 V2000
    7.5888  -16.2263   18.5040 N   0  0  0  0  0  0  0  0  0  0  0  0
    8.1662  -15.2976   19.4561 C   0  0  1  0  0  0  0  0  0  0  0  0
    7.9783  -13.9117   18.8952 C   0  0  0  0  0  0  0  0  0  0  0  0
    8.5861  -12.6135   19.9679 S   0  0  0  0  0  0  0  0  0  0  0  0
    7.5553  -15.4679   20.7839 C   0  0  0  0  0  0  0  0  0  0  0  0
    6.3389  -15.2440   21.0217 O   0  0  0  0  0  0  0  0  0  0  0  0
    7.6862  -20.2910   25.0201 N   0  0  0  0  0  0  0  0  0  0  0  0
    8.2939  -19.0932   25.4389 C   0  0  0  0  0  0  0  0  0  0  0  0
    9.3028  -19.1767   26.2158 O   0  0  0  0  0  0  0  0  0  0  0  0
    7.8011  -17.7674   25.0086 C   0  0  0  0  0  0  0  0  0  0  0  0
    8.3595  -17.4489   23.6644 C   0  0  0  0  0  0  0  0  0  0  0  0
    7.9178  -16.0576   23.2098 C   0  0  2  0  0  0  0  0  0  0  0  0
    8.3568  -15.9033   21.8572 N   0  0  0  0  0  0  0  0  0  0  0  0
    8.4737  -15.0976   24.1579 C   0  0  0  0  0  0  0  0  0  0  0  0
    9.6730  -14.7315   24.1679 O   0  0  0  0  0  0  0  0  0  0  0  0
    6.0615  -12.1441   25.2444 C   0  0  0  0  0  0  0  0  0  0  0  0
    6.7050  -12.7672   26.4396 C   0  0  2  0  0  0  0  0  0  0  0  0
    7.1281  -11.6560   27.4003 C   0  0  0  0  0  0  0  0  0  0  0  0
    7.9963  -13.4861   26.0328 C   0  0  2  0  0  0  0  0  0  0  0  0
    7.6024  -14.5413   25.1326 N   0  0  0  0  0  0  0  0  0  0  0  0
    8.5773  -14.0406   27.2603 C   0  0  0  0  0  0  0  0  0  0  0  0
    8.3966  -15.2140   27.6634 O   0  0  0  0  0  0  0  0  0  0  0  0
    9.3843  -13.2279   28.0425 O   0  0  0  0  0  0  0  0  0  0  0  0
  2  1  1  6
  2  3  1  0
  3  4  1  0
  5 13  1  0
  5  2  1  0
  6  5  2  0
  8  7  1  0
  9  8  2  0
 10  8  1  0
 11 10  1  0
 12 11  1  1
 12 14  1  0
 12 13  1  0
 14 15  2  0
 17 16  1  6
 17 19  1  0
 17 18  1  0
 20 14  1  0
 19 20  1  6
 21 19  1  0
 21 23  1  0
 22 21  2  0
M  END
$$$$
