TNY.pdb
     RDKit          3D

 28 28  0  0  1  0  0  0  0  0999 V2000
    7.5998  -12.1355   19.9103 C   0  0  0  0  0  0  0  0  0  0  0  0
    8.1803  -13.2204   20.7921 C   0  0  1  0  0  0  0  0  0  0  0  0
    7.4095  -13.2530   21.9536 O   0  0  0  0  0  0  0  0  0  0  0  0
    8.1385  -14.5553   20.0843 C   0  0  2  0  0  0  0  0  0  0  0  0
    6.8402  -14.7428   19.5178 N   0  0  0  0  0  0  0  0  0  0  0  0
    8.5767  -15.6671   20.9352 C   0  0  0  0  0  0  0  0  0  0  0  0
    7.7247  -16.5001   21.3326 O   0  0  0  0  0  0  0  0  0  0  0  0
   11.6461  -19.7492   22.9330 N   0  0  0  0  0  0  0  0  0  0  0  0
   12.0719  -18.4211   23.1340 C   0  0  0  0  0  0  0  0  0  0  0  0
   12.7516  -18.1374   24.1358 O   0  0  0  0  0  0  0  0  0  0  0  0
   11.7066  -17.3843   22.1543 C   0  0  0  0  0  0  0  0  0  0  0  0
   10.3226  -16.8541   22.3122 C   0  0  2  0  0  0  0  0  0  0  0  0
    9.9176  -15.8867   21.3587 N   0  0  0  0  0  0  0  0  0  0  0  0
   10.1562  -16.4104   23.7282 C   0  0  0  0  0  0  0  0  0  0  0  0
   10.6367  -15.2885   24.0317 O   0  0  0  0  0  0  0  0  0  0  0  0
    6.6900  -10.8160   25.9050 O   0  0  0  0  0  0  0  0  0  0  0  0
    6.9805  -12.1794   26.0110 C   0  0  0  0  0  0  0  0  0  0  0  0
    8.1686  -12.5788   26.5922 C   0  0  0  0  0  0  0  0  0  0  0  0
    8.4368  -13.9186   26.6877 C   0  0  0  0  0  0  0  0  0  0  0  0
    7.5920  -14.9161   26.2374 C   0  0  0  0  0  0  0  0  0  0  0  0
    7.8793  -16.3556   26.3286 C   0  0  0  0  0  0  0  0  0  0  0  0
    9.3178  -16.6230   26.0570 C   0  0  2  0  0  0  0  0  0  0  0  0
    9.5019  -17.1776   24.7044 N   0  0  0  0  0  0  0  0  0  0  0  0
    9.8883  -17.5964   26.9993 C   0  0  0  0  0  0  0  0  0  0  0  0
   10.2738  -18.7259   26.6121 O   0  0  0  0  0  0  0  0  0  0  0  0
    6.4034  -14.4677   25.6576 C   0  0  0  0  0  0  0  0  0  0  0  0
    6.1083  -13.1268   25.5489 C   0  0  0  0  0  0  0  0  0  0  0  0
   10.0180  -17.2859   28.3667 O   0  0  0  0  0  0  0  0  0  0  0  0
  2  1  1  6
  2  4  1  0
  3  2  1  0
  4  5  1  1
  4  6  1  0
  6  7  2  0
  9  8  1  0
 10  9  2  0
 12 11  1  6
 11  9  1  0
 13  6  1  0
 13 12  1  0
 14 12  1  0
 14 15  2  0
 16 17  1  0
 17 27  2  0
 17 18  1  0
 18 19  2  0
 19 20  1  0
 20 21  1  0
 22 21  1  1
 22 23  1  0
 23 14  1  0
 24 22  1  0
 25 24  2  0
 26 20  2  0
 27 26  1  0
 28 24  1  0
M  END
$$$$
