TNY.pdb
     RDKit          3D

 28 28  0  0  1  0  0  0  0  0999 V2000
    7.9832  -12.2043   18.2544 C   0  0  0  0  0  0  0  0  0  0  0  0
    8.9025  -13.2494   18.8498 C   0  0  1  0  0  0  0  0  0  0  0  0
    8.0898  -14.1898   19.4820 O   0  0  0  0  0  0  0  0  0  0  0  0
    9.7327  -13.9009   17.7676 C   0  0  2  0  0  0  0  0  0  0  0  0
    8.8623  -14.4214   16.7611 N   0  0  0  0  0  0  0  0  0  0  0  0
   10.6833  -14.8873   18.2928 C   0  0  0  0  0  0  0  0  0  0  0  0
   10.4708  -16.1072   18.0823 O   0  0  0  0  0  0  0  0  0  0  0  0
   15.0809  -13.8402   17.4872 N   0  0  0  0  0  0  0  0  0  0  0  0
   14.5954  -15.0797   17.9492 C   0  0  0  0  0  0  0  0  0  0  0  0
   14.4993  -16.0361   17.1603 O   0  0  0  0  0  0  0  0  0  0  0  0
   14.2074  -15.2278   19.3618 C   0  0  0  0  0  0  0  0  0  0  0  0
   12.7611  -15.5205   19.5714 C   0  0  2  0  0  0  0  0  0  0  0  0
   11.8536  -14.5711   19.0385 N   0  0  0  0  0  0  0  0  0  0  0  0
   12.5523  -15.8044   21.0224 C   0  0  0  0  0  0  0  0  0  0  0  0
   13.0027  -14.9586   21.8369 O   0  0  0  0  0  0  0  0  0  0  0  0
    7.0533  -12.9557   23.3403 O   0  0  0  0  0  0  0  0  0  0  0  0
    7.8813  -14.0823   23.3405 C   0  0  0  0  0  0  0  0  0  0  0  0
    7.9222  -14.8968   22.2252 C   0  0  0  0  0  0  0  0  0  0  0  0
    8.7389  -15.9962   22.2428 C   0  0  0  0  0  0  0  0  0  0  0  0
    9.5377  -16.3561   23.3124 C   0  0  0  0  0  0  0  0  0  0  0  0
   10.4090  -17.5405   23.3404 C   0  0  0  0  0  0  0  0  0  0  0  0
   11.7988  -17.1804   22.9487 C   0  0  2  0  0  0  0  0  0  0  0  0
   11.8908  -16.9478   21.4966 N   0  0  0  0  0  0  0  0  0  0  0  0
   12.7596  -18.2448   23.2727 C   0  0  0  0  0  0  0  0  0  0  0  0
   12.9337  -18.6243   24.4559 O   0  0  0  0  0  0  0  0  0  0  0  0
    9.4653  -15.5053   24.4175 C   0  0  0  0  0  0  0  0  0  0  0  0
    8.6529  -14.3932   24.4266 C   0  0  0  0  0  0  0  0  0  0  0  0
   13.5130  -18.8691   22.2599 O   0  0  0  0  0  0  0  0  0  0  0  0
  2  1  1  6
  2  4  1  0
  3  2  1  0
  4  5  1  6
  4  6  1  0
  6  7  2  0
  9  8  1  0
 10  9  2  0
 12 11  1  1
 11  9  1  0
 13  6  1  0
 13 12  1  0
 14 12  1  0
 14 15  2  0
 16 17  1  0
 17 27  2  0
 17 18  1  0
 18 19  2  0
 19 20  1  0
 20 21  1  0
 22 21  1  6
 22 23  1  0
 23 14  1  0
 24 22  1  0
 25 24  2  0
 26 20  2  0
 27 26  1  0
 28 24  1  0
M  END
$$$$
