TNY.pdb
     RDKit          3D

 28 28  0  0  1  0  0  0  0  0999 V2000
    7.7120  -11.9355   19.6923 C   0  0  0  0  0  0  0  0  0  0  0  0
    8.7267  -12.9134   20.2451 C   0  0  1  0  0  0  0  0  0  0  0  0
    8.1616  -13.4801   21.3870 O   0  0  0  0  0  0  0  0  0  0  0  0
    9.0463  -13.9785   19.2212 C   0  0  2  0  0  0  0  0  0  0  0  0
    7.8264  -14.5545   18.7505 N   0  0  0  0  0  0  0  0  0  0  0  0
   10.0156  -14.9663   19.7080 C   0  0  0  0  0  0  0  0  0  0  0  0
    9.6116  -16.1178   20.0058 O   0  0  0  0  0  0  0  0  0  0  0  0
   14.5064  -14.0724   18.1812 N   0  0  0  0  0  0  0  0  0  0  0  0
   13.9656  -15.2816   18.6619 C   0  0  0  0  0  0  0  0  0  0  0  0
   13.6757  -16.1877   17.8613 O   0  0  0  0  0  0  0  0  0  0  0  0
   13.7500  -15.4577   20.1078 C   0  0  0  0  0  0  0  0  0  0  0  0
   12.3200  -15.6126   20.4986 C   0  0  2  0  0  0  0  0  0  0  0  0
   11.4081  -14.7244   19.8754 N   0  0  0  0  0  0  0  0  0  0  0  0
   12.2447  -15.6043   21.9899 C   0  0  0  0  0  0  0  0  0  0  0  0
   12.9576  -14.7594   22.5897 O   0  0  0  0  0  0  0  0  0  0  0  0
    9.7826  -14.6349   30.1204 O   0  0  0  0  0  0  0  0  0  0  0  0
    9.9351  -14.7605   28.7364 C   0  0  0  0  0  0  0  0  0  0  0  0
    8.9511  -15.3889   27.9976 C   0  0  0  0  0  0  0  0  0  0  0  0
    9.1170  -15.5030   26.6428 C   0  0  0  0  0  0  0  0  0  0  0  0
   10.2151  -15.0279   25.9498 C   0  0  0  0  0  0  0  0  0  0  0  0
   10.4030  -15.1563   24.4969 C   0  0  0  0  0  0  0  0  0  0  0  0
   11.3041  -16.2981   24.1820 C   0  0  2  0  0  0  0  0  0  0  0  0
   11.4309  -16.4799   22.7253 N   0  0  0  0  0  0  0  0  0  0  0  0
   10.8028  -17.5671   24.7290 C   0  0  0  0  0  0  0  0  0  0  0  0
    9.9589  -18.2548   24.1051 O   0  0  0  0  0  0  0  0  0  0  0  0
   11.1842  -14.4002   26.7353 C   0  0  0  0  0  0  0  0  0  0  0  0
   11.0427  -14.2716   28.0993 C   0  0  0  0  0  0  0  0  0  0  0  0
   11.2583  -18.0466   25.9722 O   0  0  0  0  0  0  0  0  0  0  0  0
  2  1  1  6
  2  4  1  0
  3  2  1  0
  4  5  1  1
  4  6  1  0
  6  7  2  0
  9  8  1  0
 10  9  2  0
 12 11  1  1
 11  9  1  0
 13  6  1  0
 13 12  1  0
 14 12  1  0
 14 15  2  0
 16 17  1  0
 17 27  2  0
 17 18  1  0
 18 19  2  0
 19 20  1  0
 20 21  1  0
 22 21  1  6
 22 23  1  0
 23 14  1  0
 24 22  1  0
 25 24  2  0
 26 20  2  0
 27 26  1  0
 28 24  1  0
M  END
$$$$
