TNY.pdb
     RDKit          3D

 28 28  0  0  1  0  0  0  0  0999 V2000
    6.8833  -12.8440   19.7439 C   0  0  0  0  0  0  0  0  0  0  0  0
    7.4082  -14.2007   20.1626 C   0  0  1  0  0  0  0  0  0  0  0  0
    8.5777  -14.4234   19.4366 O   0  0  0  0  0  0  0  0  0  0  0  0
    7.6877  -14.2238   21.6479 C   0  0  2  0  0  0  0  0  0  0  0  0
    8.5177  -13.1104   21.9841 N   0  0  0  0  0  0  0  0  0  0  0  0
    8.2144  -15.5127   22.1101 C   0  0  0  0  0  0  0  0  0  0  0  0
    7.5331  -16.5506   21.9197 O   0  0  0  0  0  0  0  0  0  0  0  0
   12.8938  -19.1334   22.6833 N   0  0  0  0  0  0  0  0  0  0  0  0
   11.5156  -18.8528   22.7689 C   0  0  0  0  0  0  0  0  0  0  0  0
   10.7416  -19.7056   23.2376 O   0  0  0  0  0  0  0  0  0  0  0  0
   11.0081  -17.5519   22.3017 C   0  0  0  0  0  0  0  0  0  0  0  0
    9.9880  -16.9361   23.1971 C   0  0  2  0  0  0  0  0  0  0  0  0
    9.4619  -15.6905   22.7717 N   0  0  0  0  0  0  0  0  0  0  0  0
   10.5426  -16.9135   24.5832 C   0  0  0  0  0  0  0  0  0  0  0  0
   11.1507  -17.9449   24.9683 O   0  0  0  0  0  0  0  0  0  0  0  0
    6.1919  -10.8636   26.0917 O   0  0  0  0  0  0  0  0  0  0  0  0
    6.7312  -12.1417   26.2651 C   0  0  0  0  0  0  0  0  0  0  0  0
    7.9947  -12.2793   26.8069 C   0  0  0  0  0  0  0  0  0  0  0  0
    8.5074  -13.5390   26.9696 C   0  0  0  0  0  0  0  0  0  0  0  0
    7.8422  -14.7012   26.6254 C   0  0  0  0  0  0  0  0  0  0  0  0
    8.3917  -16.0555   26.7888 C   0  0  0  0  0  0  0  0  0  0  0  0
    9.8794  -16.0210   26.8048 C   0  0  2  0  0  0  0  0  0  0  0  0
   10.4138  -15.8150   25.4471 N   0  0  0  0  0  0  0  0  0  0  0  0
   10.4577  -17.2762   27.3057 C   0  0  0  0  0  0  0  0  0  0  0  0
   11.1415  -18.0189   26.5606 O   0  0  0  0  0  0  0  0  0  0  0  0
    6.5692  -14.5154   26.0821 C   0  0  0  0  0  0  0  0  0  0  0  0
    6.0295  -13.2604   25.9076 C   0  0  0  0  0  0  0  0  0  0  0  0
   10.2591  -17.6799   28.6401 O   0  0  0  0  0  0  0  0  0  0  0  0
  2  1  1  6
  2  4  1  0
  3  2  1  0
  4  5  1  6
  4  6  1  0
  6  7  2  0
  9  8  1  0
 10  9  2  0
 12 11  1  6
 11  9  1  0
 13  6  1  0
 13 12  1  0
 14 12  1  0
 14 15  2  0
 16 17  1  0
 17 27  2  0
 17 18  1  0
 18 19  2  0
 19 20  1  0
 20 21  1  0
 22 21  1  6
 22 23  1  0
 23 14  1  0
 24 22  1  0
 25 24  2  0
 26 20  2  0
 27 26  1  0
 28 24  1  0
M  END
$$$$
