TNY.pdb
     RDKit          3D

 28 28  0  0  1  0  0  0  0  0999 V2000
    7.9873  -12.5883   21.7948 C   0  0  0  0  0  0  0  0  0  0  0  0
    7.3887  -13.4843   20.7316 C   0  0  1  0  0  0  0  0  0  0  0  0
    7.3436  -12.7395   19.5536 O   0  0  0  0  0  0  0  0  0  0  0  0
    8.2335  -14.7243   20.5488 C   0  0  2  0  0  0  0  0  0  0  0  0
    7.7776  -15.4339   19.3953 N   0  0  0  0  0  0  0  0  0  0  0  0
    8.3049  -15.5504   21.7591 C   0  0  0  0  0  0  0  0  0  0  0  0
    7.2957  -15.6258   22.5032 O   0  0  0  0  0  0  0  0  0  0  0  0
    8.4957  -19.1908   21.6967 N   0  0  0  0  0  0  0  0  0  0  0  0
    9.7633  -19.4010   22.2751 C   0  0  0  0  0  0  0  0  0  0  0  0
   10.3796  -20.4553   22.0412 O   0  0  0  0  0  0  0  0  0  0  0  0
   10.3434  -18.3686   23.1503 C   0  0  0  0  0  0  0  0  0  0  0  0
    9.5004  -17.1484   23.2986 C   0  0  2  0  0  0  0  0  0  0  0  0
    9.4482  -16.2911   22.1711 N   0  0  0  0  0  0  0  0  0  0  0  0
    9.9025  -16.4593   24.5608 C   0  0  0  0  0  0  0  0  0  0  0  0
   10.8403  -15.6253   24.4784 O   0  0  0  0  0  0  0  0  0  0  0  0
    6.5272  -10.9923   25.2546 O   0  0  0  0  0  0  0  0  0  0  0  0
    7.0850  -12.1009   25.8984 C   0  0  0  0  0  0  0  0  0  0  0  0
    8.2790  -11.9623   26.5799 C   0  0  0  0  0  0  0  0  0  0  0  0
    8.8111  -13.0589   27.2047 C   0  0  0  0  0  0  0  0  0  0  0  0
    8.2315  -14.3142   27.2029 C   0  0  0  0  0  0  0  0  0  0  0  0
    8.8032  -15.4971   27.8638 C   0  0  0  0  0  0  0  0  0  0  0  0
    9.8655  -16.1089   27.0200 C   0  0  2  0  0  0  0  0  0  0  0  0
    9.2897  -16.7016   25.7999 N   0  0  0  0  0  0  0  0  0  0  0  0
   10.5798  -17.1850   27.7217 C   0  0  0  0  0  0  0  0  0  0  0  0
   10.5437  -18.3679   27.3048 O   0  0  0  0  0  0  0  0  0  0  0  0
    7.0268  -14.4085   26.5029 C   0  0  0  0  0  0  0  0  0  0  0  0
    6.4694  -13.3221   25.8658 C   0  0  0  0  0  0  0  0  0  0  0  0
   11.3266  -16.9160   28.8849 O   0  0  0  0  0  0  0  0  0  0  0  0
  2  1  1  1
  2  4  1  0
  3  2  1  0
  4  5  1  6
  4  6  1  0
  6  7  2  0
  9  8  1  0
 10  9  2  0
 12 11  1  6
 11  9  1  0
 13  6  1  0
 13 12  1  0
 14 12  1  0
 14 15  2  0
 16 17  1  0
 17 27  2  0
 17 18  1  0
 18 19  2  0
 19 20  1  0
 20 21  1  0
 22 21  1  1
 22 23  1  0
 23 14  1  0
 24 22  1  0
 25 24  2  0
 26 20  2  0
 27 26  1  0
 28 24  1  0
M  END
$$$$
