TNY.pdb
     RDKit          3D

 28 28  0  0  1  0  0  0  0  0999 V2000
    8.1626  -12.0322   19.3668 C   0  0  0  0  0  0  0  0  0  0  0  0
    8.4051  -13.1592   20.3480 C   0  0  1  0  0  0  0  0  0  0  0  0
    7.3578  -13.1266   21.2681 O   0  0  0  0  0  0  0  0  0  0  0  0
    8.4436  -14.4876   19.6277 C   0  0  2  0  0  0  0  0  0  0  0  0
    7.2683  -14.6180   18.8257 N   0  0  0  0  0  0  0  0  0  0  0  0
    8.6696  -15.6210   20.5314 C   0  0  0  0  0  0  0  0  0  0  0  0
    7.7781  -16.4994   20.6385 O   0  0  0  0  0  0  0  0  0  0  0  0
   10.7050  -20.0098   22.6719 N   0  0  0  0  0  0  0  0  0  0  0  0
   11.4717  -18.8426   22.8604 C   0  0  0  0  0  0  0  0  0  0  0  0
   12.2890  -18.7872   23.7959 O   0  0  0  0  0  0  0  0  0  0  0  0
   11.2958  -17.7017   21.9464 C   0  0  0  0  0  0  0  0  0  0  0  0
   10.0624  -16.9027   22.1958 C   0  0  2  0  0  0  0  0  0  0  0  0
    9.8415  -15.8139   21.3156 N   0  0  0  0  0  0  0  0  0  0  0  0
   10.0414  -16.5234   23.6399 C   0  0  0  0  0  0  0  0  0  0  0  0
   10.8016  -15.5852   23.9916 O   0  0  0  0  0  0  0  0  0  0  0  0
    6.3608  -10.9243   25.5835 O   0  0  0  0  0  0  0  0  0  0  0  0
    6.7039  -12.2661   25.7743 C   0  0  0  0  0  0  0  0  0  0  0  0
    5.9234  -13.2552   25.2075 C   0  0  0  0  0  0  0  0  0  0  0  0
    6.2744  -14.5644   25.4047 C   0  0  0  0  0  0  0  0  0  0  0  0
    7.3700  -14.9746   26.1417 C   0  0  0  0  0  0  0  0  0  0  0  0
    7.7458  -16.3788   26.3648 C   0  0  0  0  0  0  0  0  0  0  0  0
    9.1582  -16.6159   25.9600 C   0  0  2  0  0  0  0  0  0  0  0  0
    9.2277  -17.1575   24.5914 N   0  0  0  0  0  0  0  0  0  0  0  0
    9.8313  -17.5842   26.8375 C   0  0  0  0  0  0  0  0  0  0  0  0
    9.9666  -17.3634   28.0652 O   0  0  0  0  0  0  0  0  0  0  0  0
    8.1302  -13.9426   26.6958 C   0  0  0  0  0  0  0  0  0  0  0  0
    7.8002  -12.6179   26.5132 C   0  0  0  0  0  0  0  0  0  0  0  0
   10.3442  -18.7901   26.3217 O   0  0  0  0  0  0  0  0  0  0  0  0
  2  1  1  6
  2  4  1  0
  3  2  1  0
  4  5  1  1
  4  6  1  0
  6  7  2  0
  9  8  1  0
 10  9  2  0
 12 11  1  6
 11  9  1  0
 13  6  1  0
 13 12  1  0
 14 12  1  0
 14 15  2  0
 16 17  1  0
 17 27  2  0
 17 18  1  0
 18 19  2  0
 19 20  1  0
 20 21  1  0
 22 21  1  1
 22 23  1  0
 23 14  1  0
 24 22  1  0
 25 24  2  0
 26 20  2  0
 27 26  1  0
 28 24  1  0
M  END
$$$$
