TNY.pdb
     RDKit          3D

 28 28  0  0  1  0  0  0  0  0999 V2000
   12.6101  -19.4905   19.1247 C   0  0  0  0  0  0  0  0  0  0  0  0
   11.5712  -18.5059   18.6320 C   0  0  1  0  0  0  0  0  0  0  0  0
   12.0388  -17.9967   17.4211 O   0  0  0  0  0  0  0  0  0  0  0  0
   10.2384  -19.1938   18.4444 C   0  0  2  0  0  0  0  0  0  0  0  0
    9.3662  -18.3302   17.7129 N   0  0  0  0  0  0  0  0  0  0  0  0
    9.6652  -19.6818   19.7036 C   0  0  0  0  0  0  0  0  0  0  0  0
    9.1246  -18.8591   20.4838 O   0  0  0  0  0  0  0  0  0  0  0  0
    6.0251  -22.8718   20.7513 N   0  0  0  0  0  0  0  0  0  0  0  0
    7.3536  -22.9685   20.2917 C   0  0  0  0  0  0  0  0  0  0  0  0
    7.5751  -23.1344   19.0794 O   0  0  0  0  0  0  0  0  0  0  0  0
    8.4645  -22.8719   21.2532 C   0  0  0  0  0  0  0  0  0  0  0  0
    9.0933  -21.5225   21.3277 C   0  0  2  0  0  0  0  0  0  0  0  0
    9.6699  -21.0410   20.1258 N   0  0  0  0  0  0  0  0  0  0  0  0
   10.0293  -21.5122   22.4910 C   0  0  0  0  0  0  0  0  0  0  0  0
   11.2440  -21.3036   22.2405 O   0  0  0  0  0  0  0  0  0  0  0  0
   14.5525  -20.0483   29.6296 O   0  0  0  0  0  0  0  0  0  0  0  0
   13.6813  -20.1058   28.5377 C   0  0  0  0  0  0  0  0  0  0  0  0
   14.1962  -20.2429   27.2629 C   0  0  0  0  0  0  0  0  0  0  0  0
   13.3281  -20.2975   26.2048 C   0  0  0  0  0  0  0  0  0  0  0  0
   11.9524  -20.2239   26.3215 C   0  0  0  0  0  0  0  0  0  0  0  0
   11.0162  -20.2723   25.1883 C   0  0  0  0  0  0  0  0  0  0  0  0
   10.6104  -21.6749   24.9009 C   0  0  2  0  0  0  0  0  0  0  0  0
    9.6148  -21.7209   23.8155 N   0  0  0  0  0  0  0  0  0  0  0  0
    9.9995  -22.3257   26.0689 C   0  0  0  0  0  0  0  0  0  0  0  0
   10.6997  -22.9377   26.9112 O   0  0  0  0  0  0  0  0  0  0  0  0
   11.4758  -20.0860   27.6268 C   0  0  0  0  0  0  0  0  0  0  0  0
   12.3262  -20.0286   28.7088 C   0  0  0  0  0  0  0  0  0  0  0  0
    8.6071  -22.2794   26.2743 O   0  0  0  0  0  0  0  0  0  0  0  0
  2  1  1  6
  2  4  1  0
  3  2  1  0
  4  5  1  1
  4  6  1  0
  6  7  2  0
  9  8  1  0
 10  9  2  0
 12 11  1  6
 11  9  1  0
 13  6  1  0
 13 12  1  0
 14 12  1  0
 14 15  2  0
 16 17  1  0
 17 27  2  0
 17 18  1  0
 18 19  2  0
 19 20  1  0
 20 21  1  0
 22 21  1  1
 22 23  1  0
 23 14  1  0
 24 22  1  0
 25 24  2  0
 26 20  2  0
 27 26  1  0
 28 24  1  0
M  END
$$$$
