TNY.pdb
     RDKit          3D

 28 28  0  0  1  0  0  0  0  0999 V2000
    8.7002  -22.2845   20.5567 C   0  0  0  0  0  0  0  0  0  0  0  0
    8.8606  -21.1905   19.5227 C   0  0  1  0  0  0  0  0  0  0  0  0
    7.8809  -21.4033   18.5536 O   0  0  0  0  0  0  0  0  0  0  0  0
    8.6948  -19.8309   20.1620 C   0  0  2  0  0  0  0  0  0  0  0  0
    7.8539  -19.0252   19.3340 N   0  0  0  0  0  0  0  0  0  0  0  0
    9.9748  -19.1969   20.4964 C   0  0  0  0  0  0  0  0  0  0  0  0
   10.7222  -19.7472   21.3428 O   0  0  0  0  0  0  0  0  0  0  0  0
   10.4498  -15.6814   17.9231 N   0  0  0  0  0  0  0  0  0  0  0  0
   11.5940  -15.4228   18.7038 C   0  0  0  0  0  0  0  0  0  0  0  0
   11.9548  -14.2488   18.8974 O   0  0  0  0  0  0  0  0  0  0  0  0
   12.3494  -16.5471   19.2813 C   0  0  0  0  0  0  0  0  0  0  0  0
   11.6188  -17.2922   20.3456 C   0  0  2  0  0  0  0  0  0  0  0  0
   10.4528  -17.9822   19.9292 N   0  0  0  0  0  0  0  0  0  0  0  0
   11.3905  -16.3598   21.4893 C   0  0  0  0  0  0  0  0  0  0  0  0
   12.4033  -15.7839   21.9631 O   0  0  0  0  0  0  0  0  0  0  0  0
    7.9661  -12.8646   17.3855 O   0  0  0  0  0  0  0  0  0  0  0  0
    8.1373  -13.2213   18.7264 C   0  0  0  0  0  0  0  0  0  0  0  0
    9.1487  -12.6348   19.4627 C   0  0  0  0  0  0  0  0  0  0  0  0
    9.3019  -12.9961   20.7750 C   0  0  0  0  0  0  0  0  0  0  0  0
    8.5057  -13.9197   21.4267 C   0  0  0  0  0  0  0  0  0  0  0  0
    8.6718  -14.3185   22.8325 C   0  0  0  0  0  0  0  0  0  0  0  0
    9.9643  -15.0297   23.0282 C   0  0  2  0  0  0  0  0  0  0  0  0
   10.1236  -16.1100   22.0388 N   0  0  0  0  0  0  0  0  0  0  0  0
   10.0601  -15.6500   24.3574 C   0  0  0  0  0  0  0  0  0  0  0  0
   10.0300  -14.9554   25.4019 O   0  0  0  0  0  0  0  0  0  0  0  0
    7.4968  -14.4869   20.6453 C   0  0  0  0  0  0  0  0  0  0  0  0
    7.3203  -14.1418   19.3237 C   0  0  0  0  0  0  0  0  0  0  0  0
   10.1884  -17.0457   24.4945 O   0  0  0  0  0  0  0  0  0  0  0  0
  2  1  1  1
  2  4  1  0
  3  2  1  0
  4  5  1  6
  4  6  1  0
  6  7  2  0
  9  8  1  0
 10  9  2  0
 12 11  1  6
 11  9  1  0
 13  6  1  0
 13 12  1  0
 14 12  1  0
 14 15  2  0
 16 17  1  0
 17 27  2  0
 17 18  1  0
 18 19  2  0
 19 20  1  0
 20 21  1  0
 22 21  1  1
 22 23  1  0
 23 14  1  0
 24 22  1  0
 25 24  2  0
 26 20  2  0
 27 26  1  0
 28 24  1  0
M  END
$$$$
