TNY.pdb
     RDKit          3D

 28 28  0  0  1  0  0  0  0  0999 V2000
    7.1857  -20.6093   18.4020 C   0  0  0  0  0  0  0  0  0  0  0  0
    7.7846  -19.4995   19.2394 C   0  0  1  0  0  0  0  0  0  0  0  0
    8.6847  -20.0983   20.1202 O   0  0  0  0  0  0  0  0  0  0  0  0
    8.4877  -18.4930   18.3578 C   0  0  2  0  0  0  0  0  0  0  0  0
    9.4437  -19.1736   17.5427 N   0  0  0  0  0  0  0  0  0  0  0  0
    9.0508  -17.3677   19.1121 C   0  0  0  0  0  0  0  0  0  0  0  0
   10.2129  -17.4697   19.5779 O   0  0  0  0  0  0  0  0  0  0  0  0
    7.1750  -12.9370   18.0347 N   0  0  0  0  0  0  0  0  0  0  0  0
    8.3288  -13.2413   18.7842 C   0  0  0  0  0  0  0  0  0  0  0  0
    9.4531  -13.0298   18.2969 O   0  0  0  0  0  0  0  0  0  0  0  0
    8.1892  -13.8067   20.1366 C   0  0  0  0  0  0  0  0  0  0  0  0
    8.7940  -15.1592   20.2996 C   0  0  2  0  0  0  0  0  0  0  0  0
    8.3754  -16.1411   19.3669 N   0  0  0  0  0  0  0  0  0  0  0  0
    8.6261  -15.5721   21.7246 C   0  0  0  0  0  0  0  0  0  0  0  0
    7.6016  -16.2462   22.0035 O   0  0  0  0  0  0  0  0  0  0  0  0
    6.2962  -11.5775   28.7926 O   0  0  0  0  0  0  0  0  0  0  0  0
    6.7169  -12.0932   27.5631 C   0  0  0  0  0  0  0  0  0  0  0  0
    5.7763  -12.5402   26.6551 C   0  0  0  0  0  0  0  0  0  0  0  0
    6.2063  -13.0424   25.4555 C   0  0  0  0  0  0  0  0  0  0  0  0
    7.5340  -13.1363   25.0813 C   0  0  0  0  0  0  0  0  0  0  0  0
    8.0017  -13.6835   23.7989 C   0  0  0  0  0  0  0  0  0  0  0  0
    9.0483  -14.7183   24.0190 C   0  0  2  0  0  0  0  0  0  0  0  0
    9.5436  -15.2448   22.7350 N   0  0  0  0  0  0  0  0  0  0  0  0
    8.5408  -15.8662   24.7843 C   0  0  0  0  0  0  0  0  0  0  0  0
    7.6422  -16.6093   24.3210 O   0  0  0  0  0  0  0  0  0  0  0  0
    8.4497  -12.6733   26.0285 C   0  0  0  0  0  0  0  0  0  0  0  0
    8.0450  -12.1635   27.2423 C   0  0  0  0  0  0  0  0  0  0  0  0
    9.0515  -16.1634   26.0626 O   0  0  0  0  0  0  0  0  0  0  0  0
  2  1  1  6
  2  4  1  0
  3  2  1  0
  4  5  1  1
  4  6  1  0
  6  7  2  0
  9  8  1  0
 10  9  2  0
 12 11  1  1
 11  9  1  0
 13  6  1  0
 13 12  1  0
 14 12  1  0
 14 15  2  0
 16 17  1  0
 17 27  2  0
 17 18  1  0
 18 19  2  0
 19 20  1  0
 20 21  1  0
 22 21  1  6
 22 23  1  0
 23 14  1  0
 24 22  1  0
 25 24  2  0
 26 20  2  0
 27 26  1  0
 28 24  1  0
M  END
$$$$
