TNY.pdb
     RDKit          3D

 28 28  0  0  1  0  0  0  0  0999 V2000
    8.0753  -12.1826   19.3649 C   0  0  0  0  0  0  0  0  0  0  0  0
    8.5430  -13.2965   20.2772 C   0  0  1  0  0  0  0  0  0  0  0  0
    8.3809  -12.8425   21.5856 O   0  0  0  0  0  0  0  0  0  0  0  0
    7.7307  -14.5492   20.0408 C   0  0  2  0  0  0  0  0  0  0  0  0
    6.3469  -14.2010   19.9656 N   0  0  0  0  0  0  0  0  0  0  0  0
    8.0199  -15.6094   21.0126 C   0  0  0  0  0  0  0  0  0  0  0  0
    7.0961  -16.0169   21.7598 O   0  0  0  0  0  0  0  0  0  0  0  0
    9.3713  -20.3600   23.2248 N   0  0  0  0  0  0  0  0  0  0  0  0
   10.3645  -19.5139   22.6927 C   0  0  0  0  0  0  0  0  0  0  0  0
   11.5322  -19.5955   23.1122 O   0  0  0  0  0  0  0  0  0  0  0  0
   10.0075  -18.5426   21.6452 C   0  0  0  0  0  0  0  0  0  0  0  0
    9.5913  -17.2088   22.1642 C   0  0  2  0  0  0  0  0  0  0  0  0
    9.2892  -16.2300   21.1845 N   0  0  0  0  0  0  0  0  0  0  0  0
   10.6061  -16.7651   23.1656 C   0  0  0  0  0  0  0  0  0  0  0  0
   11.5664  -17.5469   23.3854 O   0  0  0  0  0  0  0  0  0  0  0  0
    5.6987  -10.8961   26.5711 O   0  0  0  0  0  0  0  0  0  0  0  0
    6.3621  -12.0678   26.1946 C   0  0  0  0  0  0  0  0  0  0  0  0
    7.1965  -12.6975   27.0981 C   0  0  0  0  0  0  0  0  0  0  0  0
    7.8384  -13.8444   26.7124 C   0  0  0  0  0  0  0  0  0  0  0  0
    7.7103  -14.4267   25.4649 C   0  0  0  0  0  0  0  0  0  0  0  0
    8.4046  -15.6524   25.0422 C   0  0  0  0  0  0  0  0  0  0  0  0
    9.8786  -15.4932   25.1717 C   0  0  2  0  0  0  0  0  0  0  0  0
   10.5295  -15.5426   23.8507 N   0  0  0  0  0  0  0  0  0  0  0  0
   10.4819  -16.5583   25.9855 C   0  0  0  0  0  0  0  0  0  0  0  0
   10.1645  -16.7145   27.1893 O   0  0  0  0  0  0  0  0  0  0  0  0
    6.8578  -13.7576   24.5843 C   0  0  0  0  0  0  0  0  0  0  0  0
    6.1998  -12.6029   24.9461 C   0  0  0  0  0  0  0  0  0  0  0  0
   11.4357  -17.4351   25.4336 O   0  0  0  0  0  0  0  0  0  0  0  0
  2  1  1  6
  2  4  1  0
  3  2  1  0
  4  5  1  1
  4  6  1  0
  6  7  2  0
  9  8  1  0
 10  9  2  0
 12 11  1  6
 11  9  1  0
 13  6  1  0
 13 12  1  0
 14 12  1  0
 14 15  2  0
 16 17  1  0
 17 27  2  0
 17 18  1  0
 18 19  2  0
 19 20  1  0
 20 21  1  0
 22 21  1  6
 22 23  1  0
 23 14  1  0
 24 22  1  0
 25 24  2  0
 26 20  2  0
 27 26  1  0
 28 24  1  0
M  END
$$$$
