FRQ.pdb
     RDKit          3D

 32 32  0  0  1  0  0  0  0  0999 V2000
    8.4997  -15.6905   26.2852 N   0  0  0  0  0  0  0  0  0  0  0  0
    7.3969  -16.1301   25.4906 C   0  0  1  0  0  0  0  0  0  0  0  0
    6.1457  -15.4183   25.9538 C   0  0  0  0  0  0  0  0  0  0  0  0
    6.4319  -14.0432   26.4127 C   0  0  0  0  0  0  0  0  0  0  0  0
    5.6517  -13.0050   25.9734 C   0  0  0  0  0  0  0  0  0  0  0  0
    5.9150  -11.7099   26.4009 C   0  0  0  0  0  0  0  0  0  0  0  0
    6.9502  -11.4368   27.2639 C   0  0  0  0  0  0  0  0  0  0  0  0
    7.7343  -12.4696   27.7070 C   0  0  0  0  0  0  0  0  0  0  0  0
    7.4661  -13.7533   27.2775 C   0  0  0  0  0  0  0  0  0  0  0  0
    7.6244  -15.9551   24.0372 C   0  0  0  0  0  0  0  0  0  0  0  0
    6.8187  -16.4439   23.1894 O   0  0  0  0  0  0  0  0  0  0  0  0
    9.3407  -14.9945   16.8660 N   0  0  0  0  0  0  0  0  0  0  0  0
    8.1821  -14.1721   16.8184 C   0  0  0  0  0  0  0  0  0  0  0  0
    7.9400  -13.5603   15.7039 N   0  0  0  0  0  0  0  0  0  0  0  0
    7.3169  -14.0126   17.9242 N   0  0  0  0  0  0  0  0  0  0  0  0
    7.6495  -14.6121   19.1904 C   0  0  0  0  0  0  0  0  0  0  0  0
    8.5827  -13.7039   19.9973 C   0  0  0  0  0  0  0  0  0  0  0  0
    8.2316  -13.8914   21.4622 C   0  0  0  0  0  0  0  0  0  0  0  0
    8.9137  -15.0741   22.0729 C   0  0  2  0  0  0  0  0  0  0  0  0
    8.7143  -15.2557   23.4645 N   0  0  0  0  0  0  0  0  0  0  0  0
   10.3233  -15.0529   21.6311 C   0  0  0  0  0  0  0  0  0  0  0  0
   10.6033  -15.1654   20.4127 O   0  0  0  0  0  0  0  0  0  0  0  0
    7.1240  -12.9324   15.6257 N   0  0  0  0  0  0  0  0  0  0  0  0
   10.5395  -19.6323   23.3479 C   0  0  0  0  0  0  0  0  0  0  0  0
   11.9270  -19.7004   23.1199 O   0  0  0  0  0  0  0  0  0  0  0  0
   12.5160  -20.7921   23.1771 C   0  0  0  0  0  0  0  0  0  0  0  0
   12.6946  -18.4640   22.8094 C   0  0  0  0  0  0  0  0  0  0  0  0
   11.7677  -17.2880   22.8967 C   0  0  1  0  0  0  0  0  0  0  0  0
   12.4370  -15.9797   22.6371 N   0  0  0  0  0  0  0  0  0  0  0  0
   11.4195  -14.9095   22.5186 C   0  0  0  0  0  0  0  0  0  0  0  0
   13.1946  -15.9794   21.3810 O   0  0  0  0  0  0  0  0  0  0  0  0
   12.6049  -16.2865   20.1770 O   0  0  0  0  0  0  0  0  0  0  0  0
  2  1  1  1
  2 10  1  0
  3  2  1  0
  4  3  1  0
  4  5  2  0
  6  5  1  0
  7  6  2  0
  8  9  2  0
  8  7  1  0
  9  4  1  0
 10 20  1  0
 10 11  2  0
 13 12  1  0
 13 14  2  0
 15 13  1  0
 16 15  1  0
 16 17  1  0
 17 18  1  0
 19 18  1  1
 20 19  1  0
 21 19  1  0
 21 29  1  0
 22 21  2  0
 23 24  1  0
 24 25  2  0
 26 24  1  0
 26 27  1  0
 28 27  1  1
 28 29  1  0
 28 30  1  0
 30 31  1  0
 32 30  2  0
M  END
$$$$
