FRQ.pdb
     RDKit          3D

 32 32  0  0  1  0  0  0  0  0999 V2000
    6.4712  -17.6377   25.8558 N   0  0  0  0  0  0  0  0  0  0  0  0
    6.8272  -16.3275   25.4115 C   0  0  1  0  0  0  0  0  0  0  0  0
    7.7025  -15.6768   26.4590 C   0  0  0  0  0  0  0  0  0  0  0  0
    7.3511  -14.2566   26.6661 C   0  0  0  0  0  0  0  0  0  0  0  0
    6.0327  -13.8854   26.7249 C   0  0  0  0  0  0  0  0  0  0  0  0
    5.6951  -12.5522   26.9195 C   0  0  0  0  0  0  0  0  0  0  0  0
    6.6596  -11.5816   27.0565 C   0  0  0  0  0  0  0  0  0  0  0  0
    7.9795  -11.9452   26.9985 C   0  0  0  0  0  0  0  0  0  0  0  0
    8.3064  -13.2719   26.8049 C   0  0  0  0  0  0  0  0  0  0  0  0
    7.4698  -16.3234   24.0767 C   0  0  0  0  0  0  0  0  0  0  0  0
    8.0030  -17.3737   23.6084 O   0  0  0  0  0  0  0  0  0  0  0  0
    9.6888  -14.5155   17.2513 N   0  0  0  0  0  0  0  0  0  0  0  0
    8.5438  -13.8996   16.6764 C   0  0  0  0  0  0  0  0  0  0  0  0
    8.4772  -13.8713   15.3842 N   0  0  0  0  0  0  0  0  0  0  0  0
    7.5104  -13.3359   17.4580 N   0  0  0  0  0  0  0  0  0  0  0  0
    7.7595  -12.9788   18.8305 C   0  0  0  0  0  0  0  0  0  0  0  0
    8.2685  -14.1850   19.6259 C   0  0  0  0  0  0  0  0  0  0  0  0
    7.6280  -14.1161   21.0005 C   0  0  0  0  0  0  0  0  0  0  0  0
    8.0649  -15.2301   21.8978 C   0  0  2  0  0  0  0  0  0  0  0  0
    7.5537  -15.1994   23.2195 N   0  0  0  0  0  0  0  0  0  0  0  0
    9.5339  -15.3410   21.7878 C   0  0  0  0  0  0  0  0  0  0  0  0
   10.0698  -15.5229   20.6673 O   0  0  0  0  0  0  0  0  0  0  0  0
    7.6356  -13.4961   14.9181 N   0  0  0  0  0  0  0  0  0  0  0  0
   11.4041  -19.1909   25.1918 C   0  0  0  0  0  0  0  0  0  0  0  0
   12.4882  -19.2462   24.2954 O   0  0  0  0  0  0  0  0  0  0  0  0
   13.4663  -19.9702   24.5428 C   0  0  0  0  0  0  0  0  0  0  0  0
   12.4673  -18.4367   23.0470 C   0  0  0  0  0  0  0  0  0  0  0  0
   11.2834  -17.5167   23.0904 C   0  0  1  0  0  0  0  0  0  0  0  0
   11.6424  -16.0748   22.9516 N   0  0  0  0  0  0  0  0  0  0  0  0
   10.4108  -15.2532   22.8983 C   0  0  0  0  0  0  0  0  0  0  0  0
   12.3840  -15.8002   21.7162 O   0  0  0  0  0  0  0  0  0  0  0  0
   11.8451  -15.0501   20.6970 O   0  0  0  0  0  0  0  0  0  0  0  0
  2  1  1  1
  2 10  1  0
  3  2  1  0
  4  3  1  0
  4  5  2  0
  6  5  1  0
  7  6  2  0
  8  9  2  0
  8  7  1  0
  9  4  1  0
 10 20  1  0
 10 11  2  0
 13 12  1  0
 13 14  2  0
 15 13  1  0
 16 15  1  0
 16 17  1  0
 17 18  1  0
 19 18  1  1
 20 19  1  0
 21 19  1  0
 21 29  1  0
 22 21  2  0
 23 24  1  0
 24 25  2  0
 26 24  1  0
 26 27  1  0
 28 27  1  1
 28 29  1  0
 28 30  1  0
 30 31  1  0
 32 30  2  0
M  END
$$$$
