FRQ.pdb
     RDKit          3D

 32 32  0  0  1  0  0  0  0  0999 V2000
    6.9462  -16.5513   26.1633 N   0  0  0  0  0  0  0  0  0  0  0  0
    6.9755  -15.4622   25.2393 C   0  0  1  0  0  0  0  0  0  0  0  0
    7.8553  -14.3679   25.8007 C   0  0  0  0  0  0  0  0  0  0  0  0
    7.0767  -13.3750   26.5696 C   0  0  0  0  0  0  0  0  0  0  0  0
    5.9657  -12.8010   26.0076 C   0  0  0  0  0  0  0  0  0  0  0  0
    5.2290  -11.8670   26.7248 C   0  0  0  0  0  0  0  0  0  0  0  0
    5.5882  -11.4972   27.9996 C   0  0  0  0  0  0  0  0  0  0  0  0
    6.6977  -12.0666   28.5677 C   0  0  0  0  0  0  0  0  0  0  0  0
    7.4240  -12.9937   27.8485 C   0  0  0  0  0  0  0  0  0  0  0  0
    7.4009  -15.8679   23.8794 C   0  0  0  0  0  0  0  0  0  0  0  0
    7.9912  -16.9727   23.6853 O   0  0  0  0  0  0  0  0  0  0  0  0
    7.6997  -15.6919   16.6711 N   0  0  0  0  0  0  0  0  0  0  0  0
    8.5706  -14.6690   16.2062 C   0  0  0  0  0  0  0  0  0  0  0  0
    9.0883  -14.8263   15.0305 N   0  0  0  0  0  0  0  0  0  0  0  0
    8.8739  -13.5219   16.9734 N   0  0  0  0  0  0  0  0  0  0  0  0
    8.2187  -13.3077   18.2375 C   0  0  0  0  0  0  0  0  0  0  0  0
    8.6020  -14.3972   19.2439 C   0  0  0  0  0  0  0  0  0  0  0  0
    7.6556  -14.2683   20.4237 C   0  0  0  0  0  0  0  0  0  0  0  0
    7.9437  -15.2593   21.5063 C   0  0  2  0  0  0  0  0  0  0  0  0
    7.2033  -15.1022   22.7048 N   0  0  0  0  0  0  0  0  0  0  0  0
    9.4103  -15.3261   21.6705 C   0  0  0  0  0  0  0  0  0  0  0  0
   10.0447  -14.3233   22.0799 O   0  0  0  0  0  0  0  0  0  0  0  0
    9.7288  -14.1123   14.6481 N   0  0  0  0  0  0  0  0  0  0  0  0
   11.7297  -19.4931   25.2861 C   0  0  0  0  0  0  0  0  0  0  0  0
   10.9280  -18.7292   24.4170 O   0  0  0  0  0  0  0  0  0  0  0  0
    9.8209  -19.1568   24.0516 C   0  0  0  0  0  0  0  0  0  0  0  0
   11.4036  -17.4054   23.9316 C   0  0  0  0  0  0  0  0  0  0  0  0
   12.0021  -17.5802   22.5674 C   0  0  2  0  0  0  0  0  0  0  0  0
   11.6418  -16.4907   21.6133 N   0  0  0  0  0  0  0  0  0  0  0  0
   10.1776  -16.4843   21.3878 C   0  0  0  0  0  0  0  0  0  0  0  0
   12.2681  -16.6695   20.2989 O   0  0  0  0  0  0  0  0  0  0  0  0
   11.5252  -16.9141   19.1675 O   0  0  0  0  0  0  0  0  0  0  0  0
  2  1  1  1
  2 10  1  0
  3  2  1  0
  4  3  1  0
  4  5  2  0
  6  5  1  0
  7  6  2  0
  8  9  2  0
  8  7  1  0
  9  4  1  0
 10 20  1  0
 10 11  2  0
 13 12  1  0
 13 14  2  0
 15 13  1  0
 16 15  1  0
 16 17  1  0
 17 18  1  0
 19 18  1  6
 20 19  1  0
 21 19  1  0
 21 29  1  0
 22 21  2  0
 23 24  1  0
 24 25  2  0
 26 24  1  0
 26 27  1  0
 28 27  1  1
 28 29  1  0
 28 30  1  0
 30 31  1  0
 32 30  2  0
M  END
$$$$
