FRQ.pdb
     RDKit          3D

 32 32  0  0  1  0  0  0  0  0999 V2000
    6.0586  -16.0900   25.6404 N   0  0  0  0  0  0  0  0  0  0  0  0
    7.1226  -15.4995   24.8921 C   0  0  1  0  0  0  0  0  0  0  0  0
    7.9195  -14.5950   25.8051 C   0  0  0  0  0  0  0  0  0  0  0  0
    7.2354  -13.3063   26.0382 C   0  0  0  0  0  0  0  0  0  0  0  0
    6.3458  -13.1879   27.0747 C   0  0  0  0  0  0  0  0  0  0  0  0
    5.6993  -11.9793   27.2997 C   0  0  0  0  0  0  0  0  0  0  0  0
    5.9298  -10.8839   26.5010 C   0  0  0  0  0  0  0  0  0  0  0  0
    6.8176  -10.9948   25.4630 C   0  0  0  0  0  0  0  0  0  0  0  0
    7.4557  -12.1991   25.2463 C   0  0  0  0  0  0  0  0  0  0  0  0
    7.9833  -16.5008   24.2202 C   0  0  0  0  0  0  0  0  0  0  0  0
    8.2663  -17.5992   24.7860 O   0  0  0  0  0  0  0  0  0  0  0  0
    7.9189  -12.6374   17.5410 N   0  0  0  0  0  0  0  0  0  0  0  0
    8.7049  -13.6200   18.2025 C   0  0  0  0  0  0  0  0  0  0  0  0
    9.6754  -13.1946   18.9457 N   0  0  0  0  0  0  0  0  0  0  0  0
    8.4590  -15.0052   18.0713 N   0  0  0  0  0  0  0  0  0  0  0  0
    9.2822  -15.9522   18.7775 C   0  0  0  0  0  0  0  0  0  0  0  0
    8.8745  -16.0390   20.2517 C   0  0  0  0  0  0  0  0  0  0  0  0
    9.8383  -16.9986   20.9259 C   0  0  0  0  0  0  0  0  0  0  0  0
    9.5136  -17.2251   22.3682 C   0  0  2  0  0  0  0  0  0  0  0  0
    8.5556  -16.3471   22.9342 N   0  0  0  0  0  0  0  0  0  0  0  0
   10.7918  -17.3280   23.1018 C   0  0  0  0  0  0  0  0  0  0  0  0
   11.4039  -16.2888   23.4497 O   0  0  0  0  0  0  0  0  0  0  0  0
   10.3187  -13.8683   19.3913 N   0  0  0  0  0  0  0  0  0  0  0  0
   12.0421  -21.4063   27.2675 C   0  0  0  0  0  0  0  0  0  0  0  0
   11.3280  -20.2018   27.4120 O   0  0  0  0  0  0  0  0  0  0  0  0
   10.5546  -20.0459   28.3710 C   0  0  0  0  0  0  0  0  0  0  0  0
   11.4963  -19.1093   26.4158 C   0  0  0  0  0  0  0  0  0  0  0  0
   12.4957  -19.5471   25.3865 C   0  0  2  0  0  0  0  0  0  0  0  0
   12.6429  -18.5889   24.2518 N   0  0  0  0  0  0  0  0  0  0  0  0
   11.3960  -18.5617   23.4523 C   0  0  0  0  0  0  0  0  0  0  0  0
   13.7216  -18.9712   23.3343 O   0  0  0  0  0  0  0  0  0  0  0  0
   15.0412  -18.9651   23.7219 O   0  0  0  0  0  0  0  0  0  0  0  0
  2  1  1  1
  2 10  1  0
  3  2  1  0
  4  3  1  0
  4  5  2  0
  6  5  1  0
  7  6  2  0
  8  9  2  0
  8  7  1  0
  9  4  1  0
 10 20  1  0
 10 11  2  0
 13 12  1  0
 13 14  2  0
 15 13  1  0
 16 15  1  0
 16 17  1  0
 17 18  1  0
 19 18  1  6
 20 19  1  0
 21 19  1  0
 21 29  1  0
 22 21  2  0
 23 24  1  0
 24 25  2  0
 26 24  1  0
 26 27  1  0
 28 27  1  1
 28 29  1  0
 28 30  1  0
 30 31  1  0
 32 30  2  0
M  END
$$$$
