FRQ.pdb
     RDKit          3D

 32 32  0  0  1  0  0  0  0  0999 V2000
    6.5705  -16.4669   26.4580 N   0  0  0  0  0  0  0  0  0  0  0  0
    6.8660  -15.8468   25.2053 C   0  0  1  0  0  0  0  0  0  0  0  0
    7.8002  -14.6820   25.4445 C   0  0  0  0  0  0  0  0  0  0  0  0
    7.1009  -13.5301   26.0503 C   0  0  0  0  0  0  0  0  0  0  0  0
    7.8104  -12.6148   26.7841 C   0  0  0  0  0  0  0  0  0  0  0  0
    7.1595  -11.5294   27.3563 C   0  0  0  0  0  0  0  0  0  0  0  0
    5.8051  -11.3452   27.2053 C   0  0  0  0  0  0  0  0  0  0  0  0
    5.0894  -12.2561   26.4733 C   0  0  0  0  0  0  0  0  0  0  0  0
    5.7437  -13.3316   25.9081 C   0  0  0  0  0  0  0  0  0  0  0  0
    7.4108  -16.7937   24.2047 C   0  0  0  0  0  0  0  0  0  0  0  0
    7.7346  -17.9739   24.5350 O   0  0  0  0  0  0  0  0  0  0  0  0
    9.1061  -13.6739   17.5210 N   0  0  0  0  0  0  0  0  0  0  0  0
    8.7651  -12.8462   18.6254 C   0  0  0  0  0  0  0  0  0  0  0  0
    9.3880  -11.7165   18.7285 N   0  0  0  0  0  0  0  0  0  0  0  0
    7.7932  -13.2167   19.5818 N   0  0  0  0  0  0  0  0  0  0  0  0
    7.5826  -14.6069   19.8924 C   0  0  0  0  0  0  0  0  0  0  0  0
    8.8970  -15.2825   20.2959 C   0  0  0  0  0  0  0  0  0  0  0  0
    8.5823  -16.7412   20.5740 C   0  0  0  0  0  0  0  0  0  0  0  0
    8.6325  -17.0753   22.0310 C   0  0  2  0  0  0  0  0  0  0  0  0
    7.6187  -16.4975   22.8357 N   0  0  0  0  0  0  0  0  0  0  0  0
   10.0170  -16.8469   22.4932 C   0  0  0  0  0  0  0  0  0  0  0  0
   10.5421  -15.7130   22.3732 O   0  0  0  0  0  0  0  0  0  0  0  0
    9.2197  -11.1061   19.5442 N   0  0  0  0  0  0  0  0  0  0  0  0
   12.7662  -19.2537   27.3798 C   0  0  0  0  0  0  0  0  0  0  0  0
   11.4834  -18.7347   27.1211 O   0  0  0  0  0  0  0  0  0  0  0  0
   10.5584  -18.9263   27.9272 C   0  0  0  0  0  0  0  0  0  0  0  0
   11.2296  -17.9542   25.8799 C   0  0  0  0  0  0  0  0  0  0  0  0
   12.3710  -18.1741   24.9319 C   0  0  2  0  0  0  0  0  0  0  0  0
   12.1723  -17.5324   23.5992 N   0  0  0  0  0  0  0  0  0  0  0  0
   10.8215  -17.8541   23.0830 C   0  0  0  0  0  0  0  0  0  0  0  0
   13.1300  -18.0150   22.5985 O   0  0  0  0  0  0  0  0  0  0  0  0
   14.4854  -17.8300   22.7416 O   0  0  0  0  0  0  0  0  0  0  0  0
  2  1  1  1
  2 10  1  0
  3  2  1  0
  4  3  1  0
  4  5  2  0
  6  5  1  0
  7  6  2  0
  8  9  2  0
  8  7  1  0
  9  4  1  0
 10 20  1  0
 10 11  2  0
 13 12  1  0
 13 14  2  0
 15 13  1  0
 16 15  1  0
 16 17  1  0
 17 18  1  0
 19 18  1  6
 20 19  1  0
 21 19  1  0
 21 29  1  0
 22 21  2  0
 23 24  1  0
 24 25  2  0
 26 24  1  0
 26 27  1  0
 28 27  1  1
 28 29  1  0
 28 30  1  0
 30 31  1  0
 32 30  2  0
M  END
$$$$
