FRQ.pdb
     RDKit          3D

 32 32  0  0  1  0  0  0  0  0999 V2000
    8.3035  -17.5791   26.5544 N   0  0  0  0  0  0  0  0  0  0  0  0
    8.5401  -16.3778   25.8184 C   0  0  1  0  0  0  0  0  0  0  0  0
    9.9162  -15.8550   26.1646 C   0  0  0  0  0  0  0  0  0  0  0  0
    9.9157  -15.1015   27.4356 C   0  0  0  0  0  0  0  0  0  0  0  0
    9.2552  -13.9026   27.5135 C   0  0  0  0  0  0  0  0  0  0  0  0
    9.2505  -13.1891   28.7052 C   0  0  0  0  0  0  0  0  0  0  0  0
    9.8987  -13.6581   29.8237 C   0  0  0  0  0  0  0  0  0  0  0  0
   10.5611  -14.8556   29.7531 C   0  0  0  0  0  0  0  0  0  0  0  0
   10.5609  -15.5583   28.5655 C   0  0  0  0  0  0  0  0  0  0  0  0
    8.3679  -16.5506   24.3572 C   0  0  0  0  0  0  0  0  0  0  0  0
    8.6696  -17.6443   23.7917 O   0  0  0  0  0  0  0  0  0  0  0  0
    9.7048  -13.8341   17.7290 N   0  0  0  0  0  0  0  0  0  0  0  0
    8.4830  -13.4463   17.1144 C   0  0  0  0  0  0  0  0  0  0  0  0
    8.4623  -13.4043   15.8210 N   0  0  0  0  0  0  0  0  0  0  0  0
    7.3284  -13.1165   17.8591 N   0  0  0  0  0  0  0  0  0  0  0  0
    7.4037  -13.0072   19.2929 C   0  0  0  0  0  0  0  0  0  0  0  0
    8.0306  -14.2638   19.9051 C   0  0  0  0  0  0  0  0  0  0  0  0
    7.6903  -14.2572   21.3845 C   0  0  0  0  0  0  0  0  0  0  0  0
    8.1981  -15.4688   22.0993 C   0  0  2  0  0  0  0  0  0  0  0  0
    7.8710  -15.5603   23.4755 N   0  0  0  0  0  0  0  0  0  0  0  0
    9.6333  -15.6072   21.7776 C   0  0  0  0  0  0  0  0  0  0  0  0
   10.5020  -15.1771   22.5752 O   0  0  0  0  0  0  0  0  0  0  0  0
    7.5868  -13.1714   15.3255 N   0  0  0  0  0  0  0  0  0  0  0  0
   12.9866  -20.7393   22.4306 C   0  0  0  0  0  0  0  0  0  0  0  0
   13.2502  -19.3618   22.5522 O   0  0  0  0  0  0  0  0  0  0  0  0
   13.6445  -18.8948   23.6331 C   0  0  0  0  0  0  0  0  0  0  0  0
   13.0574  -18.4585   21.3855 C   0  0  0  0  0  0  0  0  0  0  0  0
   11.7506  -17.7396   21.5450 C   0  0  1  0  0  0  0  0  0  0  0  0
   11.5116  -16.6974   20.5039 N   0  0  0  0  0  0  0  0  0  0  0  0
   10.1143  -16.2129   20.5895 C   0  0  0  0  0  0  0  0  0  0  0  0
   11.6939  -17.2148   19.1434 O   0  0  0  0  0  0  0  0  0  0  0  0
   12.9284  -17.5928   18.6694 O   0  0  0  0  0  0  0  0  0  0  0  0
  2  1  1  1
  2 10  1  0
  3  2  1  0
  4  3  1  0
  4  5  2  0
  6  5  1  0
  7  6  2  0
  8  9  2  0
  8  7  1  0
  9  4  1  0
 10 20  1  0
 10 11  2  0
 13 12  1  0
 13 14  2  0
 15 13  1  0
 16 15  1  0
 16 17  1  0
 17 18  1  0
 19 18  1  1
 20 19  1  0
 21 19  1  0
 21 29  1  0
 22 21  2  0
 23 24  1  0
 24 25  2  0
 26 24  1  0
 26 27  1  0
 28 27  1  1
 28 29  1  0
 28 30  1  0
 30 31  1  0
 32 30  2  0
M  END
$$$$
