FRQ.pdb
     RDKit          3D

 32 32  0  0  1  0  0  0  0  0999 V2000
    5.8810  -18.0725   24.8784 N   0  0  0  0  0  0  0  0  0  0  0  0
    6.2347  -16.6891   24.9224 C   0  0  1  0  0  0  0  0  0  0  0  0
    6.6601  -16.3375   26.3303 C   0  0  0  0  0  0  0  0  0  0  0  0
    6.9753  -14.9005   26.4681 C   0  0  0  0  0  0  0  0  0  0  0  0
    5.9569  -13.9913   26.5929 C   0  0  0  0  0  0  0  0  0  0  0  0
    6.2460  -12.6389   26.7231 C   0  0  0  0  0  0  0  0  0  0  0  0
    7.5427  -12.1810   26.7302 C   0  0  0  0  0  0  0  0  0  0  0  0
    8.5658  -13.0840   26.6057 C   0  0  0  0  0  0  0  0  0  0  0  0
    8.2700  -14.4258   26.4769 C   0  0  0  0  0  0  0  0  0  0  0  0
    7.2693  -16.3240   23.9269 C   0  0  0  0  0  0  0  0  0  0  0  0
    8.2870  -17.0580   23.7477 O   0  0  0  0  0  0  0  0  0  0  0  0
    7.8103  -13.1166   15.5583 N   0  0  0  0  0  0  0  0  0  0  0  0
    8.1651  -13.9807   16.6300 C   0  0  0  0  0  0  0  0  0  0  0  0
    8.3958  -15.2197   16.3353 N   0  0  0  0  0  0  0  0  0  0  0  0
    8.2681  -13.5324   17.9660 N   0  0  0  0  0  0  0  0  0  0  0  0
    8.1015  -14.4629   19.0521 C   0  0  0  0  0  0  0  0  0  0  0  0
    7.1415  -13.9054   20.1077 C   0  0  0  0  0  0  0  0  0  0  0  0
    7.9664  -13.6002   21.3449 C   0  0  0  0  0  0  0  0  0  0  0  0
    8.2399  -14.8164   22.1713 C   0  0  2  0  0  0  0  0  0  0  0  0
    7.2350  -15.1705   23.1062 N   0  0  0  0  0  0  0  0  0  0  0  0
    9.6029  -14.6816   22.7251 C   0  0  0  0  0  0  0  0  0  0  0  0
    9.8153  -13.9150   23.6961 O   0  0  0  0  0  0  0  0  0  0  0  0
    8.6219  -15.8952   17.0828 N   0  0  0  0  0  0  0  0  0  0  0  0
   10.2651  -17.9728   26.3247 C   0  0  0  0  0  0  0  0  0  0  0  0
   11.6699  -17.9259   26.2483 O   0  0  0  0  0  0  0  0  0  0  0  0
   12.3612  -18.4857   27.1148 C   0  0  0  0  0  0  0  0  0  0  0  0
   12.3335  -17.2047   25.1286 C   0  0  0  0  0  0  0  0  0  0  0  0
   11.2763  -16.6137   24.2438 C   0  0  1  0  0  0  0  0  0  0  0  0
   11.8249  -15.7971   23.1216 N   0  0  0  0  0  0  0  0  0  0  0  0
   10.7264  -15.3821   22.2184 C   0  0  0  0  0  0  0  0  0  0  0  0
   12.7823  -16.5468   22.3012 O   0  0  0  0  0  0  0  0  0  0  0  0
   12.5016  -16.9066   21.0037 O   0  0  0  0  0  0  0  0  0  0  0  0
  2  1  1  1
  2 10  1  0
  3  2  1  0
  4  3  1  0
  4  5  2  0
  6  5  1  0
  7  6  2  0
  8  9  2  0
  8  7  1  0
  9  4  1  0
 10 20  1  0
 10 11  2  0
 13 12  1  0
 13 14  2  0
 15 13  1  0
 16 15  1  0
 16 17  1  0
 17 18  1  0
 19 18  1  1
 20 19  1  0
 21 19  1  0
 21 29  1  0
 22 21  2  0
 23 24  1  0
 24 25  2  0
 26 24  1  0
 26 27  1  0
 28 27  1  1
 28 29  1  0
 28 30  1  0
 30 31  1  0
 32 30  2  0
M  END
$$$$
