FRQ.pdb
     RDKit          3D

 32 32  0  0  1  0  0  0  0  0999 V2000
    7.2845  -16.1102   26.6154 N   0  0  0  0  0  0  0  0  0  0  0  0
    6.4434  -16.2161   25.4654 C   0  0  1  0  0  0  0  0  0  0  0  0
    5.5511  -14.9971   25.3980 C   0  0  0  0  0  0  0  0  0  0  0  0
    6.1454  -13.8398   26.0986 C   0  0  0  0  0  0  0  0  0  0  0  0
    5.7005  -13.5029   27.3508 C   0  0  0  0  0  0  0  0  0  0  0  0
    6.2548  -12.4163   28.0152 C   0  0  0  0  0  0  0  0  0  0  0  0
    7.2505  -11.6591   27.4440 C   0  0  0  0  0  0  0  0  0  0  0  0
    7.7000  -11.9898   26.1924 C   0  0  0  0  0  0  0  0  0  0  0  0
    7.1441  -13.0708   25.5392 C   0  0  0  0  0  0  0  0  0  0  0  0
    7.2029  -16.4133   24.2088 C   0  0  0  0  0  0  0  0  0  0  0  0
    7.1901  -17.5303   23.6098 O   0  0  0  0  0  0  0  0  0  0  0  0
    8.3950  -12.3647   17.0825 N   0  0  0  0  0  0  0  0  0  0  0  0
    8.3330  -13.7845   17.0464 C   0  0  0  0  0  0  0  0  0  0  0  0
    8.8769  -14.3716   16.0293 N   0  0  0  0  0  0  0  0  0  0  0  0
    7.7115  -14.5445   18.0625 N   0  0  0  0  0  0  0  0  0  0  0  0
    8.5105  -15.3481   18.9508 C   0  0  0  0  0  0  0  0  0  0  0  0
    9.0979  -14.4958   20.0802 C   0  0  0  0  0  0  0  0  0  0  0  0
    8.1367  -14.5832   21.2518 C   0  0  0  0  0  0  0  0  0  0  0  0
    8.5797  -15.5640   22.2905 C   0  0  2  0  0  0  0  0  0  0  0  0
    7.9877  -15.4224   23.5706 N   0  0  0  0  0  0  0  0  0  0  0  0
   10.0566  -15.5940   22.2740 C   0  0  0  0  0  0  0  0  0  0  0  0
   10.7112  -14.7497   22.9331 O   0  0  0  0  0  0  0  0  0  0  0  0
    8.9725  -15.3997   16.0161 N   0  0  0  0  0  0  0  0  0  0  0  0
   13.7243  -20.7416   24.5178 C   0  0  0  0  0  0  0  0  0  0  0  0
   13.3876  -20.3018   23.2236 O   0  0  0  0  0  0  0  0  0  0  0  0
   12.9920  -21.1140   22.3716 C   0  0  0  0  0  0  0  0  0  0  0  0
   13.5047  -18.8611   22.8701 C   0  0  0  0  0  0  0  0  0  0  0  0
   12.1783  -18.3822   22.3590 C   0  0  2  0  0  0  0  0  0  0  0  0
   12.1676  -16.9363   21.9897 N   0  0  0  0  0  0  0  0  0  0  0  0
   10.8121  -16.5427   21.5398 C   0  0  0  0  0  0  0  0  0  0  0  0
   13.0811  -16.6359   20.8821 O   0  0  0  0  0  0  0  0  0  0  0  0
   14.4115  -16.3576   21.0928 O   0  0  0  0  0  0  0  0  0  0  0  0
  2  1  1  1
  2 10  1  0
  3  2  1  0
  4  3  1  0
  4  5  2  0
  6  5  1  0
  7  6  2  0
  8  9  2  0
  8  7  1  0
  9  4  1  0
 10 20  1  0
 10 11  2  0
 13 12  1  0
 13 14  2  0
 15 13  1  0
 16 15  1  0
 16 17  1  0
 17 18  1  0
 19 18  1  6
 20 19  1  0
 21 19  1  0
 21 29  1  0
 22 21  2  0
 23 24  1  0
 24 25  2  0
 26 24  1  0
 26 27  1  0
 28 27  1  1
 28 29  1  0
 28 30  1  0
 30 31  1  0
 32 30  2  0
M  END
$$$$
