FRQ.pdb
     RDKit          3D

 32 32  0  0  1  0  0  0  0  0999 V2000
    5.6885  -17.9974   25.0665 N   0  0  0  0  0  0  0  0  0  0  0  0
    6.2406  -16.6800   25.0479 C   0  0  1  0  0  0  0  0  0  0  0  0
    6.7216  -16.3315   26.4386 C   0  0  0  0  0  0  0  0  0  0  0  0
    7.0008  -14.8874   26.5794 C   0  0  0  0  0  0  0  0  0  0  0  0
    8.2956  -14.4560   26.7094 C   0  0  0  0  0  0  0  0  0  0  0  0
    8.5653  -13.0999   26.8419 C   0  0  0  0  0  0  0  0  0  0  0  0
    7.5561  -12.1658   26.8466 C   0  0  0  0  0  0  0  0  0  0  0  0
    6.2594  -12.5897   26.7173 C   0  0  0  0  0  0  0  0  0  0  0  0
    6.0000  -13.9387   26.5860 C   0  0  0  0  0  0  0  0  0  0  0  0
    7.3110  -16.5149   24.0371 C   0  0  0  0  0  0  0  0  0  0  0  0
    8.1632  -17.4316   23.8369 O   0  0  0  0  0  0  0  0  0  0  0  0
    9.4319  -14.5469   18.1010 N   0  0  0  0  0  0  0  0  0  0  0  0
    8.4624  -13.7216   17.4688 C   0  0  0  0  0  0  0  0  0  0  0  0
    8.7125  -13.3424   16.2568 N   0  0  0  0  0  0  0  0  0  0  0  0
    7.2707  -13.3188   18.1123 N   0  0  0  0  0  0  0  0  0  0  0  0
    7.2902  -12.9676   19.5086 C   0  0  0  0  0  0  0  0  0  0  0  0
    7.3349  -14.2215   20.3875 C   0  0  0  0  0  0  0  0  0  0  0  0
    8.4562  -14.0235   21.3914 C   0  0  0  0  0  0  0  0  0  0  0  0
    8.5849  -15.1671   22.3467 C   0  0  2  0  0  0  0  0  0  0  0  0
    7.4897  -15.3698   23.2235 N   0  0  0  0  0  0  0  0  0  0  0  0
    9.9069  -15.0579   22.9971 C   0  0  0  0  0  0  0  0  0  0  0  0
   10.0114  -14.5156   24.1243 O   0  0  0  0  0  0  0  0  0  0  0  0
    8.0679  -12.6962   15.7740 N   0  0  0  0  0  0  0  0  0  0  0  0
   13.2062  -17.4157   27.3048 C   0  0  0  0  0  0  0  0  0  0  0  0
   12.3204  -17.9179   26.3328 O   0  0  0  0  0  0  0  0  0  0  0  0
   11.2113  -18.3635   26.6698 C   0  0  0  0  0  0  0  0  0  0  0  0
   12.7091  -17.9175   24.8964 C   0  0  0  0  0  0  0  0  0  0  0  0
   11.6527  -17.1966   24.1127 C   0  0  1  0  0  0  0  0  0  0  0  0
   12.1878  -16.0889   23.2678 N   0  0  0  0  0  0  0  0  0  0  0  0
   11.1071  -15.5395   22.4163 C   0  0  0  0  0  0  0  0  0  0  0  0
   13.2482  -16.5407   22.3605 O   0  0  0  0  0  0  0  0  0  0  0  0
   12.9753  -16.9820   21.0868 O   0  0  0  0  0  0  0  0  0  0  0  0
  2  1  1  1
  2 10  1  0
  3  2  1  0
  4  3  1  0
  4  5  2  0
  6  5  1  0
  7  6  2  0
  8  9  2  0
  8  7  1  0
  9  4  1  0
 10 20  1  0
 10 11  2  0
 13 12  1  0
 13 14  2  0
 15 13  1  0
 16 15  1  0
 16 17  1  0
 17 18  1  0
 19 18  1  1
 20 19  1  0
 21 19  1  0
 21 29  1  0
 22 21  2  0
 23 24  1  0
 24 25  2  0
 26 24  1  0
 26 27  1  0
 28 27  1  1
 28 29  1  0
 28 30  1  0
 30 31  1  0
 32 30  2  0
M  END
$$$$
