FRQ.pdb
     RDKit          3D

 32 32  0  0  1  0  0  0  0  0999 V2000
    6.1247  -16.4044   26.2475 N   0  0  0  0  0  0  0  0  0  0  0  0
    6.6968  -15.4254   25.3784 C   0  0  1  0  0  0  0  0  0  0  0  0
    7.5749  -14.5020   26.1926 C   0  0  0  0  0  0  0  0  0  0  0  0
    6.8737  -13.2533   26.5562 C   0  0  0  0  0  0  0  0  0  0  0  0
    6.5892  -12.9931   27.8718 C   0  0  0  0  0  0  0  0  0  0  0  0
    5.9304  -11.8211   28.2207 C   0  0  0  0  0  0  0  0  0  0  0  0
    5.5506  -10.9025   27.2704 C   0  0  0  0  0  0  0  0  0  0  0  0
    5.8316  -11.1560   25.9533 C   0  0  0  0  0  0  0  0  0  0  0  0
    6.4864  -12.3227   25.6151 C   0  0  0  0  0  0  0  0  0  0  0  0
    7.4317  -16.0218   24.2387 C   0  0  0  0  0  0  0  0  0  0  0  0
    8.1484  -17.0554   24.3964 O   0  0  0  0  0  0  0  0  0  0  0  0
    7.2990  -13.2944   17.7415 N   0  0  0  0  0  0  0  0  0  0  0  0
    8.3923  -13.8074   16.9917 C   0  0  0  0  0  0  0  0  0  0  0  0
    8.8636  -13.0561   16.0491 N   0  0  0  0  0  0  0  0  0  0  0  0
    8.9579  -15.0775   17.2438 N   0  0  0  0  0  0  0  0  0  0  0  0
    8.5232  -15.8458   18.3814 C   0  0  0  0  0  0  0  0  0  0  0  0
    9.3310  -15.4789   19.6302 C   0  0  0  0  0  0  0  0  0  0  0  0
    8.3406  -15.0107   20.6811 C   0  0  0  0  0  0  0  0  0  0  0  0
    8.3687  -15.8526   21.9170 C   0  0  2  0  0  0  0  0  0  0  0  0
    7.4140  -15.5258   22.9126 N   0  0  0  0  0  0  0  0  0  0  0  0
    9.7703  -15.9190   22.3792 C   0  0  0  0  0  0  0  0  0  0  0  0
   10.3210  -14.9027   22.8687 O   0  0  0  0  0  0  0  0  0  0  0  0
    9.6123  -13.4096   15.4320 N   0  0  0  0  0  0  0  0  0  0  0  0
   12.7629  -20.7785   24.6543 C   0  0  0  0  0  0  0  0  0  0  0  0
   13.8726  -19.9409   24.4336 O   0  0  0  0  0  0  0  0  0  0  0  0
   15.0189  -20.3430   24.6910 C   0  0  0  0  0  0  0  0  0  0  0  0
   13.6770  -18.5692   23.8911 C   0  0  0  0  0  0  0  0  0  0  0  0
   12.2623  -18.4398   23.4097 C   0  0  1  0  0  0  0  0  0  0  0  0
   11.9471  -17.0985   22.8362 N   0  0  0  0  0  0  0  0  0  0  0  0
   10.5640  -17.0913   22.3056 C   0  0  0  0  0  0  0  0  0  0  0  0
   12.8280  -16.7487   21.7166 O   0  0  0  0  0  0  0  0  0  0  0  0
   13.9890  -16.0348   21.9014 O   0  0  0  0  0  0  0  0  0  0  0  0
  2  1  1  1
  2 10  1  0
  3  2  1  0
  4  3  1  0
  4  5  2  0
  6  5  1  0
  7  6  2  0
  8  9  2  0
  8  7  1  0
  9  4  1  0
 10 20  1  0
 10 11  2  0
 13 12  1  0
 13 14  2  0
 15 13  1  0
 16 15  1  0
 16 17  1  0
 17 18  1  0
 19 18  1  6
 20 19  1  0
 21 19  1  0
 21 29  1  0
 22 21  2  0
 23 24  1  0
 24 25  2  0
 26 24  1  0
 26 27  1  0
 28 27  1  1
 28 29  1  0
 28 30  1  0
 30 31  1  0
 32 30  2  0
M  END
$$$$
