FRQ.pdb
     RDKit          3D

 32 32  0  0  1  0  0  0  0  0999 V2000
    5.8897  -18.0910   25.9320 N   0  0  0  0  0  0  0  0  0  0  0  0
    6.3042  -16.7476   25.6783 C   0  0  1  0  0  0  0  0  0  0  0  0
    6.6611  -16.0895   26.9922 C   0  0  0  0  0  0  0  0  0  0  0  0
    6.7801  -14.6227   26.8594 C   0  0  0  0  0  0  0  0  0  0  0  0
    8.0121  -14.0298   26.9600 C   0  0  0  0  0  0  0  0  0  0  0  0
    8.1312  -12.6515   26.8359 C   0  0  0  0  0  0  0  0  0  0  0  0
    7.0330  -11.8547   26.6122 C   0  0  0  0  0  0  0  0  0  0  0  0
    5.7982  -12.4404   26.5107 C   0  0  0  0  0  0  0  0  0  0  0  0
    5.6886  -13.8104   26.6351 C   0  0  0  0  0  0  0  0  0  0  0  0
    7.4119  -16.6586   24.6986 C   0  0  0  0  0  0  0  0  0  0  0  0
    8.3660  -17.4930   24.7183 O   0  0  0  0  0  0  0  0  0  0  0  0
    8.0518  -14.8856   17.4629 N   0  0  0  0  0  0  0  0  0  0  0  0
    8.0538  -13.5339   17.9031 C   0  0  0  0  0  0  0  0  0  0  0  0
    8.7226  -12.6843   17.1917 N   0  0  0  0  0  0  0  0  0  0  0  0
    7.3648  -13.1105   19.0617 N   0  0  0  0  0  0  0  0  0  0  0  0
    6.7349  -14.0807   19.9192 C   0  0  0  0  0  0  0  0  0  0  0  0
    7.7435  -15.1352   20.3856 C   0  0  0  0  0  0  0  0  0  0  0  0
    8.4021  -14.5979   21.6433 C   0  0  0  0  0  0  0  0  0  0  0  0
    8.5489  -15.6380   22.7080 C   0  0  2  0  0  0  0  0  0  0  0  0
    7.5199  -15.6788   23.6821 N   0  0  0  0  0  0  0  0  0  0  0  0
    9.9234  -15.5397   23.2405 C   0  0  0  0  0  0  0  0  0  0  0  0
   10.2540  -14.5614   23.9542 O   0  0  0  0  0  0  0  0  0  0  0  0
    8.6862  -11.6778   17.4193 N   0  0  0  0  0  0  0  0  0  0  0  0
   13.5906  -19.7774   25.4667 C   0  0  0  0  0  0  0  0  0  0  0  0
   12.4371  -19.1717   25.9998 O   0  0  0  0  0  0  0  0  0  0  0  0
   11.8550  -19.6836   26.9700 C   0  0  0  0  0  0  0  0  0  0  0  0
   11.9094  -17.9149   25.4029 C   0  0  0  0  0  0  0  0  0  0  0  0
   12.7536  -17.5548   24.2164 C   0  0  2  0  0  0  0  0  0  0  0  0
   12.3023  -16.3164   23.5165 N   0  0  0  0  0  0  0  0  0  0  0  0
   10.9298  -16.5070   22.9928 C   0  0  0  0  0  0  0  0  0  0  0  0
   13.1488  -15.9857   22.3651 O   0  0  0  0  0  0  0  0  0  0  0  0
   14.4405  -15.5385   22.5176 O   0  0  0  0  0  0  0  0  0  0  0  0
  2  1  1  1
  2 10  1  0
  3  2  1  0
  4  3  1  0
  4  5  2  0
  6  5  1  0
  7  6  2  0
  8  9  2  0
  8  7  1  0
  9  4  1  0
 10 20  1  0
 10 11  2  0
 13 12  1  0
 13 14  2  0
 15 13  1  0
 16 15  1  0
 16 17  1  0
 17 18  1  0
 19 18  1  6
 20 19  1  0
 21 19  1  0
 21 29  1  0
 22 21  2  0
 23 24  1  0
 24 25  2  0
 26 24  1  0
 26 27  1  0
 28 27  1  1
 28 29  1  0
 28 30  1  0
 30 31  1  0
 32 30  2  0
M  END
$$$$
