FRQ.pdb
     RDKit          3D

 32 32  0  0  1  0  0  0  0  0999 V2000
    5.5330  -17.8858   25.2739 N   0  0  0  0  0  0  0  0  0  0  0  0
    6.1117  -16.5842   25.1654 C   0  0  1  0  0  0  0  0  0  0  0  0
    6.3755  -16.0488   26.5548 C   0  0  0  0  0  0  0  0  0  0  0  0
    6.7747  -14.6264   26.5307 C   0  0  0  0  0  0  0  0  0  0  0  0
    8.0891  -14.2870   26.7230 C   0  0  0  0  0  0  0  0  0  0  0  0
    8.4714  -12.9519   26.7014 C   0  0  0  0  0  0  0  0  0  0  0  0
    7.5559  -11.9478   26.4897 C   0  0  0  0  0  0  0  0  0  0  0  0
    6.2404  -12.2795   26.2969 C   0  0  0  0  0  0  0  0  0  0  0  0
    5.8688  -13.6083   26.3199 C   0  0  0  0  0  0  0  0  0  0  0  0
    7.3317  -16.5612   24.3253 C   0  0  0  0  0  0  0  0  0  0  0  0
    8.2090  -17.4704   24.4276 O   0  0  0  0  0  0  0  0  0  0  0  0
    7.0621  -13.7332   15.8049 N   0  0  0  0  0  0  0  0  0  0  0  0
    7.7643  -13.5255   17.0234 C   0  0  0  0  0  0  0  0  0  0  0  0
    8.1035  -12.3092   17.3072 N   0  0  0  0  0  0  0  0  0  0  0  0
    8.0896  -14.5823   17.9032 N   0  0  0  0  0  0  0  0  0  0  0  0
    8.8290  -14.3130   19.1090 C   0  0  0  0  0  0  0  0  0  0  0  0
    8.0515  -14.7806   20.3434 C   0  0  0  0  0  0  0  0  0  0  0  0
    8.9033  -14.4559   21.5572 C   0  0  0  0  0  0  0  0  0  0  0  0
    8.8361  -15.5158   22.6103 C   0  0  2  0  0  0  0  0  0  0  0  0
    7.6356  -15.5685   23.3623 N   0  0  0  0  0  0  0  0  0  0  0  0
   10.0793  -15.4347   23.4043 C   0  0  0  0  0  0  0  0  0  0  0  0
   10.3363  -14.4009   24.0683 O   0  0  0  0  0  0  0  0  0  0  0  0
    8.6637  -12.1126   18.1521 N   0  0  0  0  0  0  0  0  0  0  0  0
   12.8755  -19.4218   26.8724 C   0  0  0  0  0  0  0  0  0  0  0  0
   11.7771  -18.5806   27.1320 O   0  0  0  0  0  0  0  0  0  0  0  0
   11.0050  -18.8341   28.0710 C   0  0  0  0  0  0  0  0  0  0  0  0
   11.5356  -17.3833   26.2820 C   0  0  0  0  0  0  0  0  0  0  0  0
   12.5346  -17.3788   25.1631 C   0  0  2  0  0  0  0  0  0  0  0  0
   12.3218  -16.2788   24.1772 N   0  0  0  0  0  0  0  0  0  0  0  0
   11.0353  -16.4794   23.4705 C   0  0  0  0  0  0  0  0  0  0  0  0
   13.3654  -16.2424   23.1470 O   0  0  0  0  0  0  0  0  0  0  0  0
   14.6666  -15.9090   23.4426 O   0  0  0  0  0  0  0  0  0  0  0  0
  2  1  1  1
  2 10  1  0
  3  2  1  0
  4  3  1  0
  4  5  2  0
  6  5  1  0
  7  6  2  0
  8  9  2  0
  8  7  1  0
  9  4  1  0
 10 20  1  0
 10 11  2  0
 13 12  1  0
 13 14  2  0
 15 13  1  0
 16 15  1  0
 16 17  1  0
 17 18  1  0
 19 18  1  6
 20 19  1  0
 21 19  1  0
 21 29  1  0
 22 21  2  0
 23 24  1  0
 24 25  2  0
 26 24  1  0
 26 27  1  0
 28 27  1  1
 28 29  1  0
 28 30  1  0
 30 31  1  0
 32 30  2  0
M  END
$$$$
