FRQ.pdb
     RDKit          3D

 32 32  0  0  1  0  0  0  0  0999 V2000
    8.2650  -17.5911   26.9550 N   0  0  0  0  0  0  0  0  0  0  0  0
    8.3376  -16.5288   26.0026 C   0  0  1  0  0  0  0  0  0  0  0  0
    9.6629  -15.8182   26.1624 C   0  0  0  0  0  0  0  0  0  0  0  0
    9.7245  -15.0431   27.4189 C   0  0  0  0  0  0  0  0  0  0  0  0
    9.0261  -13.8683   27.5265 C   0  0  0  0  0  0  0  0  0  0  0  0
    9.0794  -13.1347   28.7047 C   0  0  0  0  0  0  0  0  0  0  0  0
    9.8233  -13.5598   29.7803 C   0  0  0  0  0  0  0  0  0  0  0  0
   10.5242  -14.7330   29.6799 C   0  0  0  0  0  0  0  0  0  0  0  0
   10.4659  -15.4559   28.5059 C   0  0  0  0  0  0  0  0  0  0  0  0
    8.1211  -16.9842   24.6096 C   0  0  0  0  0  0  0  0  0  0  0  0
    8.4900  -18.1386   24.2381 O   0  0  0  0  0  0  0  0  0  0  0  0
    9.1650  -12.9579   17.0918 N   0  0  0  0  0  0  0  0  0  0  0  0
    9.1628  -13.0400   18.5110 C   0  0  0  0  0  0  0  0  0  0  0  0
   10.3116  -13.1578   19.0954 N   0  0  0  0  0  0  0  0  0  0  0  0
    7.9739  -12.9974   19.2733 N   0  0  0  0  0  0  0  0  0  0  0  0
    7.0318  -14.0838   19.1985 C   0  0  0  0  0  0  0  0  0  0  0  0
    7.5738  -15.3279   19.9093 C   0  0  0  0  0  0  0  0  0  0  0  0
    7.4678  -15.0713   21.4017 C   0  0  0  0  0  0  0  0  0  0  0  0
    7.8725  -16.2551   22.2214 C   0  0  2  0  0  0  0  0  0  0  0  0
    7.5074  -16.2161   23.5905 N   0  0  0  0  0  0  0  0  0  0  0  0
    9.3016  -16.5156   21.9529 C   0  0  0  0  0  0  0  0  0  0  0  0
   10.1838  -15.8019   22.4897 O   0  0  0  0  0  0  0  0  0  0  0  0
   10.3637  -13.2209   20.1248 N   0  0  0  0  0  0  0  0  0  0  0  0
   12.6816  -14.4901   17.8098 C   0  0  0  0  0  0  0  0  0  0  0  0
   13.2056  -14.7887   19.0818 O   0  0  0  0  0  0  0  0  0  0  0  0
   13.8605  -13.9358   19.7029 C   0  0  0  0  0  0  0  0  0  0  0  0
   12.9773  -16.1282   19.6883 C   0  0  0  0  0  0  0  0  0  0  0  0
   11.5204  -16.2646   20.0182 C   0  0  1  0  0  0  0  0  0  0  0  0
   11.1689  -17.5758   20.6382 N   0  0  0  0  0  0  0  0  0  0  0  0
    9.7619  -17.5514   21.1014 C   0  0  0  0  0  0  0  0  0  0  0  0
   11.9927  -17.8764   21.8141 O   0  0  0  0  0  0  0  0  0  0  0  0
   12.1020  -19.1516   22.3177 O   0  0  0  0  0  0  0  0  0  0  0  0
  2  1  1  1
  2 10  1  0
  3  2  1  0
  4  3  1  0
  4  5  2  0
  6  5  1  0
  7  6  2  0
  8  9  2  0
  8  7  1  0
  9  4  1  0
 10 20  1  0
 10 11  2  0
 13 12  1  0
 13 14  2  0
 15 13  1  0
 16 15  1  0
 16 17  1  0
 17 18  1  0
 19 18  1  1
 20 19  1  0
 21 19  1  0
 21 29  1  0
 22 21  2  0
 23 24  1  0
 24 25  2  0
 26 24  1  0
 26 27  1  0
 28 27  1  6
 28 29  1  0
 28 30  1  0
 30 31  1  0
 32 30  2  0
M  END
$$$$
