FVK.pdb
     RDKit          3D

 28 28  0  0  1  0  0  0  0  0999 V2000
   24.4921  -17.8762  -17.7156 N   0  0  0  0  0  0  0  0  0  0  0  0
   23.9021  -18.9991  -17.0546 C   0  0  1  0  0  0  0  0  0  0  0  0
   24.9837  -20.0448  -16.8610 C   0  0  0  0  0  0  0  0  0  0  0  0
   25.3202  -20.5650  -18.2142 C   0  0  0  0  0  0  0  0  0  0  0  0
   24.4885  -21.4801  -18.8277 C   0  0  0  0  0  0  0  0  0  0  0  0
   24.7723  -21.9862  -20.0900 C   0  0  0  0  0  0  0  0  0  0  0  0
   25.9014  -21.5702  -20.7436 C   0  0  0  0  0  0  0  0  0  0  0  0
   26.7284  -20.6570  -20.1280 C   0  0  0  0  0  0  0  0  0  0  0  0
   26.4644  -20.1434  -18.8763 C   0  0  0  0  0  0  0  0  0  0  0  0
   23.2862  -18.6163  -15.7423 C   0  0  0  0  0  0  0  0  0  0  0  0
   23.9260  -17.8615  -14.9772 O   0  0  0  0  0  0  0  0  0  0  0  0
   19.5954  -17.7195  -15.6944 C   0  0  0  0  0  0  0  0  0  0  0  0
   20.5726  -17.3567  -14.5577 C   0  0  2  0  0  0  0  0  0  0  0  0
   21.4092  -16.2356  -15.0691 C   0  0  0  0  0  0  0  0  0  0  0  0
   21.3299  -18.6079  -14.1828 C   0  0  2  0  0  0  0  0  0  0  0  0
   22.0094  -19.1014  -15.3831 N   0  0  0  0  0  0  0  0  0  0  0  0
   20.5174  -19.6916  -13.6362 C   0  0  0  0  0  0  0  0  0  0  0  0
   19.8236  -20.4063  -14.4315 O   0  0  0  0  0  0  0  0  0  0  0  0
   20.4023  -20.0627  -12.2694 N   0  0  0  0  0  0  0  0  0  0  0  0
   19.5218  -21.0526  -11.7564 C   0  0  1  0  0  0  0  0  0  0  0  0
   19.5626  -21.2970  -10.2942 C   0  0  0  0  0  0  0  0  0  0  0  0
   18.6161  -22.3900   -9.8540 C   0  0  0  0  0  0  0  0  0  0  0  0
   19.3141  -23.4485   -9.0643 C   0  0  0  0  0  0  0  0  0  0  0  0
   18.3921  -24.5511   -8.5961 C   0  0  0  0  0  0  0  0  0  0  0  0
   19.0884  -25.5059   -7.7814 N   0  0  0  0  0  0  0  0  0  0  0  0
   18.1017  -20.9173  -12.2106 C   0  0  0  0  0  0  0  0  0  0  0  0
   17.4652  -22.0281  -12.7075 O   0  0  0  0  0  0  0  0  0  0  0  0
   17.5148  -19.8328  -12.1384 O   0  0  0  0  0  0  0  0  0  0  0  0
  2 10  1  0
  2  1  1  1
  3  2  1  0
  4  3  1  0
  4  9  2  0
  5  4  1  0
  6  5  2  0
  6  7  1  0
  7  8  2  0
  8  9  1  0
 10 11  2  0
 13 12  1  6
 14 13  1  0
 15 13  1  0
 15 16  1  6
 16 10  1  0
 17 18  2  0
 17 15  1  0
 19 17  1  0
 20 21  1  1
 20 19  1  0
 21 22  1  0
 23 22  1  0
 23 24  1  0
 24 25  1  0
 26 27  1  0
 26 20  1  0
 28 26  2  0
M  END
$$$$
