FVK.pdb
     RDKit          3D

 28 28  0  0  1  0  0  0  0  0999 V2000
   25.0149  -20.8874   -8.4202 N   0  0  0  0  0  0  0  0  0  0  0  0
   26.2441  -20.2739   -8.8183 C   0  0  1  0  0  0  0  0  0  0  0  0
   27.3811  -21.0900   -8.2333 C   0  0  0  0  0  0  0  0  0  0  0  0
   27.8769  -20.3404   -7.0471 C   0  0  0  0  0  0  0  0  0  0  0  0
   28.7505  -20.9444   -6.1653 C   0  0  0  0  0  0  0  0  0  0  0  0
   29.2329  -20.2739   -5.0482 C   0  0  0  0  0  0  0  0  0  0  0  0
   28.8352  -18.9847   -4.8133 C   0  0  0  0  0  0  0  0  0  0  0  0
   27.9636  -18.3858   -5.6955 C   0  0  0  0  0  0  0  0  0  0  0  0
   27.4738  -19.0341   -6.8092 C   0  0  0  0  0  0  0  0  0  0  0  0
   26.3653  -20.1788  -10.3097 C   0  0  0  0  0  0  0  0  0  0  0  0
   27.3836  -19.6387  -10.7954 O   0  0  0  0  0  0  0  0  0  0  0  0
   24.4849  -22.8087  -12.7790 C   0  0  0  0  0  0  0  0  0  0  0  0
   25.6541  -21.8966  -13.2030 C   0  0  2  0  0  0  0  0  0  0  0  0
   26.8998  -22.5829  -12.7606 C   0  0  0  0  0  0  0  0  0  0  0  0
   25.4192  -20.5333  -12.5985 C   0  0  2  0  0  0  0  0  0  0  0  0
   25.3470  -20.6905  -11.1438 N   0  0  0  0  0  0  0  0  0  0  0  0
   24.2093  -19.8492  -13.0475 C   0  0  0  0  0  0  0  0  0  0  0  0
   23.1251  -20.0207  -12.3998 O   0  0  0  0  0  0  0  0  0  0  0  0
   24.0888  -18.9785  -14.1639 N   0  0  0  0  0  0  0  0  0  0  0  0
   22.9006  -18.3087  -14.5613 C   0  0  1  0  0  0  0  0  0  0  0  0
   23.0541  -17.1516  -15.4762 C   0  0  0  0  0  0  0  0  0  0  0  0
   21.7495  -16.4373  -15.7448 C   0  0  0  0  0  0  0  0  0  0  0  0
   21.9297  -15.2714  -16.6611 C   0  0  0  0  0  0  0  0  0  0  0  0
   20.6481  -14.5146  -16.9252 C   0  0  0  0  0  0  0  0  0  0  0  0
   20.8488  -13.4605  -17.8784 N   0  0  0  0  0  0  0  0  0  0  0  0
   21.8150  -19.2113  -15.0593 C   0  0  0  0  0  0  0  0  0  0  0  0
   20.5248  -18.9663  -14.6573 O   0  0  0  0  0  0  0  0  0  0  0  0
   22.0723  -20.1530  -15.8160 O   0  0  0  0  0  0  0  0  0  0  0  0
  2 10  1  0
  2  1  1  6
  3  2  1  0
  4  3  1  0
  4  9  2  0
  5  4  1  0
  6  5  2  0
  6  7  1  0
  7  8  2  0
  8  9  1  0
 10 11  2  0
 13 12  1  1
 14 13  1  0
 15 13  1  0
 15 16  1  1
 16 10  1  0
 17 18  2  0
 17 15  1  0
 19 17  1  0
 20 21  1  6
 20 19  1  0
 21 22  1  0
 23 22  1  0
 23 24  1  0
 24 25  1  0
 26 27  1  0
 26 20  1  0
 28 26  2  0
M  END
$$$$
