FVK.pdb
     RDKit          3D

 28 28  0  0  1  0  0  0  0  0999 V2000
   25.4715  -21.2626   -7.5706 N   0  0  0  0  0  0  0  0  0  0  0  0
   25.6452  -20.4333   -8.7230 C   0  0  1  0  0  0  0  0  0  0  0  0
   27.1346  -20.2975   -8.9769 C   0  0  0  0  0  0  0  0  0  0  0  0
   27.7361  -19.7825   -7.7168 C   0  0  0  0  0  0  0  0  0  0  0  0
   27.3398  -18.5599   -7.2128 C   0  0  0  0  0  0  0  0  0  0  0  0
   27.8805  -18.0492   -6.0394 C   0  0  0  0  0  0  0  0  0  0  0  0
   28.8280  -18.7718   -5.3647 C   0  0  0  0  0  0  0  0  0  0  0  0
   29.2205  -19.9910   -5.8709 C   0  0  0  0  0  0  0  0  0  0  0  0
   28.6962  -20.5148   -7.0333 C   0  0  0  0  0  0  0  0  0  0  0  0
   24.9457  -20.9921   -9.9256 C   0  0  0  0  0  0  0  0  0  0  0  0
   25.0916  -22.2049  -10.1945 O   0  0  0  0  0  0  0  0  0  0  0  0
   21.6976  -18.9071  -11.5558 C   0  0  0  0  0  0  0  0  0  0  0  0
   21.8900  -20.4373  -11.5415 C   0  0  2  0  0  0  0  0  0  0  0  0
   21.3992  -20.9067  -10.2159 C   0  0  0  0  0  0  0  0  0  0  0  0
   23.3444  -20.7226  -11.8289 C   0  0  2  0  0  0  0  0  0  0  0  0
   24.1399  -20.1610  -10.7345 N   0  0  0  0  0  0  0  0  0  0  0  0
   23.8511  -20.1845  -13.0887 C   0  0  0  0  0  0  0  0  0  0  0  0
   24.9752  -19.5839  -13.0972 O   0  0  0  0  0  0  0  0  0  0  0  0
   23.2181  -20.2529  -14.3590 N   0  0  0  0  0  0  0  0  0  0  0  0
   23.7030  -20.9743  -15.4828 C   0  0  1  0  0  0  0  0  0  0  0  0
   24.2709  -22.3198  -15.2249 C   0  0  0  0  0  0  0  0  0  0  0  0
   24.8656  -22.9539  -16.4613 C   0  0  0  0  0  0  0  0  0  0  0  0
   25.4103  -24.3167  -16.1829 C   0  0  0  0  0  0  0  0  0  0  0  0
   25.2667  -25.2678  -17.3490 C   0  0  0  0  0  0  0  0  0  0  0  0
   25.8662  -26.5404  -17.0642 N   0  0  0  0  0  0  0  0  0  0  0  0
   22.7543  -21.0350  -16.6393 C   0  0  0  0  0  0  0  0  0  0  0  0
   23.1384  -20.4704  -17.8308 O   0  0  0  0  0  0  0  0  0  0  0  0
   21.6526  -21.5818  -16.5259 O   0  0  0  0  0  0  0  0  0  0  0  0
  2 10  1  0
  2  1  1  1
  3  2  1  0
  4  3  1  0
  4  9  2  0
  5  4  1  0
  6  5  2  0
  6  7  1  0
  7  8  2  0
  8  9  1  0
 10 11  2  0
 13 12  1  1
 14 13  1  0
 15 13  1  0
 15 16  1  1
 16 10  1  0
 17 18  2  0
 17 15  1  0
 19 17  1  0
 20 21  1  1
 20 19  1  0
 21 22  1  0
 23 22  1  0
 23 24  1  0
 24 25  1  0
 26 27  1  0
 26 20  1  0
 28 26  2  0
M  END
$$$$
