FVK.pdb
     RDKit          3D

 28 28  0  0  1  0  0  0  0  0999 V2000
   28.2792  -21.1315   -8.8026 N   0  0  0  0  0  0  0  0  0  0  0  0
   26.9090  -20.7235   -8.8502 C   0  0  1  0  0  0  0  0  0  0  0  0
   26.7622  -19.4880   -7.9825 C   0  0  0  0  0  0  0  0  0  0  0  0
   27.3193  -19.8368   -6.6473 C   0  0  0  0  0  0  0  0  0  0  0  0
   28.5414  -19.3280   -6.2556 C   0  0  0  0  0  0  0  0  0  0  0  0
   29.0907  -19.6330   -5.0165 C   0  0  0  0  0  0  0  0  0  0  0  0
   28.4076  -20.4564   -4.1617 C   0  0  0  0  0  0  0  0  0  0  0  0
   27.1888  -20.9618   -4.5564 C   0  0  0  0  0  0  0  0  0  0  0  0
   26.6270  -20.6711   -5.7813 C   0  0  0  0  0  0  0  0  0  0  0  0
   26.4545  -20.4501  -10.2526 C   0  0  0  0  0  0  0  0  0  0  0  0
   27.1461  -19.6947  -10.9706 O   0  0  0  0  0  0  0  0  0  0  0  0
   25.9790  -22.7512  -12.9925 C   0  0  0  0  0  0  0  0  0  0  0  0
   25.8935  -21.2129  -13.0639 C   0  0  2  0  0  0  0  0  0  0  0  0
   27.2596  -20.7048  -12.7576 C   0  0  0  0  0  0  0  0  0  0  0  0
   24.8104  -20.7658  -12.1118 C   0  0  2  0  0  0  0  0  0  0  0  0
   25.2687  -21.0366  -10.7470 N   0  0  0  0  0  0  0  0  0  0  0  0
   23.5109  -21.4067  -12.2960 C   0  0  0  0  0  0  0  0  0  0  0  0
   23.1684  -22.3483  -11.5082 O   0  0  0  0  0  0  0  0  0  0  0  0
   22.5411  -21.0948  -13.2866 N   0  0  0  0  0  0  0  0  0  0  0  0
   21.1503  -21.3691  -13.1924 C   0  0  1  0  0  0  0  0  0  0  0  0
   20.4201  -20.7615  -12.0536 C   0  0  0  0  0  0  0  0  0  0  0  0
   18.9476  -21.1021  -12.0503 C   0  0  0  0  0  0  0  0  0  0  0  0
   18.5848  -22.0002  -10.9131 C   0  0  0  0  0  0  0  0  0  0  0  0
   17.0991  -22.2567  -10.8041 C   0  0  0  0  0  0  0  0  0  0  0  0
   16.7868  -23.0439   -9.6454 N   0  0  0  0  0  0  0  0  0  0  0  0
   20.3865  -21.1517  -14.4615 C   0  0  0  0  0  0  0  0  0  0  0  0
   20.9673  -20.4012  -15.4542 O   0  0  0  0  0  0  0  0  0  0  0  0
   19.2611  -21.6375  -14.6138 O   0  0  0  0  0  0  0  0  0  0  0  0
  2 10  1  0
  2  1  1  6
  3  2  1  0
  4  3  1  0
  4  9  2  0
  5  4  1  0
  6  5  2  0
  6  7  1  0
  7  8  2  0
  8  9  1  0
 10 11  2  0
 13 12  1  1
 14 13  1  0
 15 13  1  0
 15 16  1  1
 16 10  1  0
 17 18  2  0
 17 15  1  0
 19 17  1  0
 20 21  1  1
 20 19  1  0
 21 22  1  0
 23 22  1  0
 23 24  1  0
 24 25  1  0
 26 27  1  0
 26 20  1  0
 28 26  2  0
M  END
$$$$
