FVK.pdb
     RDKit          3D

 28 28  0  0  1  0  0  0  0  0999 V2000
   20.1734  -32.4333   -6.9990 N   0  0  0  0  0  0  0  0  0  0  0  0
   21.3999  -33.1672   -7.0537 C   0  0  1  0  0  0  0  0  0  0  0  0
   21.0807  -34.6254   -6.7842 C   0  0  0  0  0  0  0  0  0  0  0  0
   20.7826  -34.7343   -5.3302 C   0  0  0  0  0  0  0  0  0  0  0  0
   19.4983  -35.0146   -4.9085 C   0  0  0  0  0  0  0  0  0  0  0  0
   19.1852  -35.1233   -3.5594 C   0  0  0  0  0  0  0  0  0  0  0  0
   20.1698  -34.9491   -2.6238 C   0  0  0  0  0  0  0  0  0  0  0  0
   21.4497  -34.6696   -3.0487 C   0  0  0  0  0  0  0  0  0  0  0  0
   21.7804  -34.5578   -4.3823 C   0  0  0  0  0  0  0  0  0  0  0  0
   22.0908  -33.0055   -8.3745 C   0  0  0  0  0  0  0  0  0  0  0  0
   21.4784  -32.4386   -9.3062 O   0  0  0  0  0  0  0  0  0  0  0  0
   26.2167  -33.9260   -8.6947 C   0  0  0  0  0  0  0  0  0  0  0  0
   25.5209  -32.7873   -9.4679 C   0  0  2  0  0  0  0  0  0  0  0  0
   25.5972  -31.5832   -8.5946 C   0  0  0  0  0  0  0  0  0  0  0  0
   24.1247  -33.2479   -9.8111 C   0  0  2  0  0  0  0  0  0  0  0  0
   23.4064  -33.4858   -8.5568 N   0  0  0  0  0  0  0  0  0  0  0  0
   24.0468  -34.4598  -10.6225 C   0  0  0  0  0  0  0  0  0  0  0  0
   23.8999  -35.5848  -10.0417 O   0  0  0  0  0  0  0  0  0  0  0  0
   24.1163  -34.5411  -12.0394 N   0  0  0  0  0  0  0  0  0  0  0  0
   23.8921  -35.7142  -12.8089 C   0  0  1  0  0  0  0  0  0  0  0  0
   23.2214  -35.5410  -14.1201 C   0  0  0  0  0  0  0  0  0  0  0  0
   22.9215  -36.8544  -14.8053 C   0  0  0  0  0  0  0  0  0  0  0  0
   21.6605  -36.7925  -15.6038 C   0  0  0  0  0  0  0  0  0  0  0  0
   21.3222  -38.0965  -16.2893 C   0  0  0  0  0  0  0  0  0  0  0  0
   20.1139  -37.9874  -17.0562 N   0  0  0  0  0  0  0  0  0  0  0  0
   25.0926  -36.5953  -12.9633 C   0  0  0  0  0  0  0  0  0  0  0  0
   24.9145  -37.9564  -12.9226 O   0  0  0  0  0  0  0  0  0  0  0  0
   26.2168  -36.1103  -13.1259 O   0  0  0  0  0  0  0  0  0  0  0  0
  2 10  1  0
  2  1  1  6
  3  2  1  0
  4  3  1  0
  4  9  2  0
  5  4  1  0
  6  5  2  0
  6  7  1  0
  7  8  2  0
  8  9  1  0
 10 11  2  0
 13 12  1  1
 14 13  1  0
 15 13  1  0
 15 16  1  1
 16 10  1  0
 17 18  2  0
 17 15  1  0
 19 17  1  0
 20 21  1  6
 20 19  1  0
 21 22  1  0
 23 22  1  0
 23 24  1  0
 24 25  1  0
 26 27  1  0
 26 20  1  0
 28 26  2  0
M  END
$$$$
