FVK.pdb
     RDKit          3D

 28 28  0  0  1  0  0  0  0  0999 V2000
   27.4605  -18.7839   -8.5707 N   0  0  0  0  0  0  0  0  0  0  0  0
   26.6429  -19.9576   -8.5744 C   0  0  1  0  0  0  0  0  0  0  0  0
   26.0635  -20.1240   -7.1824 C   0  0  0  0  0  0  0  0  0  0  0  0
   27.1980  -19.9842   -6.2295 C   0  0  0  0  0  0  0  0  0  0  0  0
   28.4931  -19.9217   -6.7033 C   0  0  0  0  0  0  0  0  0  0  0  0
   29.5753  -19.7913   -5.8420 C   0  0  0  0  0  0  0  0  0  0  0  0
   29.3565  -19.7228   -4.4920 C   0  0  0  0  0  0  0  0  0  0  0  0
   28.0629  -19.7855   -4.0234 C   0  0  0  0  0  0  0  0  0  0  0  0
   26.9761  -19.9148   -4.8615 C   0  0  0  0  0  0  0  0  0  0  0  0
   25.5539  -19.8782   -9.6018 C   0  0  0  0  0  0  0  0  0  0  0  0
   24.7483  -18.9228   -9.5492 O   0  0  0  0  0  0  0  0  0  0  0  0
   25.8039  -22.6903  -12.7659 C   0  0  0  0  0  0  0  0  0  0  0  0
   25.8873  -21.1616  -12.9525 C   0  0  2  0  0  0  0  0  0  0  0  0
   27.3260  -20.8025  -12.8124 C   0  0  0  0  0  0  0  0  0  0  0  0
   24.9617  -20.5222  -11.9457 C   0  0  2  0  0  0  0  0  0  0  0  0
   25.4450  -20.8652  -10.6061 N   0  0  0  0  0  0  0  0  0  0  0  0
   23.5594  -20.9187  -12.0441 C   0  0  0  0  0  0  0  0  0  0  0  0
   23.1401  -21.8905  -11.3339 O   0  0  0  0  0  0  0  0  0  0  0  0
   22.5639  -20.3278  -12.8679 N   0  0  0  0  0  0  0  0  0  0  0  0
   21.2143  -20.7604  -12.9675 C   0  0  1  0  0  0  0  0  0  0  0  0
   20.2154  -19.7543  -13.4026 C   0  0  0  0  0  0  0  0  0  0  0  0
   18.8150  -20.3160  -13.4907 C   0  0  0  0  0  0  0  0  0  0  0  0
   17.9608  -19.8677  -12.3501 C   0  0  0  0  0  0  0  0  0  0  0  0
   16.5422  -20.3841  -12.4264 C   0  0  0  0  0  0  0  0  0  0  0  0
   15.7372  -19.8647  -11.3576 N   0  0  0  0  0  0  0  0  0  0  0  0
   21.0240  -22.0319  -13.7346 C   0  0  0  0  0  0  0  0  0  0  0  0
   20.0517  -22.9078  -13.3182 O   0  0  0  0  0  0  0  0  0  0  0  0
   21.7230  -22.2868  -14.7205 O   0  0  0  0  0  0  0  0  0  0  0  0
  2 10  1  0
  2  1  1  1
  3  2  1  0
  4  3  1  0
  4  9  2  0
  5  4  1  0
  6  5  2  0
  6  7  1  0
  7  8  2  0
  8  9  1  0
 10 11  2  0
 13 12  1  1
 14 13  1  0
 15 13  1  0
 15 16  1  1
 16 10  1  0
 17 18  2  0
 17 15  1  0
 19 17  1  0
 20 21  1  6
 20 19  1  0
 21 22  1  0
 23 22  1  0
 23 24  1  0
 24 25  1  0
 26 27  1  0
 26 20  1  0
 28 26  2  0
M  END
$$$$
