FVK.pdb
     RDKit          3D

 28 28  0  0  1  0  0  0  0  0999 V2000
   17.6911  -10.0647  -11.6496 N   0  0  0  0  0  0  0  0  0  0  0  0
   17.9095   -8.7237  -11.2024 C   0  0  1  0  0  0  0  0  0  0  0  0
   18.7827   -8.0283  -12.2295 C   0  0  0  0  0  0  0  0  0  0  0  0
   20.1408   -8.6244  -12.1074 C   0  0  0  0  0  0  0  0  0  0  0  0
   20.6566   -9.3825  -13.1394 C   0  0  0  0  0  0  0  0  0  0  0  0
   21.9205   -9.9535  -13.0587 C   0  0  0  0  0  0  0  0  0  0  0  0
   22.6747   -9.7623  -11.9318 C   0  0  0  0  0  0  0  0  0  0  0  0
   22.1564   -9.0054  -10.9046 C   0  0  0  0  0  0  0  0  0  0  0  0
   20.9049   -8.4306  -10.9655 C   0  0  0  0  0  0  0  0  0  0  0  0
   16.6214   -7.9824  -11.0047 C   0  0  0  0  0  0  0  0  0  0  0  0
   15.6359   -8.2942  -11.7090 O   0  0  0  0  0  0  0  0  0  0  0  0
   13.5222   -5.8949   -8.0631 C   0  0  0  0  0  0  0  0  0  0  0  0
   14.7596   -6.7417   -8.4243 C   0  0  2  0  0  0  0  0  0  0  0  0
   15.7253   -6.5677   -7.3038 C   0  0  0  0  0  0  0  0  0  0  0  0
   15.2520   -6.2863   -9.7769 C   0  0  2  0  0  0  0  0  0  0  0  0
   16.5288   -6.9540  -10.0411 N   0  0  0  0  0  0  0  0  0  0  0  0
   15.4482   -4.8460   -9.9196 C   0  0  0  0  0  0  0  0  0  0  0  0
   16.5006   -4.3141   -9.4356 O   0  0  0  0  0  0  0  0  0  0  0  0
   14.5735   -3.9274  -10.5600 N   0  0  0  0  0  0  0  0  0  0  0  0
   14.7466   -2.5179  -10.6014 C   0  0  1  0  0  0  0  0  0  0  0  0
   13.8875   -1.7618  -11.5446 C   0  0  0  0  0  0  0  0  0  0  0  0
   14.4571   -1.7062  -12.9435 C   0  0  0  0  0  0  0  0  0  0  0  0
   13.8956   -2.7791  -13.8181 C   0  0  0  0  0  0  0  0  0  0  0  0
   14.4641   -2.7675  -15.2186 C   0  0  0  0  0  0  0  0  0  0  0  0
   14.0282   -3.9097  -15.9706 N   0  0  0  0  0  0  0  0  0  0  0  0
   14.7410   -1.8511   -9.2610 C   0  0  0  0  0  0  0  0  0  0  0  0
   15.7357   -0.9484   -8.9753 O   0  0  0  0  0  0  0  0  0  0  0  0
   13.8613   -2.1046   -8.4318 O   0  0  0  0  0  0  0  0  0  0  0  0
  2 10  1  0
  2  1  1  6
  3  2  1  0
  4  3  1  0
  4  9  2  0
  5  4  1  0
  6  5  2  0
  6  7  1  0
  7  8  2  0
  8  9  1  0
 10 11  2  0
 13 12  1  1
 14 13  1  0
 15 13  1  0
 15 16  1  1
 16 10  1  0
 17 18  2  0
 17 15  1  0
 19 17  1  0
 20 21  1  6
 20 19  1  0
 21 22  1  0
 23 22  1  0
 23 24  1  0
 24 25  1  0
 26 27  1  0
 26 20  1  0
 28 26  2  0
M  END
$$$$
