FVK.pdb
     RDKit          3D

 28 28  0  0  1  0  0  0  0  0999 V2000
   28.3274  -21.3058   -8.6645 N   0  0  0  0  0  0  0  0  0  0  0  0
   27.0844  -20.5979   -8.6687 C   0  0  1  0  0  0  0  0  0  0  0  0
   27.2936  -19.2884   -7.9320 C   0  0  0  0  0  0  0  0  0  0  0  0
   27.6668  -19.6407   -6.5351 C   0  0  0  0  0  0  0  0  0  0  0  0
   26.7067  -20.1135   -5.6631 C   0  0  0  0  0  0  0  0  0  0  0  0
   27.0204  -20.4517   -4.3526 C   0  0  0  0  0  0  0  0  0  0  0  0
   28.3098  -20.3142   -3.9123 C   0  0  0  0  0  0  0  0  0  0  0  0
   29.2645  -19.8422   -4.7855 C   0  0  0  0  0  0  0  0  0  0  0  0
   28.9733  -19.5014   -6.0891 C   0  0  0  0  0  0  0  0  0  0  0  0
   26.5829  -20.3551  -10.0606 C   0  0  0  0  0  0  0  0  0  0  0  0
   27.3870  -19.9390  -10.9236 O   0  0  0  0  0  0  0  0  0  0  0  0
   24.9919  -21.2491  -14.0757 C   0  0  0  0  0  0  0  0  0  0  0  0
   25.4892  -21.4267  -12.6267 C   0  0  2  0  0  0  0  0  0  0  0  0
   25.2733  -22.8601  -12.2846 C   0  0  0  0  0  0  0  0  0  0  0  0
   24.7481  -20.4378  -11.7594 C   0  0  2  0  0  0  0  0  0  0  0  0
   25.2291  -20.5933  -10.3845 N   0  0  0  0  0  0  0  0  0  0  0  0
   23.2939  -20.5745  -11.7560 C   0  0  0  0  0  0  0  0  0  0  0  0
   22.7629  -21.5177  -11.0830 O   0  0  0  0  0  0  0  0  0  0  0  0
   22.3601  -19.7493  -12.4386 N   0  0  0  0  0  0  0  0  0  0  0  0
   20.9548  -19.9543  -12.4780 C   0  0  1  0  0  0  0  0  0  0  0  0
   20.1593  -19.0080  -13.2971 C   0  0  0  0  0  0  0  0  0  0  0  0
   18.6688  -19.2026  -13.1391 C   0  0  0  0  0  0  0  0  0  0  0  0
   17.8886  -18.2512  -13.9861 C   0  0  0  0  0  0  0  0  0  0  0  0
   16.3955  -18.3438  -13.7693 C   0  0  0  0  0  0  0  0  0  0  0  0
   15.6971  -17.3145  -14.4854 N   0  0  0  0  0  0  0  0  0  0  0  0
   20.5400  -21.3611  -12.7783 C   0  0  0  0  0  0  0  0  0  0  0  0
   19.6526  -21.9766  -11.9299 O   0  0  0  0  0  0  0  0  0  0  0  0
   20.9831  -21.9542  -13.7670 O   0  0  0  0  0  0  0  0  0  0  0  0
  2 10  1  0
  2  1  1  6
  3  2  1  0
  4  3  1  0
  4  9  2  0
  5  4  1  0
  6  5  2  0
  6  7  1  0
  7  8  2  0
  8  9  1  0
 10 11  2  0
 13 12  1  6
 14 13  1  0
 15 13  1  0
 15 16  1  1
 16 10  1  0
 17 18  2  0
 17 15  1  0
 19 17  1  0
 20 21  1  6
 20 19  1  0
 21 22  1  0
 23 22  1  0
 23 24  1  0
 24 25  1  0
 26 27  1  0
 26 20  1  0
 28 26  2  0
M  END
$$$$
