FVK.pdb
     RDKit          3D

 28 28  0  0  1  0  0  0  0  0999 V2000
   24.8127  -20.4203  -15.8686 N   0  0  0  0  0  0  0  0  0  0  0  0
   24.4321  -21.3526  -14.8527 C   0  0  1  0  0  0  0  0  0  0  0  0
   25.6751  -21.7075  -14.0591 C   0  0  0  0  0  0  0  0  0  0  0  0
   26.5689  -22.4593  -14.9814 C   0  0  0  0  0  0  0  0  0  0  0  0
   26.2555  -23.7544  -15.3421 C   0  0  0  0  0  0  0  0  0  0  0  0
   27.0674  -24.4850  -16.2008 C   0  0  0  0  0  0  0  0  0  0  0  0
   28.2048  -23.9109  -16.7026 C   0  0  0  0  0  0  0  0  0  0  0  0
   28.5138  -22.6187  -16.3402 C   0  0  0  0  0  0  0  0  0  0  0  0
   27.7214  -21.8775  -15.4898 C   0  0  0  0  0  0  0  0  0  0  0  0
   23.3644  -20.7998  -13.9569 C   0  0  0  0  0  0  0  0  0  0  0  0
   23.3996  -19.5850  -13.6610 O   0  0  0  0  0  0  0  0  0  0  0  0
   19.8052  -20.9272  -14.7065 C   0  0  0  0  0  0  0  0  0  0  0  0
   20.4845  -20.1149  -13.5851 C   0  0  2  0  0  0  0  0  0  0  0  0
   21.3361  -19.0987  -14.2637 C   0  0  0  0  0  0  0  0  0  0  0  0
   21.2232  -21.0849  -12.6947 C   0  0  2  0  0  0  0  0  0  0  0  0
   22.3424  -21.6387  -13.4605 N   0  0  0  0  0  0  0  0  0  0  0  0
   20.4251  -22.1944  -12.1794 C   0  0  0  0  0  0  0  0  0  0  0  0
   20.2819  -23.2386  -12.8961 O   0  0  0  0  0  0  0  0  0  0  0  0
   19.7625  -22.2549  -10.9240 N   0  0  0  0  0  0  0  0  0  0  0  0
   19.0670  -23.3837  -10.4135 C   0  0  1  0  0  0  0  0  0  0  0  0
   19.0078  -23.5273   -8.9386 C   0  0  0  0  0  0  0  0  0  0  0  0
   18.2197  -24.7389   -8.4969 C   0  0  0  0  0  0  0  0  0  0  0  0
   18.1208  -24.8288   -7.0091 C   0  0  0  0  0  0  0  0  0  0  0  0
   17.2889  -25.9982   -6.5346 C   0  0  0  0  0  0  0  0  0  0  0  0
   17.2142  -26.0412   -5.1019 N   0  0  0  0  0  0  0  0  0  0  0  0
   17.7059  -23.5931  -11.0006 C   0  0  0  0  0  0  0  0  0  0  0  0
   17.3095  -24.8752  -11.2923 O   0  0  0  0  0  0  0  0  0  0  0  0
   16.9554  -22.6359  -11.2158 O   0  0  0  0  0  0  0  0  0  0  0  0
  2 10  1  0
  2  1  1  6
  3  2  1  0
  4  3  1  0
  4  9  2  0
  5  4  1  0
  6  5  2  0
  6  7  1  0
  7  8  2  0
  8  9  1  0
 10 11  2  0
 13 12  1  6
 14 13  1  0
 15 13  1  0
 15 16  1  6
 16 10  1  0
 17 18  2  0
 17 15  1  0
 19 17  1  0
 20 21  1  1
 20 19  1  0
 21 22  1  0
 23 22  1  0
 23 24  1  0
 24 25  1  0
 26 27  1  0
 26 20  1  0
 28 26  2  0
M  END
$$$$
