FVK.pdb
     RDKit          3D

 28 28  0  0  1  0  0  0  0  0999 V2000
   26.4590  -19.8561  -17.7865 N   0  0  0  0  0  0  0  0  0  0  0  0
   26.4848  -19.3617  -16.4445 C   0  0  1  0  0  0  0  0  0  0  0  0
   26.1236  -17.8891  -16.4853 C   0  0  0  0  0  0  0  0  0  0  0  0
   27.1761  -17.2147  -17.2929 C   0  0  0  0  0  0  0  0  0  0  0  0
   28.4972  -17.2817  -16.8981 C   0  0  0  0  0  0  0  0  0  0  0  0
   29.5048  -16.6640  -17.6282 C   0  0  0  0  0  0  0  0  0  0  0  0
   29.1843  -15.9721  -18.7656 C   0  0  0  0  0  0  0  0  0  0  0  0
   27.8652  -15.9076  -19.1560 C   0  0  0  0  0  0  0  0  0  0  0  0
   26.8512  -16.5136  -18.4454 C   0  0  0  0  0  0  0  0  0  0  0  0
   25.5484  -20.1183  -15.5509 C   0  0  0  0  0  0  0  0  0  0  0  0
   24.5400  -20.6575  -16.0579 O   0  0  0  0  0  0  0  0  0  0  0  0
   24.7250  -22.1391  -11.1262 C   0  0  0  0  0  0  0  0  0  0  0  0
   25.6403  -21.2622  -12.0047 C   0  0  2  0  0  0  0  0  0  0  0  0
   25.9947  -20.0733  -11.1806 C   0  0  0  0  0  0  0  0  0  0  0  0
   24.9008  -20.9617  -13.2862 C   0  0  2  0  0  0  0  0  0  0  0  0
   25.8050  -20.2167  -14.1656 N   0  0  0  0  0  0  0  0  0  0  0  0
   23.6699  -20.1906  -13.1328 C   0  0  0  0  0  0  0  0  0  0  0  0
   23.4211  -19.6393  -12.0108 O   0  0  0  0  0  0  0  0  0  0  0  0
   22.6753  -19.9695  -14.1232 N   0  0  0  0  0  0  0  0  0  0  0  0
   21.2794  -19.8663  -13.8796 C   0  0  1  0  0  0  0  0  0  0  0  0
   20.3923  -19.7997  -15.0663 C   0  0  0  0  0  0  0  0  0  0  0  0
   18.9521  -19.5134  -14.7084 C   0  0  0  0  0  0  0  0  0  0  0  0
   18.0802  -19.4386  -15.9191 C   0  0  0  0  0  0  0  0  0  0  0  0
   16.6564  -19.0383  -15.6068 C   0  0  0  0  0  0  0  0  0  0  0  0
   15.8230  -19.1138  -16.7729 N   0  0  0  0  0  0  0  0  0  0  0  0
   20.7441  -20.8626  -12.8988 C   0  0  0  0  0  0  0  0  0  0  0  0
   20.2056  -20.3991  -11.7235 O   0  0  0  0  0  0  0  0  0  0  0  0
   20.7831  -22.0731  -13.1411 O   0  0  0  0  0  0  0  0  0  0  0  0
  2 10  1  0
  2  1  1  6
  3  2  1  0
  4  3  1  0
  4  9  2  0
  5  4  1  0
  6  5  2  0
  6  7  1  0
  7  8  2  0
  8  9  1  0
 10 11  2  0
 13 12  1  1
 14 13  1  0
 15 13  1  0
 15 16  1  6
 16 10  1  0
 17 18  2  0
 17 15  1  0
 19 17  1  0
 20 21  1  6
 20 19  1  0
 21 22  1  0
 23 22  1  0
 23 24  1  0
 24 25  1  0
 26 27  1  0
 26 20  1  0
 28 26  2  0
M  END
$$$$
