FVK.pdb
     RDKit          3D

 28 28  0  0  1  0  0  0  0  0999 V2000
   26.6939  -18.6298   -8.0612 N   0  0  0  0  0  0  0  0  0  0  0  0
   26.7803  -20.0266   -8.3571 C   0  0  1  0  0  0  0  0  0  0  0  0
   26.5467  -20.7897   -7.0671 C   0  0  0  0  0  0  0  0  0  0  0  0
   27.6734  -20.4444   -6.1581 C   0  0  0  0  0  0  0  0  0  0  0  0
   27.4341  -19.7208   -5.0072 C   0  0  0  0  0  0  0  0  0  0  0  0
   28.4622  -19.3813   -4.1366 C   0  0  0  0  0  0  0  0  0  0  0  0
   29.7431  -19.7715   -4.4234 C   0  0  0  0  0  0  0  0  0  0  0  0
   29.9776  -20.4932   -5.5726 C   0  0  0  0  0  0  0  0  0  0  0  0
   28.9713  -20.8398   -6.4488 C   0  0  0  0  0  0  0  0  0  0  0  0
   25.7942  -20.4382   -9.4088 C   0  0  0  0  0  0  0  0  0  0  0  0
   24.5730  -20.3426   -9.1561 O   0  0  0  0  0  0  0  0  0  0  0  0
   26.3222  -19.7450  -14.2236 C   0  0  0  0  0  0  0  0  0  0  0  0
   26.8643  -20.3363  -12.9063 C   0  0  2  0  0  0  0  0  0  0  0  0
   27.4334  -21.6690  -13.2508 C   0  0  0  0  0  0  0  0  0  0  0  0
   25.7314  -20.3570  -11.9086 C   0  0  2  0  0  0  0  0  0  0  0  0
   26.2414  -20.9233  -10.6576 N   0  0  0  0  0  0  0  0  0  0  0  0
   24.5545  -21.1216  -12.3132 C   0  0  0  0  0  0  0  0  0  0  0  0
   24.5907  -22.3940  -12.2473 O   0  0  0  0  0  0  0  0  0  0  0  0
   23.3224  -20.5984  -12.7897 N   0  0  0  0  0  0  0  0  0  0  0  0
   22.1744  -21.3671  -13.1207 C   0  0  1  0  0  0  0  0  0  0  0  0
   20.8783  -20.9181  -12.5569 C   0  0  0  0  0  0  0  0  0  0  0  0
   19.7526  -21.8909  -12.8233 C   0  0  0  0  0  0  0  0  0  0  0  0
   18.4625  -21.4283  -12.2290 C   0  0  0  0  0  0  0  0  0  0  0  0
   17.3305  -22.4122  -12.4174 C   0  0  0  0  0  0  0  0  0  0  0  0
   16.1788  -22.0400  -11.6459 N   0  0  0  0  0  0  0  0  0  0  0  0
   22.0210  -21.6582  -14.5812 C   0  0  0  0  0  0  0  0  0  0  0  0
   21.7554  -22.9493  -14.9665 O   0  0  0  0  0  0  0  0  0  0  0  0
   22.1282  -20.7583  -15.4205 O   0  0  0  0  0  0  0  0  0  0  0  0
  2 10  1  0
  2  1  1  1
  3  2  1  0
  4  3  1  0
  4  9  2  0
  5  4  1  0
  6  5  2  0
  6  7  1  0
  7  8  2  0
  8  9  1  0
 10 11  2  0
 13 12  1  6
 14 13  1  0
 15 13  1  0
 15 16  1  1
 16 10  1  0
 17 18  2  0
 17 15  1  0
 19 17  1  0
 20 21  1  6
 20 19  1  0
 21 22  1  0
 23 22  1  0
 23 24  1  0
 24 25  1  0
 26 27  1  0
 26 20  1  0
 28 26  2  0
M  END
$$$$
