FVK.pdb
     RDKit          3D

 28 28  0  0  1  0  0  0  0  0999 V2000
   28.2133  -21.2168  -16.2459 N   0  0  0  0  0  0  0  0  0  0  0  0
   27.2137  -20.4285  -15.5938 C   0  0  1  0  0  0  0  0  0  0  0  0
   26.3636  -19.7761  -16.6674 C   0  0  0  0  0  0  0  0  0  0  0  0
   27.2061  -18.7225  -17.2959 C   0  0  0  0  0  0  0  0  0  0  0  0
   27.5607  -18.8253  -18.6261 C   0  0  0  0  0  0  0  0  0  0  0  0
   28.3458  -17.8602  -19.2443 C   0  0  0  0  0  0  0  0  0  0  0  0
   28.7796  -16.7812  -18.5213 C   0  0  0  0  0  0  0  0  0  0  0  0
   28.4237  -16.6825  -17.1945 C   0  0  0  0  0  0  0  0  0  0  0  0
   27.6457  -17.6292  -16.5631 C   0  0  0  0  0  0  0  0  0  0  0  0
   26.3686  -21.2504  -14.6674 C   0  0  0  0  0  0  0  0  0  0  0  0
   26.2038  -22.4635  -14.9235 O   0  0  0  0  0  0  0  0  0  0  0  0
   25.2333  -19.8437  -10.7769 C   0  0  0  0  0  0  0  0  0  0  0  0
   25.4972  -21.2954  -11.2259 C   0  0  2  0  0  0  0  0  0  0  0  0
   26.9650  -21.5119  -11.0949 C   0  0  0  0  0  0  0  0  0  0  0  0
   24.9435  -21.4553  -12.6213 C   0  0  2  0  0  0  0  0  0  0  0  0
   25.7733  -20.6610  -13.5303 N   0  0  0  0  0  0  0  0  0  0  0  0
   23.5519  -21.0464  -12.7935 C   0  0  0  0  0  0  0  0  0  0  0  0
   23.2948  -19.8298  -13.0737 O   0  0  0  0  0  0  0  0  0  0  0  0
   22.4021  -21.8739  -12.6835 N   0  0  0  0  0  0  0  0  0  0  0  0
   21.0561  -21.4314  -12.7887 C   0  0  1  0  0  0  0  0  0  0  0  0
   20.0417  -22.4457  -13.1652 C   0  0  0  0  0  0  0  0  0  0  0  0
   18.6914  -21.8407  -13.4734 C   0  0  0  0  0  0  0  0  0  0  0  0
   17.7001  -22.8745  -13.8975 C   0  0  0  0  0  0  0  0  0  0  0  0
   16.3753  -22.2901  -14.3315 C   0  0  0  0  0  0  0  0  0  0  0  0
   15.4659  -23.3145  -14.7602 N   0  0  0  0  0  0  0  0  0  0  0  0
   20.5701  -20.6353  -11.6178 C   0  0  0  0  0  0  0  0  0  0  0  0
   19.5922  -19.6940  -11.8273 O   0  0  0  0  0  0  0  0  0  0  0  0
   21.0354  -20.8216  -10.4889 O   0  0  0  0  0  0  0  0  0  0  0  0
  2 10  1  0
  2  1  1  6
  3  2  1  0
  4  3  1  0
  4  9  2  0
  5  4  1  0
  6  5  2  0
  6  7  1  0
  7  8  2  0
  8  9  1  0
 10 11  2  0
 13 12  1  6
 14 13  1  0
 15 13  1  0
 15 16  1  6
 16 10  1  0
 17 18  2  0
 17 15  1  0
 19 17  1  0
 20 21  1  1
 20 19  1  0
 21 22  1  0
 23 22  1  0
 23 24  1  0
 24 25  1  0
 26 27  1  0
 26 20  1  0
 28 26  2  0
M  END
$$$$
