FVK.pdb
     RDKit          3D

 28 28  0  0  1  0  0  0  0  0999 V2000
   20.8950  -13.8964  -19.4390 N   0  0  0  0  0  0  0  0  0  0  0  0
   21.4526  -12.5797  -19.4006 C   0  0  1  0  0  0  0  0  0  0  0  0
   20.8885  -11.8024  -20.5747 C   0  0  0  0  0  0  0  0  0  0  0  0
   21.4970  -12.3839  -21.8021 C   0  0  0  0  0  0  0  0  0  0  0  0
   22.7573  -11.9869  -22.2016 C   0  0  0  0  0  0  0  0  0  0  0  0
   23.3550  -12.5093  -23.3419 C   0  0  0  0  0  0  0  0  0  0  0  0
   22.6819  -13.4389  -24.0887 C   0  0  0  0  0  0  0  0  0  0  0  0
   21.4248  -13.8322  -23.6867 C   0  0  0  0  0  0  0  0  0  0  0  0
   20.8148  -13.3259  -22.5588 C   0  0  0  0  0  0  0  0  0  0  0  0
   21.1567  -11.8839  -18.1059 C   0  0  0  0  0  0  0  0  0  0  0  0
   20.0209  -12.0170  -17.5994 O   0  0  0  0  0  0  0  0  0  0  0  0
   22.9522  -10.1370  -13.9360 C   0  0  0  0  0  0  0  0  0  0  0  0
   23.1495  -10.8138  -15.3078 C   0  0  2  0  0  0  0  0  0  0  0  0
   24.4246  -10.2761  -15.8584 C   0  0  0  0  0  0  0  0  0  0  0  0
   21.9203  -10.5380  -16.1399 C   0  0  2  0  0  0  0  0  0  0  0  0
   22.1448  -11.0955  -17.4759 N   0  0  0  0  0  0  0  0  0  0  0  0
   21.5648   -9.1286  -16.2837 C   0  0  0  0  0  0  0  0  0  0  0  0
   22.3190   -8.3677  -16.9741 O   0  0  0  0  0  0  0  0  0  0  0  0
   20.4329   -8.4755  -15.7259 N   0  0  0  0  0  0  0  0  0  0  0  0
   20.1331   -7.0928  -15.8557 C   0  0  1  0  0  0  0  0  0  0  0  0
   18.7010   -6.7087  -15.8232 C   0  0  0  0  0  0  0  0  0  0  0  0
   18.4835   -5.2302  -16.0491 C   0  0  0  0  0  0  0  0  0  0  0  0
   17.0323   -4.8768  -16.0742 C   0  0  0  0  0  0  0  0  0  0  0  0
   16.7761   -3.4251  -16.4086 C   0  0  0  0  0  0  0  0  0  0  0  0
   15.3724   -3.1585  -16.5449 N   0  0  0  0  0  0  0  0  0  0  0  0
   20.9211   -6.1981  -14.9503 C   0  0  0  0  0  0  0  0  0  0  0  0
   21.4313   -5.0317  -15.4654 O   0  0  0  0  0  0  0  0  0  0  0  0
   21.1064   -6.4999  -13.7670 O   0  0  0  0  0  0  0  0  0  0  0  0
  2 10  1  0
  2  1  1  1
  3  2  1  0
  4  3  1  0
  4  9  2  0
  5  4  1  0
  6  5  2  0
  6  7  1  0
  7  8  2  0
  8  9  1  0
 10 11  2  0
 13 12  1  1
 14 13  1  0
 15 13  1  0
 15 16  1  6
 16 10  1  0
 17 18  2  0
 17 15  1  0
 19 17  1  0
 20 21  1  1
 20 19  1  0
 21 22  1  0
 23 22  1  0
 23 24  1  0
 24 25  1  0
 26 27  1  0
 26 20  1  0
 28 26  2  0
M  END
$$$$
