VPR.pdb
     RDKit          3D

 26 26  0  0  1  0  0  0  0  0999 V2000
   26.0359  -14.0853  -16.3053 C   0  0  0  0  0  0  0  0  0  0  0  0
   25.9003  -15.4598  -15.7392 C   0  0  1  0  0  0  0  0  0  0  0  0
   24.6115  -15.6530  -14.9701 C   0  0  0  0  0  0  0  0  0  0  0  0
   26.0643  -16.5372  -16.8054 C   0  0  2  0  0  0  0  0  0  0  0  0
   25.2187  -16.1871  -17.8782 N   0  0  0  0  0  0  0  0  0  0  0  0
   25.9404  -17.8627  -16.2216 C   0  0  0  0  0  0  0  0  0  0  0  0
   24.7830  -18.4443  -16.2992 O   0  0  0  0  0  0  0  0  0  0  0  0
   26.9601  -18.5779  -15.5768 N   0  0  0  0  0  0  0  0  0  0  0  0
   28.3357  -18.2329  -15.4465 C   0  0  0  0  0  0  0  0  0  0  0  0
   29.0295  -19.5929  -15.6646 C   0  0  0  0  0  0  0  0  0  0  0  0
   28.1536  -20.4617  -14.7868 C   0  0  0  0  0  0  0  0  0  0  0  0
   26.7927  -19.8536  -14.8722 C   0  0  1  0  0  0  0  0  0  0  0  0
   26.1820  -19.6569  -13.5438 C   0  0  0  0  0  0  0  0  0  0  0  0
   26.2806  -18.5258  -13.0055 O   0  0  0  0  0  0  0  0  0  0  0  0
   22.2824  -21.7479   -7.1534 N   0  0  0  0  0  0  0  0  0  0  0  0
   21.1277  -21.7386   -8.0101 C   0  0  0  0  0  0  0  0  0  0  0  0
   20.2156  -22.6048   -7.7895 N   0  0  0  0  0  0  0  0  0  0  0  0
   21.0299  -20.7891   -9.0516 N   0  0  0  0  0  0  0  0  0  0  0  0
   22.1779  -20.2970   -9.7443 C   0  0  0  0  0  0  0  0  0  0  0  0
   22.3922  -20.8504  -11.1072 C   0  0  0  0  0  0  0  0  0  0  0  0
   23.4136  -20.2005  -11.9588 C   0  0  0  0  0  0  0  0  0  0  0  0
   24.8386  -20.5042  -11.6404 C   0  0  2  0  0  0  0  0  0  0  0  0
   25.5101  -20.7428  -12.9255 N   0  0  0  0  0  0  0  0  0  0  0  0
   24.8843  -21.7689  -10.8349 C   0  0  0  0  0  0  0  0  0  0  0  0
   24.7870  -22.9975  -11.4610 O   0  0  0  0  0  0  0  0  0  0  0  0
   25.0102  -21.7573   -9.5912 O   0  0  0  0  0  0  0  0  0  0  0  0
  2  3  1  6
  2  1  1  0
  4  5  1  6
  4  2  1  0
  6  4  1  0
  7  6  2  0
  8  9  1  0
  8  6  1  0
 10  9  1  0
 11 12  1  0
 11 10  1  0
 12  8  1  0
 13 14  2  0
 12 13  1  1
 16 17  2  0
 16 15  1  0
 18 16  1  0
 19 18  1  0
 20 19  1  0
 20 21  1  0
 22 21  1  6
 22 23  1  0
 23 13  1  0
 24 22  1  0
 25 24  1  0
 26 24  2  0
M  END
$$$$
