VPR.pdb
     RDKit          3D

 26 26  0  0  1  0  0  0  0  0999 V2000
   28.3285  -23.3914  -19.1707 C   0  0  0  0  0  0  0  0  0  0  0  0
   27.4220  -22.9233  -18.0812 C   0  0  1  0  0  0  0  0  0  0  0  0
   26.1516  -23.7395  -17.9837 C   0  0  0  0  0  0  0  0  0  0  0  0
   28.1320  -22.8587  -16.7335 C   0  0  2  0  0  0  0  0  0  0  0  0
   28.6526  -24.1445  -16.4801 N   0  0  0  0  0  0  0  0  0  0  0  0
   27.2798  -22.2398  -15.7314 C   0  0  0  0  0  0  0  0  0  0  0  0
   26.7638  -23.0127  -14.8258 O   0  0  0  0  0  0  0  0  0  0  0  0
   26.9592  -20.8769  -15.6503 N   0  0  0  0  0  0  0  0  0  0  0  0
   27.2780  -19.8373  -16.5699 C   0  0  0  0  0  0  0  0  0  0  0  0
   27.6503  -18.6765  -15.6252 C   0  0  0  0  0  0  0  0  0  0  0  0
   26.5108  -18.7878  -14.6345 C   0  0  0  0  0  0  0  0  0  0  0  0
   26.1899  -20.2446  -14.5731 C   0  0  1  0  0  0  0  0  0  0  0  0
   24.7456  -20.5073  -14.7193 C   0  0  0  0  0  0  0  0  0  0  0  0
   24.3046  -20.7855  -15.8626 O   0  0  0  0  0  0  0  0  0  0  0  0
   19.0674  -23.6190   -8.6629 N   0  0  0  0  0  0  0  0  0  0  0  0
   18.4060  -23.6661   -9.9387 C   0  0  0  0  0  0  0  0  0  0  0  0
   17.3618  -24.3943  -10.0416 N   0  0  0  0  0  0  0  0  0  0  0  0
   18.9141  -22.9187  -11.0246 N   0  0  0  0  0  0  0  0  0  0  0  0
   20.2437  -22.3973  -11.0347 C   0  0  0  0  0  0  0  0  0  0  0  0
   20.6044  -21.5800  -12.2230 C   0  0  0  0  0  0  0  0  0  0  0  0
   22.0055  -21.1167  -12.3373 C   0  0  0  0  0  0  0  0  0  0  0  0
   22.5028  -20.8301  -13.7138 C   0  0  2  0  0  0  0  0  0  0  0  0
   23.9119  -20.4375  -13.5735 N   0  0  0  0  0  0  0  0  0  0  0  0
   21.7338  -19.6642  -14.2615 C   0  0  0  0  0  0  0  0  0  0  0  0
   20.5902  -19.8733  -15.0093 O   0  0  0  0  0  0  0  0  0  0  0  0
   22.0931  -18.4831  -14.0645 O   0  0  0  0  0  0  0  0  0  0  0  0
  2  3  1  1
  2  1  1  0
  4  5  1  1
  4  2  1  0
  6  4  1  0
  7  6  2  0
  8  9  1  0
  8  6  1  0
 10  9  1  0
 11 12  1  0
 11 10  1  0
 12  8  1  0
 13 14  2  0
 12 13  1  6
 16 17  2  0
 16 15  1  0
 18 16  1  0
 19 18  1  0
 20 19  1  0
 20 21  1  0
 22 21  1  1
 22 23  1  0
 23 13  1  0
 24 22  1  0
 25 24  1  0
 26 24  2  0
M  END
$$$$
