VPR.pdb
     RDKit          3D

 26 26  0  0  1  0  0  0  0  0999 V2000
   25.6865  -18.0515  -19.9767 C   0  0  0  0  0  0  0  0  0  0  0  0
   27.0164  -18.6995  -20.1754 C   0  0  1  0  0  0  0  0  0  0  0  0
   27.4917  -18.6355  -21.6106 C   0  0  0  0  0  0  0  0  0  0  0  0
   28.0724  -18.1424  -19.2272 C   0  0  2  0  0  0  0  0  0  0  0  0
   29.2753  -18.8246  -19.5038 N   0  0  0  0  0  0  0  0  0  0  0  0
   27.5784  -18.1230  -17.8601 C   0  0  0  0  0  0  0  0  0  0  0  0
   27.7156  -19.2066  -17.1595 O   0  0  0  0  0  0  0  0  0  0  0  0
   26.9622  -17.0367  -17.2219 N   0  0  0  0  0  0  0  0  0  0  0  0
   26.6619  -15.7514  -17.7565 C   0  0  0  0  0  0  0  0  0  0  0  0
   27.0211  -14.8223  -16.5792 C   0  0  0  0  0  0  0  0  0  0  0  0
   26.3641  -15.5876  -15.4500 C   0  0  0  0  0  0  0  0  0  0  0  0
   26.4753  -17.0250  -15.8382 C   0  0  1  0  0  0  0  0  0  0  0  0
   25.1909  -17.7401  -15.7152 C   0  0  0  0  0  0  0  0  0  0  0  0
   24.4496  -17.8098  -16.7274 O   0  0  0  0  0  0  0  0  0  0  0  0
   24.6044  -21.5447   -8.3135 N   0  0  0  0  0  0  0  0  0  0  0  0
   23.3714  -21.5237   -9.0530 C   0  0  0  0  0  0  0  0  0  0  0  0
   22.2961  -21.8096   -8.4260 N   0  0  0  0  0  0  0  0  0  0  0  0
   23.3780  -21.1906  -10.4259 N   0  0  0  0  0  0  0  0  0  0  0  0
   24.5836  -20.8954  -11.1324 C   0  0  0  0  0  0  0  0  0  0  0  0
   24.4249  -20.6091  -12.5825 C   0  0  0  0  0  0  0  0  0  0  0  0
   23.4702  -19.5471  -12.9717 C   0  0  0  0  0  0  0  0  0  0  0  0
   23.5659  -19.0452  -14.3727 C   0  0  2  0  0  0  0  0  0  0  0  0
   24.8402  -18.3196  -14.4685 N   0  0  0  0  0  0  0  0  0  0  0  0
   22.4450  -18.0756  -14.6056 C   0  0  0  0  0  0  0  0  0  0  0  0
   21.2073  -18.5287  -15.0225 O   0  0  0  0  0  0  0  0  0  0  0  0
   22.5875  -16.8456  -14.4338 O   0  0  0  0  0  0  0  0  0  0  0  0
  2  3  1  6
  2  1  1  0
  4  5  1  1
  4  2  1  0
  6  4  1  0
  7  6  2  0
  8  9  1  0
  8  6  1  0
 10  9  1  0
 11 12  1  0
 11 10  1  0
 12  8  1  0
 13 14  2  0
 12 13  1  6
 16 17  2  0
 16 15  1  0
 18 16  1  0
 19 18  1  0
 20 19  1  0
 20 21  1  0
 22 21  1  1
 22 23  1  0
 23 13  1  0
 24 22  1  0
 25 24  1  0
 26 24  2  0
M  END
$$$$
