VPR.pdb
     RDKit          3D

 26 26  0  0  1  0  0  0  0  0999 V2000
   13.0862  -27.2829    0.1735 C   0  0  0  0  0  0  0  0  0  0  0  0
   14.1249  -26.9266   -0.8375 C   0  0  1  0  0  0  0  0  0  0  0  0
   13.5498  -26.2194   -2.0453 C   0  0  0  0  0  0  0  0  0  0  0  0
   15.2658  -26.1203   -0.2269 C   0  0  2  0  0  0  0  0  0  0  0  0
   14.6823  -25.0354    0.4594 N   0  0  0  0  0  0  0  0  0  0  0  0
   16.2931  -25.8486   -1.2190 C   0  0  0  0  0  0  0  0  0  0  0  0
   16.4456  -24.6175   -1.5998 O   0  0  0  0  0  0  0  0  0  0  0  0
   17.1408  -26.7976   -1.8088 N   0  0  0  0  0  0  0  0  0  0  0  0
   17.2270  -28.1937   -1.5411 C   0  0  0  0  0  0  0  0  0  0  0  0
   18.7500  -28.4336   -1.5762 C   0  0  0  0  0  0  0  0  0  0  0  0
   19.0946  -27.6569   -2.8293 C   0  0  0  0  0  0  0  0  0  0  0  0
   18.1213  -26.5253   -2.8654 C   0  0  1  0  0  0  0  0  0  0  0  0
   17.4685  -26.3887   -4.1812 C   0  0  0  0  0  0  0  0  0  0  0  0
   16.2732  -26.7597   -4.2934 O   0  0  0  0  0  0  0  0  0  0  0  0
   20.4325  -22.3356  -11.6302 N   0  0  0  0  0  0  0  0  0  0  0  0
   19.0943  -22.7700  -11.9267 C   0  0  0  0  0  0  0  0  0  0  0  0
   18.5865  -22.4145  -13.0434 N   0  0  0  0  0  0  0  0  0  0  0  0
   18.3888  -23.5661  -10.9969 N   0  0  0  0  0  0  0  0  0  0  0  0
   18.8645  -23.7881   -9.6686 C   0  0  0  0  0  0  0  0  0  0  0  0
   17.9959  -24.6338   -8.8081 C   0  0  0  0  0  0  0  0  0  0  0  0
   18.4565  -24.9093   -7.4287 C   0  0  0  0  0  0  0  0  0  0  0  0
   17.5259  -25.6824   -6.5568 C   0  0  2  0  0  0  0  0  0  0  0  0
   18.2069  -25.8478   -5.2652 N   0  0  0  0  0  0  0  0  0  0  0  0
   17.3221  -27.0377   -7.1668 C   0  0  0  0  0  0  0  0  0  0  0  0
   16.2366  -27.2755   -7.9891 O   0  0  0  0  0  0  0  0  0  0  0  0
   18.1124  -27.9834   -6.9574 O   0  0  0  0  0  0  0  0  0  0  0  0
  2  3  1  6
  2  1  1  0
  4  5  1  6
  4  2  1  0
  6  4  1  0
  7  6  2  0
  8  9  1  0
  8  6  1  0
 10  9  1  0
 11 12  1  0
 11 10  1  0
 12  8  1  0
 13 14  2  0
 12 13  1  6
 16 17  2  0
 16 15  1  0
 18 16  1  0
 19 18  1  0
 20 19  1  0
 20 21  1  0
 22 21  1  6
 22 23  1  0
 23 13  1  0
 24 22  1  0
 25 24  1  0
 26 24  2  0
M  END
$$$$
