VPR.pdb
     RDKit          3D

 26 26  0  0  1  0  0  0  0  0999 V2000
   26.4678  -24.0259  -16.2483 C   0  0  0  0  0  0  0  0  0  0  0  0
   25.6898  -22.7943  -15.9231 C   0  0  1  0  0  0  0  0  0  0  0  0
   24.2411  -23.0846  -15.5963 C   0  0  0  0  0  0  0  0  0  0  0  0
   26.3450  -21.9791  -14.8138 C   0  0  2  0  0  0  0  0  0  0  0  0
   26.3946  -22.8037  -13.6709 N   0  0  0  0  0  0  0  0  0  0  0  0
   25.7261  -20.6683  -14.7035 C   0  0  0  0  0  0  0  0  0  0  0  0
   24.9935  -20.4394  -13.6571 O   0  0  0  0  0  0  0  0  0  0  0  0
   25.8455  -19.6201  -15.6276 N   0  0  0  0  0  0  0  0  0  0  0  0
   26.5739  -19.5988  -16.8511 C   0  0  0  0  0  0  0  0  0  0  0  0
   27.1892  -18.1847  -16.8334 C   0  0  0  0  0  0  0  0  0  0  0  0
   25.9725  -17.3903  -16.4079 C   0  0  0  0  0  0  0  0  0  0  0  0
   25.2033  -18.3061  -15.5142 C   0  0  1  0  0  0  0  0  0  0  0  0
   23.7748  -18.3738  -15.8763 C   0  0  0  0  0  0  0  0  0  0  0  0
   23.3980  -19.2977  -16.6401 O   0  0  0  0  0  0  0  0  0  0  0  0
   22.1166  -20.3388  -11.9326 N   0  0  0  0  0  0  0  0  0  0  0  0
   21.2474  -19.6709  -11.0021 C   0  0  0  0  0  0  0  0  0  0  0  0
   21.1164  -20.1805   -9.8384 N   0  0  0  0  0  0  0  0  0  0  0  0
   20.5757  -18.4894  -11.3880 N   0  0  0  0  0  0  0  0  0  0  0  0
   20.2909  -18.1865  -12.7544 C   0  0  0  0  0  0  0  0  0  0  0  0
   20.8984  -16.9336  -13.2749 C   0  0  0  0  0  0  0  0  0  0  0  0
   20.7313  -16.6369  -14.7153 C   0  0  0  0  0  0  0  0  0  0  0  0
   21.4536  -17.5285  -15.6679 C   0  0  2  0  0  0  0  0  0  0  0  0
   22.8835  -17.4014  -15.3537 N   0  0  0  0  0  0  0  0  0  0  0  0
   21.2230  -17.0194  -17.0601 C   0  0  0  0  0  0  0  0  0  0  0  0
   20.1730  -17.5075  -17.8153 O   0  0  0  0  0  0  0  0  0  0  0  0
   21.9585  -16.1511  -17.5776 O   0  0  0  0  0  0  0  0  0  0  0  0
  2  3  1  1
  2  1  1  0
  4  5  1  1
  4  2  1  0
  6  4  1  0
  7  6  2  0
  8  9  1  0
  8  6  1  0
 10  9  1  0
 11 12  1  0
 11 10  1  0
 12  8  1  0
 13 14  2  0
 12 13  1  6
 16 17  2  0
 16 15  1  0
 18 16  1  0
 19 18  1  0
 20 19  1  0
 20 21  1  0
 22 21  1  1
 22 23  1  0
 23 13  1  0
 24 22  1  0
 25 24  1  0
 26 24  2  0
M  END
$$$$
