VPR.pdb
     RDKit          3D

 26 26  0  0  1  0  0  0  0  0999 V2000
   17.1554  -10.4420  -17.5023 C   0  0  0  0  0  0  0  0  0  0  0  0
   17.4817   -9.7657  -16.2123 C   0  0  1  0  0  0  0  0  0  0  0  0
   16.2913   -9.6686  -15.2831 C   0  0  0  0  0  0  0  0  0  0  0  0
   18.6689  -10.4147  -15.5095 C   0  0  2  0  0  0  0  0  0  0  0  0
   18.4877  -11.8103  -15.5987 N   0  0  0  0  0  0  0  0  0  0  0  0
   18.8807   -9.8197  -14.2001 C   0  0  0  0  0  0  0  0  0  0  0  0
   18.3318  -10.4064  -13.1811 O   0  0  0  0  0  0  0  0  0  0  0  0
   19.6265   -8.6627  -13.9315 N   0  0  0  0  0  0  0  0  0  0  0  0
   20.3324   -7.8330  -14.8488 C   0  0  0  0  0  0  0  0  0  0  0  0
   21.6234   -7.5163  -14.0668 C   0  0  0  0  0  0  0  0  0  0  0  0
   21.0213   -7.1872  -12.7171 C   0  0  0  0  0  0  0  0  0  0  0  0
   19.8113   -8.0552  -12.6091 C   0  0  1  0  0  0  0  0  0  0  0  0
   18.6144   -7.2996  -12.1936 C   0  0  0  0  0  0  0  0  0  0  0  0
   17.6942   -7.1344  -13.0332 O   0  0  0  0  0  0  0  0  0  0  0  0
   12.5247  -10.6658   -8.3982 N   0  0  0  0  0  0  0  0  0  0  0  0
   12.0759   -9.3004   -8.3585 C   0  0  0  0  0  0  0  0  0  0  0  0
   10.9158   -9.0686   -7.8774 N   0  0  0  0  0  0  0  0  0  0  0  0
   12.9128   -8.2687   -8.8393 N   0  0  0  0  0  0  0  0  0  0  0  0
   14.2278   -8.5232   -9.3352 C   0  0  0  0  0  0  0  0  0  0  0  0
   15.0195   -7.3203   -9.7040 C   0  0  0  0  0  0  0  0  0  0  0  0
   16.3837   -7.5336  -10.2370 C   0  0  0  0  0  0  0  0  0  0  0  0
   17.2430   -6.3225  -10.3741 C   0  0  2  0  0  0  0  0  0  0  0  0
   18.5444   -6.7901  -10.8713 N   0  0  0  0  0  0  0  0  0  0  0  0
   17.4384   -5.7243   -9.0123 C   0  0  0  0  0  0  0  0  0  0  0  0
   18.4994   -6.1240   -8.2214 O   0  0  0  0  0  0  0  0  0  0  0  0
   16.6630   -4.8583   -8.5523 O   0  0  0  0  0  0  0  0  0  0  0  0
  2  3  1  1
  2  1  1  0
  4  5  1  1
  4  2  1  0
  6  4  1  0
  7  6  2  0
  8  9  1  0
  8  6  1  0
 10  9  1  0
 11 12  1  0
 11 10  1  0
 12  8  1  0
 13 14  2  0
 12 13  1  6
 16 17  2  0
 16 15  1  0
 18 16  1  0
 19 18  1  0
 20 19  1  0
 20 21  1  0
 22 21  1  1
 22 23  1  0
 23 13  1  0
 24 22  1  0
 25 24  1  0
 26 24  2  0
M  END
$$$$
