VPR.pdb
     RDKit          3D

 26 26  0  0  1  0  0  0  0  0999 V2000
   23.3472  -17.8340  -15.4560 C   0  0  0  0  0  0  0  0  0  0  0  0
   22.8198  -19.1715  -15.0548 C   0  0  1  0  0  0  0  0  0  0  0  0
   21.3658  -19.1279  -14.6379 C   0  0  0  0  0  0  0  0  0  0  0  0
   23.0447  -20.2235  -16.1352 C   0  0  2  0  0  0  0  0  0  0  0  0
   22.5738  -19.6768  -17.3469 N   0  0  0  0  0  0  0  0  0  0  0  0
   22.5371  -21.5171  -15.7082 C   0  0  0  0  0  0  0  0  0  0  0  0
   21.3107  -21.8091  -16.0157 O   0  0  0  0  0  0  0  0  0  0  0  0
   23.2517  -22.4864  -14.9895 N   0  0  0  0  0  0  0  0  0  0  0  0
   24.6086  -22.4460  -14.5588 C   0  0  0  0  0  0  0  0  0  0  0  0
   25.0741  -23.8913  -14.8290 C   0  0  0  0  0  0  0  0  0  0  0  0
   23.8908  -24.6437  -14.2580 C   0  0  0  0  0  0  0  0  0  0  0  0
   22.7116  -23.7635  -14.5109 C   0  0  1  0  0  0  0  0  0  0  0  0
   21.8819  -23.5774  -13.3054 C   0  0  0  0  0  0  0  0  0  0  0  0
   22.1603  -22.6262  -12.5329 O   0  0  0  0  0  0  0  0  0  0  0  0
   13.8030  -21.5701  -12.6939 N   0  0  0  0  0  0  0  0  0  0  0  0
   14.1766  -21.7173  -11.3132 C   0  0  0  0  0  0  0  0  0  0  0  0
   13.3419  -21.3331  -10.4262 N   0  0  0  0  0  0  0  0  0  0  0  0
   15.4305  -22.2749  -10.9775 N   0  0  0  0  0  0  0  0  0  0  0  0
   16.4137  -22.5887  -11.9647 C   0  0  0  0  0  0  0  0  0  0  0  0
   17.6666  -23.2025  -11.4515 C   0  0  0  0  0  0  0  0  0  0  0  0
   18.7231  -23.5299  -12.4350 C   0  0  0  0  0  0  0  0  0  0  0  0
   19.9375  -24.2150  -11.9059 C   0  0  2  0  0  0  0  0  0  0  0  0
   20.8074  -24.4714  -13.0622 N   0  0  0  0  0  0  0  0  0  0  0  0
   19.5206  -25.5317  -11.3201 C   0  0  0  0  0  0  0  0  0  0  0  0
   19.0879  -25.6052  -10.0093 O   0  0  0  0  0  0  0  0  0  0  0  0
   19.5488  -26.5903  -11.9844 O   0  0  0  0  0  0  0  0  0  0  0  0
  2  3  1  6
  2  1  1  0
  4  5  1  6
  4  2  1  0
  6  4  1  0
  7  6  2  0
  8  9  1  0
  8  6  1  0
 10  9  1  0
 11 12  1  0
 11 10  1  0
 12  8  1  0
 13 14  2  0
 12 13  1  1
 16 17  2  0
 16 15  1  0
 18 16  1  0
 19 18  1  0
 20 19  1  0
 20 21  1  0
 22 21  1  6
 22 23  1  0
 23 13  1  0
 24 22  1  0
 25 24  1  0
 26 24  2  0
M  END
$$$$
