VPR.pdb
     RDKit          3D

 26 26  0  0  1  0  0  0  0  0999 V2000
   28.2247  -18.1542  -16.1552 C   0  0  0  0  0  0  0  0  0  0  0  0
   27.1793  -18.7598  -15.2785 C   0  0  1  0  0  0  0  0  0  0  0  0
   25.7747  -18.3712  -15.6861 C   0  0  0  0  0  0  0  0  0  0  0  0
   27.3187  -20.2751  -15.1836 C   0  0  2  0  0  0  0  0  0  0  0  0
   27.3921  -20.7655  -16.5037 N   0  0  0  0  0  0  0  0  0  0  0  0
   26.3177  -20.8292  -14.2868 C   0  0  0  0  0  0  0  0  0  0  0  0
   25.2711  -21.3766  -14.8242 O   0  0  0  0  0  0  0  0  0  0  0  0
   26.3755  -20.8278  -12.8855 N   0  0  0  0  0  0  0  0  0  0  0  0
   27.4021  -20.3130  -12.0434 C   0  0  0  0  0  0  0  0  0  0  0  0
   27.4904  -21.3944  -10.9474 C   0  0  0  0  0  0  0  0  0  0  0  0
   26.0143  -21.5939  -10.6764 C   0  0  0  0  0  0  0  0  0  0  0  0
   25.3427  -21.3583  -11.9889 C   0  0  1  0  0  0  0  0  0  0  0  0
   24.2014  -20.4304  -11.8764 C   0  0  0  0  0  0  0  0  0  0  0  0
   24.3996  -19.2124  -12.1139 O   0  0  0  0  0  0  0  0  0  0  0  0
   21.2728  -22.5082  -17.1456 N   0  0  0  0  0  0  0  0  0  0  0  0
   19.9315  -22.1341  -16.7873 C   0  0  0  0  0  0  0  0  0  0  0  0
   18.9700  -22.7961  -17.3054 N   0  0  0  0  0  0  0  0  0  0  0  0
   19.7135  -21.0676  -15.8867 N   0  0  0  0  0  0  0  0  0  0  0  0
   20.7877  -20.3939  -15.2294 C   0  0  0  0  0  0  0  0  0  0  0  0
   20.9503  -20.7011  -13.7840 C   0  0  0  0  0  0  0  0  0  0  0  0
   21.5313  -19.6490  -12.9202 C   0  0  0  0  0  0  0  0  0  0  0  0
   21.7861  -20.0192  -11.4982 C   0  0  2  0  0  0  0  0  0  0  0  0
   22.9304  -20.9411  -11.5070 N   0  0  0  0  0  0  0  0  0  0  0  0
   20.5853  -20.7524  -10.9776 C   0  0  0  0  0  0  0  0  0  0  0  0
   19.4634  -20.0534  -10.5734 O   0  0  0  0  0  0  0  0  0  0  0  0
   20.5568  -21.9993  -10.8926 O   0  0  0  0  0  0  0  0  0  0  0  0
  2  3  1  6
  2  1  1  0
  4  5  1  6
  4  2  1  0
  6  4  1  0
  7  6  2  0
  8  9  1  0
  8  6  1  0
 10  9  1  0
 11 12  1  0
 11 10  1  0
 12  8  1  0
 13 14  2  0
 12 13  1  1
 16 17  2  0
 16 15  1  0
 18 16  1  0
 19 18  1  0
 20 19  1  0
 20 21  1  0
 22 21  1  6
 22 23  1  0
 23 13  1  0
 24 22  1  0
 25 24  1  0
 26 24  2  0
M  END
$$$$
