VPR.pdb
     RDKit          3D

 26 26  0  0  1  0  0  0  0  0999 V2000
   23.8757  -24.8108  -17.6170 C   0  0  0  0  0  0  0  0  0  0  0  0
   24.1134  -23.9109  -16.4501 C   0  0  1  0  0  0  0  0  0  0  0  0
   25.1641  -24.4454  -15.5014 C   0  0  0  0  0  0  0  0  0  0  0  0
   24.4449  -22.4870  -16.8829 C   0  0  2  0  0  0  0  0  0  0  0  0
   25.4824  -22.5766  -17.8338 N   0  0  0  0  0  0  0  0  0  0  0  0
   24.6298  -21.6267  -15.7257 C   0  0  0  0  0  0  0  0  0  0  0  0
   25.8454  -21.2944  -15.4161 O   0  0  0  0  0  0  0  0  0  0  0  0
   23.6120  -21.1187  -14.9055 N   0  0  0  0  0  0  0  0  0  0  0  0
   22.2099  -21.3540  -14.9879 C   0  0  0  0  0  0  0  0  0  0  0  0
   21.6320  -19.9544  -14.6952 C   0  0  0  0  0  0  0  0  0  0  0  0
   22.4900  -19.5754  -13.5067 C   0  0  0  0  0  0  0  0  0  0  0  0
   23.8081  -20.2318  -13.7536 C   0  0  1  0  0  0  0  0  0  0  0  0
   24.2916  -20.9789  -12.5771 C   0  0  0  0  0  0  0  0  0  0  0  0
   23.8251  -22.1270  -12.3688 O   0  0  0  0  0  0  0  0  0  0  0  0
   32.2991  -21.6466  -10.0487 N   0  0  0  0  0  0  0  0  0  0  0  0
   31.7454  -22.2373  -11.2370 C   0  0  0  0  0  0  0  0  0  0  0  0
   32.5104  -22.9713  -11.9491 N   0  0  0  0  0  0  0  0  0  0  0  0
   30.3956  -21.9995  -11.5796 N   0  0  0  0  0  0  0  0  0  0  0  0
   29.4439  -21.5117  -10.6330 C   0  0  0  0  0  0  0  0  0  0  0  0
   28.1071  -21.1678  -11.1848 C   0  0  0  0  0  0  0  0  0  0  0  0
   27.0739  -20.6957  -10.2358 C   0  0  0  0  0  0  0  0  0  0  0  0
   25.6692  -21.1080  -10.5200 C   0  0  2  0  0  0  0  0  0  0  0  0
   25.2586  -20.3803  -11.7289 N   0  0  0  0  0  0  0  0  0  0  0  0
   24.8050  -20.6628   -9.3774 C   0  0  0  0  0  0  0  0  0  0  0  0
   24.6000  -21.4957   -8.2933 O   0  0  0  0  0  0  0  0  0  0  0  0
   24.2496  -19.5429   -9.3648 O   0  0  0  0  0  0  0  0  0  0  0  0
  2  3  1  6
  2  1  1  0
  4  5  1  1
  4  2  1  0
  6  4  1  0
  7  6  2  0
  8  9  1  0
  8  6  1  0
 10  9  1  0
 11 12  1  0
 11 10  1  0
 12  8  1  0
 13 14  2  0
 12 13  1  1
 16 17  2  0
 16 15  1  0
 18 16  1  0
 19 18  1  0
 20 19  1  0
 20 21  1  0
 22 21  1  1
 22 23  1  0
 23 13  1  0
 24 22  1  0
 25 24  1  0
 26 24  2  0
M  END
$$$$
