VPR.pdb
     RDKit          3D

 26 26  0  0  1  0  0  0  0  0999 V2000
   23.5712  -16.0534  -17.9813 C   0  0  0  0  0  0  0  0  0  0  0  0
   23.8977  -17.0426  -16.9123 C   0  0  1  0  0  0  0  0  0  0  0  0
   22.6653  -17.6607  -16.2886 C   0  0  0  0  0  0  0  0  0  0  0  0
   24.8579  -18.1204  -17.4031 C   0  0  2  0  0  0  0  0  0  0  0  0
   24.3118  -18.6486  -18.5911 N   0  0  0  0  0  0  0  0  0  0  0  0
   25.2016  -19.0336  -16.3255 C   0  0  0  0  0  0  0  0  0  0  0  0
   24.4713  -20.0973  -16.1876 O   0  0  0  0  0  0  0  0  0  0  0  0
   26.2547  -18.8729  -15.4133 N   0  0  0  0  0  0  0  0  0  0  0  0
   27.1822  -17.7967  -15.3144 C   0  0  0  0  0  0  0  0  0  0  0  0
   28.5027  -18.5373  -15.0208 C   0  0  0  0  0  0  0  0  0  0  0  0
   28.0145  -19.5053  -13.9640 C   0  0  0  0  0  0  0  0  0  0  0  0
   26.6007  -19.8075  -14.3370 C   0  0  1  0  0  0  0  0  0  0  0  0
   25.6783  -19.6744  -13.1934 C   0  0  0  0  0  0  0  0  0  0  0  0
   25.2012  -18.5392  -12.9433 O   0  0  0  0  0  0  0  0  0  0  0  0
   18.7934  -24.2386  -10.8995 N   0  0  0  0  0  0  0  0  0  0  0  0
   18.8029  -23.1346   -9.9784 C   0  0  0  0  0  0  0  0  0  0  0  0
   17.7710  -22.9612   -9.2462 N   0  0  0  0  0  0  0  0  0  0  0  0
   19.9311  -22.2876   -9.9042 N   0  0  0  0  0  0  0  0  0  0  0  0
   21.0705  -22.4607  -10.7478 C   0  0  0  0  0  0  0  0  0  0  0  0
   22.0973  -21.3886  -10.6689 C   0  0  0  0  0  0  0  0  0  0  0  0
   23.2049  -21.4259  -11.6499 C   0  0  0  0  0  0  0  0  0  0  0  0
   24.4395  -20.6702  -11.2909 C   0  0  2  0  0  0  0  0  0  0  0  0
   25.3647  -20.8233  -12.4223 N   0  0  0  0  0  0  0  0  0  0  0  0
   25.0525  -21.3123  -10.0816 C   0  0  0  0  0  0  0  0  0  0  0  0
   24.7774  -20.8235   -8.8182 O   0  0  0  0  0  0  0  0  0  0  0  0
   25.8201  -22.2950  -10.1715 O   0  0  0  0  0  0  0  0  0  0  0  0
  2  3  1  6
  2  1  1  0
  4  5  1  6
  4  2  1  0
  6  4  1  0
  7  6  2  0
  8  9  1  0
  8  6  1  0
 10  9  1  0
 11 12  1  0
 11 10  1  0
 12  8  1  0
 13 14  2  0
 12 13  1  1
 16 17  2  0
 16 15  1  0
 18 16  1  0
 19 18  1  0
 20 19  1  0
 20 21  1  0
 22 21  1  6
 22 23  1  0
 23 13  1  0
 24 22  1  0
 25 24  1  0
 26 24  2  0
M  END
$$$$
