VPR.pdb
     RDKit          3D

 26 26  0  0  1  0  0  0  0  0999 V2000
   29.8564  -26.6140  -16.3195 C   0  0  0  0  0  0  0  0  0  0  0  0
   30.7144  -26.1897  -17.4648 C   0  0  1  0  0  0  0  0  0  0  0  0
   29.9210  -25.9249  -18.7258 C   0  0  0  0  0  0  0  0  0  0  0  0
   31.5903  -24.9927  -17.1116 C   0  0  2  0  0  0  0  0  0  0  0  0
   32.5548  -25.4462  -16.1882 N   0  0  0  0  0  0  0  0  0  0  0  0
   30.7735  -23.8424  -16.7609 C   0  0  0  0  0  0  0  0  0  0  0  0
   30.5470  -23.6321  -15.5006 O   0  0  0  0  0  0  0  0  0  0  0  0
   30.2021  -22.9320  -17.6617 N   0  0  0  0  0  0  0  0  0  0  0  0
   30.2656  -22.9377  -19.0844 C   0  0  0  0  0  0  0  0  0  0  0  0
   30.4584  -21.4411  -19.4030 C   0  0  0  0  0  0  0  0  0  0  0  0
   29.4162  -20.8539  -18.4749 C   0  0  0  0  0  0  0  0  0  0  0  0
   29.3847  -21.7700  -17.2964 C   0  0  1  0  0  0  0  0  0  0  0  0
   28.0120  -22.1717  -16.9349 C   0  0  0  0  0  0  0  0  0  0  0  0
   27.5331  -23.2020  -17.4716 O   0  0  0  0  0  0  0  0  0  0  0  0
   22.0751  -19.4430  -12.8837 N   0  0  0  0  0  0  0  0  0  0  0  0
   21.8069  -20.5791  -12.0442 C   0  0  0  0  0  0  0  0  0  0  0  0
   20.6137  -20.7352  -11.6166 N   0  0  0  0  0  0  0  0  0  0  0  0
   22.8472  -21.4790  -11.7218 N   0  0  0  0  0  0  0  0  0  0  0  0
   24.1791  -21.3100  -12.2090 C   0  0  0  0  0  0  0  0  0  0  0  0
   24.3858  -21.6430  -13.6430 C   0  0  0  0  0  0  0  0  0  0  0  0
   25.7434  -21.4555  -14.2020 C   0  0  0  0  0  0  0  0  0  0  0  0
   25.9299  -21.8185  -15.6364 C   0  0  2  0  0  0  0  0  0  0  0  0
   27.2864  -21.3872  -16.0016 N   0  0  0  0  0  0  0  0  0  0  0  0
   24.9437  -21.0381  -16.4541 C   0  0  0  0  0  0  0  0  0  0  0  0
   23.7219  -21.5922  -16.7876 O   0  0  0  0  0  0  0  0  0  0  0  0
   25.1868  -19.8795  -16.8558 O   0  0  0  0  0  0  0  0  0  0  0  0
  2  3  1  6
  2  1  1  0
  4  5  1  1
  4  2  1  0
  6  4  1  0
  7  6  2  0
  8  9  1  0
  8  6  1  0
 10  9  1  0
 11 12  1  0
 11 10  1  0
 12  8  1  0
 13 14  2  0
 12 13  1  6
 16 17  2  0
 16 15  1  0
 18 16  1  0
 19 18  1  0
 20 19  1  0
 20 21  1  0
 22 21  1  1
 22 23  1  0
 23 13  1  0
 24 22  1  0
 25 24  1  0
 26 24  2  0
M  END
$$$$
