VPR.pdb
     RDKit          3D

 26 26  0  0  1  0  0  0  0  0999 V2000
   24.0047  -18.2866  -18.6232 C   0  0  0  0  0  0  0  0  0  0  0  0
   23.6962  -19.3465  -17.6185 C   0  0  1  0  0  0  0  0  0  0  0  0
   24.2155  -20.7086  -18.0242 C   0  0  0  0  0  0  0  0  0  0  0  0
   24.1832  -18.9721  -16.2230 C   0  0  2  0  0  0  0  0  0  0  0  0
   23.7127  -19.9673  -15.3417 N   0  0  0  0  0  0  0  0  0  0  0  0
   23.8840  -17.5801  -15.9293 C   0  0  0  0  0  0  0  0  0  0  0  0
   22.6629  -17.2875  -15.6018 O   0  0  0  0  0  0  0  0  0  0  0  0
   24.7960  -16.5153  -15.9672 N   0  0  0  0  0  0  0  0  0  0  0  0
   26.1612  -16.5345  -16.3722 C   0  0  0  0  0  0  0  0  0  0  0  0
   26.8198  -15.6155  -15.3233 C   0  0  0  0  0  0  0  0  0  0  0  0
   25.8174  -14.4807  -15.3236 C   0  0  0  0  0  0  0  0  0  0  0  0
   24.5000  -15.1257  -15.6021 C   0  0  1  0  0  0  0  0  0  0  0  0
   23.7535  -14.4370  -16.6720 C   0  0  0  0  0  0  0  0  0  0  0  0
   23.4970  -15.0750  -17.7237 O   0  0  0  0  0  0  0  0  0  0  0  0
   16.7877  -15.8816  -18.7450 N   0  0  0  0  0  0  0  0  0  0  0  0
   16.6973  -14.4969  -19.1218 C   0  0  0  0  0  0  0  0  0  0  0  0
   15.6577  -14.1203  -19.7609 N   0  0  0  0  0  0  0  0  0  0  0  0
   17.7372  -13.6037  -18.7801 N   0  0  0  0  0  0  0  0  0  0  0  0
   18.8805  -14.0165  -18.0303 C   0  0  0  0  0  0  0  0  0  0  0  0
   19.7640  -12.9215  -17.5505 C   0  0  0  0  0  0  0  0  0  0  0  0
   21.0270  -13.3030  -16.8796 C   0  0  0  0  0  0  0  0  0  0  0  0
   22.2536  -12.5650  -17.2979 C   0  0  2  0  0  0  0  0  0  0  0  0
   23.3544  -13.0894  -16.4777 N   0  0  0  0  0  0  0  0  0  0  0  0
   22.0656  -11.1125  -16.9734 C   0  0  0  0  0  0  0  0  0  0  0  0
   21.5467  -10.2487  -17.9197 O   0  0  0  0  0  0  0  0  0  0  0  0
   22.3658  -10.6397  -15.8557 O   0  0  0  0  0  0  0  0  0  0  0  0
  2  3  1  6
  2  1  1  0
  4  5  1  1
  4  2  1  0
  6  4  1  0
  7  6  2  0
  8  9  1  0
  8  6  1  0
 10  9  1  0
 11 12  1  0
 11 10  1  0
 12  8  1  0
 13 14  2  0
 12 13  1  6
 16 17  2  0
 16 15  1  0
 18 16  1  0
 19 18  1  0
 20 19  1  0
 20 21  1  0
 22 21  1  1
 22 23  1  0
 23 13  1  0
 24 22  1  0
 25 24  1  0
 26 24  2  0
M  END
$$$$
