VPR.pdb
     RDKit          3D

 26 26  0  0  1  0  0  0  0  0999 V2000
   27.8368  -17.5461  -15.9681 C   0  0  0  0  0  0  0  0  0  0  0  0
   26.8338  -18.4151  -15.2848 C   0  0  1  0  0  0  0  0  0  0  0  0
   25.4628  -18.3407  -15.9209 C   0  0  0  0  0  0  0  0  0  0  0  0
   27.3064  -19.8608  -15.1782 C   0  0  2  0  0  0  0  0  0  0  0  0
   27.6107  -20.2921  -16.4859 N   0  0  0  0  0  0  0  0  0  0  0  0
   26.3806  -20.6479  -14.3803 C   0  0  0  0  0  0  0  0  0  0  0  0
   25.5916  -21.4627  -15.0106 O   0  0  0  0  0  0  0  0  0  0  0  0
   26.2576  -20.6095  -12.9837 N   0  0  0  0  0  0  0  0  0  0  0  0
   27.0041  -19.8340  -12.0513 C   0  0  0  0  0  0  0  0  0  0  0  0
   27.2243  -20.8386  -10.9021 C   0  0  0  0  0  0  0  0  0  0  0  0
   25.8252  -21.4080  -10.7991 C   0  0  0  0  0  0  0  0  0  0  0  0
   25.2882  -21.3744  -12.1918 C   0  0  1  0  0  0  0  0  0  0  0  0
   23.9439  -20.7707  -12.2601 C   0  0  0  0  0  0  0  0  0  0  0  0
   23.8537  -19.5512  -12.5490 O   0  0  0  0  0  0  0  0  0  0  0  0
   17.3498  -25.2384   -8.9301 N   0  0  0  0  0  0  0  0  0  0  0  0
   18.0930  -24.4140   -8.0160 C   0  0  0  0  0  0  0  0  0  0  0  0
   17.8573  -24.5468   -6.7679 N   0  0  0  0  0  0  0  0  0  0  0  0
   19.0489  -23.4984   -8.5097 N   0  0  0  0  0  0  0  0  0  0  0  0
   19.3351  -23.3730   -9.9034 C   0  0  0  0  0  0  0  0  0  0  0  0
   20.2701  -22.2775  -10.2713 C   0  0  0  0  0  0  0  0  0  0  0  0
   20.4972  -22.0241  -11.7118 C   0  0  0  0  0  0  0  0  0  0  0  0
   21.4804  -20.9564  -12.0542 C   0  0  2  0  0  0  0  0  0  0  0  0
   22.8092  -21.5815  -11.9995 N   0  0  0  0  0  0  0  0  0  0  0  0
   21.4091  -19.8917  -10.9998 C   0  0  0  0  0  0  0  0  0  0  0  0
   22.3224  -19.8766   -9.9622 O   0  0  0  0  0  0  0  0  0  0  0  0
   20.5373  -18.9960  -11.0215 O   0  0  0  0  0  0  0  0  0  0  0  0
  2  3  1  6
  2  1  1  0
  4  5  1  6
  4  2  1  0
  6  4  1  0
  7  6  2  0
  8  9  1  0
  8  6  1  0
 10  9  1  0
 11 12  1  0
 11 10  1  0
 12  8  1  0
 13 14  2  0
 12 13  1  1
 16 17  2  0
 16 15  1  0
 18 16  1  0
 19 18  1  0
 20 19  1  0
 20 21  1  0
 22 21  1  1
 22 23  1  0
 23 13  1  0
 24 22  1  0
 25 24  1  0
 26 24  2  0
M  END
$$$$
