VPR.pdb
     RDKit          3D

 26 26  0  0  1  0  0  0  0  0999 V2000
   30.2825  -21.3659  -12.7017 C   0  0  0  0  0  0  0  0  0  0  0  0
   28.9289  -20.8610  -13.0769 C   0  0  1  0  0  0  0  0  0  0  0  0
   27.9198  -21.9727  -13.2662 C   0  0  0  0  0  0  0  0  0  0  0  0
   28.4123  -19.8193  -12.0907 C   0  0  2  0  0  0  0  0  0  0  0  0
   28.4905  -20.3944  -10.8055 N   0  0  0  0  0  0  0  0  0  0  0  0
   27.1404  -19.2743  -12.5363 C   0  0  0  0  0  0  0  0  0  0  0  0
   26.1021  -19.4923  -11.7892 O   0  0  0  0  0  0  0  0  0  0  0  0
   26.9270  -18.5305  -13.7060 N   0  0  0  0  0  0  0  0  0  0  0  0
   27.8821  -18.1193  -14.6789 C   0  0  0  0  0  0  0  0  0  0  0  0
   27.4180  -16.6835  -14.9973 C   0  0  0  0  0  0  0  0  0  0  0  0
   25.9300  -16.9282  -15.1328 C   0  0  0  0  0  0  0  0  0  0  0  0
   25.6291  -18.0338  -14.1757 C   0  0  1  0  0  0  0  0  0  0  0  0
   24.8344  -19.1112  -14.7954 C   0  0  0  0  0  0  0  0  0  0  0  0
   25.4467  -20.0640  -15.3398 O   0  0  0  0  0  0  0  0  0  0  0  0
   19.4389  -22.4379   -9.9949 N   0  0  0  0  0  0  0  0  0  0  0  0
   20.7854  -21.9336   -9.9956 C   0  0  0  0  0  0  0  0  0  0  0  0
   21.5001  -22.1427   -8.9580 N   0  0  0  0  0  0  0  0  0  0  0  0
   21.2768  -21.2363  -11.1218 N   0  0  0  0  0  0  0  0  0  0  0  0
   20.4123  -20.7169  -12.1331 C   0  0  0  0  0  0  0  0  0  0  0  0
   21.0888  -20.0461  -13.2743 C   0  0  0  0  0  0  0  0  0  0  0  0
   22.0490  -20.8450  -14.0683 C   0  0  0  0  0  0  0  0  0  0  0  0
   22.6455  -20.1778  -15.2612 C   0  0  2  0  0  0  0  0  0  0  0  0
   23.4183  -19.0347  -14.7555 N   0  0  0  0  0  0  0  0  0  0  0  0
   21.5304  -19.6585  -16.1200 C   0  0  0  0  0  0  0  0  0  0  0  0
   21.2957  -18.2993  -16.2104 O   0  0  0  0  0  0  0  0  0  0  0  0
   20.7872  -20.4227  -16.7731 O   0  0  0  0  0  0  0  0  0  0  0  0
  2  3  1  1
  2  1  1  0
  4  5  1  1
  4  2  1  0
  6  4  1  0
  7  6  2  0
  8  9  1  0
  8  6  1  0
 10  9  1  0
 11 12  1  0
 11 10  1  0
 12  8  1  0
 13 14  2  0
 12 13  1  6
 16 17  2  0
 16 15  1  0
 18 16  1  0
 19 18  1  0
 20 19  1  0
 20 21  1  0
 22 21  1  1
 22 23  1  0
 23 13  1  0
 24 22  1  0
 25 24  1  0
 26 24  2  0
M  END
$$$$
