PKN.pdb
     RDKit          3D

 25 25  0  0  1  0  0  0  0  0999 V2000
   27.1850  -19.5612  -16.6507 N   0  0  0  0  0  0  0  0  0  0  0  0
   27.6491  -18.9020  -17.8563 C   0  0  0  0  0  0  0  0  0  0  0  0
   27.4505  -17.4010  -17.6020 C   0  0  0  0  0  0  0  0  0  0  0  0
   27.7842  -17.3410  -16.1258 C   0  0  0  0  0  0  0  0  0  0  0  0
   27.0942  -18.5855  -15.6141 C   0  0  1  0  0  0  0  0  0  0  0  0
   25.6647  -18.2407  -15.2791 C   0  0  0  0  0  0  0  0  0  0  0  0
   25.4337  -17.3745  -14.3925 O   0  0  0  0  0  0  0  0  0  0  0  0
   24.5737  -18.8643  -15.9347 N   0  0  0  0  0  0  0  0  0  0  0  0
   23.1913  -18.5451  -15.5025 C   0  0  1  0  0  0  0  0  0  0  0  0
   22.3238  -18.4858  -16.7410 C   0  0  0  0  0  0  0  0  0  0  0  0
   20.8952  -18.1772  -16.4608 C   0  0  0  0  0  0  0  0  0  0  0  0
   20.1556  -18.2429  -17.8018 C   0  0  0  0  0  0  0  0  0  0  0  0
   18.7135  -17.8380  -17.5984 C   0  0  0  0  0  0  0  0  0  0  0  0
   18.0185  -17.9162  -18.8906 N   0  0  0  0  0  0  0  0  0  0  0  0
   22.7902  -19.5541  -14.5188 C   0  0  0  0  0  0  0  0  0  0  0  0
   23.1828  -20.7437  -14.6901 O   0  0  0  0  0  0  0  0  0  0  0  0
   23.2299  -21.0496   -8.9388 N   0  0  0  0  0  0  0  0  0  0  0  0
   22.5472  -21.0689  -10.1927 C   0  0  0  0  0  0  0  0  0  0  0  0
   21.7129  -21.9732  -10.4230 O   0  0  0  0  0  0  0  0  0  0  0  0
   22.8039  -20.0457  -11.2239 C   0  0  0  0  0  0  0  0  0  0  0  0
   21.7524  -20.0559  -12.2640 C   0  0  2  0  0  0  0  0  0  0  0  0
   21.9923  -19.2257  -13.4032 N   0  0  0  0  0  0  0  0  0  0  0  0
   20.3693  -20.0799  -11.7741 C   0  0  0  0  0  0  0  0  0  0  0  0
   19.9900  -19.3459  -10.6523 O   0  0  0  0  0  0  0  0  0  0  0  0
   19.4532  -20.7393  -12.3156 O   0  0  0  0  0  0  0  0  0  0  0  0
  1  2  1  0
  2  3  1  0
  4  3  1  0
  5  1  1  0
  5  4  1  0
  5  6  1  6
  7  6  2  0
  8  6  1  0
  9  8  1  0
  9 10  1  6
 10 11  1  0
 11 12  1  0
 12 13  1  0
 13 14  1  0
 15 22  1  0
 15  9  1  0
 16 15  2  0
 18 19  2  0
 18 17  1  0
 21 20  1  1
 20 18  1  0
 21 23  1  0
 21 22  1  0
 23 24  1  0
 25 23  2  0
M  END
$$$$
