PKN.pdb
     RDKit          3D

 25 25  0  0  1  0  0  0  0  0999 V2000
   27.2251  -17.0846  -17.2553 N   0  0  0  0  0  0  0  0  0  0  0  0
   28.4461  -17.3751  -17.9821 C   0  0  0  0  0  0  0  0  0  0  0  0
   28.0092  -18.2068  -19.1964 C   0  0  0  0  0  0  0  0  0  0  0  0
   26.6852  -17.5392  -19.5060 C   0  0  0  0  0  0  0  0  0  0  0  0
   26.1188  -17.3439  -18.1175 C   0  0  1  0  0  0  0  0  0  0  0  0
   25.3687  -18.5915  -17.7233 C   0  0  0  0  0  0  0  0  0  0  0  0
   24.3494  -18.9296  -18.3841 O   0  0  0  0  0  0  0  0  0  0  0  0
   25.7790  -19.3944  -16.6297 N   0  0  0  0  0  0  0  0  0  0  0  0
   24.9469  -20.5560  -16.2324 C   0  0  1  0  0  0  0  0  0  0  0  0
   25.8803  -21.6561  -15.7755 C   0  0  0  0  0  0  0  0  0  0  0  0
   26.8491  -22.0943  -16.8168 C   0  0  0  0  0  0  0  0  0  0  0  0
   27.6611  -23.2448  -16.2115 C   0  0  0  0  0  0  0  0  0  0  0  0
   28.7425  -23.6595  -17.1829 C   0  0  0  0  0  0  0  0  0  0  0  0
   29.6461  -24.5988  -16.5046 N   0  0  0  0  0  0  0  0  0  0  0  0
   23.9974  -20.0943  -15.2165 C   0  0  0  0  0  0  0  0  0  0  0  0
   24.3959  -19.2444  -14.3694 O   0  0  0  0  0  0  0  0  0  0  0  0
   19.3461  -17.2192  -15.3236 N   0  0  0  0  0  0  0  0  0  0  0  0
   20.4274  -17.6494  -14.4963 C   0  0  0  0  0  0  0  0  0  0  0  0
   20.3855  -17.4239  -13.2657 O   0  0  0  0  0  0  0  0  0  0  0  0
   21.5942  -18.3541  -15.0604 C   0  0  0  0  0  0  0  0  0  0  0  0
   21.5136  -19.8100  -14.8126 C   0  0  2  0  0  0  0  0  0  0  0  0
   22.6704  -20.5699  -15.1717 N   0  0  0  0  0  0  0  0  0  0  0  0
   20.2216  -20.4385  -15.1110 C   0  0  0  0  0  0  0  0  0  0  0  0
   19.3971  -20.9088  -14.0911 O   0  0  0  0  0  0  0  0  0  0  0  0
   19.7755  -20.5899  -16.2709 O   0  0  0  0  0  0  0  0  0  0  0  0
  1  2  1  0
  2  3  1  0
  4  3  1  0
  5  1  1  0
  5  4  1  0
  5  6  1  1
  7  6  2  0
  8  6  1  0
  9  8  1  0
  9 10  1  1
 10 11  1  0
 11 12  1  0
 12 13  1  0
 13 14  1  0
 15 22  1  0
 15  9  1  0
 16 15  2  0
 18 19  2  0
 18 17  1  0
 21 20  1  6
 20 18  1  0
 21 23  1  0
 21 22  1  0
 23 24  1  0
 25 23  2  0
M  END
$$$$
