PKN.pdb
     RDKit          3D

 25 25  0  0  1  0  0  0  0  0999 V2000
   18.7382  -13.1802  -15.3456 N   0  0  0  0  0  0  0  0  0  0  0  0
   18.2499  -14.1750  -16.2812 C   0  0  0  0  0  0  0  0  0  0  0  0
   18.5823  -13.6218  -17.6743 C   0  0  0  0  0  0  0  0  0  0  0  0
   19.9113  -12.9574  -17.3799 C   0  0  0  0  0  0  0  0  0  0  0  0
   19.6310  -12.3120  -16.0414 C   0  0  1  0  0  0  0  0  0  0  0  0
   19.0312  -10.9490  -16.2797 C   0  0  0  0  0  0  0  0  0  0  0  0
   19.5309  -10.2048  -17.1664 O   0  0  0  0  0  0  0  0  0  0  0  0
   17.9202  -10.4821  -15.5336 N   0  0  0  0  0  0  0  0  0  0  0  0
   17.3818   -9.1278  -15.8080 C   0  0  1  0  0  0  0  0  0  0  0  0
   15.8987   -9.1524  -15.5081 C   0  0  0  0  0  0  0  0  0  0  0  0
   15.1194  -10.0540  -16.3995 C   0  0  0  0  0  0  0  0  0  0  0  0
   13.6744  -10.0432  -15.8883 C   0  0  0  0  0  0  0  0  0  0  0  0
   12.8614  -11.0540  -16.6644 C   0  0  0  0  0  0  0  0  0  0  0  0
   13.5332  -12.3581  -16.5817 N   0  0  0  0  0  0  0  0  0  0  0  0
   18.1546   -8.1732  -15.0090 C   0  0  0  0  0  0  0  0  0  0  0  0
   18.4138   -8.4722  -13.8081 O   0  0  0  0  0  0  0  0  0  0  0  0
   22.8522   -4.7814  -14.0929 N   0  0  0  0  0  0  0  0  0  0  0  0
   21.4334   -4.9375  -14.1300 C   0  0  0  0  0  0  0  0  0  0  0  0
   20.7106   -4.1254  -13.5096 O   0  0  0  0  0  0  0  0  0  0  0  0
   20.8000   -6.0360  -14.8839 C   0  0  0  0  0  0  0  0  0  0  0  0
   19.3251   -5.9336  -14.8449 C   0  0  2  0  0  0  0  0  0  0  0  0
   18.6091   -6.9520  -15.5484 N   0  0  0  0  0  0  0  0  0  0  0  0
   18.7755   -4.5773  -14.9555 C   0  0  0  0  0  0  0  0  0  0  0  0
   18.5657   -3.9849  -16.1990 O   0  0  0  0  0  0  0  0  0  0  0  0
   18.4593   -3.8746  -13.9690 O   0  0  0  0  0  0  0  0  0  0  0  0
  1  2  1  0
  2  3  1  0
  4  3  1  0
  5  1  1  0
  5  4  1  0
  5  6  1  6
  7  6  2  0
  8  6  1  0
  9  8  1  0
  9 10  1  1
 10 11  1  0
 11 12  1  0
 12 13  1  0
 13 14  1  0
 15 22  1  0
 15  9  1  0
 16 15  2  0
 18 19  2  0
 18 17  1  0
 21 20  1  6
 20 18  1  0
 21 23  1  0
 21 22  1  0
 23 24  1  0
 25 23  2  0
M  END
$$$$
