PKN.pdb
     RDKit          3D

 25 25  0  0  1  0  0  0  0  0999 V2000
   21.0626  -14.0883  -19.1985 N   0  0  0  0  0  0  0  0  0  0  0  0
   20.2762  -15.2831  -19.4379 C   0  0  0  0  0  0  0  0  0  0  0  0
   18.9944  -14.7955  -20.1281 C   0  0  0  0  0  0  0  0  0  0  0  0
   19.5640  -13.6743  -20.9724 C   0  0  0  0  0  0  0  0  0  0  0  0
   20.5342  -13.0361  -20.0038 C   0  0  1  0  0  0  0  0  0  0  0  0
   19.7927  -12.0090  -19.1855 C   0  0  0  0  0  0  0  0  0  0  0  0
   19.2583  -11.0277  -19.7698 O   0  0  0  0  0  0  0  0  0  0  0  0
   19.6800  -12.1174  -17.7767 N   0  0  0  0  0  0  0  0  0  0  0  0
   18.8401  -11.1416  -17.0406 C   0  0  1  0  0  0  0  0  0  0  0  0
   18.1269  -11.8895  -15.9352 C   0  0  0  0  0  0  0  0  0  0  0  0
   16.9945  -12.7299  -16.4106 C   0  0  0  0  0  0  0  0  0  0  0  0
   16.3653  -13.3709  -15.1685 C   0  0  0  0  0  0  0  0  0  0  0  0
   15.2005  -14.2380  -15.5883 C   0  0  0  0  0  0  0  0  0  0  0  0
   14.5300  -14.7383  -14.3804 N   0  0  0  0  0  0  0  0  0  0  0  0
   19.7152  -10.0585  -16.5846 C   0  0  0  0  0  0  0  0  0  0  0  0
   20.8891  -10.3535  -16.2192 O   0  0  0  0  0  0  0  0  0  0  0  0
   21.7058   -4.7542  -16.4446 N   0  0  0  0  0  0  0  0  0  0  0  0
   20.4632   -5.2189  -15.9167 C   0  0  0  0  0  0  0  0  0  0  0  0
   20.0148   -4.7096  -14.8648 O   0  0  0  0  0  0  0  0  0  0  0  0
   19.6956   -6.2873  -16.5842 C   0  0  0  0  0  0  0  0  0  0  0  0
   19.9957   -7.6113  -15.9970 C   0  0  2  0  0  0  0  0  0  0  0  0
   19.2794   -8.7176  -16.5515 N   0  0  0  0  0  0  0  0  0  0  0  0
   20.1802   -7.6378  -14.5414 C   0  0  0  0  0  0  0  0  0  0  0  0
   21.4012   -7.2954  -13.9641 O   0  0  0  0  0  0  0  0  0  0  0  0
   19.2783   -7.9564  -13.7338 O   0  0  0  0  0  0  0  0  0  0  0  0
  1  2  1  0
  2  3  1  0
  4  3  1  0
  5  1  1  0
  5  4  1  0
  5  6  1  1
  7  6  2  0
  8  6  1  0
  9  8  1  0
  9 10  1  1
 10 11  1  0
 11 12  1  0
 12 13  1  0
 13 14  1  0
 15 22  1  0
 15  9  1  0
 16 15  2  0
 18 19  2  0
 18 17  1  0
 21 20  1  1
 20 18  1  0
 21 23  1  0
 21 22  1  0
 23 24  1  0
 25 23  2  0
M  END
$$$$
