PKN.pdb
     RDKit          3D

 25 25  0  0  1  0  0  0  0  0999 V2000
   26.4302  -17.1266  -16.7197 N   0  0  0  0  0  0  0  0  0  0  0  0
   27.5809  -16.4238  -16.1855 C   0  0  0  0  0  0  0  0  0  0  0  0
   28.5841  -17.5199  -15.7990 C   0  0  0  0  0  0  0  0  0  0  0  0
   28.3301  -18.5107  -16.9162 C   0  0  0  0  0  0  0  0  0  0  0  0
   26.8219  -18.4658  -17.0161 C   0  0  1  0  0  0  0  0  0  0  0  0
   26.2445  -19.4586  -16.0386 C   0  0  0  0  0  0  0  0  0  0  0  0
   26.4805  -20.6868  -16.1993 O   0  0  0  0  0  0  0  0  0  0  0  0
   25.4436  -19.0479  -14.9437 N   0  0  0  0  0  0  0  0  0  0  0  0
   24.9080  -20.0721  -14.0144 C   0  0  1  0  0  0  0  0  0  0  0  0
   25.3468  -19.6986  -12.6151 C   0  0  0  0  0  0  0  0  0  0  0  0
   24.7895  -20.5809  -11.5541 C   0  0  0  0  0  0  0  0  0  0  0  0
   25.2275  -19.9894  -10.2096 C   0  0  0  0  0  0  0  0  0  0  0  0
   24.7580  -20.8898   -9.0898 C   0  0  0  0  0  0  0  0  0  0  0  0
   25.1981  -20.3152   -7.8111 N   0  0  0  0  0  0  0  0  0  0  0  0
   23.4570  -20.1313  -14.2083 C   0  0  0  0  0  0  0  0  0  0  0  0
   22.8172  -19.0421  -14.2634 O   0  0  0  0  0  0  0  0  0  0  0  0
   18.8745  -23.4137  -16.1401 N   0  0  0  0  0  0  0  0  0  0  0  0
   19.4380  -22.9636  -14.9078 C   0  0  0  0  0  0  0  0  0  0  0  0
   18.6777  -22.6016  -13.9817 O   0  0  0  0  0  0  0  0  0  0  0  0
   20.8980  -22.9155  -14.7019 C   0  0  0  0  0  0  0  0  0  0  0  0
   21.3626  -21.5302  -14.4723 C   0  0  2  0  0  0  0  0  0  0  0  0
   22.7758  -21.3595  -14.3365 N   0  0  0  0  0  0  0  0  0  0  0  0
   20.5343  -20.7193  -13.5724 C   0  0  0  0  0  0  0  0  0  0  0  0
   20.7598  -20.7120  -12.1975 O   0  0  0  0  0  0  0  0  0  0  0  0
   19.5938  -19.9914  -13.9631 O   0  0  0  0  0  0  0  0  0  0  0  0
  1  2  1  0
  2  3  1  0
  4  3  1  0
  5  1  1  0
  5  4  1  0
  5  6  1  1
  7  6  2  0
  8  6  1  0
  9  8  1  0
  9 10  1  1
 10 11  1  0
 11 12  1  0
 12 13  1  0
 13 14  1  0
 15 22  1  0
 15  9  1  0
 16 15  2  0
 18 19  2  0
 18 17  1  0
 21 20  1  1
 20 18  1  0
 21 23  1  0
 21 22  1  0
 23 24  1  0
 25 23  2  0
M  END
$$$$
