PKN.pdb
     RDKit          3D

 25 25  0  0  1  0  0  0  0  0999 V2000
   43.6243  -11.9159   -7.4261 N   0  0  0  0  0  0  0  0  0  0  0  0
   44.5261  -12.9909   -7.7928 C   0  0  0  0  0  0  0  0  0  0  0  0
   45.3292  -12.4589   -8.9883 C   0  0  0  0  0  0  0  0  0  0  0  0
   45.4679  -11.0061   -8.5826 C   0  0  0  0  0  0  0  0  0  0  0  0
   44.0858  -10.7150   -8.0423 C   0  0  1  0  0  0  0  0  0  0  0  0
   43.2020  -10.2849   -9.1862 C   0  0  0  0  0  0  0  0  0  0  0  0
   43.4935   -9.2393   -9.8278 O   0  0  0  0  0  0  0  0  0  0  0  0
   42.0522  -11.0249   -9.5596 N   0  0  0  0  0  0  0  0  0  0  0  0
   41.2870  -10.6153  -10.7621 C   0  0  1  0  0  0  0  0  0  0  0  0
   40.5035  -11.8181  -11.2411 C   0  0  0  0  0  0  0  0  0  0  0  0
   39.6364  -11.5415  -12.4186 C   0  0  0  0  0  0  0  0  0  0  0  0
   40.5107  -11.7188  -13.6651 C   0  0  0  0  0  0  0  0  0  0  0  0
   39.6317  -12.0466  -14.8504 C   0  0  0  0  0  0  0  0  0  0  0  0
   40.4876  -12.2372  -16.0294 N   0  0  0  0  0  0  0  0  0  0  0  0
   40.4697   -9.4563  -10.3941 C   0  0  0  0  0  0  0  0  0  0  0  0
   39.8467   -9.4904   -9.2944 O   0  0  0  0  0  0  0  0  0  0  0  0
   37.8320   -5.0388  -10.6511 N   0  0  0  0  0  0  0  0  0  0  0  0
   39.1434   -4.9705  -10.0905 C   0  0  0  0  0  0  0  0  0  0  0  0
   39.4988   -3.9335   -9.4862 O   0  0  0  0  0  0  0  0  0  0  0  0
   40.0897   -6.0961  -10.2081 C   0  0  0  0  0  0  0  0  0  0  0  0
   39.5205   -7.1935  -11.0201 C   0  0  2  0  0  0  0  0  0  0  0  0
   40.3720   -8.3233  -11.2282 N   0  0  0  0  0  0  0  0  0  0  0  0
   38.7155   -6.7820  -12.1760 C   0  0  0  0  0  0  0  0  0  0  0  0
   37.3626   -6.4782  -12.0396 O   0  0  0  0  0  0  0  0  0  0  0  0
   39.1731   -6.6722  -13.3361 O   0  0  0  0  0  0  0  0  0  0  0  0
  1  2  1  0
  2  3  1  0
  4  3  1  0
  5  1  1  0
  5  4  1  0
  5  6  1  6
  7  6  2  0
  8  6  1  0
  9  8  1  0
  9 10  1  1
 10 11  1  0
 11 12  1  0
 12 13  1  0
 13 14  1  0
 15 22  1  0
 15  9  1  0
 16 15  2  0
 18 19  2  0
 18 17  1  0
 21 20  1  6
 20 18  1  0
 21 23  1  0
 21 22  1  0
 23 24  1  0
 25 23  2  0
M  END
$$$$
