PKN.pdb
     RDKit          3D

 25 25  0  0  1  0  0  0  0  0999 V2000
   17.6231  -13.0020    5.6711 N   0  0  0  0  0  0  0  0  0  0  0  0
   18.3282  -12.1774    4.7086 C   0  0  0  0  0  0  0  0  0  0  0  0
   19.0267  -13.1636    3.7617 C   0  0  0  0  0  0  0  0  0  0  0  0
   17.9792  -14.2563    3.7054 C   0  0  0  0  0  0  0  0  0  0  0  0
   17.5470  -14.3288    5.1527 C   0  0  1  0  0  0  0  0  0  0  0  0
   18.4629  -15.2794    5.8820 C   0  0  0  0  0  0  0  0  0  0  0  0
   19.4768  -15.7339    5.2860 O   0  0  0  0  0  0  0  0  0  0  0  0
   18.2144  -15.6756    7.2200 N   0  0  0  0  0  0  0  0  0  0  0  0
   19.1928  -16.5518    7.9089 C   0  0  1  0  0  0  0  0  0  0  0  0
   19.3550  -16.0381    9.3231 C   0  0  0  0  0  0  0  0  0  0  0  0
   20.3847  -16.7662   10.1133 C   0  0  0  0  0  0  0  0  0  0  0  0
   21.5311  -15.7801   10.3640 C   0  0  0  0  0  0  0  0  0  0  0  0
   22.5953  -16.4521   11.2013 C   0  0  0  0  0  0  0  0  0  0  0  0
   23.6610  -15.4780   11.4739 N   0  0  0  0  0  0  0  0  0  0  0  0
   18.7029  -17.9289    7.8076 C   0  0  0  0  0  0  0  0  0  0  0  0
   17.4805  -18.1094    7.5399 O   0  0  0  0  0  0  0  0  0  0  0  0
   18.1321  -23.0328    6.1873 N   0  0  0  0  0  0  0  0  0  0  0  0
   19.2959  -22.6090    6.8977 C   0  0  0  0  0  0  0  0  0  0  0  0
   19.9376  -23.4425    7.5764 O   0  0  0  0  0  0  0  0  0  0  0  0
   19.7590  -21.2093    6.8498 C   0  0  0  0  0  0  0  0  0  0  0  0
   19.1758  -20.4126    7.9511 C   0  0  2  0  0  0  0  0  0  0  0  0
   19.5571  -19.0352    7.9958 N   0  0  0  0  0  0  0  0  0  0  0  0
   19.0828  -21.0897    9.2498 C   0  0  0  0  0  0  0  0  0  0  0  0
   18.0476  -21.9807    9.5246 O   0  0  0  0  0  0  0  0  0  0  0  0
   19.9061  -20.9248   10.1783 O   0  0  0  0  0  0  0  0  0  0  0  0
  1  2  1  0
  2  3  1  0
  4  3  1  0
  5  1  1  0
  5  4  1  0
  5  6  1  1
  7  6  2  0
  8  6  1  0
  9  8  1  0
  9 10  1  1
 10 11  1  0
 11 12  1  0
 12 13  1  0
 13 14  1  0
 15 22  1  0
 15  9  1  0
 16 15  2  0
 18 19  2  0
 18 17  1  0
 21 20  1  6
 20 18  1  0
 21 23  1  0
 21 22  1  0
 23 24  1  0
 25 23  2  0
M  END
$$$$
