PKN.pdb
     RDKit          3D

 25 25  0  0  1  0  0  0  0  0999 V2000
   27.2084  -22.3539  -17.4432 N   0  0  0  0  0  0  0  0  0  0  0  0
   28.4871  -22.0727  -18.0671 C   0  0  0  0  0  0  0  0  0  0  0  0
   29.2316  -21.1643  -17.0783 C   0  0  0  0  0  0  0  0  0  0  0  0
   28.7626  -21.7651  -15.7694 C   0  0  0  0  0  0  0  0  0  0  0  0
   27.2993  -22.0096  -16.0619 C   0  0  1  0  0  0  0  0  0  0  0  0
   26.5265  -20.7566  -15.7344 C   0  0  0  0  0  0  0  0  0  0  0  0
   26.6017  -20.2751  -14.5715 O   0  0  0  0  0  0  0  0  0  0  0  0
   25.7178  -20.1053  -16.6993 N   0  0  0  0  0  0  0  0  0  0  0  0
   24.9723  -18.8830  -16.3125 C   0  0  1  0  0  0  0  0  0  0  0  0
   25.2170  -17.8377  -17.3790 C   0  0  0  0  0  0  0  0  0  0  0  0
   26.6296  -17.3758  -17.4560 C   0  0  0  0  0  0  0  0  0  0  0  0
   26.7200  -16.4214  -18.6521 C   0  0  0  0  0  0  0  0  0  0  0  0
   28.1574  -15.9951  -18.8448 C   0  0  0  0  0  0  0  0  0  0  0  0
   28.2283  -15.0996  -20.0074 N   0  0  0  0  0  0  0  0  0  0  0  0
   23.5678  -19.2591  -16.1313 C   0  0  0  0  0  0  0  0  0  0  0  0
   23.0663  -20.0981  -16.9334 O   0  0  0  0  0  0  0  0  0  0  0  0
   18.6136  -18.6653  -12.8671 N   0  0  0  0  0  0  0  0  0  0  0  0
   19.5998  -19.5913  -13.3240 C   0  0  0  0  0  0  0  0  0  0  0  0
   19.2535  -20.7545  -13.6307 O   0  0  0  0  0  0  0  0  0  0  0  0
   21.0191  -19.2071  -13.4425 C   0  0  0  0  0  0  0  0  0  0  0  0
   21.3986  -18.9824  -14.8542 C   0  0  2  0  0  0  0  0  0  0  0  0
   22.7825  -18.7144  -15.0942 N   0  0  0  0  0  0  0  0  0  0  0  0
   20.4506  -18.1977  -15.6536 C   0  0  0  0  0  0  0  0  0  0  0  0
   19.3000  -18.7794  -16.1817 O   0  0  0  0  0  0  0  0  0  0  0  0
   20.5992  -16.9811  -15.9088 O   0  0  0  0  0  0  0  0  0  0  0  0
  1  2  1  0
  2  3  1  0
  4  3  1  0
  5  1  1  0
  5  4  1  0
  5  6  1  6
  7  6  2  0
  8  6  1  0
  9  8  1  0
  9 10  1  6
 10 11  1  0
 11 12  1  0
 12 13  1  0
 13 14  1  0
 15 22  1  0
 15  9  1  0
 16 15  2  0
 18 19  2  0
 18 17  1  0
 21 20  1  1
 20 18  1  0
 21 23  1  0
 21 22  1  0
 23 24  1  0
 25 23  2  0
M  END
$$$$
