PKN.pdb
     RDKit          3D

 25 25  0  0  1  0  0  0  0  0999 V2000
   29.2839  -29.0197  -19.8003 N   0  0  0  0  0  0  0  0  0  0  0  0
   30.3581  -29.9792  -19.6304 C   0  0  0  0  0  0  0  0  0  0  0  0
   30.4715  -30.1995  -18.1151 C   0  0  0  0  0  0  0  0  0  0  0  0
   29.0089  -30.1164  -17.7301 C   0  0  0  0  0  0  0  0  0  0  0  0
   28.5421  -28.9585  -18.5834 C   0  0  1  0  0  0  0  0  0  0  0  0
   28.7872  -27.6752  -17.8300 C   0  0  0  0  0  0  0  0  0  0  0  0
   28.2212  -27.4989  -16.7171 O   0  0  0  0  0  0  0  0  0  0  0  0
   29.6371  -26.6617  -18.3394 N   0  0  0  0  0  0  0  0  0  0  0  0
   29.8771  -25.4433  -17.5287 C   0  0  1  0  0  0  0  0  0  0  0  0
   31.3303  -25.0563  -17.6983 C   0  0  0  0  0  0  0  0  0  0  0  0
   32.2614  -25.8141  -16.8188 C   0  0  0  0  0  0  0  0  0  0  0  0
   33.6740  -25.3023  -17.1223 C   0  0  0  0  0  0  0  0  0  0  0  0
   34.6604  -25.9766  -16.1963 C   0  0  0  0  0  0  0  0  0  0  0  0
   36.0172  -25.5543  -16.5698 N   0  0  0  0  0  0  0  0  0  0  0  0
   28.9156  -24.4261  -17.9617 C   0  0  0  0  0  0  0  0  0  0  0  0
   28.8072  -24.1962  -19.2003 O   0  0  0  0  0  0  0  0  0  0  0  0
   24.4835  -20.5906  -16.1425 N   0  0  0  0  0  0  0  0  0  0  0  0
   25.0412  -21.5872  -16.9995 C   0  0  0  0  0  0  0  0  0  0  0  0
   24.7134  -21.6106  -18.2074 O   0  0  0  0  0  0  0  0  0  0  0  0
   25.9958  -22.5910  -16.4923 C   0  0  0  0  0  0  0  0  0  0  0  0
   27.1997  -22.6677  -17.3481 C   0  0  2  0  0  0  0  0  0  0  0  0
   28.1212  -23.7160  -17.0377 N   0  0  0  0  0  0  0  0  0  0  0  0
   27.8007  -21.3822  -17.7222 C   0  0  0  0  0  0  0  0  0  0  0  0
   28.9115  -20.8828  -17.0455 O   0  0  0  0  0  0  0  0  0  0  0  0
   27.3746  -20.6623  -18.6535 O   0  0  0  0  0  0  0  0  0  0  0  0
  1  2  1  0
  2  3  1  0
  4  3  1  0
  5  1  1  0
  5  4  1  0
  5  6  1  1
  7  6  2  0
  8  6  1  0
  9  8  1  0
  9 10  1  6
 10 11  1  0
 11 12  1  0
 12 13  1  0
 13 14  1  0
 15 22  1  0
 15  9  1  0
 16 15  2  0
 18 19  2  0
 18 17  1  0
 21 20  1  1
 20 18  1  0
 21 23  1  0
 21 22  1  0
 23 24  1  0
 25 23  2  0
M  END
$$$$
