PKN.pdb
     RDKit          3D

 25 25  0  0  1  0  0  0  0  0999 V2000
   25.4130  -12.2404  -16.5549 N   0  0  0  0  0  0  0  0  0  0  0  0
   26.8155  -11.8812  -16.6412 C   0  0  0  0  0  0  0  0  0  0  0  0
   26.9473  -10.5644  -15.8629 C   0  0  0  0  0  0  0  0  0  0  0  0
   25.9503  -10.8185  -14.7512 C   0  0  0  0  0  0  0  0  0  0  0  0
   24.8178  -11.4718  -15.5110 C   0  0  1  0  0  0  0  0  0  0  0  0
   23.9096  -10.3924  -16.0444 C   0  0  0  0  0  0  0  0  0  0  0  0
   24.2419   -9.7717  -17.0904 O   0  0  0  0  0  0  0  0  0  0  0  0
   22.6919  -10.0569  -15.4012 N   0  0  0  0  0  0  0  0  0  0  0  0
   21.7520   -9.1258  -16.0714 C   0  0  1  0  0  0  0  0  0  0  0  0
   20.3470   -9.6265  -15.8155 C   0  0  0  0  0  0  0  0  0  0  0  0
   19.8831  -10.6447  -16.7967 C   0  0  0  0  0  0  0  0  0  0  0  0
   19.8524  -11.9888  -16.0605 C   0  0  0  0  0  0  0  0  0  0  0  0
   19.3325  -13.0587  -16.9933 C   0  0  0  0  0  0  0  0  0  0  0  0
   19.3326  -14.3428  -16.2793 N   0  0  0  0  0  0  0  0  0  0  0  0
   22.0261   -7.7785  -15.5650 C   0  0  0  0  0  0  0  0  0  0  0  0
   22.2793   -7.6437  -14.3336 O   0  0  0  0  0  0  0  0  0  0  0  0
   24.6118   -2.8772  -16.1080 N   0  0  0  0  0  0  0  0  0  0  0  0
   23.3073   -3.1399  -16.6256 C   0  0  0  0  0  0  0  0  0  0  0  0
   22.4621   -2.2171  -16.6557 O   0  0  0  0  0  0  0  0  0  0  0  0
   22.9332   -4.4763  -17.1258 C   0  0  0  0  0  0  0  0  0  0  0  0
   22.3717   -5.3163  -16.0457 C   0  0  2  0  0  0  0  0  0  0  0  0
   22.0165   -6.6517  -16.4131 N   0  0  0  0  0  0  0  0  0  0  0  0
   21.4473   -4.6419  -15.1268 C   0  0  0  0  0  0  0  0  0  0  0  0
   20.0738   -4.6402  -15.3602 O   0  0  0  0  0  0  0  0  0  0  0  0
   21.8140   -4.0396  -14.0924 O   0  0  0  0  0  0  0  0  0  0  0  0
  1  2  1  0
  2  3  1  0
  4  3  1  0
  5  1  1  0
  5  4  1  0
  5  6  1  6
  7  6  2  0
  8  6  1  0
  9  8  1  0
  9 10  1  1
 10 11  1  0
 11 12  1  0
 12 13  1  0
 13 14  1  0
 15 22  1  0
 15  9  1  0
 16 15  2  0
 18 19  2  0
 18 17  1  0
 21 20  1  6
 20 18  1  0
 21 23  1  0
 21 22  1  0
 23 24  1  0
 25 23  2  0
M  END
$$$$
