PKN.pdb
     RDKit          3D

 25 25  0  0  1  0  0  0  0  0999 V2000
   26.4927  -17.6624  -16.2755 N   0  0  0  0  0  0  0  0  0  0  0  0
   27.6544  -17.2999  -15.4864 C   0  0  0  0  0  0  0  0  0  0  0  0
   28.2529  -18.6302  -15.0079 C   0  0  0  0  0  0  0  0  0  0  0  0
   27.9836  -19.4896  -16.2258 C   0  0  0  0  0  0  0  0  0  0  0  0
   26.5856  -19.0490  -16.5974 C   0  0  1  0  0  0  0  0  0  0  0  0
   25.5958  -19.8819  -15.8222 C   0  0  0  0  0  0  0  0  0  0  0  0
   25.5521  -21.1263  -16.0205 O   0  0  0  0  0  0  0  0  0  0  0  0
   24.7132  -19.3031  -14.8761 N   0  0  0  0  0  0  0  0  0  0  0  0
   23.7673  -20.1766  -14.1399 C   0  0  1  0  0  0  0  0  0  0  0  0
   24.0545  -20.0238  -12.6620 C   0  0  0  0  0  0  0  0  0  0  0  0
   23.1209  -20.7826  -11.7860 C   0  0  0  0  0  0  0  0  0  0  0  0
   23.5083  -20.4588  -10.3387 C   0  0  0  0  0  0  0  0  0  0  0  0
   22.5279  -21.1215   -9.3980 C   0  0  0  0  0  0  0  0  0  0  0  0
   22.8031  -20.6568   -8.0316 N   0  0  0  0  0  0  0  0  0  0  0  0
   22.4102  -19.8007  -14.5444 C   0  0  0  0  0  0  0  0  0  0  0  0
   21.9572  -18.6874  -14.1517 O   0  0  0  0  0  0  0  0  0  0  0  0
   19.4965  -18.2562  -17.3003 N   0  0  0  0  0  0  0  0  0  0  0  0
   19.5737  -19.5419  -17.9164 C   0  0  0  0  0  0  0  0  0  0  0  0
   19.3401  -19.6500  -19.1415 O   0  0  0  0  0  0  0  0  0  0  0  0
   19.9226  -20.7470  -17.1404 C   0  0  0  0  0  0  0  0  0  0  0  0
   20.2624  -20.4054  -15.7420 C   0  0  2  0  0  0  0  0  0  0  0  0
   21.6178  -20.6420  -15.3527 N   0  0  0  0  0  0  0  0  0  0  0  0
   19.2448  -20.7368  -14.7379 C   0  0  0  0  0  0  0  0  0  0  0  0
   18.0967  -19.9609  -14.5932 O   0  0  0  0  0  0  0  0  0  0  0  0
   19.3288  -21.7160  -13.9625 O   0  0  0  0  0  0  0  0  0  0  0  0
  1  2  1  0
  2  3  1  0
  4  3  1  0
  5  1  1  0
  5  4  1  0
  5  6  1  1
  7  6  2  0
  8  6  1  0
  9  8  1  0
  9 10  1  1
 10 11  1  0
 11 12  1  0
 12 13  1  0
 13 14  1  0
 15 22  1  0
 15  9  1  0
 16 15  2  0
 18 19  2  0
 18 17  1  0
 21 20  1  6
 20 18  1  0
 21 23  1  0
 21 22  1  0
 23 24  1  0
 25 23  2  0
M  END
$$$$
