PKN.pdb
     RDKit          3D

 25 25  0  0  1  0  0  0  0  0999 V2000
   27.9501  -19.6282  -16.2726 N   0  0  0  0  0  0  0  0  0  0  0  0
   29.1105  -19.9159  -17.0937 C   0  0  0  0  0  0  0  0  0  0  0  0
   28.5540  -20.5426  -18.3801 C   0  0  0  0  0  0  0  0  0  0  0  0
   27.2802  -19.7372  -18.5317 C   0  0  0  0  0  0  0  0  0  0  0  0
   26.7907  -19.6828  -17.1019 C   0  0  1  0  0  0  0  0  0  0  0  0
   25.9539  -20.9081  -16.8322 C   0  0  0  0  0  0  0  0  0  0  0  0
   24.8518  -21.0426  -17.4298 O   0  0  0  0  0  0  0  0  0  0  0  0
   26.3733  -21.9130  -15.9248 N   0  0  0  0  0  0  0  0  0  0  0  0
   25.4829  -23.0701  -15.6642 C   0  0  1  0  0  0  0  0  0  0  0  0
   26.3372  -24.3192  -15.6708 C   0  0  0  0  0  0  0  0  0  0  0  0
   26.7207  -24.7786  -17.0334 C   0  0  0  0  0  0  0  0  0  0  0  0
   27.4071  -26.1390  -16.8663 C   0  0  0  0  0  0  0  0  0  0  0  0
   27.8533  -26.6440  -18.2194 C   0  0  0  0  0  0  0  0  0  0  0  0
   28.5256  -27.9378  -18.0378 N   0  0  0  0  0  0  0  0  0  0  0  0
   24.7794  -22.8134  -14.4048 C   0  0  0  0  0  0  0  0  0  0  0  0
   23.8384  -23.5918  -14.0774 O   0  0  0  0  0  0  0  0  0  0  0  0
   24.8784  -21.2778   -8.9062 N   0  0  0  0  0  0  0  0  0  0  0  0
   24.6713  -20.4730  -10.0673 C   0  0  0  0  0  0  0  0  0  0  0  0
   23.8594  -19.5216  -10.0172 O   0  0  0  0  0  0  0  0  0  0  0  0
   25.3935  -20.7384  -11.3259 C   0  0  0  0  0  0  0  0  0  0  0  0
   24.5202  -21.4057  -12.3157 C   0  0  2  0  0  0  0  0  0  0  0  0
   25.1309  -21.7355  -13.5659 N   0  0  0  0  0  0  0  0  0  0  0  0
   23.1428  -20.9053  -12.3927 C   0  0  0  0  0  0  0  0  0  0  0  0
   22.1865  -21.2816  -11.4519 O   0  0  0  0  0  0  0  0  0  0  0  0
   22.7383  -20.1220  -13.2815 O   0  0  0  0  0  0  0  0  0  0  0  0
  1  2  1  0
  2  3  1  0
  4  3  1  0
  5  1  1  0
  5  4  1  0
  5  6  1  1
  7  6  2  0
  8  6  1  0
  9  8  1  0
  9 10  1  1
 10 11  1  0
 11 12  1  0
 12 13  1  0
 13 14  1  0
 15 22  1  0
 15  9  1  0
 16 15  2  0
 18 19  2  0
 18 17  1  0
 21 20  1  6
 20 18  1  0
 21 23  1  0
 21 22  1  0
 23 24  1  0
 25 23  2  0
M  END
$$$$
