PKN.pdb
     RDKit          3D

 25 25  0  0  1  0  0  0  0  0999 V2000
   15.7315  -26.6206   -5.0261 N   0  0  0  0  0  0  0  0  0  0  0  0
   15.5540  -26.6247   -6.4655 C   0  0  0  0  0  0  0  0  0  0  0  0
   16.1815  -25.3125   -6.9570 C   0  0  0  0  0  0  0  0  0  0  0  0
   17.3511  -25.2091   -6.0001 C   0  0  0  0  0  0  0  0  0  0  0  0
   16.7091  -25.6347   -4.6987 C   0  0  1  0  0  0  0  0  0  0  0  0
   16.0983  -24.4215   -4.0434 C   0  0  0  0  0  0  0  0  0  0  0  0
   16.8352  -23.4361   -3.7678 O   0  0  0  0  0  0  0  0  0  0  0  0
   14.7176  -24.3591   -3.7290 N   0  0  0  0  0  0  0  0  0  0  0  0
   14.1775  -23.1398   -3.0801 C   0  0  1  0  0  0  0  0  0  0  0  0
   12.7660  -22.9358   -3.5860 C   0  0  0  0  0  0  0  0  0  0  0  0
   12.1866  -21.6107   -3.2349 C   0  0  0  0  0  0  0  0  0  0  0  0
   11.7488  -20.9553   -4.5496 C   0  0  0  0  0  0  0  0  0  0  0  0
   11.0596  -19.6437   -4.2498 C   0  0  0  0  0  0  0  0  0  0  0  0
   10.6765  -19.0148   -5.5212 N   0  0  0  0  0  0  0  0  0  0  0  0
   14.2905  -23.3219   -1.6306 C   0  0  0  0  0  0  0  0  0  0  0  0
   15.0703  -24.2197   -1.2009 O   0  0  0  0  0  0  0  0  0  0  0  0
   14.7630  -23.0076    3.2394 N   0  0  0  0  0  0  0  0  0  0  0  0
   15.5847  -22.2007    2.3954 C   0  0  0  0  0  0  0  0  0  0  0  0
   16.5555  -21.5854    2.8913 O   0  0  0  0  0  0  0  0  0  0  0  0
   15.3144  -22.0758    0.9506 C   0  0  0  0  0  0  0  0  0  0  0  0
   13.8836  -22.3004    0.6506 C   0  0  2  0  0  0  0  0  0  0  0  0
   13.5612  -22.5246   -0.7243 N   0  0  0  0  0  0  0  0  0  0  0  0
   12.9353  -21.4671    1.3988 C   0  0  0  0  0  0  0  0  0  0  0  0
   12.7939  -21.5991    2.7786 O   0  0  0  0  0  0  0  0  0  0  0  0
   12.2075  -20.5976    0.8682 O   0  0  0  0  0  0  0  0  0  0  0  0
  1  2  1  0
  2  3  1  0
  4  3  1  0
  5  1  1  0
  5  4  1  0
  5  6  1  6
  7  6  2  0
  8  6  1  0
  9  8  1  0
  9 10  1  1
 10 11  1  0
 11 12  1  0
 12 13  1  0
 13 14  1  0
 15 22  1  0
 15  9  1  0
 16 15  2  0
 18 19  2  0
 18 17  1  0
 21 20  1  6
 20 18  1  0
 21 23  1  0
 21 22  1  0
 23 24  1  0
 25 23  2  0
M  END
$$$$
