IMN.pdb
     RDKit          3D

 25 24  0  0  1  0  0  0  0  0999 V2000
   18.0553  -14.9125  -19.8095 C   0  0  0  0  0  0  0  0  0  0  0  0
   19.4198  -14.8722  -19.1965 C   0  0  0  0  0  0  0  0  0  0  0  0
   19.6208  -13.7185  -18.2381 C   0  0  2  0  0  0  0  0  0  0  0  0
   19.3398  -12.4213  -18.9102 C   0  0  0  0  0  0  0  0  0  0  0  0
   21.0325  -13.8299  -17.7017 C   0  0  2  0  0  0  0  0  0  0  0  0
   21.1029  -15.1319  -17.0091 N   0  0  0  0  0  0  0  0  0  0  0  0
   21.3721  -12.7911  -16.7076 C   0  0  0  0  0  0  0  0  0  0  0  0
   20.8754  -12.8619  -15.5283 O   0  0  0  0  0  0  0  0  0  0  0  0
   27.3563  -12.8822  -14.6422 C   0  0  0  0  0  0  0  0  0  0  0  0
   26.4623  -11.4851  -15.3398 S   0  0  0  0  0  0  0  0  0  0  0  0
   24.6489  -11.7560  -15.2602 C   0  0  0  0  0  0  0  0  0  0  0  0
   24.0139  -10.5279  -15.8370 C   0  0  0  0  0  0  0  0  0  0  0  0
   22.5072  -10.6415  -15.9701 C   0  0  2  0  0  0  0  0  0  0  0  0
   22.2184  -11.6867  -16.9254 N   0  0  0  0  0  0  0  0  0  0  0  0
   21.8901   -9.3568  -16.3378 C   0  0  0  0  0  0  0  0  0  0  0  0
   21.9892   -8.9395  -17.5377 O   0  0  0  0  0  0  0  0  0  0  0  0
   17.1919   -8.8230  -15.0085 N   0  0  0  0  0  0  0  0  0  0  0  0
   18.2257   -8.2506  -15.8436 C   0  0  0  0  0  0  0  0  0  0  0  0
   18.2863   -8.7104  -17.0046 O   0  0  0  0  0  0  0  0  0  0  0  0
   19.1202   -7.2035  -15.3234 C   0  0  0  0  0  0  0  0  0  0  0  0
   20.4815   -7.3194  -15.8854 C   0  0  2  0  0  0  0  0  0  0  0  0
   21.1763   -8.5278  -15.4376 N   0  0  0  0  0  0  0  0  0  0  0  0
   21.3059   -6.1542  -15.5909 C   0  0  0  0  0  0  0  0  0  0  0  0
   22.4387   -6.3379  -15.0282 O   0  0  0  0  0  0  0  0  0  0  0  0
   20.9855   -4.8571  -15.8602 O   0  0  0  0  0  0  0  0  0  0  0  0
  2  1  1  0
  3  2  1  0
  3  5  1  0
  3  4  1  6
  5  7  1  0
  5  6  1  1
  7  8  2  0
 10 11  1  0
 10  9  1  0
 11 12  1  0
 13 12  1  6
 14 13  1  0
 14  7  1  0
 15 16  2  0
 15 13  1  0
 17 18  1  0
 18 20  1  0
 19 18  2  0
 21 20  1  1
 21 23  1  0
 21 22  1  0
 22 15  1  0
 23 25  1  0
 24 23  2  0
M  END
$$$$
