IMN.pdb
     RDKit          3D

 25 24  0  0  1  0  0  0  0  0999 V2000
   34.8055  -26.7411  -19.9541 C   0  0  0  0  0  0  0  0  0  0  0  0
   34.5207  -26.4756  -18.5092 C   0  0  0  0  0  0  0  0  0  0  0  0
   33.2074  -25.7629  -18.2705 C   0  0  2  0  0  0  0  0  0  0  0  0
   33.1837  -24.4532  -18.9760 C   0  0  0  0  0  0  0  0  0  0  0  0
   33.0335  -25.6466  -16.7707 C   0  0  2  0  0  0  0  0  0  0  0  0
   32.9870  -27.0304  -16.2580 N   0  0  0  0  0  0  0  0  0  0  0  0
   31.7706  -24.9931  -16.3697 C   0  0  0  0  0  0  0  0  0  0  0  0
   30.6534  -25.5414  -16.6754 O   0  0  0  0  0  0  0  0  0  0  0  0
   31.0426  -21.3690  -11.1069 C   0  0  0  0  0  0  0  0  0  0  0  0
   29.9636  -20.4719  -12.2332 S   0  0  0  0  0  0  0  0  0  0  0  0
   29.4384  -21.5372  -13.6323 C   0  0  0  0  0  0  0  0  0  0  0  0
   30.6811  -22.1921  -14.1527 C   0  0  0  0  0  0  0  0  0  0  0  0
   30.4246  -23.1009  -15.3397 C   0  0  2  0  0  0  0  0  0  0  0  0
   31.6582  -23.7832  -15.6577 N   0  0  0  0  0  0  0  0  0  0  0  0
   29.8780  -22.3616  -16.4892 C   0  0  0  0  0  0  0  0  0  0  0  0
   30.6763  -21.7560  -17.2763 O   0  0  0  0  0  0  0  0  0  0  0  0
   27.4349  -21.8480  -21.3561 N   0  0  0  0  0  0  0  0  0  0  0  0
   26.7542  -21.7793  -20.0811 C   0  0  0  0  0  0  0  0  0  0  0  0
   25.7170  -21.0816  -20.0692 O   0  0  0  0  0  0  0  0  0  0  0  0
   27.2799  -22.4957  -18.9073 C   0  0  0  0  0  0  0  0  0  0  0  0
   28.0175  -21.5917  -18.0010 C   0  0  2  0  0  0  0  0  0  0  0  0
   28.4979  -22.2694  -16.7954 N   0  0  0  0  0  0  0  0  0  0  0  0
   27.2309  -20.4268  -17.6162 C   0  0  0  0  0  0  0  0  0  0  0  0
   26.5945  -20.4623  -16.5083 O   0  0  0  0  0  0  0  0  0  0  0  0
   27.1006  -19.2752  -18.3335 O   0  0  0  0  0  0  0  0  0  0  0  0
  2  1  1  0
  3  2  1  0
  3  5  1  0
  3  4  1  6
  5  7  1  0
  5  6  1  1
  7  8  2  0
 10 11  1  0
 10  9  1  0
 11 12  1  0
 13 12  1  1
 14 13  1  0
 14  7  1  0
 15 16  2  0
 15 13  1  0
 17 18  1  0
 18 20  1  0
 19 18  2  0
 21 20  1  1
 21 23  1  0
 21 22  1  0
 22 15  1  0
 23 25  1  0
 24 23  2  0
M  END
$$$$
