IMN.pdb
     RDKit          3D

 25 24  0  0  1  0  0  0  0  0999 V2000
   28.5084  -17.8984  -17.3224 C   0  0  0  0  0  0  0  0  0  0  0  0
   28.7835  -18.9010  -16.2462 C   0  0  0  0  0  0  0  0  0  0  0  0
   27.5720  -19.2339  -15.4027 C   0  0  2  0  0  0  0  0  0  0  0  0
   27.0394  -18.0120  -14.7417 C   0  0  0  0  0  0  0  0  0  0  0  0
   27.9941  -20.3144  -14.4293 C   0  0  2  0  0  0  0  0  0  0  0  0
   28.4731  -21.4410  -15.2547 N   0  0  0  0  0  0  0  0  0  0  0  0
   26.8866  -20.8270  -13.5967 C   0  0  0  0  0  0  0  0  0  0  0  0
   26.1125  -21.7334  -14.0673 O   0  0  0  0  0  0  0  0  0  0  0  0
   28.9545  -20.3034   -7.3482 C   0  0  0  0  0  0  0  0  0  0  0  0
   27.2512  -20.1871   -7.9164 S   0  0  0  0  0  0  0  0  0  0  0  0
   27.0856  -20.8068   -9.6359 C   0  0  0  0  0  0  0  0  0  0  0  0
   25.6844  -20.4937  -10.0634 C   0  0  0  0  0  0  0  0  0  0  0  0
   25.4201  -20.8130  -11.5224 C   0  0  2  0  0  0  0  0  0  0  0  0
   26.5782  -20.4102  -12.2872 N   0  0  0  0  0  0  0  0  0  0  0  0
   24.1800  -20.1846  -12.0061 C   0  0  0  0  0  0  0  0  0  0  0  0
   24.2542  -19.1532  -12.7506 O   0  0  0  0  0  0  0  0  0  0  0  0
   19.8564  -20.7171  -14.6525 N   0  0  0  0  0  0  0  0  0  0  0  0
   21.0918  -21.4260  -14.9075 C   0  0  0  0  0  0  0  0  0  0  0  0
   21.1551  -22.0023  -16.0150 O   0  0  0  0  0  0  0  0  0  0  0  0
   22.1716  -21.4412  -13.9067 C   0  0  0  0  0  0  0  0  0  0  0  0
   21.8088  -20.6696  -12.7003 C   0  0  2  0  0  0  0  0  0  0  0  0
   22.8775  -20.6502  -11.6998 N   0  0  0  0  0  0  0  0  0  0  0  0
   20.5800  -21.1504  -12.0813 C   0  0  0  0  0  0  0  0  0  0  0  0
   20.6531  -22.1359  -11.2709 O   0  0  0  0  0  0  0  0  0  0  0  0
   19.3303  -20.6449  -12.2827 O   0  0  0  0  0  0  0  0  0  0  0  0
  2  1  1  0
  3  2  1  0
  3  5  1  0
  3  4  1  1
  5  7  1  0
  5  6  1  6
  7  8  2  0
 10 11  1  0
 10  9  1  0
 11 12  1  0
 13 12  1  1
 14 13  1  0
 14  7  1  0
 15 16  2  0
 15 13  1  0
 17 18  1  0
 18 20  1  0
 19 18  2  0
 21 20  1  6
 21 23  1  0
 21 22  1  0
 22 15  1  0
 23 25  1  0
 24 23  2  0
M  END
$$$$
