IMN.pdb
     RDKit          3D

 25 24  0  0  1  0  0  0  0  0999 V2000
   42.3175  -24.3416    4.3789 C   0  0  0  0  0  0  0  0  0  0  0  0
   41.3292  -25.4501    4.1960 C   0  0  0  0  0  0  0  0  0  0  0  0
   39.8888  -24.9862    4.2027 C   0  0  2  0  0  0  0  0  0  0  0  0
   39.6044  -24.1709    5.4143 C   0  0  0  0  0  0  0  0  0  0  0  0
   39.0247  -26.2246    4.0890 C   0  0  2  0  0  0  0  0  0  0  0  0
   39.3852  -26.8554    2.8037 N   0  0  0  0  0  0  0  0  0  0  0  0
   37.5771  -25.9341    4.0385 C   0  0  0  0  0  0  0  0  0  0  0  0
   37.1118  -25.2171    3.0837 O   0  0  0  0  0  0  0  0  0  0  0  0
   32.3378  -29.3052    3.2625 C   0  0  0  0  0  0  0  0  0  0  0  0
   34.0141  -29.7671    3.7253 S   0  0  0  0  0  0  0  0  0  0  0  0
   35.1023  -28.2923    3.8206 C   0  0  0  0  0  0  0  0  0  0  0  0
   34.4215  -27.3254    4.7403 C   0  0  0  0  0  0  0  0  0  0  0  0
   35.2081  -26.0453    4.9489 C   0  0  2  0  0  0  0  0  0  0  0  0
   36.6139  -26.3796    4.9644 N   0  0  0  0  0  0  0  0  0  0  0  0
   34.7855  -25.3333    6.1659 C   0  0  0  0  0  0  0  0  0  0  0  0
   33.6235  -25.5497    6.6418 O   0  0  0  0  0  0  0  0  0  0  0  0
   34.3053  -22.5082   10.4173 N   0  0  0  0  0  0  0  0  0  0  0  0
   34.1672  -23.9444   10.3074 C   0  0  0  0  0  0  0  0  0  0  0  0
   33.6477  -24.5057   11.2962 O   0  0  0  0  0  0  0  0  0  0  0  0
   34.6191  -24.6540    9.0992 C   0  0  0  0  0  0  0  0  0  0  0  0
   35.1140  -23.7179    8.0691 C   0  0  2  0  0  0  0  0  0  0  0  0
   35.5918  -24.4026    6.8664 N   0  0  0  0  0  0  0  0  0  0  0  0
   36.1644  -22.8417    8.5722 C   0  0  0  0  0  0  0  0  0  0  0  0
   37.3813  -23.1586    8.3437 O   0  0  0  0  0  0  0  0  0  0  0  0
   35.9781  -21.6912    9.2789 O   0  0  0  0  0  0  0  0  0  0  0  0
  2  1  1  0
  3  2  1  0
  3  5  1  0
  3  4  1  1
  5  7  1  0
  5  6  1  6
  7  8  2  0
 10 11  1  0
 10  9  1  0
 11 12  1  0
 13 12  1  1
 14 13  1  0
 14  7  1  0
 15 16  2  0
 15 13  1  0
 17 18  1  0
 18 20  1  0
 19 18  2  0
 21 20  1  1
 21 23  1  0
 21 22  1  0
 22 15  1  0
 23 25  1  0
 24 23  2  0
M  END
$$$$
