IMN.pdb
     RDKit          3D

 25 24  0  0  1  0  0  0  0  0999 V2000
   19.1383  -12.0652  -21.0334 C   0  0  0  0  0  0  0  0  0  0  0  0
   18.6274  -11.9343  -19.6331 C   0  0  0  0  0  0  0  0  0  0  0  0
   19.4438  -10.9928  -18.7747 C   0  0  2  0  0  0  0  0  0  0  0  0
   19.9263   -9.8355  -19.5755 C   0  0  0  0  0  0  0  0  0  0  0  0
   20.5594  -11.8109  -18.1588 C   0  0  2  0  0  0  0  0  0  0  0  0
   19.9031  -12.9384  -17.4675 N   0  0  0  0  0  0  0  0  0  0  0  0
   21.3418  -11.0761  -17.1437 C   0  0  0  0  0  0  0  0  0  0  0  0
   20.7292  -10.4561  -16.2042 O   0  0  0  0  0  0  0  0  0  0  0  0
   28.0907  -10.1211  -17.2962 C   0  0  0  0  0  0  0  0  0  0  0  0
   27.5504  -10.4514  -15.6119 S   0  0  0  0  0  0  0  0  0  0  0  0
   25.8500   -9.8217  -15.3290 C   0  0  0  0  0  0  0  0  0  0  0  0
   24.9522  -10.6143  -16.2289 C   0  0  0  0  0  0  0  0  0  0  0  0
   23.5065  -10.1579  -16.1821 C   0  0  2  0  0  0  0  0  0  0  0  0
   22.7461  -10.9806  -17.0950 N   0  0  0  0  0  0  0  0  0  0  0  0
   23.3743   -8.7216  -16.4758 C   0  0  0  0  0  0  0  0  0  0  0  0
   23.5604   -8.3102  -17.6673 O   0  0  0  0  0  0  0  0  0  0  0  0
   22.0426   -3.7692  -16.5569 N   0  0  0  0  0  0  0  0  0  0  0  0
   21.3059   -4.8558  -17.1655 C   0  0  0  0  0  0  0  0  0  0  0  0
   20.3850   -4.5077  -17.9360 O   0  0  0  0  0  0  0  0  0  0  0  0
   21.6498   -6.2566  -16.8710 C   0  0  0  0  0  0  0  0  0  0  0  0
   22.7492   -6.3542  -15.8891 C   0  0  2  0  0  0  0  0  0  0  0  0
   23.0479   -7.7368  -15.5112 N   0  0  0  0  0  0  0  0  0  0  0  0
   22.4918   -5.5723  -14.6864 C   0  0  0  0  0  0  0  0  0  0  0  0
   22.8273   -4.3391  -14.6800 O   0  0  0  0  0  0  0  0  0  0  0  0
   21.9160   -6.0320  -13.5397 O   0  0  0  0  0  0  0  0  0  0  0  0
  2  1  1  0
  3  2  1  0
  3  5  1  0
  3  4  1  6
  5  7  1  0
  5  6  1  1
  7  8  2  0
 10 11  1  0
 10  9  1  0
 11 12  1  0
 13 12  1  6
 14 13  1  0
 14  7  1  0
 15 16  2  0
 15 13  1  0
 17 18  1  0
 18 20  1  0
 19 18  2  0
 21 20  1  6
 21 23  1  0
 21 22  1  0
 22 15  1  0
 23 25  1  0
 24 23  2  0
M  END
$$$$
