IMN.pdb
     RDKit          3D

 25 24  0  0  1  0  0  0  0  0999 V2000
   18.8133  -22.8851   -9.7602 C   0  0  0  0  0  0  0  0  0  0  0  0
   19.9877  -22.7412   -8.8441 C   0  0  0  0  0  0  0  0  0  0  0  0
   21.0513  -21.7987   -9.3643 C   0  0  2  0  0  0  0  0  0  0  0  0
   21.3938  -22.1198  -10.7761 C   0  0  0  0  0  0  0  0  0  0  0  0
   22.2294  -21.8955   -8.4178 C   0  0  2  0  0  0  0  0  0  0  0  0
   21.6943  -21.6098   -7.0718 N   0  0  0  0  0  0  0  0  0  0  0  0
   23.2869  -20.8990   -8.6846 C   0  0  0  0  0  0  0  0  0  0  0  0
   22.9637  -19.6736   -8.8744 O   0  0  0  0  0  0  0  0  0  0  0  0
   28.2825  -20.4604   -5.1270 C   0  0  0  0  0  0  0  0  0  0  0  0
   27.9478  -19.0225   -6.1557 S   0  0  0  0  0  0  0  0  0  0  0  0
   26.4149  -19.2561   -7.1373 C   0  0  0  0  0  0  0  0  0  0  0  0
   26.7853  -20.1321   -8.2947 C   0  0  0  0  0  0  0  0  0  0  0  0
   25.6698  -20.2808   -9.3116 C   0  0  2  0  0  0  0  0  0  0  0  0
   24.6688  -21.1618   -8.7545 N   0  0  0  0  0  0  0  0  0  0  0  0
   26.1720  -20.7513  -10.6128 C   0  0  0  0  0  0  0  0  0  0  0  0
   26.6083  -21.9440  -10.7173 O   0  0  0  0  0  0  0  0  0  0  0  0
   27.2025  -23.0770  -15.0235 N   0  0  0  0  0  0  0  0  0  0  0  0
   26.0429  -22.2564  -14.7484 C   0  0  0  0  0  0  0  0  0  0  0  0
   25.3158  -22.0155  -15.7364 O   0  0  0  0  0  0  0  0  0  0  0  0
   25.7759  -21.7620  -13.3876 C   0  0  0  0  0  0  0  0  0  0  0  0
   26.5394  -20.5318  -13.0940 C   0  0  2  0  0  0  0  0  0  0  0  0
   26.2086  -19.9602  -11.7874 N   0  0  0  0  0  0  0  0  0  0  0  0
   26.3684  -19.5125  -14.1216 C   0  0  0  0  0  0  0  0  0  0  0  0
   25.4842  -18.6079  -13.9388 O   0  0  0  0  0  0  0  0  0  0  0  0
   27.0713  -19.4224  -15.2858 O   0  0  0  0  0  0  0  0  0  0  0  0
  2  1  1  0
  3  2  1  0
  3  5  1  0
  3  4  1  6
  5  7  1  0
  5  6  1  1
  7  8  2  0
 10 11  1  0
 10  9  1  0
 11 12  1  0
 13 12  1  1
 14 13  1  0
 14  7  1  0
 15 16  2  0
 15 13  1  0
 17 18  1  0
 18 20  1  0
 19 18  2  0
 21 20  1  6
 21 23  1  0
 21 22  1  0
 22 15  1  0
 23 25  1  0
 24 23  2  0
M  END
$$$$
