IMN.pdb
     RDKit          3D

 25 24  0  0  1  0  0  0  0  0999 V2000
   23.0726  -17.0244  -19.3900 C   0  0  0  0  0  0  0  0  0  0  0  0
   23.8813  -17.6675  -18.3077 C   0  0  0  0  0  0  0  0  0  0  0  0
   23.0572  -18.4915  -17.3424 C   0  0  2  0  0  0  0  0  0  0  0  0
   21.9084  -17.7011  -16.8238 C   0  0  0  0  0  0  0  0  0  0  0  0
   23.9981  -18.9756  -16.2590 C   0  0  2  0  0  0  0  0  0  0  0  0
   25.0676  -19.7209  -16.9523 N   0  0  0  0  0  0  0  0  0  0  0  0
   23.3692  -19.9092  -15.3022 C   0  0  0  0  0  0  0  0  0  0  0  0
   22.9076  -21.0275  -15.7247 O   0  0  0  0  0  0  0  0  0  0  0  0
   25.0569  -20.1716   -9.3635 C   0  0  0  0  0  0  0  0  0  0  0  0
   23.4829  -20.9793   -9.0351 S   0  0  0  0  0  0  0  0  0  0  0  0
   22.5769  -21.3175  -10.5949 C   0  0  0  0  0  0  0  0  0  0  0  0
   23.1763  -20.4194  -11.6334 C   0  0  0  0  0  0  0  0  0  0  0  0
   22.5297  -20.5693  -12.9972 C   0  0  2  0  0  0  0  0  0  0  0  0
   23.2171  -19.6937  -13.9187 N   0  0  0  0  0  0  0  0  0  0  0  0
   21.0814  -20.3107  -12.9496 C   0  0  0  0  0  0  0  0  0  0  0  0
   20.6657  -19.1082  -12.8811 O   0  0  0  0  0  0  0  0  0  0  0  0
   15.8989  -20.9499  -15.6393 N   0  0  0  0  0  0  0  0  0  0  0  0
   16.6961  -20.7195  -14.4539 C   0  0  0  0  0  0  0  0  0  0  0  0
   16.1069  -20.1269  -13.5241 O   0  0  0  0  0  0  0  0  0  0  0  0
   18.0969  -21.1678  -14.3896 C   0  0  0  0  0  0  0  0  0  0  0  0
   18.6617  -21.0018  -13.0346 C   0  0  2  0  0  0  0  0  0  0  0  0
   20.0892  -21.3216  -12.9748 N   0  0  0  0  0  0  0  0  0  0  0  0
   17.9507  -21.7892  -12.0354 C   0  0  0  0  0  0  0  0  0  0  0  0
   18.4342  -22.9235  -11.6988 O   0  0  0  0  0  0  0  0  0  0  0  0
   16.7949  -21.4320  -11.4075 O   0  0  0  0  0  0  0  0  0  0  0  0
  2  1  1  0
  3  2  1  0
  3  5  1  0
  3  4  1  1
  5  7  1  0
  5  6  1  6
  7  8  2  0
 10 11  1  0
 10  9  1  0
 11 12  1  0
 13 12  1  1
 14 13  1  0
 14  7  1  0
 15 16  2  0
 15 13  1  0
 17 18  1  0
 18 20  1  0
 19 18  2  0
 21 20  1  6
 21 23  1  0
 21 22  1  0
 22 15  1  0
 23 25  1  0
 24 23  2  0
M  END
$$$$
