IMN.pdb
     RDKit          3D

 25 24  0  0  1  0  0  0  0  0999 V2000
   18.6393  -10.4820  -21.7489 C   0  0  0  0  0  0  0  0  0  0  0  0
   19.4880  -11.0155  -20.6380 C   0  0  0  0  0  0  0  0  0  0  0  0
   19.3063  -10.2796  -19.3283 C   0  0  2  0  0  0  0  0  0  0  0  0
   19.5642   -8.8247  -19.5022 C   0  0  0  0  0  0  0  0  0  0  0  0
   20.2211  -10.9408  -18.3188 C   0  0  2  0  0  0  0  0  0  0  0  0
   19.8003  -12.3545  -18.2533 N   0  0  0  0  0  0  0  0  0  0  0  0
   20.0961  -10.3875  -16.9547 C   0  0  0  0  0  0  0  0  0  0  0  0
   18.9942  -10.5299  -16.3161 O   0  0  0  0  0  0  0  0  0  0  0  0
   22.7449   -9.7788   -9.8078 C   0  0  0  0  0  0  0  0  0  0  0  0
   22.7551  -10.3403  -11.5172 S   0  0  0  0  0  0  0  0  0  0  0  0
   21.7056   -9.2650  -12.5711 C   0  0  0  0  0  0  0  0  0  0  0  0
   21.7752   -9.8345  -13.9549 C   0  0  0  0  0  0  0  0  0  0  0  0
   20.9443   -9.0612  -14.9610 C   0  0  2  0  0  0  0  0  0  0  0  0
   21.0994   -9.6928  -16.2515 N   0  0  0  0  0  0  0  0  0  0  0  0
   21.3019   -7.6335  -14.9868 C   0  0  0  0  0  0  0  0  0  0  0  0
   22.3633   -7.2685  -15.5899 O   0  0  0  0  0  0  0  0  0  0  0  0
   19.5314   -4.5239  -16.7247 N   0  0  0  0  0  0  0  0  0  0  0  0
   19.0897   -3.9717  -15.4623 C   0  0  0  0  0  0  0  0  0  0  0  0
   18.0785   -3.2395  -15.5271 O   0  0  0  0  0  0  0  0  0  0  0  0
   19.8087   -4.2766  -14.2143 C   0  0  0  0  0  0  0  0  0  0  0  0
   20.9370   -5.2016  -14.4462 C   0  0  2  0  0  0  0  0  0  0  0  0
   20.5374   -6.6084  -14.3772 N   0  0  0  0  0  0  0  0  0  0  0  0
   22.0435   -4.9708  -13.5261 C   0  0  0  0  0  0  0  0  0  0  0  0
   22.1118   -5.6830  -12.4671 O   0  0  0  0  0  0  0  0  0  0  0  0
   23.0373   -4.0511  -13.6825 O   0  0  0  0  0  0  0  0  0  0  0  0
  2  1  1  0
  3  2  1  0
  3  5  1  0
  3  4  1  6
  5  7  1  0
  5  6  1  1
  7  8  2  0
 10 11  1  0
 10  9  1  0
 11 12  1  0
 13 12  1  1
 14 13  1  0
 14  7  1  0
 15 16  2  0
 15 13  1  0
 17 18  1  0
 18 20  1  0
 19 18  2  0
 21 20  1  1
 21 23  1  0
 21 22  1  0
 22 15  1  0
 23 25  1  0
 24 23  2  0
M  END
$$$$
