IMN.pdb
     RDKit          3D

 25 24  0  0  1  0  0  0  0  0999 V2000
   23.2285  -20.1271  -16.4266 C   0  0  0  0  0  0  0  0  0  0  0  0
   24.4168  -20.0568  -15.5198 C   0  0  0  0  0  0  0  0  0  0  0  0
   24.1691  -20.6459  -14.1481 C   0  0  2  0  0  0  0  0  0  0  0  0
   22.9572  -20.0452  -13.5286 C   0  0  0  0  0  0  0  0  0  0  0  0
   25.4320  -20.4321  -13.3403 C   0  0  2  0  0  0  0  0  0  0  0  0
   26.4957  -21.1763  -14.0436 N   0  0  0  0  0  0  0  0  0  0  0  0
   25.3568  -20.9755  -11.9686 C   0  0  0  0  0  0  0  0  0  0  0  0
   25.2696  -22.2426  -11.7974 O   0  0  0  0  0  0  0  0  0  0  0  0
   28.8827  -19.6161   -6.8360 C   0  0  0  0  0  0  0  0  0  0  0  0
   27.2352  -19.3571   -6.1605 S   0  0  0  0  0  0  0  0  0  0  0  0
   25.9844  -20.3379   -7.0780 C   0  0  0  0  0  0  0  0  0  0  0  0
   26.0820  -19.9105   -8.5104 C   0  0  0  0  0  0  0  0  0  0  0  0
   25.2244  -20.7453   -9.4422 C   0  0  2  0  0  0  0  0  0  0  0  0
   25.3724  -20.2199  -10.7802 N   0  0  0  0  0  0  0  0  0  0  0  0
   23.8191  -20.7862   -9.0060 C   0  0  0  0  0  0  0  0  0  0  0  0
   23.0460  -19.8186   -9.3057 O   0  0  0  0  0  0  0  0  0  0  0  0
   19.0445  -24.1702   -7.5054 N   0  0  0  0  0  0  0  0  0  0  0  0
   19.6768  -22.9826   -8.0380 C   0  0  0  0  0  0  0  0  0  0  0  0
   18.9362  -21.9790   -8.1233 O   0  0  0  0  0  0  0  0  0  0  0  0
   21.0935  -22.9988   -8.4382 C   0  0  0  0  0  0  0  0  0  0  0  0
   21.8314  -21.8464   -7.8815 C   0  0  2  0  0  0  0  0  0  0  0  0
   23.2457  -21.8452   -8.2599 N   0  0  0  0  0  0  0  0  0  0  0  0
   21.7222  -21.7645   -6.4304 C   0  0  0  0  0  0  0  0  0  0  0  0
   20.5555  -21.7343   -5.9096 O   0  0  0  0  0  0  0  0  0  0  0  0
   22.7617  -21.7154   -5.5501 O   0  0  0  0  0  0  0  0  0  0  0  0
  2  1  1  0
  3  2  1  0
  3  5  1  0
  3  4  1  1
  5  7  1  0
  5  6  1  6
  7  8  2  0
 10 11  1  0
 10  9  1  0
 11 12  1  0
 13 12  1  1
 14 13  1  0
 14  7  1  0
 15 16  2  0
 15 13  1  0
 17 18  1  0
 18 20  1  0
 19 18  2  0
 21 20  1  1
 21 23  1  0
 21 22  1  0
 22 15  1  0
 23 25  1  0
 24 23  2  0
M  END
$$$$
