IMN.pdb
     RDKit          3D

 25 24  0  0  1  0  0  0  0  0999 V2000
   28.1550  -13.3184  -15.1911 C   0  0  0  0  0  0  0  0  0  0  0  0
   26.8222  -13.8334  -15.6355 C   0  0  0  0  0  0  0  0  0  0  0  0
   25.8536  -12.7427  -16.0382 C   0  0  2  0  0  0  0  0  0  0  0  0
   25.6011  -11.8173  -14.9010 C   0  0  0  0  0  0  0  0  0  0  0  0
   24.6043  -13.4279  -16.5510 C   0  0  2  0  0  0  0  0  0  0  0  0
   25.0637  -14.4284  -17.5347 N   0  0  0  0  0  0  0  0  0  0  0  0
   23.6778  -12.5192  -17.2570 C   0  0  0  0  0  0  0  0  0  0  0  0
   24.0621  -11.9407  -18.3340 O   0  0  0  0  0  0  0  0  0  0  0  0
   20.1203  -13.4364  -21.9563 C   0  0  0  0  0  0  0  0  0  0  0  0
   19.9477  -12.2663  -20.6003 S   0  0  0  0  0  0  0  0  0  0  0  0
   20.5185  -13.0009  -19.0183 C   0  0  0  0  0  0  0  0  0  0  0  0
   20.2442  -11.9801  -17.9567 C   0  0  0  0  0  0  0  0  0  0  0  0
   21.4906  -11.2492  -17.4953 C   0  0  2  0  0  0  0  0  0  0  0  0
   22.3635  -12.2084  -16.8577 N   0  0  0  0  0  0  0  0  0  0  0  0
   21.1674  -10.1124  -16.6180 C   0  0  0  0  0  0  0  0  0  0  0  0
   21.0898  -10.2994  -15.3599 O   0  0  0  0  0  0  0  0  0  0  0  0
   19.8929   -5.5404  -14.5863 N   0  0  0  0  0  0  0  0  0  0  0  0
   21.2841   -5.9242  -14.6912 C   0  0  0  0  0  0  0  0  0  0  0  0
   22.0885   -5.1752  -14.0955 O   0  0  0  0  0  0  0  0  0  0  0  0
   21.6801   -7.1192  -15.4546 C   0  0  0  0  0  0  0  0  0  0  0  0
   20.5319   -7.7185  -16.1651 C   0  0  2  0  0  0  0  0  0  0  0  0
   20.9300   -8.7931  -17.0763 N   0  0  0  0  0  0  0  0  0  0  0  0
   19.7545   -6.7287  -16.9001 C   0  0  0  0  0  0  0  0  0  0  0  0
   19.8884   -6.6718  -18.1699 O   0  0  0  0  0  0  0  0  0  0  0  0
   18.8781   -5.8357  -16.3596 O   0  0  0  0  0  0  0  0  0  0  0  0
  2  1  1  0
  3  2  1  0
  3  5  1  0
  3  4  1  1
  5  7  1  0
  5  6  1  6
  7  8  2  0
 10 11  1  0
 10  9  1  0
 11 12  1  0
 13 12  1  1
 14 13  1  0
 14  7  1  0
 15 16  2  0
 15 13  1  0
 17 18  1  0
 18 20  1  0
 19 18  2  0
 21 20  1  6
 21 23  1  0
 21 22  1  0
 22 15  1  0
 23 25  1  0
 24 23  2  0
M  END
$$$$
