IMN.pdb
     RDKit          3D

 25 24  0  0  1  0  0  0  0  0999 V2000
   20.4505  -24.3227  -15.2027 C   0  0  0  0  0  0  0  0  0  0  0  0
   21.8908  -23.9179  -15.1722 C   0  0  0  0  0  0  0  0  0  0  0  0
   22.8023  -24.8608  -15.9271 C   0  0  2  0  0  0  0  0  0  0  0  0
   22.7178  -26.2361  -15.3658 C   0  0  0  0  0  0  0  0  0  0  0  0
   24.1949  -24.2684  -15.8723 C   0  0  2  0  0  0  0  0  0  0  0  0
   24.0943  -22.9344  -16.4971 N   0  0  0  0  0  0  0  0  0  0  0  0
   25.1952  -25.0343  -16.6439 C   0  0  0  0  0  0  0  0  0  0  0  0
   24.8556  -25.5705  -17.7573 O   0  0  0  0  0  0  0  0  0  0  0  0
   31.3230  -24.0854  -15.8573 C   0  0  0  0  0  0  0  0  0  0  0  0
   31.4902  -25.1638  -17.2880 S   0  0  0  0  0  0  0  0  0  0  0  0
   29.9472  -26.1127  -17.5827 C   0  0  0  0  0  0  0  0  0  0  0  0
   28.8538  -25.3674  -16.8805 C   0  0  0  0  0  0  0  0  0  0  0  0
   27.5001  -26.0411  -17.0002 C   0  0  2  0  0  0  0  0  0  0  0  0
   26.5371  -25.2462  -16.2727 N   0  0  0  0  0  0  0  0  0  0  0  0
   27.5395  -27.4384  -16.5390 C   0  0  0  0  0  0  0  0  0  0  0  0
   27.6887  -27.6799  -15.2969 O   0  0  0  0  0  0  0  0  0  0  0  0
   25.2638  -33.0361  -17.0179 N   0  0  0  0  0  0  0  0  0  0  0  0
   26.3027  -32.0789  -16.7045 C   0  0  0  0  0  0  0  0  0  0  0  0
   27.2160  -32.5083  -15.9667 O   0  0  0  0  0  0  0  0  0  0  0  0
   26.2491  -30.7078  -17.2380 C   0  0  0  0  0  0  0  0  0  0  0  0
   27.4526  -29.9325  -16.8732 C   0  0  2  0  0  0  0  0  0  0  0  0
   27.4212  -28.5636  -17.3916 N   0  0  0  0  0  0  0  0  0  0  0  0
   28.6842  -30.5814  -17.3046 C   0  0  0  0  0  0  0  0  0  0  0  0
   29.0102  -31.6902  -16.7589 O   0  0  0  0  0  0  0  0  0  0  0  0
   29.5451  -30.1163  -18.2534 O   0  0  0  0  0  0  0  0  0  0  0  0
  2  1  1  0
  3  2  1  0
  3  5  1  0
  3  4  1  1
  5  7  1  0
  5  6  1  6
  7  8  2  0
 10 11  1  0
 10  9  1  0
 11 12  1  0
 13 12  1  1
 14 13  1  0
 14  7  1  0
 15 16  2  0
 15 13  1  0
 17 18  1  0
 18 20  1  0
 19 18  2  0
 21 20  1  6
 21 23  1  0
 21 22  1  0
 22 15  1  0
 23 25  1  0
 24 23  2  0
M  END
$$$$
