IMN.pdb
     RDKit          3D

 25 24  0  0  1  0  0  0  0  0999 V2000
   12.4802   -9.7629  -12.9646 C   0  0  0  0  0  0  0  0  0  0  0  0
   13.9383   -9.9802  -12.7082 C   0  0  0  0  0  0  0  0  0  0  0  0
   14.5245   -9.0256  -11.6908 C   0  0  2  0  0  0  0  0  0  0  0  0
   14.3259   -7.6144  -12.1179 C   0  0  0  0  0  0  0  0  0  0  0  0
   15.9795   -9.4063  -11.5140 C   0  0  2  0  0  0  0  0  0  0  0  0
   15.9781  -10.7861  -10.9886 N   0  0  0  0  0  0  0  0  0  0  0  0
   16.6956   -8.5684  -10.5303 C   0  0  0  0  0  0  0  0  0  0  0  0
   16.4681   -8.7321   -9.2798 O   0  0  0  0  0  0  0  0  0  0  0  0
   22.9890   -7.9849  -12.3673 C   0  0  0  0  0  0  0  0  0  0  0  0
   22.1341   -7.5925  -10.8334 S   0  0  0  0  0  0  0  0  0  0  0  0
   20.3721   -7.1854  -11.1457 C   0  0  0  0  0  0  0  0  0  0  0  0
   19.7344   -7.0151   -9.8009 C   0  0  0  0  0  0  0  0  0  0  0  0
   18.2584   -6.6745   -9.8790 C   0  0  2  0  0  0  0  0  0  0  0  0
   17.6410   -7.5690  -10.8315 N   0  0  0  0  0  0  0  0  0  0  0  0
   18.0386   -5.2579  -10.2131 C   0  0  0  0  0  0  0  0  0  0  0  0
   17.8436   -4.9280  -11.4283 O   0  0  0  0  0  0  0  0  0  0  0  0
   16.2485   -0.4519  -10.0229 N   0  0  0  0  0  0  0  0  0  0  0  0
   15.4914   -1.6498  -10.3157 C   0  0  0  0  0  0  0  0  0  0  0  0
   14.3407   -1.4550  -10.7638 O   0  0  0  0  0  0  0  0  0  0  0  0
   16.0732   -2.9828  -10.0878 C   0  0  0  0  0  0  0  0  0  0  0  0
   17.4540   -2.8948   -9.5702 C   0  0  2  0  0  0  0  0  0  0  0  0
   18.0269   -4.2067   -9.2635 N   0  0  0  0  0  0  0  0  0  0  0  0
   17.5536   -2.0402   -8.3938 C   0  0  0  0  0  0  0  0  0  0  0  0
   17.6134   -2.5942   -7.2436 O   0  0  0  0  0  0  0  0  0  0  0  0
   17.5904   -0.6777   -8.3940 O   0  0  0  0  0  0  0  0  0  0  0  0
  2  1  1  0
  3  2  1  0
  3  5  1  0
  3  4  1  6
  5  7  1  0
  5  6  1  1
  7  8  2  0
 10 11  1  0
 10  9  1  0
 11 12  1  0
 13 12  1  6
 14 13  1  0
 14  7  1  0
 15 16  2  0
 15 13  1  0
 17 18  1  0
 18 20  1  0
 19 18  2  0
 21 20  1  1
 21 23  1  0
 21 22  1  0
 22 15  1  0
 23 25  1  0
 24 23  2  0
M  END
$$$$
