IMN.pdb
     RDKit          3D

 25 24  0  0  1  0  0  0  0  0999 V2000
   28.8203  -18.3204  -13.5843 C   0  0  0  0  0  0  0  0  0  0  0  0
   27.6184  -19.2066  -13.4887 C   0  0  0  0  0  0  0  0  0  0  0  0
   27.8594  -20.6127  -13.9932 C   0  0  2  0  0  0  0  0  0  0  0  0
   28.3639  -20.5902  -15.3927 C   0  0  0  0  0  0  0  0  0  0  0  0
   26.5583  -21.3702  -13.8301 C   0  0  2  0  0  0  0  0  0  0  0  0
   25.4936  -20.4514  -14.2794 N   0  0  0  0  0  0  0  0  0  0  0  0
   26.2557  -21.7332  -12.4304 C   0  0  0  0  0  0  0  0  0  0  0  0
   26.1782  -22.9699  -12.1034 O   0  0  0  0  0  0  0  0  0  0  0  0
   26.7166  -19.5856   -5.9489 C   0  0  0  0  0  0  0  0  0  0  0  0
   27.4392  -18.9696   -7.4773 S   0  0  0  0  0  0  0  0  0  0  0  0
   27.1365  -20.1314   -8.8654 C   0  0  0  0  0  0  0  0  0  0  0  0
   25.6596  -20.1131   -9.1155 C   0  0  0  0  0  0  0  0  0  0  0  0
   25.2263  -21.0786  -10.2021 C   0  0  2  0  0  0  0  0  0  0  0  0
   26.0353  -20.8290  -11.3733 N   0  0  0  0  0  0  0  0  0  0  0  0
   23.7847  -20.9789  -10.4823 C   0  0  0  0  0  0  0  0  0  0  0  0
   22.9618  -20.9554   -9.5098 O   0  0  0  0  0  0  0  0  0  0  0  0
   19.1297  -20.1218  -12.4487 N   0  0  0  0  0  0  0  0  0  0  0  0
   20.0497  -19.0063  -12.3937 C   0  0  0  0  0  0  0  0  0  0  0  0
   19.5283  -17.8796  -12.5407 O   0  0  0  0  0  0  0  0  0  0  0  0
   21.4891  -19.2274  -12.1777 C   0  0  0  0  0  0  0  0  0  0  0  0
   21.8008  -20.6604  -11.9997 C   0  0  2  0  0  0  0  0  0  0  0  0
   23.2279  -20.9052  -11.7829 N   0  0  0  0  0  0  0  0  0  0  0  0
   21.3383  -21.4732  -13.1175 C   0  0  0  0  0  0  0  0  0  0  0  0
   22.2104  -22.0685  -13.8377 O   0  0  0  0  0  0  0  0  0  0  0  0
   20.0399  -21.6687  -13.4829 O   0  0  0  0  0  0  0  0  0  0  0  0
  2  1  1  0
  3  2  1  0
  3  5  1  0
  3  4  1  6
  5  7  1  0
  5  6  1  1
  7  8  2  0
 10 11  1  0
 10  9  1  0
 11 12  1  0
 13 12  1  1
 14 13  1  0
 14  7  1  0
 15 16  2  0
 15 13  1  0
 17 18  1  0
 18 20  1  0
 19 18  2  0
 21 20  1  6
 21 23  1  0
 21 22  1  0
 22 15  1  0
 23 25  1  0
 24 23  2  0
M  END
$$$$
