IMN.pdb
     RDKit          3D

 25 24  0  0  1  0  0  0  0  0999 V2000
   27.7540  -21.1813   -8.5671 C   0  0  0  0  0  0  0  0  0  0  0  0
   26.3718  -20.6101   -8.6170 C   0  0  0  0  0  0  0  0  0  0  0  0
   25.7877  -20.5555  -10.0119 C   0  0  2  0  0  0  0  0  0  0  0  0
   25.7712  -21.9093  -10.6287 C   0  0  0  0  0  0  0  0  0  0  0  0
   26.6005  -19.5438  -10.7924 C   0  0  2  0  0  0  0  0  0  0  0  0
   26.5615  -18.2957  -10.0046 N   0  0  0  0  0  0  0  0  0  0  0  0
   26.0398  -19.2339  -12.1237 C   0  0  0  0  0  0  0  0  0  0  0  0
   24.9355  -18.5890  -12.2071 O   0  0  0  0  0  0  0  0  0  0  0  0
   29.8354  -19.3827  -17.1227 C   0  0  0  0  0  0  0  0  0  0  0  0
   29.1430  -17.7633  -16.7538 S   0  0  0  0  0  0  0  0  0  0  0  0
   27.8819  -17.8723  -15.4249 C   0  0  0  0  0  0  0  0  0  0  0  0
   27.1291  -19.1455  -15.6620 C   0  0  0  0  0  0  0  0  0  0  0  0
   26.0137  -19.3748  -14.6600 C   0  0  2  0  0  0  0  0  0  0  0  0
   26.6125  -19.5846  -13.3616 N   0  0  0  0  0  0  0  0  0  0  0  0
   25.1354  -20.4860  -15.0607 C   0  0  0  0  0  0  0  0  0  0  0  0
   25.3922  -21.6631  -14.6458 O   0  0  0  0  0  0  0  0  0  0  0  0
   21.2085  -23.3370  -13.6193 N   0  0  0  0  0  0  0  0  0  0  0  0
   21.2175  -21.9239  -13.9304 C   0  0  0  0  0  0  0  0  0  0  0  0
   20.0922  -21.3807  -13.9680 O   0  0  0  0  0  0  0  0  0  0  0  0
   22.4842  -21.2154  -14.1775 C   0  0  0  0  0  0  0  0  0  0  0  0
   22.7483  -21.0568  -15.6224 C   0  0  2  0  0  0  0  0  0  0  0  0
   23.9979  -20.3437  -15.8931 N   0  0  0  0  0  0  0  0  0  0  0  0
   21.6545  -20.3905  -16.3178 C   0  0  0  0  0  0  0  0  0  0  0  0
   20.8260  -21.1078  -16.9756 O   0  0  0  0  0  0  0  0  0  0  0  0
   21.4184  -19.0483  -16.3398 O   0  0  0  0  0  0  0  0  0  0  0  0
  2  1  1  0
  3  2  1  0
  3  5  1  0
  3  4  1  6
  5  7  1  0
  5  6  1  1
  7  8  2  0
 10 11  1  0
 10  9  1  0
 11 12  1  0
 13 12  1  6
 14 13  1  0
 14  7  1  0
 15 16  2  0
 15 13  1  0
 17 18  1  0
 18 20  1  0
 19 18  2  0
 21 20  1  1
 21 23  1  0
 21 22  1  0
 22 15  1  0
 23 25  1  0
 24 23  2  0
M  END
$$$$
