IMN.pdb
     RDKit          3D

 25 24  0  0  1  0  0  0  0  0999 V2000
   17.9408  -19.0523  -17.0371 C   0  0  0  0  0  0  0  0  0  0  0  0
   19.3561  -18.6341  -16.7897 C   0  0  0  0  0  0  0  0  0  0  0  0
   19.4964  -17.1884  -16.3652 C   0  0  2  0  0  0  0  0  0  0  0  0
   18.8577  -16.2840  -17.3589 C   0  0  0  0  0  0  0  0  0  0  0  0
   20.9750  -16.9263  -16.1697 C   0  0  2  0  0  0  0  0  0  0  0  0
   21.4205  -17.8692  -15.1245 N   0  0  0  0  0  0  0  0  0  0  0  0
   21.2758  -15.5646  -15.6820 C   0  0  0  0  0  0  0  0  0  0  0  0
   20.8599  -15.2042  -14.5246 O   0  0  0  0  0  0  0  0  0  0  0  0
   27.5449  -14.1865  -14.8805 C   0  0  0  0  0  0  0  0  0  0  0  0
   26.3214  -13.2407  -15.8005 S   0  0  0  0  0  0  0  0  0  0  0  0
   24.6171  -13.7291  -15.3262 C   0  0  0  0  0  0  0  0  0  0  0  0
   23.6927  -12.8947  -16.1589 C   0  0  0  0  0  0  0  0  0  0  0  0
   22.2287  -13.2236  -15.9370 C   0  0  2  0  0  0  0  0  0  0  0  0
   22.0010  -14.5800  -16.3806 N   0  0  0  0  0  0  0  0  0  0  0  0
   21.3415  -12.2569  -16.6042 C   0  0  0  0  0  0  0  0  0  0  0  0
   21.0965  -12.3920  -17.8473 O   0  0  0  0  0  0  0  0  0  0  0  0
   16.9704  -11.2759  -14.4895 N   0  0  0  0  0  0  0  0  0  0  0  0
   17.7634  -11.1226  -15.6902 C   0  0  0  0  0  0  0  0  0  0  0  0
   17.6693  -12.0595  -16.5125 O   0  0  0  0  0  0  0  0  0  0  0  0
   18.6065   -9.9321  -15.8889 C   0  0  0  0  0  0  0  0  0  0  0  0
   19.8241  -10.2485  -16.6633 C   0  0  2  0  0  0  0  0  0  0  0  0
   20.7234  -11.1605  -15.9540 N   0  0  0  0  0  0  0  0  0  0  0  0
   20.5615   -9.0534  -17.0531 C   0  0  0  0  0  0  0  0  0  0  0  0
   21.7906   -8.9605  -16.7152 O   0  0  0  0  0  0  0  0  0  0  0  0
   20.0632   -7.9986  -17.7581 O   0  0  0  0  0  0  0  0  0  0  0  0
  2  1  1  0
  3  2  1  0
  3  5  1  0
  3  4  1  6
  5  7  1  0
  5  6  1  1
  7  8  2  0
 10 11  1  0
 10  9  1  0
 11 12  1  0
 13 12  1  6
 14 13  1  0
 14  7  1  0
 15 16  2  0
 15 13  1  0
 17 18  1  0
 18 20  1  0
 19 18  2  0
 21 20  1  1
 21 23  1  0
 21 22  1  0
 22 15  1  0
 23 25  1  0
 24 23  2  0
M  END
$$$$
