VDD.pdb
     RDKit          3D

 24 23  0  0  1  0  0  0  0  0999 V2000
   27.9326  -12.0738  -18.5269 C   0  0  0  0  0  0  0  0  0  0  0  0
   28.5519  -11.7471  -17.1917 C   0  0  2  0  0  0  0  0  0  0  0  0
   29.1673  -12.9822  -16.6187 C   0  0  0  0  0  0  0  0  0  0  0  0
   27.4761  -11.1421  -16.3168 C   0  0  2  0  0  0  0  0  0  0  0  0
   26.5192  -12.2295  -16.0595 N   0  0  0  0  0  0  0  0  0  0  0  0
   26.8014  -10.0021  -16.9741 C   0  0  0  0  0  0  0  0  0  0  0  0
   27.4647   -8.9849  -17.2617 O   0  0  0  0  0  0  0  0  0  0  0  0
   25.4225  -10.0646  -17.2724 N   0  0  0  0  0  0  0  0  0  0  0  0
   24.7262   -8.9147  -17.9549 C   0  0  1  0  0  0  0  0  0  0  0  0
   23.8296   -9.6155  -18.9643 C   0  0  0  0  0  0  0  0  0  0  0  0
   24.2810   -9.6839  -20.3342 C   0  0  0  0  0  0  0  0  0  0  0  0
   25.4463   -9.5315  -20.7142 O   0  0  0  0  0  0  0  0  0  0  0  0
   23.9022   -8.3315  -16.8770 C   0  0  0  0  0  0  0  0  0  0  0  0
   23.4211   -9.1481  -16.0139 O   0  0  0  0  0  0  0  0  0  0  0  0
   23.3493   -9.9449  -21.3667 O   0  0  0  0  0  0  0  0  0  0  0  0
   23.6220   -6.9559  -16.7391 N   0  0  0  0  0  0  0  0  0  0  0  0
   22.7841   -6.5515  -15.5962 C   0  0  1  0  0  0  0  0  0  0  0  0
   23.2378   -5.2158  -15.0573 C   0  0  0  0  0  0  0  0  0  0  0  0
   22.3060   -4.7299  -14.0074 C   0  0  0  0  0  0  0  0  0  0  0  0
   21.3138   -3.9813  -14.2723 O   0  0  0  0  0  0  0  0  0  0  0  0
   21.3835   -6.4572  -16.0615 C   0  0  0  0  0  0  0  0  0  0  0  0
   21.0881   -6.2781  -17.2734 O   0  0  0  0  0  0  0  0  0  0  0  0
   22.4794   -5.0787  -12.6585 O   0  0  0  0  0  0  0  0  0  0  0  0
   20.3379   -6.5659  -15.1546 O   0  0  0  0  0  0  0  0  0  0  0  0
  2  1  1  6
  2  3  1  0
  4  6  1  0
  4  2  1  0
  4  5  1  6
  6  7  2  0
  8  6  1  0
  8  9  1  0
  9 10  1  6
 11 10  1  0
 11 15  1  0
 12 11  2  0
 13 16  1  0
 13  9  1  0
 14 13  2  0
 17 21  1  0
 17 18  1  6
 17 16  1  0
 19 18  1  0
 19 23  1  0
 20 19  2  0
 21 24  1  0
 22 21  2  0
M  END
$$$$
