VDD.pdb
     RDKit          3D

 24 23  0  0  1  0  0  0  0  0999 V2000
   17.4174  -13.2716  -17.5846 C   0  0  0  0  0  0  0  0  0  0  0  0
   18.8230  -13.7547  -17.8370 C   0  0  2  0  0  0  0  0  0  0  0  0
   18.9610  -15.1543  -17.3324 C   0  0  0  0  0  0  0  0  0  0  0  0
   19.7743  -12.7766  -17.1834 C   0  0  2  0  0  0  0  0  0  0  0  0
   19.6216  -12.9858  -15.7352 N   0  0  0  0  0  0  0  0  0  0  0  0
   19.4630  -11.3757  -17.5406 C   0  0  0  0  0  0  0  0  0  0  0  0
   19.5914  -11.0062  -18.7257 O   0  0  0  0  0  0  0  0  0  0  0  0
   19.0255  -10.4674  -16.5518 N   0  0  0  0  0  0  0  0  0  0  0  0
   18.6978   -9.0388  -16.9049 C   0  0  1  0  0  0  0  0  0  0  0  0
   17.2122   -8.9470  -16.5910 C   0  0  0  0  0  0  0  0  0  0  0  0
   16.2790   -9.2482  -17.6509 C   0  0  0  0  0  0  0  0  0  0  0  0
   15.2762   -9.9612  -17.5430 O   0  0  0  0  0  0  0  0  0  0  0  0
   19.4659   -8.2611  -15.9119 C   0  0  0  0  0  0  0  0  0  0  0  0
   19.5460   -8.7540  -14.7313 O   0  0  0  0  0  0  0  0  0  0  0  0
   16.4853   -8.7055  -18.9413 O   0  0  0  0  0  0  0  0  0  0  0  0
   20.1090   -7.0345  -16.1799 N   0  0  0  0  0  0  0  0  0  0  0  0
   20.7776   -6.3648  -15.0502 C   0  0  1  0  0  0  0  0  0  0  0  0
   21.7377   -5.3140  -15.5547 C   0  0  0  0  0  0  0  0  0  0  0  0
   22.3343   -4.5613  -14.4214 C   0  0  0  0  0  0  0  0  0  0  0  0
   22.6582   -5.1222  -13.3281 O   0  0  0  0  0  0  0  0  0  0  0  0
   19.7388   -5.7345  -14.2072 C   0  0  0  0  0  0  0  0  0  0  0  0
   18.7523   -5.1242  -14.6994 O   0  0  0  0  0  0  0  0  0  0  0  0
   22.5711   -3.1800  -14.5059 O   0  0  0  0  0  0  0  0  0  0  0  0
   19.8276   -5.8015  -12.8233 O   0  0  0  0  0  0  0  0  0  0  0  0
  2  1  1  1
  2  3  1  0
  4  6  1  0
  4  2  1  0
  4  5  1  1
  6  7  2  0
  8  6  1  0
  8  9  1  0
  9 10  1  1
 11 10  1  0
 11 15  1  0
 12 11  2  0
 13 16  1  0
 13  9  1  0
 14 13  2  0
 17 21  1  0
 17 18  1  6
 17 16  1  0
 19 18  1  0
 19 23  1  0
 20 19  2  0
 21 24  1  0
 22 21  2  0
M  END
$$$$
