VDD.pdb
     RDKit          3D

 24 23  0  0  1  0  0  0  0  0999 V2000
   17.1276  -15.2513  -16.0942 C   0  0  0  0  0  0  0  0  0  0  0  0
   17.9533  -14.8327  -17.2842 C   0  0  2  0  0  0  0  0  0  0  0  0
   19.1225  -15.7529  -17.4207 C   0  0  0  0  0  0  0  0  0  0  0  0
   18.3403  -13.3826  -17.0936 C   0  0  2  0  0  0  0  0  0  0  0  0
   19.2668  -13.3687  -15.9509 N   0  0  0  0  0  0  0  0  0  0  0  0
   17.1665  -12.5257  -16.8200 C   0  0  0  0  0  0  0  0  0  0  0  0
   16.3255  -12.3381  -17.7227 O   0  0  0  0  0  0  0  0  0  0  0  0
   17.0001  -11.9271  -15.5519 N   0  0  0  0  0  0  0  0  0  0  0  0
   15.9000  -10.9254  -15.3082 C   0  0  1  0  0  0  0  0  0  0  0  0
   15.2570  -11.4367  -14.0279 C   0  0  0  0  0  0  0  0  0  0  0  0
   14.1095  -10.7237  -13.5180 C   0  0  0  0  0  0  0  0  0  0  0  0
   14.1442   -9.6478  -12.9125 O   0  0  0  0  0  0  0  0  0  0  0  0
   16.6367   -9.6758  -15.0312 C   0  0  0  0  0  0  0  0  0  0  0  0
   17.6992   -9.7789  -14.3216 O   0  0  0  0  0  0  0  0  0  0  0  0
   12.8130  -11.2602  -13.7013 O   0  0  0  0  0  0  0  0  0  0  0  0
   16.2523   -8.4005  -15.4957 N   0  0  0  0  0  0  0  0  0  0  0  0
   17.1164   -7.2636  -15.1316 C   0  0  1  0  0  0  0  0  0  0  0  0
   17.4698   -6.4571  -16.3583 C   0  0  0  0  0  0  0  0  0  0  0  0
   18.2765   -5.2657  -15.9883 C   0  0  0  0  0  0  0  0  0  0  0  0
   18.6092   -5.0161  -14.7876 O   0  0  0  0  0  0  0  0  0  0  0  0
   16.3825   -6.4168  -14.1665 C   0  0  0  0  0  0  0  0  0  0  0  0
   16.9034   -5.4026  -13.6298 O   0  0  0  0  0  0  0  0  0  0  0  0
   18.7141   -4.3499  -16.9584 O   0  0  0  0  0  0  0  0  0  0  0  0
   15.0737   -6.7257  -13.8212 O   0  0  0  0  0  0  0  0  0  0  0  0
  2  1  1  1
  2  3  1  0
  4  6  1  0
  4  2  1  0
  4  5  1  1
  6  7  2  0
  8  6  1  0
  8  9  1  0
  9 10  1  1
 11 10  1  0
 11 15  1  0
 12 11  2  0
 13 16  1  0
 13  9  1  0
 14 13  2  0
 17 21  1  0
 17 18  1  6
 17 16  1  0
 19 18  1  0
 19 23  1  0
 20 19  2  0
 21 24  1  0
 22 21  2  0
M  END
$$$$
