VDD.pdb
     RDKit          3D

 24 23  0  0  1  0  0  0  0  0999 V2000
   24.3909  -10.3500  -15.0087 C   0  0  0  0  0  0  0  0  0  0  0  0
   23.4581  -11.4423  -15.4667 C   0  0  2  0  0  0  0  0  0  0  0  0
   24.1765  -12.3328  -16.4277 C   0  0  0  0  0  0  0  0  0  0  0  0
   22.2264  -10.7861  -16.0507 C   0  0  2  0  0  0  0  0  0  0  0  0
   22.6756  -10.1399  -17.2936 N   0  0  0  0  0  0  0  0  0  0  0  0
   21.6391   -9.7885  -15.1304 C   0  0  0  0  0  0  0  0  0  0  0  0
   21.1904  -10.1657  -14.0287 O   0  0  0  0  0  0  0  0  0  0  0  0
   21.5872   -8.4252  -15.4947 N   0  0  0  0  0  0  0  0  0  0  0  0
   20.9400   -7.4073  -14.5903 C   0  0  1  0  0  0  0  0  0  0  0  0
   21.9943   -6.3139  -14.5056 C   0  0  0  0  0  0  0  0  0  0  0  0
   21.7122   -5.1679  -13.6738 C   0  0  0  0  0  0  0  0  0  0  0  0
   20.6556   -4.9640  -13.0674 O   0  0  0  0  0  0  0  0  0  0  0  0
   19.7909   -6.9309  -15.3861 C   0  0  0  0  0  0  0  0  0  0  0  0
   19.9867   -6.7730  -16.6430 O   0  0  0  0  0  0  0  0  0  0  0  0
   22.6960   -4.1647  -13.5060 O   0  0  0  0  0  0  0  0  0  0  0  0
   18.5135   -6.6494  -14.8579 N   0  0  0  0  0  0  0  0  0  0  0  0
   17.4584   -6.2716  -15.8150 C   0  0  1  0  0  0  0  0  0  0  0  0
   16.6695   -7.4884  -16.2362 C   0  0  0  0  0  0  0  0  0  0  0  0
   15.6795   -7.1341  -17.2857 C   0  0  0  0  0  0  0  0  0  0  0  0
   15.5874   -5.9609  -17.7652 O   0  0  0  0  0  0  0  0  0  0  0  0
   16.5646   -5.2957  -15.1548 C   0  0  0  0  0  0  0  0  0  0  0  0
   16.2791   -5.3670  -13.9296 O   0  0  0  0  0  0  0  0  0  0  0  0
   14.7897   -8.0892  -17.8026 O   0  0  0  0  0  0  0  0  0  0  0  0
   16.0065   -4.2552  -15.8852 O   0  0  0  0  0  0  0  0  0  0  0  0
  2  1  1  6
  2  3  1  0
  4  6  1  0
  4  2  1  0
  4  5  1  6
  6  7  2  0
  8  6  1  0
  8  9  1  0
  9 10  1  6
 11 10  1  0
 11 15  1  0
 12 11  2  0
 13 16  1  0
 13  9  1  0
 14 13  2  0
 17 21  1  0
 17 18  1  1
 17 16  1  0
 19 18  1  0
 19 23  1  0
 20 19  2  0
 21 24  1  0
 22 21  2  0
M  END
$$$$
