VDD.pdb
     RDKit          3D

 24 23  0  0  1  0  0  0  0  0999 V2000
   16.8636  -10.1287  -16.9897 C   0  0  0  0  0  0  0  0  0  0  0  0
   18.2037  -10.6931  -17.3880 C   0  0  2  0  0  0  0  0  0  0  0  0
   17.9988  -11.9808  -18.1176 C   0  0  0  0  0  0  0  0  0  0  0  0
   19.0401  -10.8311  -16.1349 C   0  0  2  0  0  0  0  0  0  0  0  0
   18.3926  -11.8884  -15.3430 N   0  0  0  0  0  0  0  0  0  0  0  0
   19.1001   -9.5697  -15.3653 C   0  0  0  0  0  0  0  0  0  0  0  0
   18.3259   -9.4074  -14.4001 O   0  0  0  0  0  0  0  0  0  0  0  0
   20.0232   -8.5613  -15.7190 N   0  0  0  0  0  0  0  0  0  0  0  0
   19.9792   -7.2067  -15.0585 C   0  0  1  0  0  0  0  0  0  0  0  0
   21.2662   -7.1857  -14.2479 C   0  0  0  0  0  0  0  0  0  0  0  0
   21.5519   -6.0056  -13.4664 C   0  0  0  0  0  0  0  0  0  0  0  0
   20.8675   -4.9777  -13.4426 O   0  0  0  0  0  0  0  0  0  0  0  0
   20.0919   -6.2725  -16.1967 C   0  0  0  0  0  0  0  0  0  0  0  0
   20.1973   -6.7950  -17.3624 O   0  0  0  0  0  0  0  0  0  0  0  0
   22.7010   -5.9729  -12.6413 O   0  0  0  0  0  0  0  0  0  0  0  0
   20.0853   -4.8665  -16.0816 N   0  0  0  0  0  0  0  0  0  0  0  0
   20.2342   -4.0893  -17.3248 C   0  0  1  0  0  0  0  0  0  0  0  0
   19.0943   -4.3849  -18.2701 C   0  0  0  0  0  0  0  0  0  0  0  0
   19.1976   -3.5491  -19.4939 C   0  0  0  0  0  0  0  0  0  0  0  0
   18.7236   -2.3716  -19.5550 O   0  0  0  0  0  0  0  0  0  0  0  0
   20.2372   -2.6528  -16.9733 C   0  0  0  0  0  0  0  0  0  0  0  0
   19.6621   -2.2115  -15.9426 O   0  0  0  0  0  0  0  0  0  0  0  0
   19.8307   -4.0258  -20.6528 O   0  0  0  0  0  0  0  0  0  0  0  0
   20.8877   -1.7362  -17.7884 O   0  0  0  0  0  0  0  0  0  0  0  0
  2  1  1  1
  2  3  1  0
  4  6  1  0
  4  2  1  0
  4  5  1  1
  6  7  2  0
  8  6  1  0
  8  9  1  0
  9 10  1  1
 11 10  1  0
 11 15  1  0
 12 11  2  0
 13 16  1  0
 13  9  1  0
 14 13  2  0
 17 21  1  0
 17 18  1  6
 17 16  1  0
 19 18  1  0
 19 23  1  0
 20 19  2  0
 21 24  1  0
 22 21  2  0
M  END
$$$$
