VDD.pdb
     RDKit          3D

 24 23  0  0  1  0  0  0  0  0999 V2000
   24.5380  -12.4433  -16.0192 C   0  0  0  0  0  0  0  0  0  0  0  0
   23.3456  -12.9526  -15.2500 C   0  0  2  0  0  0  0  0  0  0  0  0
   23.7054  -14.2374  -14.5774 C   0  0  0  0  0  0  0  0  0  0  0  0
   22.1881  -13.0760  -16.2163 C   0  0  2  0  0  0  0  0  0  0  0  0
   22.6029  -14.0866  -17.2016 N   0  0  0  0  0  0  0  0  0  0  0  0
   21.8843  -11.7929  -16.8860 C   0  0  0  0  0  0  0  0  0  0  0  0
   22.5092  -11.4827  -17.9207 O   0  0  0  0  0  0  0  0  0  0  0  0
   20.8984  -10.9294  -16.3601 N   0  0  0  0  0  0  0  0  0  0  0  0
   20.5434   -9.6430  -17.0616 C   0  0  1  0  0  0  0  0  0  0  0  0
   19.1076   -9.8850  -17.5018 C   0  0  0  0  0  0  0  0  0  0  0  0
   18.8918  -10.6388  -18.7144 C   0  0  0  0  0  0  0  0  0  0  0  0
   19.4467  -10.4294  -19.7978 O   0  0  0  0  0  0  0  0  0  0  0  0
   20.5694   -8.6462  -15.9723 C   0  0  0  0  0  0  0  0  0  0  0  0
   20.1613   -9.0390  -14.8224 O   0  0  0  0  0  0  0  0  0  0  0  0
   17.9775  -11.7188  -18.7147 O   0  0  0  0  0  0  0  0  0  0  0  0
   21.0125   -7.3148  -16.1164 N   0  0  0  0  0  0  0  0  0  0  0  0
   21.1160   -6.5041  -14.8900 C   0  0  1  0  0  0  0  0  0  0  0  0
   22.2993   -5.5698  -14.9750 C   0  0  0  0  0  0  0  0  0  0  0  0
   22.3268   -4.6507  -13.8081 C   0  0  0  0  0  0  0  0  0  0  0  0
   23.0633   -4.8611  -12.7941 O   0  0  0  0  0  0  0  0  0  0  0  0
   19.8679   -5.7239  -14.7459 C   0  0  0  0  0  0  0  0  0  0  0  0
   19.1805   -5.3655  -15.7393 O   0  0  0  0  0  0  0  0  0  0  0  0
   21.5319   -3.4941  -13.7704 O   0  0  0  0  0  0  0  0  0  0  0  0
   19.4140   -5.3599  -13.4853 O   0  0  0  0  0  0  0  0  0  0  0  0
  2  1  1  6
  2  3  1  0
  4  6  1  0
  4  2  1  0
  4  5  1  6
  6  7  2  0
  8  6  1  0
  8  9  1  0
  9 10  1  1
 11 10  1  0
 11 15  1  0
 12 11  2  0
 13 16  1  0
 13  9  1  0
 14 13  2  0
 17 21  1  0
 17 18  1  6
 17 16  1  0
 19 18  1  0
 19 23  1  0
 20 19  2  0
 21 24  1  0
 22 21  2  0
M  END
$$$$
