VDD.pdb
     RDKit          3D

 24 23  0  0  1  0  0  0  0  0999 V2000
   16.3511  -12.4135  -17.5119 C   0  0  0  0  0  0  0  0  0  0  0  0
   17.0530  -13.2091  -16.4407 C   0  0  2  0  0  0  0  0  0  0  0  0
   16.0355  -13.9173  -15.6066 C   0  0  0  0  0  0  0  0  0  0  0  0
   17.9279  -12.2579  -15.6543 C   0  0  2  0  0  0  0  0  0  0  0  0
   17.0117  -11.5142  -14.7758 N   0  0  0  0  0  0  0  0  0  0  0  0
   18.6704  -11.3297  -16.5343 C   0  0  0  0  0  0  0  0  0  0  0  0
   19.5438  -11.7843  -17.3010 O   0  0  0  0  0  0  0  0  0  0  0  0
   18.3935   -9.9452  -16.5067 N   0  0  0  0  0  0  0  0  0  0  0  0
   19.1822   -8.9820  -17.3571 C   0  0  1  0  0  0  0  0  0  0  0  0
   18.1439   -8.4817  -18.3498 C   0  0  0  0  0  0  0  0  0  0  0  0
   18.5269   -7.4178  -19.2478 C   0  0  0  0  0  0  0  0  0  0  0  0
   17.7484   -6.7056  -19.8899 O   0  0  0  0  0  0  0  0  0  0  0  0
   19.5282   -7.9020  -16.4112 C   0  0  0  0  0  0  0  0  0  0  0  0
   18.6607   -7.6274  -15.5082 O   0  0  0  0  0  0  0  0  0  0  0  0
   19.8975   -7.1258  -19.4439 O   0  0  0  0  0  0  0  0  0  0  0  0
   20.7347   -7.1715  -16.4371 N   0  0  0  0  0  0  0  0  0  0  0  0
   20.9262   -6.1519  -15.3904 C   0  0  1  0  0  0  0  0  0  0  0  0
   22.0205   -6.5733  -14.4389 C   0  0  0  0  0  0  0  0  0  0  0  0
   22.2289   -5.5425  -13.3897 C   0  0  0  0  0  0  0  0  0  0  0  0
   23.0099   -4.5536  -13.5538 O   0  0  0  0  0  0  0  0  0  0  0  0
   21.2932   -4.8790  -16.0479 C   0  0  0  0  0  0  0  0  0  0  0  0
   21.7445   -4.8351  -17.2235 O   0  0  0  0  0  0  0  0  0  0  0  0
   21.5656   -5.6132  -12.1543 O   0  0  0  0  0  0  0  0  0  0  0  0
   21.1464   -3.6760  -15.3706 O   0  0  0  0  0  0  0  0  0  0  0  0
  2  1  1  6
  2  3  1  0
  4  6  1  0
  4  2  1  0
  4  5  1  1
  6  7  2  0
  8  6  1  0
  8  9  1  0
  9 10  1  6
 11 10  1  0
 11 15  1  0
 12 11  2  0
 13 16  1  0
 13  9  1  0
 14 13  2  0
 17 21  1  0
 17 18  1  1
 17 16  1  0
 19 18  1  0
 19 23  1  0
 20 19  2  0
 21 24  1  0
 22 21  2  0
M  END
$$$$
