VDD.pdb
     RDKit          3D

 24 23  0  0  1  0  0  0  0  0999 V2000
   16.5435  -12.7561  -16.2147 C   0  0  0  0  0  0  0  0  0  0  0  0
   17.4432  -12.8164  -17.4230 C   0  0  2  0  0  0  0  0  0  0  0  0
   17.7951  -14.2409  -17.7046 C   0  0  0  0  0  0  0  0  0  0  0  0
   18.6434  -11.9360  -17.1523 C   0  0  2  0  0  0  0  0  0  0  0  0
   19.4347  -12.6491  -16.1376 N   0  0  0  0  0  0  0  0  0  0  0  0
   18.2511  -10.5984  -16.6584 C   0  0  0  0  0  0  0  0  0  0  0  0
   17.6286   -9.8273  -17.4168 O   0  0  0  0  0  0  0  0  0  0  0  0
   18.5776  -10.1993  -15.3438 N   0  0  0  0  0  0  0  0  0  0  0  0
   18.1938   -8.8338  -14.8326 C   0  0  1  0  0  0  0  0  0  0  0  0
   17.4486   -9.1536  -13.5456 C   0  0  0  0  0  0  0  0  0  0  0  0
   16.0313   -9.4149  -13.6339 C   0  0  0  0  0  0  0  0  0  0  0  0
   15.2205   -8.7588  -14.2956 O   0  0  0  0  0  0  0  0  0  0  0  0
   19.4960   -8.2146  -14.5137 C   0  0  0  0  0  0  0  0  0  0  0  0
   20.5274   -8.9722  -14.5873 O   0  0  0  0  0  0  0  0  0  0  0  0
   15.4736  -10.5029  -12.9215 O   0  0  0  0  0  0  0  0  0  0  0  0
   19.6712   -6.8643  -14.1452 N   0  0  0  0  0  0  0  0  0  0  0  0
   21.0486   -6.3401  -14.1462 C   0  0  1  0  0  0  0  0  0  0  0  0
   21.6807   -6.5239  -15.5053 C   0  0  0  0  0  0  0  0  0  0  0  0
   23.0433   -5.9327  -15.5342 C   0  0  0  0  0  0  0  0  0  0  0  0
   23.7843   -5.8815  -14.5031 O   0  0  0  0  0  0  0  0  0  0  0  0
   20.9952   -4.9019  -13.8060 C   0  0  0  0  0  0  0  0  0  0  0  0
   20.0591   -4.1533  -14.1946 O   0  0  0  0  0  0  0  0  0  0  0  0
   23.5822   -5.3971  -16.7148 O   0  0  0  0  0  0  0  0  0  0  0  0
   21.9971   -4.3298  -13.0337 O   0  0  0  0  0  0  0  0  0  0  0  0
  2  1  1  1
  2  3  1  0
  4  6  1  0
  4  2  1  0
  4  5  1  1
  6  7  2  0
  8  6  1  0
  8  9  1  0
  9 10  1  1
 11 10  1  0
 11 15  1  0
 12 11  2  0
 13 16  1  0
 13  9  1  0
 14 13  2  0
 17 21  1  0
 17 18  1  6
 17 16  1  0
 19 18  1  0
 19 23  1  0
 20 19  2  0
 21 24  1  0
 22 21  2  0
M  END
$$$$
