VDD.pdb
     RDKit          3D

 24 23  0  0  1  0  0  0  0  0999 V2000
   17.7298  -13.7803  -17.2834 C   0  0  0  0  0  0  0  0  0  0  0  0
   19.1761  -13.7090  -17.7033 C   0  0  2  0  0  0  0  0  0  0  0  0
   19.8393  -15.0153  -17.4096 C   0  0  0  0  0  0  0  0  0  0  0  0
   19.8084  -12.5330  -16.9920 C   0  0  2  0  0  0  0  0  0  0  0  0
   19.7898  -12.8802  -15.5626 N   0  0  0  0  0  0  0  0  0  0  0  0
   19.0670  -11.2757  -17.2300 C   0  0  0  0  0  0  0  0  0  0  0  0
   19.0573  -10.7816  -18.3760 O   0  0  0  0  0  0  0  0  0  0  0  0
   18.3783  -10.6423  -16.1724 N   0  0  0  0  0  0  0  0  0  0  0  0
   17.7966   -9.2622  -16.3454 C   0  0  1  0  0  0  0  0  0  0  0  0
   16.3969   -9.4124  -15.7689 C   0  0  0  0  0  0  0  0  0  0  0  0
   15.5198   -8.2665  -15.8201 C   0  0  0  0  0  0  0  0  0  0  0  0
   15.7893   -7.1793  -16.3408 O   0  0  0  0  0  0  0  0  0  0  0  0
   18.6207   -8.4330  -15.4431 C   0  0  0  0  0  0  0  0  0  0  0  0
   18.8119   -8.8857  -14.2592 O   0  0  0  0  0  0  0  0  0  0  0  0
   14.2317   -8.3435  -15.2395 O   0  0  0  0  0  0  0  0  0  0  0  0
   19.2038   -7.1991  -15.7999 N   0  0  0  0  0  0  0  0  0  0  0  0
   19.9556   -6.4831  -14.7540 C   0  0  1  0  0  0  0  0  0  0  0  0
   21.4130   -6.3742  -15.1343 C   0  0  0  0  0  0  0  0  0  0  0  0
   22.1793   -5.6653  -14.0774 C   0  0  0  0  0  0  0  0  0  0  0  0
   21.6909   -5.4240  -12.9294 O   0  0  0  0  0  0  0  0  0  0  0  0
   19.3711   -5.1325  -14.6082 C   0  0  0  0  0  0  0  0  0  0  0  0
   19.7259   -4.3413  -13.6940 O   0  0  0  0  0  0  0  0  0  0  0  0
   23.4935   -5.2240  -14.2997 O   0  0  0  0  0  0  0  0  0  0  0  0
   18.3962   -4.6946  -15.4944 O   0  0  0  0  0  0  0  0  0  0  0  0
  2  1  1  1
  2  3  1  0
  4  6  1  0
  4  2  1  0
  4  5  1  1
  6  7  2  0
  8  6  1  0
  8  9  1  0
  9 10  1  1
 11 10  1  0
 11 15  1  0
 12 11  2  0
 13 16  1  0
 13  9  1  0
 14 13  2  0
 17 21  1  0
 17 18  1  6
 17 16  1  0
 19 18  1  0
 19 23  1  0
 20 19  2  0
 21 24  1  0
 22 21  2  0
M  END
$$$$
