VDD.pdb
     RDKit          3D

 24 23  0  0  1  0  0  0  0  0999 V2000
   29.1445  -20.3343  -12.3392 C   0  0  0  0  0  0  0  0  0  0  0  0
   28.4946  -20.2611  -10.9807 C   0  0  2  0  0  0  0  0  0  0  0  0
   29.2170  -21.1692  -10.0395 C   0  0  0  0  0  0  0  0  0  0  0  0
   27.0298  -20.6002  -11.1483 C   0  0  2  0  0  0  0  0  0  0  0  0
   26.9881  -22.0455  -11.4199 N   0  0  0  0  0  0  0  0  0  0  0  0
   26.4082  -19.8458  -12.2580 C   0  0  0  0  0  0  0  0  0  0  0  0
   26.2494  -18.6133  -12.1432 O   0  0  0  0  0  0  0  0  0  0  0  0
   25.9996  -20.5130  -13.4336 N   0  0  0  0  0  0  0  0  0  0  0  0
   25.4381  -19.7449  -14.6031 C   0  0  1  0  0  0  0  0  0  0  0  0
   26.2325  -20.2937  -15.7786 C   0  0  0  0  0  0  0  0  0  0  0  0
   26.0405  -19.6761  -17.0696 C   0  0  0  0  0  0  0  0  0  0  0  0
   26.8997  -19.0540  -17.7024 O   0  0  0  0  0  0  0  0  0  0  0  0
   24.0420  -20.2201  -14.6800 C   0  0  0  0  0  0  0  0  0  0  0  0
   23.7220  -21.1944  -13.9109 O   0  0  0  0  0  0  0  0  0  0  0  0
   24.7800  -19.7618  -17.7068 O   0  0  0  0  0  0  0  0  0  0  0  0
   23.0563  -19.6737  -15.5285 N   0  0  0  0  0  0  0  0  0  0  0  0
   21.6535  -20.0221  -15.2413 C   0  0  1  0  0  0  0  0  0  0  0  0
   21.2774  -19.5843  -13.8458 C   0  0  0  0  0  0  0  0  0  0  0  0
   19.8552  -19.9050  -13.5609 C   0  0  0  0  0  0  0  0  0  0  0  0
   19.3551  -21.0486  -13.7996 O   0  0  0  0  0  0  0  0  0  0  0  0
   20.7957  -19.3371  -16.2323 C   0  0  0  0  0  0  0  0  0  0  0  0
   21.0495  -18.1769  -16.6534 O   0  0  0  0  0  0  0  0  0  0  0  0
   18.9875  -18.9496  -13.0083 O   0  0  0  0  0  0  0  0  0  0  0  0
   19.6658  -19.9696  -16.7330 O   0  0  0  0  0  0  0  0  0  0  0  0
  2  1  1  6
  2  3  1  0
  4  6  1  0
  4  2  1  0
  4  5  1  6
  6  7  2  0
  8  6  1  0
  8  9  1  0
  9 10  1  6
 11 10  1  0
 11 15  1  0
 12 11  2  0
 13 16  1  0
 13  9  1  0
 14 13  2  0
 17 21  1  0
 17 18  1  1
 17 16  1  0
 19 18  1  0
 19 23  1  0
 20 19  2  0
 21 24  1  0
 22 21  2  0
M  END
$$$$
