VDD.pdb
     RDKit          3D

 24 23  0  0  1  0  0  0  0  0999 V2000
   19.1380  -13.4474  -17.4852 C   0  0  0  0  0  0  0  0  0  0  0  0
   20.4402  -13.0422  -18.1282 C   0  0  2  0  0  0  0  0  0  0  0  0
   21.3825  -14.2015  -18.1056 C   0  0  0  0  0  0  0  0  0  0  0  0
   20.9588  -11.8232  -17.3977 C   0  0  2  0  0  0  0  0  0  0  0  0
   21.3656  -12.3036  -16.0680 N   0  0  0  0  0  0  0  0  0  0  0  0
   19.9291  -10.7687  -17.2755 C   0  0  0  0  0  0  0  0  0  0  0  0
   19.5071  -10.2068  -18.3068 O   0  0  0  0  0  0  0  0  0  0  0  0
   19.4298  -10.4027  -16.0063 N   0  0  0  0  0  0  0  0  0  0  0  0
   18.3839   -9.3256  -15.8682 C   0  0  1  0  0  0  0  0  0  0  0  0
   17.2958  -10.0150  -15.0589 C   0  0  0  0  0  0  0  0  0  0  0  0
   16.2792  -10.7446  -15.7794 C   0  0  0  0  0  0  0  0  0  0  0  0
   15.7392  -10.3771  -16.8277 O   0  0  0  0  0  0  0  0  0  0  0  0
   19.0555   -8.3080  -15.0351 C   0  0  0  0  0  0  0  0  0  0  0  0
   19.7962   -8.7408  -14.0826 O   0  0  0  0  0  0  0  0  0  0  0  0
   15.8285  -11.9915  -15.2850 O   0  0  0  0  0  0  0  0  0  0  0  0
   18.9379   -6.9149  -15.2235 N   0  0  0  0  0  0  0  0  0  0  0  0
   19.8052   -6.0499  -14.4041 C   0  0  1  0  0  0  0  0  0  0  0  0
   21.2499   -6.2163  -14.8107 C   0  0  0  0  0  0  0  0  0  0  0  0
   22.1161   -5.2625  -14.0713 C   0  0  0  0  0  0  0  0  0  0  0  0
   21.6757   -4.5361  -13.1262 O   0  0  0  0  0  0  0  0  0  0  0  0
   19.3831   -4.6473  -14.6082 C   0  0  0  0  0  0  0  0  0  0  0  0
   18.9371   -4.2330  -15.7115 O   0  0  0  0  0  0  0  0  0  0  0  0
   23.4768   -5.1173  -14.3852 O   0  0  0  0  0  0  0  0  0  0  0  0
   19.4701   -3.7336  -13.5665 O   0  0  0  0  0  0  0  0  0  0  0  0
  2  1  1  1
  2  3  1  0
  4  6  1  0
  4  2  1  0
  4  5  1  1
  6  7  2  0
  8  6  1  0
  8  9  1  0
  9 10  1  1
 11 10  1  0
 11 15  1  0
 12 11  2  0
 13 16  1  0
 13  9  1  0
 14 13  2  0
 17 21  1  0
 17 18  1  6
 17 16  1  0
 19 18  1  0
 19 23  1  0
 20 19  2  0
 21 24  1  0
 22 21  2  0
M  END
$$$$
