VDD.pdb
     RDKit          3D

 24 23  0  0  1  0  0  0  0  0999 V2000
   12.8405   -9.4217   -8.6615 C   0  0  0  0  0  0  0  0  0  0  0  0
   12.3215  -10.2300   -9.8235 C   0  0  2  0  0  0  0  0  0  0  0  0
   11.8755  -11.5688   -9.3323 C   0  0  0  0  0  0  0  0  0  0  0  0
   13.4153  -10.2988  -10.8663 C   0  0  2  0  0  0  0  0  0  0  0  0
   14.3667  -11.3071  -10.3740 N   0  0  0  0  0  0  0  0  0  0  0  0
   14.0899   -8.9957  -11.0508 C   0  0  0  0  0  0  0  0  0  0  0  0
   13.4278   -8.0190  -11.4571 O   0  0  0  0  0  0  0  0  0  0  0  0
   15.4671   -8.8591  -10.7701 N   0  0  0  0  0  0  0  0  0  0  0  0
   16.1602   -7.5296  -10.9280 C   0  0  1  0  0  0  0  0  0  0  0  0
   16.5137   -7.1620   -9.4949 C   0  0  0  0  0  0  0  0  0  0  0  0
   17.3568   -6.0092   -9.2825 C   0  0  0  0  0  0  0  0  0  0  0  0
   17.4008   -5.0093  -10.0062 O   0  0  0  0  0  0  0  0  0  0  0  0
   17.3885   -7.8756  -11.6712 C   0  0  0  0  0  0  0  0  0  0  0  0
   18.0279   -8.9138  -11.2755 O   0  0  0  0  0  0  0  0  0  0  0  0
   18.2245   -5.9720   -8.1654 O   0  0  0  0  0  0  0  0  0  0  0  0
   17.8888   -7.1497  -12.7725 N   0  0  0  0  0  0  0  0  0  0  0  0
   19.1222   -7.6512  -13.4042 C   0  0  1  0  0  0  0  0  0  0  0  0
   18.8162   -8.2446  -14.7586 C   0  0  0  0  0  0  0  0  0  0  0  0
   20.0607   -8.7192  -15.4166 C   0  0  0  0  0  0  0  0  0  0  0  0
   20.7128   -8.0003  -16.2369 O   0  0  0  0  0  0  0  0  0  0  0  0
   20.0593   -6.5166  -13.5516 C   0  0  0  0  0  0  0  0  0  0  0  0
   19.6625   -5.3408  -13.7700 O   0  0  0  0  0  0  0  0  0  0  0  0
   20.5806   -9.9979  -15.1602 O   0  0  0  0  0  0  0  0  0  0  0  0
   21.4283   -6.7245  -13.4507 O   0  0  0  0  0  0  0  0  0  0  0  0
  2  1  1  1
  2  3  1  0
  4  6  1  0
  4  2  1  0
  4  5  1  1
  6  7  2  0
  8  6  1  0
  8  9  1  0
  9 10  1  1
 11 10  1  0
 11 15  1  0
 12 11  2  0
 13 16  1  0
 13  9  1  0
 14 13  2  0
 17 21  1  0
 17 18  1  6
 17 16  1  0
 19 18  1  0
 19 23  1  0
 20 19  2  0
 21 24  1  0
 22 21  2  0
M  END
$$$$
