VDD.pdb
     RDKit          3D

 24 23  0  0  1  0  0  0  0  0999 V2000
   16.9872  -10.0353  -16.6918 C   0  0  0  0  0  0  0  0  0  0  0  0
   18.2908  -10.2323  -17.4231 C   0  0  2  0  0  0  0  0  0  0  0  0
   18.1580  -11.3844  -18.3651 C   0  0  0  0  0  0  0  0  0  0  0  0
   19.3799  -10.4151  -16.3891 C   0  0  2  0  0  0  0  0  0  0  0  0
   19.0636  -11.6770  -15.7021 N   0  0  0  0  0  0  0  0  0  0  0  0
   19.4231   -9.2957  -15.4237 C   0  0  0  0  0  0  0  0  0  0  0  0
   18.8656   -9.4257  -14.3147 O   0  0  0  0  0  0  0  0  0  0  0  0
   20.0876   -8.0942  -15.7536 N   0  0  0  0  0  0  0  0  0  0  0  0
   20.0541   -6.9107  -14.8201 C   0  0  1  0  0  0  0  0  0  0  0  0
   21.5242   -6.7001  -14.4910 C   0  0  0  0  0  0  0  0  0  0  0  0
   21.8701   -5.5991  -13.6231 C   0  0  0  0  0  0  0  0  0  0  0  0
   21.0660   -4.8585  -13.0484 O   0  0  0  0  0  0  0  0  0  0  0  0
   19.5747   -5.8131  -15.6839 C   0  0  0  0  0  0  0  0  0  0  0  0
   20.0333   -5.7795  -16.8804 O   0  0  0  0  0  0  0  0  0  0  0  0
   23.2315   -5.3017  -13.3773 O   0  0  0  0  0  0  0  0  0  0  0  0
   18.6559   -4.8211  -15.2816 N   0  0  0  0  0  0  0  0  0  0  0  0
   18.3574   -3.7493  -16.2480 C   0  0  1  0  0  0  0  0  0  0  0  0
   16.9642   -3.2116  -16.0240 C   0  0  0  0  0  0  0  0  0  0  0  0
   16.6585   -2.1272  -16.9922 C   0  0  0  0  0  0  0  0  0  0  0  0
   16.9768   -0.9156  -16.7789 O   0  0  0  0  0  0  0  0  0  0  0  0
   19.3501   -2.6693  -16.0603 C   0  0  0  0  0  0  0  0  0  0  0  0
   19.9419   -2.4830  -14.9636 O   0  0  0  0  0  0  0  0  0  0  0  0
   15.9967   -2.3929  -18.2016 O   0  0  0  0  0  0  0  0  0  0  0  0
   19.6603   -1.8162  -17.1109 O   0  0  0  0  0  0  0  0  0  0  0  0
  2  1  1  1
  2  3  1  0
  4  6  1  0
  4  2  1  0
  4  5  1  1
  6  7  2  0
  8  6  1  0
  8  9  1  0
  9 10  1  6
 11 10  1  0
 11 15  1  0
 12 11  2  0
 13 16  1  0
 13  9  1  0
 14 13  2  0
 17 21  1  0
 17 18  1  1
 17 16  1  0
 19 18  1  0
 19 23  1  0
 20 19  2  0
 21 24  1  0
 22 21  2  0
M  END
$$$$
