YED.pdb
     RDKit          3D

 30 30  0  0  1  0  0  0  0  0999 V2000
    7.2731  -11.6882   17.9049 O   0  0  0  0  0  0  0  0  0  0  0  0
    7.5443  -12.6257   18.8869 C   0  0  0  0  0  0  0  0  0  0  0  0
    8.2915  -12.2776   19.9946 C   0  0  0  0  0  0  0  0  0  0  0  0
    8.5851  -13.1750   20.9914 C   0  0  0  0  0  0  0  0  0  0  0  0
    8.1181  -14.4670   20.8837 C   0  0  0  0  0  0  0  0  0  0  0  0
    8.4355  -15.4288   21.9579 C   0  0  0  0  0  0  0  0  0  0  0  0
    9.9049  -15.5970   22.1791 C   0  0  2  0  0  0  0  0  0  0  0  0
   10.5703  -15.6284   20.8928 N   0  0  0  0  0  0  0  0  0  0  0  0
   10.2229  -16.8131   22.9797 C   0  0  0  0  0  0  0  0  0  0  0  0
    9.5506  -17.0705   24.0105 O   0  0  0  0  0  0  0  0  0  0  0  0
    7.3667  -14.8575   19.7928 C   0  0  0  0  0  0  0  0  0  0  0  0
    7.0979  -13.9268   18.8198 C   0  0  0  0  0  0  0  0  0  0  0  0
   11.2665  -17.6595   22.5814 N   0  0  0  0  0  0  0  0  0  0  0  0
   11.7026  -18.8767   23.1839 C   0  0  1  0  0  0  0  0  0  0  0  0
   12.7097  -19.6706   22.3912 C   0  0  0  0  0  0  0  0  0  0  0  0
   12.2170  -20.3425   21.1661 C   0  0  0  0  0  0  0  0  0  0  0  0
   13.0249  -21.5453   20.7587 C   0  0  0  0  0  0  0  0  0  0  0  0
   14.1187  -21.4303   20.1853 O   0  0  0  0  0  0  0  0  0  0  0  0
   12.1610  -18.7357   24.5642 C   0  0  0  0  0  0  0  0  0  0  0  0
   13.1548  -17.9857   24.8776 O   0  0  0  0  0  0  0  0  0  0  0  0
   12.5639  -22.8304   21.0144 O   0  0  0  0  0  0  0  0  0  0  0  0
   11.5083  -19.4351   25.6155 N   0  0  0  0  0  0  0  0  0  0  0  0
   11.9477  -19.2520   26.9948 C   0  0  1  0  0  0  0  0  0  0  0  0
   10.7177  -19.4431   27.8820 C   0  0  0  0  0  0  0  0  0  0  0  0
   11.1539  -19.2295   29.2923 C   0  0  0  0  0  0  0  0  0  0  0  0
   12.3905  -19.0565   29.5369 O   0  0  0  0  0  0  0  0  0  0  0  0
   12.9967  -20.2550   27.2766 C   0  0  0  0  0  0  0  0  0  0  0  0
   13.7313  -20.1239   28.2868 O   0  0  0  0  0  0  0  0  0  0  0  0
   10.1933  -19.2268   30.3026 O   0  0  0  0  0  0  0  0  0  0  0  0
   13.1754  -21.3294   26.4436 O   0  0  0  0  0  0  0  0  0  0  0  0
  2  1  1  0
  3  2  2  0
  4  3  1  0
  5 11  1  0
  5  4  2  0
  6  5  1  0
  7  9  1  0
  7  6  1  0
  7  8  1  6
  9 10  2  0
 11 12  2  0
 12  2  1  0
 13 14  1  0
 13  9  1  0
 14 15  1  6
 15 16  1  0
 16 17  1  0
 17 21  1  0
 17 18  2  0
 19 14  1  0
 20 19  2  0
 22 19  1  0
 23 27  1  0
 23 22  1  0
 23 24  1  1
 25 24  1  0
 26 25  2  0
 27 30  1  0
 28 27  2  0
 29 25  1  0
M  END
$$$$
