YED.pdb
     RDKit          3D

 30 30  0  0  1  0  0  0  0  0999 V2000
    4.9046  -10.3622   26.9536 O   0  0  0  0  0  0  0  0  0  0  0  0
    5.6838  -11.4496   26.5967 C   0  0  0  0  0  0  0  0  0  0  0  0
    6.3679  -11.4522   25.3974 C   0  0  0  0  0  0  0  0  0  0  0  0
    7.1508  -12.5090   25.0032 C   0  0  0  0  0  0  0  0  0  0  0  0
    7.2584  -13.6044   25.8324 C   0  0  0  0  0  0  0  0  0  0  0  0
    8.1016  -14.7385   25.4053 C   0  0  0  0  0  0  0  0  0  0  0  0
    7.3409  -15.7848   24.6551 C   0  0  2  0  0  0  0  0  0  0  0  0
    6.4571  -16.4700   25.5757 N   0  0  0  0  0  0  0  0  0  0  0  0
    8.2386  -16.7462   23.9541 C   0  0  0  0  0  0  0  0  0  0  0  0
    8.5920  -17.8027   24.5368 O   0  0  0  0  0  0  0  0  0  0  0  0
    6.5915  -13.6431   27.0411 C   0  0  0  0  0  0  0  0  0  0  0  0
    5.8195  -12.5641   27.3943 C   0  0  0  0  0  0  0  0  0  0  0  0
    8.6830  -16.4678   22.6545 N   0  0  0  0  0  0  0  0  0  0  0  0
    9.6152  -17.1975   21.8587 C   0  0  1  0  0  0  0  0  0  0  0  0
    9.5549  -16.9296   20.3763 C   0  0  0  0  0  0  0  0  0  0  0  0
   10.3909  -17.7898   19.5066 C   0  0  0  0  0  0  0  0  0  0  0  0
   10.3645  -17.4022   18.0525 C   0  0  0  0  0  0  0  0  0  0  0  0
   11.2780  -16.7382   17.5397 O   0  0  0  0  0  0  0  0  0  0  0  0
   10.9990  -17.1115   22.3202 C   0  0  0  0  0  0  0  0  0  0  0  0
   11.5486  -15.9897   22.6168 O   0  0  0  0  0  0  0  0  0  0  0  0
    9.3060  -17.7793   17.2360 O   0  0  0  0  0  0  0  0  0  0  0  0
   11.7876  -18.2861   22.4571 N   0  0  0  0  0  0  0  0  0  0  0  0
   13.1592  -18.1897   22.9455 C   0  0  1  0  0  0  0  0  0  0  0  0
   13.5244  -19.5593   23.5176 C   0  0  0  0  0  0  0  0  0  0  0  0
   13.2871  -19.5000   24.9890 C   0  0  0  0  0  0  0  0  0  0  0  0
   12.9776  -18.3861   25.5203 O   0  0  0  0  0  0  0  0  0  0  0  0
   14.0240  -17.8154   21.8063 C   0  0  0  0  0  0  0  0  0  0  0  0
   13.7913  -18.2842   20.6647 O   0  0  0  0  0  0  0  0  0  0  0  0
   13.4125  -20.6676   25.7402 O   0  0  0  0  0  0  0  0  0  0  0  0
   15.0801  -16.9592   21.9848 O   0  0  0  0  0  0  0  0  0  0  0  0
  2  1  1  0
  3  2  2  0
  4  3  1  0
  5 11  1  0
  5  4  2  0
  6  5  1  0
  7  9  1  0
  7  6  1  0
  7  8  1  1
  9 10  2  0
 11 12  2  0
 12  2  1  0
 13 14  1  0
 13  9  1  0
 14 15  1  6
 15 16  1  0
 16 17  1  0
 17 21  1  0
 17 18  2  0
 19 14  1  0
 20 19  2  0
 22 19  1  0
 23 27  1  0
 23 22  1  0
 23 24  1  6
 25 24  1  0
 26 25  2  0
 27 30  1  0
 28 27  2  0
 29 25  1  0
M  END
$$$$
