YED.pdb
     RDKit          3D

 30 30  0  0  1  0  0  0  0  0999 V2000
    4.9521  -10.3929   27.3201 O   0  0  0  0  0  0  0  0  0  0  0  0
    5.8002  -11.4160   26.9315 C   0  0  0  0  0  0  0  0  0  0  0  0
    5.9139  -11.7577   25.5986 C   0  0  0  0  0  0  0  0  0  0  0  0
    6.7415  -12.7656   25.1691 C   0  0  0  0  0  0  0  0  0  0  0  0
    7.4847  -13.4596   26.0992 C   0  0  0  0  0  0  0  0  0  0  0  0
    8.3738  -14.5423   25.6333 C   0  0  0  0  0  0  0  0  0  0  0  0
    7.6436  -15.6334   24.9173 C   0  0  2  0  0  0  0  0  0  0  0  0
    6.7227  -16.2634   25.8410 N   0  0  0  0  0  0  0  0  0  0  0  0
    8.5685  -16.6336   24.3128 C   0  0  0  0  0  0  0  0  0  0  0  0
    8.8470  -17.6834   24.9463 O   0  0  0  0  0  0  0  0  0  0  0  0
    7.4016  -13.1502   27.4425 C   0  0  0  0  0  0  0  0  0  0  0  0
    6.5606  -12.1352   27.8267 C   0  0  0  0  0  0  0  0  0  0  0  0
    9.1215  -16.3991   23.0466 N   0  0  0  0  0  0  0  0  0  0  0  0
   10.1338  -17.1403   22.3679 C   0  0  1  0  0  0  0  0  0  0  0  0
   10.1460  -17.0010   20.8668 C   0  0  0  0  0  0  0  0  0  0  0  0
   11.1485  -17.8043   20.1286 C   0  0  0  0  0  0  0  0  0  0  0  0
   11.1544  -17.5635   18.6429 C   0  0  0  0  0  0  0  0  0  0  0  0
   12.1193  -17.8895   17.9351 O   0  0  0  0  0  0  0  0  0  0  0  0
   11.4824  -16.9397   22.8934 C   0  0  0  0  0  0  0  0  0  0  0  0
   11.9357  -15.7720   23.1759 O   0  0  0  0  0  0  0  0  0  0  0  0
   10.0700  -16.9627   18.0164 O   0  0  0  0  0  0  0  0  0  0  0  0
   12.3436  -18.0492   23.1113 N   0  0  0  0  0  0  0  0  0  0  0  0
   13.6487  -17.8474   23.7321 C   0  0  1  0  0  0  0  0  0  0  0  0
   14.0516  -19.1803   24.3628 C   0  0  0  0  0  0  0  0  0  0  0  0
   13.8201  -19.0610   25.8315 C   0  0  0  0  0  0  0  0  0  0  0  0
   14.3301  -18.0788   26.4593 O   0  0  0  0  0  0  0  0  0  0  0  0
   14.5948  -17.4236   22.6781 C   0  0  0  0  0  0  0  0  0  0  0  0
   15.5070  -16.6043   22.9499 O   0  0  0  0  0  0  0  0  0  0  0  0
   13.0519  -20.0304   26.4744 O   0  0  0  0  0  0  0  0  0  0  0  0
   14.4855  -17.9177   21.4037 O   0  0  0  0  0  0  0  0  0  0  0  0
  2  1  1  0
  3  2  2  0
  4  3  1  0
  5 11  1  0
  5  4  2  0
  6  5  1  0
  7  9  1  0
  7  6  1  0
  7  8  1  1
  9 10  2  0
 11 12  2  0
 12  2  1  0
 13 14  1  0
 13  9  1  0
 14 15  1  6
 15 16  1  0
 16 17  1  0
 17 21  1  0
 17 18  2  0
 19 14  1  0
 20 19  2  0
 22 19  1  0
 23 27  1  0
 23 22  1  0
 23 24  1  6
 25 24  1  0
 26 25  2  0
 27 30  1  0
 28 27  2  0
 29 25  1  0
M  END
$$$$
