YED.pdb
     RDKit          3D

 30 30  0  0  1  0  0  0  0  0999 V2000
    4.6096  -10.5503   27.1030 O   0  0  0  0  0  0  0  0  0  0  0  0
    5.5011  -11.5172   26.6701 C   0  0  0  0  0  0  0  0  0  0  0  0
    6.0380  -12.4202   27.5660 C   0  0  0  0  0  0  0  0  0  0  0  0
    6.9259  -13.3941   27.1807 C   0  0  0  0  0  0  0  0  0  0  0  0
    7.2936  -13.4740   25.8550 C   0  0  0  0  0  0  0  0  0  0  0  0
    8.2481  -14.5229   25.4447 C   0  0  0  0  0  0  0  0  0  0  0  0
    7.5958  -15.6610   24.7267 C   0  0  2  0  0  0  0  0  0  0  0  0
    6.7367  -16.3677   25.6546 N   0  0  0  0  0  0  0  0  0  0  0  0
    8.5877  -16.5820   24.1030 C   0  0  0  0  0  0  0  0  0  0  0  0
    8.9496  -17.6150   24.7217 O   0  0  0  0  0  0  0  0  0  0  0  0
    6.7802  -12.5911   24.9255 C   0  0  0  0  0  0  0  0  0  0  0  0
    5.8958  -11.6330   25.3558 C   0  0  0  0  0  0  0  0  0  0  0  0
    9.1105  -16.2923   22.8354 N   0  0  0  0  0  0  0  0  0  0  0  0
   10.1827  -16.9348   22.1483 C   0  0  1  0  0  0  0  0  0  0  0  0
   10.3106  -16.5996   20.6839 C   0  0  0  0  0  0  0  0  0  0  0  0
   11.2613  -17.4144   19.8918 C   0  0  0  0  0  0  0  0  0  0  0  0
   10.7162  -17.8795   18.5682 C   0  0  0  0  0  0  0  0  0  0  0  0
    9.9038  -18.8135   18.4915 O   0  0  0  0  0  0  0  0  0  0  0  0
   11.4832  -16.8008   22.8009 C   0  0  0  0  0  0  0  0  0  0  0  0
   11.9956  -15.6541   23.0673 O   0  0  0  0  0  0  0  0  0  0  0  0
   11.1120  -17.2714   17.3838 O   0  0  0  0  0  0  0  0  0  0  0  0
   12.2288  -17.9545   23.1660 N   0  0  0  0  0  0  0  0  0  0  0  0
   13.5071  -17.8080   23.8542 C   0  0  1  0  0  0  0  0  0  0  0  0
   13.8299  -19.1624   24.4851 C   0  0  0  0  0  0  0  0  0  0  0  0
   13.2841  -19.1436   25.8731 C   0  0  0  0  0  0  0  0  0  0  0  0
   12.9224  -18.0337   26.3795 O   0  0  0  0  0  0  0  0  0  0  0  0
   14.5198  -17.4055   22.8551 C   0  0  0  0  0  0  0  0  0  0  0  0
   14.2472  -17.4642   21.6305 O   0  0  0  0  0  0  0  0  0  0  0  0
   13.1870  -20.3433   26.5762 O   0  0  0  0  0  0  0  0  0  0  0  0
   15.7565  -16.9676   23.2537 O   0  0  0  0  0  0  0  0  0  0  0  0
  2  1  1  0
  3  2  2  0
  4  3  1  0
  5 11  1  0
  5  4  2  0
  6  5  1  0
  7  9  1  0
  7  6  1  0
  7  8  1  1
  9 10  2  0
 11 12  2  0
 12  2  1  0
 13 14  1  0
 13  9  1  0
 14 15  1  6
 15 16  1  0
 16 17  1  0
 17 21  1  0
 17 18  2  0
 19 14  1  0
 20 19  2  0
 22 19  1  0
 23 27  1  0
 23 22  1  0
 23 24  1  6
 25 24  1  0
 26 25  2  0
 27 30  1  0
 28 27  2  0
 29 25  1  0
M  END
$$$$
