YED.pdb
     RDKit          3D

 30 30  0  0  1  0  0  0  0  0999 V2000
    6.1602  -11.8375   18.9027 O   0  0  0  0  0  0  0  0  0  0  0  0
    6.9873  -12.6565   19.6525 C   0  0  0  0  0  0  0  0  0  0  0  0
    6.5448  -13.1853   20.8487 C   0  0  0  0  0  0  0  0  0  0  0  0
    7.3313  -14.0008   21.6243 C   0  0  0  0  0  0  0  0  0  0  0  0
    8.6055  -14.3026   21.1947 C   0  0  0  0  0  0  0  0  0  0  0  0
    9.4478  -15.1802   22.0313 C   0  0  0  0  0  0  0  0  0  0  0  0
    9.4637  -16.5997   21.5611 C   0  0  2  0  0  0  0  0  0  0  0  0
    8.2294  -17.2401   21.9669 N   0  0  0  0  0  0  0  0  0  0  0  0
   10.6498  -17.3503   22.0619 C   0  0  0  0  0  0  0  0  0  0  0  0
   10.6199  -17.8639   23.2091 O   0  0  0  0  0  0  0  0  0  0  0  0
    9.0878  -13.7954   20.0042 C   0  0  0  0  0  0  0  0  0  0  0  0
    8.2666  -12.9838   19.2613 C   0  0  0  0  0  0  0  0  0  0  0  0
   11.7884  -17.4784   21.2548 N   0  0  0  0  0  0  0  0  0  0  0  0
   13.0160  -18.1427   21.5489 C   0  0  1  0  0  0  0  0  0  0  0  0
   13.8488  -18.5297   20.3533 C   0  0  0  0  0  0  0  0  0  0  0  0
   15.0853  -19.3010   20.6208 C   0  0  0  0  0  0  0  0  0  0  0  0
   15.9120  -19.5798   19.3944 C   0  0  0  0  0  0  0  0  0  0  0  0
   16.5130  -18.6750   18.7956 O   0  0  0  0  0  0  0  0  0  0  0  0
   13.8519  -17.4572   22.5320 C   0  0  0  0  0  0  0  0  0  0  0  0
   13.9878  -16.1805   22.5373 O   0  0  0  0  0  0  0  0  0  0  0  0
   16.0256  -20.8700   18.8927 O   0  0  0  0  0  0  0  0  0  0  0  0
   14.5482  -18.1962   23.5266 N   0  0  0  0  0  0  0  0  0  0  0  0
   15.3237  -17.4957   24.5450 C   0  0  1  0  0  0  0  0  0  0  0  0
   15.8346  -18.5552   25.5213 C   0  0  0  0  0  0  0  0  0  0  0  0
   14.8689  -18.6108   26.6567 C   0  0  0  0  0  0  0  0  0  0  0  0
   13.9693  -17.7154   26.7468 O   0  0  0  0  0  0  0  0  0  0  0  0
   16.4295  -16.7852   23.8682 C   0  0  0  0  0  0  0  0  0  0  0  0
   16.9788  -15.8052   24.4296 O   0  0  0  0  0  0  0  0  0  0  0  0
   14.9808  -19.6422   27.5877 O   0  0  0  0  0  0  0  0  0  0  0  0
   16.8620  -17.1872   22.6306 O   0  0  0  0  0  0  0  0  0  0  0  0
  2  1  1  0
  3  2  2  0
  4  3  1  0
  5 11  1  0
  5  4  2  0
  6  5  1  0
  7  9  1  0
  7  6  1  0
  7  8  1  1
  9 10  2  0
 11 12  2  0
 12  2  1  0
 13 14  1  0
 13  9  1  0
 14 15  1  6
 15 16  1  0
 16 17  1  0
 17 21  1  0
 17 18  2  0
 19 14  1  0
 20 19  2  0
 22 19  1  0
 23 27  1  0
 23 22  1  0
 23 24  1  1
 25 24  1  0
 26 25  2  0
 27 30  1  0
 28 27  2  0
 29 25  1  0
M  END
$$$$
