YED.pdb
     RDKit          3D

 30 30  0  0  1  0  0  0  0  0999 V2000
    8.5727  -12.0741   27.7146 O   0  0  0  0  0  0  0  0  0  0  0  0
    8.0547  -12.7280   26.6095 C   0  0  0  0  0  0  0  0  0  0  0  0
    8.8958  -13.1927   25.6180 C   0  0  0  0  0  0  0  0  0  0  0  0
    8.4255  -13.8452   24.5052 C   0  0  0  0  0  0  0  0  0  0  0  0
    7.0682  -14.0439   24.3730 C   0  0  0  0  0  0  0  0  0  0  0  0
    6.5666  -14.7464   23.1753 C   0  0  0  0  0  0  0  0  0  0  0  0
    6.3864  -16.2153   23.3895 C   0  0  2  0  0  0  0  0  0  0  0  0
    5.5789  -16.4190   24.5747 N   0  0  0  0  0  0  0  0  0  0  0  0
    7.6860  -16.9376   23.4927 C   0  0  0  0  0  0  0  0  0  0  0  0
    7.8908  -17.7104   24.4631 O   0  0  0  0  0  0  0  0  0  0  0  0
    6.1915  -13.5958   25.3413 C   0  0  0  0  0  0  0  0  0  0  0  0
    6.7062  -12.9479   26.4370 C   0  0  0  0  0  0  0  0  0  0  0  0
    8.6694  -16.7514   22.5117 N   0  0  0  0  0  0  0  0  0  0  0  0
    9.9318  -17.4032   22.3841 C   0  0  1  0  0  0  0  0  0  0  0  0
   10.7539  -16.9999   21.1863 C   0  0  0  0  0  0  0  0  0  0  0  0
   11.9951  -17.7697   20.9371 C   0  0  0  0  0  0  0  0  0  0  0  0
   12.3658  -17.8821   19.4827 C   0  0  0  0  0  0  0  0  0  0  0  0
   11.9201  -18.7913   18.7664 O   0  0  0  0  0  0  0  0  0  0  0  0
   10.7583  -17.3577   23.5882 C   0  0  0  0  0  0  0  0  0  0  0  0
   11.0405  -16.2528   24.1782 O   0  0  0  0  0  0  0  0  0  0  0  0
   13.2265  -16.9634   18.8960 O   0  0  0  0  0  0  0  0  0  0  0  0
   11.2803  -18.5545   24.1499 N   0  0  0  0  0  0  0  0  0  0  0  0
   11.9090  -18.5274   25.4664 C   0  0  1  0  0  0  0  0  0  0  0  0
   11.3678  -19.7284   26.2420 C   0  0  0  0  0  0  0  0  0  0  0  0
   12.1203  -19.7982   27.5279 C   0  0  0  0  0  0  0  0  0  0  0  0
   13.3903  -19.8712   27.4972 O   0  0  0  0  0  0  0  0  0  0  0  0
   13.3729  -18.6044   25.2747 C   0  0  0  0  0  0  0  0  0  0  0  0
   14.1434  -18.3169   26.2239 O   0  0  0  0  0  0  0  0  0  0  0  0
   11.4099  -19.7826   28.7272 O   0  0  0  0  0  0  0  0  0  0  0  0
   13.8986  -18.9877   24.0676 O   0  0  0  0  0  0  0  0  0  0  0  0
  2  1  1  0
  3  2  2  0
  4  3  1  0
  5 11  1  0
  5  4  2  0
  6  5  1  0
  7  9  1  0
  7  6  1  0
  7  8  1  1
  9 10  2  0
 11 12  2  0
 12  2  1  0
 13 14  1  0
 13  9  1  0
 14 15  1  6
 15 16  1  0
 16 17  1  0
 17 21  1  0
 17 18  2  0
 19 14  1  0
 20 19  2  0
 22 19  1  0
 23 27  1  0
 23 22  1  0
 23 24  1  1
 25 24  1  0
 26 25  2  0
 27 30  1  0
 28 27  2  0
 29 25  1  0
M  END
$$$$
