YED.pdb
     RDKit          3D

 30 30  0  0  1  0  0  0  0  0999 V2000
    5.8760  -11.7139   19.0771 O   0  0  0  0  0  0  0  0  0  0  0  0
    7.0430  -12.3894   19.3913 C   0  0  0  0  0  0  0  0  0  0  0  0
    7.0647  -13.2936   20.4345 C   0  0  0  0  0  0  0  0  0  0  0  0
    8.1995  -13.9845   20.7812 C   0  0  0  0  0  0  0  0  0  0  0  0
    9.3562  -13.7691   20.0637 C   0  0  0  0  0  0  0  0  0  0  0  0
   10.5741  -14.5143   20.4392 C   0  0  0  0  0  0  0  0  0  0  0  0
   11.1353  -15.3253   19.3151 C   0  0  2  0  0  0  0  0  0  0  0  0
   10.0841  -16.1604   18.7713 N   0  0  0  0  0  0  0  0  0  0  0  0
   12.3090  -16.1421   19.7353 C   0  0  0  0  0  0  0  0  0  0  0  0
   12.1256  -17.2853   20.2254 O   0  0  0  0  0  0  0  0  0  0  0  0
    9.3785  -12.8740   19.0123 C   0  0  0  0  0  0  0  0  0  0  0  0
    8.2205  -12.2049   18.7013 C   0  0  0  0  0  0  0  0  0  0  0  0
   13.6059  -15.6331   19.5831 N   0  0  0  0  0  0  0  0  0  0  0  0
   14.8507  -16.2837   19.8318 C   0  0  1  0  0  0  0  0  0  0  0  0
   15.7736  -16.3977   18.6451 C   0  0  0  0  0  0  0  0  0  0  0  0
   15.5697  -15.4279   17.5437 C   0  0  0  0  0  0  0  0  0  0  0  0
   16.5001  -15.6207   16.3763 C   0  0  0  0  0  0  0  0  0  0  0  0
   16.0913  -15.5834   15.2059 O   0  0  0  0  0  0  0  0  0  0  0  0
   15.5859  -15.7595   20.9806 C   0  0  0  0  0  0  0  0  0  0  0  0
   15.7297  -14.4991   21.1787 O   0  0  0  0  0  0  0  0  0  0  0  0
   17.8551  -15.8493   16.5782 O   0  0  0  0  0  0  0  0  0  0  0  0
   16.1709  -16.6442   21.9268 N   0  0  0  0  0  0  0  0  0  0  0  0
   16.8500  -16.1086   23.1020 C   0  0  1  0  0  0  0  0  0  0  0  0
   16.8920  -17.2296   24.1404 C   0  0  0  0  0  0  0  0  0  0  0  0
   17.5577  -16.6793   25.3565 C   0  0  0  0  0  0  0  0  0  0  0  0
   17.9221  -15.4602   25.3630 O   0  0  0  0  0  0  0  0  0  0  0  0
   18.2044  -15.6814   22.6913 C   0  0  0  0  0  0  0  0  0  0  0  0
   18.9059  -14.9919   23.4723 O   0  0  0  0  0  0  0  0  0  0  0  0
   17.7626  -17.5177   26.4513 O   0  0  0  0  0  0  0  0  0  0  0  0
   18.7032  -16.0316   21.4630 O   0  0  0  0  0  0  0  0  0  0  0  0
  2  1  1  0
  3  2  2  0
  4  3  1  0
  5 11  1  0
  5  4  2  0
  6  5  1  0
  7  9  1  0
  7  6  1  0
  7  8  1  1
  9 10  2  0
 11 12  2  0
 12  2  1  0
 13 14  1  0
 13  9  1  0
 14 15  1  6
 15 16  1  0
 16 17  1  0
 17 21  1  0
 17 18  2  0
 19 14  1  0
 20 19  2  0
 22 19  1  0
 23 27  1  0
 23 22  1  0
 23 24  1  1
 25 24  1  0
 26 25  2  0
 27 30  1  0
 28 27  2  0
 29 25  1  0
M  END
$$$$
