YED.pdb
     RDKit          3D

 30 30  0  0  1  0  0  0  0  0999 V2000
    4.9168  -10.0442   26.7015 O   0  0  0  0  0  0  0  0  0  0  0  0
    5.6425  -11.2073   26.5079 C   0  0  0  0  0  0  0  0  0  0  0  0
    6.1174  -11.5307   25.2524 C   0  0  0  0  0  0  0  0  0  0  0  0
    6.8401  -12.6738   25.0150 C   0  0  0  0  0  0  0  0  0  0  0  0
    7.1012  -13.5273   26.0649 C   0  0  0  0  0  0  0  0  0  0  0  0
    7.8790  -14.7551   25.8056 C   0  0  0  0  0  0  0  0  0  0  0  0
    7.1980  -15.6919   24.8597 C   0  0  2  0  0  0  0  0  0  0  0  0
    6.1689  -16.4150   25.5784 N   0  0  0  0  0  0  0  0  0  0  0  0
    8.1531  -16.6272   24.2009 C   0  0  0  0  0  0  0  0  0  0  0  0
    8.3759  -17.7518   24.7171 O   0  0  0  0  0  0  0  0  0  0  0  0
    6.6454  -13.2419   27.3369 C   0  0  0  0  0  0  0  0  0  0  0  0
    5.9263  -12.0880   27.5279 C   0  0  0  0  0  0  0  0  0  0  0  0
    8.7962  -16.2492   23.0144 N   0  0  0  0  0  0  0  0  0  0  0  0
    9.9343  -16.8429   22.3924 C   0  0  1  0  0  0  0  0  0  0  0  0
   10.3025  -16.2846   21.0413 C   0  0  0  0  0  0  0  0  0  0  0  0
   11.3969  -16.9663   20.3115 C   0  0  0  0  0  0  0  0  0  0  0  0
   10.9382  -17.7551   19.1145 C   0  0  0  0  0  0  0  0  0  0  0  0
   11.0421  -18.9903   19.0710 O   0  0  0  0  0  0  0  0  0  0  0  0
   11.1218  -16.9043   23.2417 C   0  0  0  0  0  0  0  0  0  0  0  0
   11.5386  -15.8857   23.9030 O   0  0  0  0  0  0  0  0  0  0  0  0
   10.3814  -17.1165   18.0139 O   0  0  0  0  0  0  0  0  0  0  0  0
   11.8600  -18.1130   23.3623 N   0  0  0  0  0  0  0  0  0  0  0  0
   13.0551  -18.1561   24.1984 C   0  0  1  0  0  0  0  0  0  0  0  0
   13.8124  -16.8500   23.9589 C   0  0  0  0  0  0  0  0  0  0  0  0
   14.7875  -17.1012   22.8585 C   0  0  0  0  0  0  0  0  0  0  0  0
   15.6408  -18.0358   22.9908 O   0  0  0  0  0  0  0  0  0  0  0  0
   12.6230  -18.2972   25.6053 C   0  0  0  0  0  0  0  0  0  0  0  0
   13.4777  -18.4895   26.5052 O   0  0  0  0  0  0  0  0  0  0  0  0
   14.7364  -16.3033   21.7166 O   0  0  0  0  0  0  0  0  0  0  0  0
   11.2949  -18.2200   25.9375 O   0  0  0  0  0  0  0  0  0  0  0  0
  2  1  1  0
  3  2  2  0
  4  3  1  0
  5 11  1  0
  5  4  2  0
  6  5  1  0
  7  9  1  0
  7  6  1  0
  7  8  1  1
  9 10  2  0
 11 12  2  0
 12  2  1  0
 13 14  1  0
 13  9  1  0
 14 15  1  6
 15 16  1  0
 16 17  1  0
 17 21  1  0
 17 18  2  0
 19 14  1  0
 20 19  2  0
 22 19  1  0
 23 27  1  0
 23 22  1  0
 23 24  1  1
 25 24  1  0
 26 25  2  0
 27 30  1  0
 28 27  2  0
 29 25  1  0
M  END
$$$$
