YED.pdb
     RDKit          3D

 30 30  0  0  1  0  0  0  0  0999 V2000
    5.5520  -10.4688   28.4021 O   0  0  0  0  0  0  0  0  0  0  0  0
    6.1993  -11.4271   27.6407 C   0  0  0  0  0  0  0  0  0  0  0  0
    5.9229  -11.5493   26.2935 C   0  0  0  0  0  0  0  0  0  0  0  0
    6.5401  -12.4857   25.5013 C   0  0  0  0  0  0  0  0  0  0  0  0
    7.4673  -13.3322   26.0693 C   0  0  0  0  0  0  0  0  0  0  0  0
    8.1291  -14.3373   25.2141 C   0  0  0  0  0  0  0  0  0  0  0  0
    7.1840  -15.3647   24.6779 C   0  0  2  0  0  0  0  0  0  0  0  0
    6.7112  -16.1828   25.7759 N   0  0  0  0  0  0  0  0  0  0  0  0
    7.8010  -16.2014   23.6100 C   0  0  0  0  0  0  0  0  0  0  0  0
    8.2829  -17.3251   23.9030 O   0  0  0  0  0  0  0  0  0  0  0  0
    7.7740  -13.2440   27.4129 C   0  0  0  0  0  0  0  0  0  0  0  0
    7.1320  -12.2930   28.1669 C   0  0  0  0  0  0  0  0  0  0  0  0
    7.8416  -15.7323   22.2899 N   0  0  0  0  0  0  0  0  0  0  0  0
    8.5277  -16.2886   21.1699 C   0  0  1  0  0  0  0  0  0  0  0  0
    8.1745  -15.6944   19.8300 C   0  0  0  0  0  0  0  0  0  0  0  0
    8.8383  -16.2809   18.6424 C   0  0  0  0  0  0  0  0  0  0  0  0
    8.3937  -17.6823   18.3204 C   0  0  0  0  0  0  0  0  0  0  0  0
    7.1928  -17.9886   18.2719 O   0  0  0  0  0  0  0  0  0  0  0  0
    9.9803  -16.3424   21.3188 C   0  0  0  0  0  0  0  0  0  0  0  0
   10.7049  -15.2826   21.3085 O   0  0  0  0  0  0  0  0  0  0  0  0
    9.3241  -18.6821   18.0672 O   0  0  0  0  0  0  0  0  0  0  0  0
   10.6423  -17.5894   21.4830 N   0  0  0  0  0  0  0  0  0  0  0  0
   12.0903  -17.6277   21.6596 C   0  0  1  0  0  0  0  0  0  0  0  0
   12.3698  -18.5625   22.8363 C   0  0  0  0  0  0  0  0  0  0  0  0
   12.7635  -17.7083   23.9941 C   0  0  0  0  0  0  0  0  0  0  0  0
   12.8694  -16.4515   23.8265 O   0  0  0  0  0  0  0  0  0  0  0  0
   12.6905  -18.1229   20.4025 C   0  0  0  0  0  0  0  0  0  0  0  0
   12.3438  -19.2387   19.9417 O   0  0  0  0  0  0  0  0  0  0  0  0
   13.0053  -18.3125   25.2269 O   0  0  0  0  0  0  0  0  0  0  0  0
   13.6240  -17.3739   19.7334 O   0  0  0  0  0  0  0  0  0  0  0  0
  2  1  1  0
  3  2  2  0
  4  3  1  0
  5 11  1  0
  5  4  2  0
  6  5  1  0
  7  9  1  0
  7  6  1  0
  7  8  1  1
  9 10  2  0
 11 12  2  0
 12  2  1  0
 13 14  1  0
 13  9  1  0
 14 15  1  6
 15 16  1  0
 16 17  1  0
 17 21  1  0
 17 18  2  0
 19 14  1  0
 20 19  2  0
 22 19  1  0
 23 27  1  0
 23 22  1  0
 23 24  1  1
 25 24  1  0
 26 25  2  0
 27 30  1  0
 28 27  2  0
 29 25  1  0
M  END
$$$$
