YED.pdb
     RDKit          3D

 30 30  0  0  1  0  0  0  0  0999 V2000
    5.1250  -10.5645   27.1519 O   0  0  0  0  0  0  0  0  0  0  0  0
    5.9223  -11.6217   26.7477 C   0  0  0  0  0  0  0  0  0  0  0  0
    6.8681  -11.4418   25.7579 C   0  0  0  0  0  0  0  0  0  0  0  0
    7.6790  -12.4620   25.3258 C   0  0  0  0  0  0  0  0  0  0  0  0
    7.5454  -13.7080   25.8992 C   0  0  0  0  0  0  0  0  0  0  0  0
    8.4196  -14.8022   25.4321 C   0  0  0  0  0  0  0  0  0  0  0  0
    7.9673  -15.4029   24.1395 C   0  0  2  0  0  0  0  0  0  0  0  0
    6.6660  -16.0081   24.3356 N   0  0  0  0  0  0  0  0  0  0  0  0
    8.9446  -16.3902   23.5997 C   0  0  0  0  0  0  0  0  0  0  0  0
    8.7701  -17.6167   23.8145 O   0  0  0  0  0  0  0  0  0  0  0  0
    6.6125  -13.9316   26.8926 C   0  0  0  0  0  0  0  0  0  0  0  0
    5.8226  -12.8824   27.2931 C   0  0  0  0  0  0  0  0  0  0  0  0
   10.0491  -15.9479   22.8591 N   0  0  0  0  0  0  0  0  0  0  0  0
   11.1157  -16.7182   22.3081 C   0  0  1  0  0  0  0  0  0  0  0  0
   11.8179  -16.1035   21.1241 C   0  0  0  0  0  0  0  0  0  0  0  0
   12.7683  -16.9687   20.3868 C   0  0  0  0  0  0  0  0  0  0  0  0
   13.3686  -16.3214   19.1678 C   0  0  0  0  0  0  0  0  0  0  0  0
   13.0880  -15.1572   18.8448 O   0  0  0  0  0  0  0  0  0  0  0  0
   12.1018  -17.1697   23.2873 C   0  0  0  0  0  0  0  0  0  0  0  0
   11.9054  -18.2030   24.0238 O   0  0  0  0  0  0  0  0  0  0  0  0
   14.2613  -17.0160   18.3617 O   0  0  0  0  0  0  0  0  0  0  0  0
   13.3261  -16.4671   23.4540 N   0  0  0  0  0  0  0  0  0  0  0  0
   14.3845  -17.0346   24.2829 C   0  0  1  0  0  0  0  0  0  0  0  0
   14.2521  -18.5548   24.1933 C   0  0  0  0  0  0  0  0  0  0  0  0
   14.9818  -19.1304   25.3600 C   0  0  0  0  0  0  0  0  0  0  0  0
   16.2514  -19.2047   25.3190 O   0  0  0  0  0  0  0  0  0  0  0  0
   15.6813  -16.5583   23.7565 C   0  0  0  0  0  0  0  0  0  0  0  0
   16.3925  -15.7894   24.4495 O   0  0  0  0  0  0  0  0  0  0  0  0
   14.2510  -19.5716   26.4620 O   0  0  0  0  0  0  0  0  0  0  0  0
   16.1159  -16.9491   22.5161 O   0  0  0  0  0  0  0  0  0  0  0  0
  2  1  1  0
  3  2  2  0
  4  3  1  0
  5 11  1  0
  5  4  2  0
  6  5  1  0
  7  9  1  0
  7  6  1  0
  7  8  1  1
  9 10  2  0
 11 12  2  0
 12  2  1  0
 13 14  1  0
 13  9  1  0
 14 15  1  6
 15 16  1  0
 16 17  1  0
 17 21  1  0
 17 18  2  0
 19 14  1  0
 20 19  2  0
 22 19  1  0
 23 27  1  0
 23 22  1  0
 23 24  1  6
 25 24  1  0
 26 25  2  0
 27 30  1  0
 28 27  2  0
 29 25  1  0
M  END
$$$$
