YED.pdb
     RDKit          3D

 30 30  0  0  1  0  0  0  0  0999 V2000
    5.4652  -12.0536   19.4379 O   0  0  0  0  0  0  0  0  0  0  0  0
    6.7423  -12.5677   19.5848 C   0  0  0  0  0  0  0  0  0  0  0  0
    7.7532  -12.1755   18.7300 C   0  0  0  0  0  0  0  0  0  0  0  0
    9.0332  -12.6603   18.8386 C   0  0  0  0  0  0  0  0  0  0  0  0
    9.3195  -13.5687   19.8346 C   0  0  0  0  0  0  0  0  0  0  0  0
   10.6972  -14.0872   19.9483 C   0  0  0  0  0  0  0  0  0  0  0  0
   11.0505  -15.0558   18.8651 C   0  0  2  0  0  0  0  0  0  0  0  0
   10.1215  -16.1663   18.9103 N   0  0  0  0  0  0  0  0  0  0  0  0
   12.4604  -15.5287   18.9642 C   0  0  0  0  0  0  0  0  0  0  0  0
   12.7253  -16.5507   19.6469 O   0  0  0  0  0  0  0  0  0  0  0  0
    8.3384  -13.9875   20.7115 C   0  0  0  0  0  0  0  0  0  0  0  0
    7.0723  -13.4767   20.5652 C   0  0  0  0  0  0  0  0  0  0  0  0
   13.4795  -14.8337   18.2990 N   0  0  0  0  0  0  0  0  0  0  0  0
   14.8732  -15.1338   18.2486 C   0  0  1  0  0  0  0  0  0  0  0  0
   15.6218  -14.5518   17.0765 C   0  0  0  0  0  0  0  0  0  0  0  0
   17.0481  -14.9288   16.9400 C   0  0  0  0  0  0  0  0  0  0  0  0
   17.7448  -14.2822   15.7730 C   0  0  0  0  0  0  0  0  0  0  0  0
   18.9431  -13.9662   15.8247 O   0  0  0  0  0  0  0  0  0  0  0  0
   15.5961  -14.8503   19.4864 C   0  0  0  0  0  0  0  0  0  0  0  0
   15.3144  -13.8360   20.2216 O   0  0  0  0  0  0  0  0  0  0  0  0
   17.0592  -14.0172   14.5945 O   0  0  0  0  0  0  0  0  0  0  0  0
   16.6473  -15.7035   19.9188 N   0  0  0  0  0  0  0  0  0  0  0  0
   17.3293  -15.4369   21.1810 C   0  0  1  0  0  0  0  0  0  0  0  0
   16.6616  -16.3133   22.2406 C   0  0  0  0  0  0  0  0  0  0  0  0
   17.4591  -16.1751   23.4934 C   0  0  0  0  0  0  0  0  0  0  0  0
   17.0941  -15.3255   24.3675 O   0  0  0  0  0  0  0  0  0  0  0  0
   18.7592  -15.7695   21.0062 C   0  0  0  0  0  0  0  0  0  0  0  0
   19.1180  -16.5032   20.0521 O   0  0  0  0  0  0  0  0  0  0  0  0
   18.5830  -16.9807   23.6701 O   0  0  0  0  0  0  0  0  0  0  0  0
   19.6995  -15.2833   21.8778 O   0  0  0  0  0  0  0  0  0  0  0  0
  2  1  1  0
  3  2  2  0
  4  3  1  0
  5 11  1  0
  5  4  2  0
  6  5  1  0
  7  9  1  0
  7  6  1  0
  7  8  1  1
  9 10  2  0
 11 12  2  0
 12  2  1  0
 13 14  1  0
 13  9  1  0
 14 15  1  6
 15 16  1  0
 16 17  1  0
 17 21  1  0
 17 18  2  0
 19 14  1  0
 20 19  2  0
 22 19  1  0
 23 27  1  0
 23 22  1  0
 23 24  1  1
 25 24  1  0
 26 25  2  0
 27 30  1  0
 28 27  2  0
 29 25  1  0
M  END
$$$$
