YED.pdb
     RDKit          3D

 30 30  0  0  1  0  0  0  0  0999 V2000
    7.1847  -13.9695   23.2353 O   0  0  0  0  0  0  0  0  0  0  0  0
    7.6478  -13.6625   21.9671 C   0  0  0  0  0  0  0  0  0  0  0  0
    6.7660  -13.5617   20.9094 C   0  0  0  0  0  0  0  0  0  0  0  0
    7.1815  -13.2605   19.6359 C   0  0  0  0  0  0  0  0  0  0  0  0
    8.5238  -13.0511   19.4048 C   0  0  0  0  0  0  0  0  0  0  0  0
    8.9664  -12.7270   18.0342 C   0  0  0  0  0  0  0  0  0  0  0  0
    9.2637  -13.9401   17.2117 C   0  0  2  0  0  0  0  0  0  0  0  0
    8.0353  -14.6810   17.0111 N   0  0  0  0  0  0  0  0  0  0  0  0
   10.3161  -14.7983   17.8258 C   0  0  0  0  0  0  0  0  0  0  0  0
    9.9801  -15.7637   18.5579 O   0  0  0  0  0  0  0  0  0  0  0  0
    9.4399  -13.1417   20.4342 C   0  0  0  0  0  0  0  0  0  0  0  0
    8.9796  -13.4457   21.6915 C   0  0  0  0  0  0  0  0  0  0  0  0
   11.6695  -14.5251   17.5856 N   0  0  0  0  0  0  0  0  0  0  0  0
   12.8125  -15.2816   17.9807 C   0  0  1  0  0  0  0  0  0  0  0  0
   13.9759  -15.2509   17.0223 C   0  0  0  0  0  0  0  0  0  0  0  0
   13.8004  -15.9617   15.7342 C   0  0  0  0  0  0  0  0  0  0  0  0
   15.0058  -15.9081   14.8345 C   0  0  0  0  0  0  0  0  0  0  0  0
   16.0604  -16.4930   15.1246 O   0  0  0  0  0  0  0  0  0  0  0  0
   13.2816  -15.0019   19.3359 C   0  0  0  0  0  0  0  0  0  0  0  0
   13.3560  -13.8057   19.7966 O   0  0  0  0  0  0  0  0  0  0  0  0
   14.9718  -15.1945   13.6433 O   0  0  0  0  0  0  0  0  0  0  0  0
   13.6739  -16.0630   20.1964 N   0  0  0  0  0  0  0  0  0  0  0  0
   14.1234  -15.7718   21.5537 C   0  0  1  0  0  0  0  0  0  0  0  0
   13.8018  -17.0022   22.4019 C   0  0  0  0  0  0  0  0  0  0  0  0
   14.2865  -16.7234   23.7847 C   0  0  0  0  0  0  0  0  0  0  0  0
   14.8568  -15.6120   24.0270 O   0  0  0  0  0  0  0  0  0  0  0  0
   15.5749  -15.4955   21.5044 C   0  0  0  0  0  0  0  0  0  0  0  0
   16.1531  -15.0104   22.5082 O   0  0  0  0  0  0  0  0  0  0  0  0
   14.1015  -17.6898   24.7722 O   0  0  0  0  0  0  0  0  0  0  0  0
   16.2975  -15.7647   20.3705 O   0  0  0  0  0  0  0  0  0  0  0  0
  2  1  1  0
  3  2  2  0
  4  3  1  0
  5 11  1  0
  5  4  2  0
  6  5  1  0
  7  9  1  0
  7  6  1  0
  7  8  1  1
  9 10  2  0
 11 12  2  0
 12  2  1  0
 13 14  1  0
 13  9  1  0
 14 15  1  6
 15 16  1  0
 16 17  1  0
 17 21  1  0
 17 18  2  0
 19 14  1  0
 20 19  2  0
 22 19  1  0
 23 27  1  0
 23 22  1  0
 23 24  1  1
 25 24  1  0
 26 25  2  0
 27 30  1  0
 28 27  2  0
 29 25  1  0
M  END
$$$$
