YED.pdb
     RDKit          3D

 30 30  0  0  1  0  0  0  0  0999 V2000
    8.6302  -13.1411   23.3262 O   0  0  0  0  0  0  0  0  0  0  0  0
    8.3792  -13.4037   21.9902 C   0  0  0  0  0  0  0  0  0  0  0  0
    8.3180  -12.3698   21.0770 C   0  0  0  0  0  0  0  0  0  0  0  0
    8.0707  -12.5843   19.7436 C   0  0  0  0  0  0  0  0  0  0  0  0
    7.8776  -13.8749   19.3008 C   0  0  0  0  0  0  0  0  0  0  0  0
    7.6125  -14.1014   17.8662 C   0  0  0  0  0  0  0  0  0  0  0  0
    8.8604  -14.2187   17.0506 C   0  0  2  0  0  0  0  0  0  0  0  0
    8.5137  -14.7161   15.7351 N   0  0  0  0  0  0  0  0  0  0  0  0
    9.8844  -15.0846   17.7011 C   0  0  0  0  0  0  0  0  0  0  0  0
    9.7601  -16.3348   17.6538 O   0  0  0  0  0  0  0  0  0  0  0  0
    7.9309  -14.9384   20.1801 C   0  0  0  0  0  0  0  0  0  0  0  0
    8.1804  -14.6770   21.5047 C   0  0  0  0  0  0  0  0  0  0  0  0
   10.9757  -14.5027   18.3603 N   0  0  0  0  0  0  0  0  0  0  0  0
   12.1646  -15.1311   18.8359 C   0  0  1  0  0  0  0  0  0  0  0  0
   13.4579  -14.5396   18.3355 C   0  0  0  0  0  0  0  0  0  0  0  0
   14.6989  -15.2883   18.6427 C   0  0  0  0  0  0  0  0  0  0  0  0
   15.9198  -14.7715   17.9302 C   0  0  0  0  0  0  0  0  0  0  0  0
   16.8133  -15.5348   17.5337 O   0  0  0  0  0  0  0  0  0  0  0  0
   12.2232  -15.2900   20.2873 C   0  0  0  0  0  0  0  0  0  0  0  0
   11.9832  -14.3158   21.0885 O   0  0  0  0  0  0  0  0  0  0  0  0
   16.0828  -13.4123   17.6951 O   0  0  0  0  0  0  0  0  0  0  0  0
   12.5515  -16.5478   20.8621 N   0  0  0  0  0  0  0  0  0  0  0  0
   12.5766  -16.7013   22.3129 C   0  0  1  0  0  0  0  0  0  0  0  0
   12.2918  -18.1737   22.6089 C   0  0  0  0  0  0  0  0  0  0  0  0
   12.4118  -18.3582   24.0841 C   0  0  0  0  0  0  0  0  0  0  0  0
   11.3918  -18.1547   24.8171 O   0  0  0  0  0  0  0  0  0  0  0  0
   13.9122  -16.2869   22.7927 C   0  0  0  0  0  0  0  0  0  0  0  0
   14.8656  -16.1906   21.9809 O   0  0  0  0  0  0  0  0  0  0  0  0
   13.6394  -18.7473   24.6178 O   0  0  0  0  0  0  0  0  0  0  0  0
   14.1202  -16.0061   24.1187 O   0  0  0  0  0  0  0  0  0  0  0  0
  2  1  1  0
  3  2  2  0
  4  3  1  0
  5 11  1  0
  5  4  2  0
  6  5  1  0
  7  9  1  0
  7  6  1  0
  7  8  1  6
  9 10  2  0
 11 12  2  0
 12  2  1  0
 13 14  1  0
 13  9  1  0
 14 15  1  1
 15 16  1  0
 16 17  1  0
 17 21  1  0
 17 18  2  0
 19 14  1  0
 20 19  2  0
 22 19  1  0
 23 27  1  0
 23 22  1  0
 23 24  1  6
 25 24  1  0
 26 25  2  0
 27 30  1  0
 28 27  2  0
 29 25  1  0
M  END
$$$$
