YED.pdb
     RDKit          3D

 30 30  0  0  1  0  0  0  0  0999 V2000
    5.2958  -10.3220   27.1961 O   0  0  0  0  0  0  0  0  0  0  0  0
    5.9829  -11.4516   26.7850 C   0  0  0  0  0  0  0  0  0  0  0  0
    6.1335  -12.5247   27.6406 C   0  0  0  0  0  0  0  0  0  0  0  0
    6.8078  -13.6636   27.2751 C   0  0  0  0  0  0  0  0  0  0  0  0
    7.3524  -13.7391   26.0115 C   0  0  0  0  0  0  0  0  0  0  0  0
    8.0762  -14.9655   25.6221 C   0  0  0  0  0  0  0  0  0  0  0  0
    7.2837  -15.8508   24.7140 C   0  0  2  0  0  0  0  0  0  0  0  0
    6.2112  -16.4593   25.4740 N   0  0  0  0  0  0  0  0  0  0  0  0
    8.1277  -16.8847   24.0507 C   0  0  0  0  0  0  0  0  0  0  0  0
    8.2226  -18.0294   24.5620 O   0  0  0  0  0  0  0  0  0  0  0  0
    7.2247  -12.6889   25.1238 C   0  0  0  0  0  0  0  0  0  0  0  0
    6.5427  -11.5695   25.5323 C   0  0  0  0  0  0  0  0  0  0  0  0
    8.8091  -16.5763   22.8655 N   0  0  0  0  0  0  0  0  0  0  0  0
    9.7884  -17.3512   22.1761 C   0  0  1  0  0  0  0  0  0  0  0  0
    9.9358  -17.0538   20.7054 C   0  0  0  0  0  0  0  0  0  0  0  0
   10.8499  -17.9287   19.9345 C   0  0  0  0  0  0  0  0  0  0  0  0
   10.8964  -17.6215   18.4618 C   0  0  0  0  0  0  0  0  0  0  0  0
    9.9105  -17.7957   17.7297 O   0  0  0  0  0  0  0  0  0  0  0  0
   11.1040  -17.3638   22.8117 C   0  0  0  0  0  0  0  0  0  0  0  0
   11.5960  -16.3217   23.3778 O   0  0  0  0  0  0  0  0  0  0  0  0
   12.0558  -17.1310   17.8749 O   0  0  0  0  0  0  0  0  0  0  0  0
   11.8881  -18.5493   22.8224 N   0  0  0  0  0  0  0  0  0  0  0  0
   13.2254  -18.5328   23.4058 C   0  0  1  0  0  0  0  0  0  0  0  0
   13.9596  -17.3364   22.8005 C   0  0  0  0  0  0  0  0  0  0  0  0
   15.2914  -17.8240   22.3386 C   0  0  0  0  0  0  0  0  0  0  0  0
   15.5933  -19.0485   22.5074 O   0  0  0  0  0  0  0  0  0  0  0  0
   13.0821  -18.4121   24.8723 C   0  0  0  0  0  0  0  0  0  0  0  0
   13.6173  -17.4492   25.4753 O   0  0  0  0  0  0  0  0  0  0  0  0
   16.1679  -16.9230   21.7360 O   0  0  0  0  0  0  0  0  0  0  0  0
   12.3687  -19.3437   25.5819 O   0  0  0  0  0  0  0  0  0  0  0  0
  2  1  1  0
  3  2  2  0
  4  3  1  0
  5 11  1  0
  5  4  2  0
  6  5  1  0
  7  9  1  0
  7  6  1  0
  7  8  1  1
  9 10  2  0
 11 12  2  0
 12  2  1  0
 13 14  1  0
 13  9  1  0
 14 15  1  6
 15 16  1  0
 16 17  1  0
 17 21  1  0
 17 18  2  0
 19 14  1  0
 20 19  2  0
 22 19  1  0
 23 27  1  0
 23 22  1  0
 23 24  1  6
 25 24  1  0
 26 25  2  0
 27 30  1  0
 28 27  2  0
 29 25  1  0
M  END
$$$$
