TVF.pdb
     RDKit          3D

 26 26  0  0  1  0  0  0  0  0999 V2000
   11.3340  -14.6916   19.4897 C   0  0  0  0  0  0  0  0  0  0  0  0
   10.5083  -13.4845   19.0678 C   0  0  1  0  0  0  0  0  0  0  0  0
   11.0644  -13.0152   17.8952 O   0  0  0  0  0  0  0  0  0  0  0  0
    9.0932  -13.9543   18.9231 C   0  0  2  0  0  0  0  0  0  0  0  0
    8.2991  -12.8987   18.3363 N   0  0  0  0  0  0  0  0  0  0  0  0
    8.4991  -14.4900   20.1561 C   0  0  0  0  0  0  0  0  0  0  0  0
    8.1039  -13.6939   21.0482 O   0  0  0  0  0  0  0  0  0  0  0  0
    6.8258  -18.5129   22.6356 C   0  0  0  0  0  0  0  0  0  0  0  0
    7.4135  -17.9088   21.4042 C   0  0  1  0  0  0  0  0  0  0  0  0
    6.4657  -18.1252   20.2466 C   0  0  0  0  0  0  0  0  0  0  0  0
    7.7482  -16.4396   21.5771 C   0  0  2  0  0  0  0  0  0  0  0  0
    8.3427  -15.8711   20.4035 N   0  0  0  0  0  0  0  0  0  0  0  0
    8.7160  -16.3536   22.7004 C   0  0  0  0  0  0  0  0  0  0  0  0
    9.9294  -16.6037   22.5054 O   0  0  0  0  0  0  0  0  0  0  0  0
    8.3358  -15.9941   24.0207 N   0  0  0  0  0  0  0  0  0  0  0  0
    9.2753  -15.8594   25.1157 C   0  0  1  0  0  0  0  0  0  0  0  0
    9.4632  -14.3698   25.3257 C   0  0  0  0  0  0  0  0  0  0  0  0
    8.2553  -13.6765   25.7927 C   0  0  0  0  0  0  0  0  0  0  0  0
    8.0819  -13.3959   27.1253 C   0  0  0  0  0  0  0  0  0  0  0  0
    6.9558  -12.7377   27.6057 C   0  0  0  0  0  0  0  0  0  0  0  0
    6.0023  -12.3707   26.6786 C   0  0  0  0  0  0  0  0  0  0  0  0
    6.1498  -12.6412   25.3226 C   0  0  0  0  0  0  0  0  0  0  0  0
    7.2895  -13.3000   24.8871 C   0  0  0  0  0  0  0  0  0  0  0  0
    8.7441  -16.5340   26.2988 C   0  0  0  0  0  0  0  0  0  0  0  0
    7.4686  -17.0896   26.2525 O   0  0  0  0  0  0  0  0  0  0  0  0
    9.4044  -16.6393   27.3893 O   0  0  0  0  0  0  0  0  0  0  0  0
  2  1  1  6
  3  2  1  0
  4  2  1  0
  4  6  1  0
  4  5  1  1
  6  7  2  0
  9  8  1  1
  9 11  1  0
 10  9  1  0
 12  6  1  0
 11 12  1  6
 13 11  1  0
 13 14  2  0
 15 13  1  0
 16 15  1  0
 16 24  1  0
 16 17  1  1
 18 23  2  0
 18 17  1  0
 19 18  1  0
 20 21  1  0
 20 19  2  0
 21 22  2  0
 22 23  1  0
 24 26  2  0
 24 25  1  0
M  END
$$$$
