TVF.pdb
     RDKit          3D

 26 26  0  0  1  0  0  0  0  0999 V2000
   11.0241  -14.8426   19.7883 C   0  0  0  0  0  0  0  0  0  0  0  0
   10.3147  -13.6736   19.1195 C   0  0  1  0  0  0  0  0  0  0  0  0
   10.9588  -13.4547   17.9187 O   0  0  0  0  0  0  0  0  0  0  0  0
    8.8756  -14.0636   18.9741 C   0  0  2  0  0  0  0  0  0  0  0  0
    8.1905  -13.0674   18.1819 N   0  0  0  0  0  0  0  0  0  0  0  0
    8.1893  -14.3473   20.2425 C   0  0  0  0  0  0  0  0  0  0  0  0
    7.8334  -13.3907   20.9800 O   0  0  0  0  0  0  0  0  0  0  0  0
    5.3665  -17.2408   20.7471 C   0  0  0  0  0  0  0  0  0  0  0  0
    6.4333  -17.2846   21.7896 C   0  0  1  0  0  0  0  0  0  0  0  0
    7.3597  -18.4437   21.5006 C   0  0  0  0  0  0  0  0  0  0  0  0
    7.1984  -15.9794   21.8973 C   0  0  2  0  0  0  0  0  0  0  0  0
    7.9004  -15.6544   20.6909 N   0  0  0  0  0  0  0  0  0  0  0  0
    8.1809  -16.1522   22.9977 C   0  0  0  0  0  0  0  0  0  0  0  0
    9.3173  -16.6252   22.7573 O   0  0  0  0  0  0  0  0  0  0  0  0
    7.8997  -15.8028   24.3452 N   0  0  0  0  0  0  0  0  0  0  0  0
    8.8198  -16.0332   25.4406 C   0  0  1  0  0  0  0  0  0  0  0  0
    9.2324  -14.6613   25.9367 C   0  0  0  0  0  0  0  0  0  0  0  0
    8.1029  -13.7797   26.2602 C   0  0  0  0  0  0  0  0  0  0  0  0
    7.5219  -13.0033   25.2884 C   0  0  0  0  0  0  0  0  0  0  0  0
    6.4490  -12.1603   25.5537 C   0  0  0  0  0  0  0  0  0  0  0  0
    5.9814  -12.1318   26.8513 C   0  0  0  0  0  0  0  0  0  0  0  0
    6.5492  -12.9064   27.8569 C   0  0  0  0  0  0  0  0  0  0  0  0
    7.6183  -13.7335   27.5477 C   0  0  0  0  0  0  0  0  0  0  0  0
    8.1591  -16.8314   26.4718 C   0  0  0  0  0  0  0  0  0  0  0  0
    8.8925  -17.2671   27.5718 O   0  0  0  0  0  0  0  0  0  0  0  0
    6.9226  -17.1529   26.4106 O   0  0  0  0  0  0  0  0  0  0  0  0
  2  1  1  6
  3  2  1  0
  4  2  1  0
  4  6  1  0
  4  5  1  1
  6  7  2  0
  9  8  1  6
  9 11  1  0
 10  9  1  0
 12  6  1  0
 11 12  1  6
 13 11  1  0
 13 14  2  0
 15 13  1  0
 16 15  1  0
 16 24  1  0
 16 17  1  1
 18 23  2  0
 18 17  1  0
 19 18  1  0
 20 21  1  0
 20 19  2  0
 21 22  2  0
 22 23  1  0
 24 26  2  0
 24 25  1  0
M  END
$$$$
