TVF.pdb
     RDKit          3D

 26 26  0  0  1  0  0  0  0  0999 V2000
    7.4372  -19.3425   22.4594 C   0  0  0  0  0  0  0  0  0  0  0  0
    7.5461  -19.4950   20.9488 C   0  0  1  0  0  0  0  0  0  0  0  0
    6.8067  -20.6099   20.6095 O   0  0  0  0  0  0  0  0  0  0  0  0
    7.0367  -18.2221   20.3451 C   0  0  2  0  0  0  0  0  0  0  0  0
    6.6532  -18.4664   18.9731 N   0  0  0  0  0  0  0  0  0  0  0  0
    7.9457  -17.0752   20.4825 C   0  0  0  0  0  0  0  0  0  0  0  0
    9.0445  -17.0805   19.8675 O   0  0  0  0  0  0  0  0  0  0  0  0
    7.4351  -13.5164   19.5897 C   0  0  0  0  0  0  0  0  0  0  0  0
    7.8389  -13.5140   21.0262 C   0  0  1  0  0  0  0  0  0  0  0  0
    6.6270  -13.2175   21.8798 C   0  0  0  0  0  0  0  0  0  0  0  0
    8.5078  -14.8086   21.4470 C   0  0  2  0  0  0  0  0  0  0  0  0
    7.6533  -15.9468   21.2789 N   0  0  0  0  0  0  0  0  0  0  0  0
    8.8449  -14.6645   22.8863 C   0  0  0  0  0  0  0  0  0  0  0  0
    8.8750  -13.5272   23.4141 O   0  0  0  0  0  0  0  0  0  0  0  0
    9.1438  -15.7720   23.7235 N   0  0  0  0  0  0  0  0  0  0  0  0
    8.9482  -15.7660   25.1592 C   0  0  1  0  0  0  0  0  0  0  0  0
    7.5428  -15.2457   25.3884 C   0  0  0  0  0  0  0  0  0  0  0  0
    7.4935  -13.9039   25.9841 C   0  0  0  0  0  0  0  0  0  0  0  0
    8.5931  -13.3798   26.6173 C   0  0  0  0  0  0  0  0  0  0  0  0
    8.5876  -12.1128   27.1890 C   0  0  0  0  0  0  0  0  0  0  0  0
    7.4168  -11.3890   27.0954 C   0  0  0  0  0  0  0  0  0  0  0  0
    6.2870  -11.8931   26.4605 C   0  0  0  0  0  0  0  0  0  0  0  0
    6.3368  -13.1621   25.9038 C   0  0  0  0  0  0  0  0  0  0  0  0
    9.1427  -17.1170   25.6828 C   0  0  0  0  0  0  0  0  0  0  0  0
    9.6265  -17.2840   26.9773 O   0  0  0  0  0  0  0  0  0  0  0  0
    8.8859  -18.1669   24.9989 O   0  0  0  0  0  0  0  0  0  0  0  0
  2  1  1  1
  3  2  1  0
  4  2  1  0
  4  6  1  0
  4  5  1  6
  6  7  2  0
  9  8  1  6
  9 11  1  0
 10  9  1  0
 12  6  1  0
 11 12  1  1
 13 11  1  0
 13 14  2  0
 15 13  1  0
 16 15  1  0
 16 24  1  0
 16 17  1  6
 18 23  2  0
 18 17  1  0
 19 18  1  0
 20 21  1  0
 20 19  2  0
 21 22  2  0
 22 23  1  0
 24 26  2  0
 24 25  1  0
M  END
$$$$
