TVF.pdb
     RDKit          3D

 26 26  0  0  1  0  0  0  0  0999 V2000
   11.2696  -14.8425   19.6464 C   0  0  0  0  0  0  0  0  0  0  0  0
   10.5645  -13.6697   18.9796 C   0  0  1  0  0  0  0  0  0  0  0  0
   11.2009  -13.4597   17.7731 O   0  0  0  0  0  0  0  0  0  0  0  0
    9.1211  -14.0483   18.8468 C   0  0  2  0  0  0  0  0  0  0  0  0
    8.4314  -13.0330   18.0834 N   0  0  0  0  0  0  0  0  0  0  0  0
    8.4506  -14.3523   20.1189 C   0  0  0  0  0  0  0  0  0  0  0  0
    8.0542  -13.4066   20.8499 O   0  0  0  0  0  0  0  0  0  0  0  0
    5.7803  -17.4063   20.6407 C   0  0  0  0  0  0  0  0  0  0  0  0
    6.8436  -17.3676   21.6869 C   0  0  1  0  0  0  0  0  0  0  0  0
    7.8443  -18.4677   21.4158 C   0  0  0  0  0  0  0  0  0  0  0  0
    7.5220  -16.0142   21.7801 C   0  0  2  0  0  0  0  0  0  0  0  0
    8.2207  -15.6674   20.5778 N   0  0  0  0  0  0  0  0  0  0  0  0
    8.4961  -16.1032   22.8978 C   0  0  0  0  0  0  0  0  0  0  0  0
    9.6772  -16.4616   22.6753 O   0  0  0  0  0  0  0  0  0  0  0  0
    8.1576  -15.7970   24.2426 N   0  0  0  0  0  0  0  0  0  0  0  0
    9.1053  -15.8458   25.3377 C   0  0  1  0  0  0  0  0  0  0  0  0
    9.4051  -14.4037   25.6967 C   0  0  0  0  0  0  0  0  0  0  0  0
    8.2137  -13.6126   26.0318 C   0  0  0  0  0  0  0  0  0  0  0  0
    7.4289  -13.0774   25.0406 C   0  0  0  0  0  0  0  0  0  0  0  0
    6.2916  -12.3275   25.3168 C   0  0  0  0  0  0  0  0  0  0  0  0
    5.9750  -12.1372   26.6461 C   0  0  0  0  0  0  0  0  0  0  0  0
    6.7505  -12.6664   27.6719 C   0  0  0  0  0  0  0  0  0  0  0  0
    7.8769  -13.4085   27.3507 C   0  0  0  0  0  0  0  0  0  0  0  0
    8.5254  -16.5960   26.4503 C   0  0  0  0  0  0  0  0  0  0  0  0
    9.3056  -16.8667   27.5709 O   0  0  0  0  0  0  0  0  0  0  0  0
    7.3191  -17.0212   26.4431 O   0  0  0  0  0  0  0  0  0  0  0  0
  2  1  1  6
  3  2  1  0
  4  2  1  0
  4  6  1  0
  4  5  1  1
  6  7  2  0
  9  8  1  6
  9 11  1  0
 10  9  1  0
 12  6  1  0
 11 12  1  6
 13 11  1  0
 13 14  2  0
 15 13  1  0
 16 15  1  0
 16 24  1  0
 16 17  1  1
 18 23  2  0
 18 17  1  0
 19 18  1  0
 20 21  1  0
 20 19  2  0
 21 22  2  0
 22 23  1  0
 24 26  2  0
 24 25  1  0
M  END
$$$$
