TVF.pdb
     RDKit          3D

 26 26  0  0  1  0  0  0  0  0999 V2000
   10.3293  -13.8491   18.0429 C   0  0  0  0  0  0  0  0  0  0  0  0
    9.8094  -14.1564   19.4401 C   0  0  1  0  0  0  0  0  0  0  0  0
   10.2894  -13.1621   20.2683 O   0  0  0  0  0  0  0  0  0  0  0  0
    8.3148  -14.2009   19.3483 C   0  0  2  0  0  0  0  0  0  0  0  0
    7.8331  -12.9453   18.8186 N   0  0  0  0  0  0  0  0  0  0  0  0
    7.6382  -14.5854   20.5952 C   0  0  0  0  0  0  0  0  0  0  0  0
    7.0891  -13.6975   21.2994 O   0  0  0  0  0  0  0  0  0  0  0  0
    5.3421  -17.9223   20.9229 C   0  0  0  0  0  0  0  0  0  0  0  0
    6.3114  -17.7776   22.0482 C   0  0  1  0  0  0  0  0  0  0  0  0
    7.4492  -18.7529   21.8492 C   0  0  0  0  0  0  0  0  0  0  0  0
    6.8214  -16.3573   22.2004 C   0  0  2  0  0  0  0  0  0  0  0  0
    7.5666  -15.9171   21.0582 N   0  0  0  0  0  0  0  0  0  0  0  0
    7.7100  -16.3501   23.3906 C   0  0  0  0  0  0  0  0  0  0  0  0
    8.9548  -16.3996   23.2460 O   0  0  0  0  0  0  0  0  0  0  0  0
    7.2172  -16.2887   24.7211 N   0  0  0  0  0  0  0  0  0  0  0  0
    8.0722  -16.2434   25.8901 C   0  0  1  0  0  0  0  0  0  0  0  0
    7.3253  -15.4237   26.9239 C   0  0  0  0  0  0  0  0  0  0  0  0
    7.2175  -13.9974   26.5895 C   0  0  0  0  0  0  0  0  0  0  0  0
    5.9913  -13.3822   26.5397 C   0  0  0  0  0  0  0  0  0  0  0  0
    5.8482  -12.0343   26.2319 C   0  0  0  0  0  0  0  0  0  0  0  0
    7.0032  -11.3252   25.9738 C   0  0  0  0  0  0  0  0  0  0  0  0
    8.2591  -11.9207   26.0164 C   0  0  0  0  0  0  0  0  0  0  0  0
    8.3554  -13.2684   26.3279 C   0  0  0  0  0  0  0  0  0  0  0  0
    8.3507  -17.6052   26.3428 C   0  0  0  0  0  0  0  0  0  0  0  0
    9.4070  -17.8297   27.2211 O   0  0  0  0  0  0  0  0  0  0  0  0
    7.6606  -18.6138   25.9652 O   0  0  0  0  0  0  0  0  0  0  0  0
  2  1  1  6
  3  2  1  0
  4  2  1  0
  4  6  1  0
  4  5  1  1
  6  7  2  0
  9  8  1  6
  9 11  1  0
 10  9  1  0
 12  6  1  0
 11 12  1  6
 13 11  1  0
 13 14  2  0
 15 13  1  0
 16 15  1  0
 16 24  1  0
 16 17  1  1
 18 23  2  0
 18 17  1  0
 19 18  1  0
 20 21  1  0
 20 19  2  0
 21 22  2  0
 22 23  1  0
 24 26  2  0
 24 25  1  0
M  END
$$$$
