TVF.pdb
     RDKit          3D

 26 26  0  0  1  0  0  0  0  0999 V2000
    9.7168  -19.8548   17.8775 C   0  0  0  0  0  0  0  0  0  0  0  0
    9.9358  -19.1329   19.1996 C   0  0  1  0  0  0  0  0  0  0  0  0
   11.1266  -19.6035   19.7146 O   0  0  0  0  0  0  0  0  0  0  0  0
    9.9425  -17.6655   18.8982 C   0  0  2  0  0  0  0  0  0  0  0  0
   10.9310  -17.3936   17.8793 N   0  0  0  0  0  0  0  0  0  0  0  0
   10.0936  -16.8012   20.0775 C   0  0  0  0  0  0  0  0  0  0  0  0
   11.1986  -16.2369   20.2926 O   0  0  0  0  0  0  0  0  0  0  0  0
    7.3469  -14.1397   21.4899 C   0  0  0  0  0  0  0  0  0  0  0  0
    7.8329  -15.0875   22.5350 C   0  0  1  0  0  0  0  0  0  0  0  0
    6.7648  -16.1247   22.7969 C   0  0  0  0  0  0  0  0  0  0  0  0
    9.1539  -15.7355   22.1667 C   0  0  2  0  0  0  0  0  0  0  0  0
    9.0525  -16.5624   21.0006 N   0  0  0  0  0  0  0  0  0  0  0  0
    9.5516  -16.5771   23.3241 C   0  0  0  0  0  0  0  0  0  0  0  0
    9.2846  -17.8025   23.3316 O   0  0  0  0  0  0  0  0  0  0  0  0
   10.2366  -16.0595   24.4553 N   0  0  0  0  0  0  0  0  0  0  0  0
   10.7587  -16.8881   25.5233 C   0  0  1  0  0  0  0  0  0  0  0  0
   11.5975  -15.9719   26.3925 C   0  0  0  0  0  0  0  0  0  0  0  0
   10.8113  -15.1326   27.3065 C   0  0  0  0  0  0  0  0  0  0  0  0
   10.8634  -15.3382   28.6628 C   0  0  0  0  0  0  0  0  0  0  0  0
   10.1384  -14.5627   29.5602 C   0  0  0  0  0  0  0  0  0  0  0  0
    9.3512  -13.5620   29.0290 C   0  0  0  0  0  0  0  0  0  0  0  0
    9.2780  -13.3299   27.6599 C   0  0  0  0  0  0  0  0  0  0  0  0
   10.0183  -14.1277   26.8007 C   0  0  0  0  0  0  0  0  0  0  0  0
    9.6488  -17.4987   26.2529 C   0  0  0  0  0  0  0  0  0  0  0  0
    9.9039  -18.5518   27.1268 O   0  0  0  0  0  0  0  0  0  0  0  0
    8.4383  -17.1060   26.1249 O   0  0  0  0  0  0  0  0  0  0  0  0
  2  1  1  6
  3  2  1  0
  4  2  1  0
  4  6  1  0
  4  5  1  6
  6  7  2  0
  9  8  1  6
  9 11  1  0
 10  9  1  0
 12  6  1  0
 11 12  1  6
 13 11  1  0
 13 14  2  0
 15 13  1  0
 16 15  1  0
 16 24  1  0
 16 17  1  1
 18 23  2  0
 18 17  1  0
 19 18  1  0
 20 21  1  0
 20 19  2  0
 21 22  2  0
 22 23  1  0
 24 26  2  0
 24 25  1  0
M  END
$$$$
