TVF.pdb
     RDKit          3D

 26 26  0  0  1  0  0  0  0  0999 V2000
   11.0042  -13.7632   18.0066 C   0  0  0  0  0  0  0  0  0  0  0  0
   10.3218  -14.1345   19.3155 C   0  0  1  0  0  0  0  0  0  0  0  0
   10.7467  -13.2190   20.2568 O   0  0  0  0  0  0  0  0  0  0  0  0
    8.8458  -14.1028   19.0610 C   0  0  2  0  0  0  0  0  0  0  0  0
    8.4816  -12.8068   18.5347 N   0  0  0  0  0  0  0  0  0  0  0  0
    8.0199  -14.4987   20.2106 C   0  0  0  0  0  0  0  0  0  0  0  0
    7.2956  -13.6381   20.7767 O   0  0  0  0  0  0  0  0  0  0  0  0
    5.7965  -17.8828   20.6815 C   0  0  0  0  0  0  0  0  0  0  0  0
    6.7868  -17.6733   21.7778 C   0  0  1  0  0  0  0  0  0  0  0  0
    7.9535  -18.6132   21.5765 C   0  0  0  0  0  0  0  0  0  0  0  0
    7.2493  -16.2323   21.8793 C   0  0  2  0  0  0  0  0  0  0  0  0
    7.9908  -15.8122   20.7270 N   0  0  0  0  0  0  0  0  0  0  0  0
    8.1259  -16.1506   23.0755 C   0  0  0  0  0  0  0  0  0  0  0  0
    9.3716  -16.2205   22.9481 O   0  0  0  0  0  0  0  0  0  0  0  0
    7.6204  -15.9933   24.3933 N   0  0  0  0  0  0  0  0  0  0  0  0
    8.4641  -15.8575   25.5635 C   0  0  1  0  0  0  0  0  0  0  0  0
    7.6143  -15.1721   26.6154 C   0  0  0  0  0  0  0  0  0  0  0  0
    7.3097  -13.7672   26.3133 C   0  0  0  0  0  0  0  0  0  0  0  0
    8.2440  -12.9646   25.7070 C   0  0  0  0  0  0  0  0  0  0  0  0
    7.9924  -11.6323   25.4007 C   0  0  0  0  0  0  0  0  0  0  0  0
    6.7485  -11.1375   25.7341 C   0  0  0  0  0  0  0  0  0  0  0  0
    5.7819  -11.9259   26.3489 C   0  0  0  0  0  0  0  0  0  0  0  0
    6.0757  -13.2502   26.6363 C   0  0  0  0  0  0  0  0  0  0  0  0
    8.9283  -17.1781   25.9850 C   0  0  0  0  0  0  0  0  0  0  0  0
    9.9894  -17.2745   26.8808 O   0  0  0  0  0  0  0  0  0  0  0  0
    8.3988  -18.2637   25.5642 O   0  0  0  0  0  0  0  0  0  0  0  0
  2  1  1  6
  3  2  1  0
  4  2  1  0
  4  6  1  0
  4  5  1  1
  6  7  2  0
  9  8  1  6
  9 11  1  0
 10  9  1  0
 12  6  1  0
 11 12  1  6
 13 11  1  0
 13 14  2  0
 15 13  1  0
 16 15  1  0
 16 24  1  0
 16 17  1  1
 18 23  2  0
 18 17  1  0
 19 18  1  0
 20 21  1  0
 20 19  2  0
 21 22  2  0
 22 23  1  0
 24 26  2  0
 24 25  1  0
M  END
$$$$
