TVF.pdb
     RDKit          3D

 26 26  0  0  1  0  0  0  0  0999 V2000
   10.9890  -14.4802   20.0929 C   0  0  0  0  0  0  0  0  0  0  0  0
   10.1728  -13.3227   19.5352 C   0  0  1  0  0  0  0  0  0  0  0  0
   10.8234  -12.8925   18.3966 O   0  0  0  0  0  0  0  0  0  0  0  0
    8.7915  -13.8453   19.2843 C   0  0  2  0  0  0  0  0  0  0  0  0
    8.0084  -12.8236   18.6270 N   0  0  0  0  0  0  0  0  0  0  0  0
    8.1219  -14.3943   20.4720 C   0  0  0  0  0  0  0  0  0  0  0  0
    7.5269  -13.6145   21.2618 O   0  0  0  0  0  0  0  0  0  0  0  0
    8.2773  -18.6368   21.3189 C   0  0  0  0  0  0  0  0  0  0  0  0
    7.0545  -17.8302   21.6030 C   0  0  1  0  0  0  0  0  0  0  0  0
    6.3156  -18.4465   22.7690 C   0  0  0  0  0  0  0  0  0  0  0  0
    7.3657  -16.3676   21.8569 C   0  0  2  0  0  0  0  0  0  0  0  0
    8.1065  -15.7708   20.7851 N   0  0  0  0  0  0  0  0  0  0  0  0
    8.1814  -16.3157   23.0971 C   0  0  0  0  0  0  0  0  0  0  0  0
    9.4192  -16.5103   23.0440 O   0  0  0  0  0  0  0  0  0  0  0  0
    7.6245  -16.0509   24.3764 N   0  0  0  0  0  0  0  0  0  0  0  0
    8.4097  -15.9802   25.5922 C   0  0  1  0  0  0  0  0  0  0  0  0
    7.5266  -15.3043   26.6226 C   0  0  0  0  0  0  0  0  0  0  0  0
    7.3561  -13.8613   26.4070 C   0  0  0  0  0  0  0  0  0  0  0  0
    6.1149  -13.2825   26.5024 C   0  0  0  0  0  0  0  0  0  0  0  0
    5.9134  -11.9206   26.3102 C   0  0  0  0  0  0  0  0  0  0  0  0
    7.0251  -11.1590   26.0149 C   0  0  0  0  0  0  0  0  0  0  0  0
    8.2948  -11.7167   25.9115 C   0  0  0  0  0  0  0  0  0  0  0  0
    8.4500  -13.0800   26.1112 C   0  0  0  0  0  0  0  0  0  0  0  0
    8.8127  -17.3278   25.9907 C   0  0  0  0  0  0  0  0  0  0  0  0
    9.9696  -17.4989   26.7456 O   0  0  0  0  0  0  0  0  0  0  0  0
    8.1438  -18.3712   25.6744 O   0  0  0  0  0  0  0  0  0  0  0  0
  2  1  1  6
  3  2  1  0
  4  2  1  0
  4  6  1  0
  4  5  1  1
  6  7  2  0
  9  8  1  1
  9 11  1  0
 10  9  1  0
 12  6  1  0
 11 12  1  6
 13 11  1  0
 13 14  2  0
 15 13  1  0
 16 15  1  0
 16 24  1  0
 16 17  1  1
 18 23  2  0
 18 17  1  0
 19 18  1  0
 20 21  1  0
 20 19  2  0
 21 22  2  0
 22 23  1  0
 24 26  2  0
 24 25  1  0
M  END
$$$$
