TVF.pdb
     RDKit          3D

 26 26  0  0  1  0  0  0  0  0999 V2000
    9.8943  -19.2249   20.6170 C   0  0  0  0  0  0  0  0  0  0  0  0
   11.0588  -18.7155   19.7794 C   0  0  1  0  0  0  0  0  0  0  0  0
   11.2126  -19.6036   18.7343 O   0  0  0  0  0  0  0  0  0  0  0  0
   10.7084  -17.3245   19.3474 C   0  0  2  0  0  0  0  0  0  0  0  0
   11.7334  -16.8309   18.4558 N   0  0  0  0  0  0  0  0  0  0  0  0
   10.4241  -16.3963   20.4510 C   0  0  0  0  0  0  0  0  0  0  0  0
   11.3627  -16.0264   21.2047 O   0  0  0  0  0  0  0  0  0  0  0  0
    7.8267  -13.2061   20.3285 C   0  0  0  0  0  0  0  0  0  0  0  0
    7.5957  -14.1321   21.4756 C   0  0  1  0  0  0  0  0  0  0  0  0
    6.3805  -14.9836   21.1866 C   0  0  0  0  0  0  0  0  0  0  0  0
    8.8083  -14.9878   21.7885 C   0  0  2  0  0  0  0  0  0  0  0  0
    9.1359  -15.8856   20.7206 N   0  0  0  0  0  0  0  0  0  0  0  0
    8.4693  -15.7786   22.9992 C   0  0  0  0  0  0  0  0  0  0  0  0
    8.1428  -16.9848   22.8913 O   0  0  0  0  0  0  0  0  0  0  0  0
    8.4943  -15.2321   24.3098 N   0  0  0  0  0  0  0  0  0  0  0  0
    8.2645  -16.0143   25.5077 C   0  0  1  0  0  0  0  0  0  0  0  0
    8.6044  -15.1057   26.6728 C   0  0  0  0  0  0  0  0  0  0  0  0
    7.8432  -13.8496   26.6912 C   0  0  0  0  0  0  0  0  0  0  0  0
    8.4460  -12.6624   26.3566 C   0  0  0  0  0  0  0  0  0  0  0  0
    7.7589  -11.4541   26.3573 C   0  0  0  0  0  0  0  0  0  0  0  0
    6.4264  -11.4921   26.7128 C   0  0  0  0  0  0  0  0  0  0  0  0
    5.7885  -12.6789   27.0568 C   0  0  0  0  0  0  0  0  0  0  0  0
    6.5124  -13.8614   27.0425 C   0  0  0  0  0  0  0  0  0  0  0  0
    6.8755  -16.4695   25.5331 C   0  0  0  0  0  0  0  0  0  0  0  0
    6.4962  -17.4529   26.4424 O   0  0  0  0  0  0  0  0  0  0  0  0
    5.9801  -16.0010   24.7490 O   0  0  0  0  0  0  0  0  0  0  0  0
  2  1  1  1
  3  2  1  0
  4  2  1  0
  4  6  1  0
  4  5  1  1
  6  7  2  0
  9  8  1  6
  9 11  1  0
 10  9  1  0
 12  6  1  0
 11 12  1  6
 13 11  1  0
 13 14  2  0
 15 13  1  0
 16 15  1  0
 16 24  1  0
 16 17  1  1
 18 23  2  0
 18 17  1  0
 19 18  1  0
 20 21  1  0
 20 19  2  0
 21 22  2  0
 22 23  1  0
 24 26  2  0
 24 25  1  0
M  END
$$$$
