TVF.pdb
     RDKit          3D

 26 26  0  0  1  0  0  0  0  0999 V2000
   11.7436  -19.3041   21.3303 C   0  0  0  0  0  0  0  0  0  0  0  0
   12.5491  -18.4165   20.3920 C   0  0  1  0  0  0  0  0  0  0  0  0
   13.1916  -19.2576   19.5063 O   0  0  0  0  0  0  0  0  0  0  0  0
   11.5796  -17.4771   19.7426 C   0  0  2  0  0  0  0  0  0  0  0  0
   12.2593  -16.7340   18.7057 N   0  0  0  0  0  0  0  0  0  0  0  0
   10.8533  -16.6069   20.6783 C   0  0  0  0  0  0  0  0  0  0  0  0
   11.4841  -15.7250   21.3185 O   0  0  0  0  0  0  0  0  0  0  0  0
    6.3999  -15.1151   22.4264 C   0  0  0  0  0  0  0  0  0  0  0  0
    7.2225  -15.8500   21.4215 C   0  0  1  0  0  0  0  0  0  0  0  0
    6.9649  -15.2676   20.0505 C   0  0  0  0  0  0  0  0  0  0  0  0
    8.7016  -15.8392   21.7574 C   0  0  2  0  0  0  0  0  0  0  0  0
    9.4634  -16.7041   20.9056 N   0  0  0  0  0  0  0  0  0  0  0  0
    8.8222  -16.3119   23.1602 C   0  0  0  0  0  0  0  0  0  0  0  0
    8.9919  -17.5312   23.4004 O   0  0  0  0  0  0  0  0  0  0  0  0
    8.7546  -15.4379   24.2775 N   0  0  0  0  0  0  0  0  0  0  0  0
    9.0043  -15.8607   25.6408 C   0  0  1  0  0  0  0  0  0  0  0  0
    9.4078  -14.6116   26.3995 C   0  0  0  0  0  0  0  0  0  0  0  0
    8.4417  -13.5103   26.2917 C   0  0  0  0  0  0  0  0  0  0  0  0
    7.2531  -13.5540   26.9773 C   0  0  0  0  0  0  0  0  0  0  0  0
    6.3157  -12.5303   26.9051 C   0  0  0  0  0  0  0  0  0  0  0  0
    6.6285  -11.4504   26.1055 C   0  0  0  0  0  0  0  0  0  0  0  0
    7.8241  -11.3779   25.3990 C   0  0  0  0  0  0  0  0  0  0  0  0
    8.7308  -12.4220   25.5002 C   0  0  0  0  0  0  0  0  0  0  0  0
    7.8008  -16.4875   26.1845 C   0  0  0  0  0  0  0  0  0  0  0  0
    6.6069  -16.4031   25.4736 O   0  0  0  0  0  0  0  0  0  0  0  0
    7.7923  -17.1183   27.2972 O   0  0  0  0  0  0  0  0  0  0  0  0
  2  1  1  1
  3  2  1  0
  4  2  1  0
  4  6  1  0
  4  5  1  6
  6  7  2  0
  9  8  1  1
  9 11  1  0
 10  9  1  0
 12  6  1  0
 11 12  1  6
 13 11  1  0
 13 14  2  0
 15 13  1  0
 16 15  1  0
 16 24  1  0
 16 17  1  1
 18 23  2  0
 18 17  1  0
 19 18  1  0
 20 21  1  0
 20 19  2  0
 21 22  2  0
 22 23  1  0
 24 26  2  0
 24 25  1  0
M  END
$$$$
