TVF.pdb
     RDKit          3D

 26 26  0  0  1  0  0  0  0  0999 V2000
   10.7139  -19.2285   17.6569 C   0  0  0  0  0  0  0  0  0  0  0  0
   10.3671  -18.4519   18.9192 C   0  0  1  0  0  0  0  0  0  0  0  0
   11.0203  -17.2394   18.8295 O   0  0  0  0  0  0  0  0  0  0  0  0
    8.8742  -18.3354   18.9622 C   0  0  2  0  0  0  0  0  0  0  0  0
    8.4135  -17.6791   17.7596 N   0  0  0  0  0  0  0  0  0  0  0  0
    8.3458  -17.7126   20.1842 C   0  0  0  0  0  0  0  0  0  0  0  0
    8.1653  -16.4668   20.2145 O   0  0  0  0  0  0  0  0  0  0  0  0
    6.2090  -18.3793   24.6577 C   0  0  0  0  0  0  0  0  0  0  0  0
    6.6939  -18.9197   23.3540 C   0  0  1  0  0  0  0  0  0  0  0  0
    5.5186  -19.4712   22.5796 C   0  0  0  0  0  0  0  0  0  0  0  0
    7.4562  -17.8899   22.5423 C   0  0  2  0  0  0  0  0  0  0  0  0
    8.0228  -18.4434   21.3480 N   0  0  0  0  0  0  0  0  0  0  0  0
    8.5518  -17.3899   23.4116 C   0  0  0  0  0  0  0  0  0  0  0  0
    9.6472  -17.9990   23.4555 O   0  0  0  0  0  0  0  0  0  0  0  0
    8.4270  -16.2283   24.2191 N   0  0  0  0  0  0  0  0  0  0  0  0
    9.5048  -15.6965   25.0285 C   0  0  1  0  0  0  0  0  0  0  0  0
    9.4786  -14.1942   24.8264 C   0  0  0  0  0  0  0  0  0  0  0  0
    8.3783  -13.5176   25.5259 C   0  0  0  0  0  0  0  0  0  0  0  0
    7.1181  -13.4880   24.9821 C   0  0  0  0  0  0  0  0  0  0  0  0
    6.0503  -12.8624   25.6151 C   0  0  0  0  0  0  0  0  0  0  0  0
    6.3076  -12.2620   26.8302 C   0  0  0  0  0  0  0  0  0  0  0  0
    7.5733  -12.2753   27.4060 C   0  0  0  0  0  0  0  0  0  0  0  0
    8.6098  -12.9112   26.7397 C   0  0  0  0  0  0  0  0  0  0  0  0
    9.3019  -16.0822   26.4239 C   0  0  0  0  0  0  0  0  0  0  0  0
    8.1060  -16.6889   26.7972 O   0  0  0  0  0  0  0  0  0  0  0  0
   10.1828  -15.8861   27.3304 O   0  0  0  0  0  0  0  0  0  0  0  0
  2  1  1  6
  3  2  1  0
  4  2  1  0
  4  6  1  0
  4  5  1  6
  6  7  2  0
  9  8  1  1
  9 11  1  0
 10  9  1  0
 12  6  1  0
 11 12  1  6
 13 11  1  0
 13 14  2  0
 15 13  1  0
 16 15  1  0
 16 24  1  0
 16 17  1  1
 18 23  2  0
 18 17  1  0
 19 18  1  0
 20 21  1  0
 20 19  2  0
 21 22  2  0
 22 23  1  0
 24 26  2  0
 24 25  1  0
M  END
$$$$
