ITM.pdb
     RDKit          3D

 24 23  0  0  1  0  0  0  0  0999 V2000
   18.4120  -17.4857  -12.9840 C   0  0  0  0  0  0  0  0  0  0  0  0
   19.4771  -18.1279  -13.8241 C   0  0  0  0  0  0  0  0  0  0  0  0
   20.2065  -19.2303  -13.0768 C   0  0  2  0  0  0  0  0  0  0  0  0
   20.6989  -18.6193  -11.7850 C   0  0  0  0  0  0  0  0  0  0  0  0
   21.3004  -19.8346  -13.8905 C   0  0  2  0  0  0  0  0  0  0  0  0
   20.7089  -20.4769  -15.0425 N   0  0  0  0  0  0  0  0  0  0  0  0
   22.0567  -20.8119  -13.0533 C   0  0  0  0  0  0  0  0  0  0  0  0
   21.5417  -21.8849  -12.6509 O   0  0  0  0  0  0  0  0  0  0  0  0
   23.6482  -23.3267  -13.7482 C   0  0  0  0  0  0  0  0  0  0  0  0
   24.7480  -22.5584  -13.0487 C   0  0  1  0  0  0  0  0  0  0  0  0
   25.3412  -21.7653  -14.0711 O   0  0  0  0  0  0  0  0  0  0  0  0
   24.2113  -21.5792  -12.0212 C   0  0  2  0  0  0  0  0  0  0  0  0
   23.3968  -20.5644  -12.6769 N   0  0  0  0  0  0  0  0  0  0  0  0
   25.2754  -20.8804  -11.2674 C   0  0  0  0  0  0  0  0  0  0  0  0
   24.9692  -19.7734  -10.7092 O   0  0  0  0  0  0  0  0  0  0  0  0
   28.4575  -18.6388   -5.2523 C   0  0  0  0  0  0  0  0  0  0  0  0
   27.3304  -19.6045   -6.2915 S   0  0  0  0  0  0  0  0  0  0  0  0
   27.9869  -19.6978   -7.9814 C   0  0  0  0  0  0  0  0  0  0  0  0
   26.9824  -20.4079   -8.8469 C   0  0  0  0  0  0  0  0  0  0  0  0
   27.5281  -20.5735  -10.2554 C   0  0  2  0  0  0  0  0  0  0  0  0
   26.5987  -21.3068  -11.0956 N   0  0  0  0  0  0  0  0  0  0  0  0
   28.8533  -21.2287  -10.2049 C   0  0  0  0  0  0  0  0  0  0  0  0
   29.9991  -20.4938  -10.0051 O   0  0  0  0  0  0  0  0  0  0  0  0
   28.9380  -22.4651  -10.3449 O   0  0  0  0  0  0  0  0  0  0  0  0
  2  1  1  0
  3  5  1  0
  3  2  1  0
  3  4  1  1
  5  6  1  6
  7  5  1  0
  7  8  2  0
 10  9  1  6
 10 12  1  0
 11 10  1  0
 12 13  1  6
 13  7  1  0
 14 12  1  0
 15 14  2  0
 16 17  1  0
 18 19  1  0
 18 17  1  0
 20 19  1  1
 20 21  1  0
 20 22  1  0
 21 14  1  0
 22 23  1  0
 24 22  2  0
M  END
$$$$
