ITM.pdb
     RDKit          3D

 24 23  0  0  1  0  0  0  0  0999 V2000
   16.6818  -14.4252  -17.3664 C   0  0  0  0  0  0  0  0  0  0  0  0
   17.5577  -13.7165  -16.3747 C   0  0  0  0  0  0  0  0  0  0  0  0
   17.8204  -12.2749  -16.7726 C   0  0  2  0  0  0  0  0  0  0  0  0
   18.4675  -12.3181  -18.1379 C   0  0  0  0  0  0  0  0  0  0  0  0
   18.6423  -11.5515  -15.7602 C   0  0  2  0  0  0  0  0  0  0  0  0
   17.9619  -11.6227  -14.4867 N   0  0  0  0  0  0  0  0  0  0  0  0
   18.8302  -10.1363  -16.1963 C   0  0  0  0  0  0  0  0  0  0  0  0
   19.3240   -9.8423  -17.3134 O   0  0  0  0  0  0  0  0  0  0  0  0
   16.0240   -7.5160  -16.2872 C   0  0  0  0  0  0  0  0  0  0  0  0
   17.1894   -6.9816  -15.4839 C   0  0  1  0  0  0  0  0  0  0  0  0
   16.8922   -7.3348  -14.1374 O   0  0  0  0  0  0  0  0  0  0  0  0
   18.4952   -7.6784  -15.8184 C   0  0  2  0  0  0  0  0  0  0  0  0
   18.4551   -9.0606  -15.3590 N   0  0  0  0  0  0  0  0  0  0  0  0
   19.6761   -7.0358  -15.2008 C   0  0  0  0  0  0  0  0  0  0  0  0
   20.6171   -7.7998  -14.7988 O   0  0  0  0  0  0  0  0  0  0  0  0
   26.1509   -4.6245  -17.0699 C   0  0  0  0  0  0  0  0  0  0  0  0
   24.5298   -5.4236  -17.1976 S   0  0  0  0  0  0  0  0  0  0  0  0
   23.4770   -4.8929  -15.8173 C   0  0  0  0  0  0  0  0  0  0  0  0
   22.1440   -5.5788  -15.9404 C   0  0  0  0  0  0  0  0  0  0  0  0
   21.2091   -5.1093  -14.8383 C   0  0  2  0  0  0  0  0  0  0  0  0
   19.8779   -5.6630  -15.0078 N   0  0  0  0  0  0  0  0  0  0  0  0
   21.1852   -3.6308  -14.7984 C   0  0  0  0  0  0  0  0  0  0  0  0
   20.1212   -2.9260  -15.3119 O   0  0  0  0  0  0  0  0  0  0  0  0
   22.1414   -3.0100  -14.2928 O   0  0  0  0  0  0  0  0  0  0  0  0
  2  1  1  0
  3  5  1  0
  3  2  1  0
  3  4  1  6
  5  6  1  1
  7  5  1  0
  7  8  2  0
 10  9  1  6
 10 12  1  0
 11 10  1  0
 12 13  1  1
 13  7  1  0
 14 12  1  0
 15 14  2  0
 16 17  1  0
 18 19  1  0
 18 17  1  0
 20 19  1  6
 20 21  1  0
 20 22  1  0
 21 14  1  0
 22 23  1  0
 24 22  2  0
M  END
$$$$
