ITM.pdb
     RDKit          3D

 24 23  0  0  1  0  0  0  0  0999 V2000
   16.6765  -18.0506  -18.6830 C   0  0  0  0  0  0  0  0  0  0  0  0
   17.6682  -17.6608  -17.6259 C   0  0  0  0  0  0  0  0  0  0  0  0
   18.2418  -18.8694  -16.9075 C   0  0  2  0  0  0  0  0  0  0  0  0
   17.0755  -19.5707  -16.2499 C   0  0  0  0  0  0  0  0  0  0  0  0
   19.3160  -18.4947  -15.9435 C   0  0  2  0  0  0  0  0  0  0  0  0
   20.1249  -17.4580  -16.5439 N   0  0  0  0  0  0  0  0  0  0  0  0
   20.1331  -19.7016  -15.6208 C   0  0  0  0  0  0  0  0  0  0  0  0
   19.6118  -20.7743  -15.2262 O   0  0  0  0  0  0  0  0  0  0  0  0
   21.5961  -22.2293  -17.3703 C   0  0  0  0  0  0  0  0  0  0  0  0
   22.7686  -21.5744  -16.6737 C   0  0  1  0  0  0  0  0  0  0  0  0
   23.2136  -20.5717  -17.5807 O   0  0  0  0  0  0  0  0  0  0  0  0
   22.3591  -20.8404  -15.4102 C   0  0  2  0  0  0  0  0  0  0  0  0
   21.5410  -19.6830  -15.7485 N   0  0  0  0  0  0  0  0  0  0  0  0
   23.5096  -20.3579  -14.6151 C   0  0  0  0  0  0  0  0  0  0  0  0
   23.3041  -19.3814  -13.8181 O   0  0  0  0  0  0  0  0  0  0  0  0
   23.9169  -20.5117   -9.3603 C   0  0  0  0  0  0  0  0  0  0  0  0
   25.5788  -21.2061   -9.5578 S   0  0  0  0  0  0  0  0  0  0  0  0
   26.2639  -20.7036  -11.1620 C   0  0  0  0  0  0  0  0  0  0  0  0
   25.2594  -21.0266  -12.2340 C   0  0  0  0  0  0  0  0  0  0  0  0
   25.7671  -20.5564  -13.5869 C   0  0  2  0  0  0  0  0  0  0  0  0
   24.8161  -20.8628  -14.6400 N   0  0  0  0  0  0  0  0  0  0  0  0
   27.0938  -21.1517  -13.8581 C   0  0  0  0  0  0  0  0  0  0  0  0
   28.2450  -20.5534  -13.4005 O   0  0  0  0  0  0  0  0  0  0  0  0
   27.1746  -22.2114  -14.5107 O   0  0  0  0  0  0  0  0  0  0  0  0
  2  1  1  0
  3  5  1  0
  3  2  1  0
  3  4  1  1
  5  6  1  6
  7  5  1  0
  7  8  2  0
 10  9  1  6
 10 12  1  0
 11 10  1  0
 12 13  1  6
 13  7  1  0
 14 12  1  0
 15 14  2  0
 16 17  1  0
 18 19  1  0
 18 17  1  0
 20 19  1  1
 20 21  1  0
 20 22  1  0
 21 14  1  0
 22 23  1  0
 24 22  2  0
M  END
$$$$
