ITM.pdb
     RDKit          3D

 24 23  0  0  1  0  0  0  0  0999 V2000
   26.7607  -19.3790  -15.4786 C   0  0  0  0  0  0  0  0  0  0  0  0
   25.7823  -18.4875  -14.7710 C   0  0  0  0  0  0  0  0  0  0  0  0
   25.3193  -17.3378  -15.6481 C   0  0  2  0  0  0  0  0  0  0  0  0
   26.2279  -16.1701  -15.3394 C   0  0  0  0  0  0  0  0  0  0  0  0
   23.8756  -17.0223  -15.4483 C   0  0  2  0  0  0  0  0  0  0  0  0
   23.1064  -18.2138  -15.7280 N   0  0  0  0  0  0  0  0  0  0  0  0
   23.4855  -15.9002  -16.3522 C   0  0  0  0  0  0  0  0  0  0  0  0
   22.7729  -16.0809  -17.3710 O   0  0  0  0  0  0  0  0  0  0  0  0
   21.4059  -13.1044  -15.5160 C   0  0  0  0  0  0  0  0  0  0  0  0
   21.9581  -13.3578  -16.9016 C   0  0  1  0  0  0  0  0  0  0  0  0
   21.6355  -12.1839  -17.6392 O   0  0  0  0  0  0  0  0  0  0  0  0
   23.4724  -13.4552  -16.9159 C   0  0  2  0  0  0  0  0  0  0  0  0
   23.9081  -14.5761  -16.0933 N   0  0  0  0  0  0  0  0  0  0  0  0
   24.1416  -12.2387  -16.4049 C   0  0  0  0  0  0  0  0  0  0  0  0
   24.2472  -12.1148  -15.1383 O   0  0  0  0  0  0  0  0  0  0  0  0
   28.7101   -7.3866  -18.9565 C   0  0  0  0  0  0  0  0  0  0  0  0
   29.0701   -8.5383  -17.6048 S   0  0  0  0  0  0  0  0  0  0  0  0
   27.5651   -8.8270  -16.6316 C   0  0  0  0  0  0  0  0  0  0  0  0
   26.7798   -9.9333  -17.2811 C   0  0  0  0  0  0  0  0  0  0  0  0
   25.4582  -10.1325  -16.5580 C   0  0  2  0  0  0  0  0  0  0  0  0
   24.6804  -11.1952  -17.1687 N   0  0  0  0  0  0  0  0  0  0  0  0
   24.7093   -8.8573  -16.5237 C   0  0  0  0  0  0  0  0  0  0  0  0
   24.8099   -8.0060  -15.4477 O   0  0  0  0  0  0  0  0  0  0  0  0
   23.9748   -8.5453  -17.4821 O   0  0  0  0  0  0  0  0  0  0  0  0
  2  1  1  0
  3  5  1  0
  3  2  1  0
  3  4  1  1
  5  6  1  6
  7  5  1  0
  7  8  2  0
 10  9  1  1
 10 12  1  0
 11 10  1  0
 12 13  1  1
 13  7  1  0
 14 12  1  0
 15 14  2  0
 16 17  1  0
 18 19  1  0
 18 17  1  0
 20 19  1  6
 20 21  1  0
 20 22  1  0
 21 14  1  0
 22 23  1  0
 24 22  2  0
M  END
$$$$
