ITM.pdb
     RDKit          3D

 24 23  0  0  1  0  0  0  0  0999 V2000
   26.6374  -19.6137   -7.6465 C   0  0  0  0  0  0  0  0  0  0  0  0
   26.6159  -20.7222   -8.6582 C   0  0  0  0  0  0  0  0  0  0  0  0
   25.8341  -20.3436   -9.9036 C   0  0  2  0  0  0  0  0  0  0  0  0
   24.4315  -20.0151   -9.4460 C   0  0  0  0  0  0  0  0  0  0  0  0
   25.8734  -21.4142  -10.9410 C   0  0  2  0  0  0  0  0  0  0  0  0
   27.2453  -21.8395  -11.1041 N   0  0  0  0  0  0  0  0  0  0  0  0
   25.3144  -20.8839  -12.2195 C   0  0  0  0  0  0  0  0  0  0  0  0
   25.8779  -19.9642  -12.8636 O   0  0  0  0  0  0  0  0  0  0  0  0
   25.0210  -22.2082  -15.4250 C   0  0  0  0  0  0  0  0  0  0  0  0
   23.5937  -21.8222  -15.1038 C   0  0  1  0  0  0  0  0  0  0  0  0
   22.9912  -23.0239  -14.6357 O   0  0  0  0  0  0  0  0  0  0  0  0
   23.5021  -20.8357  -13.9543 C   0  0  2  0  0  0  0  0  0  0  0  0
   24.1154  -21.4025  -12.7603 N   0  0  0  0  0  0  0  0  0  0  0  0
   22.1116  -20.4659  -13.6104 C   0  0  0  0  0  0  0  0  0  0  0  0
   21.8286  -20.3330  -12.3722 O   0  0  0  0  0  0  0  0  0  0  0  0
   18.4138  -14.9562  -12.3495 C   0  0  0  0  0  0  0  0  0  0  0  0
   19.6268  -16.2951  -12.4877 S   0  0  0  0  0  0  0  0  0  0  0  0
   19.9501  -16.6477  -14.2388 C   0  0  0  0  0  0  0  0  0  0  0  0
   20.9129  -17.8001  -14.3254 C   0  0  0  0  0  0  0  0  0  0  0  0
   20.1542  -19.1166  -14.3461 C   0  0  2  0  0  0  0  0  0  0  0  0
   21.0583  -20.2411  -14.5063 N   0  0  0  0  0  0  0  0  0  0  0  0
   19.1267  -19.0854  -15.4097 C   0  0  0  0  0  0  0  0  0  0  0  0
   19.4836  -19.0338  -16.7374 O   0  0  0  0  0  0  0  0  0  0  0  0
   17.9180  -19.1061  -15.1031 O   0  0  0  0  0  0  0  0  0  0  0  0
  2  1  1  0
  3  5  1  0
  3  2  1  0
  3  4  1  1
  5  6  1  6
  7  5  1  0
  7  8  2  0
 10  9  1  1
 10 12  1  0
 11 10  1  0
 12 13  1  1
 13  7  1  0
 14 12  1  0
 15 14  2  0
 16 17  1  0
 18 19  1  0
 18 17  1  0
 20 19  1  6
 20 21  1  0
 20 22  1  0
 21 14  1  0
 22 23  1  0
 24 22  2  0
M  END
$$$$
