ITM.pdb
     RDKit          3D

 24 23  0  0  1  0  0  0  0  0999 V2000
   28.5266  -20.4420   -5.3956 C   0  0  0  0  0  0  0  0  0  0  0  0
   27.1377  -20.6471   -5.9262 C   0  0  0  0  0  0  0  0  0  0  0  0
   26.9604  -20.0467   -7.3096 C   0  0  2  0  0  0  0  0  0  0  0  0
   27.2682  -18.5726   -7.1798 C   0  0  0  0  0  0  0  0  0  0  0  0
   25.6041  -20.3123   -7.8697 C   0  0  2  0  0  0  0  0  0  0  0  0
   25.2840  -21.7041   -7.6461 N   0  0  0  0  0  0  0  0  0  0  0  0
   25.5973  -19.9812   -9.3252 C   0  0  0  0  0  0  0  0  0  0  0  0
   25.8658  -18.8294   -9.7488 O   0  0  0  0  0  0  0  0  0  0  0  0
   27.6900  -21.1307  -11.9525 C   0  0  0  0  0  0  0  0  0  0  0  0
   26.2963  -21.4251  -12.4623 C   0  0  1  0  0  0  0  0  0  0  0  0
   26.0775  -22.7954  -12.1449 O   0  0  0  0  0  0  0  0  0  0  0  0
   25.2272  -20.6492  -11.7154 C   0  0  2  0  0  0  0  0  0  0  0  0
   25.2847  -20.9627  -10.2936 N   0  0  0  0  0  0  0  0  0  0  0  0
   23.8553  -20.9449  -12.1836 C   0  0  0  0  0  0  0  0  0  0  0  0
   22.9533  -21.1054  -11.2939 O   0  0  0  0  0  0  0  0  0  0  0  0
   20.5125  -17.0808  -12.2517 C   0  0  0  0  0  0  0  0  0  0  0  0
   19.4240  -17.8343  -13.4889 S   0  0  0  0  0  0  0  0  0  0  0  0
   20.0266  -19.4964  -13.9011 C   0  0  0  0  0  0  0  0  0  0  0  0
   21.4684  -19.5998  -13.4849 C   0  0  0  0  0  0  0  0  0  0  0  0
   22.0307  -20.9563  -13.8758 C   0  0  2  0  0  0  0  0  0  0  0  0
   23.4320  -21.0680  -13.5133 N   0  0  0  0  0  0  0  0  0  0  0  0
   21.8199  -21.1877  -15.3215 C   0  0  0  0  0  0  0  0  0  0  0  0
   20.7273  -21.8908  -15.7739 O   0  0  0  0  0  0  0  0  0  0  0  0
   22.6421  -20.7408  -16.1459 O   0  0  0  0  0  0  0  0  0  0  0  0
  2  1  1  0
  3  5  1  0
  3  2  1  0
  3  4  1  1
  5  6  1  6
  7  5  1  0
  7  8  2  0
 10  9  1  1
 10 12  1  0
 11 10  1  0
 12 13  1  1
 13  7  1  0
 14 12  1  0
 15 14  2  0
 16 17  1  0
 18 19  1  0
 18 17  1  0
 20 19  1  6
 20 21  1  0
 20 22  1  0
 21 14  1  0
 22 23  1  0
 24 22  2  0
M  END
$$$$
