ITM.pdb
     RDKit          3D

 24 23  0  0  1  0  0  0  0  0999 V2000
   28.4019  -20.1213   -6.6816 C   0  0  0  0  0  0  0  0  0  0  0  0
   28.4905  -20.9583   -7.9243 C   0  0  0  0  0  0  0  0  0  0  0  0
   27.5163  -20.4974   -8.9940 C   0  0  2  0  0  0  0  0  0  0  0  0
   26.1309  -20.6691   -8.4148 C   0  0  0  0  0  0  0  0  0  0  0  0
   27.7053  -21.2271  -10.2807 C   0  0  2  0  0  0  0  0  0  0  0  0
   29.1146  -21.2251  -10.6022 N   0  0  0  0  0  0  0  0  0  0  0  0
   26.9043  -20.5599  -11.3491 C   0  0  0  0  0  0  0  0  0  0  0  0
   27.2914  -19.5067  -11.9139 O   0  0  0  0  0  0  0  0  0  0  0  0
   27.0784  -19.7151  -13.8690 C   0  0  0  0  0  0  0  0  0  0  0  0
   25.7650  -20.4255  -14.1124 C   0  0  1  0  0  0  0  0  0  0  0  0
   26.1309  -21.7666  -14.4181 O   0  0  0  0  0  0  0  0  0  0  0  0
   24.9051  -20.5030  -12.8644 C   0  0  2  0  0  0  0  0  0  0  0  0
   25.6651  -21.0941  -11.7708 N   0  0  0  0  0  0  0  0  0  0  0  0
   23.6806  -21.3128  -13.0473 C   0  0  0  0  0  0  0  0  0  0  0  0
   23.4218  -22.1943  -12.1602 O   0  0  0  0  0  0  0  0  0  0  0  0
   17.1263  -19.6592  -10.8679 C   0  0  0  0  0  0  0  0  0  0  0  0
   18.8456  -19.3307  -11.3360 S   0  0  0  0  0  0  0  0  0  0  0  0
   19.3717  -20.5206  -12.6020 C   0  0  0  0  0  0  0  0  0  0  0  0
   20.8439  -20.3371  -12.8494 C   0  0  0  0  0  0  0  0  0  0  0  0
   21.3334  -21.3475  -13.8734 C   0  0  2  0  0  0  0  0  0  0  0  0
   22.7612  -21.2159  -14.0999 N   0  0  0  0  0  0  0  0  0  0  0  0
   20.5649  -21.2003  -15.1287 C   0  0  0  0  0  0  0  0  0  0  0  0
   19.5365  -22.0616  -15.4342 O   0  0  0  0  0  0  0  0  0  0  0  0
   20.8499  -20.2834  -15.9246 O   0  0  0  0  0  0  0  0  0  0  0  0
  2  1  1  0
  3  5  1  0
  3  2  1  0
  3  4  1  1
  5  6  1  6
  7  5  1  0
  7  8  2  0
 10  9  1  1
 10 12  1  0
 11 10  1  0
 12 13  1  1
 13  7  1  0
 14 12  1  0
 15 14  2  0
 16 17  1  0
 18 19  1  0
 18 17  1  0
 20 19  1  1
 20 21  1  0
 20 22  1  0
 21 14  1  0
 22 23  1  0
 24 22  2  0
M  END
$$$$
