ITM.pdb
     RDKit          3D

 24 23  0  0  1  0  0  0  0  0999 V2000
   15.5313  -13.4713  -18.5738 C   0  0  0  0  0  0  0  0  0  0  0  0
   16.8939  -14.0945  -18.4861 C   0  0  0  0  0  0  0  0  0  0  0  0
   17.7978  -13.3567  -17.5143 C   0  0  2  0  0  0  0  0  0  0  0  0
   17.9197  -11.9419  -18.0319 C   0  0  0  0  0  0  0  0  0  0  0  0
   19.1167  -14.0324  -17.3473 C   0  0  2  0  0  0  0  0  0  0  0  0
   18.8806  -15.3874  -16.9024 N   0  0  0  0  0  0  0  0  0  0  0  0
   19.9392  -13.2730  -16.3599 C   0  0  0  0  0  0  0  0  0  0  0  0
   19.7040  -13.3102  -15.1264 O   0  0  0  0  0  0  0  0  0  0  0  0
   24.1179  -11.0957  -15.0689 C   0  0  0  0  0  0  0  0  0  0  0  0
   23.2615  -11.9949  -15.9333 C   0  0  1  0  0  0  0  0  0  0  0  0
   23.3984  -13.2886  -15.3554 O   0  0  0  0  0  0  0  0  0  0  0  0
   21.7855  -11.6537  -15.8447 C   0  0  2  0  0  0  0  0  0  0  0  0
   21.0269  -12.4735  -16.7804 N   0  0  0  0  0  0  0  0  0  0  0  0
   21.4933  -10.2366  -16.1529 C   0  0  0  0  0  0  0  0  0  0  0  0
   21.1196   -9.9594  -17.3422 O   0  0  0  0  0  0  0  0  0  0  0  0
   17.2391   -4.6759  -17.6765 C   0  0  0  0  0  0  0  0  0  0  0  0
   17.6491   -6.2693  -16.9176 S   0  0  0  0  0  0  0  0  0  0  0  0
   19.4318   -6.3458  -16.5835 C   0  0  0  0  0  0  0  0  0  0  0  0
   19.7806   -7.7473  -16.1633 C   0  0  0  0  0  0  0  0  0  0  0  0
   21.2215   -7.8076  -15.6844 C   0  0  2  0  0  0  0  0  0  0  0  0
   21.5814   -9.1518  -15.2708 N   0  0  0  0  0  0  0  0  0  0  0  0
   21.4289   -6.8270  -14.5966 C   0  0  0  0  0  0  0  0  0  0  0  0
   21.5663   -5.4856  -14.8696 O   0  0  0  0  0  0  0  0  0  0  0  0
   21.4805   -7.2173  -13.4133 O   0  0  0  0  0  0  0  0  0  0  0  0
  2  1  1  0
  3  5  1  0
  3  2  1  0
  3  4  1  6
  5  6  1  1
  7  5  1  0
  7  8  2  0
 10  9  1  1
 10 12  1  0
 11 10  1  0
 12 13  1  6
 13  7  1  0
 14 12  1  0
 15 14  2  0
 16 17  1  0
 18 19  1  0
 18 17  1  0
 20 19  1  1
 20 21  1  0
 20 22  1  0
 21 14  1  0
 22 23  1  0
 24 22  2  0
M  END
$$$$
