ITM.pdb
     RDKit          3D

 24 23  0  0  1  0  0  0  0  0999 V2000
   23.2397  -10.2794  -13.1774 C   0  0  0  0  0  0  0  0  0  0  0  0
   23.3213  -10.2246  -14.6751 C   0  0  0  0  0  0  0  0  0  0  0  0
   24.7298  -10.4829  -15.1802 C   0  0  2  0  0  0  0  0  0  0  0  0
   25.6107   -9.4274  -14.5520 C   0  0  0  0  0  0  0  0  0  0  0  0
   24.8018  -10.4919  -16.6696 C   0  0  2  0  0  0  0  0  0  0  0  0
   23.8415  -11.4517  -17.1658 N   0  0  0  0  0  0  0  0  0  0  0  0
   26.1889  -10.8429  -17.0950 C   0  0  0  0  0  0  0  0  0  0  0  0
   26.6855  -11.9769  -16.8816 O   0  0  0  0  0  0  0  0  0  0  0  0
   27.4697  -11.6302  -20.1900 C   0  0  0  0  0  0  0  0  0  0  0  0
   28.2834  -10.4257  -19.7703 C   0  0  1  0  0  0  0  0  0  0  0  0
   27.5591   -9.3078  -20.2718 O   0  0  0  0  0  0  0  0  0  0  0  0
   28.3288  -10.2502  -18.2637 C   0  0  2  0  0  0  0  0  0  0  0  0
   27.0061   -9.9014  -17.7619 N   0  0  0  0  0  0  0  0  0  0  0  0
   29.2664   -9.1929  -17.8260 C   0  0  0  0  0  0  0  0  0  0  0  0
   28.7690   -8.1728  -17.2403 O   0  0  0  0  0  0  0  0  0  0  0  0
   35.5499   -6.3499  -14.4197 C   0  0  0  0  0  0  0  0  0  0  0  0
   34.5764   -7.7823  -14.9521 S   0  0  0  0  0  0  0  0  0  0  0  0
   33.3949   -7.2753  -16.2337 C   0  0  0  0  0  0  0  0  0  0  0  0
   32.5496   -8.4634  -16.6027 C   0  0  0  0  0  0  0  0  0  0  0  0
   31.4637   -8.0502  -17.5822 C   0  0  2  0  0  0  0  0  0  0  0  0
   30.6584   -9.1892  -17.9844 N   0  0  0  0  0  0  0  0  0  0  0  0
   32.0724   -7.3724  -18.7475 C   0  0  0  0  0  0  0  0  0  0  0  0
   32.4716   -8.0871  -19.8532 O   0  0  0  0  0  0  0  0  0  0  0  0
   32.2279   -6.1351  -18.7319 O   0  0  0  0  0  0  0  0  0  0  0  0
  2  1  1  0
  3  5  1  0
  3  2  1  0
  3  4  1  1
  5  6  1  6
  7  5  1  0
  7  8  2  0
 10  9  1  1
 10 12  1  0
 11 10  1  0
 12 13  1  6
 13  7  1  0
 14 12  1  0
 15 14  2  0
 16 17  1  0
 18 19  1  0
 18 17  1  0
 20 19  1  1
 20 21  1  0
 20 22  1  0
 21 14  1  0
 22 23  1  0
 24 22  2  0
M  END
$$$$
