MYD.pdb
     RDKit          3D

 29 29  0  0  1  0  0  0  0  0999 V2000
    6.9499  -12.1132   19.5092 C   0  0  0  0  0  0  0  0  0  0  0  0
    6.8826  -13.4807   18.3141 S   0  0  0  0  0  0  0  0  0  0  0  0
    6.3542  -14.9967   19.1997 C   0  0  0  0  0  0  0  0  0  0  0  0
    7.5143  -15.6267   19.8982 C   0  0  0  0  0  0  0  0  0  0  0  0
    8.5476  -14.6930   20.3678 C   0  0  2  0  0  0  0  0  0  0  0  0
    9.6607  -14.6388   19.4303 N   0  0  0  0  0  0  0  0  0  0  0  0
    9.0171  -14.9073   21.7534 C   0  0  0  0  0  0  0  0  0  0  0  0
   10.0161  -15.6289   22.0620 O   0  0  0  0  0  0  0  0  0  0  0  0
    9.6399  -14.3326   30.6835 O   0  0  0  0  0  0  0  0  0  0  0  0
    9.2697  -14.1404   29.3373 C   0  0  0  0  0  0  0  0  0  0  0  0
   10.1996  -14.2248   28.3286 C   0  0  0  0  0  0  0  0  0  0  0  0
    9.8250  -14.0322   27.0139 C   0  0  0  0  0  0  0  0  0  0  0  0
    8.5191  -13.7504   26.6563 C   0  0  0  0  0  0  0  0  0  0  0  0
    8.2086  -13.5538   25.2496 C   0  0  0  0  0  0  0  0  0  0  0  0
    8.7668  -14.4704   24.2507 C   0  0  2  0  0  0  0  0  0  0  0  0
    8.3575  -14.3011   22.8785 N   0  0  0  0  0  0  0  0  0  0  0  0
    8.8304  -15.9046   24.5889 C   0  0  0  0  0  0  0  0  0  0  0  0
    7.8676  -16.6429   24.2255 O   0  0  0  0  0  0  0  0  0  0  0  0
    7.6120  -13.6738   27.6930 C   0  0  0  0  0  0  0  0  0  0  0  0
    7.9758  -13.8647   29.0104 C   0  0  0  0  0  0  0  0  0  0  0  0
    9.8632  -16.5410   25.2799 N   0  0  0  0  0  0  0  0  0  0  0  0
    9.9680  -18.0244   25.3106 C   0  0  1  0  0  0  0  0  0  0  0  0
    9.9769  -18.5009   23.9078 C   0  0  0  0  0  0  0  0  0  0  0  0
    9.9898  -19.9671   23.7840 C   0  0  0  0  0  0  0  0  0  0  0  0
    9.3283  -20.7031   24.5489 O   0  0  0  0  0  0  0  0  0  0  0  0
   11.1327  -18.4238   26.1320 C   0  0  0  0  0  0  0  0  0  0  0  0
   11.1159  -19.4388   27.0691 O   0  0  0  0  0  0  0  0  0  0  0  0
   10.7400  -20.6005   22.8090 O   0  0  0  0  0  0  0  0  0  0  0  0
   12.2355  -17.8121   25.9911 O   0  0  0  0  0  0  0  0  0  0  0  0
  2  1  1  0
  3  2  1  0
  4  5  1  0
  4  3  1  0
  5  6  1  6
  7  8  2  0
  7  5  1  0
  9 10  1  0
 10 11  2  0
 11 12  1  0
 13 12  2  0
 13 14  1  0
 15 14  1  1
 15 16  1  0
 16  7  1  0
 17 21  1  0
 17 15  1  0
 18 17  2  0
 19 13  1  0
 20 10  1  0
 20 19  2  0
 22 21  1  0
 22 26  1  0
 22 23  1  6
 23 24  1  0
 24 25  2  0
 26 27  1  0
 28 24  1  0
 29 26  2  0
M  END
$$$$
