MYD.pdb
     RDKit          3D

 29 29  0  0  1  0  0  0  0  0999 V2000
    7.2210  -11.7253   20.2534 C   0  0  0  0  0  0  0  0  0  0  0  0
    8.7236  -12.7138   19.9931 S   0  0  0  0  0  0  0  0  0  0  0  0
    8.2962  -14.1467   18.9319 C   0  0  0  0  0  0  0  0  0  0  0  0
    7.3199  -15.0393   19.6252 C   0  0  0  0  0  0  0  0  0  0  0  0
    7.9077  -16.1906   20.3244 C   0  0  2  0  0  0  0  0  0  0  0  0
    6.8893  -17.1860   20.6294 N   0  0  0  0  0  0  0  0  0  0  0  0
    8.7199  -15.8647   21.5163 C   0  0  0  0  0  0  0  0  0  0  0  0
    9.9173  -15.4433   21.4670 O   0  0  0  0  0  0  0  0  0  0  0  0
   10.8458  -14.7200   30.2256 O   0  0  0  0  0  0  0  0  0  0  0  0
   10.1974  -14.8689   28.9831 C   0  0  0  0  0  0  0  0  0  0  0  0
    9.8613  -13.7731   28.2243 C   0  0  0  0  0  0  0  0  0  0  0  0
    9.2243  -13.9319   27.0100 C   0  0  0  0  0  0  0  0  0  0  0  0
    8.9001  -15.1793   26.5084 C   0  0  0  0  0  0  0  0  0  0  0  0
    8.2225  -15.2598   25.2245 C   0  0  0  0  0  0  0  0  0  0  0  0
    8.9533  -15.7465   24.0504 C   0  0  2  0  0  0  0  0  0  0  0  0
    8.1995  -16.0084   22.8493 N   0  0  0  0  0  0  0  0  0  0  0  0
    9.9658  -16.7994   24.2547 C   0  0  0  0  0  0  0  0  0  0  0  0
    9.5998  -18.0058   24.1333 O   0  0  0  0  0  0  0  0  0  0  0  0
    9.2525  -16.2568   27.2948 C   0  0  0  0  0  0  0  0  0  0  0  0
    9.8895  -16.1093   28.5100 C   0  0  0  0  0  0  0  0  0  0  0  0
   11.3099  -16.5962   24.5727 N   0  0  0  0  0  0  0  0  0  0  0  0
   12.2763  -17.7268   24.5857 C   0  0  1  0  0  0  0  0  0  0  0  0
   13.1678  -17.5663   23.4133 C   0  0  0  0  0  0  0  0  0  0  0  0
   14.2079  -18.6028   23.3182 C   0  0  0  0  0  0  0  0  0  0  0  0
   14.2878  -19.5398   24.1428 O   0  0  0  0  0  0  0  0  0  0  0  0
   12.9508  -17.7894   25.9017 C   0  0  0  0  0  0  0  0  0  0  0  0
   13.3873  -18.9554   26.5006 O   0  0  0  0  0  0  0  0  0  0  0  0
   15.1502  -18.5860   22.3051 O   0  0  0  0  0  0  0  0  0  0  0  0
   13.1562  -16.7179   26.5499 O   0  0  0  0  0  0  0  0  0  0  0  0
  2  1  1  0
  3  2  1  0
  4  5  1  0
  4  3  1  0
  5  6  1  1
  7  8  2  0
  7  5  1  0
  9 10  1  0
 10 11  2  0
 11 12  1  0
 13 12  2  0
 13 14  1  0
 15 14  1  1
 15 16  1  0
 16  7  1  0
 17 21  1  0
 17 15  1  0
 18 17  2  0
 19 13  1  0
 20 10  1  0
 20 19  2  0
 22 21  1  0
 22 26  1  0
 22 23  1  6
 23 24  1  0
 24 25  2  0
 26 27  1  0
 28 24  1  0
 29 26  2  0
M  END
$$$$
