MYD.pdb
     RDKit          3D

 29 29  0  0  1  0  0  0  0  0999 V2000
    8.1971  -11.3458   19.9454 C   0  0  0  0  0  0  0  0  0  0  0  0
    7.1931  -12.5220   18.9907 S   0  0  0  0  0  0  0  0  0  0  0  0
    7.2446  -14.1470   19.8384 C   0  0  0  0  0  0  0  0  0  0  0  0
    8.6474  -14.6540   19.9147 C   0  0  0  0  0  0  0  0  0  0  0  0
    8.8246  -15.9009   20.6721 C   0  0  2  0  0  0  0  0  0  0  0  0
    7.5467  -16.5693   20.8749 N   0  0  0  0  0  0  0  0  0  0  0  0
    9.5763  -15.7748   21.9392 C   0  0  0  0  0  0  0  0  0  0  0  0
   10.7938  -15.4197   22.0111 O   0  0  0  0  0  0  0  0  0  0  0  0
   11.0328  -14.7046   30.7377 O   0  0  0  0  0  0  0  0  0  0  0  0
   10.4576  -14.8570   29.4601 C   0  0  0  0  0  0  0  0  0  0  0  0
   10.1688  -16.1036   28.9581 C   0  0  0  0  0  0  0  0  0  0  0  0
    9.6077  -16.2399   27.7042 C   0  0  0  0  0  0  0  0  0  0  0  0
    9.3146  -15.1475   26.9082 C   0  0  0  0  0  0  0  0  0  0  0  0
    8.7312  -15.3775   25.5964 C   0  0  0  0  0  0  0  0  0  0  0  0
    9.5909  -15.8001   24.4866 C   0  0  2  0  0  0  0  0  0  0  0  0
    8.9675  -16.0553   23.2117 N   0  0  0  0  0  0  0  0  0  0  0  0
   10.6221  -16.8183   24.7609 C   0  0  0  0  0  0  0  0  0  0  0  0
   11.6947  -16.4410   25.3188 O   0  0  0  0  0  0  0  0  0  0  0  0
    9.6164  -13.9121   27.4430 C   0  0  0  0  0  0  0  0  0  0  0  0
   10.1773  -13.7646   28.6952 C   0  0  0  0  0  0  0  0  0  0  0  0
   10.5327  -18.1795   24.4633 N   0  0  0  0  0  0  0  0  0  0  0  0
   11.6103  -19.1254   24.8589 C   0  0  1  0  0  0  0  0  0  0  0  0
   12.9055  -18.5046   24.4957 C   0  0  0  0  0  0  0  0  0  0  0  0
   13.3392  -18.8074   23.1226 C   0  0  0  0  0  0  0  0  0  0  0  0
   12.5461  -19.2372   22.2562 O   0  0  0  0  0  0  0  0  0  0  0  0
   11.4512  -19.4926   26.2839 C   0  0  0  0  0  0  0  0  0  0  0  0
   12.2274  -20.4281   26.9404 O   0  0  0  0  0  0  0  0  0  0  0  0
   14.6530  -18.6288   22.7269 O   0  0  0  0  0  0  0  0  0  0  0  0
   10.5497  -18.9295   26.9771 O   0  0  0  0  0  0  0  0  0  0  0  0
  2  1  1  0
  3  2  1  0
  4  5  1  0
  4  3  1  0
  5  6  1  1
  7  8  2  0
  7  5  1  0
  9 10  1  0
 10 11  2  0
 11 12  1  0
 13 12  2  0
 13 14  1  0
 15 14  1  1
 15 16  1  0
 16  7  1  0
 17 21  1  0
 17 15  1  0
 18 17  2  0
 19 13  1  0
 20 10  1  0
 20 19  2  0
 22 21  1  0
 22 26  1  0
 22 23  1  1
 23 24  1  0
 24 25  2  0
 26 27  1  0
 28 24  1  0
 29 26  2  0
M  END
$$$$
