MYD.pdb
     RDKit          3D

 29 29  0  0  1  0  0  0  0  0999 V2000
    7.2852  -12.1037   25.7135 C   0  0  0  0  0  0  0  0  0  0  0  0
    6.2024  -13.0521   26.8229 S   0  0  0  0  0  0  0  0  0  0  0  0
    5.7155  -14.6008   25.9707 C   0  0  0  0  0  0  0  0  0  0  0  0
    6.9245  -15.3566   25.5261 C   0  0  0  0  0  0  0  0  0  0  0  0
    6.6563  -16.5384   24.6946 C   0  0  2  0  0  0  0  0  0  0  0  0
    5.6916  -17.4176   25.3407 N   0  0  0  0  0  0  0  0  0  0  0  0
    7.8509  -17.2841   24.2438 C   0  0  0  0  0  0  0  0  0  0  0  0
    8.4303  -18.1813   24.9317 O   0  0  0  0  0  0  0  0  0  0  0  0
    6.9611  -12.3496   18.1428 O   0  0  0  0  0  0  0  0  0  0  0  0
    7.5648  -12.9587   19.2612 C   0  0  0  0  0  0  0  0  0  0  0  0
    7.6380  -12.3065   20.4689 C   0  0  0  0  0  0  0  0  0  0  0  0
    8.2339  -12.9129   21.5565 C   0  0  0  0  0  0  0  0  0  0  0  0
    8.7756  -14.1833   21.4833 C   0  0  0  0  0  0  0  0  0  0  0  0
    9.3922  -14.7477   22.6729 C   0  0  0  0  0  0  0  0  0  0  0  0
    9.6099  -16.1951   22.7572 C   0  0  2  0  0  0  0  0  0  0  0  0
    8.4584  -17.0381   22.9636 N   0  0  0  0  0  0  0  0  0  0  0  0
   10.7442  -16.6768   23.5676 C   0  0  0  0  0  0  0  0  0  0  0  0
   11.8248  -16.0175   23.5265 O   0  0  0  0  0  0  0  0  0  0  0  0
    8.6842  -14.8092   20.2572 C   0  0  0  0  0  0  0  0  0  0  0  0
    8.0906  -14.2122   19.1638 C   0  0  0  0  0  0  0  0  0  0  0  0
   10.7460  -17.8049   24.3902 N   0  0  0  0  0  0  0  0  0  0  0  0
   12.0075  -18.3186   24.9879 C   0  0  1  0  0  0  0  0  0  0  0  0
   13.0655  -18.2151   23.9559 C   0  0  0  0  0  0  0  0  0  0  0  0
   14.3792  -18.6988   24.4089 C   0  0  0  0  0  0  0  0  0  0  0  0
   15.1656  -17.9736   25.0571 O   0  0  0  0  0  0  0  0  0  0  0  0
   12.2792  -17.6118   26.2595 C   0  0  0  0  0  0  0  0  0  0  0  0
   11.4631  -16.6376   26.8012 O   0  0  0  0  0  0  0  0  0  0  0  0
   14.8055  -19.9866   24.1355 O   0  0  0  0  0  0  0  0  0  0  0  0
   13.3245  -17.8955   26.9208 O   0  0  0  0  0  0  0  0  0  0  0  0
  2  1  1  0
  3  2  1  0
  4  5  1  0
  4  3  1  0
  5  6  1  1
  7  8  2  0
  7  5  1  0
  9 10  1  0
 10 11  2  0
 11 12  1  0
 13 12  2  0
 13 14  1  0
 15 14  1  1
 15 16  1  0
 16  7  1  0
 17 21  1  0
 17 15  1  0
 18 17  2  0
 19 13  1  0
 20 10  1  0
 20 19  2  0
 22 21  1  0
 22 26  1  0
 22 23  1  6
 23 24  1  0
 24 25  2  0
 26 27  1  0
 28 24  1  0
 29 26  2  0
M  END
$$$$
