MYD.pdb
     RDKit          3D

 29 29  0  0  1  0  0  0  0  0999 V2000
    8.5113  -11.4687   19.2449 C   0  0  0  0  0  0  0  0  0  0  0  0
    6.8887  -12.2863   19.2082 S   0  0  0  0  0  0  0  0  0  0  0  0
    7.0180  -13.8690   20.1247 C   0  0  0  0  0  0  0  0  0  0  0  0
    8.3295  -14.5283   19.8492 C   0  0  0  0  0  0  0  0  0  0  0  0
    8.5426  -15.8129   20.5307 C   0  0  2  0  0  0  0  0  0  0  0  0
    7.2919  -16.5497   20.6488 N   0  0  0  0  0  0  0  0  0  0  0  0
    9.2499  -15.7363   21.8270 C   0  0  0  0  0  0  0  0  0  0  0  0
   10.5031  -15.5647   21.9439 O   0  0  0  0  0  0  0  0  0  0  0  0
   10.8178  -14.8834   30.6064 O   0  0  0  0  0  0  0  0  0  0  0  0
   10.2429  -14.9084   29.3199 C   0  0  0  0  0  0  0  0  0  0  0  0
    9.5764  -16.0208   28.8639 C   0  0  0  0  0  0  0  0  0  0  0  0
    9.0196  -16.0338   27.6008 C   0  0  0  0  0  0  0  0  0  0  0  0
    9.1044  -14.9469   26.7497 C   0  0  0  0  0  0  0  0  0  0  0  0
    8.4973  -15.0443   25.4322 C   0  0  0  0  0  0  0  0  0  0  0  0
    9.1834  -15.7906   24.3731 C   0  0  2  0  0  0  0  0  0  0  0  0
    8.5517  -15.8567   23.0786 N   0  0  0  0  0  0  0  0  0  0  0  0
    9.7707  -17.0985   24.7193 C   0  0  0  0  0  0  0  0  0  0  0  0
    8.9951  -18.0973   24.7889 O   0  0  0  0  0  0  0  0  0  0  0  0
    9.7791  -13.8476   27.2393 C   0  0  0  0  0  0  0  0  0  0  0  0
   10.3393  -13.8240   28.5002 C   0  0  0  0  0  0  0  0  0  0  0  0
   11.1187  -17.3506   24.9813 N   0  0  0  0  0  0  0  0  0  0  0  0
   11.5983  -18.7245   25.2891 C   0  0  1  0  0  0  0  0  0  0  0  0
   12.2849  -19.2392   24.0813 C   0  0  0  0  0  0  0  0  0  0  0  0
   12.9427  -20.5392   24.2870 C   0  0  0  0  0  0  0  0  0  0  0  0
   12.5500  -21.3516   25.1532 O   0  0  0  0  0  0  0  0  0  0  0  0
   12.4079  -18.7028   26.5279 C   0  0  0  0  0  0  0  0  0  0  0  0
   13.6914  -18.1989   26.6131 O   0  0  0  0  0  0  0  0  0  0  0  0
   14.0327  -20.9227   23.5257 O   0  0  0  0  0  0  0  0  0  0  0  0
   11.9198  -19.1720   27.6013 O   0  0  0  0  0  0  0  0  0  0  0  0
  2  1  1  0
  3  2  1  0
  4  5  1  0
  4  3  1  0
  5  6  1  1
  7  8  2  0
  7  5  1  0
  9 10  1  0
 10 11  2  0
 11 12  1  0
 13 12  2  0
 13 14  1  0
 15 14  1  1
 15 16  1  0
 16  7  1  0
 17 21  1  0
 17 15  1  0
 18 17  2  0
 19 13  1  0
 20 10  1  0
 20 19  2  0
 22 21  1  0
 22 26  1  0
 22 23  1  6
 23 24  1  0
 24 25  2  0
 26 27  1  0
 28 24  1  0
 29 26  2  0
M  END
$$$$
