MYD.pdb
     RDKit          3D

 29 29  0  0  1  0  0  0  0  0999 V2000
    3.6922  -18.7941   22.4708 C   0  0  0  0  0  0  0  0  0  0  0  0
    4.8256  -18.5257   21.0757 S   0  0  0  0  0  0  0  0  0  0  0  0
    5.8637  -17.0609   21.4480 C   0  0  0  0  0  0  0  0  0  0  0  0
    6.7921  -16.7748   20.3135 C   0  0  0  0  0  0  0  0  0  0  0  0
    7.7121  -15.6480   20.5233 C   0  0  2  0  0  0  0  0  0  0  0  0
    8.5937  -15.4793   19.3764 N   0  0  0  0  0  0  0  0  0  0  0  0
    8.4726  -15.6746   21.7911 C   0  0  0  0  0  0  0  0  0  0  0  0
    9.6887  -16.0299   21.8833 O   0  0  0  0  0  0  0  0  0  0  0  0
   10.2993  -14.8688   30.5691 O   0  0  0  0  0  0  0  0  0  0  0  0
    9.7161  -14.7772   29.2893 C   0  0  0  0  0  0  0  0  0  0  0  0
    8.8944  -15.7709   28.8131 C   0  0  0  0  0  0  0  0  0  0  0  0
    8.3311  -15.6706   27.5568 C   0  0  0  0  0  0  0  0  0  0  0  0
    8.5629  -14.5844   26.7327 C   0  0  0  0  0  0  0  0  0  0  0  0
    7.9373  -14.5590   25.4205 C   0  0  0  0  0  0  0  0  0  0  0  0
    8.5687  -15.2698   24.3045 C   0  0  2  0  0  0  0  0  0  0  0  0
    7.8732  -15.2931   23.0416 N   0  0  0  0  0  0  0  0  0  0  0  0
    9.1704  -16.5884   24.5776 C   0  0  0  0  0  0  0  0  0  0  0  0
   10.1542  -16.6380   25.3737 O   0  0  0  0  0  0  0  0  0  0  0  0
    9.3912  -13.6056   27.2421 C   0  0  0  0  0  0  0  0  0  0  0  0
    9.9594  -13.6959   28.4964 C   0  0  0  0  0  0  0  0  0  0  0  0
    8.7567  -17.8081   24.0385 N   0  0  0  0  0  0  0  0  0  0  0  0
    9.3588  -19.0914   24.4889 C   0  0  1  0  0  0  0  0  0  0  0  0
    8.3481  -20.1553   24.2845 C   0  0  0  0  0  0  0  0  0  0  0  0
    7.3933  -20.2820   25.3969 C   0  0  0  0  0  0  0  0  0  0  0  0
    7.5491  -19.6716   26.4774 O   0  0  0  0  0  0  0  0  0  0  0  0
   10.6561  -19.2984   23.8072 C   0  0  0  0  0  0  0  0  0  0  0  0
   11.6664  -20.1124   24.2820 O   0  0  0  0  0  0  0  0  0  0  0  0
    6.2733  -21.0882   25.2957 O   0  0  0  0  0  0  0  0  0  0  0  0
   10.8881  -18.7018   22.7115 O   0  0  0  0  0  0  0  0  0  0  0  0
  2  1  1  0
  3  2  1  0
  4  5  1  0
  4  3  1  0
  5  6  1  6
  7  8  2  0
  7  5  1  0
  9 10  1  0
 10 11  2  0
 11 12  1  0
 13 12  2  0
 13 14  1  0
 15 14  1  1
 15 16  1  0
 16  7  1  0
 17 21  1  0
 17 15  1  0
 18 17  2  0
 19 13  1  0
 20 10  1  0
 20 19  2  0
 22 21  1  0
 22 26  1  0
 22 23  1  6
 23 24  1  0
 24 25  2  0
 26 27  1  0
 28 24  1  0
 29 26  2  0
M  END
$$$$
