MYD.pdb
     RDKit          3D

 29 29  0  0  1  0  0  0  0  0999 V2000
    7.1549  -12.3556   18.9945 C   0  0  0  0  0  0  0  0  0  0  0  0
    7.7109  -14.0691   18.7553 S   0  0  0  0  0  0  0  0  0  0  0  0
    9.5428  -14.0979   18.8283 C   0  0  0  0  0  0  0  0  0  0  0  0
   10.0487  -15.5004   18.7396 C   0  0  0  0  0  0  0  0  0  0  0  0
    9.5256  -16.4226   19.7573 C   0  0  2  0  0  0  0  0  0  0  0  0
    8.2048  -16.9098   19.3842 N   0  0  0  0  0  0  0  0  0  0  0  0
    9.5427  -15.9147   21.1458 C   0  0  0  0  0  0  0  0  0  0  0  0
   10.5719  -15.4337   21.7142 O   0  0  0  0  0  0  0  0  0  0  0  0
    7.0024  -12.3684   28.9404 O   0  0  0  0  0  0  0  0  0  0  0  0
    7.1158  -12.8523   27.6216 C   0  0  0  0  0  0  0  0  0  0  0  0
    6.0671  -13.4991   27.0123 C   0  0  0  0  0  0  0  0  0  0  0  0
    6.1914  -13.9707   25.7209 C   0  0  0  0  0  0  0  0  0  0  0  0
    7.3567  -13.8170   24.9921 C   0  0  0  0  0  0  0  0  0  0  0  0
    7.4086  -14.3495   23.6401 C   0  0  0  0  0  0  0  0  0  0  0  0
    8.3198  -15.4562   23.3331 C   0  0  2  0  0  0  0  0  0  0  0  0
    8.3662  -15.9324   21.9729 N   0  0  0  0  0  0  0  0  0  0  0  0
    8.3661  -16.5932   24.2715 C   0  0  0  0  0  0  0  0  0  0  0  0
    7.6227  -17.5903   24.0322 O   0  0  0  0  0  0  0  0  0  0  0  0
    8.3884  -13.1630   25.6333 C   0  0  0  0  0  0  0  0  0  0  0  0
    8.2747  -12.6876   26.9238 C   0  0  0  0  0  0  0  0  0  0  0  0
    9.1612  -16.6826   25.4156 N   0  0  0  0  0  0  0  0  0  0  0  0
    9.9300  -17.9184   25.7228 C   0  0  1  0  0  0  0  0  0  0  0  0
   10.6779  -18.2950   24.5006 C   0  0  0  0  0  0  0  0  0  0  0  0
   10.7248  -19.7463   24.2627 C   0  0  0  0  0  0  0  0  0  0  0  0
    9.7258  -20.4791   24.4345 O   0  0  0  0  0  0  0  0  0  0  0  0
   10.7491  -17.7054   26.9371 C   0  0  0  0  0  0  0  0  0  0  0  0
   11.8144  -16.8293   27.0165 O   0  0  0  0  0  0  0  0  0  0  0  0
   11.8846  -20.3685   23.8356 O   0  0  0  0  0  0  0  0  0  0  0  0
   10.4819  -18.3568   27.9929 O   0  0  0  0  0  0  0  0  0  0  0  0
  2  1  1  0
  3  2  1  0
  4  5  1  0
  4  3  1  0
  5  6  1  6
  7  8  2  0
  7  5  1  0
  9 10  1  0
 10 11  2  0
 11 12  1  0
 13 12  2  0
 13 14  1  0
 15 14  1  6
 15 16  1  0
 16  7  1  0
 17 21  1  0
 17 15  1  0
 18 17  2  0
 19 13  1  0
 20 10  1  0
 20 19  2  0
 22 21  1  0
 22 26  1  0
 22 23  1  6
 23 24  1  0
 24 25  2  0
 26 27  1  0
 28 24  1  0
 29 26  2  0
M  END
$$$$
