MYD.pdb
     RDKit          3D

 29 29  0  0  1  0  0  0  0  0999 V2000
    7.0979  -11.7307   19.0144 C   0  0  0  0  0  0  0  0  0  0  0  0
    6.5969  -13.1116   17.9445 S   0  0  0  0  0  0  0  0  0  0  0  0
    7.0949  -14.6799   18.7536 C   0  0  0  0  0  0  0  0  0  0  0  0
    8.1300  -14.4242   19.7994 C   0  0  0  0  0  0  0  0  0  0  0  0
    8.5766  -15.6096   20.5445 C   0  0  2  0  0  0  0  0  0  0  0  0
    7.5016  -16.5856   20.6569 N   0  0  0  0  0  0  0  0  0  0  0  0
    9.2008  -15.3385   21.8573 C   0  0  0  0  0  0  0  0  0  0  0  0
   10.3696  -14.8630   22.0042 O   0  0  0  0  0  0  0  0  0  0  0  0
   10.1293  -14.3355   30.7416 O   0  0  0  0  0  0  0  0  0  0  0  0
    9.6182  -14.5359   29.4436 C   0  0  0  0  0  0  0  0  0  0  0  0
    9.6665  -15.7734   28.8471 C   0  0  0  0  0  0  0  0  0  0  0  0
    9.1646  -15.9565   27.5742 C   0  0  0  0  0  0  0  0  0  0  0  0
    8.5992  -14.9214   26.8519 C   0  0  0  0  0  0  0  0  0  0  0  0
    8.1005  -15.1960   25.5141 C   0  0  0  0  0  0  0  0  0  0  0  0
    9.0462  -15.3153   24.4001 C   0  0  2  0  0  0  0  0  0  0  0  0
    8.5124  -15.6036   23.0920 N   0  0  0  0  0  0  0  0  0  0  0  0
   10.2842  -16.0849   24.6247 C   0  0  0  0  0  0  0  0  0  0  0  0
   11.1003  -15.6554   25.4928 O   0  0  0  0  0  0  0  0  0  0  0  0
    8.5662  -13.6937   27.4806 C   0  0  0  0  0  0  0  0  0  0  0  0
    9.0649  -13.4998   28.7526 C   0  0  0  0  0  0  0  0  0  0  0  0
   10.6525  -17.2595   23.9660 N   0  0  0  0  0  0  0  0  0  0  0  0
   11.7664  -18.1067   24.4701 C   0  0  1  0  0  0  0  0  0  0  0  0
   11.3701  -18.6199   25.8022 C   0  0  0  0  0  0  0  0  0  0  0  0
   12.3678  -19.5152   26.4090 C   0  0  0  0  0  0  0  0  0  0  0  0
   13.4956  -19.6942   25.8987 O   0  0  0  0  0  0  0  0  0  0  0  0
   12.1055  -19.1346   23.4606 C   0  0  0  0  0  0  0  0  0  0  0  0
   13.3686  -19.6641   23.2793 O   0  0  0  0  0  0  0  0  0  0  0  0
   12.0999  -20.2035   27.5791 O   0  0  0  0  0  0  0  0  0  0  0  0
   11.1980  -19.5799   22.6934 O   0  0  0  0  0  0  0  0  0  0  0  0
  2  1  1  0
  3  2  1  0
  4  5  1  0
  4  3  1  0
  5  6  1  1
  7  8  2  0
  7  5  1  0
  9 10  1  0
 10 11  2  0
 11 12  1  0
 13 12  2  0
 13 14  1  0
 15 14  1  1
 15 16  1  0
 16  7  1  0
 17 21  1  0
 17 15  1  0
 18 17  2  0
 19 13  1  0
 20 10  1  0
 20 19  2  0
 22 21  1  0
 22 26  1  0
 22 23  1  1
 23 24  1  0
 24 25  2  0
 26 27  1  0
 28 24  1  0
 29 26  2  0
M  END
$$$$
