MYD.pdb
     RDKit          3D

 29 29  0  0  1  0  0  0  0  0999 V2000
    7.4690  -19.9756   20.7009 C   0  0  0  0  0  0  0  0  0  0  0  0
    8.0983  -19.5239   19.0569 S   0  0  0  0  0  0  0  0  0  0  0  0
    8.5762  -17.7540   19.0871 C   0  0  0  0  0  0  0  0  0  0  0  0
    7.9029  -17.0488   20.2185 C   0  0  0  0  0  0  0  0  0  0  0  0
    8.3331  -15.6608   20.4389 C   0  0  2  0  0  0  0  0  0  0  0  0
    9.0427  -15.1480   19.2751 N   0  0  0  0  0  0  0  0  0  0  0  0
    9.0920  -15.4198   21.6849 C   0  0  0  0  0  0  0  0  0  0  0  0
   10.3429  -15.2024   21.7246 O   0  0  0  0  0  0  0  0  0  0  0  0
   10.6424  -15.0899   30.5637 O   0  0  0  0  0  0  0  0  0  0  0  0
   10.0844  -14.9885   29.2735 C   0  0  0  0  0  0  0  0  0  0  0  0
    9.3993  -16.0407   28.7139 C   0  0  0  0  0  0  0  0  0  0  0  0
    8.8594  -15.9299   27.4483 C   0  0  0  0  0  0  0  0  0  0  0  0
    8.9800  -14.7750   26.6970 C   0  0  0  0  0  0  0  0  0  0  0  0
    8.3886  -14.7423   25.3692 C   0  0  0  0  0  0  0  0  0  0  0  0
    9.1460  -15.2633   24.2271 C   0  0  2  0  0  0  0  0  0  0  0  0
    8.4517  -15.4172   22.9728 N   0  0  0  0  0  0  0  0  0  0  0  0
   10.0394  -16.4139   24.4580 C   0  0  0  0  0  0  0  0  0  0  0  0
    9.5812  -17.5740   24.2386 O   0  0  0  0  0  0  0  0  0  0  0  0
    9.6725  -13.7389   27.2890 C   0  0  0  0  0  0  0  0  0  0  0  0
   10.2161  -13.8391   28.5534 C   0  0  0  0  0  0  0  0  0  0  0  0
   11.3621  -16.3514   24.9005 N   0  0  0  0  0  0  0  0  0  0  0  0
   12.1687  -17.5868   25.0895 C   0  0  1  0  0  0  0  0  0  0  0  0
   13.4827  -17.3661   24.4417 C   0  0  0  0  0  0  0  0  0  0  0  0
   13.6393  -18.0852   23.1675 C   0  0  0  0  0  0  0  0  0  0  0  0
   12.7254  -18.7919   22.6882 O   0  0  0  0  0  0  0  0  0  0  0  0
   12.2120  -17.9374   26.5268 C   0  0  0  0  0  0  0  0  0  0  0  0
   12.0308  -19.2131   27.0251 O   0  0  0  0  0  0  0  0  0  0  0  0
   14.8131  -18.0107   22.4386 O   0  0  0  0  0  0  0  0  0  0  0  0
   12.4270  -17.0279   27.3854 O   0  0  0  0  0  0  0  0  0  0  0  0
  2  1  1  0
  3  2  1  0
  4  5  1  0
  4  3  1  0
  5  6  1  6
  7  8  2  0
  7  5  1  0
  9 10  1  0
 10 11  2  0
 11 12  1  0
 13 12  2  0
 13 14  1  0
 15 14  1  1
 15 16  1  0
 16  7  1  0
 17 21  1  0
 17 15  1  0
 18 17  2  0
 19 13  1  0
 20 10  1  0
 20 19  2  0
 22 21  1  0
 22 26  1  0
 22 23  1  1
 23 24  1  0
 24 25  2  0
 26 27  1  0
 28 24  1  0
 29 26  2  0
M  END
$$$$
