MYD.pdb
     RDKit          3D

 29 29  0  0  1  0  0  0  0  0999 V2000
    7.2418  -12.6675   16.7630 C   0  0  0  0  0  0  0  0  0  0  0  0
    7.8046  -12.9536   18.4671 S   0  0  0  0  0  0  0  0  0  0  0  0
    6.4479  -13.7659   19.3952 C   0  0  0  0  0  0  0  0  0  0  0  0
    6.8092  -13.9036   20.8379 C   0  0  0  0  0  0  0  0  0  0  0  0
    7.9319  -14.8088   21.1209 C   0  0  2  0  0  0  0  0  0  0  0  0
    7.5273  -16.1992   20.9665 N   0  0  0  0  0  0  0  0  0  0  0  0
    8.6202  -14.5855   22.4104 C   0  0  0  0  0  0  0  0  0  0  0  0
    9.2161  -13.5075   22.7209 O   0  0  0  0  0  0  0  0  0  0  0  0
   10.8749  -15.0891   31.0317 O   0  0  0  0  0  0  0  0  0  0  0  0
   10.2743  -15.1817   29.7601 C   0  0  0  0  0  0  0  0  0  0  0  0
   10.0148  -16.4039   29.1871 C   0  0  0  0  0  0  0  0  0  0  0  0
    9.4282  -16.4814   27.9399 C   0  0  0  0  0  0  0  0  0  0  0  0
    9.0798  -15.3525   27.2209 C   0  0  0  0  0  0  0  0  0  0  0  0
    8.4727  -15.5205   25.9105 C   0  0  0  0  0  0  0  0  0  0  0  0
    9.3098  -15.4388   24.7097 C   0  0  2  0  0  0  0  0  0  0  0  0
    8.6673  -15.6000   23.4289 N   0  0  0  0  0  0  0  0  0  0  0  0
   10.6046  -16.1451   24.7211 C   0  0  0  0  0  0  0  0  0  0  0  0
   10.9855  -16.6679   25.8100 O   0  0  0  0  0  0  0  0  0  0  0  0
    9.3535  -14.1430   27.8255 C   0  0  0  0  0  0  0  0  0  0  0  0
    9.9394  -14.0542   29.0717 C   0  0  0  0  0  0  0  0  0  0  0  0
   11.4664  -16.2988   23.6335 N   0  0  0  0  0  0  0  0  0  0  0  0
   12.6844  -17.1470   23.7316 C   0  0  1  0  0  0  0  0  0  0  0  0
   12.2576  -18.4912   24.1856 C   0  0  0  0  0  0  0  0  0  0  0  0
   13.0432  -19.0074   25.3176 C   0  0  0  0  0  0  0  0  0  0  0  0
   13.9744  -18.3505   25.8329 O   0  0  0  0  0  0  0  0  0  0  0  0
   13.4231  -17.1066   22.4497 C   0  0  0  0  0  0  0  0  0  0  0  0
   12.9149  -17.5434   21.2416 O   0  0  0  0  0  0  0  0  0  0  0  0
   12.7844  -20.2515   25.8653 O   0  0  0  0  0  0  0  0  0  0  0  0
   14.6056  -16.6465   22.4245 O   0  0  0  0  0  0  0  0  0  0  0  0
  2  1  1  0
  3  2  1  0
  4  5  1  0
  4  3  1  0
  5  6  1  1
  7  8  2  0
  7  5  1  0
  9 10  1  0
 10 11  2  0
 11 12  1  0
 13 12  2  0
 13 14  1  0
 15 14  1  1
 15 16  1  0
 16  7  1  0
 17 21  1  0
 17 15  1  0
 18 17  2  0
 19 13  1  0
 20 10  1  0
 20 19  2  0
 22 21  1  0
 22 26  1  0
 22 23  1  6
 23 24  1  0
 24 25  2  0
 26 27  1  0
 28 24  1  0
 29 26  2  0
M  END
$$$$
