TSC.pdb
     RDKit          3D

 20 19  0  0  1  0  0  0  0  0999 V2000
    8.6351  -12.4984   20.5143 C   0  0  0  0  0  0  0  0  0  0  0  0
    8.0344  -13.3283   19.3850 C   0  0  1  0  0  0  0  0  0  0  0  0
    8.4516  -12.8872   18.1467 O   0  0  0  0  0  0  0  0  0  0  0  0
    8.2856  -14.8006   19.5976 C   0  0  2  0  0  0  0  0  0  0  0  0
    7.7732  -15.6197   18.5287 N   0  0  0  0  0  0  0  0  0  0  0  0
    7.6802  -15.1750   20.8914 C   0  0  0  0  0  0  0  0  0  0  0  0
    6.4360  -15.2031   20.9931 O   0  0  0  0  0  0  0  0  0  0  0  0
    9.7033  -17.1228   23.6929 O   0  0  0  0  0  0  0  0  0  0  0  0
    8.3123  -17.1423   23.7169 C   0  0  0  0  0  0  0  0  0  0  0  0
    7.8613  -15.7499   23.2696 C   0  0  2  0  0  0  0  0  0  0  0  0
    8.4852  -15.4991   22.0064 N   0  0  0  0  0  0  0  0  0  0  0  0
    8.3078  -14.7881   24.3207 C   0  0  0  0  0  0  0  0  0  0  0  0
    9.4818  -14.3408   24.3077 O   0  0  0  0  0  0  0  0  0  0  0  0
    7.4548  -14.3369   25.3656 N   0  0  0  0  0  0  0  0  0  0  0  0
    7.9494  -13.5022   26.4430 C   0  0  1  0  0  0  0  0  0  0  0  0
    6.7687  -12.8517   27.1756 C   0  0  0  0  0  0  0  0  0  0  0  0
    5.9452  -11.7810   25.9495 S   0  0  0  0  0  0  0  0  0  0  0  0
    8.6644  -14.3101   27.4709 C   0  0  0  0  0  0  0  0  0  0  0  0
    9.2969  -13.7680   28.5537 O   0  0  0  0  0  0  0  0  0  0  0  0
    8.6736  -15.5586   27.3134 O   0  0  0  0  0  0  0  0  0  0  0  0
  2  1  1  1
  2  3  1  0
  4  6  1  0
  4  2  1  0
  4  5  1  6
  6  7  2  0
  6 11  1  0
  9  8  1  0
 10  9  1  1
 10 12  1  0
 11 10  1  0
 12 13  2  0
 12 14  1  0
 14 15  1  0
 15 18  1  0
 15 16  1  1
 17 16  1  0
 18 19  1  0
 20 18  2  0
M  END
$$$$
