TSC.pdb
     RDKit          3D

 20 19  0  0  1  0  0  0  0  0999 V2000
   13.5577  -20.0905   17.5876 C   0  0  0  0  0  0  0  0  0  0  0  0
   12.8545  -19.3019   16.4883 C   0  0  1  0  0  0  0  0  0  0  0  0
   13.4503  -19.4926   15.2592 O   0  0  0  0  0  0  0  0  0  0  0  0
   11.3737  -19.5905   16.4727 C   0  0  2  0  0  0  0  0  0  0  0  0
   10.7029  -19.0319   15.3263 N   0  0  0  0  0  0  0  0  0  0  0  0
   10.8030  -19.0671   17.7300 C   0  0  0  0  0  0  0  0  0  0  0  0
   10.6428  -17.8352   17.8565 O   0  0  0  0  0  0  0  0  0  0  0  0
   10.3289  -21.5091   20.9132 O   0  0  0  0  0  0  0  0  0  0  0  0
    9.3440  -20.5319   20.8080 C   0  0  0  0  0  0  0  0  0  0  0  0
    9.9708  -19.3819   20.0163 C   0  0  2  0  0  0  0  0  0  0  0  0
   10.4391  -19.9362   18.7829 N   0  0  0  0  0  0  0  0  0  0  0  0
   11.0836  -18.8352   20.8482 C   0  0  0  0  0  0  0  0  0  0  0  0
   12.2665  -19.2031   20.6386 O   0  0  0  0  0  0  0  0  0  0  0  0
   10.8741  -17.8946   21.8943 N   0  0  0  0  0  0  0  0  0  0  0  0
   11.9765  -17.3703   22.6765 C   0  0  1  0  0  0  0  0  0  0  0  0
   11.4713  -16.2487   23.5935 C   0  0  0  0  0  0  0  0  0  0  0  0
   12.9426  -15.6080   24.4608 S   0  0  0  0  0  0  0  0  0  0  0  0
   12.5396  -18.4089   23.5847 C   0  0  0  0  0  0  0  0  0  0  0  0
   11.7820  -19.3578   24.2109 O   0  0  0  0  0  0  0  0  0  0  0  0
   13.7842  -18.3927   23.7711 O   0  0  0  0  0  0  0  0  0  0  0  0
  2  1  1  1
  2  3  1  0
  4  6  1  0
  4  2  1  0
  4  5  1  6
  6  7  2  0
  6 11  1  0
  9  8  1  0
 10  9  1  1
 10 12  1  0
 11 10  1  0
 12 13  2  0
 12 14  1  0
 14 15  1  0
 15 18  1  0
 15 16  1  1
 17 16  1  0
 18 19  1  0
 20 18  2  0
M  END
$$$$
