TSC.pdb
     RDKit          3D

 20 19  0  0  1  0  0  0  0  0999 V2000
    5.2590  -18.9793   18.8743 C   0  0  0  0  0  0  0  0  0  0  0  0
    6.3095  -18.4950   19.8678 C   0  0  1  0  0  0  0  0  0  0  0  0
    7.0238  -19.5427   20.4101 O   0  0  0  0  0  0  0  0  0  0  0  0
    7.1942  -17.4385   19.2535 C   0  0  2  0  0  0  0  0  0  0  0  0
    7.9402  -17.9187   18.1182 N   0  0  0  0  0  0  0  0  0  0  0  0
    8.0968  -16.9412   20.3112 C   0  0  0  0  0  0  0  0  0  0  0  0
    9.2718  -17.3616   20.3525 O   0  0  0  0  0  0  0  0  0  0  0  0
    6.7861  -14.5374   23.4004 O   0  0  0  0  0  0  0  0  0  0  0  0
    7.9917  -14.2068   22.7894 C   0  0  0  0  0  0  0  0  0  0  0  0
    8.5690  -15.5190   22.2536 C   0  0  2  0  0  0  0  0  0  0  0  0
    7.6505  -16.0032   21.2689 N   0  0  0  0  0  0  0  0  0  0  0  0
    8.6924  -16.4481   23.4159 C   0  0  0  0  0  0  0  0  0  0  0  0
    7.8394  -17.3535   23.5921 O   0  0  0  0  0  0  0  0  0  0  0  0
    9.7513  -16.3635   24.3617 N   0  0  0  0  0  0  0  0  0  0  0  0
   10.1835  -17.5188   25.1235 C   0  0  1  0  0  0  0  0  0  0  0  0
   10.7952  -18.5610   24.1782 C   0  0  0  0  0  0  0  0  0  0  0  0
   11.3295  -19.9471   25.2369 S   0  0  0  0  0  0  0  0  0  0  0  0
   11.2664  -17.1620   26.0830 C   0  0  0  0  0  0  0  0  0  0  0  0
   11.3119  -17.6095   27.3731 O   0  0  0  0  0  0  0  0  0  0  0  0
   12.1793  -16.4055   25.6608 O   0  0  0  0  0  0  0  0  0  0  0  0
  2  1  1  6
  2  3  1  0
  4  6  1  0
  4  2  1  0
  4  5  1  6
  6  7  2  0
  6 11  1  0
  9  8  1  0
 10  9  1  1
 10 12  1  0
 11 10  1  0
 12 13  2  0
 12 14  1  0
 14 15  1  0
 15 18  1  0
 15 16  1  6
 17 16  1  0
 18 19  1  0
 20 18  2  0
M  END
$$$$
