TSC.pdb
     RDKit          3D

 20 19  0  0  1  0  0  0  0  0999 V2000
    8.0408  -16.5344   18.1191 C   0  0  0  0  0  0  0  0  0  0  0  0
    8.4939  -15.1693   17.6131 C   0  0  1  0  0  0  0  0  0  0  0  0
    8.2765  -15.0265   16.2587 O   0  0  0  0  0  0  0  0  0  0  0  0
    7.8805  -14.0558   18.4255 C   0  0  2  0  0  0  0  0  0  0  0  0
    8.0158  -12.7636   17.8028 N   0  0  0  0  0  0  0  0  0  0  0  0
    8.5157  -14.0729   19.7585 C   0  0  0  0  0  0  0  0  0  0  0  0
    9.6678  -13.6088   19.8870 O   0  0  0  0  0  0  0  0  0  0  0  0
    6.6225  -15.8500   22.7794 O   0  0  0  0  0  0  0  0  0  0  0  0
    7.3985  -14.7787   23.2108 C   0  0  0  0  0  0  0  0  0  0  0  0
    8.4916  -14.5952   22.1554 C   0  0  2  0  0  0  0  0  0  0  0  0
    7.8412  -14.6037   20.8808 N   0  0  0  0  0  0  0  0  0  0  0  0
    9.4438  -15.7347   22.3110 C   0  0  0  0  0  0  0  0  0  0  0  0
    9.2831  -16.7860   21.6420 O   0  0  0  0  0  0  0  0  0  0  0  0
   10.5542  -15.6960   23.1990 N   0  0  0  0  0  0  0  0  0  0  0  0
   11.4355  -16.8354   23.3633 C   0  0  1  0  0  0  0  0  0  0  0  0
   12.8952  -16.3826   23.2287 C   0  0  0  0  0  0  0  0  0  0  0  0
   13.0833  -15.7977   21.5111 S   0  0  0  0  0  0  0  0  0  0  0  0
   11.3199  -17.4182   24.7298 C   0  0  0  0  0  0  0  0  0  0  0  0
   12.0177  -18.5168   25.1454 O   0  0  0  0  0  0  0  0  0  0  0  0
   10.5302  -16.8514   25.5292 O   0  0  0  0  0  0  0  0  0  0  0  0
  2  1  1  1
  2  3  1  0
  4  6  1  0
  4  2  1  0
  4  5  1  6
  6  7  2  0
  6 11  1  0
  9  8  1  0
 10  9  1  1
 10 12  1  0
 11 10  1  0
 12 13  2  0
 12 14  1  0
 14 15  1  0
 15 18  1  0
 15 16  1  1
 17 16  1  0
 18 19  1  0
 20 18  2  0
M  END
$$$$
