TSC.pdb
     RDKit          3D

 20 19  0  0  1  0  0  0  0  0999 V2000
   12.5996  -20.8966   16.6532 C   0  0  0  0  0  0  0  0  0  0  0  0
   12.5633  -19.9236   15.4798 C   0  0  1  0  0  0  0  0  0  0  0  0
   13.1543  -20.4565   14.3534 O   0  0  0  0  0  0  0  0  0  0  0  0
   11.1613  -19.4272   15.2267 C   0  0  2  0  0  0  0  0  0  0  0  0
   11.0396  -18.6851   13.9977 N   0  0  0  0  0  0  0  0  0  0  0  0
   10.7621  -18.6047   16.3863 C   0  0  0  0  0  0  0  0  0  0  0  0
   11.1739  -17.4286   16.4658 O   0  0  0  0  0  0  0  0  0  0  0  0
    8.5824  -20.2848   19.2785 O   0  0  0  0  0  0  0  0  0  0  0  0
    8.3965  -18.9078   19.2054 C   0  0  0  0  0  0  0  0  0  0  0  0
    9.6665  -18.3421   18.5657 C   0  0  2  0  0  0  0  0  0  0  0  0
    9.9269  -19.1282   17.3986 N   0  0  0  0  0  0  0  0  0  0  0  0
   10.7556  -18.4597   19.5801 C   0  0  0  0  0  0  0  0  0  0  0  0
   11.5453  -19.4364   19.5465 O   0  0  0  0  0  0  0  0  0  0  0  0
   10.9553  -17.5012   20.6119 N   0  0  0  0  0  0  0  0  0  0  0  0
   11.9419  -17.7023   21.6550 C   0  0  1  0  0  0  0  0  0  0  0  0
   12.0977  -16.4139   22.4733 C   0  0  0  0  0  0  0  0  0  0  0  0
   13.4161  -16.7475   23.6891 S   0  0  0  0  0  0  0  0  0  0  0  0
   11.5012  -18.7439   22.6252 C   0  0  0  0  0  0  0  0  0  0  0  0
   12.3634  -19.5471   23.3165 O   0  0  0  0  0  0  0  0  0  0  0  0
   10.2620  -18.8738   22.8024 O   0  0  0  0  0  0  0  0  0  0  0  0
  2  1  1  1
  2  3  1  0
  4  6  1  0
  4  2  1  0
  4  5  1  6
  6  7  2  0
  6 11  1  0
  9  8  1  0
 10  9  1  1
 10 12  1  0
 11 10  1  0
 12 13  2  0
 12 14  1  0
 14 15  1  0
 15 18  1  0
 15 16  1  1
 17 16  1  0
 18 19  1  0
 20 18  2  0
M  END
$$$$
