TSC.pdb
     RDKit          3D

 20 19  0  0  1  0  0  0  0  0999 V2000
    8.2525  -16.8278   17.6805 C   0  0  0  0  0  0  0  0  0  0  0  0
    8.6654  -15.4906   17.0753 C   0  0  1  0  0  0  0  0  0  0  0  0
    8.4806  -15.4673   15.7088 O   0  0  0  0  0  0  0  0  0  0  0  0
    7.9858  -14.3414   17.7780 C   0  0  2  0  0  0  0  0  0  0  0  0
    8.1271  -13.0900   17.0778 N   0  0  0  0  0  0  0  0  0  0  0  0
    8.5486  -14.2549   19.1404 C   0  0  0  0  0  0  0  0  0  0  0  0
    9.6697  -13.7289   19.3011 O   0  0  0  0  0  0  0  0  0  0  0  0
    6.4452  -15.7007   22.2283 O   0  0  0  0  0  0  0  0  0  0  0  0
    7.2323  -14.5991   22.5491 C   0  0  0  0  0  0  0  0  0  0  0  0
    8.4027  -14.6131   21.5631 C   0  0  2  0  0  0  0  0  0  0  0  0
    7.8398  -14.7560   20.2552 N   0  0  0  0  0  0  0  0  0  0  0  0
    9.2713  -15.7696   21.9334 C   0  0  0  0  0  0  0  0  0  0  0  0
    9.0763  -16.8962   21.4127 O   0  0  0  0  0  0  0  0  0  0  0  0
   10.3375  -15.6648   22.8691 N   0  0  0  0  0  0  0  0  0  0  0  0
   11.1107  -16.8230   23.2725 C   0  0  1  0  0  0  0  0  0  0  0  0
   12.5572  -16.4022   23.5630 C   0  0  0  0  0  0  0  0  0  0  0  0
   13.2238  -15.7733   21.9857 S   0  0  0  0  0  0  0  0  0  0  0  0
   10.5970  -17.4016   24.5460 C   0  0  0  0  0  0  0  0  0  0  0  0
   11.0415  -18.5802   25.0750 O   0  0  0  0  0  0  0  0  0  0  0  0
    9.7047  -16.7524   25.1511 O   0  0  0  0  0  0  0  0  0  0  0  0
  2  1  1  1
  2  3  1  0
  4  6  1  0
  4  2  1  0
  4  5  1  6
  6  7  2  0
  6 11  1  0
  9  8  1  0
 10  9  1  1
 10 12  1  0
 11 10  1  0
 12 13  2  0
 12 14  1  0
 14 15  1  0
 15 18  1  0
 15 16  1  1
 17 16  1  0
 18 19  1  0
 20 18  2  0
M  END
$$$$
