TSC.pdb
     RDKit          3D

 20 19  0  0  1  0  0  0  0  0999 V2000
   10.4496  -18.0098   14.2588 C   0  0  0  0  0  0  0  0  0  0  0  0
   11.5273  -17.5305   15.2251 C   0  0  1  0  0  0  0  0  0  0  0  0
   12.4344  -16.6948   14.6080 O   0  0  0  0  0  0  0  0  0  0  0  0
   10.9172  -16.9210   16.4630 C   0  0  2  0  0  0  0  0  0  0  0  0
   10.2011  -15.6996   16.1954 N   0  0  0  0  0  0  0  0  0  0  0  0
   12.0067  -16.6967   17.4343 C   0  0  0  0  0  0  0  0  0  0  0  0
   12.7245  -17.6605   17.7734 O   0  0  0  0  0  0  0  0  0  0  0  0
   15.1201  -13.7637   19.3039 O   0  0  0  0  0  0  0  0  0  0  0  0
   14.0124  -13.9030   18.4735 C   0  0  0  0  0  0  0  0  0  0  0  0
   13.3532  -15.2276   18.8652 C   0  0  2  0  0  0  0  0  0  0  0  0
   12.2447  -15.4153   17.9799 N   0  0  0  0  0  0  0  0  0  0  0  0
   12.9230  -15.0966   20.2888 C   0  0  0  0  0  0  0  0  0  0  0  0
   12.0513  -14.2500   20.6083 O   0  0  0  0  0  0  0  0  0  0  0  0
   13.4594  -15.8990   21.3335 N   0  0  0  0  0  0  0  0  0  0  0  0
   12.9974  -15.7729   22.7020 C   0  0  1  0  0  0  0  0  0  0  0  0
   11.6933  -16.5611   22.8811 C   0  0  0  0  0  0  0  0  0  0  0  0
   11.2355  -16.3820   24.6378 S   0  0  0  0  0  0  0  0  0  0  0  0
   13.9665  -16.3763   23.6597 C   0  0  0  0  0  0  0  0  0  0  0  0
   15.0562  -17.1050   23.2751 O   0  0  0  0  0  0  0  0  0  0  0  0
   13.7500  -16.1922   24.8857 O   0  0  0  0  0  0  0  0  0  0  0  0
  2  1  1  6
  2  3  1  0
  4  6  1  0
  4  2  1  0
  4  5  1  6
  6  7  2  0
  6 11  1  0
  9  8  1  0
 10  9  1  6
 10 12  1  0
 11 10  1  0
 12 13  2  0
 12 14  1  0
 14 15  1  0
 15 18  1  0
 15 16  1  6
 17 16  1  0
 18 19  1  0
 20 18  2  0
M  END
$$$$
