TSC.pdb
     RDKit          3D

 20 19  0  0  1  0  0  0  0  0999 V2000
   13.4913  -16.4106   21.8209 C   0  0  0  0  0  0  0  0  0  0  0  0
   13.1269  -15.3608   20.7769 C   0  0  1  0  0  0  0  0  0  0  0  0
   14.0402  -15.3261   19.7441 O   0  0  0  0  0  0  0  0  0  0  0  0
   11.7073  -15.5384   20.2979 C   0  0  2  0  0  0  0  0  0  0  0  0
   11.3685  -14.6645   19.2036 N   0  0  0  0  0  0  0  0  0  0  0  0
   10.8147  -15.3150   21.4528 C   0  0  0  0  0  0  0  0  0  0  0  0
   10.4985  -14.1461   21.7575 O   0  0  0  0  0  0  0  0  0  0  0  0
    9.4504  -18.4544   23.6188 O   0  0  0  0  0  0  0  0  0  0  0  0
    8.5704  -17.3846   23.4874 C   0  0  0  0  0  0  0  0  0  0  0  0
    9.4415  -16.1385   23.3116 C   0  0  2  0  0  0  0  0  0  0  0  0
   10.3182  -16.3990   22.2110 N   0  0  0  0  0  0  0  0  0  0  0  0
   10.1850  -15.9419   24.5913 C   0  0  0  0  0  0  0  0  0  0  0  0
   11.3165  -16.4646   24.7495 O   0  0  0  0  0  0  0  0  0  0  0  0
    9.6698  -15.1743   25.6723 N   0  0  0  0  0  0  0  0  0  0  0  0
   10.4249  -14.9817   26.8949 C   0  0  1  0  0  0  0  0  0  0  0  0
    9.7226  -13.9411   27.7768 C   0  0  0  0  0  0  0  0  0  0  0  0
   10.7992  -13.7060   29.2305 S   0  0  0  0  0  0  0  0  0  0  0  0
   10.4713  -16.2306   27.7065 C   0  0  0  0  0  0  0  0  0  0  0  0
   11.5637  -16.6254   28.4258 O   0  0  0  0  0  0  0  0  0  0  0  0
    9.4362  -16.9464   27.7157 O   0  0  0  0  0  0  0  0  0  0  0  0
  2  1  1  1
  2  3  1  0
  4  6  1  0
  4  2  1  0
  4  5  1  6
  6  7  2  0
  6 11  1  0
  9  8  1  0
 10  9  1  1
 10 12  1  0
 11 10  1  0
 12 13  2  0
 12 14  1  0
 14 15  1  0
 15 18  1  0
 15 16  1  1
 17 16  1  0
 18 19  1  0
 20 18  2  0
M  END
$$$$
