TSC.pdb
     RDKit          3D

 20 19  0  0  1  0  0  0  0  0999 V2000
    9.8850  -16.2764   18.9993 C   0  0  0  0  0  0  0  0  0  0  0  0
    9.3708  -15.7280   20.3259 C   0  0  1  0  0  0  0  0  0  0  0  0
    9.5590  -14.3654   20.4249 O   0  0  0  0  0  0  0  0  0  0  0  0
    7.9401  -16.1410   20.5683 C   0  0  2  0  0  0  0  0  0  0  0  0
    7.0217  -15.5799   19.6103 N   0  0  0  0  0  0  0  0  0  0  0  0
    7.5855  -15.7380   21.9440 C   0  0  0  0  0  0  0  0  0  0  0  0
    6.9611  -14.6713   22.1214 O   0  0  0  0  0  0  0  0  0  0  0  0
    8.0625  -18.2880   25.0810 O   0  0  0  0  0  0  0  0  0  0  0  0
    7.0235  -17.3626   25.0858 C   0  0  0  0  0  0  0  0  0  0  0  0
    7.5580  -16.1217   24.3670 C   0  0  2  0  0  0  0  0  0  0  0  0
    7.9414  -16.5382   23.0527 N   0  0  0  0  0  0  0  0  0  0  0  0
    8.7190  -15.6230   25.1623 C   0  0  0  0  0  0  0  0  0  0  0  0
    9.8923  -15.8767   24.7915 O   0  0  0  0  0  0  0  0  0  0  0  0
    8.5673  -14.8551   26.3500 N   0  0  0  0  0  0  0  0  0  0  0  0
    9.7138  -14.3980   27.1106 C   0  0  1  0  0  0  0  0  0  0  0  0
    9.3333  -13.1502   27.9181 C   0  0  0  0  0  0  0  0  0  0  0  0
    7.8399  -12.4716   27.1200 S   0  0  0  0  0  0  0  0  0  0  0  0
   10.1380  -15.4131   28.1156 C   0  0  0  0  0  0  0  0  0  0  0  0
   11.2524  -15.2859   28.8956 O   0  0  0  0  0  0  0  0  0  0  0  0
    9.4154  -16.4364   28.2361 O   0  0  0  0  0  0  0  0  0  0  0  0
  2  1  1  6
  2  3  1  0
  4  6  1  0
  4  2  1  0
  4  5  1  6
  6  7  2  0
  6 11  1  0
  9  8  1  0
 10  9  1  1
 10 12  1  0
 11 10  1  0
 12 13  2  0
 12 14  1  0
 14 15  1  0
 15 18  1  0
 15 16  1  1
 17 16  1  0
 18 19  1  0
 20 18  2  0
M  END
$$$$
