TSC.pdb
     RDKit          3D

 20 19  0  0  1  0  0  0  0  0999 V2000
    6.8942  -16.9564   13.4421 C   0  0  0  0  0  0  0  0  0  0  0  0
    7.6833  -16.4837   14.6582 C   0  0  1  0  0  0  0  0  0  0  0  0
    8.5127  -17.4712   15.1468 O   0  0  0  0  0  0  0  0  0  0  0  0
    8.4137  -15.1961   14.3669 C   0  0  2  0  0  0  0  0  0  0  0  0
    9.4620  -15.3515   13.3907 N   0  0  0  0  0  0  0  0  0  0  0  0
    8.9489  -14.6868   15.6455 C   0  0  0  0  0  0  0  0  0  0  0  0
   10.1469  -14.8971   15.9279 O   0  0  0  0  0  0  0  0  0  0  0  0
    8.1316  -12.2596   19.6774 O   0  0  0  0  0  0  0  0  0  0  0  0
    7.5477  -12.8411   18.5562 C   0  0  0  0  0  0  0  0  0  0  0  0
    8.6915  -13.4832   17.7677 C   0  0  2  0  0  0  0  0  0  0  0  0
    8.1287  -13.9704   16.5456 N   0  0  0  0  0  0  0  0  0  0  0  0
    9.2412  -14.5834   18.6142 C   0  0  0  0  0  0  0  0  0  0  0  0
    8.6138  -15.6662   18.7257 O   0  0  0  0  0  0  0  0  0  0  0  0
   10.4701  -14.4716   19.3217 N   0  0  0  0  0  0  0  0  0  0  0  0
   11.0150  -15.5822   20.0778 C   0  0  1  0  0  0  0  0  0  0  0  0
   12.5198  -15.7037   19.8045 C   0  0  0  0  0  0  0  0  0  0  0  0
   13.2104  -14.0324   20.0445 S   0  0  0  0  0  0  0  0  0  0  0  0
   10.8902  -15.3530   21.5449 C   0  0  0  0  0  0  0  0  0  0  0  0
   11.2223  -16.2848   22.4872 O   0  0  0  0  0  0  0  0  0  0  0  0
   10.4526  -14.2323   21.9142 O   0  0  0  0  0  0  0  0  0  0  0  0
  2  1  1  6
  2  3  1  0
  4  6  1  0
  4  2  1  0
  4  5  1  6
  6  7  2  0
  6 11  1  0
  9  8  1  0
 10  9  1  1
 10 12  1  0
 11 10  1  0
 12 13  2  0
 12 14  1  0
 14 15  1  0
 15 18  1  0
 15 16  1  1
 17 16  1  0
 18 19  1  0
 20 18  2  0
M  END
$$$$
