TSC.pdb
     RDKit          3D

 20 19  0  0  1  0  0  0  0  0999 V2000
   10.3265  -19.2819   17.5268 C   0  0  0  0  0  0  0  0  0  0  0  0
    8.8035  -19.2416   17.4656 C   0  0  1  0  0  0  0  0  0  0  0  0
    8.2306  -19.7690   18.6039 O   0  0  0  0  0  0  0  0  0  0  0  0
    8.3073  -17.8523   17.1497 C   0  0  2  0  0  0  0  0  0  0  0  0
    8.7940  -17.3535   15.8886 N   0  0  0  0  0  0  0  0  0  0  0  0
    8.7114  -16.9696   18.2624 C   0  0  0  0  0  0  0  0  0  0  0  0
    9.9121  -16.6457   18.3740 O   0  0  0  0  0  0  0  0  0  0  0  0
    6.0998  -16.1120   21.1698 O   0  0  0  0  0  0  0  0  0  0  0  0
    6.9394  -15.0389   20.8879 C   0  0  0  0  0  0  0  0  0  0  0  0
    8.1988  -15.6399   20.2594 C   0  0  2  0  0  0  0  0  0  0  0  0
    7.7636  -16.4911   19.1946 N   0  0  0  0  0  0  0  0  0  0  0  0
    8.9043  -16.3975   21.3353 C   0  0  0  0  0  0  0  0  0  0  0  0
    8.6839  -17.6247   21.4902 O   0  0  0  0  0  0  0  0  0  0  0  0
    9.8385  -15.7910   22.2199 N   0  0  0  0  0  0  0  0  0  0  0  0
   10.4330  -16.5273   23.3183 C   0  0  1  0  0  0  0  0  0  0  0  0
   11.2708  -15.5767   24.1834 C   0  0  0  0  0  0  0  0  0  0  0  0
   12.0798  -16.6226   25.4400 S   0  0  0  0  0  0  0  0  0  0  0  0
    9.3904  -17.0833   24.2262 C   0  0  0  0  0  0  0  0  0  0  0  0
    8.2589  -16.4060   24.5834 O   0  0  0  0  0  0  0  0  0  0  0  0
    9.5828  -18.2423   24.6773 O   0  0  0  0  0  0  0  0  0  0  0  0
  2  1  1  1
  2  3  1  0
  4  6  1  0
  4  2  1  0
  4  5  1  6
  6  7  2  0
  6 11  1  0
  9  8  1  0
 10  9  1  1
 10 12  1  0
 11 10  1  0
 12 13  2  0
 12 14  1  0
 14 15  1  0
 15 18  1  0
 15 16  1  1
 17 16  1  0
 18 19  1  0
 20 18  2  0
M  END
$$$$
