TSC.pdb
     RDKit          3D

 20 19  0  0  1  0  0  0  0  0999 V2000
    6.8231  -18.8255   23.9057 C   0  0  0  0  0  0  0  0  0  0  0  0
    8.1976  -19.3963   23.5741 C   0  0  1  0  0  0  0  0  0  0  0  0
    8.1911  -20.7754   23.5632 O   0  0  0  0  0  0  0  0  0  0  0  0
    8.7407  -18.8029   22.2977 C   0  0  2  0  0  0  0  0  0  0  0  0
    9.9443  -19.4512   21.8425 N   0  0  0  0  0  0  0  0  0  0  0  0
    8.9694  -17.3636   22.5359 C   0  0  0  0  0  0  0  0  0  0  0  0
   10.0365  -17.0000   23.0729 O   0  0  0  0  0  0  0  0  0  0  0  0
    6.1647  -14.8105   21.4153 O   0  0  0  0  0  0  0  0  0  0  0  0
    7.4254  -14.2217   21.4100 C   0  0  0  0  0  0  0  0  0  0  0  0
    8.2682  -15.0160   22.4105 C   0  0  2  0  0  0  0  0  0  0  0  0
    8.0034  -16.4009   22.1665 N   0  0  0  0  0  0  0  0  0  0  0  0
    7.8395  -14.5912   23.7761 C   0  0  0  0  0  0  0  0  0  0  0  0
    6.9326  -15.2205   24.3761 O   0  0  0  0  0  0  0  0  0  0  0  0
    8.4164  -13.4827   24.4555 N   0  0  0  0  0  0  0  0  0  0  0  0
    7.9598  -13.0761   25.7702 C   0  0  1  0  0  0  0  0  0  0  0  0
    6.4445  -12.8375   25.7393 C   0  0  0  0  0  0  0  0  0  0  0  0
    6.0994  -11.6291   27.0615 S   0  0  0  0  0  0  0  0  0  0  0  0
    8.1766  -14.1531   26.7770 C   0  0  0  0  0  0  0  0  0  0  0  0
    8.4920  -15.4417   26.4504 O   0  0  0  0  0  0  0  0  0  0  0  0
    8.0576  -13.8363   27.9891 O   0  0  0  0  0  0  0  0  0  0  0  0
  2  1  1  6
  2  3  1  0
  4  6  1  0
  4  2  1  0
  4  5  1  1
  6  7  2  0
  6 11  1  0
  9  8  1  0
 10  9  1  6
 10 12  1  0
 11 10  1  0
 12 13  2  0
 12 14  1  0
 14 15  1  0
 15 18  1  0
 15 16  1  6
 17 16  1  0
 18 19  1  0
 20 18  2  0
M  END
$$$$
