TSC.pdb
     RDKit          3D

 20 19  0  0  1  0  0  0  0  0999 V2000
   10.9857  -15.2166   20.3400 C   0  0  0  0  0  0  0  0  0  0  0  0
   10.3769  -13.9526   19.7426 C   0  0  1  0  0  0  0  0  0  0  0  0
   10.9182  -13.6562   18.5093 O   0  0  0  0  0  0  0  0  0  0  0  0
    8.8706  -14.0328   19.7173 C   0  0  2  0  0  0  0  0  0  0  0  0
    8.2611  -12.9522   18.9844 N   0  0  0  0  0  0  0  0  0  0  0  0
    8.4007  -14.0576   21.1170 C   0  0  0  0  0  0  0  0  0  0  0  0
    8.3484  -12.9873   21.7580 O   0  0  0  0  0  0  0  0  0  0  0  0
    7.6778  -17.5628   23.0262 O   0  0  0  0  0  0  0  0  0  0  0  0
    6.7454  -16.5608   23.2764 C   0  0  0  0  0  0  0  0  0  0  0  0
    7.4801  -15.2354   23.0623 C   0  0  2  0  0  0  0  0  0  0  0  0
    8.0128  -15.2677   21.7345 N   0  0  0  0  0  0  0  0  0  0  0  0
    8.5518  -15.1582   24.0989 C   0  0  0  0  0  0  0  0  0  0  0  0
    9.7322  -15.4774   23.8099 O   0  0  0  0  0  0  0  0  0  0  0  0
    8.3049  -14.7317   25.4331 N   0  0  0  0  0  0  0  0  0  0  0  0
    9.3650  -14.6733   26.4204 C   0  0  1  0  0  0  0  0  0  0  0  0
    8.9875  -13.6775   27.5249 C   0  0  0  0  0  0  0  0  0  0  0  0
   10.4121  -13.6259   28.6631 S   0  0  0  0  0  0  0  0  0  0  0  0
    9.5417  -15.9849   27.1052 C   0  0  0  0  0  0  0  0  0  0  0  0
   10.7578  -16.4922   27.4662 O   0  0  0  0  0  0  0  0  0  0  0  0
    8.5000  -16.6453   27.3552 O   0  0  0  0  0  0  0  0  0  0  0  0
  2  1  1  6
  2  3  1  0
  4  6  1  0
  4  2  1  0
  4  5  1  6
  6  7  2  0
  6 11  1  0
  9  8  1  0
 10  9  1  1
 10 12  1  0
 11 10  1  0
 12 13  2  0
 12 14  1  0
 14 15  1  0
 15 18  1  0
 15 16  1  1
 17 16  1  0
 18 19  1  0
 20 18  2  0
M  END
$$$$
