DQP.pdb
     RDKit          3D

 25 25  0  0  1  0  0  0  0  0999 V2000
    6.6916  -15.7583   19.3782 N   0  0  0  0  0  0  0  0  0  0  0  0
    7.6376  -15.1397   20.2847 C   0  0  1  0  0  0  0  0  0  0  0  0
    7.8568  -13.7248   19.7923 C   0  0  0  0  0  0  0  0  0  0  0  0
    8.7346  -13.8003   18.5966 C   0  0  0  0  0  0  0  0  0  0  0  0
    8.3075  -13.6446   17.4458 O   0  0  0  0  0  0  0  0  0  0  0  0
    7.1153  -15.1678   21.6676 C   0  0  0  0  0  0  0  0  0  0  0  0
    6.0734  -14.5642   22.0169 O   0  0  0  0  0  0  0  0  0  0  0  0
   10.0908  -14.0550   18.7584 O   0  0  0  0  0  0  0  0  0  0  0  0
    8.0300  -19.4056   25.6297 N   0  0  0  0  0  0  0  0  0  0  0  0
    7.2067  -18.6200   26.4663 C   0  0  0  0  0  0  0  0  0  0  0  0
    7.0409  -18.9532   27.6538 O   0  0  0  0  0  0  0  0  0  0  0  0
    6.5401  -17.4046   25.9426 C   0  0  0  0  0  0  0  0  0  0  0  0
    6.8971  -17.2321   24.5110 C   0  0  0  0  0  0  0  0  0  0  0  0
    7.3750  -15.8931   24.0881 C   0  0  2  0  0  0  0  0  0  0  0  0
    7.7885  -15.9059   22.7134 N   0  0  0  0  0  0  0  0  0  0  0  0
    8.1975  -15.1566   25.0319 C   0  0  0  0  0  0  0  0  0  0  0  0
    9.4700  -15.3396   24.9170 O   0  0  0  0  0  0  0  0  0  0  0  0
    7.7995  -14.2912   26.0394 N   0  0  0  0  0  0  0  0  0  0  0  0
    6.4829  -13.9514   26.5087 C   0  0  0  0  0  0  0  0  0  0  0  0
    6.5669  -12.4516   26.6915 C   0  0  0  0  0  0  0  0  0  0  0  0
    7.9498  -12.2844   27.2840 C   0  0  0  0  0  0  0  0  0  0  0  0
    8.6809  -13.5513   26.9821 C   0  0  1  0  0  0  0  0  0  0  0  0
    8.8514  -14.3549   28.2245 C   0  0  0  0  0  0  0  0  0  0  0  0
    8.1757  -15.5470   28.4289 O   0  0  0  0  0  0  0  0  0  0  0  0
    9.6242  -13.9802   29.1493 O   0  0  0  0  0  0  0  0  0  0  0  0
  2  1  1  6
  2  3  1  0
  4  8  1  0
  4  3  1  0
  5  4  2  0
  6  2  1  0
  6 15  1  0
  7  6  2  0
  9 10  1  0
 10 11  2  0
 12 13  1  0
 12 10  1  0
 14 16  1  0
 14 13  1  1
 14 15  1  0
 16 18  1  0
 17 16  2  0
 18 22  1  0
 18 19  1  0
 19 20  1  0
 20 21  1  0
 22 21  1  0
 22 23  1  1
 24 23  1  0
 25 23  2  0
M  END
$$$$
