DQP.pdb
     RDKit          3D

 25 25  0  0  1  0  0  0  0  0999 V2000
    8.2970  -16.5961   19.2979 N   0  0  0  0  0  0  0  0  0  0  0  0
    9.2117  -16.3171   20.3863 C   0  0  1  0  0  0  0  0  0  0  0  0
   10.2021  -15.2920   19.8758 C   0  0  0  0  0  0  0  0  0  0  0  0
   11.1787  -16.0066   19.0148 C   0  0  0  0  0  0  0  0  0  0  0  0
   11.7154  -17.0681   19.3555 O   0  0  0  0  0  0  0  0  0  0  0  0
    8.4688  -15.8262   21.5667 C   0  0  0  0  0  0  0  0  0  0  0  0
    7.7109  -14.8282   21.5305 O   0  0  0  0  0  0  0  0  0  0  0  0
   11.5141  -15.4766   17.7751 O   0  0  0  0  0  0  0  0  0  0  0  0
    6.1031  -19.4624   25.7647 N   0  0  0  0  0  0  0  0  0  0  0  0
    5.7008  -19.2072   24.4351 C   0  0  0  0  0  0  0  0  0  0  0  0
    4.8767  -19.9614   23.8868 O   0  0  0  0  0  0  0  0  0  0  0  0
    6.2508  -18.0509   23.6893 C   0  0  0  0  0  0  0  0  0  0  0  0
    7.1121  -17.2509   24.5975 C   0  0  0  0  0  0  0  0  0  0  0  0
    7.8228  -16.0895   24.0092 C   0  0  2  0  0  0  0  0  0  0  0  0
    8.5763  -16.4811   22.8517 N   0  0  0  0  0  0  0  0  0  0  0  0
    8.4442  -15.1574   24.9337 C   0  0  0  0  0  0  0  0  0  0  0  0
    9.7338  -15.1188   24.8969 O   0  0  0  0  0  0  0  0  0  0  0  0
    7.8398  -14.3113   25.8509 N   0  0  0  0  0  0  0  0  0  0  0  0
    6.4544  -14.1628   26.2083 C   0  0  0  0  0  0  0  0  0  0  0  0
    6.2872  -12.6611   26.2923 C   0  0  0  0  0  0  0  0  0  0  0  0
    7.5777  -12.2384   26.9613 C   0  0  0  0  0  0  0  0  0  0  0  0
    8.5198  -13.3855   26.7960 C   0  0  1  0  0  0  0  0  0  0  0  0
    8.7200  -14.0780   28.0994 C   0  0  0  0  0  0  0  0  0  0  0  0
    8.1824  -15.3281   28.3592 O   0  0  0  0  0  0  0  0  0  0  0  0
    9.3928  -13.5506   29.0279 O   0  0  0  0  0  0  0  0  0  0  0  0
  2  1  1  6
  2  3  1  0
  4  8  1  0
  4  3  1  0
  5  4  2  0
  6  2  1  0
  6 15  1  0
  7  6  2  0
  9 10  1  0
 10 11  2  0
 12 13  1  0
 12 10  1  0
 14 16  1  0
 14 13  1  1
 14 15  1  0
 16 18  1  0
 17 16  2  0
 18 22  1  0
 18 19  1  0
 19 20  1  0
 20 21  1  0
 22 21  1  0
 22 23  1  1
 24 23  1  0
 25 23  2  0
M  END
$$$$
