DQP.pdb
     RDKit          3D

 25 25  0  0  1  0  0  0  0  0999 V2000
    7.5050  -16.5357   19.6225 N   0  0  0  0  0  0  0  0  0  0  0  0
    7.8207  -15.1970   20.0777 C   0  0  1  0  0  0  0  0  0  0  0  0
    7.2957  -14.2409   19.0276 C   0  0  0  0  0  0  0  0  0  0  0  0
    8.2089  -14.3177   17.8589 C   0  0  0  0  0  0  0  0  0  0  0  0
    9.1418  -15.1279   17.7946 O   0  0  0  0  0  0  0  0  0  0  0  0
    7.2125  -14.9496   21.4024 C   0  0  0  0  0  0  0  0  0  0  0  0
    6.1376  -14.3224   21.5544 O   0  0  0  0  0  0  0  0  0  0  0  0
    8.0229  -13.4534   16.7871 O   0  0  0  0  0  0  0  0  0  0  0  0
    7.9167  -19.7191   24.4676 N   0  0  0  0  0  0  0  0  0  0  0  0
    6.8838  -18.7669   24.6134 C   0  0  0  0  0  0  0  0  0  0  0  0
    6.1216  -18.8321   25.5950 O   0  0  0  0  0  0  0  0  0  0  0  0
    6.7006  -17.6930   23.6089 C   0  0  0  0  0  0  0  0  0  0  0  0
    6.4364  -16.4104   24.3103 C   0  0  0  0  0  0  0  0  0  0  0  0
    7.2672  -15.2435   23.9249 C   0  0  2  0  0  0  0  0  0  0  0  0
    7.8339  -15.4256   22.6185 N   0  0  0  0  0  0  0  0  0  0  0  0
    8.1165  -14.6685   24.9533 C   0  0  0  0  0  0  0  0  0  0  0  0
    9.3852  -14.8230   24.7731 O   0  0  0  0  0  0  0  0  0  0  0  0
    7.7477  -13.9836   26.1011 N   0  0  0  0  0  0  0  0  0  0  0  0
    6.4530  -13.8009   26.7007 C   0  0  0  0  0  0  0  0  0  0  0  0
    6.4679  -12.3403   27.0961 C   0  0  0  0  0  0  0  0  0  0  0  0
    7.8798  -12.1697   27.6146 C   0  0  0  0  0  0  0  0  0  0  0  0
    8.6548  -13.3301   27.0823 C   0  0  1  0  0  0  0  0  0  0  0  0
    8.9613  -14.2900   28.1792 C   0  0  0  0  0  0  0  0  0  0  0  0
    9.9503  -14.0443   29.1178 O   0  0  0  0  0  0  0  0  0  0  0  0
    8.3279  -15.3750   28.2997 O   0  0  0  0  0  0  0  0  0  0  0  0
  2  1  1  6
  2  3  1  0
  4  8  1  0
  4  3  1  0
  5  4  2  0
  6  2  1  0
  6 15  1  0
  7  6  2  0
  9 10  1  0
 10 11  2  0
 12 13  1  0
 12 10  1  0
 14 16  1  0
 14 13  1  1
 14 15  1  0
 16 18  1  0
 17 16  2  0
 18 22  1  0
 18 19  1  0
 19 20  1  0
 20 21  1  0
 22 21  1  0
 22 23  1  1
 24 23  1  0
 25 23  2  0
M  END
$$$$
