DQP.pdb
     RDKit          3D

 25 25  0  0  1  0  0  0  0  0999 V2000
    8.7252  -18.5994   20.3842 N   0  0  0  0  0  0  0  0  0  0  0  0
    9.4930  -17.6437   21.1565 C   0  0  1  0  0  0  0  0  0  0  0  0
   10.0332  -16.6217   20.1786 C   0  0  0  0  0  0  0  0  0  0  0  0
   11.5012  -16.8265   20.0860 C   0  0  0  0  0  0  0  0  0  0  0  0
   12.0966  -17.6878   20.7453 O   0  0  0  0  0  0  0  0  0  0  0  0
    8.6417  -17.0202   22.1921 C   0  0  0  0  0  0  0  0  0  0  0  0
    7.6751  -16.2693   21.9209 O   0  0  0  0  0  0  0  0  0  0  0  0
   12.2508  -16.0286   19.2305 O   0  0  0  0  0  0  0  0  0  0  0  0
    6.9296  -19.5399   27.3575 N   0  0  0  0  0  0  0  0  0  0  0  0
    6.3337  -19.6275   26.0800 C   0  0  0  0  0  0  0  0  0  0  0  0
    5.5362  -20.5512   25.8357 O   0  0  0  0  0  0  0  0  0  0  0  0
    6.6495  -18.6305   25.0302 C   0  0  0  0  0  0  0  0  0  0  0  0
    7.5771  -17.6132   25.5884 C   0  0  0  0  0  0  0  0  0  0  0  0
    8.1290  -16.6095   24.6459 C   0  0  2  0  0  0  0  0  0  0  0  0
    8.8804  -17.2451   23.6007 N   0  0  0  0  0  0  0  0  0  0  0  0
    8.6726  -15.3917   25.2211 C   0  0  0  0  0  0  0  0  0  0  0  0
    9.9497  -15.2467   25.1038 O   0  0  0  0  0  0  0  0  0  0  0  0
    8.0063  -14.3710   25.8820 N   0  0  0  0  0  0  0  0  0  0  0  0
    6.6029  -14.1897   26.1401 C   0  0  0  0  0  0  0  0  0  0  0  0
    6.3941  -12.7191   25.8506 C   0  0  0  0  0  0  0  0  0  0  0  0
    7.6421  -12.1018   26.4449 C   0  0  0  0  0  0  0  0  0  0  0  0
    8.6193  -13.2207   26.5988 C   0  0  1  0  0  0  0  0  0  0  0  0
    8.7780  -13.5703   28.0379 C   0  0  0  0  0  0  0  0  0  0  0  0
    9.5183  -12.7870   28.9085 O   0  0  0  0  0  0  0  0  0  0  0  0
    8.2407  -14.6021   28.5273 O   0  0  0  0  0  0  0  0  0  0  0  0
  2  1  1  6
  2  3  1  0
  4  8  1  0
  4  3  1  0
  5  4  2  0
  6  2  1  0
  6 15  1  0
  7  6  2  0
  9 10  1  0
 10 11  2  0
 12 13  1  0
 12 10  1  0
 14 16  1  0
 14 13  1  1
 14 15  1  0
 16 18  1  0
 17 16  2  0
 18 22  1  0
 18 19  1  0
 19 20  1  0
 20 21  1  0
 22 21  1  0
 22 23  1  1
 24 23  1  0
 25 23  2  0
M  END
$$$$
