DQP.pdb
     RDKit          3D

 25 25  0  0  1  0  0  0  0  0999 V2000
    9.2263  -17.6318   20.6360 N   0  0  0  0  0  0  0  0  0  0  0  0
    9.2760  -16.1842   20.6719 C   0  0  1  0  0  0  0  0  0  0  0  0
    8.6971  -15.6923   19.3621 C   0  0  0  0  0  0  0  0  0  0  0  0
    9.6500  -16.0657   18.2859 C   0  0  0  0  0  0  0  0  0  0  0  0
   10.8450  -16.2993   18.5058 O   0  0  0  0  0  0  0  0  0  0  0  0
    8.5195  -15.6744   21.8354 C   0  0  0  0  0  0  0  0  0  0  0  0
    8.2916  -14.4558   22.0216 O   0  0  0  0  0  0  0  0  0  0  0  0
    9.1990  -16.1610   16.9753 O   0  0  0  0  0  0  0  0  0  0  0  0
    7.0604  -19.8343   26.6110 N   0  0  0  0  0  0  0  0  0  0  0  0
    6.4350  -19.5383   25.3797 C   0  0  0  0  0  0  0  0  0  0  0  0
    5.3409  -20.0633   25.1041 O   0  0  0  0  0  0  0  0  0  0  0  0
    7.0699  -18.6096   24.4151 C   0  0  0  0  0  0  0  0  0  0  0  0
    6.6600  -17.2185   24.7369 C   0  0  0  0  0  0  0  0  0  0  0  0
    7.4072  -16.1214   24.0750 C   0  0  2  0  0  0  0  0  0  0  0  0
    7.9906  -16.5684   22.8418 N   0  0  0  0  0  0  0  0  0  0  0  0
    8.2094  -15.2605   24.9264 C   0  0  0  0  0  0  0  0  0  0  0  0
    9.4870  -15.3966   24.8037 O   0  0  0  0  0  0  0  0  0  0  0  0
    7.7877  -14.3201   25.8539 N   0  0  0  0  0  0  0  0  0  0  0  0
    6.4638  -13.9910   26.3100 C   0  0  0  0  0  0  0  0  0  0  0  0
    6.4869  -12.4784   26.3488 C   0  0  0  0  0  0  0  0  0  0  0  0
    7.8687  -12.1995   26.9005 C   0  0  0  0  0  0  0  0  0  0  0  0
    8.6486  -13.4586   26.7081 C   0  0  1  0  0  0  0  0  0  0  0  0
    8.8678  -14.1328   28.0180 C   0  0  0  0  0  0  0  0  0  0  0  0
    9.8005  -13.6753   28.9346 O   0  0  0  0  0  0  0  0  0  0  0  0
    8.2079  -15.1563   28.3496 O   0  0  0  0  0  0  0  0  0  0  0  0
  2  1  1  6
  2  3  1  0
  4  8  1  0
  4  3  1  0
  5  4  2  0
  6  2  1  0
  6 15  1  0
  7  6  2  0
  9 10  1  0
 10 11  2  0
 12 13  1  0
 12 10  1  0
 14 16  1  0
 14 13  1  1
 14 15  1  0
 16 18  1  0
 17 16  2  0
 18 22  1  0
 18 19  1  0
 19 20  1  0
 20 21  1  0
 22 21  1  0
 22 23  1  1
 24 23  1  0
 25 23  2  0
M  END
$$$$
