DQP.pdb
     RDKit          3D

 25 25  0  0  1  0  0  0  0  0999 V2000
    6.3421  -16.8192   19.9088 N   0  0  0  0  0  0  0  0  0  0  0  0
    7.5112  -16.2765   20.5705 C   0  0  1  0  0  0  0  0  0  0  0  0
    7.9185  -15.0396   19.7980 C   0  0  0  0  0  0  0  0  0  0  0  0
    8.9775  -15.4427   18.8380 C   0  0  0  0  0  0  0  0  0  0  0  0
    8.7278  -16.0358   17.7812 O   0  0  0  0  0  0  0  0  0  0  0  0
    7.2030  -15.9679   21.9833 C   0  0  0  0  0  0  0  0  0  0  0  0
    6.3517  -15.1138   22.3262 O   0  0  0  0  0  0  0  0  0  0  0  0
   10.3057  -15.1504   19.1219 O   0  0  0  0  0  0  0  0  0  0  0  0
    7.5687  -20.1177   26.3928 N   0  0  0  0  0  0  0  0  0  0  0  0
    7.4133  -18.9966   27.2376 C   0  0  0  0  0  0  0  0  0  0  0  0
    7.3104  -19.1626   28.4667 O   0  0  0  0  0  0  0  0  0  0  0  0
    7.3720  -17.6269   26.6736 C   0  0  0  0  0  0  0  0  0  0  0  0
    7.5140  -17.7042   25.1969 C   0  0  0  0  0  0  0  0  0  0  0  0
    7.5789  -16.4218   24.4542 C   0  0  2  0  0  0  0  0  0  0  0  0
    7.8780  -16.6457   23.0680 N   0  0  0  0  0  0  0  0  0  0  0  0
    8.2383  -15.3086   25.1141 C   0  0  0  0  0  0  0  0  0  0  0  0
    9.4888  -15.1600   24.8314 O   0  0  0  0  0  0  0  0  0  0  0  0
    7.7073  -14.3914   26.0081 N   0  0  0  0  0  0  0  0  0  0  0  0
    6.3830  -14.2890   26.5604 C   0  0  0  0  0  0  0  0  0  0  0  0
    6.1026  -12.8036   26.4904 C   0  0  0  0  0  0  0  0  0  0  0  0
    7.4375  -12.2128   26.8910 C   0  0  0  0  0  0  0  0  0  0  0  0
    8.4389  -13.3069   26.7163 C   0  0  1  0  0  0  0  0  0  0  0  0
    8.8896  -13.8081   28.0445 C   0  0  0  0  0  0  0  0  0  0  0  0
    8.5259  -15.0566   28.5225 O   0  0  0  0  0  0  0  0  0  0  0  0
    9.6269  -13.1110   28.7950 O   0  0  0  0  0  0  0  0  0  0  0  0
  2  1  1  6
  2  3  1  0
  4  8  1  0
  4  3  1  0
  5  4  2  0
  6  2  1  0
  6 15  1  0
  7  6  2  0
  9 10  1  0
 10 11  2  0
 12 13  1  0
 12 10  1  0
 14 16  1  0
 14 13  1  1
 14 15  1  0
 16 18  1  0
 17 16  2  0
 18 22  1  0
 18 19  1  0
 19 20  1  0
 20 21  1  0
 22 21  1  0
 22 23  1  1
 24 23  1  0
 25 23  2  0
M  END
$$$$
