DQP.pdb
     RDKit          3D

 25 25  0  0  1  0  0  0  0  0999 V2000
   14.7950  -14.0583   18.2091 N   0  0  0  0  0  0  0  0  0  0  0  0
   13.8558  -15.1346   18.4512 C   0  0  1  0  0  0  0  0  0  0  0  0
   14.5594  -16.1404   19.3377 C   0  0  0  0  0  0  0  0  0  0  0  0
   15.5937  -16.8147   18.5123 C   0  0  0  0  0  0  0  0  0  0  0  0
   16.8027  -16.5859   18.6418 O   0  0  0  0  0  0  0  0  0  0  0  0
   12.6259  -14.6090   19.0816 C   0  0  0  0  0  0  0  0  0  0  0  0
   12.6379  -13.8931   20.1107 O   0  0  0  0  0  0  0  0  0  0  0  0
   15.2061  -17.7414   17.5524 O   0  0  0  0  0  0  0  0  0  0  0  0
    6.8295  -14.5506   16.5187 N   0  0  0  0  0  0  0  0  0  0  0  0
    7.9601  -13.7874   16.1525 C   0  0  0  0  0  0  0  0  0  0  0  0
    8.0526  -13.3427   14.9939 O   0  0  0  0  0  0  0  0  0  0  0  0
    9.0349  -13.5124   17.1348 C   0  0  0  0  0  0  0  0  0  0  0  0
    8.9626  -14.5147   18.2289 C   0  0  0  0  0  0  0  0  0  0  0  0
   10.0889  -14.5477   19.1935 C   0  0  2  0  0  0  0  0  0  0  0  0
   11.3172  -14.8962   18.5371 N   0  0  0  0  0  0  0  0  0  0  0  0
    9.8284  -15.1403   20.4937 C   0  0  0  0  0  0  0  0  0  0  0  0
   10.5976  -16.1252   20.8168 O   0  0  0  0  0  0  0  0  0  0  0  0
    8.8639  -14.7946   21.4278 N   0  0  0  0  0  0  0  0  0  0  0  0
    7.7540  -13.8852   21.3271 C   0  0  0  0  0  0  0  0  0  0  0  0
    7.7964  -13.1536   22.6510 C   0  0  0  0  0  0  0  0  0  0  0  0
    8.1328  -14.2702   23.6162 C   0  0  0  0  0  0  0  0  0  0  0  0
    8.6805  -15.3816   22.7824 C   0  0  1  0  0  0  0  0  0  0  0  0
    7.6968  -16.4971   22.7024 C   0  0  0  0  0  0  0  0  0  0  0  0
    7.5167  -17.3957   23.7413 O   0  0  0  0  0  0  0  0  0  0  0  0
    6.9814  -16.6710   21.6773 O   0  0  0  0  0  0  0  0  0  0  0  0
  2  1  1  1
  2  3  1  0
  4  8  1  0
  4  3  1  0
  5  4  2  0
  6  2  1  0
  6 15  1  0
  7  6  2  0
  9 10  1  0
 10 11  2  0
 12 13  1  0
 12 10  1  0
 14 16  1  0
 14 13  1  6
 14 15  1  0
 16 18  1  0
 17 16  2  0
 18 22  1  0
 18 19  1  0
 19 20  1  0
 20 21  1  0
 22 21  1  0
 22 23  1  6
 24 23  1  0
 25 23  2  0
M  END
$$$$
