DQP.pdb
     RDKit          3D

 25 25  0  0  1  0  0  0  0  0999 V2000
    7.0436  -15.5550   19.3086 N   0  0  0  0  0  0  0  0  0  0  0  0
    8.1593  -15.5626   20.2328 C   0  0  1  0  0  0  0  0  0  0  0  0
    9.1161  -14.4821   19.7751 C   0  0  0  0  0  0  0  0  0  0  0  0
    9.8497  -15.0074   18.5954 C   0  0  0  0  0  0  0  0  0  0  0  0
    9.8126  -14.4562   17.4883 O   0  0  0  0  0  0  0  0  0  0  0  0
    7.6829  -15.3291   21.6129 C   0  0  0  0  0  0  0  0  0  0  0  0
    6.9167  -14.3858   21.9207 O   0  0  0  0  0  0  0  0  0  0  0  0
   10.6123  -16.1618   18.7222 O   0  0  0  0  0  0  0  0  0  0  0  0
    5.3581  -20.3147   23.6015 N   0  0  0  0  0  0  0  0  0  0  0  0
    5.5611  -19.1727   24.4074 C   0  0  0  0  0  0  0  0  0  0  0  0
    5.4242  -19.2589   25.6413 O   0  0  0  0  0  0  0  0  0  0  0  0
    5.9349  -17.8753   23.7969 C   0  0  0  0  0  0  0  0  0  0  0  0
    7.0366  -17.2657   24.5853 C   0  0  0  0  0  0  0  0  0  0  0  0
    7.6363  -16.0158   24.0580 C   0  0  2  0  0  0  0  0  0  0  0  0
    8.0808  -16.1907   22.7042 N   0  0  0  0  0  0  0  0  0  0  0  0
    8.4947  -15.2643   24.9569 C   0  0  0  0  0  0  0  0  0  0  0  0
    9.7617  -15.4538   24.7992 O   0  0  0  0  0  0  0  0  0  0  0  0
    8.1362  -14.3785   25.9616 N   0  0  0  0  0  0  0  0  0  0  0  0
    6.8387  -13.9144   26.3742 C   0  0  0  0  0  0  0  0  0  0  0  0
    7.0637  -12.4337   26.5910 C   0  0  0  0  0  0  0  0  0  0  0  0
    8.4254  -12.4165   27.2522 C   0  0  0  0  0  0  0  0  0  0  0  0
    9.0396  -13.7461   26.9600 C   0  0  1  0  0  0  0  0  0  0  0  0
    9.0668  -14.5818   28.1926 C   0  0  0  0  0  0  0  0  0  0  0  0
    8.2223  -15.6663   28.3658 O   0  0  0  0  0  0  0  0  0  0  0  0
    9.8664  -14.3345   29.1374 O   0  0  0  0  0  0  0  0  0  0  0  0
  2  1  1  6
  2  3  1  0
  4  8  1  0
  4  3  1  0
  5  4  2  0
  6  2  1  0
  6 15  1  0
  7  6  2  0
  9 10  1  0
 10 11  2  0
 12 13  1  0
 12 10  1  0
 14 16  1  0
 14 13  1  1
 14 15  1  0
 16 18  1  0
 17 16  2  0
 18 22  1  0
 18 19  1  0
 19 20  1  0
 20 21  1  0
 22 21  1  0
 22 23  1  1
 24 23  1  0
 25 23  2  0
M  END
$$$$
