DQP.pdb
     RDKit          3D

 25 25  0  0  1  0  0  0  0  0999 V2000
    8.5010  -17.8494   20.8247 N   0  0  0  0  0  0  0  0  0  0  0  0
    8.4700  -16.4057   20.7070 C   0  0  1  0  0  0  0  0  0  0  0  0
    7.6981  -16.0844   19.4447 C   0  0  0  0  0  0  0  0  0  0  0  0
    8.5503  -16.4700   18.2911 C   0  0  0  0  0  0  0  0  0  0  0  0
    8.7266  -17.6484   17.9576 O   0  0  0  0  0  0  0  0  0  0  0  0
    7.8425  -15.8074   21.9046 C   0  0  0  0  0  0  0  0  0  0  0  0
    7.4848  -14.6072   21.9612 O   0  0  0  0  0  0  0  0  0  0  0  0
    9.1820  -15.4817   17.5465 O   0  0  0  0  0  0  0  0  0  0  0  0
    7.3408  -18.8857   26.7987 N   0  0  0  0  0  0  0  0  0  0  0  0
    6.8701  -19.3656   25.5566 C   0  0  0  0  0  0  0  0  0  0  0  0
    6.9235  -20.5838   25.3080 O   0  0  0  0  0  0  0  0  0  0  0  0
    6.3141  -18.4321   24.5489 C   0  0  0  0  0  0  0  0  0  0  0  0
    6.3440  -17.0512   25.0957 C   0  0  0  0  0  0  0  0  0  0  0  0
    7.0931  -16.0317   24.3214 C   0  0  2  0  0  0  0  0  0  0  0  0
    7.6019  -16.5866   23.0991 N   0  0  0  0  0  0  0  0  0  0  0  0
    7.9624  -15.1406   25.0696 C   0  0  0  0  0  0  0  0  0  0  0  0
    9.2211  -15.2436   24.8036 O   0  0  0  0  0  0  0  0  0  0  0  0
    7.6225  -14.2020   26.0319 N   0  0  0  0  0  0  0  0  0  0  0  0
    6.3639  -13.9470   26.6801 C   0  0  0  0  0  0  0  0  0  0  0  0
    6.2870  -12.4357   26.6844 C   0  0  0  0  0  0  0  0  0  0  0  0
    7.7140  -12.0497   27.0106 C   0  0  0  0  0  0  0  0  0  0  0  0
    8.5413  -13.2599   26.7255 C   0  0  1  0  0  0  0  0  0  0  0  0
    9.0043  -13.8777   27.9992 C   0  0  0  0  0  0  0  0  0  0  0  0
   10.0409  -13.3396   28.7444 O   0  0  0  0  0  0  0  0  0  0  0  0
    8.4674  -14.9248   28.4557 O   0  0  0  0  0  0  0  0  0  0  0  0
  2  1  1  1
  2  3  1  0
  4  8  1  0
  4  3  1  0
  5  4  2  0
  6  2  1  0
  6 15  1  0
  7  6  2  0
  9 10  1  0
 10 11  2  0
 12 13  1  0
 12 10  1  0
 14 16  1  0
 14 13  1  1
 14 15  1  0
 16 18  1  0
 17 16  2  0
 18 22  1  0
 18 19  1  0
 19 20  1  0
 20 21  1  0
 22 21  1  0
 22 23  1  1
 24 23  1  0
 25 23  2  0
M  END
$$$$
