DQP.pdb
     RDKit          3D

 25 25  0  0  1  0  0  0  0  0999 V2000
    8.0688  -16.2940   19.5636 N   0  0  0  0  0  0  0  0  0  0  0  0
    8.9660  -16.4396   20.6919 C   0  0  1  0  0  0  0  0  0  0  0  0
   10.1602  -15.5490   20.4210 C   0  0  0  0  0  0  0  0  0  0  0  0
   11.0043  -16.2320   19.4078 C   0  0  0  0  0  0  0  0  0  0  0  0
   11.0774  -15.8484   18.2337 O   0  0  0  0  0  0  0  0  0  0  0  0
    8.2757  -16.0703   21.9461 C   0  0  0  0  0  0  0  0  0  0  0  0
    7.7025  -14.9676   22.1115 O   0  0  0  0  0  0  0  0  0  0  0  0
   11.7476  -17.3467   19.7754 O   0  0  0  0  0  0  0  0  0  0  0  0
    7.2563  -20.0943   26.6089 N   0  0  0  0  0  0  0  0  0  0  0  0
    6.9284  -18.8988   27.2858 C   0  0  0  0  0  0  0  0  0  0  0  0
    6.5381  -18.9481   28.4664 O   0  0  0  0  0  0  0  0  0  0  0  0
    7.0451  -17.5889   26.6029 C   0  0  0  0  0  0  0  0  0  0  0  0
    7.4403  -17.8109   25.1882 C   0  0  0  0  0  0  0  0  0  0  0  0
    7.7165  -16.6085   24.3649 C   0  0  2  0  0  0  0  0  0  0  0  0
    8.2219  -16.9760   23.0724 N   0  0  0  0  0  0  0  0  0  0  0  0
    8.3360  -15.4777   25.0335 C   0  0  0  0  0  0  0  0  0  0  0  0
    9.6097  -15.3620   24.8594 O   0  0  0  0  0  0  0  0  0  0  0  0
    7.7453  -14.5132   25.8356 N   0  0  0  0  0  0  0  0  0  0  0  0
    6.3826  -14.3748   26.2748 C   0  0  0  0  0  0  0  0  0  0  0  0
    6.1237  -12.8931   26.1087 C   0  0  0  0  0  0  0  0  0  0  0  0
    7.4287  -12.2911   26.5844 C   0  0  0  0  0  0  0  0  0  0  0  0
    8.4296  -13.3989   26.5448 C   0  0  1  0  0  0  0  0  0  0  0  0
    8.7684  -13.8351   27.9280 C   0  0  0  0  0  0  0  0  0  0  0  0
    8.3571  -15.0564   28.4365 O   0  0  0  0  0  0  0  0  0  0  0  0
    9.4494  -13.1047   28.6998 O   0  0  0  0  0  0  0  0  0  0  0  0
  2  1  1  6
  2  3  1  0
  4  8  1  0
  4  3  1  0
  5  4  2  0
  6  2  1  0
  6 15  1  0
  7  6  2  0
  9 10  1  0
 10 11  2  0
 12 13  1  0
 12 10  1  0
 14 16  1  0
 14 13  1  1
 14 15  1  0
 16 18  1  0
 17 16  2  0
 18 22  1  0
 18 19  1  0
 19 20  1  0
 20 21  1  0
 22 21  1  0
 22 23  1  1
 24 23  1  0
 25 23  2  0
M  END
$$$$
