DQP.pdb
     RDKit          3D

 25 25  0  0  1  0  0  0  0  0999 V2000
    6.8110  -16.4423   19.6112 N   0  0  0  0  0  0  0  0  0  0  0  0
    7.5848  -15.4505   20.3300 C   0  0  1  0  0  0  0  0  0  0  0  0
    7.3800  -14.1314   19.6156 C   0  0  0  0  0  0  0  0  0  0  0  0
    8.1655  -14.1804   18.3561 C   0  0  0  0  0  0  0  0  0  0  0  0
    9.3105  -14.6462   18.3029 O   0  0  0  0  0  0  0  0  0  0  0  0
    7.1503  -15.3866   21.7418 C   0  0  0  0  0  0  0  0  0  0  0  0
    6.0899  -14.8254   22.1056 O   0  0  0  0  0  0  0  0  0  0  0  0
    7.6081  -13.6883   17.1825 O   0  0  0  0  0  0  0  0  0  0  0  0
    7.4383  -19.8100   25.6372 N   0  0  0  0  0  0  0  0  0  0  0  0
    7.0368  -18.8207   26.5618 C   0  0  0  0  0  0  0  0  0  0  0  0
    6.7536  -19.1484   27.7285 O   0  0  0  0  0  0  0  0  0  0  0  0
    6.9502  -17.3985   26.1548 C   0  0  0  0  0  0  0  0  0  0  0  0
    7.2832  -17.2840   24.7117 C   0  0  0  0  0  0  0  0  0  0  0  0
    7.5711  -15.9264   24.1881 C   0  0  2  0  0  0  0  0  0  0  0  0
    7.9377  -15.9780   22.8010 N   0  0  0  0  0  0  0  0  0  0  0  0
    8.3224  -15.0311   25.0504 C   0  0  0  0  0  0  0  0  0  0  0  0
    9.5905  -14.9730   24.8169 O   0  0  0  0  0  0  0  0  0  0  0  0
    7.8621  -14.2382   26.0905 N   0  0  0  0  0  0  0  0  0  0  0  0
    6.5499  -14.1324   26.6702 C   0  0  0  0  0  0  0  0  0  0  0  0
    6.3801  -12.6395   26.8498 C   0  0  0  0  0  0  0  0  0  0  0  0
    7.7557  -12.2219   27.3241 C   0  0  0  0  0  0  0  0  0  0  0  0
    8.6730  -13.3421   26.9578 C   0  0  1  0  0  0  0  0  0  0  0  0
    9.0872  -14.0875   28.1789 C   0  0  0  0  0  0  0  0  0  0  0  0
   10.0458  -13.5976   29.0510 O   0  0  0  0  0  0  0  0  0  0  0  0
    8.5782  -15.2047   28.4718 O   0  0  0  0  0  0  0  0  0  0  0  0
  2  1  1  6
  2  3  1  0
  4  8  1  0
  4  3  1  0
  5  4  2  0
  6  2  1  0
  6 15  1  0
  7  6  2  0
  9 10  1  0
 10 11  2  0
 12 13  1  0
 12 10  1  0
 14 16  1  0
 14 13  1  1
 14 15  1  0
 16 18  1  0
 17 16  2  0
 18 22  1  0
 18 19  1  0
 19 20  1  0
 20 21  1  0
 22 21  1  0
 22 23  1  1
 24 23  1  0
 25 23  2  0
M  END
$$$$
