DQP.pdb
     RDKit          3D

 25 25  0  0  1  0  0  0  0  0999 V2000
    8.8208  -18.6906   15.8016 N   0  0  0  0  0  0  0  0  0  0  0  0
    8.6775  -17.2604   15.6193 C   0  0  1  0  0  0  0  0  0  0  0  0
    7.7136  -17.0587   14.4692 C   0  0  0  0  0  0  0  0  0  0  0  0
    8.5150  -17.0105   13.2197 C   0  0  0  0  0  0  0  0  0  0  0  0
    9.1974  -17.9656   12.8288 O   0  0  0  0  0  0  0  0  0  0  0  0
    8.1891  -16.6317   16.8652 C   0  0  0  0  0  0  0  0  0  0  0  0
    8.0969  -15.3902   17.0134 O   0  0  0  0  0  0  0  0  0  0  0  0
    8.5097  -15.8555   12.4476 O   0  0  0  0  0  0  0  0  0  0  0  0
    5.8690  -19.8943   21.6788 N   0  0  0  0  0  0  0  0  0  0  0  0
    5.9779  -18.6312   22.3013 C   0  0  0  0  0  0  0  0  0  0  0  0
    5.5958  -18.4904   23.4772 O   0  0  0  0  0  0  0  0  0  0  0  0
    6.5422  -17.4744   21.5669 C   0  0  0  0  0  0  0  0  0  0  0  0
    6.8959  -17.8988   20.1879 C   0  0  0  0  0  0  0  0  0  0  0  0
    7.4947  -16.8757   19.2964 C   0  0  2  0  0  0  0  0  0  0  0  0
    7.7830  -17.4272   18.0027 N   0  0  0  0  0  0  0  0  0  0  0  0
    8.4792  -15.9831   19.8826 C   0  0  0  0  0  0  0  0  0  0  0  0
    9.7022  -16.3909   19.8201 O   0  0  0  0  0  0  0  0  0  0  0  0
    8.2808  -14.7591   20.5031 N   0  0  0  0  0  0  0  0  0  0  0  0
    7.0638  -14.0512   20.7978 C   0  0  0  0  0  0  0  0  0  0  0  0
    7.4058  -12.6243   20.4273 C   0  0  0  0  0  0  0  0  0  0  0  0
    8.8244  -12.4981   20.9402 C   0  0  0  0  0  0  0  0  0  0  0  0
    9.3182  -13.8951   21.1277 C   0  0  1  0  0  0  0  0  0  0  0  0
    9.4125  -14.2164   22.5791 C   0  0  0  0  0  0  0  0  0  0  0  0
   10.4582  -13.7635   23.3670 O   0  0  0  0  0  0  0  0  0  0  0  0
    8.5372  -14.9198   23.1553 O   0  0  0  0  0  0  0  0  0  0  0  0
  2  1  1  1
  2  3  1  0
  4  8  1  0
  4  3  1  0
  5  4  2  0
  6  2  1  0
  6 15  1  0
  7  6  2  0
  9 10  1  0
 10 11  2  0
 12 13  1  0
 12 10  1  0
 14 16  1  0
 14 13  1  1
 14 15  1  0
 16 18  1  0
 17 16  2  0
 18 22  1  0
 18 19  1  0
 19 20  1  0
 20 21  1  0
 22 21  1  0
 22 23  1  1
 24 23  1  0
 25 23  2  0
M  END
$$$$
