DQP.pdb
     RDKit          3D

 25 25  0  0  1  0  0  0  0  0999 V2000
    9.1142  -17.6532   20.7931 N   0  0  0  0  0  0  0  0  0  0  0  0
    8.7905  -16.2482   20.6504 C   0  0  1  0  0  0  0  0  0  0  0  0
    8.0149  -16.1054   19.3579 C   0  0  0  0  0  0  0  0  0  0  0  0
    8.9049  -16.5458   18.2535 C   0  0  0  0  0  0  0  0  0  0  0  0
   10.0252  -16.0555   18.0650 O   0  0  0  0  0  0  0  0  0  0  0  0
    8.0104  -15.7813   21.8163 C   0  0  0  0  0  0  0  0  0  0  0  0
    7.4305  -14.6703   21.8499 O   0  0  0  0  0  0  0  0  0  0  0  0
    8.4787  -17.5462   17.3888 O   0  0  0  0  0  0  0  0  0  0  0  0
    6.5303  -20.0455   25.9992 N   0  0  0  0  0  0  0  0  0  0  0  0
    6.6585  -19.5868   24.6695 C   0  0  0  0  0  0  0  0  0  0  0  0
    7.2736  -20.2781   23.8374 O   0  0  0  0  0  0  0  0  0  0  0  0
    6.0676  -18.2916   24.2581 C   0  0  0  0  0  0  0  0  0  0  0  0
    6.7137  -17.1961   25.0257 C   0  0  0  0  0  0  0  0  0  0  0  0
    7.3437  -16.1025   24.2464 C   0  0  2  0  0  0  0  0  0  0  0  0
    7.8698  -16.5941   23.0044 N   0  0  0  0  0  0  0  0  0  0  0  0
    8.1455  -15.1423   24.9843 C   0  0  0  0  0  0  0  0  0  0  0  0
    9.4100  -15.1630   24.7262 O   0  0  0  0  0  0  0  0  0  0  0  0
    7.7365  -14.2140   25.9296 N   0  0  0  0  0  0  0  0  0  0  0  0
    6.4266  -13.9355   26.4549 C   0  0  0  0  0  0  0  0  0  0  0  0
    6.3908  -12.4231   26.4867 C   0  0  0  0  0  0  0  0  0  0  0  0
    7.7878  -12.0858   26.9624 C   0  0  0  0  0  0  0  0  0  0  0  0
    8.6064  -13.3137   26.7330 C   0  0  1  0  0  0  0  0  0  0  0  0
    8.9224  -13.9708   28.0318 C   0  0  0  0  0  0  0  0  0  0  0  0
    9.8948  -13.4799   28.8879 O   0  0  0  0  0  0  0  0  0  0  0  0
    8.3128  -15.0096   28.4089 O   0  0  0  0  0  0  0  0  0  0  0  0
  2  1  1  1
  2  3  1  0
  4  8  1  0
  4  3  1  0
  5  4  2  0
  6  2  1  0
  6 15  1  0
  7  6  2  0
  9 10  1  0
 10 11  2  0
 12 13  1  0
 12 10  1  0
 14 16  1  0
 14 13  1  1
 14 15  1  0
 16 18  1  0
 17 16  2  0
 18 22  1  0
 18 19  1  0
 19 20  1  0
 20 21  1  0
 22 21  1  0
 22 23  1  1
 24 23  1  0
 25 23  2  0
M  END
$$$$
