GIM.pdb
     RDKit          3D

 21 20  0  0  1  0  0  0  0  0999 V2000
   31.2461  -22.3008  -10.4238 N   0  0  0  0  0  0  0  0  0  0  0  0
   30.7869  -21.0046   -9.9899 C   0  0  0  0  0  0  0  0  0  0  0  0
   29.4773  -21.1525   -9.3219 C   0  0  0  0  0  0  0  0  0  0  0  0
   28.8057  -22.1969   -9.4724 O   0  0  0  0  0  0  0  0  0  0  0  0
   28.6146  -19.6946   -4.2311 C   0  0  0  0  0  0  0  0  0  0  0  0
   28.6626  -20.1711   -5.6352 C   0  0  0  0  0  0  0  0  0  0  0  0
   27.5242  -19.8126   -6.5151 C   0  0  2  0  0  0  0  0  0  0  0  0
   26.1741  -20.0849   -5.9039 C   0  0  0  0  0  0  0  0  0  0  0  0
   27.6286  -20.2860   -7.9152 C   0  0  2  0  0  0  0  0  0  0  0  0
   28.9358  -20.1278   -8.4928 N   0  0  0  0  0  0  0  0  0  0  0  0
   26.5885  -19.6582   -8.8057 C   0  0  0  0  0  0  0  0  0  0  0  0
   26.7541  -18.5457   -9.3275 O   0  0  0  0  0  0  0  0  0  0  0  0
   27.8890  -20.9185  -13.8555 C   0  0  0  0  0  0  0  0  0  0  0  0
   26.2699  -21.6759  -14.0094 S   0  0  0  0  0  0  0  0  0  0  0  0
   25.0895  -21.0793  -12.7670 C   0  0  0  0  0  0  0  0  0  0  0  0
   25.6778  -21.0107  -11.4000 C   0  0  0  0  0  0  0  0  0  0  0  0
   24.7615  -20.4094  -10.3963 C   0  0  2  0  0  0  0  0  0  0  0  0
   25.3712  -20.3422   -9.0713 N   0  0  0  0  0  0  0  0  0  0  0  0
   23.4088  -21.0047  -10.3277 C   0  0  0  0  0  0  0  0  0  0  0  0
   23.0115  -21.8011   -9.4608 O   0  0  0  0  0  0  0  0  0  0  0  0
   22.5062  -20.6196  -11.3477 O   0  0  0  0  0  0  0  0  0  0  0  0
  2  1  1  0
  2  3  1  0
  3 10  1  0
  4  3  2  0
  6  5  1  0
  7  6  1  0
  7  8  1  1
  9  7  1  0
  9 10  1  6
 11 18  1  0
 11  9  1  0
 12 11  2  0
 14 13  1  0
 15 14  1  0
 16 15  1  0
 17 16  1  6
 17 18  1  0
 19 17  1  0
 20 19  2  0
 21 19  1  0
M  END
$$$$
