GIM.pdb
     RDKit          3D

 21 20  0  0  1  0  0  0  0  0999 V2000
   28.5615  -21.8345  -15.4488 N   0  0  0  0  0  0  0  0  0  0  0  0
   27.9085  -20.7049  -14.8350 C   0  0  0  0  0  0  0  0  0  0  0  0
   26.7004  -21.1706  -14.1233 C   0  0  0  0  0  0  0  0  0  0  0  0
   26.1166  -22.2155  -14.4866 O   0  0  0  0  0  0  0  0  0  0  0  0
   26.4378  -20.3325   -8.8715 C   0  0  0  0  0  0  0  0  0  0  0  0
   26.1546  -21.0618  -10.1319 C   0  0  0  0  0  0  0  0  0  0  0  0
   24.9470  -20.6614  -10.8937 C   0  0  2  0  0  0  0  0  0  0  0  0
   23.6529  -21.0815  -10.2464 C   0  0  0  0  0  0  0  0  0  0  0  0
   24.9856  -20.9520  -12.3460 C   0  0  2  0  0  0  0  0  0  0  0  0
   26.1604  -20.4596  -13.0127 N   0  0  0  0  0  0  0  0  0  0  0  0
   23.7466  -20.4699  -13.0544 C   0  0  0  0  0  0  0  0  0  0  0  0
   23.5065  -19.2638  -13.2122 O   0  0  0  0  0  0  0  0  0  0  0  0
   21.1491  -22.6569  -18.7488 C   0  0  0  0  0  0  0  0  0  0  0  0
   19.7683  -22.6095  -17.6042 S   0  0  0  0  0  0  0  0  0  0  0  0
   20.0742  -21.5386  -16.1717 C   0  0  0  0  0  0  0  0  0  0  0  0
   21.3120  -21.9088  -15.4298 C   0  0  0  0  0  0  0  0  0  0  0  0
   21.5911  -21.0188  -14.2728 C   0  0  2  0  0  0  0  0  0  0  0  0
   22.8086  -21.4069  -13.5665 N   0  0  0  0  0  0  0  0  0  0  0  0
   20.4687  -20.8270  -13.3283 C   0  0  0  0  0  0  0  0  0  0  0  0
   20.3069  -21.4429  -12.2615 O   0  0  0  0  0  0  0  0  0  0  0  0
   19.5083  -19.8526  -13.6915 O   0  0  0  0  0  0  0  0  0  0  0  0
  2  1  1  0
  2  3  1  0
  3 10  1  0
  4  3  2  0
  6  5  1  0
  7  6  1  0
  7  8  1  1
  9  7  1  0
  9 10  1  6
 11 18  1  0
 11  9  1  0
 12 11  2  0
 14 13  1  0
 15 14  1  0
 16 15  1  0
 17 16  1  6
 17 18  1  0
 19 17  1  0
 20 19  2  0
 21 19  1  0
M  END
$$$$
