GIM.pdb
     RDKit          3D

 21 20  0  0  1  0  0  0  0  0999 V2000
   16.1784   -9.8152  -13.3304 N   0  0  0  0  0  0  0  0  0  0  0  0
   16.8783   -9.4137  -14.5254 C   0  0  0  0  0  0  0  0  0  0  0  0
   18.1981   -8.8636  -14.1530 C   0  0  0  0  0  0  0  0  0  0  0  0
   18.3491   -8.2658  -13.0647 O   0  0  0  0  0  0  0  0  0  0  0  0
   22.8116  -11.5413  -14.6544 C   0  0  0  0  0  0  0  0  0  0  0  0
   21.6778  -10.6295  -14.3647 C   0  0  0  0  0  0  0  0  0  0  0  0
   21.7673   -9.2445  -14.8866 C   0  0  2  0  0  0  0  0  0  0  0  0
   23.0686   -8.5564  -14.5644 C   0  0  0  0  0  0  0  0  0  0  0  0
   20.5848   -8.3899  -14.6291 C   0  0  2  0  0  0  0  0  0  0  0  0
   19.3334   -8.9898  -15.0050 N   0  0  0  0  0  0  0  0  0  0  0  0
   20.7188   -7.0296  -15.2622 C   0  0  0  0  0  0  0  0  0  0  0  0
   20.7268   -6.8745  -16.4923 O   0  0  0  0  0  0  0  0  0  0  0  0
   18.4582   -0.3760  -13.5547 C   0  0  0  0  0  0  0  0  0  0  0  0
   18.3635   -1.3514  -15.0577 S   0  0  0  0  0  0  0  0  0  0  0  0
   19.8563   -2.3396  -15.3540 C   0  0  0  0  0  0  0  0  0  0  0  0
   19.7278   -3.7392  -14.8603 C   0  0  0  0  0  0  0  0  0  0  0  0
   20.9846   -4.5228  -14.9836 C   0  0  2  0  0  0  0  0  0  0  0  0
   20.8415   -5.8727  -14.4458 N   0  0  0  0  0  0  0  0  0  0  0  0
   22.2010   -3.8677  -14.4546 C   0  0  0  0  0  0  0  0  0  0  0  0
   22.9276   -3.0773  -15.0797 O   0  0  0  0  0  0  0  0  0  0  0  0
   22.5479   -4.1833  -13.1191 O   0  0  0  0  0  0  0  0  0  0  0  0
  2  1  1  0
  2  3  1  0
  3 10  1  0
  4  3  2  0
  6  5  1  0
  7  6  1  0
  7  8  1  1
  9  7  1  0
  9 10  1  6
 11 18  1  0
 11  9  1  0
 12 11  2  0
 14 13  1  0
 15 14  1  0
 16 15  1  0
 17 16  1  1
 17 18  1  0
 19 17  1  0
 20 19  2  0
 21 19  1  0
M  END
$$$$
