GIM.pdb
     RDKit          3D

 21 20  0  0  1  0  0  0  0  0999 V2000
   19.9670  -12.2637  -18.6983 N   0  0  0  0  0  0  0  0  0  0  0  0
   19.2627  -11.8010  -17.5283 C   0  0  0  0  0  0  0  0  0  0  0  0
   20.2381  -11.2750  -16.5512 C   0  0  0  0  0  0  0  0  0  0  0  0
   19.8618  -10.9154  -15.4138 O   0  0  0  0  0  0  0  0  0  0  0  0
   24.9469  -13.5919  -15.3993 C   0  0  0  0  0  0  0  0  0  0  0  0
   23.7022  -12.8299  -15.6657 C   0  0  0  0  0  0  0  0  0  0  0  0
   23.8190  -11.3568  -15.7893 C   0  0  2  0  0  0  0  0  0  0  0  0
   24.7753  -10.7379  -14.8030 C   0  0  0  0  0  0  0  0  0  0  0  0
   22.5357  -10.6227  -15.8856 C   0  0  2  0  0  0  0  0  0  0  0  0
   21.6243  -11.1583  -16.8602 N   0  0  0  0  0  0  0  0  0  0  0  0
   22.7410   -9.1492  -16.1220 C   0  0  0  0  0  0  0  0  0  0  0  0
   23.1329   -8.7062  -17.2117 O   0  0  0  0  0  0  0  0  0  0  0  0
   20.3986   -2.6859  -18.3167 C   0  0  0  0  0  0  0  0  0  0  0  0
   20.3661   -4.4412  -17.9465 S   0  0  0  0  0  0  0  0  0  0  0  0
   21.5393   -4.9105  -16.6442 C   0  0  0  0  0  0  0  0  0  0  0  0
   21.5965   -6.3828  -16.4238 C   0  0  0  0  0  0  0  0  0  0  0  0
   22.4648   -6.7721  -15.2823 C   0  0  2  0  0  0  0  0  0  0  0  0
   22.4846   -8.2179  -15.0794 N   0  0  0  0  0  0  0  0  0  0  0  0
   22.2057   -6.0620  -14.0105 C   0  0  0  0  0  0  0  0  0  0  0  0
   21.6229   -6.5373  -13.0217 O   0  0  0  0  0  0  0  0  0  0  0  0
   22.6706   -4.7271  -13.9364 O   0  0  0  0  0  0  0  0  0  0  0  0
  2  1  1  0
  2  3  1  0
  3 10  1  0
  4  3  2  0
  6  5  1  0
  7  6  1  0
  7  8  1  1
  9  7  1  0
  9 10  1  6
 11 18  1  0
 11  9  1  0
 12 11  2  0
 14 13  1  0
 15 14  1  0
 16 15  1  0
 17 16  1  6
 17 18  1  0
 19 17  1  0
 20 19  2  0
 21 19  1  0
M  END
$$$$
