GIM.pdb
     RDKit          3D

 21 20  0  0  1  0  0  0  0  0999 V2000
   21.0750  -22.5488   -6.4111 N   0  0  0  0  0  0  0  0  0  0  0  0
   22.1842  -22.9336   -7.2482 C   0  0  0  0  0  0  0  0  0  0  0  0
   22.7827  -21.7229   -7.8473 C   0  0  0  0  0  0  0  0  0  0  0  0
   22.0606  -20.7526   -8.1660 O   0  0  0  0  0  0  0  0  0  0  0  0
   27.4321  -19.6338   -6.0815 C   0  0  0  0  0  0  0  0  0  0  0  0
   26.1332  -20.0325   -6.6772 C   0  0  0  0  0  0  0  0  0  0  0  0
   26.0221  -19.9955   -8.1555 C   0  0  2  0  0  0  0  0  0  0  0  0
   26.5158  -18.7115   -8.7702 C   0  0  0  0  0  0  0  0  0  0  0  0
   24.7187  -20.4341   -8.7066 C   0  0  2  0  0  0  0  0  0  0  0  0
   24.1840  -21.6138   -8.0824 N   0  0  0  0  0  0  0  0  0  0  0  0
   24.7664  -20.6145  -10.2015 C   0  0  0  0  0  0  0  0  0  0  0  0
   25.7130  -21.1828  -10.7656 O   0  0  0  0  0  0  0  0  0  0  0  0
   25.0116  -24.7840  -13.5080 C   0  0  0  0  0  0  0  0  0  0  0  0
   23.7042  -24.0106  -14.4628 S   0  0  0  0  0  0  0  0  0  0  0  0
   23.5587  -22.2293  -14.1486 C   0  0  0  0  0  0  0  0  0  0  0  0
   23.7215  -21.8833  -12.7088 C   0  0  0  0  0  0  0  0  0  0  0  0
   23.5789  -20.4296  -12.4348 C   0  0  2  0  0  0  0  0  0  0  0  0
   23.7056  -20.1270  -11.0120 N   0  0  0  0  0  0  0  0  0  0  0  0
   22.3769  -19.7856  -13.0087 C   0  0  0  0  0  0  0  0  0  0  0  0
   21.3857  -19.4002  -12.3665 O   0  0  0  0  0  0  0  0  0  0  0  0
   22.3782  -19.6030  -14.4124 O   0  0  0  0  0  0  0  0  0  0  0  0
  2  1  1  0
  2  3  1  0
  3 10  1  0
  4  3  2  0
  6  5  1  0
  7  6  1  0
  7  8  1  1
  9  7  1  0
  9 10  1  1
 11 18  1  0
 11  9  1  0
 12 11  2  0
 14 13  1  0
 15 14  1  0
 16 15  1  0
 17 16  1  1
 17 18  1  0
 19 17  1  0
 20 19  2  0
 21 19  1  0
M  END
$$$$
