GIM.pdb
     RDKit          3D

 21 20  0  0  1  0  0  0  0  0999 V2000
   26.6510  -20.7125  -18.3239 N   0  0  0  0  0  0  0  0  0  0  0  0
   26.8510  -19.7618  -17.2584 C   0  0  0  0  0  0  0  0  0  0  0  0
   26.9126  -20.4826  -15.9702 C   0  0  0  0  0  0  0  0  0  0  0  0
   26.2010  -21.4929  -15.7769 O   0  0  0  0  0  0  0  0  0  0  0  0
   30.5133  -21.9685  -11.2157 C   0  0  0  0  0  0  0  0  0  0  0  0
   29.1882  -21.7948  -11.8599 C   0  0  0  0  0  0  0  0  0  0  0  0
   29.1271  -20.9440  -13.0729 C   0  0  2  0  0  0  0  0  0  0  0  0
   29.8733  -19.6417  -12.9402 C   0  0  0  0  0  0  0  0  0  0  0  0
   27.7798  -20.7780  -13.6663 C   0  0  2  0  0  0  0  0  0  0  0  0
   27.7712  -20.0624  -14.9133 N   0  0  0  0  0  0  0  0  0  0  0  0
   26.8080  -20.1504  -12.7013 C   0  0  0  0  0  0  0  0  0  0  0  0
   26.7566  -18.9244  -12.5236 O   0  0  0  0  0  0  0  0  0  0  0  0
   20.6244  -20.0348  -12.8725 C   0  0  0  0  0  0  0  0  0  0  0  0
   20.8278  -20.3194  -11.1127 S   0  0  0  0  0  0  0  0  0  0  0  0
   22.5301  -20.0496  -10.5454 C   0  0  0  0  0  0  0  0  0  0  0  0
   23.5454  -20.5839  -11.4957 C   0  0  0  0  0  0  0  0  0  0  0  0
   24.9414  -20.4349  -11.0081 C   0  0  2  0  0  0  0  0  0  0  0  0
   25.9121  -20.9675  -11.9599 N   0  0  0  0  0  0  0  0  0  0  0  0
   25.2005  -20.9467   -9.6444 C   0  0  0  0  0  0  0  0  0  0  0  0
   25.8609  -21.9614   -9.3653 O   0  0  0  0  0  0  0  0  0  0  0  0
   24.6378  -20.2003   -8.5815 O   0  0  0  0  0  0  0  0  0  0  0  0
  2  1  1  0
  2  3  1  0
  3 10  1  0
  4  3  2  0
  6  5  1  0
  7  6  1  0
  7  8  1  1
  9  7  1  0
  9 10  1  6
 11 18  1  0
 11  9  1  0
 12 11  2  0
 14 13  1  0
 15 14  1  0
 16 15  1  0
 17 16  1  6
 17 18  1  0
 19 17  1  0
 20 19  2  0
 21 19  1  0
M  END
$$$$
