GIM.pdb
     RDKit          3D

 21 20  0  0  1  0  0  0  0  0999 V2000
   28.6851    2.9213   -8.6443 N   0  0  0  0  0  0  0  0  0  0  0  0
   29.3472    3.3538   -7.4386 C   0  0  0  0  0  0  0  0  0  0  0  0
   29.0966    2.3678   -6.3671 C   0  0  0  0  0  0  0  0  0  0  0  0
   28.0407    1.6973   -6.3599 O   0  0  0  0  0  0  0  0  0  0  0  0
   32.7237    0.9372   -5.3474 C   0  0  0  0  0  0  0  0  0  0  0  0
   31.9253    0.0276   -4.4894 C   0  0  0  0  0  0  0  0  0  0  0  0
   30.9193    0.6460   -3.5926 C   0  0  2  0  0  0  0  0  0  0  0  0
   30.5697   -0.2004   -2.3960 C   0  0  0  0  0  0  0  0  0  0  0  0
   29.7269    1.2100   -4.2673 C   0  0  2  0  0  0  0  0  0  0  0  0
   30.0325    2.1449   -5.3159 N   0  0  0  0  0  0  0  0  0  0  0  0
   28.7594    1.8247   -3.2899 C   0  0  0  0  0  0  0  0  0  0  0  0
   28.9358    2.9555   -2.8127 O   0  0  0  0  0  0  0  0  0  0  0  0
   21.3637    2.2959   -0.6212 C   0  0  0  0  0  0  0  0  0  0  0  0
   22.5488    1.6541   -1.8055 S   0  0  0  0  0  0  0  0  0  0  0  0
   24.2704    1.9251   -1.3002 C   0  0  0  0  0  0  0  0  0  0  0  0
   25.2509    1.4116   -2.2973 C   0  0  0  0  0  0  0  0  0  0  0  0
   26.6649    1.5951   -1.8782 C   0  0  2  0  0  0  0  0  0  0  0  0
   27.6012    1.1065   -2.8865 N   0  0  0  0  0  0  0  0  0  0  0  0
   27.0079    1.0706   -0.5381 C   0  0  0  0  0  0  0  0  0  0  0  0
   27.5884   -0.0034   -0.3078 O   0  0  0  0  0  0  0  0  0  0  0  0
   26.6328    1.8787    0.5619 O   0  0  0  0  0  0  0  0  0  0  0  0
  2  1  1  0
  2  3  1  0
  3 10  1  0
  4  3  2  0
  6  5  1  0
  7  6  1  0
  7  8  1  1
  9  7  1  0
  9 10  1  6
 11 18  1  0
 11  9  1  0
 12 11  2  0
 14 13  1  0
 15 14  1  0
 16 15  1  0
 17 16  1  6
 17 18  1  0
 19 17  1  0
 20 19  2  0
 21 19  1  0
M  END
$$$$
