GIM.pdb
     RDKit          3D

 21 20  0  0  1  0  0  0  0  0999 V2000
   23.0982  -11.4217  -20.9651 N   0  0  0  0  0  0  0  0  0  0  0  0
   22.8671  -10.0151  -20.7479 C   0  0  0  0  0  0  0  0  0  0  0  0
   22.2978   -9.8196  -19.3986 C   0  0  0  0  0  0  0  0  0  0  0  0
   21.1324  -10.1959  -19.1441 O   0  0  0  0  0  0  0  0  0  0  0  0
   24.2245  -11.6191  -14.9825 C   0  0  0  0  0  0  0  0  0  0  0  0
   23.4105  -10.9954  -16.0545 C   0  0  0  0  0  0  0  0  0  0  0  0
   23.1073   -9.5496  -15.9254 C   0  0  2  0  0  0  0  0  0  0  0  0
   22.4839   -9.1747  -14.6058 C   0  0  0  0  0  0  0  0  0  0  0  0
   22.4143   -8.9390  -17.0838 C   0  0  2  0  0  0  0  0  0  0  0  0
   23.0414   -9.2045  -18.3501 N   0  0  0  0  0  0  0  0  0  0  0  0
   22.2103   -7.4570  -16.9065 C   0  0  0  0  0  0  0  0  0  0  0  0
   23.1571   -6.6566  -16.9190 O   0  0  0  0  0  0  0  0  0  0  0  0
   18.8204   -4.5122  -21.6183 C   0  0  0  0  0  0  0  0  0  0  0  0
   18.4868   -4.3720  -19.8610 S   0  0  0  0  0  0  0  0  0  0  0  0
   19.8597   -4.9624  -18.8317 C   0  0  0  0  0  0  0  0  0  0  0  0
   19.5007   -5.0514  -17.3886 C   0  0  0  0  0  0  0  0  0  0  0  0
   20.6235   -5.5143  -16.5320 C   0  0  2  0  0  0  0  0  0  0  0  0
   20.9017   -6.9357  -16.7174 N   0  0  0  0  0  0  0  0  0  0  0  0
   20.5122   -5.1790  -15.0954 C   0  0  0  0  0  0  0  0  0  0  0  0
   20.5758   -4.0364  -14.6117 O   0  0  0  0  0  0  0  0  0  0  0  0
   20.3166   -6.2695  -14.2145 O   0  0  0  0  0  0  0  0  0  0  0  0
  2  1  1  0
  2  3  1  0
  3 10  1  0
  4  3  2  0
  6  5  1  0
  7  6  1  0
  7  8  1  1
  9  7  1  0
  9 10  1  6
 11 18  1  0
 11  9  1  0
 12 11  2  0
 14 13  1  0
 15 14  1  0
 16 15  1  0
 17 16  1  6
 17 18  1  0
 19 17  1  0
 20 19  2  0
 21 19  1  0
M  END
$$$$
