GIM.pdb
     RDKit          3D

 21 20  0  0  1  0  0  0  0  0999 V2000
   28.3121  -18.4695  -15.8885 N   0  0  0  0  0  0  0  0  0  0  0  0
   27.3721  -17.9818  -14.9099 C   0  0  0  0  0  0  0  0  0  0  0  0
   26.5131  -19.0982  -14.4639 C   0  0  0  0  0  0  0  0  0  0  0  0
   26.2254  -20.0273  -15.2504 O   0  0  0  0  0  0  0  0  0  0  0  0
   26.8424  -20.7705   -9.4113 C   0  0  0  0  0  0  0  0  0  0  0  0
   26.5916  -20.9057  -10.8672 C   0  0  0  0  0  0  0  0  0  0  0  0
   25.2142  -20.6407  -11.3483 C   0  0  2  0  0  0  0  0  0  0  0  0
   24.2211  -21.7077  -10.9669 C   0  0  0  0  0  0  0  0  0  0  0  0
   25.1039  -20.2322  -12.7682 C   0  0  2  0  0  0  0  0  0  0  0  0
   25.9862  -19.1601  -13.1413 N   0  0  0  0  0  0  0  0  0  0  0  0
   23.6870  -19.8960  -13.1536 C   0  0  0  0  0  0  0  0  0  0  0  0
   23.1186  -18.8735  -12.7430 O   0  0  0  0  0  0  0  0  0  0  0  0
   21.3494  -18.7547  -18.8206 C   0  0  0  0  0  0  0  0  0  0  0  0
   20.0448  -19.8258  -18.2124 S   0  0  0  0  0  0  0  0  0  0  0  0
   20.1228  -20.0858  -16.4183 C   0  0  0  0  0  0  0  0  0  0  0  0
   21.5109  -20.3180  -15.9299 C   0  0  0  0  0  0  0  0  0  0  0  0
   21.5934  -20.4901  -14.4560 C   0  0  2  0  0  0  0  0  0  0  0  0
   22.9580  -20.7617  -14.0134 N   0  0  0  0  0  0  0  0  0  0  0  0
   20.6433  -21.4619  -13.8715 C   0  0  0  0  0  0  0  0  0  0  0  0
   20.8885  -22.6542  -13.6229 O   0  0  0  0  0  0  0  0  0  0  0  0
   19.3493  -20.9689  -13.5783 O   0  0  0  0  0  0  0  0  0  0  0  0
  2  1  1  0
  2  3  1  0
  3 10  1  0
  4  3  2  0
  6  5  1  0
  7  6  1  0
  7  8  1  6
  9  7  1  0
  9 10  1  1
 11 18  1  0
 11  9  1  0
 12 11  2  0
 14 13  1  0
 15 14  1  0
 16 15  1  0
 17 16  1  6
 17 18  1  0
 19 17  1  0
 20 19  2  0
 21 19  1  0
M  END
$$$$
