GIM.pdb
     RDKit          3D

 21 20  0  0  1  0  0  0  0  0999 V2000
   21.1050  -13.2846  -19.3021 N   0  0  0  0  0  0  0  0  0  0  0  0
   21.3720  -12.2104  -18.3780 C   0  0  0  0  0  0  0  0  0  0  0  0
   20.0917  -11.6936  -17.8518 C   0  0  0  0  0  0  0  0  0  0  0  0
   19.5737  -10.6678  -18.3457 O   0  0  0  0  0  0  0  0  0  0  0  0
   16.7460  -15.1976  -15.5402 C   0  0  0  0  0  0  0  0  0  0  0  0
   16.9500  -13.9432  -16.3056 C   0  0  0  0  0  0  0  0  0  0  0  0
   17.3311  -12.7323  -15.5392 C   0  0  2  0  0  0  0  0  0  0  0  0
   16.1764  -12.0732  -14.8301 C   0  0  0  0  0  0  0  0  0  0  0  0
   18.1902  -11.7659  -16.2623 C   0  0  2  0  0  0  0  0  0  0  0  0
   19.4068  -12.3327  -16.7779 N   0  0  0  0  0  0  0  0  0  0  0  0
   18.4969  -10.5470  -15.4319 C   0  0  0  0  0  0  0  0  0  0  0  0
   19.3766  -10.5508  -14.5582 O   0  0  0  0  0  0  0  0  0  0  0  0
   22.4925   -5.5718  -13.2939 C   0  0  0  0  0  0  0  0  0  0  0  0
   21.6076   -5.9432  -14.8099 S   0  0  0  0  0  0  0  0  0  0  0  0
   19.8789   -6.4136  -14.5220 C   0  0  0  0  0  0  0  0  0  0  0  0
   19.5255   -7.7190  -15.1469 C   0  0  0  0  0  0  0  0  0  0  0  0
   18.0958   -8.0853  -14.9723 C   0  0  2  0  0  0  0  0  0  0  0  0
   17.7693   -9.3435  -15.6373 N   0  0  0  0  0  0  0  0  0  0  0  0
   17.1183   -7.0315  -15.3225 C   0  0  0  0  0  0  0  0  0  0  0  0
   16.4000   -7.0183  -16.3361 O   0  0  0  0  0  0  0  0  0  0  0  0
   17.0088   -5.9551  -14.4097 O   0  0  0  0  0  0  0  0  0  0  0  0
  2  1  1  0
  2  3  1  0
  3 10  1  0
  4  3  2  0
  6  5  1  0
  7  6  1  0
  7  8  1  6
  9  7  1  0
  9 10  1  1
 11 18  1  0
 11  9  1  0
 12 11  2  0
 14 13  1  0
 15 14  1  0
 16 15  1  0
 17 16  1  6
 17 18  1  0
 19 17  1  0
 20 19  2  0
 21 19  1  0
M  END
$$$$
