GIM.pdb
     RDKit          3D

 21 20  0  0  1  0  0  0  0  0999 V2000
   16.7260  -14.5840  -15.3736 N   0  0  0  0  0  0  0  0  0  0  0  0
   16.0611  -13.7150  -14.4347 C   0  0  0  0  0  0  0  0  0  0  0  0
   16.2691  -12.3102  -14.8425 C   0  0  0  0  0  0  0  0  0  0  0  0
   17.0127  -12.0368  -15.8104 O   0  0  0  0  0  0  0  0  0  0  0  0
   12.2573   -9.5415  -14.1278 C   0  0  0  0  0  0  0  0  0  0  0  0
   13.4412   -9.4096  -15.0121 C   0  0  0  0  0  0  0  0  0  0  0  0
   14.7126   -8.9720  -14.3870 C   0  0  2  0  0  0  0  0  0  0  0  0
   15.0482   -7.5251  -14.6405 C   0  0  0  0  0  0  0  0  0  0  0  0
   15.8678   -9.8761  -14.5946 C   0  0  2  0  0  0  0  0  0  0  0  0
   15.6413  -11.2279  -14.1605 N   0  0  0  0  0  0  0  0  0  0  0  0
   17.1297   -9.3364  -13.9737 C   0  0  0  0  0  0  0  0  0  0  0  0
   17.3076   -9.3281  -12.7467 O   0  0  0  0  0  0  0  0  0  0  0  0
   23.5074  -10.8717  -13.7006 C   0  0  0  0  0  0  0  0  0  0  0  0
   23.3270   -9.3566  -14.6446 S   0  0  0  0  0  0  0  0  0  0  0  0
   21.8648   -8.3950  -14.1651 C   0  0  0  0  0  0  0  0  0  0  0  0
   20.5995   -8.9591  -14.7129 C   0  0  0  0  0  0  0  0  0  0  0  0
   19.3879   -8.2207  -14.2707 C   0  0  2  0  0  0  0  0  0  0  0  0
   18.1632   -8.8151  -14.7985 N   0  0  0  0  0  0  0  0  0  0  0  0
   19.4099   -6.7595  -14.5012 C   0  0  0  0  0  0  0  0  0  0  0  0
   18.9573   -6.1774  -15.5011 O   0  0  0  0  0  0  0  0  0  0  0  0
   20.0025   -5.9768  -13.4815 O   0  0  0  0  0  0  0  0  0  0  0  0
  2  1  1  0
  2  3  1  0
  3 10  1  0
  4  3  2  0
  6  5  1  0
  7  6  1  0
  7  8  1  6
  9  7  1  0
  9 10  1  1
 11 18  1  0
 11  9  1  0
 12 11  2  0
 14 13  1  0
 15 14  1  0
 16 15  1  0
 17 16  1  6
 17 18  1  0
 19 17  1  0
 20 19  2  0
 21 19  1  0
M  END
$$$$
