GIM.pdb
     RDKit          3D

 21 20  0  0  1  0  0  0  0  0999 V2000
   25.1796  -23.5098  -14.2700 N   0  0  0  0  0  0  0  0  0  0  0  0
   24.4791  -22.3498  -14.7628 C   0  0  0  0  0  0  0  0  0  0  0  0
   23.4724  -21.9309  -13.7658 C   0  0  0  0  0  0  0  0  0  0  0  0
   23.7321  -21.9878  -12.5435 O   0  0  0  0  0  0  0  0  0  0  0  0
   19.8888  -17.2465  -12.7855 C   0  0  0  0  0  0  0  0  0  0  0  0
   20.1999  -18.6718  -12.5161 C   0  0  0  0  0  0  0  0  0  0  0  0
   21.0814  -19.3707  -13.4822 C   0  0  2  0  0  0  0  0  0  0  0  0
   20.7155  -19.1294  -14.9238 C   0  0  0  0  0  0  0  0  0  0  0  0
   21.3444  -20.7983  -13.1860 C   0  0  2  0  0  0  0  0  0  0  0  0
   22.1862  -21.4531  -14.1503 N   0  0  0  0  0  0  0  0  0  0  0  0
   20.0723  -21.5813  -12.9913 C   0  0  0  0  0  0  0  0  0  0  0  0
   19.4204  -22.0255  -13.9479 O   0  0  0  0  0  0  0  0  0  0  0  0
   19.1037  -24.7254   -7.3697 C   0  0  0  0  0  0  0  0  0  0  0  0
   17.6138  -25.1915   -8.2541 S   0  0  0  0  0  0  0  0  0  0  0  0
   17.3978  -24.2764   -9.8061 C   0  0  0  0  0  0  0  0  0  0  0  0
   18.5072  -23.3174  -10.0684 C   0  0  0  0  0  0  0  0  0  0  0  0
   18.4218  -22.6724  -11.4045 C   0  0  2  0  0  0  0  0  0  0  0  0
   19.5834  -21.8319  -11.6805 N   0  0  0  0  0  0  0  0  0  0  0  0
   17.1636  -21.9463  -11.6848 C   0  0  0  0  0  0  0  0  0  0  0  0
   16.9369  -20.7568  -11.4068 O   0  0  0  0  0  0  0  0  0  0  0  0
   16.1442  -22.6906  -12.3255 O   0  0  0  0  0  0  0  0  0  0  0  0
  2  1  1  0
  2  3  1  0
  3 10  1  0
  4  3  2  0
  6  5  1  0
  7  6  1  0
  7  8  1  6
  9  7  1  0
  9 10  1  6
 11 18  1  0
 11  9  1  0
 12 11  2  0
 14 13  1  0
 15 14  1  0
 16 15  1  0
 17 16  1  1
 17 18  1  0
 19 17  1  0
 20 19  2  0
 21 19  1  0
M  END
$$$$
