GIM.pdb
     RDKit          3D

 21 20  0  0  1  0  0  0  0  0999 V2000
   21.5243  -14.3379  -18.1471 N   0  0  0  0  0  0  0  0  0  0  0  0
   21.7841  -13.0061  -18.6349 C   0  0  0  0  0  0  0  0  0  0  0  0
   22.0987  -12.1237  -17.4923 C   0  0  0  0  0  0  0  0  0  0  0  0
   21.3399  -12.0817  -16.4988 O   0  0  0  0  0  0  0  0  0  0  0  0
   26.8058  -11.5652  -15.0513 C   0  0  0  0  0  0  0  0  0  0  0  0
   25.3812  -11.5542  -15.4650 C   0  0  0  0  0  0  0  0  0  0  0  0
   24.8045  -10.2547  -15.8864 C   0  0  2  0  0  0  0  0  0  0  0  0
   24.9772   -9.1551  -14.8708 C   0  0  0  0  0  0  0  0  0  0  0  0
   23.4315  -10.3174  -16.4395 C   0  0  2  0  0  0  0  0  0  0  0  0
   23.2602  -11.2983  -17.4767 N   0  0  0  0  0  0  0  0  0  0  0  0
   22.9485   -8.9716  -16.9135 C   0  0  0  0  0  0  0  0  0  0  0  0
   23.4252   -8.4168  -17.9146 O   0  0  0  0  0  0  0  0  0  0  0  0
   17.5566   -4.0634  -19.1237 C   0  0  0  0  0  0  0  0  0  0  0  0
   18.0921   -5.6764  -18.5486 S   0  0  0  0  0  0  0  0  0  0  0  0
   19.6923   -5.6266  -17.6945 C   0  0  0  0  0  0  0  0  0  0  0  0
   20.2103   -6.9834  -17.3623 C   0  0  0  0  0  0  0  0  0  0  0  0
   21.4551   -6.9540  -16.5510 C   0  0  2  0  0  0  0  0  0  0  0  0
   21.9154   -8.2966  -16.2083 N   0  0  0  0  0  0  0  0  0  0  0  0
   21.4180   -6.0848  -15.3543 C   0  0  0  0  0  0  0  0  0  0  0  0
   21.1604   -6.4566  -14.1973 O   0  0  0  0  0  0  0  0  0  0  0  0
   21.7040   -4.7154  -15.5699 O   0  0  0  0  0  0  0  0  0  0  0  0
  2  1  1  0
  2  3  1  0
  3 10  1  0
  4  3  2  0
  6  5  1  0
  7  6  1  0
  7  8  1  1
  9  7  1  0
  9 10  1  6
 11 18  1  0
 11  9  1  0
 12 11  2  0
 14 13  1  0
 15 14  1  0
 16 15  1  0
 17 16  1  1
 17 18  1  0
 19 17  1  0
 20 19  2  0
 21 19  1  0
M  END
$$$$
