LNG.pdb
     RDKit          3D

 21 20  0  0  1  0  0  0  0  0999 V2000
    9.0141  -12.7742   19.3744 C   0  0  0  0  0  0  0  0  0  0  0  0
    7.7419  -13.5474   19.6256 C   0  0  2  0  0  0  0  0  0  0  0  0
    6.5287  -12.8439   19.0393 C   0  0  0  0  0  0  0  0  0  0  0  0
    7.5291  -13.8067   21.1108 C   0  0  0  0  0  0  0  0  0  0  0  0
    8.7657  -14.5008   21.6278 C   0  0  2  0  0  0  0  0  0  0  0  0
    8.8540  -15.7691   20.9216 N   0  0  0  0  0  0  0  0  0  0  0  0
    8.7290  -14.7087   23.0873 C   0  0  0  0  0  0  0  0  0  0  0  0
    7.9769  -13.9746   23.7739 O   0  0  0  0  0  0  0  0  0  0  0  0
    6.0979  -17.4426   26.4931 N   0  0  0  0  0  0  0  0  0  0  0  0
    6.8088  -17.8631   25.3018 C   0  0  0  0  0  0  0  0  0  0  0  0
    6.6378  -19.0714   25.0489 O   0  0  0  0  0  0  0  0  0  0  0  0
    7.5929  -16.9392   24.5598 C   0  0  0  0  0  0  0  0  0  0  0  0
    8.9258  -16.4489   24.9418 C   0  0  2  0  0  0  0  0  0  0  0  0
    9.4873  -15.6848   23.7660 N   0  0  0  0  0  0  0  0  0  0  0  0
    9.9480  -17.3980   25.3739 C   0  0  0  0  0  0  0  0  0  0  0  0
   10.1638  -17.5329   26.6543 O   0  0  0  0  0  0  0  0  0  0  0  0
   10.7738  -18.2334   24.5951 N   0  0  0  0  0  0  0  0  0  0  0  0
   11.7591  -17.6937   23.6524 C   0  0  0  0  0  0  0  0  0  0  0  0
   13.0535  -17.4375   24.3166 C   0  0  0  0  0  0  0  0  0  0  0  0
   13.0619  -16.7331   25.3556 O   0  0  0  0  0  0  0  0  0  0  0  0
   14.2577  -17.9297   23.8584 O   0  0  0  0  0  0  0  0  0  0  0  0
  2  1  1  1
  3  2  1  0
  4  5  1  0
  4  2  1  0
  5  6  1  6
  7  5  1  0
  8  7  2  0
 10  9  1  0
 10 12  1  0
 11 10  2  0
 13 12  1  6
 13 14  1  0
 14  7  1  0
 15 16  2  0
 15 13  1  0
 17 15  1  0
 18 19  1  0
 18 17  1  0
 19 21  1  0
 20 19  2  0
M  END
$$$$
