LNG.pdb
     RDKit          3D

 21 20  0  0  1  0  0  0  0  0999 V2000
    9.4400  -12.4123   19.0555 C   0  0  0  0  0  0  0  0  0  0  0  0
    8.3154  -13.3990   19.2577 C   0  0  2  0  0  0  0  0  0  0  0  0
    6.9650  -12.7062   19.3414 C   0  0  0  0  0  0  0  0  0  0  0  0
    8.5403  -14.2575   20.4949 C   0  0  0  0  0  0  0  0  0  0  0  0
    9.9413  -14.8125   20.4084 C   0  0  2  0  0  0  0  0  0  0  0  0
   10.0056  -15.5830   19.1767 N   0  0  0  0  0  0  0  0  0  0  0  0
   10.2922  -15.6458   21.5734 C   0  0  0  0  0  0  0  0  0  0  0  0
   10.2068  -15.1354   22.7171 O   0  0  0  0  0  0  0  0  0  0  0  0
    8.7828  -20.0933   20.9555 N   0  0  0  0  0  0  0  0  0  0  0  0
    9.1045  -19.4030   22.1888 C   0  0  0  0  0  0  0  0  0  0  0  0
    8.0876  -19.1037   22.8443 O   0  0  0  0  0  0  0  0  0  0  0  0
   10.4550  -19.1344   22.5399 C   0  0  0  0  0  0  0  0  0  0  0  0
   11.0421  -17.7980   22.7187 C   0  0  2  0  0  0  0  0  0  0  0  0
   10.7192  -16.9869   21.4861 N   0  0  0  0  0  0  0  0  0  0  0  0
   12.4754  -17.6659   22.9651 C   0  0  0  0  0  0  0  0  0  0  0  0
   13.0169  -18.4214   23.8816 O   0  0  0  0  0  0  0  0  0  0  0  0
   13.4119  -16.8178   22.3404 N   0  0  0  0  0  0  0  0  0  0  0  0
   14.8481  -16.9002   22.6256 C   0  0  0  0  0  0  0  0  0  0  0  0
   15.2675  -15.8523   23.5784 C   0  0  0  0  0  0  0  0  0  0  0  0
   14.3855  -15.1100   24.0752 O   0  0  0  0  0  0  0  0  0  0  0  0
   16.5777  -15.6420   23.9547 O   0  0  0  0  0  0  0  0  0  0  0  0
  2  1  1  1
  3  2  1  0
  4  5  1  0
  4  2  1  0
  5  6  1  6
  7  5  1  0
  8  7  2  0
 10  9  1  0
 10 12  1  0
 11 10  2  0
 13 12  1  6
 13 14  1  0
 14  7  1  0
 15 16  2  0
 15 13  1  0
 17 15  1  0
 18 19  1  0
 18 17  1  0
 19 21  1  0
 20 19  2  0
M  END
$$$$
