LNG.pdb
     RDKit          3D

 21 20  0  0  1  0  0  0  0  0999 V2000
    5.9541  -14.2670   26.0772 C   0  0  0  0  0  0  0  0  0  0  0  0
    7.0682  -13.3197   25.7024 C   0  0  2  0  0  0  0  0  0  0  0  0
    6.7642  -11.8932   26.1305 C   0  0  0  0  0  0  0  0  0  0  0  0
    7.3633  -13.3660   24.2095 C   0  0  0  0  0  0  0  0  0  0  0  0
    7.7816  -14.7778   23.8775 C   0  0  2  0  0  0  0  0  0  0  0  0
    8.7372  -15.1770   24.8985 N   0  0  0  0  0  0  0  0  0  0  0  0
    8.3685  -14.8914   22.5294 C   0  0  0  0  0  0  0  0  0  0  0  0
    7.5975  -15.0980   21.5605 O   0  0  0  0  0  0  0  0  0  0  0  0
    7.8677  -12.2221   20.1734 N   0  0  0  0  0  0  0  0  0  0  0  0
    8.4418  -13.4969   19.7908 C   0  0  0  0  0  0  0  0  0  0  0  0
    7.6146  -14.2400   19.2277 O   0  0  0  0  0  0  0  0  0  0  0  0
    9.8050  -13.7908   20.0633 C   0  0  0  0  0  0  0  0  0  0  0  0
   10.2922  -14.9305   20.8548 C   0  0  2  0  0  0  0  0  0  0  0  0
    9.7475  -14.7815   22.2558 N   0  0  0  0  0  0  0  0  0  0  0  0
   11.7282  -15.1701   20.9680 C   0  0  0  0  0  0  0  0  0  0  0  0
   12.4039  -15.4008   19.8751 O   0  0  0  0  0  0  0  0  0  0  0  0
   12.5399  -15.1888   22.1201 N   0  0  0  0  0  0  0  0  0  0  0  0
   13.4297  -16.3135   22.4271 C   0  0  0  0  0  0  0  0  0  0  0  0
   14.7415  -16.1562   21.7666 C   0  0  0  0  0  0  0  0  0  0  0  0
   14.8993  -16.6570   20.6264 O   0  0  0  0  0  0  0  0  0  0  0  0
   15.8068  -15.4881   22.3333 O   0  0  0  0  0  0  0  0  0  0  0  0
  2  1  1  6
  3  2  1  0
  4  5  1  0
  4  2  1  0
  5  6  1  1
  7  5  1  0
  8  7  2  0
 10  9  1  0
 10 12  1  0
 11 10  2  0
 13 12  1  6
 13 14  1  0
 14  7  1  0
 15 16  2  0
 15 13  1  0
 17 15  1  0
 18 19  1  0
 18 17  1  0
 19 21  1  0
 20 19  2  0
M  END
$$$$
