LNG.pdb
     RDKit          3D

 21 20  0  0  1  0  0  0  0  0999 V2000
    8.8339  -13.0794   18.8558 C   0  0  0  0  0  0  0  0  0  0  0  0
    7.5451  -13.5654   19.4739 C   0  0  2  0  0  0  0  0  0  0  0  0
    6.4168  -12.5640   19.2873 C   0  0  0  0  0  0  0  0  0  0  0  0
    7.7200  -13.8868   20.9518 C   0  0  0  0  0  0  0  0  0  0  0  0
    8.8332  -14.9000   21.0629 C   0  0  2  0  0  0  0  0  0  0  0  0
    8.3996  -16.0738   20.3217 N   0  0  0  0  0  0  0  0  0  0  0  0
    9.1475  -15.2435   22.4622 C   0  0  0  0  0  0  0  0  0  0  0  0
    9.4810  -14.3175   23.2414 O   0  0  0  0  0  0  0  0  0  0  0  0
    6.8728  -15.8184   25.1713 N   0  0  0  0  0  0  0  0  0  0  0  0
    7.2311  -17.2186   25.2815 C   0  0  0  0  0  0  0  0  0  0  0  0
    6.2556  -17.9364   25.5756 O   0  0  0  0  0  0  0  0  0  0  0  0
    8.5688  -17.6454   25.0635 C   0  0  0  0  0  0  0  0  0  0  0  0
    9.6101  -16.8730   24.3693 C   0  0  2  0  0  0  0  0  0  0  0  0
    9.0967  -16.5520   22.9855 N   0  0  0  0  0  0  0  0  0  0  0  0
   10.9483  -17.4376   24.2182 C   0  0  0  0  0  0  0  0  0  0  0  0
   11.0741  -18.7370   24.2179 O   0  0  0  0  0  0  0  0  0  0  0  0
   12.1821  -16.7747   24.0610 N   0  0  0  0  0  0  0  0  0  0  0  0
   13.4513  -17.5038   23.9691 C   0  0  0  0  0  0  0  0  0  0  0  0
   14.5969  -16.5770   23.8665 C   0  0  0  0  0  0  0  0  0  0  0  0
   15.3554  -16.6737   22.8710 O   0  0  0  0  0  0  0  0  0  0  0  0
   14.8818  -15.6078   24.8056 O   0  0  0  0  0  0  0  0  0  0  0  0
  2  1  1  1
  3  2  1  0
  4  5  1  0
  4  2  1  0
  5  6  1  6
  7  5  1  0
  8  7  2  0
 10  9  1  0
 10 12  1  0
 11 10  2  0
 13 12  1  6
 13 14  1  0
 14  7  1  0
 15 16  2  0
 15 13  1  0
 17 15  1  0
 18 19  1  0
 18 17  1  0
 19 21  1  0
 20 19  2  0
M  END
$$$$
