LNG.pdb
     RDKit          3D

 21 20  0  0  1  0  0  0  0  0999 V2000
   13.5126  -23.0897   26.8563 C   0  0  0  0  0  0  0  0  0  0  0  0
   13.8755  -22.1695   27.9968 C   0  0  2  0  0  0  0  0  0  0  0  0
   14.3976  -20.8317   27.4984 C   0  0  0  0  0  0  0  0  0  0  0  0
   14.8909  -22.8116   28.9321 C   0  0  0  0  0  0  0  0  0  0  0  0
   14.1182  -23.5978   29.9631 C   0  0  2  0  0  0  0  0  0  0  0  0
   12.9336  -22.8150   30.2778 N   0  0  0  0  0  0  0  0  0  0  0  0
   14.9104  -23.8707   31.1766 C   0  0  0  0  0  0  0  0  0  0  0  0
   15.9344  -24.5890   31.0693 O   0  0  0  0  0  0  0  0  0  0  0  0
   16.7657  -21.5713   32.0302 N   0  0  0  0  0  0  0  0  0  0  0  0
   16.5010  -21.4062   33.4458 C   0  0  0  0  0  0  0  0  0  0  0  0
   16.7914  -20.2646   33.8530 O   0  0  0  0  0  0  0  0  0  0  0  0
   15.9688  -22.4760   34.2148 C   0  0  0  0  0  0  0  0  0  0  0  0
   15.4163  -23.7264   33.6725 C   0  0  2  0  0  0  0  0  0  0  0  0
   14.5916  -23.3738   32.4572 N   0  0  0  0  0  0  0  0  0  0  0  0
   14.5950  -24.5823   34.5241 C   0  0  0  0  0  0  0  0  0  0  0  0
   13.7684  -24.0127   35.3586 O   0  0  0  0  0  0  0  0  0  0  0  0
   14.5459  -25.9894   34.5896 N   0  0  0  0  0  0  0  0  0  0  0  0
   15.3285  -26.7507   35.5687 C   0  0  0  0  0  0  0  0  0  0  0  0
   14.5900  -26.9121   36.8378 C   0  0  0  0  0  0  0  0  0  0  0  0
   14.6395  -28.0232   37.4199 O   0  0  0  0  0  0  0  0  0  0  0  0
   13.8464  -25.9079   37.4219 O   0  0  0  0  0  0  0  0  0  0  0  0
  2  1  1  6
  3  2  1  0
  4  5  1  0
  4  2  1  0
  5  6  1  1
  7  5  1  0
  8  7  2  0
 10  9  1  0
 10 12  1  0
 11 10  2  0
 13 12  1  1
 13 14  1  0
 14  7  1  0
 15 16  2  0
 15 13  1  0
 17 15  1  0
 18 19  1  0
 18 17  1  0
 19 21  1  0
 20 19  2  0
M  END
$$$$
