LNG.pdb
     RDKit          3D

 21 20  0  0  1  0  0  0  0  0999 V2000
    6.4328  -11.8029   24.9950 C   0  0  0  0  0  0  0  0  0  0  0  0
    6.2283  -12.5670   26.2810 C   0  0  2  0  0  0  0  0  0  0  0  0
    6.0757  -11.6357   27.4726 C   0  0  0  0  0  0  0  0  0  0  0  0
    7.3596  -13.5548   26.5307 C   0  0  0  0  0  0  0  0  0  0  0  0
    7.6095  -14.2889   25.2358 C   0  0  2  0  0  0  0  0  0  0  0  0
    6.4591  -15.1524   25.0213 N   0  0  0  0  0  0  0  0  0  0  0  0
    8.8603  -15.0696   25.2607 C   0  0  0  0  0  0  0  0  0  0  0  0
    9.8935  -14.5232   25.7190 O   0  0  0  0  0  0  0  0  0  0  0  0
   10.3097  -18.2961   27.5094 N   0  0  0  0  0  0  0  0  0  0  0  0
    9.9040  -19.0461   26.3372 C   0  0  0  0  0  0  0  0  0  0  0  0
    9.4003  -20.1480   26.6297 O   0  0  0  0  0  0  0  0  0  0  0  0
   10.0941  -18.5147   25.0332 C   0  0  0  0  0  0  0  0  0  0  0  0
   10.3089  -17.0959   24.7112 C   0  0  2  0  0  0  0  0  0  0  0  0
    8.9723  -16.3982   24.8014 N   0  0  0  0  0  0  0  0  0  0  0  0
   10.9077  -16.7284   23.4311 C   0  0  0  0  0  0  0  0  0  0  0  0
   10.1550  -16.7610   22.3650 O   0  0  0  0  0  0  0  0  0  0  0  0
   12.2272  -16.3211   23.1493 N   0  0  0  0  0  0  0  0  0  0  0  0
   12.6807  -16.0419   21.7829 C   0  0  0  0  0  0  0  0  0  0  0  0
   14.1120  -15.6778   21.7558 C   0  0  0  0  0  0  0  0  0  0  0  0
   14.7434  -15.6587   22.8406 O   0  0  0  0  0  0  0  0  0  0  0  0
   14.7967  -15.3565   20.6024 O   0  0  0  0  0  0  0  0  0  0  0  0
  2  1  1  6
  3  2  1  0
  4  5  1  0
  4  2  1  0
  5  6  1  1
  7  5  1  0
  8  7  2  0
 10  9  1  0
 10 12  1  0
 11 10  2  0
 13 12  1  6
 13 14  1  0
 14  7  1  0
 15 16  2  0
 15 13  1  0
 17 15  1  0
 18 19  1  0
 18 17  1  0
 19 21  1  0
 20 19  2  0
M  END
$$$$
