LNG.pdb
     RDKit          3D

 21 20  0  0  1  0  0  0  0  0999 V2000
    9.4034  -13.7341   19.7829 C   0  0  0  0  0  0  0  0  0  0  0  0
    7.9438  -13.4462   20.0395 C   0  0  2  0  0  0  0  0  0  0  0  0
    7.6091  -11.9809   19.8127 C   0  0  0  0  0  0  0  0  0  0  0  0
    7.5292  -13.8662   21.4430 C   0  0  0  0  0  0  0  0  0  0  0  0
    7.6672  -15.3671   21.5225 C   0  0  2  0  0  0  0  0  0  0  0  0
    6.7117  -15.9210   20.5762 N   0  0  0  0  0  0  0  0  0  0  0  0
    7.4276  -15.8858   22.8819 C   0  0  0  0  0  0  0  0  0  0  0  0
    6.2435  -15.9501   23.2939 O   0  0  0  0  0  0  0  0  0  0  0  0
    6.5493  -20.2834   25.5901 N   0  0  0  0  0  0  0  0  0  0  0  0
    6.6303  -18.8649   25.8769 C   0  0  0  0  0  0  0  0  0  0  0  0
    6.2558  -18.5925   27.0341 O   0  0  0  0  0  0  0  0  0  0  0  0
    7.0956  -17.9505   24.8939 C   0  0  0  0  0  0  0  0  0  0  0  0
    8.1345  -16.9300   25.0993 C   0  0  2  0  0  0  0  0  0  0  0  0
    8.4478  -16.3179   23.7544 N   0  0  0  0  0  0  0  0  0  0  0  0
    9.4044  -17.3057   25.7144 C   0  0  0  0  0  0  0  0  0  0  0  0
   10.5017  -17.1106   25.0346 O   0  0  0  0  0  0  0  0  0  0  0  0
    9.6474  -17.8669   26.9843 N   0  0  0  0  0  0  0  0  0  0  0  0
   10.9968  -17.9530   27.5520 C   0  0  0  0  0  0  0  0  0  0  0  0
   10.9684  -18.4991   28.9241 C   0  0  0  0  0  0  0  0  0  0  0  0
   12.0496  -18.5793   29.5570 O   0  0  0  0  0  0  0  0  0  0  0  0
    9.8176  -18.9276   29.5520 O   0  0  0  0  0  0  0  0  0  0  0  0
  2  1  1  1
  3  2  1  0
  4  5  1  0
  4  2  1  0
  5  6  1  6
  7  5  1  0
  8  7  2  0
 10  9  1  0
 10 12  1  0
 11 10  2  0
 13 12  1  6
 13 14  1  0
 14  7  1  0
 15 16  2  0
 15 13  1  0
 17 15  1  0
 18 19  1  0
 18 17  1  0
 19 21  1  0
 20 19  2  0
M  END
$$$$
