LNG.pdb
     RDKit          3D

 21 20  0  0  1  0  0  0  0  0999 V2000
    6.9819  -12.3033   24.6800 C   0  0  0  0  0  0  0  0  0  0  0  0
    6.4383  -12.9103   25.9510 C   0  0  2  0  0  0  0  0  0  0  0  0
    6.6247  -11.9855   27.1428 C   0  0  0  0  0  0  0  0  0  0  0  0
    7.0690  -14.2662   26.2375 C   0  0  0  0  0  0  0  0  0  0  0  0
    6.9574  -15.0893   24.9773 C   0  0  2  0  0  0  0  0  0  0  0  0
    5.6399  -15.7047   25.0006 N   0  0  0  0  0  0  0  0  0  0  0  0
    8.0168  -16.1098   24.8728 C   0  0  0  0  0  0  0  0  0  0  0  0
    7.8485  -17.2045   25.4638 O   0  0  0  0  0  0  0  0  0  0  0  0
   11.9421  -18.9348   22.0696 N   0  0  0  0  0  0  0  0  0  0  0  0
   12.1945  -17.5698   22.4869 C   0  0  0  0  0  0  0  0  0  0  0  0
   13.3983  -17.2601   22.3944 O   0  0  0  0  0  0  0  0  0  0  0  0
   11.1331  -16.7404   22.9392 C   0  0  0  0  0  0  0  0  0  0  0  0
   10.2788  -17.0057   24.1065 C   0  0  2  0  0  0  0  0  0  0  0  0
    9.2134  -15.9357   24.1472 N   0  0  0  0  0  0  0  0  0  0  0  0
   10.8760  -17.0779   25.4371 C   0  0  0  0  0  0  0  0  0  0  0  0
   11.6620  -16.1065   25.8149 O   0  0  0  0  0  0  0  0  0  0  0  0
   10.7299  -18.0714   26.4261 N   0  0  0  0  0  0  0  0  0  0  0  0
   11.4305  -17.9980   27.7124 C   0  0  0  0  0  0  0  0  0  0  0  0
   12.5229  -18.9896   27.7863 C   0  0  0  0  0  0  0  0  0  0  0  0
   13.0528  -19.3745   26.7154 O   0  0  0  0  0  0  0  0  0  0  0  0
   12.9956  -19.5186   28.9692 O   0  0  0  0  0  0  0  0  0  0  0  0
  2  1  1  6
  3  2  1  0
  4  5  1  0
  4  2  1  0
  5  6  1  1
  7  5  1  0
  8  7  2  0
 10  9  1  0
 10 12  1  0
 11 10  2  0
 13 12  1  6
 13 14  1  0
 14  7  1  0
 15 16  2  0
 15 13  1  0
 17 15  1  0
 18 19  1  0
 18 17  1  0
 19 21  1  0
 20 19  2  0
M  END
$$$$
