LNG.pdb
     RDKit          3D

 21 20  0  0  1  0  0  0  0  0999 V2000
    7.2655  -13.5098   22.9805 C   0  0  0  0  0  0  0  0  0  0  0  0
    7.8394  -13.4808   21.5845 C   0  0  2  0  0  0  0  0  0  0  0  0
    7.5198  -12.1779   20.8698 C   0  0  0  0  0  0  0  0  0  0  0  0
    7.3563  -14.6637   20.7565 C   0  0  0  0  0  0  0  0  0  0  0  0
    8.3377  -15.7909   20.9672 C   0  0  2  0  0  0  0  0  0  0  0  0
    8.7450  -15.7292   22.3620 N   0  0  0  0  0  0  0  0  0  0  0  0
    9.5046  -15.6998   20.0702 C   0  0  0  0  0  0  0  0  0  0  0  0
    9.3006  -15.6423   18.8328 O   0  0  0  0  0  0  0  0  0  0  0  0
    9.8262  -13.1097   17.4611 N   0  0  0  0  0  0  0  0  0  0  0  0
   10.8570  -14.1140   17.6342 C   0  0  0  0  0  0  0  0  0  0  0  0
   10.9457  -14.8771   16.6528 O   0  0  0  0  0  0  0  0  0  0  0  0
   11.6371  -14.1571   18.8211 C   0  0  0  0  0  0  0  0  0  0  0  0
   11.9847  -15.3730   19.5718 C   0  0  2  0  0  0  0  0  0  0  0  0
   10.8427  -15.6718   20.5142 N   0  0  0  0  0  0  0  0  0  0  0  0
   13.2174  -15.4114   20.3538 C   0  0  0  0  0  0  0  0  0  0  0  0
   14.3546  -15.3213   19.7191 O   0  0  0  0  0  0  0  0  0  0  0  0
   13.3841  -15.5310   21.7482 N   0  0  0  0  0  0  0  0  0  0  0  0
   13.9216  -16.7476   22.3662 C   0  0  0  0  0  0  0  0  0  0  0  0
   15.2982  -16.5367   22.8585 C   0  0  0  0  0  0  0  0  0  0  0  0
   15.8357  -15.4186   22.6670 O   0  0  0  0  0  0  0  0  0  0  0  0
   16.0295  -17.5018   23.5190 O   0  0  0  0  0  0  0  0  0  0  0  0
  2  1  1  1
  3  2  1  0
  4  5  1  0
  4  2  1  0
  5  6  1  1
  7  5  1  0
  8  7  2  0
 10  9  1  0
 10 12  1  0
 11 10  2  0
 13 12  1  1
 13 14  1  0
 14  7  1  0
 15 16  2  0
 15 13  1  0
 17 15  1  0
 18 19  1  0
 18 17  1  0
 19 21  1  0
 20 19  2  0
M  END
$$$$
