LNG.pdb
     RDKit          3D

 21 20  0  0  1  0  0  0  0  0999 V2000
    6.8561  -12.1535   24.3982 C   0  0  0  0  0  0  0  0  0  0  0  0
    6.2255  -12.8164   25.5990 C   0  0  2  0  0  0  0  0  0  0  0  0
    5.9040  -11.8124   26.6941 C   0  0  0  0  0  0  0  0  0  0  0  0
    7.1070  -13.9282   26.1513 C   0  0  0  0  0  0  0  0  0  0  0  0
    7.2461  -14.9712   25.0691 C   0  0  2  0  0  0  0  0  0  0  0  0
    6.1131  -15.8714   25.2141 N   0  0  0  0  0  0  0  0  0  0  0  0
    8.5213  -15.7070   25.1535 C   0  0  0  0  0  0  0  0  0  0  0  0
    8.5217  -16.8351   25.7042 O   0  0  0  0  0  0  0  0  0  0  0  0
   14.3457  -15.2542   23.3529 N   0  0  0  0  0  0  0  0  0  0  0  0
   13.1730  -16.1048   23.3049 C   0  0  0  0  0  0  0  0  0  0  0  0
   13.4492  -17.2758   22.9795 O   0  0  0  0  0  0  0  0  0  0  0  0
   11.8859  -15.5852   23.6086 C   0  0  0  0  0  0  0  0  0  0  0  0
   11.0029  -16.0631   24.6833 C   0  0  2  0  0  0  0  0  0  0  0  0
    9.7476  -15.2237   24.6522 N   0  0  0  0  0  0  0  0  0  0  0  0
   11.4849  -16.0767   26.0616 C   0  0  0  0  0  0  0  0  0  0  0  0
   12.5940  -16.7141   26.3219 O   0  0  0  0  0  0  0  0  0  0  0  0
   10.9214  -15.4811   27.2080 N   0  0  0  0  0  0  0  0  0  0  0  0
   11.5884  -15.5209   28.5135 C   0  0  0  0  0  0  0  0  0  0  0  0
   11.4969  -16.8634   29.1227 C   0  0  0  0  0  0  0  0  0  0  0  0
   10.8708  -16.9867   30.2038 O   0  0  0  0  0  0  0  0  0  0  0  0
   12.0621  -17.9935   28.5696 O   0  0  0  0  0  0  0  0  0  0  0  0
  2  1  1  6
  3  2  1  0
  4  5  1  0
  4  2  1  0
  5  6  1  1
  7  5  1  0
  8  7  2  0
 10  9  1  0
 10 12  1  0
 11 10  2  0
 13 12  1  6
 13 14  1  0
 14  7  1  0
 15 16  2  0
 15 13  1  0
 17 15  1  0
 18 19  1  0
 18 17  1  0
 19 21  1  0
 20 19  2  0
M  END
$$$$
