LNG.pdb
     RDKit          3D

 21 20  0  0  1  0  0  0  0  0999 V2000
    8.0900  -13.2251   21.8676 C   0  0  0  0  0  0  0  0  0  0  0  0
    8.6738  -13.2880   20.4767 C   0  0  2  0  0  0  0  0  0  0  0  0
    8.4397  -11.9980   19.7075 C   0  0  0  0  0  0  0  0  0  0  0  0
    8.1242  -14.4716   19.6925 C   0  0  0  0  0  0  0  0  0  0  0  0
    8.8878  -15.6967   20.1335 C   0  0  2  0  0  0  0  0  0  0  0  0
    8.9804  -15.6267   21.5832 N   0  0  0  0  0  0  0  0  0  0  0  0
   10.2265  -15.7796   19.5207 C   0  0  0  0  0  0  0  0  0  0  0  0
   10.3035  -15.8920   18.2727 O   0  0  0  0  0  0  0  0  0  0  0  0
   14.4579  -15.2892   16.7570 N   0  0  0  0  0  0  0  0  0  0  0  0
   14.2255  -14.5556   17.9853 C   0  0  0  0  0  0  0  0  0  0  0  0
   15.1523  -13.7649   18.2485 O   0  0  0  0  0  0  0  0  0  0  0  0
   13.0463  -14.7715   18.7483 C   0  0  0  0  0  0  0  0  0  0  0  0
   12.7707  -15.9524   19.5803 C   0  0  2  0  0  0  0  0  0  0  0  0
   11.4332  -15.7396   20.2492 N   0  0  0  0  0  0  0  0  0  0  0  0
   13.7208  -16.3423   20.6183 C   0  0  0  0  0  0  0  0  0  0  0  0
   14.9043  -16.7522   20.2501 O   0  0  0  0  0  0  0  0  0  0  0  0
   13.5595  -16.3429   22.0185 N   0  0  0  0  0  0  0  0  0  0  0  0
   14.4659  -17.0789   22.9060 C   0  0  0  0  0  0  0  0  0  0  0  0
   15.6136  -16.2434   23.3142 C   0  0  0  0  0  0  0  0  0  0  0  0
   15.7445  -15.1112   22.7881 O   0  0  0  0  0  0  0  0  0  0  0  0
   16.5531  -16.6376   24.2439 O   0  0  0  0  0  0  0  0  0  0  0  0
  2  1  1  1
  3  2  1  0
  4  5  1  0
  4  2  1  0
  5  6  1  1
  7  5  1  0
  8  7  2  0
 10  9  1  0
 10 12  1  0
 11 10  2  0
 13 12  1  1
 13 14  1  0
 14  7  1  0
 15 16  2  0
 15 13  1  0
 17 15  1  0
 18 19  1  0
 18 17  1  0
 19 21  1  0
 20 19  2  0
M  END
$$$$
