LNG.pdb
     RDKit          3D

 21 20  0  0  1  0  0  0  0  0999 V2000
    7.5544  -13.9174   20.4078 C   0  0  0  0  0  0  0  0  0  0  0  0
    8.7129  -13.0655   19.9478 C   0  0  2  0  0  0  0  0  0  0  0  0
    8.2537  -11.9204   19.0598 C   0  0  0  0  0  0  0  0  0  0  0  0
    9.7664  -13.8959   19.2275 C   0  0  0  0  0  0  0  0  0  0  0  0
   10.2858  -14.9153   20.2121 C   0  0  2  0  0  0  0  0  0  0  0  0
   10.1836  -14.3075   21.5294 N   0  0  0  0  0  0  0  0  0  0  0  0
   11.6730  -15.3242   19.9236 C   0  0  0  0  0  0  0  0  0  0  0  0
   11.8798  -16.0709   18.9359 O   0  0  0  0  0  0  0  0  0  0  0  0
   14.3341  -15.2638   17.1762 N   0  0  0  0  0  0  0  0  0  0  0  0
   14.4348  -14.1761   18.1290 C   0  0  0  0  0  0  0  0  0  0  0  0
   14.1643  -13.0716   17.6188 O   0  0  0  0  0  0  0  0  0  0  0  0
   14.8070  -14.4241   19.4777 C   0  0  0  0  0  0  0  0  0  0  0  0
   14.1831  -15.4141   20.3685 C   0  0  2  0  0  0  0  0  0  0  0  0
   12.7892  -14.9281   20.6889 N   0  0  0  0  0  0  0  0  0  0  0  0
   14.8279  -15.7553   21.6334 C   0  0  0  0  0  0  0  0  0  0  0  0
   15.9804  -15.2067   21.9069 O   0  0  0  0  0  0  0  0  0  0  0  0
   14.3833  -16.6181   22.6554 N   0  0  0  0  0  0  0  0  0  0  0  0
   15.1150  -16.7723   23.9170 C   0  0  0  0  0  0  0  0  0  0  0  0
   14.4853  -17.7906   24.7821 C   0  0  0  0  0  0  0  0  0  0  0  0
   13.4399  -18.3546   24.3761 O   0  0  0  0  0  0  0  0  0  0  0  0
   14.9822  -18.1585   26.0150 O   0  0  0  0  0  0  0  0  0  0  0  0
  2  1  1  6
  3  2  1  0
  4  5  1  0
  4  2  1  0
  5  6  1  1
  7  5  1  0
  8  7  2  0
 10  9  1  0
 10 12  1  0
 11 10  2  0
 13 12  1  1
 13 14  1  0
 14  7  1  0
 15 16  2  0
 15 13  1  0
 17 15  1  0
 18 19  1  0
 18 17  1  0
 19 21  1  0
 20 19  2  0
M  END
$$$$
