LNG.pdb
     RDKit          3D

 21 20  0  0  1  0  0  0  0  0999 V2000
    7.0963  -11.9804   24.7971 C   0  0  0  0  0  0  0  0  0  0  0  0
    6.6072  -12.7551   25.9971 C   0  0  2  0  0  0  0  0  0  0  0  0
    6.6005  -11.9020   27.2551 C   0  0  0  0  0  0  0  0  0  0  0  0
    7.4321  -14.0146   26.2238 C   0  0  0  0  0  0  0  0  0  0  0  0
    7.1756  -14.9362   25.0562 C   0  0  2  0  0  0  0  0  0  0  0  0
    5.8272  -15.4539   25.2264 N   0  0  0  0  0  0  0  0  0  0  0  0
    8.1578  -16.0333   24.9755 C   0  0  0  0  0  0  0  0  0  0  0  0
    7.9326  -17.0824   25.6271 O   0  0  0  0  0  0  0  0  0  0  0  0
   11.3668  -15.8277   20.8809 N   0  0  0  0  0  0  0  0  0  0  0  0
   10.9002  -16.8774   21.7650 C   0  0  0  0  0  0  0  0  0  0  0  0
   10.1622  -17.6954   21.1823 O   0  0  0  0  0  0  0  0  0  0  0  0
   11.2863  -16.9005   23.1323 C   0  0  0  0  0  0  0  0  0  0  0  0
   10.3770  -17.0774   24.2744 C   0  0  2  0  0  0  0  0  0  0  0  0
    9.3401  -15.9809   24.2087 N   0  0  0  0  0  0  0  0  0  0  0  0
   10.9156  -17.0879   25.6317 C   0  0  0  0  0  0  0  0  0  0  0  0
   11.5099  -16.0109   26.0688 O   0  0  0  0  0  0  0  0  0  0  0  0
   10.8920  -18.1201   26.5912 N   0  0  0  0  0  0  0  0  0  0  0  0
   11.6120  -18.0155   27.8646 C   0  0  0  0  0  0  0  0  0  0  0  0
   12.1665  -19.3212   28.2768 C   0  0  0  0  0  0  0  0  0  0  0  0
   12.4920  -20.1402   27.3829 O   0  0  0  0  0  0  0  0  0  0  0  0
   12.3475  -19.6931   29.5926 O   0  0  0  0  0  0  0  0  0  0  0  0
  2  1  1  6
  3  2  1  0
  4  5  1  0
  4  2  1  0
  5  6  1  1
  7  5  1  0
  8  7  2  0
 10  9  1  0
 10 12  1  0
 11 10  2  0
 13 12  1  6
 13 14  1  0
 14  7  1  0
 15 16  2  0
 15 13  1  0
 17 15  1  0
 18 19  1  0
 18 17  1  0
 19 21  1  0
 20 19  2  0
M  END
$$$$
