TKY.pdb
     RDKit          3D

 29 29  0  0  1  0  0  0  0  0999 V2000
    9.0371  -12.5721   17.4539 C   0  0  0  0  0  0  0  0  0  0  0  0
    9.1215  -13.5118   18.6443 C   0  0  1  0  0  0  0  0  0  0  0  0
    9.4826  -12.8509   19.8064 O   0  0  0  0  0  0  0  0  0  0  0  0
    7.8150  -14.1885   18.8506 C   0  0  2  0  0  0  0  0  0  0  0  0
    6.7257  -13.2751   19.0850 N   0  0  0  0  0  0  0  0  0  0  0  0
    7.9014  -15.1229   19.9933 C   0  0  0  0  0  0  0  0  0  0  0  0
    7.3257  -14.8493   21.0993 O   0  0  0  0  0  0  0  0  0  0  0  0
    8.6063  -16.3510   19.9312 N   0  0  0  0  0  0  0  0  0  0  0  0
    8.7094  -17.2692   21.0098 C   0  0  1  0  0  0  0  0  0  0  0  0
    9.2862  -18.6028   20.7534 C   0  0  0  0  0  0  0  0  0  0  0  0
    8.4300  -19.7905   21.0068 C   0  0  0  0  0  0  0  0  0  0  0  0
    8.4793  -20.8911   20.0149 C   0  0  0  0  0  0  0  0  0  0  0  0
    8.9784  -22.1367   20.7699 C   0  0  0  0  0  0  0  0  0  0  0  0
    9.0927  -23.2585   19.8533 N   0  0  0  0  0  0  0  0  0  0  0  0
    9.4175  -16.6018   22.1716 C   0  0  0  0  0  0  0  0  0  0  0  0
   10.4157  -15.8687   21.9401 O   0  0  0  0  0  0  0  0  0  0  0  0
   10.7341  -14.3102   30.5834 O   0  0  0  0  0  0  0  0  0  0  0  0
   10.2963  -14.5810   29.2891 C   0  0  0  0  0  0  0  0  0  0  0  0
    9.5181  -13.6089   28.6725 C   0  0  0  0  0  0  0  0  0  0  0  0
    9.0517  -13.8197   27.3889 C   0  0  0  0  0  0  0  0  0  0  0  0
    9.3506  -14.9923   26.7017 C   0  0  0  0  0  0  0  0  0  0  0  0
    8.8403  -15.1757   25.3361 C   0  0  0  0  0  0  0  0  0  0  0  0
    9.7446  -16.0679   24.5523 C   0  0  2  0  0  0  0  0  0  0  0  0
    9.0198  -16.7578   23.5014 N   0  0  0  0  0  0  0  0  0  0  0  0
   10.4761  -17.0717   25.3842 C   0  0  0  0  0  0  0  0  0  0  0  0
   11.7378  -16.7695   25.8828 O   0  0  0  0  0  0  0  0  0  0  0  0
   10.1258  -15.9220   27.3570 C   0  0  0  0  0  0  0  0  0  0  0  0
   10.6007  -15.7375   28.6310 C   0  0  0  0  0  0  0  0  0  0  0  0
   10.0255  -18.2044   25.6744 O   0  0  0  0  0  0  0  0  0  0  0  0
  2  3  1  0
  2  1  1  6
  4  2  1  0
  4  5  1  1
  6  7  2  0
  6  4  1  0
  8  6  1  0
  9  8  1  0
  9 10  1  6
 11 12  1  0
 11 10  1  0
 12 13  1  0
 14 13  1  0
 15 24  1  0
 15  9  1  0
 16 15  2  0
 18 17  1  0
 19 18  2  0
 20 19  1  0
 21 27  1  0
 21 20  2  0
 23 22  1  1
 22 21  1  0
 23 24  1  0
 23 25  1  0
 25 26  1  0
 27 28  2  0
 28 18  1  0
 29 25  2  0
M  END
$$$$
