TKY.pdb
     RDKit          3D

 29 29  0  0  1  0  0  0  0  0999 V2000
    9.4498  -14.3020   16.5618 C   0  0  0  0  0  0  0  0  0  0  0  0
    9.2664  -14.8022   17.9842 C   0  0  1  0  0  0  0  0  0  0  0  0
   10.2813  -14.3737   18.8232 O   0  0  0  0  0  0  0  0  0  0  0  0
    7.9595  -14.3410   18.5201 C   0  0  2  0  0  0  0  0  0  0  0  0
    7.8239  -12.9069   18.5476 N   0  0  0  0  0  0  0  0  0  0  0  0
    7.7601  -14.8601   19.8901 C   0  0  0  0  0  0  0  0  0  0  0  0
    7.9435  -14.1046   20.9026 O   0  0  0  0  0  0  0  0  0  0  0  0
    7.3584  -16.1929   20.1568 N   0  0  0  0  0  0  0  0  0  0  0  0
    7.0934  -16.7034   21.4554 C   0  0  1  0  0  0  0  0  0  0  0  0
    6.6747  -18.1117   21.5920 C   0  0  0  0  0  0  0  0  0  0  0  0
    6.5062  -18.6563   22.9642 C   0  0  0  0  0  0  0  0  0  0  0  0
    6.0130  -20.0486   23.0896 C   0  0  0  0  0  0  0  0  0  0  0  0
    5.7751  -20.2935   24.5910 C   0  0  0  0  0  0  0  0  0  0  0  0
    5.3592  -21.6688   24.8085 N   0  0  0  0  0  0  0  0  0  0  0  0
    8.2742  -16.4132   22.3598 C   0  0  0  0  0  0  0  0  0  0  0  0
    9.4364  -16.6808   21.9534 O   0  0  0  0  0  0  0  0  0  0  0  0
    5.2060  -12.0639   27.6978 O   0  0  0  0  0  0  0  0  0  0  0  0
    6.2958  -12.5715   26.9941 C   0  0  0  0  0  0  0  0  0  0  0  0
    6.1563  -12.6862   25.6164 C   0  0  0  0  0  0  0  0  0  0  0  0
    7.2018  -13.1849   24.8630 C   0  0  0  0  0  0  0  0  0  0  0  0
    8.3956  -13.5740   25.4631 C   0  0  0  0  0  0  0  0  0  0  0  0
    9.4855  -14.0939   24.6261 C   0  0  0  0  0  0  0  0  0  0  0  0
    9.3308  -15.5633   24.4144 C   0  0  2  0  0  0  0  0  0  0  0  0
    8.1429  -15.8594   23.6353 N   0  0  0  0  0  0  0  0  0  0  0  0
    9.2980  -16.3581   25.6800 C   0  0  0  0  0  0  0  0  0  0  0  0
    8.2070  -17.1737   25.9569 O   0  0  0  0  0  0  0  0  0  0  0  0
    8.4824  -13.4387   26.8301 C   0  0  0  0  0  0  0  0  0  0  0  0
    7.4593  -12.9473   27.6010 C   0  0  0  0  0  0  0  0  0  0  0  0
   10.2078  -16.3435   26.5416 O   0  0  0  0  0  0  0  0  0  0  0  0
  2  3  1  0
  2  1  1  6
  4  2  1  0
  4  5  1  1
  6  7  2  0
  6  4  1  0
  8  6  1  0
  9  8  1  0
  9 10  1  6
 11 12  1  0
 11 10  1  0
 12 13  1  0
 14 13  1  0
 15 24  1  0
 15  9  1  0
 16 15  2  0
 18 17  1  0
 19 18  2  0
 20 19  1  0
 21 27  1  0
 21 20  2  0
 23 22  1  1
 22 21  1  0
 23 24  1  0
 23 25  1  0
 25 26  1  0
 27 28  2  0
 28 18  1  0
 29 25  2  0
M  END
$$$$
