TKY.pdb
     RDKit          3D

 29 29  0  0  1  0  0  0  0  0999 V2000
    9.7743  -13.5521   17.6566 C   0  0  0  0  0  0  0  0  0  0  0  0
    9.2457  -14.2058   18.9218 C   0  0  1  0  0  0  0  0  0  0  0  0
    9.8905  -13.7435   20.0568 O   0  0  0  0  0  0  0  0  0  0  0  0
    7.7867  -13.9564   19.0506 C   0  0  2  0  0  0  0  0  0  0  0  0
    7.4515  -12.5610   19.1778 N   0  0  0  0  0  0  0  0  0  0  0  0
    7.2490  -14.6796   20.2229 C   0  0  0  0  0  0  0  0  0  0  0  0
    6.9664  -14.0519   21.2979 O   0  0  0  0  0  0  0  0  0  0  0  0
    7.0151  -16.0775   20.2235 N   0  0  0  0  0  0  0  0  0  0  0  0
    6.5427  -16.8086   21.3458 C   0  0  1  0  0  0  0  0  0  0  0  0
    6.2162  -18.2373   21.1752 C   0  0  0  0  0  0  0  0  0  0  0  0
    5.7060  -18.9793   22.3572 C   0  0  0  0  0  0  0  0  0  0  0  0
    5.4359  -20.4272   22.1893 C   0  0  0  0  0  0  0  0  0  0  0  0
    5.6139  -21.0681   23.5779 C   0  0  0  0  0  0  0  0  0  0  0  0
    4.3260  -21.1758   24.2423 N   0  0  0  0  0  0  0  0  0  0  0  0
    7.4986  -16.6201   22.5066 C   0  0  0  0  0  0  0  0  0  0  0  0
    8.7391  -16.6700   22.2920 O   0  0  0  0  0  0  0  0  0  0  0  0
   10.9111  -14.7318   30.2923 O   0  0  0  0  0  0  0  0  0  0  0  0
   10.1046  -14.7246   29.1565 C   0  0  0  0  0  0  0  0  0  0  0  0
    9.6914  -15.9594   28.6712 C   0  0  0  0  0  0  0  0  0  0  0  0
    8.8913  -16.0182   27.5461 C   0  0  0  0  0  0  0  0  0  0  0  0
    8.4908  -14.8581   26.8903 C   0  0  0  0  0  0  0  0  0  0  0  0
    7.6352  -14.9632   25.7004 C   0  0  0  0  0  0  0  0  0  0  0  0
    8.0548  -16.1167   24.8512 C   0  0  2  0  0  0  0  0  0  0  0  0
    7.0742  -16.3921   23.8177 N   0  0  0  0  0  0  0  0  0  0  0  0
    8.3219  -17.3703   25.6205 C   0  0  0  0  0  0  0  0  0  0  0  0
    9.5944  -17.6161   26.1228 O   0  0  0  0  0  0  0  0  0  0  0  0
    8.9265  -13.6613   27.4125 C   0  0  0  0  0  0  0  0  0  0  0  0
    9.7216  -13.5754   28.5273 C   0  0  0  0  0  0  0  0  0  0  0  0
    7.4586  -18.2483   25.8531 O   0  0  0  0  0  0  0  0  0  0  0  0
  2  3  1  0
  2  1  1  6
  4  2  1  0
  4  5  1  1
  6  7  2  0
  6  4  1  0
  8  6  1  0
  9  8  1  0
  9 10  1  6
 11 12  1  0
 11 10  1  0
 12 13  1  0
 14 13  1  0
 15 24  1  0
 15  9  1  0
 16 15  2  0
 18 17  1  0
 19 18  2  0
 20 19  1  0
 21 27  1  0
 21 20  2  0
 23 22  1  1
 22 21  1  0
 23 24  1  0
 23 25  1  0
 25 26  1  0
 27 28  2  0
 28 18  1  0
 29 25  2  0
M  END
$$$$
