TKY.pdb
     RDKit          3D

 29 29  0  0  1  0  0  0  0  0999 V2000
    9.5781  -20.3463   15.8057 C   0  0  0  0  0  0  0  0  0  0  0  0
    9.9571  -19.5983   17.0722 C   0  0  1  0  0  0  0  0  0  0  0  0
   11.0277  -20.1859   17.7249 O   0  0  0  0  0  0  0  0  0  0  0  0
   10.2946  -18.1882   16.7473 C   0  0  2  0  0  0  0  0  0  0  0  0
   11.4373  -18.0564   15.8798 N   0  0  0  0  0  0  0  0  0  0  0  0
   10.5547  -17.4288   17.9890 C   0  0  0  0  0  0  0  0  0  0  0  0
   11.7358  -17.3536   18.4673 O   0  0  0  0  0  0  0  0  0  0  0  0
    9.5359  -16.7506   18.7036 N   0  0  0  0  0  0  0  0  0  0  0  0
    9.7444  -16.0488   19.9207 C   0  0  1  0  0  0  0  0  0  0  0  0
    8.7526  -15.0383   20.3357 C   0  0  0  0  0  0  0  0  0  0  0  0
    8.5090  -13.8893   19.4255 C   0  0  0  0  0  0  0  0  0  0  0  0
    7.0988  -13.5279   19.1456 C   0  0  0  0  0  0  0  0  0  0  0  0
    7.1383  -12.2570   18.2774 C   0  0  0  0  0  0  0  0  0  0  0  0
    5.7853  -11.8269   17.9673 N   0  0  0  0  0  0  0  0  0  0  0  0
    9.9851  -17.0430   21.0388 C   0  0  0  0  0  0  0  0  0  0  0  0
    9.2857  -18.0898   21.0879 O   0  0  0  0  0  0  0  0  0  0  0  0
   13.0228  -22.6698   26.7228 O   0  0  0  0  0  0  0  0  0  0  0  0
   12.7505  -21.7837   25.6831 C   0  0  0  0  0  0  0  0  0  0  0  0
   13.4927  -20.6095   25.6472 C   0  0  0  0  0  0  0  0  0  0  0  0
   13.2675  -19.6894   24.6411 C   0  0  0  0  0  0  0  0  0  0  0  0
   12.3079  -19.9209   23.6603 C   0  0  0  0  0  0  0  0  0  0  0  0
   12.1029  -18.9202   22.6041 C   0  0  0  0  0  0  0  0  0  0  0  0
   11.1343  -17.8758   23.0503 C   0  0  2  0  0  0  0  0  0  0  0  0
   10.9512  -16.8596   22.0307 N   0  0  0  0  0  0  0  0  0  0  0  0
   11.5051  -17.2161   24.3394 C   0  0  0  0  0  0  0  0  0  0  0  0
   11.1319  -17.7963   25.5460 O   0  0  0  0  0  0  0  0  0  0  0  0
   11.6016  -21.0996   23.7409 C   0  0  0  0  0  0  0  0  0  0  0  0
   11.8052  -22.0290   24.7294 C   0  0  0  0  0  0  0  0  0  0  0  0
   12.1459  -16.1421   24.4192 O   0  0  0  0  0  0  0  0  0  0  0  0
  2  3  1  0
  2  1  1  6
  4  2  1  0
  4  5  1  6
  6  7  2  0
  6  4  1  0
  8  6  1  0
  9  8  1  0
  9 10  1  1
 11 12  1  0
 11 10  1  0
 12 13  1  0
 14 13  1  0
 15 24  1  0
 15  9  1  0
 16 15  2  0
 18 17  1  0
 19 18  2  0
 20 19  1  0
 21 27  1  0
 21 20  2  0
 23 22  1  6
 22 21  1  0
 23 24  1  0
 23 25  1  0
 25 26  1  0
 27 28  2  0
 28 18  1  0
 29 25  2  0
M  END
$$$$
