TKY.pdb
     RDKit          3D

 29 29  0  0  1  0  0  0  0  0999 V2000
   10.6445  -17.9590   18.8019 C   0  0  0  0  0  0  0  0  0  0  0  0
   10.1085  -17.5458   20.1618 C   0  0  1  0  0  0  0  0  0  0  0  0
   11.1150  -17.1205   21.0124 O   0  0  0  0  0  0  0  0  0  0  0  0
    9.1076  -16.4591   20.0041 C   0  0  2  0  0  0  0  0  0  0  0  0
    9.6264  -15.2930   19.3356 N   0  0  0  0  0  0  0  0  0  0  0  0
    8.5867  -16.0520   21.3268 C   0  0  0  0  0  0  0  0  0  0  0  0
    9.3155  -15.3809   22.1318 O   0  0  0  0  0  0  0  0  0  0  0  0
    7.2780  -16.3691   21.7689 N   0  0  0  0  0  0  0  0  0  0  0  0
    6.9825  -17.3459   22.7567 C   0  0  1  0  0  0  0  0  0  0  0  0
    7.0547  -18.7726   22.3873 C   0  0  0  0  0  0  0  0  0  0  0  0
    6.7560  -19.7785   23.4393 C   0  0  0  0  0  0  0  0  0  0  0  0
    6.7336  -21.2041   23.0332 C   0  0  0  0  0  0  0  0  0  0  0  0
    6.3767  -22.0114   24.2948 C   0  0  0  0  0  0  0  0  0  0  0  0
    6.3656  -23.4316   23.9871 N   0  0  0  0  0  0  0  0  0  0  0  0
    7.8159  -17.0776   23.9936 C   0  0  0  0  0  0  0  0  0  0  0  0
    9.0660  -16.9720   23.8780 O   0  0  0  0  0  0  0  0  0  0  0  0
    7.2852  -10.6084   24.9844 O   0  0  0  0  0  0  0  0  0  0  0  0
    7.4193  -11.8733   25.5523 C   0  0  0  0  0  0  0  0  0  0  0  0
    6.2846  -12.4240   26.1355 C   0  0  0  0  0  0  0  0  0  0  0  0
    6.3544  -13.6754   26.7174 C   0  0  0  0  0  0  0  0  0  0  0  0
    7.5452  -14.3953   26.7277 C   0  0  0  0  0  0  0  0  0  0  0  0
    7.5764  -15.7253   27.3515 C   0  0  0  0  0  0  0  0  0  0  0  0
    8.1430  -16.7348   26.4093 C   0  0  2  0  0  0  0  0  0  0  0  0
    7.2672  -16.9402   25.2707 N   0  0  0  0  0  0  0  0  0  0  0  0
    8.4415  -18.0553   27.0430 C   0  0  0  0  0  0  0  0  0  0  0  0
    9.4010  -18.1409   28.0450 O   0  0  0  0  0  0  0  0  0  0  0  0
    8.6388  -13.8053   26.1356 C   0  0  0  0  0  0  0  0  0  0  0  0
    8.5964  -12.5644   25.5518 C   0  0  0  0  0  0  0  0  0  0  0  0
    7.8761  -19.1285   26.7282 O   0  0  0  0  0  0  0  0  0  0  0  0
  2  3  1  0
  2  1  1  6
  4  2  1  0
  4  5  1  1
  6  7  2  0
  6  4  1  0
  8  6  1  0
  9  8  1  0
  9 10  1  6
 11 12  1  0
 11 10  1  0
 12 13  1  0
 14 13  1  0
 15 24  1  0
 15  9  1  0
 16 15  2  0
 18 17  1  0
 19 18  2  0
 20 19  1  0
 21 27  1  0
 21 20  2  0
 23 22  1  1
 22 21  1  0
 23 24  1  0
 23 25  1  0
 25 26  1  0
 27 28  2  0
 28 18  1  0
 29 25  2  0
M  END
$$$$
