TKY.pdb
     RDKit          3D

 29 29  0  0  1  0  0  0  0  0999 V2000
    9.2795  -13.6120   17.1688 C   0  0  0  0  0  0  0  0  0  0  0  0
    9.0345  -14.3300   18.4847 C   0  0  1  0  0  0  0  0  0  0  0  0
   10.1584  -14.3351   19.2937 O   0  0  0  0  0  0  0  0  0  0  0  0
    7.9095  -13.6873   19.2120 C   0  0  2  0  0  0  0  0  0  0  0  0
    8.1578  -12.3094   19.5518 N   0  0  0  0  0  0  0  0  0  0  0  0
    7.6147  -14.4337   20.4540 C   0  0  0  0  0  0  0  0  0  0  0  0
    8.0677  -14.0286   21.5766 O   0  0  0  0  0  0  0  0  0  0  0  0
    6.8269  -15.6117   20.4748 N   0  0  0  0  0  0  0  0  0  0  0  0
    6.6163  -16.4124   21.6288 C   0  0  1  0  0  0  0  0  0  0  0  0
    5.7653  -17.6123   21.5139 C   0  0  0  0  0  0  0  0  0  0  0  0
    5.6030  -18.4668   22.7186 C   0  0  0  0  0  0  0  0  0  0  0  0
    4.7831  -19.6939   22.5790 C   0  0  0  0  0  0  0  0  0  0  0  0
    4.7153  -20.3346   23.9774 C   0  0  0  0  0  0  0  0  0  0  0  0
    3.8841  -21.5259   23.9365 N   0  0  0  0  0  0  0  0  0  0  0  0
    7.9548  -16.7709   22.2424 C   0  0  0  0  0  0  0  0  0  0  0  0
    9.0109  -16.3717   21.6833 O   0  0  0  0  0  0  0  0  0  0  0  0
   10.0630  -13.5736   29.7971 O   0  0  0  0  0  0  0  0  0  0  0  0
    9.6409  -14.1234   28.5889 C   0  0  0  0  0  0  0  0  0  0  0  0
    8.7946  -13.3471   27.8066 C   0  0  0  0  0  0  0  0  0  0  0  0
    8.3398  -13.8381   26.5976 C   0  0  0  0  0  0  0  0  0  0  0  0
    8.7177  -15.1001   26.1493 C   0  0  0  0  0  0  0  0  0  0  0  0
    8.2170  -15.5835   24.8552 C   0  0  0  0  0  0  0  0  0  0  0  0
    8.7337  -16.9546   24.5704 C   0  0  2  0  0  0  0  0  0  0  0  0
    8.0832  -17.5300   23.4079 N   0  0  0  0  0  0  0  0  0  0  0  0
    8.6087  -17.9008   25.7210 C   0  0  0  0  0  0  0  0  0  0  0  0
    7.8017  -19.0266   25.6064 O   0  0  0  0  0  0  0  0  0  0  0  0
    9.5583  -15.8275   26.9612 C   0  0  0  0  0  0  0  0  0  0  0  0
   10.0233  -15.3636   28.1657 C   0  0  0  0  0  0  0  0  0  0  0  0
    9.1930  -17.7509   26.8194 O   0  0  0  0  0  0  0  0  0  0  0  0
  2  3  1  0
  2  1  1  6
  4  2  1  0
  4  5  1  1
  6  7  2  0
  6  4  1  0
  8  6  1  0
  9  8  1  0
  9 10  1  6
 11 12  1  0
 11 10  1  0
 12 13  1  0
 14 13  1  0
 15 24  1  0
 15  9  1  0
 16 15  2  0
 18 17  1  0
 19 18  2  0
 20 19  1  0
 21 27  1  0
 21 20  2  0
 23 22  1  1
 22 21  1  0
 23 24  1  0
 23 25  1  0
 25 26  1  0
 27 28  2  0
 28 18  1  0
 29 25  2  0
M  END
$$$$
