TKY.pdb
     RDKit          3D

 29 29  0  0  1  0  0  0  0  0999 V2000
   12.4717  -13.4884   18.3942 C   0  0  0  0  0  0  0  0  0  0  0  0
   11.1185  -14.0399   18.8090 C   0  0  1  0  0  0  0  0  0  0  0  0
   10.3148  -14.3260   17.7182 O   0  0  0  0  0  0  0  0  0  0  0  0
   11.2994  -15.2709   19.6213 C   0  0  2  0  0  0  0  0  0  0  0  0
   11.6993  -16.4172   18.8456 N   0  0  0  0  0  0  0  0  0  0  0  0
   10.0461  -15.5978   20.3346 C   0  0  0  0  0  0  0  0  0  0  0  0
    9.4505  -14.7137   21.0368 O   0  0  0  0  0  0  0  0  0  0  0  0
    9.4414  -16.8784   20.2798 N   0  0  0  0  0  0  0  0  0  0  0  0
    8.3673  -17.2918   21.1119 C   0  0  1  0  0  0  0  0  0  0  0  0
    7.7705  -18.6230   20.8910 C   0  0  0  0  0  0  0  0  0  0  0  0
    6.7239  -19.0814   21.8409 C   0  0  0  0  0  0  0  0  0  0  0  0
    6.1910  -20.4528   21.6590 C   0  0  0  0  0  0  0  0  0  0  0  0
    4.9928  -20.5858   22.6167 C   0  0  0  0  0  0  0  0  0  0  0  0
    3.7947  -20.0567   21.9872 N   0  0  0  0  0  0  0  0  0  0  0  0
    8.7648  -17.1256   22.5648 C   0  0  0  0  0  0  0  0  0  0  0  0
    9.8410  -17.6423   22.9677 O   0  0  0  0  0  0  0  0  0  0  0  0
   10.4231  -14.8606   30.6642 O   0  0  0  0  0  0  0  0  0  0  0  0
    9.9320  -14.8411   29.3608 C   0  0  0  0  0  0  0  0  0  0  0  0
   10.6181  -15.5981   28.4191 C   0  0  0  0  0  0  0  0  0  0  0  0
   10.1810  -15.6180   27.1084 C   0  0  0  0  0  0  0  0  0  0  0  0
    9.0612  -14.8911   26.7156 C   0  0  0  0  0  0  0  0  0  0  0  0
    8.6252  -14.9433   25.3134 C   0  0  0  0  0  0  0  0  0  0  0  0
    8.4222  -16.3565   24.8781 C   0  0  2  0  0  0  0  0  0  0  0  0
    7.9933  -16.4230   23.4934 N   0  0  0  0  0  0  0  0  0  0  0  0
    7.4578  -17.1200   25.7275 C   0  0  0  0  0  0  0  0  0  0  0  0
    7.9292  -17.9179   26.7634 O   0  0  0  0  0  0  0  0  0  0  0  0
    8.4172  -14.1592   27.6873 C   0  0  0  0  0  0  0  0  0  0  0  0
    8.8309  -14.1219   28.9949 C   0  0  0  0  0  0  0  0  0  0  0  0
    6.2147  -17.0978   25.5710 O   0  0  0  0  0  0  0  0  0  0  0  0
  2  3  1  0
  2  1  1  6
  4  2  1  0
  4  5  1  6
  6  7  2  0
  6  4  1  0
  8  6  1  0
  9  8  1  0
  9 10  1  1
 11 12  1  0
 11 10  1  0
 12 13  1  0
 14 13  1  0
 15 24  1  0
 15  9  1  0
 16 15  2  0
 18 17  1  0
 19 18  2  0
 20 19  1  0
 21 27  1  0
 21 20  2  0
 23 22  1  1
 22 21  1  0
 23 24  1  0
 23 25  1  0
 25 26  1  0
 27 28  2  0
 28 18  1  0
 29 25  2  0
M  END
$$$$
