TKY.pdb
     RDKit          3D

 29 29  0  0  1  0  0  0  0  0999 V2000
    8.8117  -15.1401   16.9624 C   0  0  0  0  0  0  0  0  0  0  0  0
    8.6601  -15.3512   18.4590 C   0  0  1  0  0  0  0  0  0  0  0  0
    9.7691  -14.9128   19.1630 O   0  0  0  0  0  0  0  0  0  0  0  0
    7.4530  -14.6393   18.9524 C   0  0  2  0  0  0  0  0  0  0  0  0
    7.3209  -13.3028   18.4307 N   0  0  0  0  0  0  0  0  0  0  0  0
    7.4723  -14.5694   20.4293 C   0  0  0  0  0  0  0  0  0  0  0  0
    8.4705  -14.0608   21.0411 O   0  0  0  0  0  0  0  0  0  0  0  0
    6.4087  -15.0458   21.2359 N   0  0  0  0  0  0  0  0  0  0  0  0
    6.4841  -16.2017   22.0577 C   0  0  1  0  0  0  0  0  0  0  0  0
    6.3911  -17.5305   21.4231 C   0  0  0  0  0  0  0  0  0  0  0  0
    6.5405  -18.7270   22.2913 C   0  0  0  0  0  0  0  0  0  0  0  0
    6.3275  -20.0542   21.6663 C   0  0  0  0  0  0  0  0  0  0  0  0
    5.9774  -21.0238   22.8099 C   0  0  0  0  0  0  0  0  0  0  0  0
    5.8986  -22.3825   22.3005 N   0  0  0  0  0  0  0  0  0  0  0  0
    7.7207  -16.1181   22.9298 C   0  0  0  0  0  0  0  0  0  0  0  0
    8.8565  -16.1914   22.3895 O   0  0  0  0  0  0  0  0  0  0  0  0
    5.3597  -11.4568   28.0232 O   0  0  0  0  0  0  0  0  0  0  0  0
    6.2877  -12.1698   27.2676 C   0  0  0  0  0  0  0  0  0  0  0  0
    7.4679  -12.5355   27.9033 C   0  0  0  0  0  0  0  0  0  0  0  0
    8.4287  -13.2427   27.2060 C   0  0  0  0  0  0  0  0  0  0  0  0
    8.2324  -13.5963   25.8745 C   0  0  0  0  0  0  0  0  0  0  0  0
    9.2761  -14.3534   25.1699 C   0  0  0  0  0  0  0  0  0  0  0  0
    8.9008  -15.7943   25.0657 C   0  0  2  0  0  0  0  0  0  0  0  0
    7.6694  -15.9634   24.3170 N   0  0  0  0  0  0  0  0  0  0  0  0
    8.7709  -16.4840   26.3856 C   0  0  0  0  0  0  0  0  0  0  0  0
    7.6304  -17.2261   26.6693 O   0  0  0  0  0  0  0  0  0  0  0  0
    7.0460  -13.2110   25.2926 C   0  0  0  0  0  0  0  0  0  0  0  0
    6.0765  -12.5081   25.9622 C   0  0  0  0  0  0  0  0  0  0  0  0
    9.6392  -16.4412   27.2882 O   0  0  0  0  0  0  0  0  0  0  0  0
  2  3  1  0
  2  1  1  6
  4  2  1  0
  4  5  1  6
  6  7  2  0
  6  4  1  0
  8  6  1  0
  9  8  1  0
  9 10  1  6
 11 12  1  0
 11 10  1  0
 12 13  1  0
 14 13  1  0
 15 24  1  0
 15  9  1  0
 16 15  2  0
 18 17  1  0
 19 18  2  0
 20 19  1  0
 21 27  1  0
 21 20  2  0
 23 22  1  1
 22 21  1  0
 23 24  1  0
 23 25  1  0
 25 26  1  0
 27 28  2  0
 28 18  1  0
 29 25  2  0
M  END
$$$$
