TKY.pdb
     RDKit          3D

 29 29  0  0  1  0  0  0  0  0999 V2000
    9.6289  -15.2426   18.4909 C   0  0  0  0  0  0  0  0  0  0  0  0
    9.0957  -13.8206   18.5212 C   0  0  1  0  0  0  0  0  0  0  0  0
    9.0501  -13.2532   17.2587 O   0  0  0  0  0  0  0  0  0  0  0  0
    7.7348  -13.8012   19.1172 C   0  0  2  0  0  0  0  0  0  0  0  0
    7.1676  -12.4801   19.2107 N   0  0  0  0  0  0  0  0  0  0  0  0
    7.7635  -14.3992   20.4692 C   0  0  0  0  0  0  0  0  0  0  0  0
    7.6295  -13.6657   21.5053 O   0  0  0  0  0  0  0  0  0  0  0  0
    7.9319  -15.7886   20.6923 N   0  0  0  0  0  0  0  0  0  0  0  0
    7.8935  -16.4034   21.9721 C   0  0  1  0  0  0  0  0  0  0  0  0
    7.0292  -17.5833   22.1666 C   0  0  0  0  0  0  0  0  0  0  0  0
    7.1086  -18.2956   23.4681 C   0  0  0  0  0  0  0  0  0  0  0  0
    6.3081  -19.5343   23.6178 C   0  0  0  0  0  0  0  0  0  0  0  0
    6.5456  -20.0364   25.0538 C   0  0  0  0  0  0  0  0  0  0  0  0
    5.8297  -21.2829   25.2672 N   0  0  0  0  0  0  0  0  0  0  0  0
    9.3074  -16.7034   22.4278 C   0  0  0  0  0  0  0  0  0  0  0  0
    9.7056  -17.8986   22.4401 O   0  0  0  0  0  0  0  0  0  0  0  0
   10.3368  -14.9864   30.5440 O   0  0  0  0  0  0  0  0  0  0  0  0
   10.0486  -14.9885   29.1811 C   0  0  0  0  0  0  0  0  0  0  0  0
   10.1883  -16.1977   28.5110 C   0  0  0  0  0  0  0  0  0  0  0  0
    9.9190  -16.2637   27.1573 C   0  0  0  0  0  0  0  0  0  0  0  0
    9.5080  -15.1362   26.4528 C   0  0  0  0  0  0  0  0  0  0  0  0
    9.2260  -15.2493   25.0152 C   0  0  0  0  0  0  0  0  0  0  0  0
   10.4771  -15.5407   24.2553 C   0  0  2  0  0  0  0  0  0  0  0  0
   10.2038  -15.7151   22.8408 N   0  0  0  0  0  0  0  0  0  0  0  0
   11.2300  -16.7295   24.7597 C   0  0  0  0  0  0  0  0  0  0  0  0
   10.6189  -17.9778   24.7803 O   0  0  0  0  0  0  0  0  0  0  0  0
    9.3842  -13.9641   27.1639 C   0  0  0  0  0  0  0  0  0  0  0  0
    9.6459  -13.8716   28.5075 C   0  0  0  0  0  0  0  0  0  0  0  0
   12.4088  -16.6860   25.1824 O   0  0  0  0  0  0  0  0  0  0  0  0
  2  3  1  0
  2  1  1  6
  4  2  1  0
  4  5  1  1
  6  7  2  0
  6  4  1  0
  8  6  1  0
  9  8  1  0
  9 10  1  6
 11 12  1  0
 11 10  1  0
 12 13  1  0
 14 13  1  0
 15 24  1  0
 15  9  1  0
 16 15  2  0
 18 17  1  0
 19 18  2  0
 20 19  1  0
 21 27  1  0
 21 20  2  0
 23 22  1  1
 22 21  1  0
 23 24  1  0
 23 25  1  0
 25 26  1  0
 27 28  2  0
 28 18  1  0
 29 25  2  0
M  END
$$$$
