TKY.pdb
     RDKit          3D

 29 29  0  0  1  0  0  0  0  0999 V2000
   11.0500  -14.6838   19.4854 C   0  0  0  0  0  0  0  0  0  0  0  0
   10.3875  -13.3818   19.0691 C   0  0  1  0  0  0  0  0  0  0  0  0
   11.0239  -12.7945   17.9885 O   0  0  0  0  0  0  0  0  0  0  0  0
    8.9622  -13.6243   18.7265 C   0  0  2  0  0  0  0  0  0  0  0  0
    8.2283  -12.4190   18.4360 N   0  0  0  0  0  0  0  0  0  0  0  0
    8.2865  -14.3326   19.8347 C   0  0  0  0  0  0  0  0  0  0  0  0
    7.6656  -13.6791   20.7386 O   0  0  0  0  0  0  0  0  0  0  0  0
    8.2821  -15.7447   19.9558 N   0  0  0  0  0  0  0  0  0  0  0  0
    7.6081  -16.4570   20.9832 C   0  0  1  0  0  0  0  0  0  0  0  0
    7.2740  -17.8768   20.7602 C   0  0  0  0  0  0  0  0  0  0  0  0
    6.3566  -18.2068   19.6390 C   0  0  0  0  0  0  0  0  0  0  0  0
    6.1461  -19.6412   19.3294 C   0  0  0  0  0  0  0  0  0  0  0  0
    5.1528  -19.6925   18.1541 C   0  0  0  0  0  0  0  0  0  0  0  0
    4.9819  -21.0656   17.7099 N   0  0  0  0  0  0  0  0  0  0  0  0
    8.3615  -16.2901   22.2875 C   0  0  0  0  0  0  0  0  0  0  0  0
    9.6159  -16.4076   22.2888 O   0  0  0  0  0  0  0  0  0  0  0  0
   10.8000  -14.5043   30.4663 O   0  0  0  0  0  0  0  0  0  0  0  0
   10.1857  -14.5301   29.2163 C   0  0  0  0  0  0  0  0  0  0  0  0
    8.8688  -14.9713   29.1722 C   0  0  0  0  0  0  0  0  0  0  0  0
    8.2054  -15.0217   27.9611 C   0  0  0  0  0  0  0  0  0  0  0  0
    8.8360  -14.6355   26.7822 C   0  0  0  0  0  0  0  0  0  0  0  0
    8.0939  -14.6983   25.5155 C   0  0  0  0  0  0  0  0  0  0  0  0
    8.5308  -15.8751   24.7080 C   0  0  2  0  0  0  0  0  0  0  0  0
    7.7333  -16.0106   23.5033 N   0  0  0  0  0  0  0  0  0  0  0  0
    8.5086  -17.1676   25.4589 C   0  0  0  0  0  0  0  0  0  0  0  0
    7.3321  -17.9039   25.5342 O   0  0  0  0  0  0  0  0  0  0  0  0
   10.1397  -14.2053   26.8813 C   0  0  0  0  0  0  0  0  0  0  0  0
   10.8210  -14.1465   28.0707 C   0  0  0  0  0  0  0  0  0  0  0  0
    9.5019  -17.6539   26.0481 O   0  0  0  0  0  0  0  0  0  0  0  0
  2  3  1  0
  2  1  1  6
  4  2  1  0
  4  5  1  1
  6  7  2  0
  6  4  1  0
  8  6  1  0
  9  8  1  0
  9 10  1  6
 11 12  1  0
 11 10  1  0
 12 13  1  0
 14 13  1  0
 15 24  1  0
 15  9  1  0
 16 15  2  0
 18 17  1  0
 19 18  2  0
 20 19  1  0
 21 27  1  0
 21 20  2  0
 23 22  1  1
 22 21  1  0
 23 24  1  0
 23 25  1  0
 25 26  1  0
 27 28  2  0
 28 18  1  0
 29 25  2  0
M  END
$$$$
