TKY.pdb
     RDKit          3D

 29 29  0  0  1  0  0  0  0  0999 V2000
   19.1707  -23.2018   27.6232 C   0  0  0  0  0  0  0  0  0  0  0  0
   17.6853  -22.9296   27.7864 C   0  0  1  0  0  0  0  0  0  0  0  0
   17.4410  -21.8441   28.6109 O   0  0  0  0  0  0  0  0  0  0  0  0
   17.0648  -22.6863   26.4584 C   0  0  2  0  0  0  0  0  0  0  0  0
   17.6756  -21.6046   25.7286 N   0  0  0  0  0  0  0  0  0  0  0  0
   15.6239  -22.3944   26.6165 C   0  0  0  0  0  0  0  0  0  0  0  0
   15.1288  -21.3090   26.1623 O   0  0  0  0  0  0  0  0  0  0  0  0
   14.7255  -23.2814   27.2607 N   0  0  0  0  0  0  0  0  0  0  0  0
   13.3418  -23.0218   27.4477 C   0  0  1  0  0  0  0  0  0  0  0  0
   12.4163  -24.1641   27.5723 C   0  0  0  0  0  0  0  0  0  0  0  0
   10.9657  -23.8715   27.7070 C   0  0  0  0  0  0  0  0  0  0  0  0
   10.0519  -25.0237   27.8938 C   0  0  0  0  0  0  0  0  0  0  0  0
    8.6302  -24.4410   27.9946 C   0  0  0  0  0  0  0  0  0  0  0  0
    7.6694  -25.5121   28.1976 N   0  0  0  0  0  0  0  0  0  0  0  0
   13.1626  -22.0674   28.6112 C   0  0  0  0  0  0  0  0  0  0  0  0
   12.0298  -21.5541   28.8127 O   0  0  0  0  0  0  0  0  0  0  0  0
   11.2858  -26.3266   32.3630 O   0  0  0  0  0  0  0  0  0  0  0  0
   11.9512  -25.1077   32.2543 C   0  0  0  0  0  0  0  0  0  0  0  0
   13.3331  -25.1560   32.1166 C   0  0  0  0  0  0  0  0  0  0  0  0
   14.0502  -23.9800   32.0061 C   0  0  0  0  0  0  0  0  0  0  0  0
   13.4091  -22.7451   32.0294 C   0  0  0  0  0  0  0  0  0  0  0  0
   14.2071  -21.5178   31.9032 C   0  0  0  0  0  0  0  0  0  0  0  0
   13.9269  -20.8397   30.6034 C   0  0  2  0  0  0  0  0  0  0  0  0
   14.1978  -21.7206   29.4825 N   0  0  0  0  0  0  0  0  0  0  0  0
   14.6755  -19.5598   30.4134 C   0  0  0  0  0  0  0  0  0  0  0  0
   14.7060  -18.6179   31.4351 O   0  0  0  0  0  0  0  0  0  0  0  0
   12.0395  -22.7530   32.1663 C   0  0  0  0  0  0  0  0  0  0  0  0
   11.3043  -23.9059   32.2785 C   0  0  0  0  0  0  0  0  0  0  0  0
   15.2966  -19.2588   29.3675 O   0  0  0  0  0  0  0  0  0  0  0  0
  2  3  1  0
  2  1  1  6
  4  2  1  0
  4  5  1  1
  6  7  2  0
  6  4  1  0
  8  6  1  0
  9  8  1  0
  9 10  1  1
 11 12  1  0
 11 10  1  0
 12 13  1  0
 14 13  1  0
 15 24  1  0
 15  9  1  0
 16 15  2  0
 18 17  1  0
 19 18  2  0
 20 19  1  0
 21 27  1  0
 21 20  2  0
 23 22  1  1
 22 21  1  0
 23 24  1  0
 23 25  1  0
 25 26  1  0
 27 28  2  0
 28 18  1  0
 29 25  2  0
M  END
$$$$
