TKY.pdb
     RDKit          3D

 29 29  0  0  1  0  0  0  0  0999 V2000
    5.0346  -20.3442   24.5402 C   0  0  0  0  0  0  0  0  0  0  0  0
    5.9141  -19.2120   24.0385 C   0  0  1  0  0  0  0  0  0  0  0  0
    7.2131  -19.3129   24.5076 O   0  0  0  0  0  0  0  0  0  0  0  0
    5.9287  -19.2005   22.5528 C   0  0  2  0  0  0  0  0  0  0  0  0
    6.4140  -20.4271   21.9737 N   0  0  0  0  0  0  0  0  0  0  0  0
    6.7640  -18.0837   22.0613 C   0  0  0  0  0  0  0  0  0  0  0  0
    7.9515  -18.2973   21.6447 O   0  0  0  0  0  0  0  0  0  0  0  0
    6.3075  -16.7426   22.0186 N   0  0  0  0  0  0  0  0  0  0  0  0
    7.1180  -15.6333   21.6587 C   0  0  1  0  0  0  0  0  0  0  0  0
    6.4734  -14.4479   21.0616 C   0  0  0  0  0  0  0  0  0  0  0  0
    7.3364  -13.4776   20.3394 C   0  0  0  0  0  0  0  0  0  0  0  0
    7.8162  -13.8634   18.9908 C   0  0  0  0  0  0  0  0  0  0  0  0
    8.6034  -12.6574   18.4464 C   0  0  0  0  0  0  0  0  0  0  0  0
    8.9514  -12.8814   17.0533 N   0  0  0  0  0  0  0  0  0  0  0  0
    7.9719  -15.2295   22.8438 C   0  0  0  0  0  0  0  0  0  0  0  0
    7.5271  -14.3745   23.6553 O   0  0  0  0  0  0  0  0  0  0  0  0
    5.5431  -11.7492   27.0265 O   0  0  0  0  0  0  0  0  0  0  0  0
    6.3892  -12.7751   26.6116 C   0  0  0  0  0  0  0  0  0  0  0  0
    7.6366  -12.8459   27.2198 C   0  0  0  0  0  0  0  0  0  0  0  0
    8.5217  -13.8404   26.8496 C   0  0  0  0  0  0  0  0  0  0  0  0
    8.1827  -14.7752   25.8761 C   0  0  0  0  0  0  0  0  0  0  0  0
    9.1499  -15.8206   25.5148 C   0  0  0  0  0  0  0  0  0  0  0  0
    9.9379  -15.4155   24.3136 C   0  0  2  0  0  0  0  0  0  0  0  0
    9.2410  -15.7593   23.0881 N   0  0  0  0  0  0  0  0  0  0  0  0
   11.3172  -15.9902   24.2712 C   0  0  0  0  0  0  0  0  0  0  0  0
   12.2288  -15.6759   25.2723 O   0  0  0  0  0  0  0  0  0  0  0  0
    6.9350  -14.6614   25.3061 C   0  0  0  0  0  0  0  0  0  0  0  0
    6.0381  -13.6834   25.6550 C   0  0  0  0  0  0  0  0  0  0  0  0
   11.7304  -16.7574   23.3706 O   0  0  0  0  0  0  0  0  0  0  0  0
  2  3  1  0
  2  1  1  6
  4  2  1  0
  4  5  1  1
  6  7  2  0
  6  4  1  0
  8  6  1  0
  9  8  1  0
  9 10  1  1
 11 12  1  0
 11 10  1  0
 12 13  1  0
 14 13  1  0
 15 24  1  0
 15  9  1  0
 16 15  2  0
 18 17  1  0
 19 18  2  0
 20 19  1  0
 21 27  1  0
 21 20  2  0
 23 22  1  1
 22 21  1  0
 23 24  1  0
 23 25  1  0
 25 26  1  0
 27 28  2  0
 28 18  1  0
 29 25  2  0
M  END
$$$$
