TKY.pdb
     RDKit          3D

 29 29  0  0  1  0  0  0  0  0999 V2000
    4.4438  -19.6036   23.3050 C   0  0  0  0  0  0  0  0  0  0  0  0
    5.6483  -18.6928   23.1415 C   0  0  1  0  0  0  0  0  0  0  0  0
    6.7310  -19.1193   23.8923 O   0  0  0  0  0  0  0  0  0  0  0  0
    6.0411  -18.6225   21.7103 C   0  0  2  0  0  0  0  0  0  0  0  0
    6.3156  -19.9105   21.1261 N   0  0  0  0  0  0  0  0  0  0  0  0
    7.2378  -17.7683   21.5531 C   0  0  0  0  0  0  0  0  0  0  0  0
    8.4083  -18.2707   21.6381 O   0  0  0  0  0  0  0  0  0  0  0  0
    7.1612  -16.3760   21.2995 N   0  0  0  0  0  0  0  0  0  0  0  0
    8.2893  -15.5203   21.1882 C   0  0  1  0  0  0  0  0  0  0  0  0
    8.1900  -14.3236   20.3309 C   0  0  0  0  0  0  0  0  0  0  0  0
    7.1242  -14.2970   19.2959 C   0  0  0  0  0  0  0  0  0  0  0  0
    7.1525  -13.1851   18.3159 C   0  0  0  0  0  0  0  0  0  0  0  0
    8.2571  -13.5276   17.2994 C   0  0  0  0  0  0  0  0  0  0  0  0
    8.2597  -12.5511   16.2232 N   0  0  0  0  0  0  0  0  0  0  0  0
    8.7690  -15.1389   22.5742 C   0  0  0  0  0  0  0  0  0  0  0  0
    8.1260  -14.2749   23.2280 O   0  0  0  0  0  0  0  0  0  0  0  0
   10.5656  -15.1886   30.8767 O   0  0  0  0  0  0  0  0  0  0  0  0
   10.1820  -15.2822   29.5409 C   0  0  0  0  0  0  0  0  0  0  0  0
   10.4019  -16.4993   28.9075 C   0  0  0  0  0  0  0  0  0  0  0  0
   10.0446  -16.6539   27.5817 C   0  0  0  0  0  0  0  0  0  0  0  0
    9.4655  -15.6082   26.8691 C   0  0  0  0  0  0  0  0  0  0  0  0
    9.0946  -15.8148   25.4625 C   0  0  0  0  0  0  0  0  0  0  0  0
   10.2041  -15.3910   24.5584 C   0  0  2  0  0  0  0  0  0  0  0  0
    9.8996  -15.6989   23.1735 N   0  0  0  0  0  0  0  0  0  0  0  0
   11.5321  -15.9797   24.9113 C   0  0  0  0  0  0  0  0  0  0  0  0
   11.9457  -17.1632   24.3113 O   0  0  0  0  0  0  0  0  0  0  0  0
    9.2683  -14.4245   27.5435 C   0  0  0  0  0  0  0  0  0  0  0  0
    9.6146  -14.2448   28.8589 C   0  0  0  0  0  0  0  0  0  0  0  0
   12.3274  -15.4728   25.7364 O   0  0  0  0  0  0  0  0  0  0  0  0
  2  3  1  0
  2  1  1  6
  4  2  1  0
  4  5  1  1
  6  7  2  0
  6  4  1  0
  8  6  1  0
  9  8  1  0
  9 10  1  6
 11 12  1  0
 11 10  1  0
 12 13  1  0
 14 13  1  0
 15 24  1  0
 15  9  1  0
 16 15  2  0
 18 17  1  0
 19 18  2  0
 20 19  1  0
 21 27  1  0
 21 20  2  0
 23 22  1  1
 22 21  1  0
 23 24  1  0
 23 25  1  0
 25 26  1  0
 27 28  2  0
 28 18  1  0
 29 25  2  0
M  END
$$$$
