SLA.pdb
     RDKit          3D

 20 19  0  0  1  0  0  0  0  0999 V2000
    7.2183  -16.9527   20.9383 O   0  0  0  0  0  0  0  0  0  0  0  0
    6.2913  -15.9135   21.1287 C   0  0  0  0  0  0  0  0  0  0  0  0
    6.9720  -14.5814   21.2096 C   0  0  2  0  0  0  0  0  0  0  0  0
    7.7907  -14.3392   20.0443 N   0  0  0  0  0  0  0  0  0  0  0  0
    7.8067  -14.5759   22.4588 C   0  0  0  0  0  0  0  0  0  0  0  0
    9.0580  -14.6634   22.4073 O   0  0  0  0  0  0  0  0  0  0  0  0
    8.0754  -11.5805   25.8668 C   0  0  0  0  0  0  0  0  0  0  0  0
    6.8350  -12.4686   25.8607 C   0  0  2  0  0  0  0  0  0  0  0  0
    5.8958  -12.0381   26.9502 C   0  0  0  0  0  0  0  0  0  0  0  0
    7.2153  -13.9014   26.0824 C   0  0  0  0  0  0  0  0  0  0  0  0
    8.0298  -14.4835   24.9720 C   0  0  2  0  0  0  0  0  0  0  0  0
    7.2224  -14.4725   23.7425 N   0  0  0  0  0  0  0  0  0  0  0  0
    8.5149  -15.8470   25.2498 C   0  0  0  0  0  0  0  0  0  0  0  0
    7.7580  -16.8313   25.4019 O   0  0  0  0  0  0  0  0  0  0  0  0
   11.8264  -17.5744   25.0164 C   0  0  0  0  0  0  0  0  0  0  0  0
   10.4510  -17.4089   25.6535 C   0  0  2  0  0  0  0  0  0  0  0  0
    9.9205  -16.0888   25.3572 N   0  0  0  0  0  0  0  0  0  0  0  0
   10.5834  -17.6276   27.1116 C   0  0  0  0  0  0  0  0  0  0  0  0
   11.0981  -18.8187   27.5902 O   0  0  0  0  0  0  0  0  0  0  0  0
   10.2403  -16.7576   27.9541 O   0  0  0  0  0  0  0  0  0  0  0  0
  2  1  1  0
  3  2  1  0
  3  4  1  6
  5  3  1  0
  5  6  2  0
  8  7  1  1
  8 10  1  0
  9  8  1  0
 11 10  1  1
 11 13  1  0
 11 12  1  0
 12  5  1  0
 13 17  1  0
 14 13  2  0
 16 15  1  6
 16 18  1  0
 17 16  1  0
 18 20  2  0
 18 19  1  0
M  END
$$$$
