SLA.pdb
     RDKit          3D

 20 19  0  0  1  0  0  0  0  0999 V2000
    9.3794  -19.6762   18.6837 O   0  0  0  0  0  0  0  0  0  0  0  0
    8.4052  -18.8634   18.0789 C   0  0  0  0  0  0  0  0  0  0  0  0
    9.0265  -17.6927   17.3804 C   0  0  2  0  0  0  0  0  0  0  0  0
   10.0349  -18.1192   16.4381 N   0  0  0  0  0  0  0  0  0  0  0  0
    9.6226  -16.8027   18.4338 C   0  0  0  0  0  0  0  0  0  0  0  0
   10.8661  -16.6840   18.5598 O   0  0  0  0  0  0  0  0  0  0  0  0
    9.1334  -12.3748   19.2041 C   0  0  0  0  0  0  0  0  0  0  0  0
    7.9641  -13.2643   19.6153 C   0  0  2  0  0  0  0  0  0  0  0  0
    6.8083  -12.4135   20.0563 C   0  0  0  0  0  0  0  0  0  0  0  0
    8.3638  -14.1671   20.7430 C   0  0  0  0  0  0  0  0  0  0  0  0
    9.3872  -15.1872   20.3597 C   0  0  2  0  0  0  0  0  0  0  0  0
    8.8131  -16.0623   19.3262 N   0  0  0  0  0  0  0  0  0  0  0  0
    9.8712  -15.9915   21.4958 C   0  0  0  0  0  0  0  0  0  0  0  0
    9.1662  -16.2782   22.4885 O   0  0  0  0  0  0  0  0  0  0  0  0
   12.4354  -18.5502   21.9333 C   0  0  0  0  0  0  0  0  0  0  0  0
   11.7153  -17.3526   22.5434 C   0  0  2  0  0  0  0  0  0  0  0  0
   11.2140  -16.4842   21.4916 N   0  0  0  0  0  0  0  0  0  0  0  0
   12.6629  -16.6415   23.4309 C   0  0  0  0  0  0  0  0  0  0  0  0
   13.0383  -15.3415   23.1451 O   0  0  0  0  0  0  0  0  0  0  0  0
   13.1532  -17.1801   24.4576 O   0  0  0  0  0  0  0  0  0  0  0  0
  2  1  1  0
  3  2  1  0
  3  4  1  6
  5  3  1  0
  5  6  2  0
  8  7  1  1
  8 10  1  0
  9  8  1  0
 11 10  1  1
 11 13  1  0
 11 12  1  0
 12  5  1  0
 13 17  1  0
 14 13  2  0
 16 15  1  6
 16 18  1  0
 17 16  1  0
 18 20  2  0
 18 19  1  0
M  END
$$$$
