SLA.pdb
     RDKit          3D

 20 19  0  0  1  0  0  0  0  0999 V2000
    8.8810  -18.0352   21.5430 O   0  0  0  0  0  0  0  0  0  0  0  0
    7.7568  -17.1930   21.5913 C   0  0  0  0  0  0  0  0  0  0  0  0
    8.1208  -15.7758   21.2693 C   0  0  2  0  0  0  0  0  0  0  0  0
    9.2298  -15.7163   20.3456 N   0  0  0  0  0  0  0  0  0  0  0  0
    8.4661  -15.0933   22.5625 C   0  0  0  0  0  0  0  0  0  0  0  0
    9.6599  -14.8954   22.8968 O   0  0  0  0  0  0  0  0  0  0  0  0
    5.4690  -11.9902   27.0340 C   0  0  0  0  0  0  0  0  0  0  0  0
    6.7962  -12.5224   26.5025 C   0  0  2  0  0  0  0  0  0  0  0  0
    7.7572  -11.3859   26.3045 C   0  0  0  0  0  0  0  0  0  0  0  0
    6.5932  -13.2233   25.1933 C   0  0  0  0  0  0  0  0  0  0  0  0
    7.7943  -13.9821   24.7276 C   0  0  2  0  0  0  0  0  0  0  0  0
    7.4662  -14.6456   23.4566 N   0  0  0  0  0  0  0  0  0  0  0  0
    8.2824  -14.9701   25.7061 C   0  0  0  0  0  0  0  0  0  0  0  0
    8.6990  -14.6654   26.8456 O   0  0  0  0  0  0  0  0  0  0  0  0
    7.9494  -18.7074   25.9299 C   0  0  0  0  0  0  0  0  0  0  0  0
    8.5927  -17.3883   26.3438 C   0  0  2  0  0  0  0  0  0  0  0  0
    8.2925  -16.3587   25.3633 N   0  0  0  0  0  0  0  0  0  0  0  0
   10.0512  -17.6031   26.4785 C   0  0  0  0  0  0  0  0  0  0  0  0
   10.9306  -16.9309   25.6493 O   0  0  0  0  0  0  0  0  0  0  0  0
   10.5373  -18.3883   27.3338 O   0  0  0  0  0  0  0  0  0  0  0  0
  2  1  1  0
  3  2  1  0
  3  4  1  6
  5  3  1  0
  5  6  2  0
  8  7  1  6
  8 10  1  0
  9  8  1  0
 11 10  1  1
 11 13  1  0
 11 12  1  0
 12  5  1  0
 13 17  1  0
 14 13  2  0
 16 15  1  6
 16 18  1  0
 17 16  1  0
 18 20  2  0
 18 19  1  0
M  END
$$$$
