SLA.pdb
     RDKit          3D

 20 19  0  0  1  0  0  0  0  0999 V2000
    7.0925  -20.1724   17.4006 O   0  0  0  0  0  0  0  0  0  0  0  0
    7.7449  -19.2872   18.2758 C   0  0  0  0  0  0  0  0  0  0  0  0
    8.0989  -18.0025   17.5911 C   0  0  2  0  0  0  0  0  0  0  0  0
    8.8411  -18.2436   16.3754 N   0  0  0  0  0  0  0  0  0  0  0  0
    8.9079  -17.1841   18.5569 C   0  0  0  0  0  0  0  0  0  0  0  0
   10.1631  -17.1988   18.5323 O   0  0  0  0  0  0  0  0  0  0  0  0
    9.0653  -12.8008   19.2659 C   0  0  0  0  0  0  0  0  0  0  0  0
    7.8420  -13.4981   19.8530 C   0  0  2  0  0  0  0  0  0  0  0  0
    6.8862  -12.4760   20.3971 C   0  0  0  0  0  0  0  0  0  0  0  0
    8.2475  -14.4246   20.9592 C   0  0  0  0  0  0  0  0  0  0  0  0
    9.0775  -15.5797   20.4989 C   0  0  2  0  0  0  0  0  0  0  0  0
    8.2943  -16.3643   19.5322 N   0  0  0  0  0  0  0  0  0  0  0  0
    9.5435  -16.4446   21.5974 C   0  0  0  0  0  0  0  0  0  0  0  0
    8.7880  -17.1970   22.2515 O   0  0  0  0  0  0  0  0  0  0  0  0
   12.9782  -17.4034   22.8702 C   0  0  0  0  0  0  0  0  0  0  0  0
   11.4573  -17.3490   22.9649 C   0  0  2  0  0  0  0  0  0  0  0  0
   10.9276  -16.4452   21.9579 N   0  0  0  0  0  0  0  0  0  0  0  0
   11.0907  -16.9157   24.3321 C   0  0  0  0  0  0  0  0  0  0  0  0
   10.3334  -15.7734   24.5179 O   0  0  0  0  0  0  0  0  0  0  0  0
   11.4459  -17.5555   25.3563 O   0  0  0  0  0  0  0  0  0  0  0  0
  2  1  1  0
  3  2  1  0
  3  4  1  6
  5  3  1  0
  5  6  2  0
  8  7  1  1
  8 10  1  0
  9  8  1  0
 11 10  1  1
 11 13  1  0
 11 12  1  0
 12  5  1  0
 13 17  1  0
 14 13  2  0
 16 15  1  1
 16 18  1  0
 17 16  1  0
 18 20  2  0
 18 19  1  0
M  END
$$$$
