SLA.pdb
     RDKit          3D

 20 19  0  0  1  0  0  0  0  0999 V2000
    6.6844  -17.4419   20.4322 O   0  0  0  0  0  0  0  0  0  0  0  0
    7.8194  -17.0160   21.1433 C   0  0  0  0  0  0  0  0  0  0  0  0
    7.8402  -15.5261   21.2988 C   0  0  2  0  0  0  0  0  0  0  0  0
    8.6105  -14.9001   20.2492 N   0  0  0  0  0  0  0  0  0  0  0  0
    8.4286  -15.2211   22.6471 C   0  0  0  0  0  0  0  0  0  0  0  0
    9.6707  -15.1492   22.8155 O   0  0  0  0  0  0  0  0  0  0  0  0
    8.2409  -11.8070   25.7024 C   0  0  0  0  0  0  0  0  0  0  0  0
    6.9669  -12.6224   25.5045 C   0  0  2  0  0  0  0  0  0  0  0  0
    5.8488  -12.0217   26.3066 C   0  0  0  0  0  0  0  0  0  0  0  0
    7.1776  -14.0392   25.9458 C   0  0  0  0  0  0  0  0  0  0  0  0
    8.1798  -14.7807   25.1207 C   0  0  2  0  0  0  0  0  0  0  0  0
    7.6131  -15.0022   23.7815 N   0  0  0  0  0  0  0  0  0  0  0  0
    8.5983  -16.0629   25.7145 C   0  0  0  0  0  0  0  0  0  0  0  0
    7.7944  -16.9445   26.0904 O   0  0  0  0  0  0  0  0  0  0  0  0
   11.8994  -17.8606   25.9756 C   0  0  0  0  0  0  0  0  0  0  0  0
   10.4593  -17.6126   26.4113 C   0  0  2  0  0  0  0  0  0  0  0  0
    9.9909  -16.3427   25.8828 N   0  0  0  0  0  0  0  0  0  0  0  0
   10.4089  -17.6385   27.8906 C   0  0  0  0  0  0  0  0  0  0  0  0
   10.7855  -18.7783   28.5774 O   0  0  0  0  0  0  0  0  0  0  0  0
   10.0299  -16.6464   28.5661 O   0  0  0  0  0  0  0  0  0  0  0  0
  2  1  1  0
  3  2  1  0
  3  4  1  6
  5  3  1  0
  5  6  2  0
  8  7  1  1
  8 10  1  0
  9  8  1  0
 11 10  1  1
 11 13  1  0
 11 12  1  0
 12  5  1  0
 13 17  1  0
 14 13  2  0
 16 15  1  1
 16 18  1  0
 17 16  1  0
 18 20  2  0
 18 19  1  0
M  END
$$$$
