SLA.pdb
     RDKit          3D

 20 19  0  0  1  0  0  0  0  0999 V2000
    7.3882  -17.0912   21.1735 O   0  0  0  0  0  0  0  0  0  0  0  0
    6.4539  -16.0434   21.1063 C   0  0  0  0  0  0  0  0  0  0  0  0
    7.1262  -14.7061   21.1726 C   0  0  2  0  0  0  0  0  0  0  0  0
    8.0091  -14.5068   20.0468 N   0  0  0  0  0  0  0  0  0  0  0  0
    7.8887  -14.6476   22.4658 C   0  0  0  0  0  0  0  0  0  0  0  0
    9.1346  -14.7993   22.4956 O   0  0  0  0  0  0  0  0  0  0  0  0
    7.9967  -11.4433   25.7061 C   0  0  0  0  0  0  0  0  0  0  0  0
    6.7467  -12.3179   25.7017 C   0  0  2  0  0  0  0  0  0  0  0  0
    5.7761  -11.8231   26.7348 C   0  0  0  0  0  0  0  0  0  0  0  0
    7.1022  -13.7413   26.0083 C   0  0  0  0  0  0  0  0  0  0  0  0
    7.9755  -14.3766   24.9744 C   0  0  2  0  0  0  0  0  0  0  0  0
    7.2398  -14.4202   23.7015 N   0  0  0  0  0  0  0  0  0  0  0  0
    8.4364  -15.7272   25.3421 C   0  0  0  0  0  0  0  0  0  0  0  0
    7.6671  -16.7025   25.4903 O   0  0  0  0  0  0  0  0  0  0  0  0
   11.7472  -17.4326   25.1791 C   0  0  0  0  0  0  0  0  0  0  0  0
   10.3538  -17.3015   25.7844 C   0  0  2  0  0  0  0  0  0  0  0  0
    9.8315  -15.9663   25.5474 N   0  0  0  0  0  0  0  0  0  0  0  0
   10.4441  -17.6017   27.2312 C   0  0  0  0  0  0  0  0  0  0  0  0
   10.0392  -16.6615   28.1611 O   0  0  0  0  0  0  0  0  0  0  0  0
   10.8831  -18.6999   27.6622 O   0  0  0  0  0  0  0  0  0  0  0  0
  2  1  1  0
  3  2  1  0
  3  4  1  6
  5  3  1  0
  5  6  2  0
  8  7  1  1
  8 10  1  0
  9  8  1  0
 11 10  1  1
 11 13  1  0
 11 12  1  0
 12  5  1  0
 13 17  1  0
 14 13  2  0
 16 15  1  1
 16 18  1  0
 17 16  1  0
 18 20  2  0
 18 19  1  0
M  END
$$$$
