SLA.pdb
     RDKit          3D

 20 19  0  0  1  0  0  0  0  0999 V2000
    8.0954  -17.0956   21.4097 O   0  0  0  0  0  0  0  0  0  0  0  0
    6.9999  -16.2658   21.1156 C   0  0  0  0  0  0  0  0  0  0  0  0
    7.3957  -14.8209   21.1041 C   0  0  2  0  0  0  0  0  0  0  0  0
    8.3159  -14.5379   20.0271 N   0  0  0  0  0  0  0  0  0  0  0  0
    8.0210  -14.5134   22.4351 C   0  0  0  0  0  0  0  0  0  0  0  0
    9.2248  -14.1688   22.5260 O   0  0  0  0  0  0  0  0  0  0  0  0
    7.7475  -11.5047   26.1263 C   0  0  0  0  0  0  0  0  0  0  0  0
    6.4965  -12.2964   25.7581 C   0  0  2  0  0  0  0  0  0  0  0  0
    5.3798  -11.9500   26.6999 C   0  0  0  0  0  0  0  0  0  0  0  0
    6.7651  -13.7687   25.8402 C   0  0  0  0  0  0  0  0  0  0  0  0
    7.8659  -14.2278   24.9389 C   0  0  2  0  0  0  0  0  0  0  0  0
    7.2846  -14.5981   23.6395 N   0  0  0  0  0  0  0  0  0  0  0  0
    8.6450  -15.3525   25.4867 C   0  0  0  0  0  0  0  0  0  0  0  0
    9.0619  -15.3940   26.6653 O   0  0  0  0  0  0  0  0  0  0  0  0
    9.4619  -18.8179   24.2171 C   0  0  0  0  0  0  0  0  0  0  0  0
    9.6619  -17.6347   25.1579 C   0  0  2  0  0  0  0  0  0  0  0  0
    8.9569  -16.4699   24.6501 N   0  0  0  0  0  0  0  0  0  0  0  0
   11.1147  -17.3797   25.2837 C   0  0  0  0  0  0  0  0  0  0  0  0
   11.9409  -18.3373   25.8432 O   0  0  0  0  0  0  0  0  0  0  0  0
   11.6431  -16.3054   24.8951 O   0  0  0  0  0  0  0  0  0  0  0  0
  2  1  1  0
  3  2  1  0
  3  4  1  6
  5  3  1  0
  5  6  2  0
  8  7  1  1
  8 10  1  0
  9  8  1  0
 11 10  1  1
 11 13  1  0
 11 12  1  0
 12  5  1  0
 13 17  1  0
 14 13  2  0
 16 15  1  6
 16 18  1  0
 17 16  1  0
 18 20  2  0
 18 19  1  0
M  END
$$$$
