SLA.pdb
     RDKit          3D

 20 19  0  0  1  0  0  0  0  0999 V2000
    8.5986  -14.8446   19.6711 O   0  0  0  0  0  0  0  0  0  0  0  0
    9.1606  -14.7399   20.9551 C   0  0  0  0  0  0  0  0  0  0  0  0
    8.7102  -15.8599   21.8423 C   0  0  2  0  0  0  0  0  0  0  0  0
    7.3143  -16.1665   21.6321 N   0  0  0  0  0  0  0  0  0  0  0  0
    8.9557  -15.4373   23.2630 C   0  0  0  0  0  0  0  0  0  0  0  0
   10.1077  -15.1425   23.6658 O   0  0  0  0  0  0  0  0  0  0  0  0
    8.1716  -11.9617   26.0743 C   0  0  0  0  0  0  0  0  0  0  0  0
    6.9494  -12.7074   25.5475 C   0  0  2  0  0  0  0  0  0  0  0  0
    5.6965  -12.0242   26.0143 C   0  0  0  0  0  0  0  0  0  0  0  0
    6.9462  -14.1227   26.0408 C   0  0  0  0  0  0  0  0  0  0  0  0
    8.1310  -14.9162   25.5916 C   0  0  2  0  0  0  0  0  0  0  0  0
    7.9048  -15.3531   24.2054 N   0  0  0  0  0  0  0  0  0  0  0  0
    8.4214  -16.0782   26.4503 C   0  0  0  0  0  0  0  0  0  0  0  0
    8.6785  -15.9871   27.6711 O   0  0  0  0  0  0  0  0  0  0  0  0
    8.1927  -19.8216   25.9551 C   0  0  0  0  0  0  0  0  0  0  0  0
    8.6657  -18.5745   26.6940 C   0  0  2  0  0  0  0  0  0  0  0  0
    8.4164  -17.3925   25.8862 N   0  0  0  0  0  0  0  0  0  0  0  0
   10.1058  -18.7315   26.9989 C   0  0  0  0  0  0  0  0  0  0  0  0
   10.5264  -19.7205   27.8694 O   0  0  0  0  0  0  0  0  0  0  0  0
   10.9842  -17.9878   26.4893 O   0  0  0  0  0  0  0  0  0  0  0  0
  2  1  1  0
  3  2  1  0
  3  4  1  1
  5  3  1  0
  5  6  2  0
  8  7  1  1
  8 10  1  0
  9  8  1  0
 11 10  1  1
 11 13  1  0
 11 12  1  0
 12  5  1  0
 13 17  1  0
 14 13  2  0
 16 15  1  6
 16 18  1  0
 17 16  1  0
 18 20  2  0
 18 19  1  0
M  END
$$$$
