SLA.pdb
     RDKit          3D

 20 19  0  0  1  0  0  0  0  0999 V2000
    7.8809  -17.6032   21.1787 O   0  0  0  0  0  0  0  0  0  0  0  0
    6.8867  -16.6098   21.1916 C   0  0  0  0  0  0  0  0  0  0  0  0
    7.4857  -15.2369   21.2222 C   0  0  2  0  0  0  0  0  0  0  0  0
    8.4006  -15.0394   20.1218 N   0  0  0  0  0  0  0  0  0  0  0  0
    8.1928  -15.0819   22.5386 C   0  0  0  0  0  0  0  0  0  0  0  0
    9.4448  -15.1326   22.6162 O   0  0  0  0  0  0  0  0  0  0  0  0
    8.0897  -11.7716   25.5591 C   0  0  0  0  0  0  0  0  0  0  0  0
    6.8618  -12.6765   25.5826 C   0  0  2  0  0  0  0  0  0  0  0  0
    5.8495  -12.1354   26.5505 C   0  0  0  0  0  0  0  0  0  0  0  0
    7.2421  -14.0650   25.9998 C   0  0  0  0  0  0  0  0  0  0  0  0
    8.1643  -14.7470   25.0409 C   0  0  2  0  0  0  0  0  0  0  0  0
    7.4827  -14.8730   23.7436 N   0  0  0  0  0  0  0  0  0  0  0  0
    8.6239  -16.0682   25.5046 C   0  0  0  0  0  0  0  0  0  0  0  0
    7.8591  -17.0422   25.6811 O   0  0  0  0  0  0  0  0  0  0  0  0
   11.9516  -17.7598   25.7904 C   0  0  0  0  0  0  0  0  0  0  0  0
   10.5151  -17.5535   26.2582 C   0  0  2  0  0  0  0  0  0  0  0  0
   10.0125  -16.2783   25.7756 N   0  0  0  0  0  0  0  0  0  0  0  0
   10.4918  -17.6235   27.7367 C   0  0  0  0  0  0  0  0  0  0  0  0
   10.9509  -18.7558   28.3847 O   0  0  0  0  0  0  0  0  0  0  0  0
   10.0629  -16.6764   28.4462 O   0  0  0  0  0  0  0  0  0  0  0  0
  2  1  1  0
  3  2  1  0
  3  4  1  6
  5  3  1  0
  5  6  2  0
  8  7  1  1
  8 10  1  0
  9  8  1  0
 11 10  1  1
 11 13  1  0
 11 12  1  0
 12  5  1  0
 13 17  1  0
 14 13  2  0
 16 15  1  1
 16 18  1  0
 17 16  1  0
 18 20  2  0
 18 19  1  0
M  END
$$$$
