SLA.pdb
     RDKit          3D

 20 19  0  0  1  0  0  0  0  0999 V2000
    8.8686  -18.1340   22.6775 O   0  0  0  0  0  0  0  0  0  0  0  0
    7.9917  -17.4998   21.7807 C   0  0  0  0  0  0  0  0  0  0  0  0
    8.4465  -16.1081   21.4630 C   0  0  2  0  0  0  0  0  0  0  0  0
    9.6452  -16.1193   20.6570 N   0  0  0  0  0  0  0  0  0  0  0  0
    8.6871  -15.4028   22.7676 C   0  0  0  0  0  0  0  0  0  0  0  0
    9.8478  -15.2456   23.2195 O   0  0  0  0  0  0  0  0  0  0  0  0
    5.4182  -12.0309   26.8318 C   0  0  0  0  0  0  0  0  0  0  0  0
    6.7770  -12.5717   26.3974 C   0  0  2  0  0  0  0  0  0  0  0  0
    7.7260  -11.4325   26.1610 C   0  0  0  0  0  0  0  0  0  0  0  0
    6.6449  -13.3669   25.1338 C   0  0  0  0  0  0  0  0  0  0  0  0
    7.8465  -14.2001   24.8221 C   0  0  2  0  0  0  0  0  0  0  0  0
    7.6215  -14.8870   23.5411 N   0  0  0  0  0  0  0  0  0  0  0  0
    8.1730  -15.1792   25.8740 C   0  0  0  0  0  0  0  0  0  0  0  0
    8.5515  -14.8583   27.0223 O   0  0  0  0  0  0  0  0  0  0  0  0
    7.5884  -18.8751   26.2716 C   0  0  0  0  0  0  0  0  0  0  0  0
    8.3255  -17.5842   26.6114 C   0  0  2  0  0  0  0  0  0  0  0  0
    8.0610  -16.5779   25.5969 N   0  0  0  0  0  0  0  0  0  0  0  0
    9.7710  -17.8862   26.7146 C   0  0  0  0  0  0  0  0  0  0  0  0
   10.6672  -17.2929   25.8442 O   0  0  0  0  0  0  0  0  0  0  0  0
   10.2309  -18.6770   27.5792 O   0  0  0  0  0  0  0  0  0  0  0  0
  2  1  1  0
  3  2  1  0
  3  4  1  6
  5  3  1  0
  5  6  2  0
  8  7  1  6
  8 10  1  0
  9  8  1  0
 11 10  1  1
 11 13  1  0
 11 12  1  0
 12  5  1  0
 13 17  1  0
 14 13  2  0
 16 15  1  6
 16 18  1  0
 17 16  1  0
 18 20  2  0
 18 19  1  0
M  END
$$$$
