SLA.pdb
     RDKit          3D

 20 19  0  0  1  0  0  0  0  0999 V2000
    8.6203  -17.9995   22.2002 O   0  0  0  0  0  0  0  0  0  0  0  0
    7.5651  -17.0921   22.0036 C   0  0  0  0  0  0  0  0  0  0  0  0
    8.0689  -15.6873   21.8727 C   0  0  2  0  0  0  0  0  0  0  0  0
    9.1622  -15.6079   20.9319 N   0  0  0  0  0  0  0  0  0  0  0  0
    8.5052  -15.2350   23.2373 C   0  0  0  0  0  0  0  0  0  0  0  0
    9.7208  -15.1093   23.5249 O   0  0  0  0  0  0  0  0  0  0  0  0
    8.0156  -11.5272   25.7971 C   0  0  0  0  0  0  0  0  0  0  0  0
    6.7521  -12.3563   25.5888 C   0  0  2  0  0  0  0  0  0  0  0  0
    5.5768  -11.6569   26.2084 C   0  0  0  0  0  0  0  0  0  0  0  0
    6.9028  -13.7082   26.2182 C   0  0  0  0  0  0  0  0  0  0  0  0
    7.9880  -14.5356   25.6075 C   0  0  2  0  0  0  0  0  0  0  0  0
    7.5702  -14.9321   24.2541 N   0  0  0  0  0  0  0  0  0  0  0  0
    8.3378  -15.7269   26.4014 C   0  0  0  0  0  0  0  0  0  0  0  0
    8.7903  -15.6715   27.5663 O   0  0  0  0  0  0  0  0  0  0  0  0
    7.7177  -19.4263   25.9453 C   0  0  0  0  0  0  0  0  0  0  0  0
    8.4083  -18.2377   26.6050 C   0  0  2  0  0  0  0  0  0  0  0  0
    8.1616  -17.0291   25.8368 N   0  0  0  0  0  0  0  0  0  0  0  0
    9.8553  -18.5347   26.7027 C   0  0  0  0  0  0  0  0  0  0  0  0
   10.2938  -19.6047   27.4614 O   0  0  0  0  0  0  0  0  0  0  0  0
   10.7237  -17.8407   26.1123 O   0  0  0  0  0  0  0  0  0  0  0  0
  2  1  1  0
  3  2  1  0
  3  4  1  6
  5  3  1  0
  5  6  2  0
  8  7  1  1
  8 10  1  0
  9  8  1  0
 11 10  1  1
 11 13  1  0
 11 12  1  0
 12  5  1  0
 13 17  1  0
 14 13  2  0
 16 15  1  6
 16 18  1  0
 17 16  1  0
 18 20  2  0
 18 19  1  0
M  END
$$$$
