SSR.pdb
     RDKit          3D

 24 23  0  0  1  0  0  0  0  0999 V2000
   21.8259  -11.5423  -16.4065 O   0  0  0  0  0  0  0  0  0  0  0  0
   21.9518  -10.6586  -15.3326 C   0  0  0  0  0  0  0  0  0  0  0  0
   21.0297   -9.4886  -15.5971 C   0  0  2  0  0  0  0  0  0  0  0  0
   21.3411   -8.8909  -16.8596 N   0  0  0  0  0  0  0  0  0  0  0  0
   21.0278   -8.5173  -14.4852 C   0  0  0  0  0  0  0  0  0  0  0  0
   20.6173   -8.9028  -13.3602 O   0  0  0  0  0  0  0  0  0  0  0  0
   22.3810   -4.1288  -12.9282 O   0  0  0  0  0  0  0  0  0  0  0  0
   22.3435   -5.0320  -13.9810 C   0  0  0  0  0  0  0  0  0  0  0  0
   21.4056   -6.1832  -13.6239 C   0  0  2  0  0  0  0  0  0  0  0  0
   21.4703   -7.1796  -14.6490 N   0  0  0  0  0  0  0  0  0  0  0  0
   20.0483   -5.7151  -13.3360 C   0  0  0  0  0  0  0  0  0  0  0  0
   19.3031   -5.4740  -14.3413 O   0  0  0  0  0  0  0  0  0  0  0  0
   14.6386   -7.2643   -6.5472 N   0  0  0  0  0  0  0  0  0  0  0  0
   13.8309   -6.4500   -7.4207 C   0  0  0  0  0  0  0  0  0  0  0  0
   12.5692   -6.3667   -7.1821 N   0  0  0  0  0  0  0  0  0  0  0  0
   14.4548   -5.7746   -8.5045 N   0  0  0  0  0  0  0  0  0  0  0  0
   15.8304   -5.9772   -8.8122 C   0  0  0  0  0  0  0  0  0  0  0  0
   16.2460   -5.3567  -10.1276 C   0  0  0  0  0  0  0  0  0  0  0  0
   17.6864   -5.6411  -10.4570 C   0  0  0  0  0  0  0  0  0  0  0  0
   18.1293   -5.1348  -11.7785 C   0  0  2  0  0  0  0  0  0  0  0  0
   19.4994   -5.5097  -12.0524 N   0  0  0  0  0  0  0  0  0  0  0  0
   17.8835   -3.6943  -11.9967 C   0  0  0  0  0  0  0  0  0  0  0  0
   18.7831   -2.8120  -11.8908 O   0  0  0  0  0  0  0  0  0  0  0  0
   16.6219   -3.2248  -12.3376 O   0  0  0  0  0  0  0  0  0  0  0  0
  2  3  1  0
  2  1  1  0
  3  4  1  6
  5  3  1  0
  6  5  2  0
  8  7  1  0
  9  8  1  6
  9 11  1  0
  9 10  1  0
 10  5  1  0
 11 21  1  0
 12 11  2  0
 14 15  2  0
 14 13  1  0
 16 14  1  0
 17 16  1  0
 18 17  1  0
 19 18  1  0
 20 19  1  1
 20 22  1  0
 21 20  1  0
 22 23  2  0
 22 24  1  0
M  END
$$$$
