SSR.pdb
     RDKit          3D

 24 23  0  0  1  0  0  0  0  0999 V2000
   26.7163  -22.9168  -18.8209 O   0  0  0  0  0  0  0  0  0  0  0  0
   28.0578  -22.6813  -18.5127 C   0  0  0  0  0  0  0  0  0  0  0  0
   28.2344  -22.9343  -17.0314 C   0  0  2  0  0  0  0  0  0  0  0  0
   28.0150  -24.3177  -16.7379 N   0  0  0  0  0  0  0  0  0  0  0  0
   27.4041  -22.0325  -16.2085 C   0  0  0  0  0  0  0  0  0  0  0  0
   26.5383  -22.5458  -15.4538 O   0  0  0  0  0  0  0  0  0  0  0  0
   26.6641  -17.4389  -14.7727 O   0  0  0  0  0  0  0  0  0  0  0  0
   27.3270  -18.2990  -15.6366 C   0  0  0  0  0  0  0  0  0  0  0  0
   26.7788  -19.7133  -15.4584 C   0  0  2  0  0  0  0  0  0  0  0  0
   27.5543  -20.6225  -16.2456 N   0  0  0  0  0  0  0  0  0  0  0  0
   25.3396  -19.7801  -15.7200 C   0  0  0  0  0  0  0  0  0  0  0  0
   24.9859  -19.8756  -16.9407 O   0  0  0  0  0  0  0  0  0  0  0  0
   18.6994  -23.8726  -11.8398 N   0  0  0  0  0  0  0  0  0  0  0  0
   19.6995  -24.2763  -12.7966 C   0  0  0  0  0  0  0  0  0  0  0  0
   19.9371  -25.5332  -12.9360 N   0  0  0  0  0  0  0  0  0  0  0  0
   20.3800  -23.2774  -13.5443 N   0  0  0  0  0  0  0  0  0  0  0  0
   20.1271  -21.8918  -13.3342 C   0  0  0  0  0  0  0  0  0  0  0  0
   20.7757  -21.0022  -14.3715 C   0  0  0  0  0  0  0  0  0  0  0  0
   22.2107  -20.6971  -14.0372 C   0  0  0  0  0  0  0  0  0  0  0  0
   22.9006  -19.8232  -15.0166 C   0  0  2  0  0  0  0  0  0  0  0  0
   24.3196  -19.7481  -14.7455 N   0  0  0  0  0  0  0  0  0  0  0  0
   22.2869  -18.4900  -15.1874 C   0  0  0  0  0  0  0  0  0  0  0  0
   22.7665  -17.4344  -14.6828 O   0  0  0  0  0  0  0  0  0  0  0  0
   21.1244  -18.3244  -15.9286 O   0  0  0  0  0  0  0  0  0  0  0  0
  2  3  1  0
  2  1  1  0
  3  4  1  6
  5  3  1  0
  6  5  2  0
  8  7  1  0
  9  8  1  6
  9 11  1  0
  9 10  1  0
 10  5  1  0
 11 21  1  0
 12 11  2  0
 14 15  2  0
 14 13  1  0
 16 14  1  0
 17 16  1  0
 18 17  1  0
 19 18  1  0
 20 19  1  1
 20 22  1  0
 21 20  1  0
 22 23  2  0
 22 24  1  0
M  END
$$$$
