SSR.pdb
     RDKit          3D

 24 23  0  0  1  0  0  0  0  0999 V2000
   27.8064  -19.1193  -16.6089 O   0  0  0  0  0  0  0  0  0  0  0  0
   26.5931  -18.4968  -16.3077 C   0  0  0  0  0  0  0  0  0  0  0  0
   26.4123  -17.3573  -17.2864 C   0  0  2  0  0  0  0  0  0  0  0  0
   27.6074  -17.1697  -18.0511 N   0  0  0  0  0  0  0  0  0  0  0  0
   25.9528  -16.1205  -16.6240 C   0  0  0  0  0  0  0  0  0  0  0  0
   24.8986  -16.1698  -15.9391 O   0  0  0  0  0  0  0  0  0  0  0  0
   26.9988  -11.5128  -15.4888 O   0  0  0  0  0  0  0  0  0  0  0  0
   27.4043  -12.6912  -16.0993 C   0  0  0  0  0  0  0  0  0  0  0  0
   26.2293  -13.6659  -16.1431 C   0  0  2  0  0  0  0  0  0  0  0  0
   26.6581  -14.8950  -16.7375 N   0  0  0  0  0  0  0  0  0  0  0  0
   25.0517  -13.0762  -16.7831 C   0  0  0  0  0  0  0  0  0  0  0  0
   25.0259  -13.0946  -18.0572 O   0  0  0  0  0  0  0  0  0  0  0  0
   17.0337  -15.2531  -17.4335 N   0  0  0  0  0  0  0  0  0  0  0  0
   16.9465  -13.9317  -18.0032 C   0  0  0  0  0  0  0  0  0  0  0  0
   15.8474  -13.5866  -18.5765 N   0  0  0  0  0  0  0  0  0  0  0  0
   18.0701  -13.0663  -17.9104 N   0  0  0  0  0  0  0  0  0  0  0  0
   19.2733  -13.4782  -17.2695 C   0  0  0  0  0  0  0  0  0  0  0  0
   20.3701  -12.4385  -17.3330 C   0  0  0  0  0  0  0  0  0  0  0  0
   21.6317  -12.9055  -16.6590 C   0  0  0  0  0  0  0  0  0  0  0  0
   22.7709  -11.9615  -16.7586 C   0  0  2  0  0  0  0  0  0  0  0  0
   23.9525  -12.4945  -16.1164 N   0  0  0  0  0  0  0  0  0  0  0  0
   22.4646  -10.5831  -16.3233 C   0  0  0  0  0  0  0  0  0  0  0  0
   23.0188  -10.0283  -15.3313 O   0  0  0  0  0  0  0  0  0  0  0  0
   21.5303   -9.8082  -16.9976 O   0  0  0  0  0  0  0  0  0  0  0  0
  2  3  1  0
  2  1  1  0
  3  4  1  1
  5  3  1  0
  6  5  2  0
  8  7  1  0
  9  8  1  6
  9 11  1  0
  9 10  1  0
 10  5  1  0
 11 21  1  0
 12 11  2  0
 14 15  2  0
 14 13  1  0
 16 14  1  0
 17 16  1  0
 18 17  1  0
 19 18  1  0
 20 19  1  1
 20 22  1  0
 21 20  1  0
 22 23  2  0
 22 24  1  0
M  END
$$$$
