SSR.pdb
     RDKit          3D

 24 23  0  0  1  0  0  0  0  0999 V2000
   26.1341  -12.5892  -19.9303 O   0  0  0  0  0  0  0  0  0  0  0  0
   27.5272  -12.4930  -19.9460 C   0  0  0  0  0  0  0  0  0  0  0  0
   27.9542  -11.8738  -18.6333 C   0  0  2  0  0  0  0  0  0  0  0  0
   29.3624  -11.6186  -18.6434 N   0  0  0  0  0  0  0  0  0  0  0  0
   27.5229  -12.6761  -17.4714 C   0  0  0  0  0  0  0  0  0  0  0  0
   28.2787  -13.6000  -17.0739 O   0  0  0  0  0  0  0  0  0  0  0  0
   23.6141  -12.3520  -15.8294 O   0  0  0  0  0  0  0  0  0  0  0  0
   24.7100  -12.4387  -14.9827 C   0  0  0  0  0  0  0  0  0  0  0  0
   25.8302  -13.2028  -15.6853 C   0  0  2  0  0  0  0  0  0  0  0  0
   26.2962  -12.4367  -16.8006 N   0  0  0  0  0  0  0  0  0  0  0  0
   25.4300  -14.5687  -16.0293 C   0  0  0  0  0  0  0  0  0  0  0  0
   24.9244  -14.7404  -17.1865 O   0  0  0  0  0  0  0  0  0  0  0  0
   26.3151  -22.4477  -16.3762 N   0  0  0  0  0  0  0  0  0  0  0  0
   27.5479  -21.8509  -15.9261 C   0  0  0  0  0  0  0  0  0  0  0  0
   28.6471  -22.2385  -16.4712 N   0  0  0  0  0  0  0  0  0  0  0  0
   27.5023  -20.8639  -14.9045 N   0  0  0  0  0  0  0  0  0  0  0  0
   26.2731  -20.4837  -14.2940 C   0  0  0  0  0  0  0  0  0  0  0  0
   25.4849  -19.4836  -15.1104 C   0  0  0  0  0  0  0  0  0  0  0  0
   25.8874  -18.0654  -14.8093 C   0  0  0  0  0  0  0  0  0  0  0  0
   25.0965  -17.0341  -15.5232 C   0  0  2  0  0  0  0  0  0  0  0  0
   25.5548  -15.7013  -15.1970 N   0  0  0  0  0  0  0  0  0  0  0  0
   23.6327  -17.1781  -15.3827 C   0  0  0  0  0  0  0  0  0  0  0  0
   22.9672  -16.6372  -14.4534 O   0  0  0  0  0  0  0  0  0  0  0  0
   22.8955  -17.9328  -16.2855 O   0  0  0  0  0  0  0  0  0  0  0  0
  2  3  1  0
  2  1  1  0
  3  4  1  6
  5  3  1  0
  6  5  2  0
  8  7  1  0
  9  8  1  6
  9 11  1  0
  9 10  1  0
 10  5  1  0
 11 21  1  0
 12 11  2  0
 14 15  2  0
 14 13  1  0
 16 14  1  0
 17 16  1  0
 18 17  1  0
 19 18  1  0
 20 19  1  1
 20 22  1  0
 21 20  1  0
 22 23  2  0
 22 24  1  0
M  END
$$$$
