SSR.pdb
     RDKit          3D

 24 23  0  0  1  0  0  0  0  0999 V2000
   18.8553  -22.7275   -8.3714 O   0  0  0  0  0  0  0  0  0  0  0  0
   19.4850  -23.9738   -8.3492 C   0  0  0  0  0  0  0  0  0  0  0  0
   18.4483  -25.0127   -8.7167 C   0  0  2  0  0  0  0  0  0  0  0  0
   17.8611  -24.6969   -9.9830 N   0  0  0  0  0  0  0  0  0  0  0  0
   17.4464  -25.2032   -7.6491 C   0  0  0  0  0  0  0  0  0  0  0  0
   16.4018  -24.5029   -7.6828 O   0  0  0  0  0  0  0  0  0  0  0  0
   18.3326  -27.4707   -4.2783 O   0  0  0  0  0  0  0  0  0  0  0  0
   17.0638  -27.6556   -4.8089 C   0  0  0  0  0  0  0  0  0  0  0  0
   16.6552  -26.4050   -5.5846 C   0  0  2  0  0  0  0  0  0  0  0  0
   17.6276  -26.1416   -6.6009 N   0  0  0  0  0  0  0  0  0  0  0  0
   16.4013  -25.2683   -4.6972 C   0  0  0  0  0  0  0  0  0  0  0  0
   17.4154  -24.5799   -4.3481 O   0  0  0  0  0  0  0  0  0  0  0  0
    9.7004  -19.7719   -3.8041 N   0  0  0  0  0  0  0  0  0  0  0  0
   10.8313  -19.8791   -4.6918 C   0  0  0  0  0  0  0  0  0  0  0  0
   10.7283  -19.3790   -5.8729 N   0  0  0  0  0  0  0  0  0  0  0  0
   12.0088  -20.5284   -4.2315 N   0  0  0  0  0  0  0  0  0  0  0  0
   12.0242  -21.2587   -3.0090 C   0  0  0  0  0  0  0  0  0  0  0  0
   13.3670  -21.8844   -2.7038 C   0  0  0  0  0  0  0  0  0  0  0  0
   13.6639  -23.0532   -3.6037 C   0  0  0  0  0  0  0  0  0  0  0  0
   14.9109  -23.7850   -3.2745 C   0  0  2  0  0  0  0  0  0  0  0  0
   15.1414  -24.8730   -4.1996 N   0  0  0  0  0  0  0  0  0  0  0  0
   15.0174  -24.2110   -1.8637 C   0  0  0  0  0  0  0  0  0  0  0  0
   14.9839  -25.4212   -1.4989 O   0  0  0  0  0  0  0  0  0  0  0  0
   15.1633  -23.2818   -0.8422 O   0  0  0  0  0  0  0  0  0  0  0  0
  2  3  1  0
  2  1  1  0
  3  4  1  6
  5  3  1  0
  6  5  2  0
  8  7  1  0
  9  8  1  1
  9 11  1  0
  9 10  1  0
 10  5  1  0
 11 21  1  0
 12 11  2  0
 14 15  2  0
 14 13  1  0
 16 14  1  0
 17 16  1  0
 18 17  1  0
 19 18  1  0
 20 19  1  1
 20 22  1  0
 21 20  1  0
 22 23  2  0
 22 24  1  0
M  END
$$$$
