SSR.pdb
     RDKit          3D

 24 23  0  0  1  0  0  0  0  0999 V2000
   16.5878  -20.2177    1.8862 O   0  0  0  0  0  0  0  0  0  0  0  0
   17.0578  -20.0634    3.1921 C   0  0  0  0  0  0  0  0  0  0  0  0
   15.9158  -19.5234    4.0248 C   0  0  2  0  0  0  0  0  0  0  0  0
   14.9834  -18.8281    3.1909 N   0  0  0  0  0  0  0  0  0  0  0  0
   16.3902  -18.7091    5.1612 C   0  0  0  0  0  0  0  0  0  0  0  0
   16.2200  -17.4636    5.1117 O   0  0  0  0  0  0  0  0  0  0  0  0
   16.4330  -19.9722    9.0622 O   0  0  0  0  0  0  0  0  0  0  0  0
   17.6593  -19.5071    8.6088 C   0  0  0  0  0  0  0  0  0  0  0  0
   17.4337  -18.5439    7.4452 C   0  0  2  0  0  0  0  0  0  0  0  0
   17.0241  -19.2854    6.2918 N   0  0  0  0  0  0  0  0  0  0  0  0
   18.5943  -17.6813    7.2150 C   0  0  0  0  0  0  0  0  0  0  0  0
   19.2751  -17.9104    6.1622 O   0  0  0  0  0  0  0  0  0  0  0  0
   21.1570   -9.7767    9.1904 N   0  0  0  0  0  0  0  0  0  0  0  0
   21.9147  -10.0081    7.9859 C   0  0  0  0  0  0  0  0  0  0  0  0
   22.9269   -9.2502    7.7478 N   0  0  0  0  0  0  0  0  0  0  0  0
   21.5176  -11.0575    7.1135 N   0  0  0  0  0  0  0  0  0  0  0  0
   20.4792  -11.9651    7.4687 C   0  0  0  0  0  0  0  0  0  0  0  0
   20.9288  -13.4092    7.4884 C   0  0  0  0  0  0  0  0  0  0  0  0
   19.7907  -14.3520    7.7705 C   0  0  0  0  0  0  0  0  0  0  0  0
   20.1717  -15.7844    7.8143 C   0  0  2  0  0  0  0  0  0  0  0  0
   19.0201  -16.6274    8.0511 N   0  0  0  0  0  0  0  0  0  0  0  0
   21.2940  -16.0926    8.7246 C   0  0  0  0  0  0  0  0  0  0  0  0
   21.1347  -16.5023    9.9103 O   0  0  0  0  0  0  0  0  0  0  0  0
   22.6124  -15.9445    8.3147 O   0  0  0  0  0  0  0  0  0  0  0  0
  2  3  1  0
  2  1  1  0
  3  4  1  6
  5  3  1  0
  6  5  2  0
  8  7  1  0
  9  8  1  1
  9 11  1  0
  9 10  1  0
 10  5  1  0
 11 21  1  0
 12 11  2  0
 14 15  2  0
 14 13  1  0
 16 14  1  0
 17 16  1  0
 18 17  1  0
 19 18  1  0
 20 19  1  1
 20 22  1  0
 21 20  1  0
 22 23  2  0
 22 24  1  0
M  END
$$$$
