SSR.pdb
     RDKit          3D

 24 23  0  0  1  0  0  0  0  0999 V2000
   25.7865  -16.3062  -18.0339 O   0  0  0  0  0  0  0  0  0  0  0  0
   25.9534  -15.1011  -17.3483 C   0  0  0  0  0  0  0  0  0  0  0  0
   24.8612  -14.1613  -17.8100 C   0  0  2  0  0  0  0  0  0  0  0  0
   25.1409  -13.6923  -19.1329 N   0  0  0  0  0  0  0  0  0  0  0  0
   24.6246  -13.0659  -16.8489 C   0  0  0  0  0  0  0  0  0  0  0  0
   23.5150  -13.0237  -16.2575 O   0  0  0  0  0  0  0  0  0  0  0  0
   27.3371   -9.9043  -16.5622 O   0  0  0  0  0  0  0  0  0  0  0  0
   26.7422  -10.3182  -15.3788 C   0  0  0  0  0  0  0  0  0  0  0  0
   25.3963  -10.9684  -15.6923 C   0  0  2  0  0  0  0  0  0  0  0  0
   25.6012  -12.0734  -16.5782 N   0  0  0  0  0  0  0  0  0  0  0  0
   24.4162   -9.9938  -16.1757 C   0  0  0  0  0  0  0  0  0  0  0  0
   24.3775   -9.8007  -17.4348 O   0  0  0  0  0  0  0  0  0  0  0  0
   17.3184   -9.1164  -12.0862 N   0  0  0  0  0  0  0  0  0  0  0  0
   17.4883   -9.8902  -13.2906 C   0  0  0  0  0  0  0  0  0  0  0  0
   16.5454  -10.6947  -13.6361 N   0  0  0  0  0  0  0  0  0  0  0  0
   18.6827   -9.7359  -14.0454 N   0  0  0  0  0  0  0  0  0  0  0  0
   18.8784   -8.6171  -14.9046 C   0  0  0  0  0  0  0  0  0  0  0  0
   20.1197   -8.7319  -15.7613 C   0  0  0  0  0  0  0  0  0  0  0  0
   21.3485   -8.2410  -15.0450 C   0  0  0  0  0  0  0  0  0  0  0  0
   22.5876   -8.2614  -15.8594 C   0  0  2  0  0  0  0  0  0  0  0  0
   23.5188   -9.2566  -15.3744 N   0  0  0  0  0  0  0  0  0  0  0  0
   23.2203   -6.9393  -16.0459 C   0  0  0  0  0  0  0  0  0  0  0  0
   24.2578   -6.5713  -15.4235 O   0  0  0  0  0  0  0  0  0  0  0  0
   22.6954   -6.0112  -16.9354 O   0  0  0  0  0  0  0  0  0  0  0  0
  2  3  1  0
  2  1  1  0
  3  4  1  6
  5  3  1  0
  6  5  2  0
  8  7  1  0
  9  8  1  6
  9 11  1  0
  9 10  1  0
 10  5  1  0
 11 21  1  0
 12 11  2  0
 14 15  2  0
 14 13  1  0
 16 14  1  0
 17 16  1  0
 18 17  1  0
 19 18  1  0
 20 19  1  1
 20 22  1  0
 21 20  1  0
 22 23  2  0
 22 24  1  0
M  END
$$$$
