SSR.pdb
     RDKit          3D

 24 23  0  0  1  0  0  0  0  0999 V2000
   24.7856  -25.3749  -19.3131 O   0  0  0  0  0  0  0  0  0  0  0  0
   24.0794  -24.8888  -18.2108 C   0  0  0  0  0  0  0  0  0  0  0  0
   25.0203  -24.9043  -17.0261 C   0  0  2  0  0  0  0  0  0  0  0  0
   25.4145  -26.2472  -16.7271 N   0  0  0  0  0  0  0  0  0  0  0  0
   24.4593  -24.1956  -15.8587 C   0  0  0  0  0  0  0  0  0  0  0  0
   24.1702  -24.8700  -14.8368 O   0  0  0  0  0  0  0  0  0  0  0  0
   23.4783  -20.0758  -16.0187 O   0  0  0  0  0  0  0  0  0  0  0  0
   24.1048  -20.5879  -14.8914 C   0  0  0  0  0  0  0  0  0  0  0  0
   23.7371  -22.0621  -14.7366 C   0  0  2  0  0  0  0  0  0  0  0  0
   24.2405  -22.7941  -15.8585 N   0  0  0  0  0  0  0  0  0  0  0  0
   22.3037  -22.2475  -14.5017 C   0  0  0  0  0  0  0  0  0  0  0  0
   21.5514  -22.2382  -15.5304 O   0  0  0  0  0  0  0  0  0  0  0  0
   18.2284  -25.0298   -7.3942 N   0  0  0  0  0  0  0  0  0  0  0  0
   18.5936  -25.8293   -8.5370 C   0  0  0  0  0  0  0  0  0  0  0  0
   18.8475  -27.0770   -8.3516 N   0  0  0  0  0  0  0  0  0  0  0  0
   18.6586  -25.2130   -9.8161 N   0  0  0  0  0  0  0  0  0  0  0  0
   18.2704  -23.8562  -10.0068 C   0  0  0  0  0  0  0  0  0  0  0  0
   18.5132  -23.3576  -11.4141 C   0  0  0  0  0  0  0  0  0  0  0  0
   19.9690  -23.0775  -11.6715 C   0  0  0  0  0  0  0  0  0  0  0  0
   20.2637  -22.5278  -13.0168 C   0  0  2  0  0  0  0  0  0  0  0  0
   21.6890  -22.4341  -13.2454 N   0  0  0  0  0  0  0  0  0  0  0  0
   19.5570  -21.2694  -13.3330 C   0  0  0  0  0  0  0  0  0  0  0  0
   19.9892  -20.1278  -13.0030 O   0  0  0  0  0  0  0  0  0  0  0  0
   18.3533  -21.2763  -14.0254 O   0  0  0  0  0  0  0  0  0  0  0  0
  2  3  1  0
  2  1  1  0
  3  4  1  1
  5  3  1  0
  6  5  2  0
  8  7  1  0
  9  8  1  6
  9 11  1  0
  9 10  1  0
 10  5  1  0
 11 21  1  0
 12 11  2  0
 14 15  2  0
 14 13  1  0
 16 14  1  0
 17 16  1  0
 18 17  1  0
 19 18  1  0
 20 19  1  1
 20 22  1  0
 21 20  1  0
 22 23  2  0
 22 24  1  0
M  END
$$$$
