SSR.pdb
     RDKit          3D

 24 23  0  0  1  0  0  0  0  0999 V2000
   17.6916  -12.3522  -14.3867 O   0  0  0  0  0  0  0  0  0  0  0  0
   17.9259  -12.9106  -15.6450 C   0  0  0  0  0  0  0  0  0  0  0  0
   17.4176  -11.9296  -16.6787 C   0  0  2  0  0  0  0  0  0  0  0  0
   17.5507  -12.4835  -17.9915 N   0  0  0  0  0  0  0  0  0  0  0  0
   18.0507  -10.6024  -16.5470 C   0  0  0  0  0  0  0  0  0  0  0  0
   19.1963  -10.4390  -17.0405 O   0  0  0  0  0  0  0  0  0  0  0  0
   15.8882   -7.1696  -15.8586 O   0  0  0  0  0  0  0  0  0  0  0  0
   16.9937   -7.3050  -15.0310 C   0  0  0  0  0  0  0  0  0  0  0  0
   18.0077   -8.2355  -15.6932 C   0  0  2  0  0  0  0  0  0  0  0  0
   17.4107   -9.5214  -15.8880 N   0  0  0  0  0  0  0  0  0  0  0  0
   19.2754   -8.2744  -14.9613 C   0  0  0  0  0  0  0  0  0  0  0  0
   19.3887   -9.1728  -14.0646 O   0  0  0  0  0  0  0  0  0  0  0  0
   26.3978  -11.4151  -17.3824 N   0  0  0  0  0  0  0  0  0  0  0  0
   26.8456  -10.8527  -16.1327 C   0  0  0  0  0  0  0  0  0  0  0  0
   27.9975  -11.2080  -15.6826 N   0  0  0  0  0  0  0  0  0  0  0  0
   26.0033   -9.9336  -15.4502 N   0  0  0  0  0  0  0  0  0  0  0  0
   24.6966   -9.6288  -15.9275 C   0  0  0  0  0  0  0  0  0  0  0  0
   23.9182   -8.7226  -14.9998 C   0  0  0  0  0  0  0  0  0  0  0  0
   22.5238   -8.4625  -15.5019 C   0  0  0  0  0  0  0  0  0  0  0  0
   21.6996   -7.6027  -14.6185 C   0  0  2  0  0  0  0  0  0  0  0  0
   20.3727   -7.4103  -15.1618 N   0  0  0  0  0  0  0  0  0  0  0  0
   22.3410   -6.3295  -14.2303 C   0  0  0  0  0  0  0  0  0  0  0  0
   23.3537   -6.2633  -13.4758 O   0  0  0  0  0  0  0  0  0  0  0  0
   21.8529   -5.1117  -14.6850 O   0  0  0  0  0  0  0  0  0  0  0  0
  2  3  1  0
  2  1  1  0
  3  4  1  6
  5  3  1  0
  6  5  2  0
  8  7  1  0
  9  8  1  1
  9 11  1  0
  9 10  1  0
 10  5  1  0
 11 21  1  0
 12 11  2  0
 14 15  2  0
 14 13  1  0
 16 14  1  0
 17 16  1  0
 18 17  1  0
 19 18  1  0
 20 19  1  6
 20 22  1  0
 21 20  1  0
 22 23  2  0
 22 24  1  0
M  END
$$$$
