SSR.pdb
     RDKit          3D

 24 23  0  0  1  0  0  0  0  0999 V2000
   21.4261  -21.7649  -13.9423 O   0  0  0  0  0  0  0  0  0  0  0  0
   21.3065  -22.5206  -12.7741 C   0  0  0  0  0  0  0  0  0  0  0  0
   21.4567  -21.5738  -11.6036 C   0  0  2  0  0  0  0  0  0  0  0  0
   20.2563  -20.8151  -11.4259 N   0  0  0  0  0  0  0  0  0  0  0  0
   22.6605  -20.7273  -11.7217 C   0  0  0  0  0  0  0  0  0  0  0  0
   22.5092  -19.5210  -12.0455 O   0  0  0  0  0  0  0  0  0  0  0  0
   26.3571  -22.3776  -10.8899 O   0  0  0  0  0  0  0  0  0  0  0  0
   26.2226  -21.0159  -10.6592 C   0  0  0  0  0  0  0  0  0  0  0  0
   25.1584  -20.4489  -11.5966 C   0  0  2  0  0  0  0  0  0  0  0  0
   23.9651  -21.2305  -11.4832 N   0  0  0  0  0  0  0  0  0  0  0  0
   25.6520  -20.3148  -12.9687 C   0  0  0  0  0  0  0  0  0  0  0  0
   25.3632  -21.2599  -13.7734 O   0  0  0  0  0  0  0  0  0  0  0  0
   26.9992  -12.6061  -16.2082 N   0  0  0  0  0  0  0  0  0  0  0  0
   25.8456  -13.2421  -16.7940 C   0  0  0  0  0  0  0  0  0  0  0  0
   24.9892  -12.5040  -17.4085 N   0  0  0  0  0  0  0  0  0  0  0  0
   25.6993  -14.6505  -16.6714 N   0  0  0  0  0  0  0  0  0  0  0  0
   26.6429  -15.4346  -15.9483 C   0  0  0  0  0  0  0  0  0  0  0  0
   26.3350  -16.9153  -15.9756 C   0  0  0  0  0  0  0  0  0  0  0  0
   27.2911  -17.7075  -15.1258 C   0  0  0  0  0  0  0  0  0  0  0  0
   26.8587  -19.0970  -14.8411 C   0  0  2  0  0  0  0  0  0  0  0  0
   26.4131  -19.2386  -13.4721 N   0  0  0  0  0  0  0  0  0  0  0  0
   27.8374  -20.1347  -15.2267 C   0  0  0  0  0  0  0  0  0  0  0  0
   28.4803  -20.8295  -14.3883 O   0  0  0  0  0  0  0  0  0  0  0  0
   28.1075  -20.4063  -16.5614 O   0  0  0  0  0  0  0  0  0  0  0  0
  2  3  1  0
  2  1  1  0
  3  4  1  6
  5  3  1  0
  6  5  2  0
  8  7  1  0
  9  8  1  1
  9 11  1  0
  9 10  1  0
 10  5  1  0
 11 21  1  0
 12 11  2  0
 14 15  2  0
 14 13  1  0
 16 14  1  0
 17 16  1  0
 18 17  1  0
 19 18  1  0
 20 19  1  1
 20 22  1  0
 21 20  1  0
 22 23  2  0
 22 24  1  0
M  END
$$$$
