SSR.pdb
     RDKit          3D

 24 23  0  0  1  0  0  0  0  0999 V2000
   28.6078  -21.9653  -14.2330 O   0  0  0  0  0  0  0  0  0  0  0  0
   27.4585  -21.3731  -13.7052 C   0  0  0  0  0  0  0  0  0  0  0  0
   26.7389  -20.6843  -14.8441 C   0  0  2  0  0  0  0  0  0  0  0  0
   27.5741  -19.6719  -15.4146 N   0  0  0  0  0  0  0  0  0  0  0  0
   25.4128  -20.1764  -14.4402 C   0  0  0  0  0  0  0  0  0  0  0  0
   25.3660  -19.2252  -13.6181 O   0  0  0  0  0  0  0  0  0  0  0  0
   21.1494  -18.7855  -15.0218 O   0  0  0  0  0  0  0  0  0  0  0  0
   22.3889  -19.2250  -15.4647 C   0  0  0  0  0  0  0  0  0  0  0  0
   22.9016  -20.3154  -14.5262 C   0  0  2  0  0  0  0  0  0  0  0  0
   24.2066  -20.7246  -14.9471 N   0  0  0  0  0  0  0  0  0  0  0  0
   21.9474  -21.4182  -14.3944 C   0  0  0  0  0  0  0  0  0  0  0  0
   21.9567  -22.2940  -15.3203 O   0  0  0  0  0  0  0  0  0  0  0  0
   17.0572  -24.1180   -7.6321 N   0  0  0  0  0  0  0  0  0  0  0  0
   18.3646  -24.5816   -8.0246 C   0  0  0  0  0  0  0  0  0  0  0  0
   19.1323  -25.0781   -7.1192 N   0  0  0  0  0  0  0  0  0  0  0  0
   18.7529  -24.4736   -9.3876 N   0  0  0  0  0  0  0  0  0  0  0  0
   17.8759  -23.9284  -10.3683 C   0  0  0  0  0  0  0  0  0  0  0  0
   18.4781  -23.8946  -11.7554 C   0  0  0  0  0  0  0  0  0  0  0  0
   19.4660  -22.7711  -11.9159 C   0  0  0  0  0  0  0  0  0  0  0  0
   19.9898  -22.6012  -13.2927 C   0  0  2  0  0  0  0  0  0  0  0  0
   21.0265  -21.5933  -13.3397 N   0  0  0  0  0  0  0  0  0  0  0  0
   18.9510  -22.3914  -14.3222 C   0  0  0  0  0  0  0  0  0  0  0  0
   18.5393  -23.3073  -15.0908 O   0  0  0  0  0  0  0  0  0  0  0  0
   18.3596  -21.1480  -14.5025 O   0  0  0  0  0  0  0  0  0  0  0  0
  2  3  1  0
  2  1  1  0
  3  4  1  1
  5  3  1  0
  6  5  2  0
  8  7  1  0
  9  8  1  6
  9 11  1  0
  9 10  1  0
 10  5  1  0
 11 21  1  0
 12 11  2  0
 14 15  2  0
 14 13  1  0
 16 14  1  0
 17 16  1  0
 18 17  1  0
 19 18  1  0
 20 19  1  1
 20 22  1  0
 21 20  1  0
 22 23  2  0
 22 24  1  0
M  END
$$$$
