SSR.pdb
     RDKit          3D

 24 23  0  0  1  0  0  0  0  0999 V2000
   18.6718   -9.0132  -17.5436 O   0  0  0  0  0  0  0  0  0  0  0  0
   18.6954   -8.4662  -16.2589 C   0  0  0  0  0  0  0  0  0  0  0  0
   19.7493   -9.2101  -15.4682 C   0  0  2  0  0  0  0  0  0  0  0  0
   19.5538  -10.6223  -15.5927 N   0  0  0  0  0  0  0  0  0  0  0  0
   19.8145   -8.7596  -14.0638 C   0  0  0  0  0  0  0  0  0  0  0  0
   19.3106   -9.4983  -13.1789 O   0  0  0  0  0  0  0  0  0  0  0  0
   21.1772   -4.8940  -13.1148 O   0  0  0  0  0  0  0  0  0  0  0  0
   21.5016   -5.9283  -12.2486 C   0  0  0  0  0  0  0  0  0  0  0  0
   20.4429   -7.0240  -12.3533 C   0  0  2  0  0  0  0  0  0  0  0  0
   20.4217   -7.5331  -13.6906 N   0  0  0  0  0  0  0  0  0  0  0  0
   19.1368   -6.5719  -11.8696 C   0  0  0  0  0  0  0  0  0  0  0  0
   18.3770   -6.0072  -12.7229 O   0  0  0  0  0  0  0  0  0  0  0  0
   12.3980   -9.6964   -7.5174 N   0  0  0  0  0  0  0  0  0  0  0  0
   12.0771   -8.2914   -7.5550 C   0  0  0  0  0  0  0  0  0  0  0  0
   10.9441   -7.9122   -7.0775 N   0  0  0  0  0  0  0  0  0  0  0  0
   13.0183   -7.3849   -8.1141 N   0  0  0  0  0  0  0  0  0  0  0  0
   14.2901   -7.8274   -8.5774 C   0  0  0  0  0  0  0  0  0  0  0  0
   15.1753   -6.6999   -9.0602 C   0  0  0  0  0  0  0  0  0  0  0  0
   16.5275   -7.1915   -9.5008 C   0  0  0  0  0  0  0  0  0  0  0  0
   17.4168   -6.1411  -10.0527 C   0  0  2  0  0  0  0  0  0  0  0  0
   18.6512   -6.7067  -10.5516 N   0  0  0  0  0  0  0  0  0  0  0  0
   17.6454   -4.9946   -9.1491 C   0  0  0  0  0  0  0  0  0  0  0  0
   18.6745   -4.8757   -8.4240 O   0  0  0  0  0  0  0  0  0  0  0  0
   16.7197   -3.9645   -9.0477 O   0  0  0  0  0  0  0  0  0  0  0  0
  2  3  1  0
  2  1  1  0
  3  4  1  1
  5  3  1  0
  6  5  2  0
  8  7  1  0
  9  8  1  6
  9 11  1  0
  9 10  1  0
 10  5  1  0
 11 21  1  0
 12 11  2  0
 14 15  2  0
 14 13  1  0
 16 14  1  0
 17 16  1  0
 18 17  1  0
 19 18  1  0
 20 19  1  1
 20 22  1  0
 21 20  1  0
 22 23  2  0
 22 24  1  0
M  END
$$$$
