SSR.pdb
     RDKit          3D

 24 23  0  0  1  0  0  0  0  0999 V2000
   13.5504  -13.7045  -15.8741 O   0  0  0  0  0  0  0  0  0  0  0  0
   14.3282  -12.8562  -15.0833 C   0  0  0  0  0  0  0  0  0  0  0  0
   15.7502  -13.3712  -15.1281 C   0  0  2  0  0  0  0  0  0  0  0  0
   15.7873  -14.7503  -14.7477 N   0  0  0  0  0  0  0  0  0  0  0  0
   16.6728  -12.5313  -14.3388 C   0  0  0  0  0  0  0  0  0  0  0  0
   16.7150  -12.7037  -13.0933 O   0  0  0  0  0  0  0  0  0  0  0  0
   18.6940   -9.3689  -16.1893 O   0  0  0  0  0  0  0  0  0  0  0  0
   19.3400   -9.9987  -15.1350 C   0  0  0  0  0  0  0  0  0  0  0  0
   18.2994  -10.6159  -14.2031 C   0  0  2  0  0  0  0  0  0  0  0  0
   17.5016  -11.5487  -14.9387 N   0  0  0  0  0  0  0  0  0  0  0  0
   17.5209   -9.5953  -13.4984 C   0  0  0  0  0  0  0  0  0  0  0  0
   16.4789   -9.1627  -14.0912 O   0  0  0  0  0  0  0  0  0  0  0  0
   12.5880   -8.5902   -6.9451 N   0  0  0  0  0  0  0  0  0  0  0  0
   12.8661   -7.1955   -7.1815 C   0  0  0  0  0  0  0  0  0  0  0  0
   12.1012   -6.3197   -6.6305 N   0  0  0  0  0  0  0  0  0  0  0  0
   13.9671   -6.8435   -8.0084 N   0  0  0  0  0  0  0  0  0  0  0  0
   14.7911   -7.8371   -8.6100 C   0  0  0  0  0  0  0  0  0  0  0  0
   15.8091   -7.2664   -9.5723 C   0  0  0  0  0  0  0  0  0  0  0  0
   16.5896   -8.3442  -10.2747 C   0  0  0  0  0  0  0  0  0  0  0  0
   17.1234   -7.9547  -11.6022 C   0  0  2  0  0  0  0  0  0  0  0  0
   17.8224   -9.0543  -12.2306 N   0  0  0  0  0  0  0  0  0  0  0  0
   17.9160   -6.7077  -11.6023 C   0  0  0  0  0  0  0  0  0  0  0  0
   19.1785   -6.6868  -11.6700 O   0  0  0  0  0  0  0  0  0  0  0  0
   17.3001   -5.4655  -11.5263 O   0  0  0  0  0  0  0  0  0  0  0  0
  2  3  1  0
  2  1  1  0
  3  4  1  1
  5  3  1  0
  6  5  2  0
  8  7  1  0
  9  8  1  6
  9 11  1  0
  9 10  1  0
 10  5  1  0
 11 21  1  0
 12 11  2  0
 14 15  2  0
 14 13  1  0
 16 14  1  0
 17 16  1  0
 18 17  1  0
 19 18  1  0
 20 19  1  1
 20 22  1  0
 21 20  1  0
 22 23  2  0
 22 24  1  0
M  END
$$$$
