SSR.pdb
     RDKit          3D

 24 23  0  0  1  0  0  0  0  0999 V2000
   21.1686  -10.1166  -17.6155 O   0  0  0  0  0  0  0  0  0  0  0  0
   20.8162   -9.1147  -16.7087 C   0  0  0  0  0  0  0  0  0  0  0  0
   21.7606   -9.2159  -15.5310 C   0  0  2  0  0  0  0  0  0  0  0  0
   21.8621  -10.5754  -15.0956 N   0  0  0  0  0  0  0  0  0  0  0  0
   21.3955   -8.2884  -14.4418 C   0  0  0  0  0  0  0  0  0  0  0  0
   20.8253   -8.7613  -13.4250 O   0  0  0  0  0  0  0  0  0  0  0  0
   21.7017   -3.7370  -12.7466 O   0  0  0  0  0  0  0  0  0  0  0  0
   21.9589   -4.6132  -13.7914 C   0  0  0  0  0  0  0  0  0  0  0  0
   21.3027   -5.9596  -13.4927 C   0  0  2  0  0  0  0  0  0  0  0  0
   21.6667   -6.8977  -14.5102 N   0  0  0  0  0  0  0  0  0  0  0  0
   19.8578   -5.8326  -13.2919 C   0  0  0  0  0  0  0  0  0  0  0  0
   19.1460   -5.6996  -14.3406 O   0  0  0  0  0  0  0  0  0  0  0  0
   14.0731   -8.7209   -7.1328 N   0  0  0  0  0  0  0  0  0  0  0  0
   13.3203   -8.3408   -8.3021 C   0  0  0  0  0  0  0  0  0  0  0  0
   12.1190   -8.7854   -8.4245 N   0  0  0  0  0  0  0  0  0  0  0  0
   13.9295   -7.4950   -9.2683 N   0  0  0  0  0  0  0  0  0  0  0  0
   15.3310   -7.5412   -9.5169 C   0  0  0  0  0  0  0  0  0  0  0  0
   15.7739   -6.6013  -10.6162 C   0  0  0  0  0  0  0  0  0  0  0  0
   17.2684   -6.6000  -10.7910 C   0  0  0  0  0  0  0  0  0  0  0  0
   17.7642   -5.7021  -11.8619 C   0  0  2  0  0  0  0  0  0  0  0  0
   19.1917   -5.8445  -12.0481 N   0  0  0  0  0  0  0  0  0  0  0  0
   17.3514   -4.2906  -11.7184 C   0  0  0  0  0  0  0  0  0  0  0  0
   16.1956   -3.8711  -12.0136 O   0  0  0  0  0  0  0  0  0  0  0  0
   18.2327   -3.3299  -11.2405 O   0  0  0  0  0  0  0  0  0  0  0  0
  2  3  1  0
  2  1  1  0
  3  4  1  1
  5  3  1  0
  6  5  2  0
  8  7  1  0
  9  8  1  6
  9 11  1  0
  9 10  1  0
 10  5  1  0
 11 21  1  0
 12 11  2  0
 14 15  2  0
 14 13  1  0
 16 14  1  0
 17 16  1  0
 18 17  1  0
 19 18  1  0
 20 19  1  1
 20 22  1  0
 21 20  1  0
 22 23  2  0
 22 24  1  0
M  END
$$$$
