SSR.pdb
     RDKit          3D

 24 23  0  0  1  0  0  0  0  0999 V2000
   19.8660  -12.1789  -17.8326 O   0  0  0  0  0  0  0  0  0  0  0  0
   21.0714  -11.5440  -18.1393 C   0  0  0  0  0  0  0  0  0  0  0  0
   21.9631  -11.6504  -16.9216 C   0  0  2  0  0  0  0  0  0  0  0  0
   22.3309  -13.0152  -16.6976 N   0  0  0  0  0  0  0  0  0  0  0  0
   21.3623  -11.0136  -15.7328 C   0  0  0  0  0  0  0  0  0  0  0  0
   20.6514  -11.7223  -14.9746 O   0  0  0  0  0  0  0  0  0  0  0  0
   21.5813   -6.8437  -15.1232 O   0  0  0  0  0  0  0  0  0  0  0  0
   21.7723   -7.6834  -14.0352 C   0  0  0  0  0  0  0  0  0  0  0  0
   21.0229   -8.9929  -14.2718 C   0  0  2  0  0  0  0  0  0  0  0  0
   21.5624   -9.6430  -15.4269 N   0  0  0  0  0  0  0  0  0  0  0  0
   19.5734   -8.7927  -14.3262 C   0  0  0  0  0  0  0  0  0  0  0  0
   19.0675   -8.5983  -15.4797 O   0  0  0  0  0  0  0  0  0  0  0  0
   12.9538  -10.5180   -8.6274 N   0  0  0  0  0  0  0  0  0  0  0  0
   12.2668   -9.9669   -9.7688 C   0  0  0  0  0  0  0  0  0  0  0  0
   10.9810   -9.9237   -9.7436 N   0  0  0  0  0  0  0  0  0  0  0  0
   13.0306   -9.4953  -10.8707 N   0  0  0  0  0  0  0  0  0  0  0  0
   14.4271   -9.7559  -10.9716 C   0  0  0  0  0  0  0  0  0  0  0  0
   15.0743   -9.0899  -12.1655 C   0  0  0  0  0  0  0  0  0  0  0  0
   16.5703   -9.2507  -12.1606 C   0  0  0  0  0  0  0  0  0  0  0  0
   17.2669   -8.5824  -13.2863 C   0  0  2  0  0  0  0  0  0  0  0  0
   18.6962   -8.7965  -13.2210 N   0  0  0  0  0  0  0  0  0  0  0  0
   16.9167   -7.1581  -13.4649 C   0  0  0  0  0  0  0  0  0  0  0  0
   17.5536   -6.2121  -12.9187 O   0  0  0  0  0  0  0  0  0  0  0  0
   15.8447   -6.7768  -14.2609 O   0  0  0  0  0  0  0  0  0  0  0  0
  2  3  1  0
  2  1  1  0
  3  4  1  1
  5  3  1  0
  6  5  2  0
  8  7  1  0
  9  8  1  6
  9 11  1  0
  9 10  1  0
 10  5  1  0
 11 21  1  0
 12 11  2  0
 14 15  2  0
 14 13  1  0
 16 14  1  0
 17 16  1  0
 18 17  1  0
 19 18  1  0
 20 19  1  1
 20 22  1  0
 21 20  1  0
 22 23  2  0
 22 24  1  0
M  END
$$$$
