SSR.pdb
     RDKit          3D

 24 23  0  0  1  0  0  0  0  0999 V2000
   21.9818  -22.2994  -12.4238 O   0  0  0  0  0  0  0  0  0  0  0  0
   22.5915  -21.0510  -12.5643 C   0  0  0  0  0  0  0  0  0  0  0  0
   23.9687  -21.2816  -13.1470 C   0  0  2  0  0  0  0  0  0  0  0  0
   24.7614  -22.0607  -12.2455 N   0  0  0  0  0  0  0  0  0  0  0  0
   24.6237  -20.0203  -13.5468 C   0  0  0  0  0  0  0  0  0  0  0  0
   25.2270  -19.3582  -12.6634 O   0  0  0  0  0  0  0  0  0  0  0  0
   27.2262  -19.2505  -16.2237 O   0  0  0  0  0  0  0  0  0  0  0  0
   26.0409  -18.6211  -16.5765 C   0  0  0  0  0  0  0  0  0  0  0  0
   25.2276  -18.3355  -15.3158 C   0  0  2  0  0  0  0  0  0  0  0  0
   24.5914  -19.5415  -14.8816 N   0  0  0  0  0  0  0  0  0  0  0  0
   24.3069  -17.2119  -15.5004 C   0  0  0  0  0  0  0  0  0  0  0  0
   23.1482  -17.4924  -15.9509 O   0  0  0  0  0  0  0  0  0  0  0  0
   21.5741  -10.1670  -13.3727 N   0  0  0  0  0  0  0  0  0  0  0  0
   22.1383   -9.3911  -14.4489 C   0  0  0  0  0  0  0  0  0  0  0  0
   21.5141   -8.3320  -14.8289 N   0  0  0  0  0  0  0  0  0  0  0  0
   23.3544   -9.8226  -15.0448 N   0  0  0  0  0  0  0  0  0  0  0  0
   24.0106  -11.0113  -14.6154 C   0  0  0  0  0  0  0  0  0  0  0  0
   23.3809  -12.2726  -15.1637 C   0  0  0  0  0  0  0  0  0  0  0  0
   24.2268  -13.4884  -14.8983 C   0  0  0  0  0  0  0  0  0  0  0  0
   23.6929  -14.7487  -15.4687 C   0  0  2  0  0  0  0  0  0  0  0  0
   24.5898  -15.8572  -15.2248 N   0  0  0  0  0  0  0  0  0  0  0  0
   23.2828  -14.6551  -16.8851 C   0  0  0  0  0  0  0  0  0  0  0  0
   24.0544  -14.9210  -17.8510 O   0  0  0  0  0  0  0  0  0  0  0  0
   21.9985  -14.2609  -17.2362 O   0  0  0  0  0  0  0  0  0  0  0  0
  2  3  1  0
  2  1  1  0
  3  4  1  1
  5  3  1  0
  6  5  2  0
  8  7  1  0
  9  8  1  6
  9 11  1  0
  9 10  1  0
 10  5  1  0
 11 21  1  0
 12 11  2  0
 14 15  2  0
 14 13  1  0
 16 14  1  0
 17 16  1  0
 18 17  1  0
 19 18  1  0
 20 19  1  6
 20 22  1  0
 21 20  1  0
 22 23  2  0
 22 24  1  0
M  END
$$$$
