TYY.pdb
     RDKit          3D

 32 33  0  0  1  0  0  0  0  0999 V2000
    7.6687  -16.2884   18.2267 C   0  0  0  0  0  0  0  0  0  0  0  0
    8.2057  -15.0019   17.6335 C   0  0  1  0  0  0  0  0  0  0  0  0
    7.7869  -14.9390   16.3053 O   0  0  0  0  0  0  0  0  0  0  0  0
    7.6503  -13.8656   18.4501 C   0  0  2  0  0  0  0  0  0  0  0  0
    7.8767  -12.6277   17.7694 N   0  0  0  0  0  0  0  0  0  0  0  0
    8.1135  -13.8565   19.8435 C   0  0  0  0  0  0  0  0  0  0  0  0
    9.3231  -13.5372   20.0507 O   0  0  0  0  0  0  0  0  0  0  0  0
    8.2487  -13.5877   28.7253 O   0  0  0  0  0  0  0  0  0  0  0  0
    7.8625  -13.6702   27.3770 C   0  0  0  0  0  0  0  0  0  0  0  0
    7.9635  -12.5802   26.5472 C   0  0  0  0  0  0  0  0  0  0  0  0
    7.5765  -12.6745   25.2090 C   0  0  0  0  0  0  0  0  0  0  0  0
    7.0891  -13.8579   24.7011 C   0  0  0  0  0  0  0  0  0  0  0  0
    6.6894  -13.9473   23.2968 C   0  0  0  0  0  0  0  0  0  0  0  0
    7.8342  -14.1654   22.3290 C   0  0  2  0  0  0  0  0  0  0  0  0
    7.3309  -14.1713   20.9657 N   0  0  0  0  0  0  0  0  0  0  0  0
    8.5205  -15.4131   22.6802 C   0  0  0  0  0  0  0  0  0  0  0  0
    7.9737  -16.4987   22.3574 O   0  0  0  0  0  0  0  0  0  0  0  0
    7.0016  -14.9297   25.5613 C   0  0  0  0  0  0  0  0  0  0  0  0
    7.3811  -14.8426   26.8797 C   0  0  0  0  0  0  0  0  0  0  0  0
   12.7720  -13.7269   18.6447 O   0  0  0  0  0  0  0  0  0  0  0  0
   12.5147  -14.5350   19.7470 C   0  0  0  0  0  0  0  0  0  0  0  0
   12.1015  -15.8232   19.6092 C   0  0  0  0  0  0  0  0  0  0  0  0
   11.8521  -16.6067   20.7360 C   0  0  0  0  0  0  0  0  0  0  0  0
   12.0162  -16.1011   22.0088 C   0  0  0  0  0  0  0  0  0  0  0  0
   11.7754  -16.8681   23.2440 C   0  0  0  0  0  0  0  0  0  0  0  0
   10.3796  -16.7286   23.7868 C   0  0  2  0  0  0  0  0  0  0  0  0
    9.7572  -15.4874   23.3580 N   0  0  0  0  0  0  0  0  0  0  0  0
   10.4582  -16.6919   25.2675 C   0  0  0  0  0  0  0  0  0  0  0  0
    9.9711  -15.6067   26.0145 O   0  0  0  0  0  0  0  0  0  0  0  0
   12.4371  -14.7883   22.1297 C   0  0  0  0  0  0  0  0  0  0  0  0
   12.6762  -14.0368   21.0112 C   0  0  0  0  0  0  0  0  0  0  0  0
   10.9640  -17.6246   25.9596 O   0  0  0  0  0  0  0  0  0  0  0  0
  2  3  1  0
  2  1  1  1
  4  5  1  6
  4  2  1  0
  6  4  1  0
  7  6  2  0
  9 10  2  0
  9  8  1  0
 11 10  1  0
 12 11  2  0
 13 12  1  0
 14 13  1  1
 14 16  1  0
 14 15  1  0
 15  6  1  0
 16 17  2  0
 18 12  1  0
 18 19  2  0
 19  9  1  0
 21 22  2  0
 21 20  1  0
 23 22  1  0
 24 23  2  0
 26 25  1  6
 25 24  1  0
 27 26  1  0
 27 16  1  0
 28 29  1  0
 28 26  1  0
 30 24  1  0
 30 31  2  0
 31 21  1  0
 32 28  2  0
M  END
$$$$
