TYY.pdb
     RDKit          3D

 32 33  0  0  1  0  0  0  0  0999 V2000
    6.4585  -20.6198   22.1550 C   0  0  0  0  0  0  0  0  0  0  0  0
    7.5536  -19.6883   22.6331 C   0  0  1  0  0  0  0  0  0  0  0  0
    8.6275  -20.4734   23.0499 O   0  0  0  0  0  0  0  0  0  0  0  0
    7.9248  -18.8010   21.4750 C   0  0  2  0  0  0  0  0  0  0  0  0
    8.3653  -19.6034   20.3755 N   0  0  0  0  0  0  0  0  0  0  0  0
    8.8658  -17.7304   21.8276 C   0  0  0  0  0  0  0  0  0  0  0  0
   10.0743  -17.8804   21.4741 O   0  0  0  0  0  0  0  0  0  0  0  0
    6.9119  -13.0407   17.4696 O   0  0  0  0  0  0  0  0  0  0  0  0
    7.3971  -13.3141   18.7594 C   0  0  0  0  0  0  0  0  0  0  0  0
    8.6873  -12.9976   19.1086 C   0  0  0  0  0  0  0  0  0  0  0  0
    9.1580  -13.2744   20.3937 C   0  0  0  0  0  0  0  0  0  0  0  0
    8.3392  -13.8670   21.3286 C   0  0  0  0  0  0  0  0  0  0  0  0
    8.8409  -14.1498   22.6732 C   0  0  0  0  0  0  0  0  0  0  0  0
    9.4994  -15.5054   22.8273 C   0  0  2  0  0  0  0  0  0  0  0  0
    8.5411  -16.5547   22.5228 N   0  0  0  0  0  0  0  0  0  0  0  0
   10.0425  -15.6168   24.1851 C   0  0  0  0  0  0  0  0  0  0  0  0
   11.0413  -14.9121   24.4811 O   0  0  0  0  0  0  0  0  0  0  0  0
    7.0522  -14.1704   20.9439 C   0  0  0  0  0  0  0  0  0  0  0  0
    6.5833  -13.9004   19.6802 C   0  0  0  0  0  0  0  0  0  0  0  0
    4.9515  -12.5842   25.6508 O   0  0  0  0  0  0  0  0  0  0  0  0
    6.0899  -13.2776   26.0477 C   0  0  0  0  0  0  0  0  0  0  0  0
    6.1590  -14.6343   25.9875 C   0  0  0  0  0  0  0  0  0  0  0  0
    7.3163  -15.2988   26.3936 C   0  0  0  0  0  0  0  0  0  0  0  0
    8.4119  -14.6046   26.8629 C   0  0  0  0  0  0  0  0  0  0  0  0
    9.6674  -15.2364   27.3060 C   0  0  0  0  0  0  0  0  0  0  0  0
   10.0138  -16.4955   26.5597 C   0  0  2  0  0  0  0  0  0  0  0  0
    9.5249  -16.4615   25.1915 N   0  0  0  0  0  0  0  0  0  0  0  0
    9.3475  -17.6350   27.2360 C   0  0  0  0  0  0  0  0  0  0  0  0
    9.6501  -17.9991   28.5584 O   0  0  0  0  0  0  0  0  0  0  0  0
    8.3235  -13.2245   26.9172 C   0  0  0  0  0  0  0  0  0  0  0  0
    7.1787  -12.5922   26.5139 C   0  0  0  0  0  0  0  0  0  0  0  0
    8.4672  -18.3554   26.6783 O   0  0  0  0  0  0  0  0  0  0  0  0
  2  3  1  0
  2  1  1  6
  4  5  1  6
  4  2  1  0
  6  4  1  0
  7  6  2  0
  9 10  2  0
  9  8  1  0
 11 10  1  0
 12 11  2  0
 13 12  1  0
 14 13  1  1
 14 16  1  0
 14 15  1  0
 15  6  1  0
 16 17  2  0
 18 12  1  0
 18 19  2  0
 19  9  1  0
 21 22  2  0
 21 20  1  0
 23 22  1  0
 24 23  2  0
 26 25  1  1
 25 24  1  0
 27 26  1  0
 27 16  1  0
 28 29  1  0
 28 26  1  0
 30 24  1  0
 30 31  2  0
 31 21  1  0
 32 28  2  0
M  END
$$$$
