TYY.pdb
     RDKit          3D

 32 33  0  0  1  0  0  0  0  0999 V2000
    9.2066  -19.7335   18.0805 C   0  0  0  0  0  0  0  0  0  0  0  0
    9.3942  -18.9593   19.3693 C   0  0  1  0  0  0  0  0  0  0  0  0
   10.6761  -19.2306   19.8453 O   0  0  0  0  0  0  0  0  0  0  0  0
    9.2143  -17.5000   19.0459 C   0  0  2  0  0  0  0  0  0  0  0  0
   10.0888  -17.1327   17.9748 N   0  0  0  0  0  0  0  0  0  0  0  0
    9.3226  -16.6172   20.2142 C   0  0  0  0  0  0  0  0  0  0  0  0
   10.4671  -16.1374   20.4747 O   0  0  0  0  0  0  0  0  0  0  0  0
    7.2713  -12.2293   27.7197 O   0  0  0  0  0  0  0  0  0  0  0  0
    7.2258  -12.9919   26.5406 C   0  0  0  0  0  0  0  0  0  0  0  0
    6.7224  -14.2699   26.5471 C   0  0  0  0  0  0  0  0  0  0  0  0
    6.6824  -15.0180   25.3688 C   0  0  0  0  0  0  0  0  0  0  0  0
    7.1454  -14.4883   24.1851 C   0  0  0  0  0  0  0  0  0  0  0  0
    7.0962  -15.2790   22.9555 C   0  0  0  0  0  0  0  0  0  0  0  0
    8.4383  -15.4804   22.2823 C   0  0  2  0  0  0  0  0  0  0  0  0
    8.2667  -16.2592   21.0674 N   0  0  0  0  0  0  0  0  0  0  0  0
    9.3549  -16.1174   23.2336 C   0  0  0  0  0  0  0  0  0  0  0  0
    9.0709  -17.2716   23.6446 O   0  0  0  0  0  0  0  0  0  0  0  0
    7.6431  -13.2047   24.2158 C   0  0  0  0  0  0  0  0  0  0  0  0
    7.6850  -12.4635   25.3728 C   0  0  0  0  0  0  0  0  0  0  0  0
    9.5496  -13.3731   30.0641 O   0  0  0  0  0  0  0  0  0  0  0  0
    9.8170  -14.2699   29.0352 C   0  0  0  0  0  0  0  0  0  0  0  0
    9.6303  -15.6084   29.1859 C   0  0  0  0  0  0  0  0  0  0  0  0
    9.9084  -16.4806   28.1333 C   0  0  0  0  0  0  0  0  0  0  0  0
   10.3756  -16.0138   26.9225 C   0  0  0  0  0  0  0  0  0  0  0  0
   10.6877  -16.8727   25.7663 C   0  0  0  0  0  0  0  0  0  0  0  0
   11.4399  -16.1703   24.6694 C   0  0  2  0  0  0  0  0  0  0  0  0
   10.5401  -15.5281   23.7260 N   0  0  0  0  0  0  0  0  0  0  0  0
   12.2164  -17.1842   23.9152 C   0  0  0  0  0  0  0  0  0  0  0  0
   13.2530  -17.9237   24.5080 O   0  0  0  0  0  0  0  0  0  0  0  0
   10.5595  -14.6488   26.7874 C   0  0  0  0  0  0  0  0  0  0  0  0
   10.2807  -13.8104   27.8326 C   0  0  0  0  0  0  0  0  0  0  0  0
   12.0051  -17.4551   22.6958 O   0  0  0  0  0  0  0  0  0  0  0  0
  2  3  1  0
  2  1  1  6
  4  5  1  6
  4  2  1  0
  6  4  1  0
  7  6  2  0
  9 10  2  0
  9  8  1  0
 11 10  1  0
 12 11  2  0
 13 12  1  0
 14 13  1  1
 14 16  1  0
 14 15  1  0
 15  6  1  0
 16 17  2  0
 18 12  1  0
 18 19  2  0
 19  9  1  0
 21 22  2  0
 21 20  1  0
 23 22  1  0
 24 23  2  0
 26 25  1  1
 25 24  1  0
 27 26  1  0
 27 16  1  0
 28 29  1  0
 28 26  1  0
 30 24  1  0
 30 31  2  0
 31 21  1  0
 32 28  2  0
M  END
$$$$
