TYY.pdb
     RDKit          3D

 32 33  0  0  1  0  0  0  0  0999 V2000
    8.7219  -15.0732   15.1271 C   0  0  0  0  0  0  0  0  0  0  0  0
    9.0572  -15.1548   16.6024 C   0  0  1  0  0  0  0  0  0  0  0  0
   10.4314  -14.9629   16.7372 O   0  0  0  0  0  0  0  0  0  0  0  0
    8.2703  -14.0784   17.3012 C   0  0  2  0  0  0  0  0  0  0  0  0
    8.5178  -12.8167   16.6739 N   0  0  0  0  0  0  0  0  0  0  0  0
    8.4655  -14.0528   18.7564 C   0  0  0  0  0  0  0  0  0  0  0  0
    9.4925  -13.4510   19.1935 O   0  0  0  0  0  0  0  0  0  0  0  0
    6.9986  -14.6128   27.5185 O   0  0  0  0  0  0  0  0  0  0  0  0
    6.8975  -14.7033   26.1201 C   0  0  0  0  0  0  0  0  0  0  0  0
    6.8799  -15.9250   25.4925 C   0  0  0  0  0  0  0  0  0  0  0  0
    6.7791  -16.0020   24.1020 C   0  0  0  0  0  0  0  0  0  0  0  0
    6.6959  -14.8582   23.3400 C   0  0  0  0  0  0  0  0  0  0  0  0
    6.5873  -14.9497   21.8841 C   0  0  0  0  0  0  0  0  0  0  0  0
    7.8638  -14.6249   21.1359 C   0  0  2  0  0  0  0  0  0  0  0  0
    7.6116  -14.6380   19.7048 N   0  0  0  0  0  0  0  0  0  0  0  0
    8.9022  -15.5818   21.5324 C   0  0  0  0  0  0  0  0  0  0  0  0
    8.8900  -16.7208   20.9992 O   0  0  0  0  0  0  0  0  0  0  0  0
    6.7164  -13.6511   24.0025 C   0  0  0  0  0  0  0  0  0  0  0  0
    6.8156  -13.5692   25.3711 C   0  0  0  0  0  0  0  0  0  0  0  0
   13.5274  -15.3030   17.0831 O   0  0  0  0  0  0  0  0  0  0  0  0
   13.2131  -15.3767   18.4359 C   0  0  0  0  0  0  0  0  0  0  0  0
   12.5966  -14.3525   19.0842 C   0  0  0  0  0  0  0  0  0  0  0  0
   12.2953  -14.4590   20.4421 C   0  0  0  0  0  0  0  0  0  0  0  0
   12.6114  -15.5950   21.1575 C   0  0  0  0  0  0  0  0  0  0  0  0
   12.3222  -15.7807   22.5906 C   0  0  0  0  0  0  0  0  0  0  0  0
   10.9327  -16.2826   22.8731 C   0  0  2  0  0  0  0  0  0  0  0  0
    9.9211  -15.3185   22.4741 N   0  0  0  0  0  0  0  0  0  0  0  0
   10.7983  -16.4799   24.3369 C   0  0  0  0  0  0  0  0  0  0  0  0
    9.8158  -15.8190   25.0924 O   0  0  0  0  0  0  0  0  0  0  0  0
   13.2385  -16.6270   20.4813 C   0  0  0  0  0  0  0  0  0  0  0  0
   13.5252  -16.5021   19.1489 C   0  0  0  0  0  0  0  0  0  0  0  0
   11.5501  -17.2493   25.0061 O   0  0  0  0  0  0  0  0  0  0  0  0
  2  3  1  0
  2  1  1  6
  4  5  1  6
  4  2  1  0
  6  4  1  0
  7  6  2  0
  9 10  2  0
  9  8  1  0
 11 10  1  0
 12 11  2  0
 13 12  1  0
 14 13  1  1
 14 16  1  0
 14 15  1  0
 15  6  1  0
 16 17  2  0
 18 12  1  0
 18 19  2  0
 19  9  1  0
 21 22  2  0
 21 20  1  0
 23 22  1  0
 24 23  2  0
 26 25  1  1
 25 24  1  0
 27 26  1  0
 27 16  1  0
 28 29  1  0
 28 26  1  0
 30 24  1  0
 30 31  2  0
 31 21  1  0
 32 28  2  0
M  END
$$$$
