TYY.pdb
     RDKit          3D

 32 33  0  0  1  0  0  0  0  0999 V2000
    9.8340  -19.4742   18.3134 C   0  0  0  0  0  0  0  0  0  0  0  0
    9.7885  -18.6112   19.5578 C   0  0  1  0  0  0  0  0  0  0  0  0
   10.9877  -18.7928   20.2450 O   0  0  0  0  0  0  0  0  0  0  0  0
    9.6111  -17.1854   19.1084 C   0  0  2  0  0  0  0  0  0  0  0  0
   10.6176  -16.8547   18.1470 N   0  0  0  0  0  0  0  0  0  0  0  0
    9.5239  -16.2229   20.2139 C   0  0  0  0  0  0  0  0  0  0  0  0
   10.5943  -15.6367   20.5585 O   0  0  0  0  0  0  0  0  0  0  0  0
    6.3705  -11.5255   27.1209 O   0  0  0  0  0  0  0  0  0  0  0  0
    6.5038  -12.3184   25.9687 C   0  0  0  0  0  0  0  0  0  0  0  0
    6.0608  -13.6185   25.9530 C   0  0  0  0  0  0  0  0  0  0  0  0
    6.1989  -14.3965   24.8019 C   0  0  0  0  0  0  0  0  0  0  0  0
    6.7792  -13.8747   23.6675 C   0  0  0  0  0  0  0  0  0  0  0  0
    6.9163  -14.6971   22.4656 C   0  0  0  0  0  0  0  0  0  0  0  0
    8.3417  -15.0786   22.1229 C   0  0  2  0  0  0  0  0  0  0  0  0
    8.3563  -15.8966   20.9218 N   0  0  0  0  0  0  0  0  0  0  0  0
    8.9398  -15.7611   23.2751 C   0  0  0  0  0  0  0  0  0  0  0  0
    8.6337  -16.9649   23.4724 O   0  0  0  0  0  0  0  0  0  0  0  0
    7.2117  -12.5683   23.7192 C   0  0  0  0  0  0  0  0  0  0  0  0
    7.0785  -11.7976   24.8497 C   0  0  0  0  0  0  0  0  0  0  0  0
   11.7183  -16.8265   31.6136 O   0  0  0  0  0  0  0  0  0  0  0  0
   11.5151  -16.3708   30.3154 C   0  0  0  0  0  0  0  0  0  0  0  0
   11.8760  -17.1100   29.2326 C   0  0  0  0  0  0  0  0  0  0  0  0
   11.6580  -16.6231   27.9437 C   0  0  0  0  0  0  0  0  0  0  0  0
   11.0758  -15.3905   27.7341 C   0  0  0  0  0  0  0  0  0  0  0  0
   10.8117  -14.8126   26.4044 C   0  0  0  0  0  0  0  0  0  0  0  0
   10.3348  -15.8132   25.3876 C   0  0  2  0  0  0  0  0  0  0  0  0
    9.8392  -15.1640   24.1855 N   0  0  0  0  0  0  0  0  0  0  0  0
    9.2035  -16.5706   25.9759 C   0  0  0  0  0  0  0  0  0  0  0  0
    9.3547  -17.8783   26.4659 O   0  0  0  0  0  0  0  0  0  0  0  0
   10.7150  -14.6522   28.8477 C   0  0  0  0  0  0  0  0  0  0  0  0
   10.9378  -15.1483   30.1036 C   0  0  0  0  0  0  0  0  0  0  0  0
    8.0316  -16.1005   26.0789 O   0  0  0  0  0  0  0  0  0  0  0  0
  2  3  1  0
  2  1  1  6
  4  5  1  6
  4  2  1  0
  6  4  1  0
  7  6  2  0
  9 10  2  0
  9  8  1  0
 11 10  1  0
 12 11  2  0
 13 12  1  0
 14 13  1  1
 14 16  1  0
 14 15  1  0
 15  6  1  0
 16 17  2  0
 18 12  1  0
 18 19  2  0
 19  9  1  0
 21 22  2  0
 21 20  1  0
 23 22  1  0
 24 23  2  0
 26 25  1  1
 25 24  1  0
 27 26  1  0
 27 16  1  0
 28 29  1  0
 28 26  1  0
 30 24  1  0
 30 31  2  0
 31 21  1  0
 32 28  2  0
M  END
$$$$
