TYY.pdb
     RDKit          3D

 32 33  0  0  1  0  0  0  0  0999 V2000
    9.6845  -18.4233   16.8792 C   0  0  0  0  0  0  0  0  0  0  0  0
    9.3115  -17.9130   18.2561 C   0  0  1  0  0  0  0  0  0  0  0  0
   10.0012  -16.7203   18.4687 O   0  0  0  0  0  0  0  0  0  0  0  0
    7.8202  -17.7073   18.2692 C   0  0  2  0  0  0  0  0  0  0  0  0
    7.4511  -16.7924   17.2331 N   0  0  0  0  0  0  0  0  0  0  0  0
    7.2848  -17.3411   19.5865 C   0  0  0  0  0  0  0  0  0  0  0  0
    7.0605  -16.1115   19.8002 O   0  0  0  0  0  0  0  0  0  0  0  0
    0.8091  -19.9206   19.4664 O   0  0  0  0  0  0  0  0  0  0  0  0
    1.9862  -19.6904   20.1982 C   0  0  0  0  0  0  0  0  0  0  0  0
    3.1031  -20.4646   19.9979 C   0  0  0  0  0  0  0  0  0  0  0  0
    4.2670  -20.2261   20.7313 C   0  0  0  0  0  0  0  0  0  0  0  0
    4.3140  -19.2143   21.6640 C   0  0  0  0  0  0  0  0  0  0  0  0
    5.5393  -18.9705   22.4248 C   0  0  0  0  0  0  0  0  0  0  0  0
    6.3976  -17.8418   21.8916 C   0  0  2  0  0  0  0  0  0  0  0  0
    7.0002  -18.2368   20.6295 N   0  0  0  0  0  0  0  0  0  0  0  0
    7.3967  -17.4868   22.9048 C   0  0  0  0  0  0  0  0  0  0  0  0
    8.5002  -18.0899   22.8826 O   0  0  0  0  0  0  0  0  0  0  0  0
    3.1761  -18.4585   21.8385 C   0  0  0  0  0  0  0  0  0  0  0  0
    2.0274  -18.6887   21.1193 C   0  0  0  0  0  0  0  0  0  0  0  0
   11.1589  -14.0393   30.2128 O   0  0  0  0  0  0  0  0  0  0  0  0
   10.2941  -14.3439   29.1670 C   0  0  0  0  0  0  0  0  0  0  0  0
    9.4621  -15.4185   29.2161 C   0  0  0  0  0  0  0  0  0  0  0  0
    8.6069  -15.6957   28.1495 C   0  0  0  0  0  0  0  0  0  0  0  0
    8.5818  -14.8952   27.0266 C   0  0  0  0  0  0  0  0  0  0  0  0
    7.7049  -15.1231   25.8643 C   0  0  0  0  0  0  0  0  0  0  0  0
    8.1982  -16.1917   24.9277 C   0  0  2  0  0  0  0  0  0  0  0  0
    7.2114  -16.5123   23.9101 N   0  0  0  0  0  0  0  0  0  0  0  0
    8.4348  -17.4265   25.7145 C   0  0  0  0  0  0  0  0  0  0  0  0
    9.7182  -17.8058   26.1411 O   0  0  0  0  0  0  0  0  0  0  0  0
    9.4353  -13.8062   26.9943 C   0  0  0  0  0  0  0  0  0  0  0  0
   10.2665  -13.5521   28.0514 C   0  0  0  0  0  0  0  0  0  0  0  0
    7.5087  -18.2207   26.0560 O   0  0  0  0  0  0  0  0  0  0  0  0
  2  3  1  0
  2  1  1  6
  4  5  1  6
  4  2  1  0
  6  4  1  0
  7  6  2  0
  9 10  2  0
  9  8  1  0
 11 10  1  0
 12 11  2  0
 13 12  1  0
 14 13  1  1
 14 16  1  0
 14 15  1  0
 15  6  1  0
 16 17  2  0
 18 12  1  0
 18 19  2  0
 19  9  1  0
 21 22  2  0
 21 20  1  0
 23 22  1  0
 24 23  2  0
 26 25  1  1
 25 24  1  0
 27 26  1  0
 27 16  1  0
 28 29  1  0
 28 26  1  0
 30 24  1  0
 30 31  2  0
 31 21  1  0
 32 28  2  0
M  END
$$$$
