TYY.pdb
     RDKit          3D

 32 33  0  0  1  0  0  0  0  0999 V2000
    8.1120  -18.7948   18.9418 C   0  0  0  0  0  0  0  0  0  0  0  0
    9.5800  -18.4419   18.8149 C   0  0  1  0  0  0  0  0  0  0  0  0
   10.0753  -19.0854   17.6818 O   0  0  0  0  0  0  0  0  0  0  0  0
    9.6722  -16.9442   18.6935 C   0  0  2  0  0  0  0  0  0  0  0  0
   10.7557  -16.5971   17.8262 N   0  0  0  0  0  0  0  0  0  0  0  0
    9.7149  -16.2473   19.9853 C   0  0  0  0  0  0  0  0  0  0  0  0
   10.8540  -16.0797   20.5167 O   0  0  0  0  0  0  0  0  0  0  0  0
    7.1215  -12.4493   27.6331 O   0  0  0  0  0  0  0  0  0  0  0  0
    7.1848  -12.9576   26.3248 C   0  0  0  0  0  0  0  0  0  0  0  0
    7.7906  -12.2433   25.3200 C   0  0  0  0  0  0  0  0  0  0  0  0
    7.8472  -12.7591   24.0237 C   0  0  0  0  0  0  0  0  0  0  0  0
    7.2987  -13.9880   23.7327 C   0  0  0  0  0  0  0  0  0  0  0  0
    7.3662  -14.5209   22.3721 C   0  0  0  0  0  0  0  0  0  0  0  0
    8.6643  -15.2256   22.0355 C   0  0  2  0  0  0  0  0  0  0  0  0
    8.6017  -15.7508   20.6820 N   0  0  0  0  0  0  0  0  0  0  0  0
    8.9081  -16.2720   23.0338 C   0  0  0  0  0  0  0  0  0  0  0  0
    7.9184  -16.9138   23.4702 O   0  0  0  0  0  0  0  0  0  0  0  0
    6.6996  -14.6761   24.7642 C   0  0  0  0  0  0  0  0  0  0  0  0
    6.6408  -14.1733   26.0423 C   0  0  0  0  0  0  0  0  0  0  0  0
   10.6281  -15.2213   31.1799 O   0  0  0  0  0  0  0  0  0  0  0  0
   10.4704  -15.1762   29.7988 C   0  0  0  0  0  0  0  0  0  0  0  0
   10.2722  -14.0037   29.1390 C   0  0  0  0  0  0  0  0  0  0  0  0
   10.1176  -13.9938   27.7527 C   0  0  0  0  0  0  0  0  0  0  0  0
   10.1613  -15.1616   27.0201 C   0  0  0  0  0  0  0  0  0  0  0  0
   10.0095  -15.2290   25.5558 C   0  0  0  0  0  0  0  0  0  0  0  0
   10.5581  -16.4881   24.9424 C   0  0  2  0  0  0  0  0  0  0  0  0
   10.1790  -16.6151   23.5452 N   0  0  0  0  0  0  0  0  0  0  0  0
    9.9768  -17.6473   25.6623 C   0  0  0  0  0  0  0  0  0  0  0  0
    9.1489  -18.5847   25.0230 O   0  0  0  0  0  0  0  0  0  0  0  0
   10.3639  -16.3450   27.7084 C   0  0  0  0  0  0  0  0  0  0  0  0
   10.5131  -16.3327   29.0688 C   0  0  0  0  0  0  0  0  0  0  0  0
   10.1813  -17.8752   26.8916 O   0  0  0  0  0  0  0  0  0  0  0  0
  2  3  1  0
  2  1  1  6
  4  5  1  1
  4  2  1  0
  6  4  1  0
  7  6  2  0
  9 10  2  0
  9  8  1  0
 11 10  1  0
 12 11  2  0
 13 12  1  0
 14 13  1  1
 14 16  1  0
 14 15  1  0
 15  6  1  0
 16 17  2  0
 18 12  1  0
 18 19  2  0
 19  9  1  0
 21 22  2  0
 21 20  1  0
 23 22  1  0
 24 23  2  0
 26 25  1  1
 25 24  1  0
 27 26  1  0
 27 16  1  0
 28 29  1  0
 28 26  1  0
 30 24  1  0
 30 31  2  0
 31 21  1  0
 32 28  2  0
M  END
$$$$
