TYY.pdb
     RDKit          3D

 32 33  0  0  1  0  0  0  0  0999 V2000
    9.8018  -19.4006   18.0576 C   0  0  0  0  0  0  0  0  0  0  0  0
    9.8154  -18.6641   19.3816 C   0  0  1  0  0  0  0  0  0  0  0  0
   11.0144  -18.9679   20.0246 O   0  0  0  0  0  0  0  0  0  0  0  0
    9.6997  -17.1941   19.0781 C   0  0  2  0  0  0  0  0  0  0  0  0
   10.7327  -16.8077   18.1668 N   0  0  0  0  0  0  0  0  0  0  0  0
    9.6328  -16.3462   20.2750 C   0  0  0  0  0  0  0  0  0  0  0  0
   10.7079  -15.7902   20.6531 O   0  0  0  0  0  0  0  0  0  0  0  0
    6.4938  -11.4870   27.0518 O   0  0  0  0  0  0  0  0  0  0  0  0
    6.6279  -12.3370   25.9411 C   0  0  0  0  0  0  0  0  0  0  0  0
    7.1310  -11.8683   24.7520 C   0  0  0  0  0  0  0  0  0  0  0  0
    7.2594  -12.7227   23.6552 C   0  0  0  0  0  0  0  0  0  0  0  0
    6.8852  -14.0445   23.7476 C   0  0  0  0  0  0  0  0  0  0  0  0
    7.0267  -14.9323   22.5936 C   0  0  0  0  0  0  0  0  0  0  0  0
    8.4587  -15.2572   22.2210 C   0  0  2  0  0  0  0  0  0  0  0  0
    8.4795  -16.0988   21.0365 N   0  0  0  0  0  0  0  0  0  0  0  0
    9.1159  -15.8880   23.3704 C   0  0  0  0  0  0  0  0  0  0  0  0
    8.8157  -17.0788   23.6419 O   0  0  0  0  0  0  0  0  0  0  0  0
    6.3850  -14.4798   24.9545 C   0  0  0  0  0  0  0  0  0  0  0  0
    6.2562  -13.6432   26.0377 C   0  0  0  0  0  0  0  0  0  0  0  0
   11.9029  -16.9219   31.5889 O   0  0  0  0  0  0  0  0  0  0  0  0
   11.5768  -16.3568   30.3607 C   0  0  0  0  0  0  0  0  0  0  0  0
   10.6643  -15.3542   30.2538 C   0  0  0  0  0  0  0  0  0  0  0  0
   10.3601  -14.8095   29.0061 C   0  0  0  0  0  0  0  0  0  0  0  0
   10.9707  -15.2684   27.8577 C   0  0  0  0  0  0  0  0  0  0  0  0
   10.7032  -14.7409   26.5078 C   0  0  0  0  0  0  0  0  0  0  0  0
   10.5496  -15.8050   25.4559 C   0  0  2  0  0  0  0  0  0  0  0  0
   10.0668  -15.2546   24.2005 N   0  0  0  0  0  0  0  0  0  0  0  0
    9.5365  -16.7808   25.9262 C   0  0  0  0  0  0  0  0  0  0  0  0
    8.1819  -16.4390   26.0725 O   0  0  0  0  0  0  0  0  0  0  0  0
   11.8966  -16.2891   27.9856 C   0  0  0  0  0  0  0  0  0  0  0  0
   12.1805  -16.8096   29.2192 C   0  0  0  0  0  0  0  0  0  0  0  0
    9.8139  -17.9797   26.2272 O   0  0  0  0  0  0  0  0  0  0  0  0
  2  3  1  0
  2  1  1  6
  4  5  1  1
  4  2  1  0
  6  4  1  0
  7  6  2  0
  9 10  2  0
  9  8  1  0
 11 10  1  0
 12 11  2  0
 13 12  1  0
 14 13  1  1
 14 16  1  0
 14 15  1  0
 15  6  1  0
 16 17  2  0
 18 12  1  0
 18 19  2  0
 19  9  1  0
 21 22  2  0
 21 20  1  0
 23 22  1  0
 24 23  2  0
 26 25  1  1
 25 24  1  0
 27 26  1  0
 27 16  1  0
 28 29  1  0
 28 26  1  0
 30 24  1  0
 30 31  2  0
 31 21  1  0
 32 28  2  0
M  END
$$$$
