TYY.pdb
     RDKit          3D

 32 33  0  0  1  0  0  0  0  0999 V2000
    6.7166  -18.4879   19.7126 C   0  0  0  0  0  0  0  0  0  0  0  0
    5.2532  -18.1161   19.8385 C   0  0  1  0  0  0  0  0  0  0  0  0
    4.6083  -18.5282   18.6734 O   0  0  0  0  0  0  0  0  0  0  0  0
    4.7149  -18.8201   21.0554 C   0  0  2  0  0  0  0  0  0  0  0  0
    3.2860  -18.7500   21.0597 N   0  0  0  0  0  0  0  0  0  0  0  0
    5.3231  -18.3734   22.3151 C   0  0  0  0  0  0  0  0  0  0  0  0
    5.0894  -17.1822   22.6817 O   0  0  0  0  0  0  0  0  0  0  0  0
    9.6637  -18.3067   30.0918 O   0  0  0  0  0  0  0  0  0  0  0  0
    9.0980  -18.6746   28.8595 C   0  0  0  0  0  0  0  0  0  0  0  0
    7.7411  -18.6038   28.6579 C   0  0  0  0  0  0  0  0  0  0  0  0
    7.1907  -18.9722   27.4288 C   0  0  0  0  0  0  0  0  0  0  0  0
    7.9966  -19.4109   26.4021 C   0  0  0  0  0  0  0  0  0  0  0  0
    7.4104  -19.7914   25.1171 C   0  0  0  0  0  0  0  0  0  0  0  0
    6.8008  -18.6437   24.3385 C   0  0  2  0  0  0  0  0  0  0  0  0
    6.1413  -19.1530   23.1479 N   0  0  0  0  0  0  0  0  0  0  0  0
    7.8532  -17.6713   24.0258 C   0  0  0  0  0  0  0  0  0  0  0  0
    8.6968  -17.9773   23.1446 O   0  0  0  0  0  0  0  0  0  0  0  0
    9.3518  -19.4692   26.6395 C   0  0  0  0  0  0  0  0  0  0  0  0
    9.8993  -19.1079   27.8476 C   0  0  0  0  0  0  0  0  0  0  0  0
    6.5934  -13.8092   18.5939 O   0  0  0  0  0  0  0  0  0  0  0  0
    6.9953  -13.8829   19.9233 C   0  0  0  0  0  0  0  0  0  0  0  0
    6.0960  -13.9839   20.9384 C   0  0  0  0  0  0  0  0  0  0  0  0
    6.5330  -14.0558   22.2612 C   0  0  0  0  0  0  0  0  0  0  0  0
    7.8762  -14.0269   22.5729 C   0  0  0  0  0  0  0  0  0  0  0  0
    8.4120  -14.1014   23.9438 C   0  0  0  0  0  0  0  0  0  0  0  0
    9.0119  -15.4358   24.2931 C   0  0  2  0  0  0  0  0  0  0  0  0
    7.9913  -16.4091   24.6439 N   0  0  0  0  0  0  0  0  0  0  0  0
    9.8779  -15.2587   25.4841 C   0  0  0  0  0  0  0  0  0  0  0  0
    9.6292  -15.9269   26.6943 O   0  0  0  0  0  0  0  0  0  0  0  0
    8.7768  -13.9237   21.5271 C   0  0  0  0  0  0  0  0  0  0  0  0
    8.3271  -13.8543   20.2364 C   0  0  0  0  0  0  0  0  0  0  0  0
   10.8933  -14.5013   25.4982 O   0  0  0  0  0  0  0  0  0  0  0  0
  2  3  1  0
  2  1  1  6
  4  5  1  1
  4  2  1  0
  6  4  1  0
  7  6  2  0
  9 10  2  0
  9  8  1  0
 11 10  1  0
 12 11  2  0
 13 12  1  0
 14 13  1  6
 14 16  1  0
 14 15  1  0
 15  6  1  0
 16 17  2  0
 18 12  1  0
 18 19  2  0
 19  9  1  0
 21 22  2  0
 21 20  1  0
 23 22  1  0
 24 23  2  0
 26 25  1  1
 25 24  1  0
 27 26  1  0
 27 16  1  0
 28 29  1  0
 28 26  1  0
 30 24  1  0
 30 31  2  0
 31 21  1  0
 32 28  2  0
M  END
$$$$
