TYY.pdb
     RDKit          3D

 32 33  0  0  1  0  0  0  0  0999 V2000
    7.0003  -12.7179   19.0645 C   0  0  0  0  0  0  0  0  0  0  0  0
    7.7455  -13.6762   19.9710 C   0  0  1  0  0  0  0  0  0  0  0  0
    6.8295  -14.6165   20.4402 O   0  0  0  0  0  0  0  0  0  0  0  0
    8.8334  -14.3156   19.1501 C   0  0  2  0  0  0  0  0  0  0  0  0
    8.2718  -14.8773   17.9601 N   0  0  0  0  0  0  0  0  0  0  0  0
    9.6648  -15.2624   19.9040 C   0  0  0  0  0  0  0  0  0  0  0  0
    9.6246  -16.4794   19.5500 O   0  0  0  0  0  0  0  0  0  0  0  0
   16.0023  -14.4655   17.6119 O   0  0  0  0  0  0  0  0  0  0  0  0
   15.1633  -14.6749   18.7192 C   0  0  0  0  0  0  0  0  0  0  0  0
   14.2334  -13.7330   19.0867 C   0  0  0  0  0  0  0  0  0  0  0  0
   13.4053  -13.9526   20.1892 C   0  0  0  0  0  0  0  0  0  0  0  0
   13.5069  -15.1131   20.9233 C   0  0  0  0  0  0  0  0  0  0  0  0
   12.6323  -15.3349   22.0747 C   0  0  0  0  0  0  0  0  0  0  0  0
   11.2739  -15.9112   21.7318 C   0  0  2  0  0  0  0  0  0  0  0  0
   10.5004  -14.9347   20.9835 N   0  0  0  0  0  0  0  0  0  0  0  0
   10.6083  -16.3253   22.9713 C   0  0  0  0  0  0  0  0  0  0  0  0
   11.2358  -17.0846   23.7533 O   0  0  0  0  0  0  0  0  0  0  0  0
   14.4498  -16.0348   20.5263 C   0  0  0  0  0  0  0  0  0  0  0  0
   15.2679  -15.8241   19.4418 C   0  0  0  0  0  0  0  0  0  0  0  0
   11.0476  -14.6468   30.1737 O   0  0  0  0  0  0  0  0  0  0  0  0
   10.3263  -14.8811   29.0079 C   0  0  0  0  0  0  0  0  0  0  0  0
   10.1027  -16.1403   28.5454 C   0  0  0  0  0  0  0  0  0  0  0  0
    9.3749  -16.3402   27.3723 C   0  0  0  0  0  0  0  0  0  0  0  0
    8.8670  -15.2766   26.6560 C   0  0  0  0  0  0  0  0  0  0  0  0
    8.0876  -15.4099   25.4124 C   0  0  0  0  0  0  0  0  0  0  0  0
    8.5889  -16.4875   24.4904 C   0  0  2  0  0  0  0  0  0  0  0  0
    9.3071  -15.9329   23.3552 N   0  0  0  0  0  0  0  0  0  0  0  0
    7.4175  -17.2214   23.9529 C   0  0  0  0  0  0  0  0  0  0  0  0
    7.1792  -17.3405   22.5738 O   0  0  0  0  0  0  0  0  0  0  0  0
    9.1044  -14.0025   27.1417 C   0  0  0  0  0  0  0  0  0  0  0  0
    9.8209  -13.8283   28.2946 C   0  0  0  0  0  0  0  0  0  0  0  0
    6.5556  -17.7882   24.6884 O   0  0  0  0  0  0  0  0  0  0  0  0
  2  3  1  0
  2  1  1  6
  4  5  1  6
  4  2  1  0
  6  4  1  0
  7  6  2  0
  9 10  2  0
  9  8  1  0
 11 10  1  0
 12 11  2  0
 13 12  1  0
 14 13  1  1
 14 16  1  0
 14 15  1  0
 15  6  1  0
 16 17  2  0
 18 12  1  0
 18 19  2  0
 19  9  1  0
 21 22  2  0
 21 20  1  0
 23 22  1  0
 24 23  2  0
 26 25  1  1
 25 24  1  0
 27 26  1  0
 27 16  1  0
 28 29  1  0
 28 26  1  0
 30 24  1  0
 30 31  2  0
 31 21  1  0
 32 28  2  0
M  END
$$$$
