TYY.pdb
     RDKit          3D

 32 33  0  0  1  0  0  0  0  0999 V2000
    8.0118  -20.7282   20.1409 C   0  0  0  0  0  0  0  0  0  0  0  0
    9.1806  -19.7643   20.1237 C   0  0  1  0  0  0  0  0  0  0  0  0
   10.3423  -20.5085   19.9235 O   0  0  0  0  0  0  0  0  0  0  0  0
    8.9406  -18.7887   19.0026 C   0  0  2  0  0  0  0  0  0  0  0  0
    8.7519  -19.5010   17.7763 N   0  0  0  0  0  0  0  0  0  0  0  0
    9.9553  -17.7312   18.9110 C   0  0  0  0  0  0  0  0  0  0  0  0
   10.7844  -17.8041   17.9543 O   0  0  0  0  0  0  0  0  0  0  0  0
    5.9824  -12.8189   16.9466 O   0  0  0  0  0  0  0  0  0  0  0  0
    7.1044  -13.1766   17.7129 C   0  0  0  0  0  0  0  0  0  0  0  0
    7.0428  -13.1979   19.0849 C   0  0  0  0  0  0  0  0  0  0  0  0
    8.1646  -13.5550   19.8356 C   0  0  0  0  0  0  0  0  0  0  0  0
    9.3468  -13.8907   19.2147 C   0  0  0  0  0  0  0  0  0  0  0  0
   10.5154  -14.2665   20.0102 C   0  0  0  0  0  0  0  0  0  0  0  0
   11.1046  -15.6185   19.6637 C   0  0  2  0  0  0  0  0  0  0  0  0
   10.0854  -16.6464   19.7925 N   0  0  0  0  0  0  0  0  0  0  0  0
   12.2643  -15.8653   20.5269 C   0  0  0  0  0  0  0  0  0  0  0  0
   13.3986  -15.5254   20.1032 O   0  0  0  0  0  0  0  0  0  0  0  0
    9.3723  -13.8584   17.8382 C   0  0  0  0  0  0  0  0  0  0  0  0
    8.2711  -13.5075   17.0940 C   0  0  0  0  0  0  0  0  0  0  0  0
   17.5860  -13.2091   19.3039 O   0  0  0  0  0  0  0  0  0  0  0  0
   16.7381  -13.7684   20.2540 C   0  0  0  0  0  0  0  0  0  0  0  0
   17.1978  -14.6148   21.2139 C   0  0  0  0  0  0  0  0  0  0  0  0
   16.3201  -15.1584   22.1520 C   0  0  0  0  0  0  0  0  0  0  0  0
   14.9748  -14.8551   22.1320 C   0  0  0  0  0  0  0  0  0  0  0  0
   13.9896  -15.3874   23.0901 C   0  0  0  0  0  0  0  0  0  0  0  0
   13.3576  -16.6827   22.6596 C   0  0  2  0  0  0  0  0  0  0  0  0
   12.2024  -16.4600   21.8064 N   0  0  0  0  0  0  0  0  0  0  0  0
   12.8786  -17.3914   23.8712 C   0  0  0  0  0  0  0  0  0  0  0  0
   12.3136  -16.7090   24.9612 O   0  0  0  0  0  0  0  0  0  0  0  0
   14.5249  -13.9921   21.1480 C   0  0  0  0  0  0  0  0  0  0  0  0
   15.4028  -13.4698   20.2372 C   0  0  0  0  0  0  0  0  0  0  0  0
   12.9425  -18.6489   24.0113 O   0  0  0  0  0  0  0  0  0  0  0  0
  2  3  1  0
  2  1  1  6
  4  5  1  6
  4  2  1  0
  6  4  1  0
  7  6  2  0
  9 10  2  0
  9  8  1  0
 11 10  1  0
 12 11  2  0
 13 12  1  0
 14 13  1  1
 14 16  1  0
 14 15  1  0
 15  6  1  0
 16 17  2  0
 18 12  1  0
 18 19  2  0
 19  9  1  0
 21 22  2  0
 21 20  1  0
 23 22  1  0
 24 23  2  0
 26 25  1  1
 25 24  1  0
 27 26  1  0
 27 16  1  0
 28 29  1  0
 28 26  1  0
 30 24  1  0
 30 31  2  0
 31 21  1  0
 32 28  2  0
M  END
$$$$
