TYY.pdb
     RDKit          3D

 32 33  0  0  1  0  0  0  0  0999 V2000
    8.4998  -19.2278   18.1121 C   0  0  0  0  0  0  0  0  0  0  0  0
    8.8447  -18.6194   19.4561 C   0  0  1  0  0  0  0  0  0  0  0  0
   10.0172  -19.2233   19.9077 O   0  0  0  0  0  0  0  0  0  0  0  0
    9.0222  -17.1393   19.2460 C   0  0  2  0  0  0  0  0  0  0  0  0
   10.0787  -16.9092   18.3091 N   0  0  0  0  0  0  0  0  0  0  0  0
    9.1744  -16.3786   20.4927 C   0  0  0  0  0  0  0  0  0  0  0  0
   10.3425  -16.2869   20.9775 O   0  0  0  0  0  0  0  0  0  0  0  0
    7.3089  -11.5349   27.7563 O   0  0  0  0  0  0  0  0  0  0  0  0
    7.2380  -12.2428   26.5448 C   0  0  0  0  0  0  0  0  0  0  0  0
    6.4823  -13.3850   26.4393 C   0  0  0  0  0  0  0  0  0  0  0  0
    6.4197  -14.0798   25.2298 C   0  0  0  0  0  0  0  0  0  0  0  0
    7.1122  -13.6327   24.1269 C   0  0  0  0  0  0  0  0  0  0  0  0
    7.0374  -14.3660   22.8634 C   0  0  0  0  0  0  0  0  0  0  0  0
    8.3120  -15.0887   22.4785 C   0  0  2  0  0  0  0  0  0  0  0  0
    8.1364  -15.7443   21.1936 N   0  0  0  0  0  0  0  0  0  0  0  0
    8.6640  -16.0302   23.5466 C   0  0  0  0  0  0  0  0  0  0  0  0
    8.0061  -17.0986   23.6322 O   0  0  0  0  0  0  0  0  0  0  0  0
    7.8593  -12.4846   24.2689 C   0  0  0  0  0  0  0  0  0  0  0  0
    7.9247  -11.7965   25.4571 C   0  0  0  0  0  0  0  0  0  0  0  0
   11.6631  -21.2958   21.3161 O   0  0  0  0  0  0  0  0  0  0  0  0
   11.6158  -20.2928   22.2784 C   0  0  0  0  0  0  0  0  0  0  0  0
   11.9630  -19.0095   21.9923 C   0  0  0  0  0  0  0  0  0  0  0  0
   11.9042  -18.0273   22.9811 C   0  0  0  0  0  0  0  0  0  0  0  0
   11.4961  -18.3279   24.2639 C   0  0  0  0  0  0  0  0  0  0  0  0
   11.4060  -17.3449   25.3580 C   0  0  0  0  0  0  0  0  0  0  0  0
   10.0305  -16.7664   25.5472 C   0  0  2  0  0  0  0  0  0  0  0  0
    9.6929  -15.8257   24.4921 N   0  0  0  0  0  0  0  0  0  0  0  0
   10.0136  -16.0161   26.8265 C   0  0  0  0  0  0  0  0  0  0  0  0
   10.2569  -16.6398   28.0613 O   0  0  0  0  0  0  0  0  0  0  0  0
   11.1467  -19.6390   24.5367 C   0  0  0  0  0  0  0  0  0  0  0  0
   11.2115  -20.5873   23.5521 C   0  0  0  0  0  0  0  0  0  0  0  0
    9.7814  -14.7728   26.8997 O   0  0  0  0  0  0  0  0  0  0  0  0
  2  3  1  0
  2  1  1  6
  4  5  1  6
  4  2  1  0
  6  4  1  0
  7  6  2  0
  9 10  2  0
  9  8  1  0
 11 10  1  0
 12 11  2  0
 13 12  1  0
 14 13  1  1
 14 16  1  0
 14 15  1  0
 15  6  1  0
 16 17  2  0
 18 12  1  0
 18 19  2  0
 19  9  1  0
 21 22  2  0
 21 20  1  0
 23 22  1  0
 24 23  2  0
 26 25  1  6
 25 24  1  0
 27 26  1  0
 27 16  1  0
 28 29  1  0
 28 26  1  0
 30 24  1  0
 30 31  2  0
 31 21  1  0
 32 28  2  0
M  END
$$$$
