TYY.pdb
     RDKit          3D

 32 33  0  0  1  0  0  0  0  0999 V2000
   11.0411  -18.9951   18.6901 C   0  0  0  0  0  0  0  0  0  0  0  0
   10.7149  -18.3388   20.0161 C   0  0  1  0  0  0  0  0  0  0  0  0
   11.6913  -18.7250   20.9331 O   0  0  0  0  0  0  0  0  0  0  0  0
   10.7152  -16.8502   19.7915 C   0  0  2  0  0  0  0  0  0  0  0  0
   11.9482  -16.4552   19.1828 N   0  0  0  0  0  0  0  0  0  0  0  0
   10.3826  -16.0707   20.9907 C   0  0  0  0  0  0  0  0  0  0  0  0
   11.3476  -15.5690   21.6427 O   0  0  0  0  0  0  0  0  0  0  0  0
    5.8543  -11.5762   27.2055 O   0  0  0  0  0  0  0  0  0  0  0  0
    6.2243  -12.3479   26.0912 C   0  0  0  0  0  0  0  0  0  0  0  0
    6.7548  -11.7576   24.9702 C   0  0  0  0  0  0  0  0  0  0  0  0
    7.1186  -12.5352   23.8691 C   0  0  0  0  0  0  0  0  0  0  0  0
    6.9522  -13.9018   23.8892 C   0  0  0  0  0  0  0  0  0  0  0  0
    7.3396  -14.7079   22.7317 C   0  0  0  0  0  0  0  0  0  0  0  0
    8.8039  -15.0948   22.6955 C   0  0  2  0  0  0  0  0  0  0  0  0
    9.0869  -15.8338   21.4766 N   0  0  0  0  0  0  0  0  0  0  0  0
    9.1214  -15.8619   23.9045 C   0  0  0  0  0  0  0  0  0  0  0  0
    9.0440  -17.1159   23.8454 O   0  0  0  0  0  0  0  0  0  0  0  0
    6.4177  -14.4595   25.0292 C   0  0  0  0  0  0  0  0  0  0  0  0
    6.0575  -13.6989   26.1163 C   0  0  0  0  0  0  0  0  0  0  0  0
   12.7353  -17.4576   31.9267 O   0  0  0  0  0  0  0  0  0  0  0  0
   12.3586  -16.9334   30.6948 C   0  0  0  0  0  0  0  0  0  0  0  0
   12.8441  -17.4317   29.5263 C   0  0  0  0  0  0  0  0  0  0  0  0
   12.4456  -16.8826   28.3075 C   0  0  0  0  0  0  0  0  0  0  0  0
   11.5568  -15.8292   28.2545 C   0  0  0  0  0  0  0  0  0  0  0  0
   11.0884  -15.2003   27.0067 C   0  0  0  0  0  0  0  0  0  0  0  0
   10.1183  -16.0431   26.2251 C   0  0  2  0  0  0  0  0  0  0  0  0
    9.5100  -15.2946   25.1380 N   0  0  0  0  0  0  0  0  0  0  0  0
    9.0252  -16.4600   27.1368 C   0  0  0  0  0  0  0  0  0  0  0  0
    7.9311  -15.6264   27.4212 O   0  0  0  0  0  0  0  0  0  0  0  0
   11.0733  -15.3351   29.4535 C   0  0  0  0  0  0  0  0  0  0  0  0
   11.4771  -15.8883   30.6383 C   0  0  0  0  0  0  0  0  0  0  0  0
    8.9976  -17.5847   27.7194 O   0  0  0  0  0  0  0  0  0  0  0  0
  2  3  1  0
  2  1  1  6
  4  5  1  1
  4  2  1  0
  6  4  1  0
  7  6  2  0
  9 10  2  0
  9  8  1  0
 11 10  1  0
 12 11  2  0
 13 12  1  0
 14 13  1  1
 14 16  1  0
 14 15  1  0
 15  6  1  0
 16 17  2  0
 18 12  1  0
 18 19  2  0
 19  9  1  0
 21 22  2  0
 21 20  1  0
 23 22  1  0
 24 23  2  0
 26 25  1  1
 25 24  1  0
 27 26  1  0
 27 16  1  0
 28 29  1  0
 28 26  1  0
 30 24  1  0
 30 31  2  0
 31 21  1  0
 32 28  2  0
M  END
$$$$
