TYY.pdb
     RDKit          3D

 32 33  0  0  1  0  0  0  0  0999 V2000
    9.0205  -18.7828   17.2649 C   0  0  0  0  0  0  0  0  0  0  0  0
    9.1003  -18.3686   18.7201 C   0  0  1  0  0  0  0  0  0  0  0  0
   10.0063  -19.2173   19.3544 O   0  0  0  0  0  0  0  0  0  0  0  0
    9.5582  -16.9349   18.7536 C   0  0  2  0  0  0  0  0  0  0  0  0
   10.8275  -16.8194   18.1038 N   0  0  0  0  0  0  0  0  0  0  0  0
    9.5348  -16.3374   20.0948 C   0  0  0  0  0  0  0  0  0  0  0  0
   10.6158  -16.3563   20.7573 O   0  0  0  0  0  0  0  0  0  0  0  0
    6.7846  -12.1121   27.4478 O   0  0  0  0  0  0  0  0  0  0  0  0
    6.8577  -12.7290   26.1876 C   0  0  0  0  0  0  0  0  0  0  0  0
    7.4211  -12.0792   25.1166 C   0  0  0  0  0  0  0  0  0  0  0  0
    7.4880  -12.7028   23.8692 C   0  0  0  0  0  0  0  0  0  0  0  0
    6.9920  -13.9752   23.6931 C   0  0  0  0  0  0  0  0  0  0  0  0
    7.0699  -14.6210   22.3829 C   0  0  0  0  0  0  0  0  0  0  0  0
    8.4066  -15.2646   22.0765 C   0  0  2  0  0  0  0  0  0  0  0  0
    8.4171  -15.7471   20.7058 N   0  0  0  0  0  0  0  0  0  0  0  0
    8.6525  -16.3331   23.0506 C   0  0  0  0  0  0  0  0  0  0  0  0
    8.0882  -17.4418   22.8657 O   0  0  0  0  0  0  0  0  0  0  0  0
    6.4344  -14.5963   24.7883 C   0  0  0  0  0  0  0  0  0  0  0  0
    6.3657  -13.9873   26.0188 C   0  0  0  0  0  0  0  0  0  0  0  0
   10.4496  -13.6264   30.1540 O   0  0  0  0  0  0  0  0  0  0  0  0
   10.6522  -14.4886   29.0816 C   0  0  0  0  0  0  0  0  0  0  0  0
   10.7754  -15.8315   29.2564 C   0  0  0  0  0  0  0  0  0  0  0  0
   10.9780  -16.6684   28.1589 C   0  0  0  0  0  0  0  0  0  0  0  0
   11.0579  -16.1616   26.8786 C   0  0  0  0  0  0  0  0  0  0  0  0
   11.2670  -16.9823   25.6726 C   0  0  0  0  0  0  0  0  0  0  0  0
    9.9977  -17.3358   24.9471 C   0  0  2  0  0  0  0  0  0  0  0  0
    9.4807  -16.2096   24.1878 N   0  0  0  0  0  0  0  0  0  0  0  0
    8.9706  -17.6945   25.9551 C   0  0  0  0  0  0  0  0  0  0  0  0
    9.1117  -18.8060   26.8022 O   0  0  0  0  0  0  0  0  0  0  0  0
   10.9303  -14.7927   26.7199 C   0  0  0  0  0  0  0  0  0  0  0  0
   10.7321  -13.9893   27.8101 C   0  0  0  0  0  0  0  0  0  0  0  0
    7.9032  -17.0335   26.1249 O   0  0  0  0  0  0  0  0  0  0  0  0
  2  3  1  0
  2  1  1  6
  4  5  1  1
  4  2  1  0
  6  4  1  0
  7  6  2  0
  9 10  2  0
  9  8  1  0
 11 10  1  0
 12 11  2  0
 13 12  1  0
 14 13  1  1
 14 16  1  0
 14 15  1  0
 15  6  1  0
 16 17  2  0
 18 12  1  0
 18 19  2  0
 19  9  1  0
 21 22  2  0
 21 20  1  0
 23 22  1  0
 24 23  2  0
 26 25  1  1
 25 24  1  0
 27 26  1  0
 27 16  1  0
 28 29  1  0
 28 26  1  0
 30 24  1  0
 30 31  2  0
 31 21  1  0
 32 28  2  0
M  END
$$$$
