TYY.pdb
     RDKit          3D

 32 33  0  0  1  0  0  0  0  0999 V2000
   10.6246  -13.2433   19.2586 C   0  0  0  0  0  0  0  0  0  0  0  0
   10.0810  -14.6101   18.8955 C   0  0  1  0  0  0  0  0  0  0  0  0
    8.7305  -14.4612   18.5834 O   0  0  0  0  0  0  0  0  0  0  0  0
   10.8757  -15.1106   17.7190 C   0  0  2  0  0  0  0  0  0  0  0  0
   10.2540  -16.2814   17.1809 N   0  0  0  0  0  0  0  0  0  0  0  0
   12.3051  -15.2895   18.0034 C   0  0  0  0  0  0  0  0  0  0  0  0
   12.6704  -16.4173   18.4536 O   0  0  0  0  0  0  0  0  0  0  0  0
   21.0884  -15.0445   17.3465 O   0  0  0  0  0  0  0  0  0  0  0  0
   19.7155  -14.7571   17.2651 C   0  0  0  0  0  0  0  0  0  0  0  0
   19.2401  -13.5016   17.5557 C   0  0  0  0  0  0  0  0  0  0  0  0
   17.8735  -13.2281   17.4711 C   0  0  0  0  0  0  0  0  0  0  0  0
   16.9833  -14.2093   17.0962 C   0  0  0  0  0  0  0  0  0  0  0  0
   15.5538  -13.9117   17.0075 C   0  0  0  0  0  0  0  0  0  0  0  0
   14.7105  -14.5433   18.0960 C   0  0  2  0  0  0  0  0  0  0  0  0
   13.3018  -14.3180   17.8193 N   0  0  0  0  0  0  0  0  0  0  0  0
   15.1232  -13.9961   19.3927 C   0  0  0  0  0  0  0  0  0  0  0  0
   16.3506  -13.8043   19.5889 O   0  0  0  0  0  0  0  0  0  0  0  0
   17.4950  -15.4559   16.8123 C   0  0  0  0  0  0  0  0  0  0  0  0
   18.8394  -15.7309   16.8939 C   0  0  0  0  0  0  0  0  0  0  0  0
   11.8106  -18.6764   25.9663 O   0  0  0  0  0  0  0  0  0  0  0  0
   12.1412  -17.9301   24.8403 C   0  0  0  0  0  0  0  0  0  0  0  0
   13.2728  -18.1742   24.1267 C   0  0  0  0  0  0  0  0  0  0  0  0
   13.5747  -17.4065   23.0017 C   0  0  0  0  0  0  0  0  0  0  0  0
   12.7417  -16.3887   22.5862 C   0  0  0  0  0  0  0  0  0  0  0  0
   12.9928  -15.5393   21.4084 C   0  0  0  0  0  0  0  0  0  0  0  0
   14.0412  -14.4835   21.6295 C   0  0  2  0  0  0  0  0  0  0  0  0
   14.2400  -13.6664   20.4443 N   0  0  0  0  0  0  0  0  0  0  0  0
   15.3291  -15.1604   21.9175 C   0  0  0  0  0  0  0  0  0  0  0  0
   16.1705  -14.7504   22.9649 O   0  0  0  0  0  0  0  0  0  0  0  0
   11.5948  -16.1548   23.3246 C   0  0  0  0  0  0  0  0  0  0  0  0
   11.3172  -16.9195   24.4251 C   0  0  0  0  0  0  0  0  0  0  0  0
   15.7606  -16.1461   21.2487 O   0  0  0  0  0  0  0  0  0  0  0  0
  2  3  1  0
  2  1  1  6
  4  5  1  1
  4  2  1  0
  6  4  1  0
  7  6  2  0
  9 10  2  0
  9  8  1  0
 11 10  1  0
 12 11  2  0
 13 12  1  0
 14 13  1  6
 14 16  1  0
 14 15  1  0
 15  6  1  0
 16 17  2  0
 18 12  1  0
 18 19  2  0
 19  9  1  0
 21 22  2  0
 21 20  1  0
 23 22  1  0
 24 23  2  0
 26 25  1  6
 25 24  1  0
 27 26  1  0
 27 16  1  0
 28 29  1  0
 28 26  1  0
 30 24  1  0
 30 31  2  0
 31 21  1  0
 32 28  2  0
M  END
$$$$
