AKN.pdb
     RDKit          3D

 23 22  0  0  1  0  0  0  0  0999 V2000
    8.3749  -12.4720   19.8196 C   0  0  0  0  0  0  0  0  0  0  0  0
    7.6805  -13.6544   19.1790 C   0  0  2  0  0  0  0  0  0  0  0  0
    6.2518  -13.5652   19.3768 N   0  0  0  0  0  0  0  0  0  0  0  0
    8.1755  -14.9297   19.7498 C   0  0  0  0  0  0  0  0  0  0  0  0
    7.6838  -15.4534   20.7770 O   0  0  0  0  0  0  0  0  0  0  0  0
    9.2703  -15.6337   19.1281 N   0  0  0  0  0  0  0  0  0  0  0  0
    9.7257  -16.9213   19.6067 C   0  0  1  0  0  0  0  0  0  0  0  0
   10.2826  -17.7131   18.4298 C   0  0  0  0  0  0  0  0  0  0  0  0
   10.6371  -19.0861   18.8701 C   0  0  0  0  0  0  0  0  0  0  0  0
   11.0867  -19.9938   17.7621 C   0  0  0  0  0  0  0  0  0  0  0  0
   11.3532  -21.3995   18.2087 C   0  0  0  0  0  0  0  0  0  0  0  0
   11.8396  -22.1486   17.0651 N   0  0  0  0  0  0  0  0  0  0  0  0
   10.7302  -16.7460   20.6711 C   0  0  0  0  0  0  0  0  0  0  0  0
   11.5515  -15.8077   20.5836 O   0  0  0  0  0  0  0  0  0  0  0  0
   10.7849  -15.1883   24.2039 N   0  0  0  0  0  0  0  0  0  0  0  0
   10.6603  -16.4371   24.9098 C   0  0  0  0  0  0  0  0  0  0  0  0
   10.1106  -16.5029   26.0167 O   0  0  0  0  0  0  0  0  0  0  0  0
   11.2263  -17.6332   24.2362 C   0  0  0  0  0  0  0  0  0  0  0  0
   11.7649  -17.3549   22.8648 C   0  0  2  0  0  0  0  0  0  0  0  0
   10.8115  -17.6002   21.8034 N   0  0  0  0  0  0  0  0  0  0  0  0
   13.0373  -18.0926   22.6279 C   0  0  0  0  0  0  0  0  0  0  0  0
   14.2680  -17.5368   22.8562 O   0  0  0  0  0  0  0  0  0  0  0  0
   12.9715  -19.2728   22.2010 O   0  0  0  0  0  0  0  0  0  0  0  0
  2  1  1  1
  2  4  1  0
  3  2  1  0
  4  5  2  0
  4  6  1  0
  6  7  1  0
  7  8  1  6
  7 13  1  0
  8  9  1  0
  9 10  1  0
 10 11  1  0
 11 12  1  0
 13 14  2  0
 16 15  1  0
 16 18  1  0
 17 16  2  0
 19 18  1  1
 20 13  1  0
 20 19  1  0
 21 19  1  0
 21 22  1  0
 23 21  2  0
M  END
$$$$
