AKN.pdb
     RDKit          3D

 23 22  0  0  1  0  0  0  0  0999 V2000
   11.9683  -17.6498   17.2912 C   0  0  0  0  0  0  0  0  0  0  0  0
   10.6093  -18.1873   17.6846 C   0  0  2  0  0  0  0  0  0  0  0  0
    9.5642  -17.3186   17.1932 N   0  0  0  0  0  0  0  0  0  0  0  0
   10.4952  -18.3064   19.1577 C   0  0  0  0  0  0  0  0  0  0  0  0
   10.3766  -17.3145   19.9148 O   0  0  0  0  0  0  0  0  0  0  0  0
   10.5171  -19.6021   19.7911 N   0  0  0  0  0  0  0  0  0  0  0  0
   10.3532  -19.7610   21.2202 C   0  0  1  0  0  0  0  0  0  0  0  0
   10.1152  -21.2348   21.5258 C   0  0  0  0  0  0  0  0  0  0  0  0
    9.8221  -21.4078   22.9711 C   0  0  0  0  0  0  0  0  0  0  0  0
    9.5514  -22.8263   23.3814 C   0  0  0  0  0  0  0  0  0  0  0  0
    9.1232  -22.9662   24.8109 C   0  0  0  0  0  0  0  0  0  0  0  0
    8.9268  -24.3777   25.0840 N   0  0  0  0  0  0  0  0  0  0  0  0
   11.5338  -19.2395   21.9322 C   0  0  0  0  0  0  0  0  0  0  0  0
   12.5370  -18.8914   21.2727 O   0  0  0  0  0  0  0  0  0  0  0  0
   12.7127  -15.5740   21.3383 N   0  0  0  0  0  0  0  0  0  0  0  0
   13.1236  -16.1180   22.6066 C   0  0  0  0  0  0  0  0  0  0  0  0
   14.3089  -16.1065   22.9625 O   0  0  0  0  0  0  0  0  0  0  0  0
   12.0487  -16.6896   23.4567 C   0  0  0  0  0  0  0  0  0  0  0  0
   12.3572  -18.0611   23.9784 C   0  0  2  0  0  0  0  0  0  0  0  0
   11.5880  -19.1118   23.3461 N   0  0  0  0  0  0  0  0  0  0  0  0
   12.2250  -18.1137   25.4613 C   0  0  0  0  0  0  0  0  0  0  0  0
   11.0244  -18.3106   26.0902 O   0  0  0  0  0  0  0  0  0  0  0  0
   13.2613  -17.9709   26.1577 O   0  0  0  0  0  0  0  0  0  0  0  0
  2  1  1  1
  2  4  1  0
  3  2  1  0
  4  5  2  0
  4  6  1  0
  6  7  1  0
  7  8  1  6
  7 13  1  0
  8  9  1  0
  9 10  1  0
 10 11  1  0
 11 12  1  0
 13 14  2  0
 16 15  1  0
 16 18  1  0
 17 16  2  0
 19 18  1  6
 20 13  1  0
 20 19  1  0
 21 19  1  0
 21 22  1  0
 23 21  2  0
M  END
$$$$
