AKN.pdb
     RDKit          3D

 23 22  0  0  1  0  0  0  0  0999 V2000
    9.2055  -13.8141   18.1855 C   0  0  0  0  0  0  0  0  0  0  0  0
    7.8389  -13.5985   18.7992 C   0  0  2  0  0  0  0  0  0  0  0  0
    7.6050  -12.1899   19.0218 N   0  0  0  0  0  0  0  0  0  0  0  0
    7.7178  -14.3246   20.0858 C   0  0  0  0  0  0  0  0  0  0  0  0
    8.1149  -13.8508   21.1762 O   0  0  0  0  0  0  0  0  0  0  0  0
    7.1228  -15.6378   20.1319 N   0  0  0  0  0  0  0  0  0  0  0  0
    7.1125  -16.4341   21.3403 C   0  0  1  0  0  0  0  0  0  0  0  0
    6.2744  -17.6833   21.0974 C   0  0  0  0  0  0  0  0  0  0  0  0
    6.1746  -18.4735   22.3506 C   0  0  0  0  0  0  0  0  0  0  0  0
    5.4043  -19.7548   22.2137 C   0  0  0  0  0  0  0  0  0  0  0  0
    5.1586  -20.4496   23.5188 C   0  0  0  0  0  0  0  0  0  0  0  0
    4.6167  -21.7646   23.2315 N   0  0  0  0  0  0  0  0  0  0  0  0
    8.4899  -16.7705   21.7436 C   0  0  0  0  0  0  0  0  0  0  0  0
    9.3868  -16.8058   20.8737 O   0  0  0  0  0  0  0  0  0  0  0  0
   12.2499  -15.0503   21.1541 N   0  0  0  0  0  0  0  0  0  0  0  0
   12.1241  -15.8120   22.3696 C   0  0  0  0  0  0  0  0  0  0  0  0
   13.0212  -16.5742   22.7516 O   0  0  0  0  0  0  0  0  0  0  0  0
   10.8632  -15.6305   23.1324 C   0  0  0  0  0  0  0  0  0  0  0  0
   10.2173  -16.9190   23.5457 C   0  0  2  0  0  0  0  0  0  0  0  0
    8.8516  -17.0597   23.0867 N   0  0  0  0  0  0  0  0  0  0  0  0
   10.3146  -17.1201   25.0186 C   0  0  0  0  0  0  0  0  0  0  0  0
   11.5122  -17.2539   25.6692 O   0  0  0  0  0  0  0  0  0  0  0  0
    9.2504  -17.1679   25.6852 O   0  0  0  0  0  0  0  0  0  0  0  0
  2  1  1  1
  2  4  1  0
  3  2  1  0
  4  5  2  0
  4  6  1  0
  6  7  1  0
  7  8  1  6
  7 13  1  0
  8  9  1  0
  9 10  1  0
 10 11  1  0
 11 12  1  0
 13 14  2  0
 16 15  1  0
 16 18  1  0
 17 16  2  0
 19 18  1  1
 20 13  1  0
 20 19  1  0
 21 19  1  0
 21 22  1  0
 23 21  2  0
M  END
$$$$
