AKN.pdb
     RDKit          3D

 23 22  0  0  1  0  0  0  0  0999 V2000
   14.3434  -19.1811   15.3872 C   0  0  0  0  0  0  0  0  0  0  0  0
   12.8605  -19.2559   15.6800 C   0  0  2  0  0  0  0  0  0  0  0  0
   12.1043  -18.6744   14.5944 N   0  0  0  0  0  0  0  0  0  0  0  0
   12.5348  -18.5455   16.9395 C   0  0  0  0  0  0  0  0  0  0  0  0
   12.4098  -17.3001   17.0073 O   0  0  0  0  0  0  0  0  0  0  0  0
   12.3447  -19.2803   18.1661 N   0  0  0  0  0  0  0  0  0  0  0  0
   11.9517  -18.6299   19.3978 C   0  0  1  0  0  0  0  0  0  0  0  0
   11.4096  -19.6825   20.3570 C   0  0  0  0  0  0  0  0  0  0  0  0
   10.0378  -20.0768   19.9481 C   0  0  0  0  0  0  0  0  0  0  0  0
    9.3992  -21.1045   20.8368 C   0  0  0  0  0  0  0  0  0  0  0  0
    8.0308  -21.5194   20.3876 C   0  0  0  0  0  0  0  0  0  0  0  0
    7.5886  -22.6056   21.2420 N   0  0  0  0  0  0  0  0  0  0  0  0
   13.0929  -17.8988   19.9775 C   0  0  0  0  0  0  0  0  0  0  0  0
   14.2336  -18.4066   19.9187 O   0  0  0  0  0  0  0  0  0  0  0  0
   12.8037  -13.6492   18.8417 N   0  0  0  0  0  0  0  0  0  0  0  0
   14.0527  -14.1570   19.3472 C   0  0  0  0  0  0  0  0  0  0  0  0
   15.0273  -14.3342   18.6053 O   0  0  0  0  0  0  0  0  0  0  0  0
   14.1022  -14.4537   20.8013 C   0  0  0  0  0  0  0  0  0  0  0  0
   14.1097  -15.9192   21.1182 C   0  0  2  0  0  0  0  0  0  0  0  0
   12.9583  -16.6320   20.6064 N   0  0  0  0  0  0  0  0  0  0  0  0
   14.2821  -16.1517   22.5795 C   0  0  0  0  0  0  0  0  0  0  0  0
   15.4031  -15.7622   23.2632 O   0  0  0  0  0  0  0  0  0  0  0  0
   13.3573  -16.7293   23.2043 O   0  0  0  0  0  0  0  0  0  0  0  0
  2  1  1  6
  2  4  1  0
  3  2  1  0
  4  5  2  0
  4  6  1  0
  6  7  1  0
  7  8  1  1
  7 13  1  0
  8  9  1  0
  9 10  1  0
 10 11  1  0
 11 12  1  0
 13 14  2  0
 16 15  1  0
 16 18  1  0
 17 16  2  0
 19 18  1  1
 20 13  1  0
 20 19  1  0
 21 19  1  0
 21 22  1  0
 23 21  2  0
M  END
$$$$
