AKN.pdb
     RDKit          3D

 23 22  0  0  1  0  0  0  0  0999 V2000
    4.7715  -20.5869   22.0162 C   0  0  0  0  0  0  0  0  0  0  0  0
    4.7608  -19.3896   22.9419 C   0  0  2  0  0  0  0  0  0  0  0  0
    3.5600  -18.6109   22.7418 N   0  0  0  0  0  0  0  0  0  0  0  0
    5.9462  -18.5310   22.7077 C   0  0  0  0  0  0  0  0  0  0  0  0
    7.1180  -18.9758   22.6920 O   0  0  0  0  0  0  0  0  0  0  0  0
    5.7912  -17.1146   22.4835 N   0  0  0  0  0  0  0  0  0  0  0  0
    6.9152  -16.2598   22.1667 C   0  0  1  0  0  0  0  0  0  0  0  0
    6.3876  -14.9114   21.6918 C   0  0  0  0  0  0  0  0  0  0  0  0
    7.5107  -14.0812   21.1876 C   0  0  0  0  0  0  0  0  0  0  0  0
    7.4211  -13.7406   19.7283 C   0  0  0  0  0  0  0  0  0  0  0  0
    8.5246  -12.8451   19.2521 C   0  0  0  0  0  0  0  0  0  0  0  0
    8.3195  -12.5942   17.8377 N   0  0  0  0  0  0  0  0  0  0  0  0
    7.7976  -16.1186   23.3391 C   0  0  0  0  0  0  0  0  0  0  0  0
    7.3249  -15.6686   24.4052 O   0  0  0  0  0  0  0  0  0  0  0  0
    8.0407  -16.2977   26.3946 N   0  0  0  0  0  0  0  0  0  0  0  0
    8.8118  -17.5113   26.3186 C   0  0  0  0  0  0  0  0  0  0  0  0
    8.5052  -18.5151   26.9743 O   0  0  0  0  0  0  0  0  0  0  0  0
    9.9884  -17.4877   25.4132 C   0  0  0  0  0  0  0  0  0  0  0  0
   10.0120  -16.3103   24.4850 C   0  0  2  0  0  0  0  0  0  0  0  0
    9.1733  -16.4727   23.3164 N   0  0  0  0  0  0  0  0  0  0  0  0
   11.4075  -15.9563   24.1023 C   0  0  0  0  0  0  0  0  0  0  0  0
   11.8710  -16.0601   22.8178 O   0  0  0  0  0  0  0  0  0  0  0  0
   12.1860  -15.5462   24.9996 O   0  0  0  0  0  0  0  0  0  0  0  0
  2  1  1  6
  2  4  1  0
  3  2  1  0
  4  5  2  0
  4  6  1  0
  6  7  1  0
  7  8  1  1
  7 13  1  0
  8  9  1  0
  9 10  1  0
 10 11  1  0
 11 12  1  0
 13 14  2  0
 16 15  1  0
 16 18  1  0
 17 16  2  0
 19 18  1  6
 20 13  1  0
 20 19  1  0
 21 19  1  0
 21 22  1  0
 23 21  2  0
M  END
$$$$
