AKN.pdb
     RDKit          3D

 23 22  0  0  1  0  0  0  0  0999 V2000
    8.9687  -12.9199   17.6883 C   0  0  0  0  0  0  0  0  0  0  0  0
    7.7257  -13.2099   18.5015 C   0  0  2  0  0  0  0  0  0  0  0  0
    7.2417  -12.0007   19.1274 N   0  0  0  0  0  0  0  0  0  0  0  0
    8.0031  -14.2248   19.5457 C   0  0  0  0  0  0  0  0  0  0  0  0
    8.5577  -13.9482   20.6352 O   0  0  0  0  0  0  0  0  0  0  0  0
    7.6356  -15.6046   19.3412 N   0  0  0  0  0  0  0  0  0  0  0  0
    7.9462  -16.6336   20.3102 C   0  0  1  0  0  0  0  0  0  0  0  0
    7.2864  -17.9354   19.8720 C   0  0  0  0  0  0  0  0  0  0  0  0
    7.5631  -19.0000   20.8693 C   0  0  0  0  0  0  0  0  0  0  0  0
    6.8867  -20.3087   20.5801 C   0  0  0  0  0  0  0  0  0  0  0  0
    7.3373  -20.9475   19.3013 C   0  0  0  0  0  0  0  0  0  0  0  0
    6.5769  -22.1698   19.1185 N   0  0  0  0  0  0  0  0  0  0  0  0
    9.4062  -16.7815   20.4500 C   0  0  0  0  0  0  0  0  0  0  0  0
   10.1464  -16.4261   19.5074 O   0  0  0  0  0  0  0  0  0  0  0  0
   13.8128  -15.3638   23.4094 N   0  0  0  0  0  0  0  0  0  0  0  0
   13.3925  -15.6362   22.0594 C   0  0  0  0  0  0  0  0  0  0  0  0
   14.2104  -15.7537   21.1380 O   0  0  0  0  0  0  0  0  0  0  0  0
   11.9299  -15.7669   21.8393 C   0  0  0  0  0  0  0  0  0  0  0  0
   11.4436  -17.1853   21.8427 C   0  0  2  0  0  0  0  0  0  0  0  0
   10.0196  -17.3137   21.6157 N   0  0  0  0  0  0  0  0  0  0  0  0
   11.8570  -17.8917   23.0874 C   0  0  0  0  0  0  0  0  0  0  0  0
   12.9734  -18.6823   23.1530 O   0  0  0  0  0  0  0  0  0  0  0  0
   11.1481  -17.7520   24.1156 O   0  0  0  0  0  0  0  0  0  0  0  0
  2  1  1  1
  2  4  1  0
  3  2  1  0
  4  5  2  0
  4  6  1  0
  6  7  1  0
  7  8  1  6
  7 13  1  0
  8  9  1  0
  9 10  1  0
 10 11  1  0
 11 12  1  0
 13 14  2  0
 16 15  1  0
 16 18  1  0
 17 16  2  0
 19 18  1  1
 20 13  1  0
 20 19  1  0
 21 19  1  0
 21 22  1  0
 23 21  2  0
M  END
$$$$
