AKN.pdb
     RDKit          3D

 23 22  0  0  1  0  0  0  0  0999 V2000
    8.8332  -19.7038   17.4403 C   0  0  0  0  0  0  0  0  0  0  0  0
    8.5980  -19.5404   18.9264 C   0  0  2  0  0  0  0  0  0  0  0  0
    7.1826  -19.4505   19.2039 N   0  0  0  0  0  0  0  0  0  0  0  0
    9.2757  -18.3252   19.4375 C   0  0  0  0  0  0  0  0  0  0  0  0
   10.5198  -18.1750   19.4084 O   0  0  0  0  0  0  0  0  0  0  0  0
    8.5085  -17.2421   20.0021 N   0  0  0  0  0  0  0  0  0  0  0  0
    9.1231  -15.9973   20.4109 C   0  0  1  0  0  0  0  0  0  0  0  0
    8.1132  -14.8701   20.2337 C   0  0  0  0  0  0  0  0  0  0  0  0
    8.0304  -14.4896   18.8008 C   0  0  0  0  0  0  0  0  0  0  0  0
    7.0500  -13.3910   18.5085 C   0  0  0  0  0  0  0  0  0  0  0  0
    6.8928  -13.1000   17.0467 C   0  0  0  0  0  0  0  0  0  0  0  0
    5.9569  -12.0001   16.9066 N   0  0  0  0  0  0  0  0  0  0  0  0
    9.5959  -16.0928   21.8039 C   0  0  0  0  0  0  0  0  0  0  0  0
    8.7674  -16.3137   22.7134 O   0  0  0  0  0  0  0  0  0  0  0  0
    9.9784  -17.5735   25.3723 N   0  0  0  0  0  0  0  0  0  0  0  0
   10.4409  -18.5756   24.4476 C   0  0  0  0  0  0  0  0  0  0  0  0
   10.1417  -19.7688   24.5830 O   0  0  0  0  0  0  0  0  0  0  0  0
   11.2921  -18.0964   23.3293 C   0  0  0  0  0  0  0  0  0  0  0  0
   11.5085  -16.6126   23.3288 C   0  0  2  0  0  0  0  0  0  0  0  0
   10.9614  -15.9444   22.1670 N   0  0  0  0  0  0  0  0  0  0  0  0
   12.9488  -16.2800   23.5137 C   0  0  0  0  0  0  0  0  0  0  0  0
   13.6797  -15.6082   22.5703 O   0  0  0  0  0  0  0  0  0  0  0  0
   13.5098  -16.6333   24.5813 O   0  0  0  0  0  0  0  0  0  0  0  0
  2  1  1  6
  2  4  1  0
  3  2  1  0
  4  5  2  0
  4  6  1  0
  6  7  1  0
  7  8  1  1
  7 13  1  0
  8  9  1  0
  9 10  1  0
 10 11  1  0
 11 12  1  0
 13 14  2  0
 16 15  1  0
 16 18  1  0
 17 16  2  0
 19 18  1  6
 20 13  1  0
 20 19  1  0
 21 19  1  0
 21 22  1  0
 23 21  2  0
M  END
$$$$
