AKN.pdb
     RDKit          3D

 23 22  0  0  1  0  0  0  0  0999 V2000
    8.9325  -18.1523   19.3098 C   0  0  0  0  0  0  0  0  0  0  0  0
    8.3590  -16.7706   19.5390 C   0  0  2  0  0  0  0  0  0  0  0  0
    8.6677  -15.9071   18.4221 N   0  0  0  0  0  0  0  0  0  0  0  0
    8.9002  -16.1744   20.7835 C   0  0  0  0  0  0  0  0  0  0  0  0
   10.1279  -16.0389   20.9969 O   0  0  0  0  0  0  0  0  0  0  0  0
    8.0108  -15.7161   21.8225 N   0  0  0  0  0  0  0  0  0  0  0  0
    8.4953  -15.0271   22.9993 C   0  0  1  0  0  0  0  0  0  0  0  0
    7.3300  -14.2951   23.6537 C   0  0  0  0  0  0  0  0  0  0  0  0
    7.7992  -13.5929   24.8750 C   0  0  0  0  0  0  0  0  0  0  0  0
    6.7144  -12.8927   25.6408 C   0  0  0  0  0  0  0  0  0  0  0  0
    7.2026  -12.2038   26.8791 C   0  0  0  0  0  0  0  0  0  0  0  0
    6.0645  -11.5691   27.5174 N   0  0  0  0  0  0  0  0  0  0  0  0
    9.1305  -15.9812   23.9262 C   0  0  0  0  0  0  0  0  0  0  0  0
    8.5227  -17.0304   24.2297 O   0  0  0  0  0  0  0  0  0  0  0  0
   12.2260  -17.7947   23.2081 N   0  0  0  0  0  0  0  0  0  0  0  0
   13.1278  -17.2514   24.1903 C   0  0  0  0  0  0  0  0  0  0  0  0
   14.3529  -17.2520   24.0146 O   0  0  0  0  0  0  0  0  0  0  0  0
   12.5058  -16.6941   25.4180 C   0  0  0  0  0  0  0  0  0  0  0  0
   11.0068  -16.7256   25.4024 C   0  0  2  0  0  0  0  0  0  0  0  0
   10.4131  -15.7643   24.4973 N   0  0  0  0  0  0  0  0  0  0  0  0
   10.4525  -16.5848   26.7780 C   0  0  0  0  0  0  0  0  0  0  0  0
   10.4119  -17.6241   27.6689 O   0  0  0  0  0  0  0  0  0  0  0  0
   10.0056  -15.4639   27.1287 O   0  0  0  0  0  0  0  0  0  0  0  0
  2  1  1  6
  2  4  1  0
  3  2  1  0
  4  5  2  0
  4  6  1  0
  6  7  1  0
  7  8  1  1
  7 13  1  0
  8  9  1  0
  9 10  1  0
 10 11  1  0
 11 12  1  0
 13 14  2  0
 16 15  1  0
 16 18  1  0
 17 16  2  0
 19 18  1  1
 20 13  1  0
 20 19  1  0
 21 19  1  0
 21 22  1  0
 23 21  2  0
M  END
$$$$
