AKN.pdb
     RDKit          3D

 23 22  0  0  1  0  0  0  0  0999 V2000
   10.1230  -19.0679   17.2045 C   0  0  0  0  0  0  0  0  0  0  0  0
    9.6047  -19.0249   18.6258 C   0  0  2  0  0  0  0  0  0  0  0  0
    8.1612  -19.0922   18.6361 N   0  0  0  0  0  0  0  0  0  0  0  0
   10.0423  -17.7847   19.3097 C   0  0  0  0  0  0  0  0  0  0  0  0
   11.2440  -17.4371   19.3884 O   0  0  0  0  0  0  0  0  0  0  0  0
    9.0760  -16.9090   19.9263 N   0  0  0  0  0  0  0  0  0  0  0  0
    9.4665  -15.6944   20.6094 C   0  0  1  0  0  0  0  0  0  0  0  0
    8.3166  -14.6974   20.5333 C   0  0  0  0  0  0  0  0  0  0  0  0
    8.1357  -14.2444   19.1309 C   0  0  0  0  0  0  0  0  0  0  0  0
    6.9363  -13.3679   18.9143 C   0  0  0  0  0  0  0  0  0  0  0  0
    6.7776  -12.9074   17.4969 C   0  0  0  0  0  0  0  0  0  0  0  0
    5.4890  -12.2507   17.3805 N   0  0  0  0  0  0  0  0  0  0  0  0
    9.8422  -15.9894   22.0040 C   0  0  0  0  0  0  0  0  0  0  0  0
    8.9486  -16.2965   22.8224 O   0  0  0  0  0  0  0  0  0  0  0  0
   10.9115  -19.3660   25.5436 N   0  0  0  0  0  0  0  0  0  0  0  0
   11.8380  -19.0916   24.4761 C   0  0  0  0  0  0  0  0  0  0  0  0
   12.9875  -19.5502   24.4828 O   0  0  0  0  0  0  0  0  0  0  0  0
   11.3366  -18.2318   23.3743 C   0  0  0  0  0  0  0  0  0  0  0  0
   11.6320  -16.7741   23.5642 C   0  0  2  0  0  0  0  0  0  0  0  0
   11.1839  -15.9411   22.4683 N   0  0  0  0  0  0  0  0  0  0  0  0
   13.0762  -16.5524   23.8546 C   0  0  0  0  0  0  0  0  0  0  0  0
   13.9747  -16.1751   22.8922 O   0  0  0  0  0  0  0  0  0  0  0  0
   13.4799  -16.7201   25.0328 O   0  0  0  0  0  0  0  0  0  0  0  0
  2  1  1  6
  2  4  1  0
  3  2  1  0
  4  5  2  0
  4  6  1  0
  6  7  1  0
  7  8  1  1
  7 13  1  0
  8  9  1  0
  9 10  1  0
 10 11  1  0
 11 12  1  0
 13 14  2  0
 16 15  1  0
 16 18  1  0
 17 16  2  0
 19 18  1  6
 20 13  1  0
 20 19  1  0
 21 19  1  0
 21 22  1  0
 23 21  2  0
M  END
$$$$
