AKN.pdb
     RDKit          3D

 23 22  0  0  1  0  0  0  0  0999 V2000
    7.4467  -15.1684   18.5069 C   0  0  0  0  0  0  0  0  0  0  0  0
    7.5689  -13.7769   19.0896 C   0  0  2  0  0  0  0  0  0  0  0  0
    8.4136  -12.9548   18.2536 N   0  0  0  0  0  0  0  0  0  0  0  0
    8.1339  -13.8261   20.4591 C   0  0  0  0  0  0  0  0  0  0  0  0
    9.3595  -13.9578   20.6867 O   0  0  0  0  0  0  0  0  0  0  0  0
    7.2718  -13.7216   21.6107 N   0  0  0  0  0  0  0  0  0  0  0  0
    7.7895  -13.7435   22.9620 C   0  0  1  0  0  0  0  0  0  0  0  0
    6.7129  -13.2263   23.9083 C   0  0  0  0  0  0  0  0  0  0  0  0
    7.2471  -13.1647   25.2923 C   0  0  0  0  0  0  0  0  0  0  0  0
    6.3057  -12.5577   26.2918 C   0  0  0  0  0  0  0  0  0  0  0  0
    6.8384  -12.5542   27.6928 C   0  0  0  0  0  0  0  0  0  0  0  0
    5.8771  -11.8685   28.5362 N   0  0  0  0  0  0  0  0  0  0  0  0
    8.2243  -15.1053   23.3218 C   0  0  0  0  0  0  0  0  0  0  0  0
    7.6651  -16.0846   22.7823 O   0  0  0  0  0  0  0  0  0  0  0  0
   11.4644  -19.0115   22.1765 N   0  0  0  0  0  0  0  0  0  0  0  0
   11.6969  -18.0873   23.2560 C   0  0  0  0  0  0  0  0  0  0  0  0
   12.4741  -18.3550   24.1812 O   0  0  0  0  0  0  0  0  0  0  0  0
   10.9543  -16.8030   23.1943 C   0  0  0  0  0  0  0  0  0  0  0  0
    9.9483  -16.6343   24.2932 C   0  0  2  0  0  0  0  0  0  0  0  0
    9.2584  -15.3620   24.2614 N   0  0  0  0  0  0  0  0  0  0  0  0
   10.5638  -16.8808   25.6272 C   0  0  0  0  0  0  0  0  0  0  0  0
   11.3143  -15.9399   26.2806 O   0  0  0  0  0  0  0  0  0  0  0  0
   10.3831  -18.0000   26.1694 O   0  0  0  0  0  0  0  0  0  0  0  0
  2  1  1  6
  2  4  1  0
  3  2  1  0
  4  5  2  0
  4  6  1  0
  6  7  1  0
  7  8  1  1
  7 13  1  0
  8  9  1  0
  9 10  1  0
 10 11  1  0
 11 12  1  0
 13 14  2  0
 16 15  1  0
 16 18  1  0
 17 16  2  0
 19 18  1  6
 20 13  1  0
 20 19  1  0
 21 19  1  0
 21 22  1  0
 23 21  2  0
M  END
$$$$
