AKN.pdb
     RDKit          3D

 23 22  0  0  1  0  0  0  0  0999 V2000
    4.7685  -21.8943   17.0550 C   0  0  0  0  0  0  0  0  0  0  0  0
    3.4331  -21.3127   17.4659 C   0  0  2  0  0  0  0  0  0  0  0  0
    3.2380  -20.0196   16.8510 N   0  0  0  0  0  0  0  0  0  0  0  0
    3.3496  -21.1723   18.9392 C   0  0  0  0  0  0  0  0  0  0  0  0
    3.6715  -20.1223   19.5435 O   0  0  0  0  0  0  0  0  0  0  0  0
    2.8826  -22.2674   19.7535 N   0  0  0  0  0  0  0  0  0  0  0  0
    2.7230  -22.1450   21.1867 C   0  0  1  0  0  0  0  0  0  0  0  0
    1.6377  -23.1122   21.6437 C   0  0  0  0  0  0  0  0  0  0  0  0
    1.4171  -22.9666   23.1048 C   0  0  0  0  0  0  0  0  0  0  0  0
    0.4056  -23.9181   23.6751 C   0  0  0  0  0  0  0  0  0  0  0  0
    0.1997  -23.7613   25.1514 C   0  0  0  0  0  0  0  0  0  0  0  0
   -0.7250  -24.7912   25.5869 N   0  0  0  0  0  0  0  0  0  0  0  0
    4.0047  -22.4007   21.8684 C   0  0  0  0  0  0  0  0  0  0  0  0
    4.7405  -23.3223   21.4541 O   0  0  0  0  0  0  0  0  0  0  0  0
    8.2438  -22.2042   24.6314 N   0  0  0  0  0  0  0  0  0  0  0  0
    7.7838  -20.8400   24.6033 C   0  0  0  0  0  0  0  0  0  0  0  0
    8.4857  -19.9114   25.0236 O   0  0  0  0  0  0  0  0  0  0  0  0
    6.4269  -20.6145   24.0442 C   0  0  0  0  0  0  0  0  0  0  0  0
    5.7501  -21.8689   23.5785 C   0  0  2  0  0  0  0  0  0  0  0  0
    4.4491  -21.6432   22.9850 N   0  0  0  0  0  0  0  0  0  0  0  0
    5.6762  -22.8770   24.6727 C   0  0  0  0  0  0  0  0  0  0  0  0
    6.7076  -23.7298   24.9636 O   0  0  0  0  0  0  0  0  0  0  0  0
    4.6214  -22.9424   25.3527 O   0  0  0  0  0  0  0  0  0  0  0  0
  2  1  1  1
  2  4  1  0
  3  2  1  0
  4  5  2  0
  4  6  1  0
  6  7  1  0
  7  8  1  1
  7 13  1  0
  8  9  1  0
  9 10  1  0
 10 11  1  0
 11 12  1  0
 13 14  2  0
 16 15  1  0
 16 18  1  0
 17 16  2  0
 19 18  1  1
 20 13  1  0
 20 19  1  0
 21 19  1  0
 21 22  1  0
 23 21  2  0
M  END
$$$$
