AKN.pdb
     RDKit          3D

 23 22  0  0  1  0  0  0  0  0999 V2000
   -1.6561  -21.6121   23.9296 C   0  0  0  0  0  0  0  0  0  0  0  0
   -1.9590  -22.3117   25.2370 C   0  0  2  0  0  0  0  0  0  0  0  0
   -1.1591  -23.5086   25.3631 N   0  0  0  0  0  0  0  0  0  0  0  0
   -3.3947  -22.6704   25.3232 C   0  0  0  0  0  0  0  0  0  0  0  0
   -4.3153  -21.8243   25.2364 O   0  0  0  0  0  0  0  0  0  0  0  0
   -3.7959  -24.0425   25.5154 N   0  0  0  0  0  0  0  0  0  0  0  0
   -5.1875  -24.4389   25.5427 C   0  0  1  0  0  0  0  0  0  0  0  0
   -5.2919  -25.8938   25.1019 C   0  0  0  0  0  0  0  0  0  0  0  0
   -6.7192  -26.2975   25.0338 C   0  0  0  0  0  0  0  0  0  0  0  0
   -6.9397  -27.7187   24.6032 C   0  0  0  0  0  0  0  0  0  0  0  0
   -8.3864  -28.0940   24.4901 C   0  0  0  0  0  0  0  0  0  0  0  0
   -8.4628  -29.5286   24.2867 N   0  0  0  0  0  0  0  0  0  0  0  0
   -5.7520  -24.2344   26.8890 C   0  0  0  0  0  0  0  0  0  0  0  0
   -5.1725  -24.7400   27.8745 O   0  0  0  0  0  0  0  0  0  0  0  0
   -8.4358  -22.7059   30.9417 N   0  0  0  0  0  0  0  0  0  0  0  0
   -7.8140  -21.5851   30.2856 C   0  0  0  0  0  0  0  0  0  0  0  0
   -7.7915  -20.4619   30.8049 O   0  0  0  0  0  0  0  0  0  0  0  0
   -7.2055  -21.8543   28.9582 C   0  0  0  0  0  0  0  0  0  0  0  0
   -7.4268  -23.2531   28.4656 C   0  0  2  0  0  0  0  0  0  0  0  0
   -6.9346  -23.4830   27.1238 N   0  0  0  0  0  0  0  0  0  0  0  0
   -8.8584  -23.6459   28.5896 C   0  0  0  0  0  0  0  0  0  0  0  0
   -9.5928  -24.1084   27.5302 O   0  0  0  0  0  0  0  0  0  0  0  0
   -9.4085  -23.5463   29.7151 O   0  0  0  0  0  0  0  0  0  0  0  0
  2  1  1  6
  2  4  1  0
  3  2  1  0
  4  5  2  0
  4  6  1  0
  6  7  1  0
  7  8  1  1
  7 13  1  0
  8  9  1  0
  9 10  1  0
 10 11  1  0
 11 12  1  0
 13 14  2  0
 16 15  1  0
 16 18  1  0
 17 16  2  0
 19 18  1  6
 20 13  1  0
 20 19  1  0
 21 19  1  0
 21 22  1  0
 23 21  2  0
M  END
$$$$
