AKN.pdb
     RDKit          3D

 23 22  0  0  1  0  0  0  0  0999 V2000
    8.9941  -19.7887   17.7143 C   0  0  0  0  0  0  0  0  0  0  0  0
    7.5494  -19.5450   18.0937 C   0  0  2  0  0  0  0  0  0  0  0  0
    6.8678  -18.8275   17.0407 N   0  0  0  0  0  0  0  0  0  0  0  0
    7.4583  -18.7693   19.3536 C   0  0  0  0  0  0  0  0  0  0  0  0
    7.9698  -17.6335   19.4935 O   0  0  0  0  0  0  0  0  0  0  0  0
    6.7595  -19.3068   20.4952 N   0  0  0  0  0  0  0  0  0  0  0  0
    6.5834  -18.5480   21.7148 C   0  0  1  0  0  0  0  0  0  0  0  0
    5.4566  -19.1767   22.5254 C   0  0  0  0  0  0  0  0  0  0  0  0
    4.1655  -18.9985   21.8141 C   0  0  0  0  0  0  0  0  0  0  0  0
    2.9863  -19.6141   22.5100 C   0  0  0  0  0  0  0  0  0  0  0  0
    1.6824  -19.3681   21.8130 C   0  0  0  0  0  0  0  0  0  0  0  0
    0.6567  -20.1327   22.4978 N   0  0  0  0  0  0  0  0  0  0  0  0
    7.8447  -18.5030   22.4766 C   0  0  0  0  0  0  0  0  0  0  0  0
    8.5250  -19.5457   22.5884 O   0  0  0  0  0  0  0  0  0  0  0  0
   12.0965  -16.9630   24.8565 N   0  0  0  0  0  0  0  0  0  0  0  0
   11.8994  -16.1747   23.6678 C   0  0  0  0  0  0  0  0  0  0  0  0
   12.7937  -15.4466   23.2183 O   0  0  0  0  0  0  0  0  0  0  0  0
   10.5693  -16.2858   23.0174 C   0  0  0  0  0  0  0  0  0  0  0  0
    9.6516  -17.2662   23.6845 C   0  0  2  0  0  0  0  0  0  0  0  0
    8.3299  -17.3204   23.0963 N   0  0  0  0  0  0  0  0  0  0  0  0
    9.5791  -17.0210   25.1521 C   0  0  0  0  0  0  0  0  0  0  0  0
   10.6630  -17.1543   25.9785 O   0  0  0  0  0  0  0  0  0  0  0  0
    8.4753  -16.6781   25.6453 O   0  0  0  0  0  0  0  0  0  0  0  0
  2  1  1  6
  2  4  1  0
  3  2  1  0
  4  5  2  0
  4  6  1  0
  6  7  1  0
  7  8  1  1
  7 13  1  0
  8  9  1  0
  9 10  1  0
 10 11  1  0
 11 12  1  0
 13 14  2  0
 16 15  1  0
 16 18  1  0
 17 16  2  0
 19 18  1  6
 20 13  1  0
 20 19  1  0
 21 19  1  0
 21 22  1  0
 23 21  2  0
M  END
$$$$
