AKN.pdb
     RDKit          3D

 23 22  0  0  1  0  0  0  0  0999 V2000
    8.0897  -12.1338   19.6394 C   0  0  0  0  0  0  0  0  0  0  0  0
    8.1778  -13.4274   18.8587 C   0  0  2  0  0  0  0  0  0  0  0  0
    6.9392  -13.6758   18.1570 N   0  0  0  0  0  0  0  0  0  0  0  0
    8.4682  -14.5684   19.7592 C   0  0  0  0  0  0  0  0  0  0  0  0
    7.5705  -15.2488   20.3090 O   0  0  0  0  0  0  0  0  0  0  0  0
    9.8304  -14.9481   20.0437 N   0  0  0  0  0  0  0  0  0  0  0  0
   10.1566  -16.1771   20.7346 C   0  0  1  0  0  0  0  0  0  0  0  0
   10.6593  -17.1936   19.7167 C   0  0  0  0  0  0  0  0  0  0  0  0
   10.8515  -18.5109   20.3742 C   0  0  0  0  0  0  0  0  0  0  0  0
   11.3255  -19.5979   19.4536 C   0  0  0  0  0  0  0  0  0  0  0  0
   11.5722  -20.9047   20.1449 C   0  0  0  0  0  0  0  0  0  0  0  0
   12.0089  -21.8640   19.1477 N   0  0  0  0  0  0  0  0  0  0  0  0
   11.1538  -15.9222   21.7899 C   0  0  0  0  0  0  0  0  0  0  0  0
   12.2427  -15.3913   21.4820 O   0  0  0  0  0  0  0  0  0  0  0  0
   13.0403  -15.4700   27.0121 N   0  0  0  0  0  0  0  0  0  0  0  0
   12.7678  -16.7612   26.4360 C   0  0  0  0  0  0  0  0  0  0  0  0
   13.4201  -17.7633   26.7555 O   0  0  0  0  0  0  0  0  0  0  0  0
   11.6657  -16.8193   25.4427 C   0  0  0  0  0  0  0  0  0  0  0  0
   12.0069  -16.1898   24.1253 C   0  0  2  0  0  0  0  0  0  0  0  0
   10.9355  -16.2540   23.1539 N   0  0  0  0  0  0  0  0  0  0  0  0
   13.2705  -16.7528   23.5725 C   0  0  0  0  0  0  0  0  0  0  0  0
   14.4443  -16.0478   23.5446 O   0  0  0  0  0  0  0  0  0  0  0  0
   13.2516  -17.9229   23.1147 O   0  0  0  0  0  0  0  0  0  0  0  0
  2  1  1  1
  2  4  1  0
  3  2  1  0
  4  5  2  0
  4  6  1  0
  6  7  1  0
  7  8  1  6
  7 13  1  0
  8  9  1  0
  9 10  1  0
 10 11  1  0
 11 12  1  0
 13 14  2  0
 16 15  1  0
 16 18  1  0
 17 16  2  0
 19 18  1  1
 20 13  1  0
 20 19  1  0
 21 19  1  0
 21 22  1  0
 23 21  2  0
M  END
$$$$
