DIF.pdb
     RDKit          3D

 28 28  0  0  1  0  0  0  0  0999 V2000
    7.2892  -18.6495   18.7572 N   0  0  0  0  0  0  0  0  0  0  0  0
    7.2493  -18.3823   20.1954 C   0  0  1  0  0  0  0  0  0  0  0  0
    7.7322  -19.6176   20.8684 C   0  0  0  0  0  0  0  0  0  0  0  0
    6.8396  -20.7643   20.8843 C   0  0  0  0  0  0  0  0  0  0  0  0
    5.8872  -20.7784   20.0604 O   0  0  0  0  0  0  0  0  0  0  0  0
    8.0392  -17.1574   20.5009 C   0  0  0  0  0  0  0  0  0  0  0  0
    8.5514  -16.4422   19.6121 O   0  0  0  0  0  0  0  0  0  0  0  0
    6.9420  -21.8503   21.7311 O   0  0  0  0  0  0  0  0  0  0  0  0
    6.9759  -13.1155   19.6640 C   0  0  0  0  0  0  0  0  0  0  0  0
    7.7828  -14.2615   20.1678 C   0  0  0  0  0  0  0  0  0  0  0  0
    8.0435  -14.3071   21.6262 C   0  0  2  0  0  0  0  0  0  0  0  0
    8.5494  -12.9516   22.0722 C   0  0  0  0  0  0  0  0  0  0  0  0
    8.8413  -15.4583   22.1381 C   0  0  2  0  0  0  0  0  0  0  0  0
    8.2483  -16.7396   21.8681 N   0  0  0  0  0  0  0  0  0  0  0  0
    9.1475  -15.2628   23.5728 C   0  0  0  0  0  0  0  0  0  0  0  0
    9.9182  -14.3470   23.9859 O   0  0  0  0  0  0  0  0  0  0  0  0
    8.5831  -16.1039   24.5648 N   0  0  0  0  0  0  0  0  0  0  0  0
    9.0244  -16.0197   25.9700 C   0  0  1  0  0  0  0  0  0  0  0  0
    7.7968  -15.6895   26.7877 C   0  0  0  0  0  0  0  0  0  0  0  0
    7.3373  -14.2916   26.5842 C   0  0  0  0  0  0  0  0  0  0  0  0
    6.1241  -13.9773   26.0112 C   0  0  0  0  0  0  0  0  0  0  0  0
    5.7099  -12.6638   25.8287 C   0  0  0  0  0  0  0  0  0  0  0  0
    6.5141  -11.6130   26.2224 C   0  0  0  0  0  0  0  0  0  0  0  0
    7.7294  -11.9032   26.7967 C   0  0  0  0  0  0  0  0  0  0  0  0
    8.1294  -13.2075   26.9725 C   0  0  0  0  0  0  0  0  0  0  0  0
    9.5460  -17.3270   26.4351 C   0  0  0  0  0  0  0  0  0  0  0  0
   10.1491  -17.5142   27.6563 O   0  0  0  0  0  0  0  0  0  0  0  0
    9.4202  -18.3141   25.6500 O   0  0  0  0  0  0  0  0  0  0  0  0
  2  6  1  0
  2  1  1  6
  3  2  1  0
  4  3  1  0
  5  4  2  0
  6 14  1  0
  7  6  2  0
  8  4  1  0
 10  9  1  0
 10 11  1  0
 11 12  1  6
 13 11  1  0
 13 14  1  1
 15 13  1  0
 16 15  2  0
 17 15  1  0
 18 26  1  0
 18 17  1  0
 18 19  1  1
 20 19  1  0
 21 20  2  0
 22 21  1  0
 23 22  2  0
 23 24  1  0
 24 25  2  0
 25 20  1  0
 26 27  1  0
 28 26  2  0
M  END
$$$$
