DIF.pdb
     RDKit          3D

 28 28  0  0  1  0  0  0  0  0999 V2000
    8.7378  -18.5186   18.8451 N   0  0  0  0  0  0  0  0  0  0  0  0
    9.1542  -18.7116   20.2346 C   0  0  1  0  0  0  0  0  0  0  0  0
   10.2255  -19.7432   20.2155 C   0  0  0  0  0  0  0  0  0  0  0  0
    9.9076  -21.0277   19.6148 C   0  0  0  0  0  0  0  0  0  0  0  0
   10.6971  -21.4802   18.7441 O   0  0  0  0  0  0  0  0  0  0  0  0
    9.5584  -17.4051   20.8240 C   0  0  0  0  0  0  0  0  0  0  0  0
   10.7376  -16.9893   20.8060 O   0  0  0  0  0  0  0  0  0  0  0  0
    8.8059  -21.8041   19.9150 O   0  0  0  0  0  0  0  0  0  0  0  0
    6.8440  -12.9451   19.6390 C   0  0  0  0  0  0  0  0  0  0  0  0
    7.8910  -13.9193   20.0550 C   0  0  0  0  0  0  0  0  0  0  0  0
    8.0462  -14.1550   21.5101 C   0  0  2  0  0  0  0  0  0  0  0  0
    8.3035  -12.8285   22.1928 C   0  0  0  0  0  0  0  0  0  0  0  0
    8.9707  -15.2486   21.9264 C   0  0  2  0  0  0  0  0  0  0  0  0
    8.5799  -16.5487   21.4538 N   0  0  0  0  0  0  0  0  0  0  0  0
    9.1702  -15.2111   23.3923 C   0  0  0  0  0  0  0  0  0  0  0  0
    9.8289  -14.2947   23.9666 O   0  0  0  0  0  0  0  0  0  0  0  0
    8.6244  -16.2137   24.2331 N   0  0  0  0  0  0  0  0  0  0  0  0
    8.8655  -16.1958   25.6884 C   0  0  1  0  0  0  0  0  0  0  0  0
    7.5482  -15.8402   26.3387 C   0  0  0  0  0  0  0  0  0  0  0  0
    7.3189  -14.3736   26.3935 C   0  0  0  0  0  0  0  0  0  0  0  0
    6.1406  -13.7835   25.9907 C   0  0  0  0  0  0  0  0  0  0  0  0
    5.9429  -12.4096   26.0491 C   0  0  0  0  0  0  0  0  0  0  0  0
    6.9378  -11.5767   26.5208 C   0  0  0  0  0  0  0  0  0  0  0  0
    8.1224  -12.1437   26.9283 C   0  0  0  0  0  0  0  0  0  0  0  0
    8.3071  -13.5055   26.8660 C   0  0  0  0  0  0  0  0  0  0  0  0
    9.2657  -17.5394   26.1702 C   0  0  0  0  0  0  0  0  0  0  0  0
    9.2956  -18.6565   25.3694 O   0  0  0  0  0  0  0  0  0  0  0  0
    9.5946  -17.6439   27.3898 O   0  0  0  0  0  0  0  0  0  0  0  0
  2  6  1  0
  2  1  1  6
  3  2  1  0
  4  3  1  0
  5  4  2  0
  6 14  1  0
  7  6  2  0
  8  4  1  0
 10  9  1  0
 10 11  1  0
 11 12  1  1
 13 11  1  0
 13 14  1  1
 15 13  1  0
 16 15  2  0
 17 15  1  0
 18 26  1  0
 18 17  1  0
 18 19  1  1
 20 19  1  0
 21 20  2  0
 22 21  1  0
 23 22  2  0
 23 24  1  0
 24 25  2  0
 25 20  1  0
 26 27  1  0
 28 26  2  0
M  END
$$$$
