DIF.pdb
     RDKit          3D

 28 28  0  0  1  0  0  0  0  0999 V2000
   10.8781  -18.4497   17.3958 N   0  0  0  0  0  0  0  0  0  0  0  0
   10.5283  -18.7730   18.7794 C   0  0  1  0  0  0  0  0  0  0  0  0
   11.4938  -19.8118   19.2278 C   0  0  0  0  0  0  0  0  0  0  0  0
   11.4779  -21.0866   18.5303 C   0  0  0  0  0  0  0  0  0  0  0  0
   10.3574  -21.5845   18.2425 O   0  0  0  0  0  0  0  0  0  0  0  0
   10.5249  -17.5304   19.6002 C   0  0  0  0  0  0  0  0  0  0  0  0
   11.5046  -16.7557   19.6610 O   0  0  0  0  0  0  0  0  0  0  0  0
   12.5921  -21.8092   18.1520 O   0  0  0  0  0  0  0  0  0  0  0  0
    7.1412  -12.7685   21.0881 C   0  0  0  0  0  0  0  0  0  0  0  0
    8.2508  -13.6932   21.4514 C   0  0  0  0  0  0  0  0  0  0  0  0
    8.2173  -15.0478   20.8509 C   0  0  2  0  0  0  0  0  0  0  0  0
    6.8616  -15.6656   21.1201 C   0  0  0  0  0  0  0  0  0  0  0  0
    9.3701  -15.9483   21.1411 C   0  0  2  0  0  0  0  0  0  0  0  0
    9.3618  -17.1649   20.3755 N   0  0  0  0  0  0  0  0  0  0  0  0
    9.4670  -16.1920   22.5976 C   0  0  0  0  0  0  0  0  0  0  0  0
    8.7904  -17.0869   23.1847 O   0  0  0  0  0  0  0  0  0  0  0  0
   10.3350  -15.4238   23.4140 N   0  0  0  0  0  0  0  0  0  0  0  0
   10.3636  -15.6126   24.8769 C   0  0  1  0  0  0  0  0  0  0  0  0
    9.9592  -14.2912   25.4895 C   0  0  0  0  0  0  0  0  0  0  0  0
    9.9795  -14.3233   26.9745 C   0  0  0  0  0  0  0  0  0  0  0  0
    9.0032  -13.7367   27.7503 C   0  0  0  0  0  0  0  0  0  0  0  0
    9.0377  -13.7765   29.1386 C   0  0  0  0  0  0  0  0  0  0  0  0
   10.0687  -14.4162   29.7971 C   0  0  0  0  0  0  0  0  0  0  0  0
   11.0542  -15.0088   29.0430 C   0  0  0  0  0  0  0  0  0  0  0  0
   11.0100  -14.9631   27.6688 C   0  0  0  0  0  0  0  0  0  0  0  0
    9.3719  -16.6326   25.2935 C   0  0  0  0  0  0  0  0  0  0  0  0
    8.0468  -16.5983   24.9288 O   0  0  0  0  0  0  0  0  0  0  0  0
    9.7872  -17.5801   26.0258 O   0  0  0  0  0  0  0  0  0  0  0  0
  2  6  1  0
  2  1  1  6
  3  2  1  0
  4  3  1  0
  5  4  2  0
  6 14  1  0
  7  6  2  0
  8  4  1  0
 10  9  1  0
 10 11  1  0
 11 12  1  1
 13 11  1  0
 13 14  1  6
 15 13  1  0
 16 15  2  0
 17 15  1  0
 18 26  1  0
 18 17  1  0
 18 19  1  1
 20 19  1  0
 21 20  2  0
 22 21  1  0
 23 22  2  0
 23 24  1  0
 24 25  2  0
 25 20  1  0
 26 27  1  0
 28 26  2  0
M  END
$$$$
