DIF.pdb
     RDKit          3D

 28 28  0  0  1  0  0  0  0  0999 V2000
   10.1971  -17.8299   18.6797 N   0  0  0  0  0  0  0  0  0  0  0  0
   10.9150  -17.8821   19.9537 C   0  0  1  0  0  0  0  0  0  0  0  0
   12.3566  -18.0343   19.6207 C   0  0  0  0  0  0  0  0  0  0  0  0
   13.2604  -18.3866   20.7028 C   0  0  0  0  0  0  0  0  0  0  0  0
   14.4487  -17.9753   20.6327 O   0  0  0  0  0  0  0  0  0  0  0  0
   10.5872  -16.6770   20.7648 C   0  0  0  0  0  0  0  0  0  0  0  0
   11.4057  -15.7536   20.9680 O   0  0  0  0  0  0  0  0  0  0  0  0
   12.9304  -19.1405   21.8116 O   0  0  0  0  0  0  0  0  0  0  0  0
    6.9493  -13.2159   19.6971 C   0  0  0  0  0  0  0  0  0  0  0  0
    8.0779  -14.0071   20.2614 C   0  0  0  0  0  0  0  0  0  0  0  0
    7.9188  -14.5054   21.6482 C   0  0  2  0  0  0  0  0  0  0  0  0
    7.5589  -13.3401   22.5452 C   0  0  0  0  0  0  0  0  0  0  0  0
    9.0010  -15.3805   22.1841 C   0  0  2  0  0  0  0  0  0  0  0  0
    9.2801  -16.5259   21.3617 N   0  0  0  0  0  0  0  0  0  0  0  0
    8.7078  -15.7447   23.5882 C   0  0  0  0  0  0  0  0  0  0  0  0
    7.6942  -16.4289   23.9167 O   0  0  0  0  0  0  0  0  0  0  0  0
    9.5611  -15.3388   24.6451 N   0  0  0  0  0  0  0  0  0  0  0  0
    9.2788  -15.7296   26.0394 C   0  0  1  0  0  0  0  0  0  0  0  0
    7.7905  -15.5595   26.2412 C   0  0  0  0  0  0  0  0  0  0  0  0
    7.3847  -14.1318   26.3021 C   0  0  0  0  0  0  0  0  0  0  0  0
    6.1928  -13.6688   25.7883 C   0  0  0  0  0  0  0  0  0  0  0  0
    5.8288  -12.3297   25.8543 C   0  0  0  0  0  0  0  0  0  0  0  0
    6.6637  -11.4037   26.4469 C   0  0  0  0  0  0  0  0  0  0  0  0
    7.8586  -11.8433   26.9666 C   0  0  0  0  0  0  0  0  0  0  0  0
    8.2088  -13.1717   26.8956 C   0  0  0  0  0  0  0  0  0  0  0  0
    9.6104  -17.1573   26.2612 C   0  0  0  0  0  0  0  0  0  0  0  0
    9.6085  -17.7549   27.4994 O   0  0  0  0  0  0  0  0  0  0  0  0
    9.9096  -17.8484   25.2417 O   0  0  0  0  0  0  0  0  0  0  0  0
  2  6  1  0
  2  1  1  6
  3  2  1  0
  4  3  1  0
  5  4  2  0
  6 14  1  0
  7  6  2  0
  8  4  1  0
 10  9  1  0
 10 11  1  0
 11 12  1  1
 13 11  1  0
 13 14  1  6
 15 13  1  0
 16 15  2  0
 17 15  1  0
 18 26  1  0
 18 17  1  0
 18 19  1  6
 20 19  1  0
 21 20  2  0
 22 21  1  0
 23 22  2  0
 23 24  1  0
 24 25  2  0
 25 20  1  0
 26 27  1  0
 28 26  2  0
M  END
$$$$
