DIF.pdb
     RDKit          3D

 28 28  0  0  1  0  0  0  0  0999 V2000
    9.5051  -18.3430   18.8629 N   0  0  0  0  0  0  0  0  0  0  0  0
    9.6109  -18.4509   20.3184 C   0  0  1  0  0  0  0  0  0  0  0  0
   10.7218  -19.4013   20.5922 C   0  0  0  0  0  0  0  0  0  0  0  0
   10.6283  -20.7276   20.0056 C   0  0  0  0  0  0  0  0  0  0  0  0
   11.5955  -21.1298   19.3063 O   0  0  0  0  0  0  0  0  0  0  0  0
    9.7900  -17.0964   20.9109 C   0  0  0  0  0  0  0  0  0  0  0  0
   10.8862  -16.4947   20.9072 O   0  0  0  0  0  0  0  0  0  0  0  0
    9.5630  -21.5949   20.1462 O   0  0  0  0  0  0  0  0  0  0  0  0
    6.8044  -12.8775   19.5502 C   0  0  0  0  0  0  0  0  0  0  0  0
    7.8658  -13.7875   20.0636 C   0  0  0  0  0  0  0  0  0  0  0  0
    7.8307  -14.1084   21.5102 C   0  0  2  0  0  0  0  0  0  0  0  0
    7.7509  -12.8151   22.2932 C   0  0  0  0  0  0  0  0  0  0  0  0
    8.8506  -15.0707   22.0177 C   0  0  2  0  0  0  0  0  0  0  0  0
    8.6774  -16.4106   21.5268 N   0  0  0  0  0  0  0  0  0  0  0  0
    8.9133  -15.0084   23.4949 C   0  0  0  0  0  0  0  0  0  0  0  0
    8.7534  -13.9296   24.1383 O   0  0  0  0  0  0  0  0  0  0  0  0
    9.1583  -16.1708   24.2687 N   0  0  0  0  0  0  0  0  0  0  0  0
    9.1655  -16.1121   25.7428 C   0  0  1  0  0  0  0  0  0  0  0  0
    7.7528  -15.7823   26.1674 C   0  0  0  0  0  0  0  0  0  0  0  0
    7.5458  -14.3253   26.3703 C   0  0  0  0  0  0  0  0  0  0  0  0
    8.5407  -13.4815   26.8144 C   0  0  0  0  0  0  0  0  0  0  0  0
    8.3298  -12.1207   26.9983 C   0  0  0  0  0  0  0  0  0  0  0  0
    7.0954  -11.5602   26.7375 C   0  0  0  0  0  0  0  0  0  0  0  0
    6.0875  -12.3834   26.2932 C   0  0  0  0  0  0  0  0  0  0  0  0
    6.3077  -13.7295   26.1147 C   0  0  0  0  0  0  0  0  0  0  0  0
    9.5201  -17.4313   26.3184 C   0  0  0  0  0  0  0  0  0  0  0  0
    9.7681  -17.6358   27.6552 O   0  0  0  0  0  0  0  0  0  0  0  0
    9.5939  -18.4120   25.5189 O   0  0  0  0  0  0  0  0  0  0  0  0
  2  6  1  0
  2  1  1  6
  3  2  1  0
  4  3  1  0
  5  4  2  0
  6 14  1  0
  7  6  2  0
  8  4  1  0
 10  9  1  0
 10 11  1  0
 11 12  1  1
 13 11  1  0
 13 14  1  1
 15 13  1  0
 16 15  2  0
 17 15  1  0
 18 26  1  0
 18 17  1  0
 18 19  1  1
 20 19  1  0
 21 20  2  0
 22 21  1  0
 23 22  2  0
 23 24  1  0
 24 25  2  0
 25 20  1  0
 26 27  1  0
 28 26  2  0
M  END
$$$$
