DIF.pdb
     RDKit          3D

 28 28  0  0  1  0  0  0  0  0999 V2000
    7.4312  -16.7545   19.8002 N   0  0  0  0  0  0  0  0  0  0  0  0
    7.5409  -17.2553   21.1708 C   0  0  1  0  0  0  0  0  0  0  0  0
    8.1341  -18.6161   21.0774 C   0  0  0  0  0  0  0  0  0  0  0  0
    7.4662  -19.5804   20.2195 C   0  0  0  0  0  0  0  0  0  0  0  0
    6.2089  -19.6369   20.2671 O   0  0  0  0  0  0  0  0  0  0  0  0
    8.3200  -16.2918   21.9969 C   0  0  0  0  0  0  0  0  0  0  0  0
    9.4447  -15.8631   21.6578 O   0  0  0  0  0  0  0  0  0  0  0  0
    8.0926  -20.4501   19.3488 O   0  0  0  0  0  0  0  0  0  0  0  0
    5.4964  -12.9894   25.5315 C   0  0  0  0  0  0  0  0  0  0  0  0
    6.4310  -13.5261   24.5035 C   0  0  0  0  0  0  0  0  0  0  0  0
    7.7178  -14.0771   24.9908 C   0  0  2  0  0  0  0  0  0  0  0  0
    8.4708  -12.9834   25.7180 C   0  0  0  0  0  0  0  0  0  0  0  0
    8.5425  -14.8436   24.0129 C   0  0  2  0  0  0  0  0  0  0  0  0
    7.7929  -15.8048   23.2509 N   0  0  0  0  0  0  0  0  0  0  0  0
    9.7098  -15.4435   24.6967 C   0  0  0  0  0  0  0  0  0  0  0  0
   10.8389  -14.8723   24.7440 O   0  0  0  0  0  0  0  0  0  0  0  0
    9.6157  -16.7033   25.3403 N   0  0  0  0  0  0  0  0  0  0  0  0
   10.7695  -17.2738   26.0613 C   0  0  1  0  0  0  0  0  0  0  0  0
   10.3924  -17.3000   27.5248 C   0  0  0  0  0  0  0  0  0  0  0  0
   10.6041  -15.9887   28.1899 C   0  0  0  0  0  0  0  0  0  0  0  0
   11.7053  -15.7136   28.9713 C   0  0  0  0  0  0  0  0  0  0  0  0
   11.8876  -14.4810   29.5858 C   0  0  0  0  0  0  0  0  0  0  0  0
   10.9555  -13.4746   29.4307 C   0  0  0  0  0  0  0  0  0  0  0  0
    9.8484  -13.7267   28.6550 C   0  0  0  0  0  0  0  0  0  0  0  0
    9.6781  -14.9510   28.0512 C   0  0  0  0  0  0  0  0  0  0  0  0
   11.0206  -18.6691   25.6284 C   0  0  0  0  0  0  0  0  0  0  0  0
   12.0552  -19.4387   26.1053 O   0  0  0  0  0  0  0  0  0  0  0  0
   10.2277  -19.1619   24.7711 O   0  0  0  0  0  0  0  0  0  0  0  0
  2  6  1  0
  2  1  1  6
  3  2  1  0
  4  3  1  0
  5  4  2  0
  6 14  1  0
  7  6  2  0
  8  4  1  0
 10  9  1  0
 10 11  1  0
 11 12  1  6
 13 11  1  0
 13 14  1  1
 15 13  1  0
 16 15  2  0
 17 15  1  0
 18 26  1  0
 18 17  1  0
 18 19  1  1
 20 19  1  0
 21 20  2  0
 22 21  1  0
 23 22  2  0
 23 24  1  0
 24 25  2  0
 25 20  1  0
 26 27  1  0
 28 26  2  0
M  END
$$$$
