DIF.pdb
     RDKit          3D

 28 28  0  0  1  0  0  0  0  0999 V2000
   10.6855  -17.6595   18.4707 N   0  0  0  0  0  0  0  0  0  0  0  0
   11.7302  -17.3559   19.4494 C   0  0  1  0  0  0  0  0  0  0  0  0
   12.8667  -16.7730   18.6874 C   0  0  0  0  0  0  0  0  0  0  0  0
   13.4261  -17.5675   17.6067 C   0  0  0  0  0  0  0  0  0  0  0  0
   13.5358  -18.8091   17.7867 O   0  0  0  0  0  0  0  0  0  0  0  0
   11.1786  -16.4751   20.5160 C   0  0  0  0  0  0  0  0  0  0  0  0
   11.8969  -15.9252   21.3794 O   0  0  0  0  0  0  0  0  0  0  0  0
   13.8536  -17.0782   16.3882 O   0  0  0  0  0  0  0  0  0  0  0  0
    6.8545  -12.9792   19.8837 C   0  0  0  0  0  0  0  0  0  0  0  0
    8.1144  -13.6535   20.3038 C   0  0  0  0  0  0  0  0  0  0  0  0
    8.0006  -14.6873   21.3599 C   0  0  2  0  0  0  0  0  0  0  0  0
    7.2983  -14.0835   22.5575 C   0  0  0  0  0  0  0  0  0  0  0  0
    9.2345  -15.4548   21.6951 C   0  0  2  0  0  0  0  0  0  0  0  0
    9.7593  -16.2169   20.5950 N   0  0  0  0  0  0  0  0  0  0  0  0
    9.0042  -16.2799   22.9018 C   0  0  0  0  0  0  0  0  0  0  0  0
    8.3141  -17.3414   22.8794 O   0  0  0  0  0  0  0  0  0  0  0  0
    9.5544  -15.9148   24.1564 N   0  0  0  0  0  0  0  0  0  0  0  0
    9.6966  -16.9070   25.2390 C   0  0  1  0  0  0  0  0  0  0  0  0
   10.7864  -16.3943   26.1524 C   0  0  0  0  0  0  0  0  0  0  0  0
   10.3563  -15.2122   26.9426 C   0  0  0  0  0  0  0  0  0  0  0  0
    9.8216  -14.0801   26.3671 C   0  0  0  0  0  0  0  0  0  0  0  0
    9.4241  -12.9833   27.1216 C   0  0  0  0  0  0  0  0  0  0  0  0
    9.5542  -12.9925   28.4959 C   0  0  0  0  0  0  0  0  0  0  0  0
   10.0854  -14.1121   29.0920 C   0  0  0  0  0  0  0  0  0  0  0  0
   10.4757  -15.1923   28.3350 C   0  0  0  0  0  0  0  0  0  0  0  0
    8.4459  -17.0044   26.0286 C   0  0  0  0  0  0  0  0  0  0  0  0
    8.2447  -17.9321   27.0231 O   0  0  0  0  0  0  0  0  0  0  0  0
    7.5231  -16.1788   25.7575 O   0  0  0  0  0  0  0  0  0  0  0  0
  2  6  1  0
  2  1  1  6
  3  2  1  0
  4  3  1  0
  5  4  2  0
  6 14  1  0
  7  6  2  0
  8  4  1  0
 10  9  1  0
 10 11  1  0
 11 12  1  1
 13 11  1  0
 13 14  1  6
 15 13  1  0
 16 15  2  0
 17 15  1  0
 18 26  1  0
 18 17  1  0
 18 19  1  1
 20 19  1  0
 21 20  2  0
 22 21  1  0
 23 22  2  0
 23 24  1  0
 24 25  2  0
 25 20  1  0
 26 27  1  0
 28 26  2  0
M  END
$$$$
