DIF.pdb
     RDKit          3D

 28 28  0  0  1  0  0  0  0  0999 V2000
    8.1306  -18.8728   20.1991 N   0  0  0  0  0  0  0  0  0  0  0  0
    9.5683  -18.6239   20.3108 C   0  0  1  0  0  0  0  0  0  0  0  0
   10.1438  -18.8561   18.9591 C   0  0  0  0  0  0  0  0  0  0  0  0
    9.6522  -18.0281   17.8706 C   0  0  0  0  0  0  0  0  0  0  0  0
    8.7277  -17.2116   18.1253 O   0  0  0  0  0  0  0  0  0  0  0  0
    9.8007  -17.2595   20.8604 C   0  0  0  0  0  0  0  0  0  0  0  0
   10.9341  -16.7337   20.9122 O   0  0  0  0  0  0  0  0  0  0  0  0
   10.1115  -18.0573   16.5687 O   0  0  0  0  0  0  0  0  0  0  0  0
    6.9059  -12.7838   19.7909 C   0  0  0  0  0  0  0  0  0  0  0  0
    7.9524  -13.7645   20.1926 C   0  0  0  0  0  0  0  0  0  0  0  0
    8.0087  -14.1340   21.6269 C   0  0  2  0  0  0  0  0  0  0  0  0
    8.1368  -12.8698   22.4499 C   0  0  0  0  0  0  0  0  0  0  0  0
    8.9594  -15.2162   22.0129 C   0  0  2  0  0  0  0  0  0  0  0  0
    8.6990  -16.4735   21.3667 N   0  0  0  0  0  0  0  0  0  0  0  0
    9.0191  -15.3344   23.4869 C   0  0  0  0  0  0  0  0  0  0  0  0
    9.4982  -14.4232   24.2242 O   0  0  0  0  0  0  0  0  0  0  0  0
    8.5349  -16.4898   24.1507 N   0  0  0  0  0  0  0  0  0  0  0  0
    8.2947  -16.4826   25.6063 C   0  0  1  0  0  0  0  0  0  0  0  0
    6.9068  -15.9198   25.8108 C   0  0  0  0  0  0  0  0  0  0  0  0
    6.9286  -14.5218   26.3125 C   0  0  0  0  0  0  0  0  0  0  0  0
    8.0773  -13.9016   26.7541 C   0  0  0  0  0  0  0  0  0  0  0  0
    8.0796  -12.5928   27.2199 C   0  0  0  0  0  0  0  0  0  0  0  0
    6.9111  -11.8585   27.2561 C   0  0  0  0  0  0  0  0  0  0  0  0
    5.7524  -12.4572   26.8202 C   0  0  0  0  0  0  0  0  0  0  0  0
    5.7618  -13.7538   26.3610 C   0  0  0  0  0  0  0  0  0  0  0  0
    8.3134  -17.8624   26.1477 C   0  0  0  0  0  0  0  0  0  0  0  0
    8.4769  -18.1538   27.4813 O   0  0  0  0  0  0  0  0  0  0  0  0
    8.1693  -18.8119   25.3205 O   0  0  0  0  0  0  0  0  0  0  0  0
  2  6  1  0
  2  1  1  6
  3  2  1  0
  4  3  1  0
  5  4  2  0
  6 14  1  0
  7  6  2  0
  8  4  1  0
 10  9  1  0
 10 11  1  0
 11 12  1  1
 13 11  1  0
 13 14  1  6
 15 13  1  0
 16 15  2  0
 17 15  1  0
 18 26  1  0
 18 17  1  0
 18 19  1  6
 20 19  1  0
 21 20  2  0
 22 21  1  0
 23 22  2  0
 23 24  1  0
 24 25  2  0
 25 20  1  0
 26 27  1  0
 28 26  2  0
M  END
$$$$
