DIF.pdb
     RDKit          3D

 28 28  0  0  1  0  0  0  0  0999 V2000
    9.6063  -18.9449   19.0149 N   0  0  0  0  0  0  0  0  0  0  0  0
   10.8841  -18.2510   19.1787 C   0  0  1  0  0  0  0  0  0  0  0  0
   11.3953  -17.9773   17.8090 C   0  0  0  0  0  0  0  0  0  0  0  0
   12.7759  -17.5411   17.6841 C   0  0  0  0  0  0  0  0  0  0  0  0
   13.5488  -17.7531   18.6556 O   0  0  0  0  0  0  0  0  0  0  0  0
   10.6937  -17.0409   20.0256 C   0  0  0  0  0  0  0  0  0  0  0  0
   11.6446  -16.4382   20.5699 O   0  0  0  0  0  0  0  0  0  0  0  0
   13.3217  -16.9073   16.5854 O   0  0  0  0  0  0  0  0  0  0  0  0
    6.8746  -12.9976   19.1984 C   0  0  0  0  0  0  0  0  0  0  0  0
    8.0975  -13.7536   19.5874 C   0  0  0  0  0  0  0  0  0  0  0  0
    8.0286  -14.5384   20.8428 C   0  0  2  0  0  0  0  0  0  0  0  0
    7.6061  -13.6186   21.9686 C   0  0  0  0  0  0  0  0  0  0  0  0
    9.1969  -15.4069   21.1661 C   0  0  2  0  0  0  0  0  0  0  0  0
    9.3716  -16.5054   20.2555 N   0  0  0  0  0  0  0  0  0  0  0  0
    9.1270  -15.8430   22.5786 C   0  0  0  0  0  0  0  0  0  0  0  0
    8.5659  -16.9221   22.9311 O   0  0  0  0  0  0  0  0  0  0  0  0
    9.6938  -15.0615   23.6168 N   0  0  0  0  0  0  0  0  0  0  0  0
    9.5703  -15.4726   25.0283 C   0  0  1  0  0  0  0  0  0  0  0  0
   10.3444  -14.4601   25.8409 C   0  0  0  0  0  0  0  0  0  0  0  0
   10.2294  -14.6969   27.3029 C   0  0  0  0  0  0  0  0  0  0  0  0
    9.4498  -13.9172   28.1294 C   0  0  0  0  0  0  0  0  0  0  0  0
    9.3533  -14.1532   29.4951 C   0  0  0  0  0  0  0  0  0  0  0  0
   10.0473  -15.1944   30.0783 C   0  0  0  0  0  0  0  0  0  0  0  0
   10.8317  -15.9858   29.2725 C   0  0  0  0  0  0  0  0  0  0  0  0
   10.9198  -15.7429   27.9214 C   0  0  0  0  0  0  0  0  0  0  0  0
    8.1550  -15.4253   25.4664 C   0  0  0  0  0  0  0  0  0  0  0  0
    7.6137  -16.2938   26.3844 O   0  0  0  0  0  0  0  0  0  0  0  0
    7.4195  -14.5283   24.9554 O   0  0  0  0  0  0  0  0  0  0  0  0
  2  6  1  0
  2  1  1  6
  3  2  1  0
  4  3  1  0
  5  4  2  0
  6 14  1  0
  7  6  2  0
  8  4  1  0
 10  9  1  0
 10 11  1  0
 11 12  1  1
 13 11  1  0
 13 14  1  6
 15 13  1  0
 16 15  2  0
 17 15  1  0
 18 26  1  0
 18 17  1  0
 18 19  1  1
 20 19  1  0
 21 20  2  0
 22 21  1  0
 23 22  2  0
 23 24  1  0
 24 25  2  0
 25 20  1  0
 26 27  1  0
 28 26  2  0
M  END
$$$$
