DIF.pdb
     RDKit          3D

 28 28  0  0  1  0  0  0  0  0999 V2000
    8.2517  -19.3177   19.0407 N   0  0  0  0  0  0  0  0  0  0  0  0
    7.7952  -18.8322   20.3435 C   0  0  1  0  0  0  0  0  0  0  0  0
    7.9472  -19.9659   21.2942 C   0  0  0  0  0  0  0  0  0  0  0  0
    7.5866  -21.2912   20.8192 C   0  0  0  0  0  0  0  0  0  0  0  0
    6.3711  -21.5187   20.5803 O   0  0  0  0  0  0  0  0  0  0  0  0
    8.5501  -17.6032   20.7142 C   0  0  0  0  0  0  0  0  0  0  0  0
    9.7775  -17.4752   20.5126 O   0  0  0  0  0  0  0  0  0  0  0  0
    8.4655  -22.3345   20.6054 O   0  0  0  0  0  0  0  0  0  0  0  0
    6.8159  -12.5905   19.6239 C   0  0  0  0  0  0  0  0  0  0  0  0
    7.6695  -13.7699   19.9380 C   0  0  0  0  0  0  0  0  0  0  0  0
    7.9455  -14.0344   21.3700 C   0  0  2  0  0  0  0  0  0  0  0  0
    8.5951  -12.8078   21.9745 C   0  0  0  0  0  0  0  0  0  0  0  0
    8.6277  -15.3176   21.7047 C   0  0  2  0  0  0  0  0  0  0  0  0
    7.8764  -16.4863   21.3357 N   0  0  0  0  0  0  0  0  0  0  0  0
    9.0250  -15.3219   23.1303 C   0  0  0  0  0  0  0  0  0  0  0  0
   10.0510  -14.7119   23.5530 O   0  0  0  0  0  0  0  0  0  0  0  0
    8.2636  -16.0188   24.1022 N   0  0  0  0  0  0  0  0  0  0  0  0
    8.6692  -16.0250   25.5206 C   0  0  1  0  0  0  0  0  0  0  0  0
    7.4241  -15.7307   26.3256 C   0  0  0  0  0  0  0  0  0  0  0  0
    7.1528  -14.2748   26.4411 C   0  0  0  0  0  0  0  0  0  0  0  0
    5.9160  -13.7206   26.1913 C   0  0  0  0  0  0  0  0  0  0  0  0
    5.6797  -12.3563   26.3046 C   0  0  0  0  0  0  0  0  0  0  0  0
    6.6937  -11.4969   26.6775 C   0  0  0  0  0  0  0  0  0  0  0  0
    7.9364  -12.0278   26.9319 C   0  0  0  0  0  0  0  0  0  0  0  0
    8.1590  -13.3804   26.8165 C   0  0  0  0  0  0  0  0  0  0  0  0
    9.1654  -17.3640   25.9183 C   0  0  0  0  0  0  0  0  0  0  0  0
    9.2256  -18.4378   25.0619 O   0  0  0  0  0  0  0  0  0  0  0  0
    9.5505  -17.5071   27.1174 O   0  0  0  0  0  0  0  0  0  0  0  0
  2  6  1  0
  2  1  1  6
  3  2  1  0
  4  3  1  0
  5  4  2  0
  6 14  1  0
  7  6  2  0
  8  4  1  0
 10  9  1  0
 10 11  1  0
 11 12  1  6
 13 11  1  0
 13 14  1  1
 15 13  1  0
 16 15  2  0
 17 15  1  0
 18 26  1  0
 18 17  1  0
 18 19  1  1
 20 19  1  0
 21 20  2  0
 22 21  1  0
 23 22  2  0
 23 24  1  0
 24 25  2  0
 25 20  1  0
 26 27  1  0
 28 26  2  0
M  END
$$$$
