DIF.pdb
     RDKit          3D

 28 28  0  0  1  0  0  0  0  0999 V2000
    6.8389  -18.7695   20.9532 N   0  0  0  0  0  0  0  0  0  0  0  0
    8.1795  -18.8017   20.3675 C   0  0  1  0  0  0  0  0  0  0  0  0
    8.0002  -19.0718   18.9159 C   0  0  0  0  0  0  0  0  0  0  0  0
    7.1253  -20.1703   18.5422 C   0  0  0  0  0  0  0  0  0  0  0  0
    7.1054  -21.1850   19.2880 O   0  0  0  0  0  0  0  0  0  0  0  0
    8.8953  -17.5340   20.6813 C   0  0  0  0  0  0  0  0  0  0  0  0
   10.0361  -17.2730   20.2405 O   0  0  0  0  0  0  0  0  0  0  0  0
    6.3063  -20.2024   17.4308 O   0  0  0  0  0  0  0  0  0  0  0  0
    7.0368  -12.6068   19.8238 C   0  0  0  0  0  0  0  0  0  0  0  0
    7.8844  -13.7997   20.1008 C   0  0  0  0  0  0  0  0  0  0  0  0
    8.1981  -14.0830   21.5215 C   0  0  2  0  0  0  0  0  0  0  0  0
    8.7502  -12.8251   22.1576 C   0  0  0  0  0  0  0  0  0  0  0  0
    8.9886  -15.3142   21.8103 C   0  0  2  0  0  0  0  0  0  0  0  0
    8.2840  -16.5346   21.5269 N   0  0  0  0  0  0  0  0  0  0  0  0
    9.5117  -15.2660   23.1938 C   0  0  0  0  0  0  0  0  0  0  0  0
   10.5194  -14.5706   23.5169 O   0  0  0  0  0  0  0  0  0  0  0  0
    8.8991  -16.0064   24.2361 N   0  0  0  0  0  0  0  0  0  0  0  0
    9.6274  -16.3019   25.4847 C   0  0  1  0  0  0  0  0  0  0  0  0
    9.7071  -15.0034   26.2542 C   0  0  0  0  0  0  0  0  0  0  0  0
    8.4039  -14.2924   26.3060 C   0  0  0  0  0  0  0  0  0  0  0  0
    7.2236  -14.8583   25.8752 C   0  0  0  0  0  0  0  0  0  0  0  0
    6.0131  -14.1788   25.9312 C   0  0  0  0  0  0  0  0  0  0  0  0
    5.9525  -12.8926   26.4290 C   0  0  0  0  0  0  0  0  0  0  0  0
    7.1183  -12.3077   26.8647 C   0  0  0  0  0  0  0  0  0  0  0  0
    8.3113  -12.9900   26.8045 C   0  0  0  0  0  0  0  0  0  0  0  0
    8.8774  -17.2780   26.3107 C   0  0  0  0  0  0  0  0  0  0  0  0
    7.7367  -17.9165   25.8851 O   0  0  0  0  0  0  0  0  0  0  0  0
    9.3278  -17.5240   27.4696 O   0  0  0  0  0  0  0  0  0  0  0  0
  2  6  1  0
  2  1  1  1
  3  2  1  0
  4  3  1  0
  5  4  2  0
  6 14  1  0
  7  6  2  0
  8  4  1  0
 10  9  1  0
 10 11  1  0
 11 12  1  6
 13 11  1  0
 13 14  1  1
 15 13  1  0
 16 15  2  0
 17 15  1  0
 18 26  1  0
 18 17  1  0
 18 19  1  1
 20 19  1  0
 21 20  2  0
 22 21  1  0
 23 22  2  0
 23 24  1  0
 24 25  2  0
 25 20  1  0
 26 27  1  0
 28 26  2  0
M  END
$$$$
