DIF.pdb
     RDKit          3D

 28 28  0  0  1  0  0  0  0  0999 V2000
   13.1607  -15.9713   20.2533 N   0  0  0  0  0  0  0  0  0  0  0  0
   12.3375  -16.9601   20.9503 C   0  0  1  0  0  0  0  0  0  0  0  0
   13.2785  -17.8887   21.6319 C   0  0  0  0  0  0  0  0  0  0  0  0
   14.1671  -18.6760   20.7938 C   0  0  0  0  0  0  0  0  0  0  0  0
   13.6897  -19.1802   19.7431 O   0  0  0  0  0  0  0  0  0  0  0  0
   11.3802  -16.2676   21.8568 C   0  0  0  0  0  0  0  0  0  0  0  0
   11.7488  -15.5056   22.7772 O   0  0  0  0  0  0  0  0  0  0  0  0
   15.5012  -18.9245   21.0492 O   0  0  0  0  0  0  0  0  0  0  0  0
    7.1003  -13.7157   19.8952 C   0  0  0  0  0  0  0  0  0  0  0  0
    8.2408  -14.2258   20.7060 C   0  0  0  0  0  0  0  0  0  0  0  0
    7.9082  -15.1116   21.8468 C   0  0  2  0  0  0  0  0  0  0  0  0
    6.9257  -14.3948   22.7485 C   0  0  0  0  0  0  0  0  0  0  0  0
    9.0479  -15.7499   22.5663 C   0  0  2  0  0  0  0  0  0  0  0  0
    9.9558  -16.4548   21.7031 N   0  0  0  0  0  0  0  0  0  0  0  0
    8.5394  -16.5942   23.6703 C   0  0  0  0  0  0  0  0  0  0  0  0
    8.3716  -17.8435   23.5503 O   0  0  0  0  0  0  0  0  0  0  0  0
    8.2128  -16.0347   24.9314 N   0  0  0  0  0  0  0  0  0  0  0  0
    7.8276  -16.8961   26.0655 C   0  0  1  0  0  0  0  0  0  0  0  0
    7.5828  -15.9770   27.2403 C   0  0  0  0  0  0  0  0  0  0  0  0
    8.8136  -15.2660   27.6719 C   0  0  0  0  0  0  0  0  0  0  0  0
    9.7729  -15.8467   28.4727 C   0  0  0  0  0  0  0  0  0  0  0  0
   10.9187  -15.1669   28.8668 C   0  0  0  0  0  0  0  0  0  0  0  0
   11.1369  -13.8653   28.4617 C   0  0  0  0  0  0  0  0  0  0  0  0
   10.1927  -13.2656   27.6620 C   0  0  0  0  0  0  0  0  0  0  0  0
    9.0618  -13.9482   27.2779 C   0  0  0  0  0  0  0  0  0  0  0  0
    6.5633  -17.6127   25.7739 C   0  0  0  0  0  0  0  0  0  0  0  0
    6.1862  -18.7760   26.4023 O   0  0  0  0  0  0  0  0  0  0  0  0
    5.8015  -17.1104   24.8941 O   0  0  0  0  0  0  0  0  0  0  0  0
  2  6  1  0
  2  1  1  1
  3  2  1  0
  4  3  1  0
  5  4  2  0
  6 14  1  0
  7  6  2  0
  8  4  1  0
 10  9  1  0
 10 11  1  0
 11 12  1  1
 13 11  1  0
 13 14  1  6
 15 13  1  0
 16 15  2  0
 17 15  1  0
 18 26  1  0
 18 17  1  0
 18 19  1  1
 20 19  1  0
 21 20  2  0
 22 21  1  0
 23 22  2  0
 23 24  1  0
 24 25  2  0
 25 20  1  0
 26 27  1  0
 28 26  2  0
M  END
$$$$
