DIF.pdb
     RDKit          3D

 28 28  0  0  1  0  0  0  0  0999 V2000
    9.9835  -18.8784   19.3198 N   0  0  0  0  0  0  0  0  0  0  0  0
    9.5703  -18.7983   20.7213 C   0  0  1  0  0  0  0  0  0  0  0  0
   10.3163  -19.8632   21.4435 C   0  0  0  0  0  0  0  0  0  0  0  0
   10.0011  -21.2430   21.1139 C   0  0  0  0  0  0  0  0  0  0  0  0
    9.2341  -21.4529   20.1372 O   0  0  0  0  0  0  0  0  0  0  0  0
    9.8000  -17.4195   21.2347 C   0  0  0  0  0  0  0  0  0  0  0  0
   10.8972  -16.8296   21.1251 O   0  0  0  0  0  0  0  0  0  0  0  0
   10.4706  -22.3561   21.7828 O   0  0  0  0  0  0  0  0  0  0  0  0
    6.3425  -13.3269   20.2932 C   0  0  0  0  0  0  0  0  0  0  0  0
    7.4919  -14.2252   20.5935 C   0  0  0  0  0  0  0  0  0  0  0  0
    7.8367  -14.4168   22.0222 C   0  0  2  0  0  0  0  0  0  0  0  0
    7.9490  -13.0586   22.6815 C   0  0  0  0  0  0  0  0  0  0  0  0
    8.9636  -15.3434   22.3308 C   0  0  2  0  0  0  0  0  0  0  0  0
    8.7387  -16.6945   21.8945 N   0  0  0  0  0  0  0  0  0  0  0  0
    9.3090  -15.2583   23.7674 C   0  0  0  0  0  0  0  0  0  0  0  0
    9.5758  -14.1607   24.3397 O   0  0  0  0  0  0  0  0  0  0  0  0
    9.3569  -16.4186   24.5806 N   0  0  0  0  0  0  0  0  0  0  0  0
    9.2295  -16.3218   26.0472 C   0  0  1  0  0  0  0  0  0  0  0  0
    7.7892  -15.9620   26.3314 C   0  0  0  0  0  0  0  0  0  0  0  0
    7.5926  -14.5001   26.5077 C   0  0  0  0  0  0  0  0  0  0  0  0
    6.4414  -13.8469   26.1242 C   0  0  0  0  0  0  0  0  0  0  0  0
    6.2742  -12.4786   26.2970 C   0  0  0  0  0  0  0  0  0  0  0  0
    7.2731  -11.7160   26.8684 C   0  0  0  0  0  0  0  0  0  0  0  0
    8.4309  -12.3468   27.2588 C   0  0  0  0  0  0  0  0  0  0  0  0
    8.5857  -13.7023   27.0828 C   0  0  0  0  0  0  0  0  0  0  0  0
    9.5088  -17.6302   26.6854 C   0  0  0  0  0  0  0  0  0  0  0  0
    9.7808  -18.7780   25.9792 O   0  0  0  0  0  0  0  0  0  0  0  0
    9.4910  -17.6732   27.9520 O   0  0  0  0  0  0  0  0  0  0  0  0
  2  6  1  0
  2  1  1  6
  3  2  1  0
  4  3  1  0
  5  4  2  0
  6 14  1  0
  7  6  2  0
  8  4  1  0
 10  9  1  0
 10 11  1  0
 11 12  1  6
 13 11  1  0
 13 14  1  1
 15 13  1  0
 16 15  2  0
 17 15  1  0
 18 26  1  0
 18 17  1  0
 18 19  1  6
 20 19  1  0
 21 20  2  0
 22 21  1  0
 23 22  2  0
 23 24  1  0
 24 25  2  0
 25 20  1  0
 26 27  1  0
 28 26  2  0
M  END
$$$$
