ARW.pdb
     RDKit          3D

 31 32  0  0  1  0  0  0  0  0999 V2000
    6.4868  -13.8181   18.8364 C   0  0  0  0  0  0  0  0  0  0  0  0
    7.7054  -13.3319   19.5844 C   0  0  2  0  0  0  0  0  0  0  0  0
    8.7361  -13.0524   18.6141 N   0  0  0  0  0  0  0  0  0  0  0  0
    8.1500  -14.4009   20.5117 C   0  0  0  0  0  0  0  0  0  0  0  0
    7.4221  -14.8849   21.3956 O   0  0  0  0  0  0  0  0  0  0  0  0
   15.2170  -15.1435   20.6768 N   0  0  0  0  0  0  0  0  0  0  0  0
   15.1057  -14.9073   19.2940 C   0  0  0  0  0  0  0  0  0  0  0  0
   15.8815  -14.0649   18.7114 N   0  0  0  0  0  0  0  0  0  0  0  0
   14.1214  -15.6161   18.5536 N   0  0  0  0  0  0  0  0  0  0  0  0
   13.1814  -16.5094   19.1678 C   0  0  0  0  0  0  0  0  0  0  0  0
   12.1298  -15.7333   19.9226 C   0  0  0  0  0  0  0  0  0  0  0  0
   11.0759  -16.6801   20.4108 C   0  0  0  0  0  0  0  0  0  0  0  0
   10.0084  -15.9457   21.2349 C   0  0  2  0  0  0  0  0  0  0  0  0
    9.4707  -14.9116   20.4016 N   0  0  0  0  0  0  0  0  0  0  0  0
   10.5230  -15.5144   22.5311 C   0  0  0  0  0  0  0  0  0  0  0  0
   11.7823  -15.4451   22.6568 O   0  0  0  0  0  0  0  0  0  0  0  0
   15.8054  -13.8284   17.7075 N   0  0  0  0  0  0  0  0  0  0  0  0
    9.7553  -15.1625   23.6723 C   0  0  1  0  0  0  0  0  0  0  0  0
    9.9592  -15.8026   24.9705 C   0  0  0  0  0  0  0  0  0  0  0  0
    8.6672  -16.3227   25.5200 C   0  0  0  0  0  0  0  0  0  0  0  0
    7.5443  -15.3635   25.5045 C   0  0  0  0  0  0  0  0  0  0  0  0
    6.1955  -15.7221   25.3319 N   0  0  0  0  0  0  0  0  0  0  0  0
    5.4529  -14.6185   25.4073 C   0  0  0  0  0  0  0  0  0  0  0  0
    6.2190  -13.5435   25.6186 C   0  0  0  0  0  0  0  0  0  0  0  0
    5.9273  -12.1932   25.7585 C   0  0  0  0  0  0  0  0  0  0  0  0
    6.9134  -11.2559   25.9610 C   0  0  0  0  0  0  0  0  0  0  0  0
    8.2149  -11.7042   26.0211 C   0  0  0  0  0  0  0  0  0  0  0  0
    8.4942  -13.0540   25.8805 C   0  0  0  0  0  0  0  0  0  0  0  0
    7.5267  -14.0021   25.6798 C   0  0  0  0  0  0  0  0  0  0  0  0
   11.0501  -16.7668   24.8485 O   0  0  0  0  0  0  0  0  0  0  0  0
   11.3993  -17.3657   23.8041 O   0  0  0  0  0  0  0  0  0  0  0  0
  2  1  1  6
  3  2  1  0
  4  2  1  0
  4  5  2  0
  7  6  1  0
  8  7  2  0
  9  7  1  0
 10 11  1  0
 10  9  1  0
 11 12  1  0
 13 12  1  6
 13 14  1  0
 14  4  1  0
 15 13  1  0
 16 15  2  0
 17 15  1  0
 18 29  1  0
 18 17  1  0
 18 19  1  1
 20 19  1  0
 21 20  2  0
 22 21  1  0
 23 22  1  0
 23 28  2  0
 24 23  1  0
 25 24  2  0
 25 26  1  0
 26 27  2  0
 27 28  1  0
 28 20  1  0
 29 31  1  0
 30 29  2  0
M  END
$$$$
