ARW.pdb
     RDKit          3D

 31 32  0  0  1  0  0  0  0  0999 V2000
    6.5713  -19.8965   24.8392 C   0  0  0  0  0  0  0  0  0  0  0  0
    6.3722  -19.9029   23.3422 C   0  0  2  0  0  0  0  0  0  0  0  0
    6.6166  -21.2444   22.8704 N   0  0  0  0  0  0  0  0  0  0  0  0
    7.3406  -18.9598   22.7313 C   0  0  0  0  0  0  0  0  0  0  0  0
    8.5050  -19.2754   22.4311 O   0  0  0  0  0  0  0  0  0  0  0  0
    8.5809  -13.2768   16.4519 N   0  0  0  0  0  0  0  0  0  0  0  0
    7.9952  -13.0989   17.7191 C   0  0  0  0  0  0  0  0  0  0  0  0
    8.0013  -11.9452   18.2848 N   0  0  0  0  0  0  0  0  0  0  0  0
    7.3969  -14.2163   18.3618 N   0  0  0  0  0  0  0  0  0  0  0  0
    8.0575  -14.9648   19.3924 C   0  0  0  0  0  0  0  0  0  0  0  0
    7.7086  -14.4128   20.7531 C   0  0  0  0  0  0  0  0  0  0  0  0
    6.9175  -15.4356   21.5105 C   0  0  0  0  0  0  0  0  0  0  0  0
    7.8069  -16.6037   21.9607 C   0  0  2  0  0  0  0  0  0  0  0  0
    6.9378  -17.6236   22.4678 N   0  0  0  0  0  0  0  0  0  0  0  0
    8.8662  -16.1643   22.8638 C   0  0  0  0  0  0  0  0  0  0  0  0
    9.8059  -15.4794   22.3595 O   0  0  0  0  0  0  0  0  0  0  0  0
    7.5423  -11.7594   19.1927 N   0  0  0  0  0  0  0  0  0  0  0  0
    8.9542  -16.4261   24.2564 C   0  0  1  0  0  0  0  0  0  0  0  0
   10.1285  -16.0519   25.0423 C   0  0  0  0  0  0  0  0  0  0  0  0
    9.7683  -15.0598   26.1043 C   0  0  0  0  0  0  0  0  0  0  0  0
    8.4099  -14.4898   25.9995 C   0  0  0  0  0  0  0  0  0  0  0  0
    7.2276  -15.2511   25.9866 N   0  0  0  0  0  0  0  0  0  0  0  0
    6.1903  -14.4178   25.9193 C   0  0  0  0  0  0  0  0  0  0  0  0
    6.6031  -13.1467   25.8855 C   0  0  0  0  0  0  0  0  0  0  0  0
    5.9230  -11.9385   25.8070 C   0  0  0  0  0  0  0  0  0  0  0  0
    6.5867  -10.7342   25.7733 C   0  0  0  0  0  0  0  0  0  0  0  0
    7.9634  -10.7647   25.8201 C   0  0  0  0  0  0  0  0  0  0  0  0
    8.6314  -11.9762   25.8987 C   0  0  0  0  0  0  0  0  0  0  0  0
    7.9887  -13.1848   25.9347 C   0  0  0  0  0  0  0  0  0  0  0  0
   10.7975  -17.2710   25.4900 O   0  0  0  0  0  0  0  0  0  0  0  0
   10.3677  -18.4423   25.3681 O   0  0  0  0  0  0  0  0  0  0  0  0
  2  1  1  1
  3  2  1  0
  4  2  1  0
  4  5  2  0
  7  6  1  0
  8  7  2  0
  9  7  1  0
 10 11  1  0
 10  9  1  0
 11 12  1  0
 13 12  1  1
 13 14  1  0
 14  4  1  0
 15 13  1  0
 16 15  2  0
 17 15  1  0
 18 29  1  0
 18 17  1  0
 18 19  1  6
 20 19  1  0
 21 20  2  0
 22 21  1  0
 23 22  1  0
 23 28  2  0
 24 23  1  0
 25 24  2  0
 25 26  1  0
 26 27  2  0
 27 28  1  0
 28 20  1  0
 29 31  1  0
 30 29  2  0
M  END
$$$$
