ARW.pdb
     RDKit          3D

 31 32  0  0  1  0  0  0  0  0999 V2000
   13.0159  -19.2271   21.0098 C   0  0  0  0  0  0  0  0  0  0  0  0
   12.5840  -18.0311   20.1951 C   0  0  2  0  0  0  0  0  0  0  0  0
   13.7518  -17.5052   19.5305 N   0  0  0  0  0  0  0  0  0  0  0  0
   12.0139  -17.0140   21.1121 C   0  0  0  0  0  0  0  0  0  0  0  0
   12.7074  -16.1967   21.7419 O   0  0  0  0  0  0  0  0  0  0  0  0
    7.9903  -15.3328   17.4662 N   0  0  0  0  0  0  0  0  0  0  0  0
    7.6088  -14.0576   17.9229 C   0  0  0  0  0  0  0  0  0  0  0  0
    7.9406  -13.0034   17.2674 N   0  0  0  0  0  0  0  0  0  0  0  0
    6.8506  -13.9558   19.1206 N   0  0  0  0  0  0  0  0  0  0  0  0
    6.9745  -14.8928   20.2002 C   0  0  0  0  0  0  0  0  0  0  0  0
    8.4120  -14.9960   20.6484 C   0  0  0  0  0  0  0  0  0  0  0  0
    8.5002  -15.9486   21.8017 C   0  0  0  0  0  0  0  0  0  0  0  0
    9.9534  -16.1265   22.2651 C   0  0  2  0  0  0  0  0  0  0  0  0
   10.6067  -16.9535   21.2946 N   0  0  0  0  0  0  0  0  0  0  0  0
   10.0309  -16.5870   23.6481 C   0  0  0  0  0  0  0  0  0  0  0  0
   10.0303  -17.8400   23.8390 O   0  0  0  0  0  0  0  0  0  0  0  0
    7.7191  -12.0458   17.5890 N   0  0  0  0  0  0  0  0  0  0  0  0
   10.1071  -15.7728   24.8086 C   0  0  2  0  0  0  0  0  0  0  0  0
   10.1406  -16.3429   26.1542 C   0  0  0  0  0  0  0  0  0  0  0  0
    9.4863  -15.4262   27.1407 C   0  0  0  0  0  0  0  0  0  0  0  0
    8.2187  -14.8168   26.6901 C   0  0  0  0  0  0  0  0  0  0  0  0
    7.0534  -15.5419   26.3834 N   0  0  0  0  0  0  0  0  0  0  0  0
    6.0956  -14.6786   26.0486 C   0  0  0  0  0  0  0  0  0  0  0  0
    6.5457  -13.4213   26.1110 C   0  0  0  0  0  0  0  0  0  0  0  0
    5.9486  -12.1944   25.8531 C   0  0  0  0  0  0  0  0  0  0  0  0
    6.6391  -11.0116   25.9798 C   0  0  0  0  0  0  0  0  0  0  0  0
    7.9572  -11.0832   26.3748 C   0  0  0  0  0  0  0  0  0  0  0  0
    8.5425  -12.3130   26.6296 C   0  0  0  0  0  0  0  0  0  0  0  0
    7.8716  -13.5008   26.5106 C   0  0  0  0  0  0  0  0  0  0  0  0
    9.6265  -17.7091   26.0944 O   0  0  0  0  0  0  0  0  0  0  0  0
    9.6820  -18.5648   27.0088 O   0  0  0  0  0  0  0  0  0  0  0  0
  2  1  1  1
  3  2  1  0
  4  2  1  0
  4  5  2  0
  7  6  1  0
  8  7  2  0
  9  7  1  0
 10 11  1  0
 10  9  1  0
 11 12  1  0
 13 12  1  6
 13 14  1  0
 14  4  1  0
 15 13  1  0
 16 15  2  0
 17 15  1  0
 18 29  1  0
 18 17  1  0
 18 19  1  1
 20 19  1  0
 21 20  2  0
 22 21  1  0
 23 22  1  0
 23 28  2  0
 24 23  1  0
 25 24  2  0
 25 26  1  0
 26 27  2  0
 27 28  1  0
 28 20  1  0
 29 31  1  0
 30 29  2  0
M  END
$$$$
