ARW.pdb
     RDKit          3D

 31 32  0  0  1  0  0  0  0  0999 V2000
    7.3286  -19.9967   22.8970 C   0  0  0  0  0  0  0  0  0  0  0  0
    7.2993  -19.3723   21.5222 C   0  0  2  0  0  0  0  0  0  0  0  0
    7.6641  -20.3907   20.5674 N   0  0  0  0  0  0  0  0  0  0  0  0
    8.2800  -18.2600   21.4859 C   0  0  0  0  0  0  0  0  0  0  0  0
    9.5036  -18.4322   21.3488 O   0  0  0  0  0  0  0  0  0  0  0  0
    8.5530  -12.1286   16.6182 N   0  0  0  0  0  0  0  0  0  0  0  0
    8.1058  -13.4448   16.3997 C   0  0  0  0  0  0  0  0  0  0  0  0
    8.0578  -13.9288   15.2104 N   0  0  0  0  0  0  0  0  0  0  0  0
    7.7086  -14.2291   17.5163 N   0  0  0  0  0  0  0  0  0  0  0  0
    8.0396  -13.8796   18.8680 C   0  0  0  0  0  0  0  0  0  0  0  0
    7.3713  -14.8240   19.8372 C   0  0  0  0  0  0  0  0  0  0  0  0
    7.8999  -14.5688   21.2159 C   0  0  0  0  0  0  0  0  0  0  0  0
    8.6768  -15.7826   21.7463 C   0  0  2  0  0  0  0  0  0  0  0  0
    7.8193  -16.9226   21.6128 N   0  0  0  0  0  0  0  0  0  0  0  0
    9.2132  -15.5437   23.0827 C   0  0  0  0  0  0  0  0  0  0  0  0
    9.5417  -14.3531   23.3672 O   0  0  0  0  0  0  0  0  0  0  0  0
    7.8266  -14.9172   15.0122 N   0  0  0  0  0  0  0  0  0  0  0  0
    9.4066  -16.5118   24.1029 C   0  0  1  0  0  0  0  0  0  0  0  0
   10.0282  -16.1754   25.3824 C   0  0  0  0  0  0  0  0  0  0  0  0
    9.0133  -16.1580   26.4829 C   0  0  0  0  0  0  0  0  0  0  0  0
    7.8361  -15.2995   26.2410 C   0  0  0  0  0  0  0  0  0  0  0  0
    6.5667  -15.7777   25.8702 N   0  0  0  0  0  0  0  0  0  0  0  0
    5.7372  -14.7399   25.7724 C   0  0  0  0  0  0  0  0  0  0  0  0
    6.3708  -13.5967   26.0535 C   0  0  0  0  0  0  0  0  0  0  0  0
    5.9544  -12.2723   26.0803 C   0  0  0  0  0  0  0  0  0  0  0  0
    6.8166  -11.2478   26.3948 C   0  0  0  0  0  0  0  0  0  0  0  0
    8.1217  -11.5808   26.6852 C   0  0  0  0  0  0  0  0  0  0  0  0
    8.5259  -12.9058   26.6556 C   0  0  0  0  0  0  0  0  0  0  0  0
    7.6826  -13.9395   26.3465 C   0  0  0  0  0  0  0  0  0  0  0  0
   11.1877  -17.0422   25.5794 O   0  0  0  0  0  0  0  0  0  0  0  0
   11.5430  -17.9881   24.8375 O   0  0  0  0  0  0  0  0  0  0  0  0
  2  1  1  1
  3  2  1  0
  4  2  1  0
  4  5  2  0
  7  6  1  0
  8  7  2  0
  9  7  1  0
 10 11  1  0
 10  9  1  0
 11 12  1  0
 13 12  1  1
 13 14  1  0
 14  4  1  0
 15 13  1  0
 16 15  2  0
 17 15  1  0
 18 29  1  0
 18 17  1  0
 18 19  1  6
 20 19  1  0
 21 20  2  0
 22 21  1  0
 23 22  1  0
 23 28  2  0
 24 23  1  0
 25 24  2  0
 25 26  1  0
 26 27  2  0
 27 28  1  0
 28 20  1  0
 29 31  1  0
 30 29  2  0
M  END
$$$$
