ARW.pdb
     RDKit          3D

 31 32  0  0  1  0  0  0  0  0999 V2000
    6.7735  -12.7571   19.0500 C   0  0  0  0  0  0  0  0  0  0  0  0
    8.1643  -13.0854   19.5385 C   0  0  2  0  0  0  0  0  0  0  0  0
    8.9264  -13.5640   18.4107 N   0  0  0  0  0  0  0  0  0  0  0  0
    8.0652  -14.1410   20.5759 C   0  0  0  0  0  0  0  0  0  0  0  0
    7.3340  -14.0486   21.5770 O   0  0  0  0  0  0  0  0  0  0  0  0
    8.8248  -18.0753   16.1420 N   0  0  0  0  0  0  0  0  0  0  0  0
   10.1642  -18.1973   16.5562 C   0  0  0  0  0  0  0  0  0  0  0  0
   11.1226  -17.8339   15.7814 N   0  0  0  0  0  0  0  0  0  0  0  0
   10.4383  -18.7288   17.8454 N   0  0  0  0  0  0  0  0  0  0  0  0
    9.4047  -19.1380   18.7527 C   0  0  0  0  0  0  0  0  0  0  0  0
    8.7556  -17.9348   19.3921 C   0  0  0  0  0  0  0  0  0  0  0  0
    9.4628  -17.6182   20.6747 C   0  0  0  0  0  0  0  0  0  0  0  0
    8.8268  -16.4089   21.3756 C   0  0  2  0  0  0  0  0  0  0  0  0
    8.8367  -15.3255   20.4382 N   0  0  0  0  0  0  0  0  0  0  0  0
    9.4513  -16.1380   22.6669 C   0  0  0  0  0  0  0  0  0  0  0  0
   10.5120  -15.4443   22.6596 O   0  0  0  0  0  0  0  0  0  0  0  0
   12.1205  -17.9723   16.0150 N   0  0  0  0  0  0  0  0  0  0  0  0
    8.9917  -16.5734   23.9377 C   0  0  1  0  0  0  0  0  0  0  0  0
    9.7607  -16.3450   25.1595 C   0  0  0  0  0  0  0  0  0  0  0  0
    8.8585  -16.2525   26.3508 C   0  0  0  0  0  0  0  0  0  0  0  0
    7.6957  -15.3559   26.1925 C   0  0  0  0  0  0  0  0  0  0  0  0
    6.4299  -15.7687   25.7396 N   0  0  0  0  0  0  0  0  0  0  0  0
    5.6133  -14.7163   25.7536 C   0  0  0  0  0  0  0  0  0  0  0  0
    6.2520  -13.6246   26.1864 C   0  0  0  0  0  0  0  0  0  0  0  0
    5.8485  -12.3083   26.3678 C   0  0  0  0  0  0  0  0  0  0  0  0
    6.7138  -11.3413   26.8239 C   0  0  0  0  0  0  0  0  0  0  0  0
    8.0088  -11.7241   27.0978 C   0  0  0  0  0  0  0  0  0  0  0  0
    8.4002  -13.0404   26.9133 C   0  0  0  0  0  0  0  0  0  0  0  0
    7.5535  -14.0173   26.4618 C   0  0  0  0  0  0  0  0  0  0  0  0
   10.8311  -17.3369   25.2287 O   0  0  0  0  0  0  0  0  0  0  0  0
   10.9768  -18.3270   24.4738 O   0  0  0  0  0  0  0  0  0  0  0  0
  2  1  1  6
  3  2  1  0
  4  2  1  0
  4  5  2  0
  7  6  1  0
  8  7  2  0
  9  7  1  0
 10 11  1  0
 10  9  1  0
 11 12  1  0
 13 12  1  6
 13 14  1  0
 14  4  1  0
 15 13  1  0
 16 15  2  0
 17 15  1  0
 18 29  1  0
 18 17  1  0
 18 19  1  1
 20 19  1  0
 21 20  2  0
 22 21  1  0
 23 22  1  0
 23 28  2  0
 24 23  1  0
 25 24  2  0
 25 26  1  0
 26 27  2  0
 27 28  1  0
 28 20  1  0
 29 31  1  0
 30 29  2  0
M  END
$$$$
