ARW.pdb
     RDKit          3D

 31 32  0  0  1  0  0  0  0  0999 V2000
   11.3015  -20.2345   18.1659 C   0  0  0  0  0  0  0  0  0  0  0  0
   10.7778  -20.0173   19.5657 C   0  0  2  0  0  0  0  0  0  0  0  0
    9.4059  -20.4632   19.5975 N   0  0  0  0  0  0  0  0  0  0  0  0
   10.8542  -18.5698   19.8809 C   0  0  0  0  0  0  0  0  0  0  0  0
   11.9221  -17.9346   19.9203 O   0  0  0  0  0  0  0  0  0  0  0  0
    7.0439  -12.7613   16.0116 N   0  0  0  0  0  0  0  0  0  0  0  0
    8.0661  -13.7178   16.1547 C   0  0  0  0  0  0  0  0  0  0  0  0
    8.6795  -14.1768   15.1232 N   0  0  0  0  0  0  0  0  0  0  0  0
    8.4082  -14.1670   17.4589 N   0  0  0  0  0  0  0  0  0  0  0  0
    7.7295  -13.7141   18.6392 C   0  0  0  0  0  0  0  0  0  0  0  0
    8.2787  -14.4056   19.8632 C   0  0  0  0  0  0  0  0  0  0  0  0
    8.5002  -15.8544   19.5515 C   0  0  0  0  0  0  0  0  0  0  0  0
    9.6045  -16.4503   20.4367 C   0  0  2  0  0  0  0  0  0  0  0  0
    9.6585  -17.8541   20.1551 N   0  0  0  0  0  0  0  0  0  0  0  0
    9.4305  -16.0898   21.8405 C   0  0  0  0  0  0  0  0  0  0  0  0
    8.3114  -15.5971   22.1742 O   0  0  0  0  0  0  0  0  0  0  0  0
    9.4609  -14.8514   15.1850 N   0  0  0  0  0  0  0  0  0  0  0  0
   10.3899  -16.2343   22.8769 C   0  0  1  0  0  0  0  0  0  0  0  0
   10.1345  -15.7699   24.2392 C   0  0  0  0  0  0  0  0  0  0  0  0
    9.5710  -14.3828   24.2355 C   0  0  0  0  0  0  0  0  0  0  0  0
    8.3005  -14.2168   24.9698 C   0  0  0  0  0  0  0  0  0  0  0  0
    7.3723  -15.2489   25.1952 N   0  0  0  0  0  0  0  0  0  0  0  0
    6.3652  -14.7600   25.9174 C   0  0  0  0  0  0  0  0  0  0  0  0
    6.5596  -13.4656   26.1892 C   0  0  0  0  0  0  0  0  0  0  0  0
    5.8093  -12.5276   26.8859 C   0  0  0  0  0  0  0  0  0  0  0  0
    6.2243  -11.2232   27.0212 C   0  0  0  0  0  0  0  0  0  0  0  0
    7.4217  -10.8724   26.4364 C   0  0  0  0  0  0  0  0  0  0  0  0
    8.1621  -11.8169   25.7438 C   0  0  0  0  0  0  0  0  0  0  0  0
    7.7666  -13.1200   25.5995 C   0  0  0  0  0  0  0  0  0  0  0  0
    9.3550  -16.7876   24.9400 O   0  0  0  0  0  0  0  0  0  0  0  0
    8.4963  -17.5467   24.4321 O   0  0  0  0  0  0  0  0  0  0  0  0
  2  1  1  6
  3  2  1  0
  4  2  1  0
  4  5  2  0
  7  6  1  0
  8  7  2  0
  9  7  1  0
 10 11  1  0
 10  9  1  0
 11 12  1  0
 13 12  1  6
 13 14  1  0
 14  4  1  0
 15 13  1  0
 16 15  2  0
 17 15  1  0
 18 29  1  0
 18 17  1  0
 18 19  1  1
 20 19  1  0
 21 20  2  0
 22 21  1  0
 23 22  1  0
 23 28  2  0
 24 23  1  0
 25 24  2  0
 25 26  1  0
 26 27  2  0
 27 28  1  0
 28 20  1  0
 29 31  1  0
 30 29  2  0
M  END
$$$$
