ARW.pdb
     RDKit          3D

 31 32  0  0  1  0  0  0  0  0999 V2000
   10.0053  -20.4692   19.5736 C   0  0  0  0  0  0  0  0  0  0  0  0
   10.1876  -19.1459   18.8690 C   0  0  2  0  0  0  0  0  0  0  0  0
   11.4046  -19.2209   18.0975 N   0  0  0  0  0  0  0  0  0  0  0  0
   10.2930  -18.0756   19.8907 C   0  0  0  0  0  0  0  0  0  0  0  0
   11.3016  -17.9018   20.5965 O   0  0  0  0  0  0  0  0  0  0  0  0
    8.7602  -12.2044   16.6802 N   0  0  0  0  0  0  0  0  0  0  0  0
    8.1336  -13.4330   16.4001 C   0  0  0  0  0  0  0  0  0  0  0  0
    8.4650  -14.1127   15.3613 N   0  0  0  0  0  0  0  0  0  0  0  0
    7.1288  -13.9086   17.2853 N   0  0  0  0  0  0  0  0  0  0  0  0
    7.2853  -13.9053   18.7116 C   0  0  0  0  0  0  0  0  0  0  0  0
    8.1765  -15.0423   19.1484 C   0  0  0  0  0  0  0  0  0  0  0  0
    8.2160  -15.0887   20.6457 C   0  0  0  0  0  0  0  0  0  0  0  0
    9.1214  -16.2253   21.1423 C   0  0  2  0  0  0  0  0  0  0  0  0
    9.1976  -17.1938   20.0892 N   0  0  0  0  0  0  0  0  0  0  0  0
    8.6942  -16.7325   22.4427 C   0  0  0  0  0  0  0  0  0  0  0  0
    7.4890  -17.1108   22.5459 O   0  0  0  0  0  0  0  0  0  0  0  0
    8.0598  -15.0379   15.1393 N   0  0  0  0  0  0  0  0  0  0  0  0
    9.4929  -16.8466   23.6109 C   0  0  1  0  0  0  0  0  0  0  0  0
    9.5202  -15.8044   24.6355 C   0  0  0  0  0  0  0  0  0  0  0  0
    8.1325  -15.4180   25.0436 C   0  0  0  0  0  0  0  0  0  0  0  0
    8.0487  -14.4716   26.1743 C   0  0  0  0  0  0  0  0  0  0  0  0
    8.7210  -14.6349   27.3986 N   0  0  0  0  0  0  0  0  0  0  0  0
    8.4515  -13.5835   28.1711 C   0  0  0  0  0  0  0  0  0  0  0  0
    7.6406  -12.7268   27.5420 C   0  0  0  0  0  0  0  0  0  0  0  0
    7.0772  -11.5150   27.9194 C   0  0  0  0  0  0  0  0  0  0  0  0
    6.2454  -10.8102   27.0807 C   0  0  0  0  0  0  0  0  0  0  0  0
    5.9855  -11.3508   25.8403 C   0  0  0  0  0  0  0  0  0  0  0  0
    6.5536  -12.5605   25.4744 C   0  0  0  0  0  0  0  0  0  0  0  0
    7.3848  -13.2761   26.2943 C   0  0  0  0  0  0  0  0  0  0  0  0
   10.4201  -16.2270   25.7061 O   0  0  0  0  0  0  0  0  0  0  0  0
   10.3000  -15.9625   26.9256 O   0  0  0  0  0  0  0  0  0  0  0  0
  2  1  1  1
  3  2  1  0
  4  2  1  0
  4  5  2  0
  7  6  1  0
  8  7  2  0
  9  7  1  0
 10 11  1  0
 10  9  1  0
 11 12  1  0
 13 12  1  6
 13 14  1  0
 14  4  1  0
 15 13  1  0
 16 15  2  0
 17 15  1  0
 18 29  1  0
 18 17  1  0
 18 19  1  6
 20 19  1  0
 21 20  2  0
 22 21  1  0
 23 22  1  0
 23 28  2  0
 24 23  1  0
 25 24  2  0
 25 26  1  0
 26 27  2  0
 27 28  1  0
 28 20  1  0
 29 31  1  0
 30 29  2  0
M  END
$$$$
