ARW.pdb
     RDKit          3D

 31 32  0  0  1  0  0  0  0  0999 V2000
    8.7985  -21.4924   22.4397 C   0  0  0  0  0  0  0  0  0  0  0  0
    8.9683  -20.8356   21.0904 C   0  0  2  0  0  0  0  0  0  0  0  0
    9.8980  -21.6316   20.3262 N   0  0  0  0  0  0  0  0  0  0  0  0
    9.5086  -19.4691   21.2931 C   0  0  0  0  0  0  0  0  0  0  0  0
   10.7240  -19.2197   21.3717 O   0  0  0  0  0  0  0  0  0  0  0  0
    8.4105  -11.7339   18.8707 N   0  0  0  0  0  0  0  0  0  0  0  0
    8.0855  -12.9718   18.2858 C   0  0  0  0  0  0  0  0  0  0  0  0
    8.3392  -13.1946   17.0461 N   0  0  0  0  0  0  0  0  0  0  0  0
    7.4723  -13.9708   19.0894 N   0  0  0  0  0  0  0  0  0  0  0  0
    7.2747  -13.8178   20.5023 C   0  0  0  0  0  0  0  0  0  0  0  0
    8.2544  -14.6724   21.2689 C   0  0  0  0  0  0  0  0  0  0  0  0
    8.0427  -16.1104   20.9043 C   0  0  0  0  0  0  0  0  0  0  0  0
    9.0091  -17.0255   21.6702 C   0  0  2  0  0  0  0  0  0  0  0  0
    8.6092  -18.3757   21.4060 N   0  0  0  0  0  0  0  0  0  0  0  0
    9.1073  -16.6558   23.0790 C   0  0  0  0  0  0  0  0  0  0  0  0
    8.0997  -16.0878   23.5971 O   0  0  0  0  0  0  0  0  0  0  0  0
    8.1146  -14.0878   16.5757 N   0  0  0  0  0  0  0  0  0  0  0  0
   10.2206  -16.8672   23.9342 C   0  0  1  0  0  0  0  0  0  0  0  0
   10.3178  -16.2370   25.2495 C   0  0  0  0  0  0  0  0  0  0  0  0
    9.8267  -14.8234   25.2037 C   0  0  0  0  0  0  0  0  0  0  0  0
    8.4284  -14.6277   25.6369 C   0  0  0  0  0  0  0  0  0  0  0  0
    7.4714  -15.6547   25.7203 N   0  0  0  0  0  0  0  0  0  0  0  0
    6.3337  -15.1346   26.1786 C   0  0  0  0  0  0  0  0  0  0  0  0
    6.4679  -13.8242   26.4067 C   0  0  0  0  0  0  0  0  0  0  0  0
    5.5875  -12.8545   26.8679 C   0  0  0  0  0  0  0  0  0  0  0  0
    5.9665  -11.5399   27.0095 C   0  0  0  0  0  0  0  0  0  0  0  0
    7.2622  -11.2116   26.6749 C   0  0  0  0  0  0  0  0  0  0  0  0
    8.1321  -12.1876   26.2159 C   0  0  0  0  0  0  0  0  0  0  0  0
    7.7741  -13.5012   26.0697 C   0  0  0  0  0  0  0  0  0  0  0  0
    9.6881  -17.1137   26.2340 O   0  0  0  0  0  0  0  0  0  0  0  0
    8.8187  -17.9868   26.0033 O   0  0  0  0  0  0  0  0  0  0  0  0
  2  1  1  1
  3  2  1  0
  4  2  1  0
  4  5  2  0
  7  6  1  0
  8  7  2  0
  9  7  1  0
 10 11  1  0
 10  9  1  0
 11 12  1  0
 13 12  1  6
 13 14  1  0
 14  4  1  0
 15 13  1  0
 16 15  2  0
 17 15  1  0
 18 29  1  0
 18 17  1  0
 18 19  1  6
 20 19  1  0
 21 20  2  0
 22 21  1  0
 23 22  1  0
 23 28  2  0
 24 23  1  0
 25 24  2  0
 25 26  1  0
 26 27  2  0
 27 28  1  0
 28 20  1  0
 29 31  1  0
 30 29  2  0
M  END
$$$$
