ARW.pdb
     RDKit          3D

 31 32  0  0  1  0  0  0  0  0999 V2000
    8.0572  -12.3809   19.3820 C   0  0  0  0  0  0  0  0  0  0  0  0
    7.8674  -13.7526   18.7792 C   0  0  2  0  0  0  0  0  0  0  0  0
    6.4988  -13.8527   18.3330 N   0  0  0  0  0  0  0  0  0  0  0  0
    8.1427  -14.7708   19.8221 C   0  0  0  0  0  0  0  0  0  0  0  0
    7.3348  -15.0649   20.7200 O   0  0  0  0  0  0  0  0  0  0  0  0
   13.2572  -21.4825   20.6544 N   0  0  0  0  0  0  0  0  0  0  0  0
   12.9536  -20.9206   19.4004 C   0  0  0  0  0  0  0  0  0  0  0  0
   13.6495  -21.2238   18.3637 N   0  0  0  0  0  0  0  0  0  0  0  0
   11.8647  -20.0129   19.3004 N   0  0  0  0  0  0  0  0  0  0  0  0
   10.9407  -19.7870   20.3747 C   0  0  0  0  0  0  0  0  0  0  0  0
   11.2178  -18.4612   21.0404 C   0  0  0  0  0  0  0  0  0  0  0  0
   10.8051  -17.3531   20.1200 C   0  0  0  0  0  0  0  0  0  0  0  0
    9.7807  -16.4265   20.7910 C   0  0  2  0  0  0  0  0  0  0  0  0
    9.3866  -15.4562   19.8132 N   0  0  0  0  0  0  0  0  0  0  0  0
   10.2778  -15.8901   22.0543 C   0  0  0  0  0  0  0  0  0  0  0  0
   10.7552  -14.7162   22.0337 O   0  0  0  0  0  0  0  0  0  0  0  0
   13.4260  -20.8809   17.4139 N   0  0  0  0  0  0  0  0  0  0  0  0
   10.2823  -16.5504   23.3111 C   0  0  1  0  0  0  0  0  0  0  0  0
    9.9526  -15.8541   24.5533 C   0  0  0  0  0  0  0  0  0  0  0  0
    8.6568  -15.1150   24.4252 C   0  0  0  0  0  0  0  0  0  0  0  0
    8.2182  -14.3971   25.6391 C   0  0  0  0  0  0  0  0  0  0  0  0
    8.5414  -14.7846   26.9518 N   0  0  0  0  0  0  0  0  0  0  0  0
    8.0156  -13.8971   27.7948 C   0  0  0  0  0  0  0  0  0  0  0  0
    7.3602  -12.9402   27.1301 C   0  0  0  0  0  0  0  0  0  0  0  0
    6.6503  -11.8222   27.5475 C   0  0  0  0  0  0  0  0  0  0  0  0
    6.0399  -10.9753   26.6519 C   0  0  0  0  0  0  0  0  0  0  0  0
    6.1558  -11.2750   25.3120 C   0  0  0  0  0  0  0  0  0  0  0  0
    6.8668  -12.3933   24.9071 C   0  0  0  0  0  0  0  0  0  0  0  0
    7.4825  -13.2471   25.7829 C   0  0  0  0  0  0  0  0  0  0  0  0
   10.0550  -16.8020   25.6603 O   0  0  0  0  0  0  0  0  0  0  0  0
   10.6131  -16.5982   26.7641 O   0  0  0  0  0  0  0  0  0  0  0  0
  2  1  1  1
  3  2  1  0
  4  2  1  0
  4  5  2  0
  7  6  1  0
  8  7  2  0
  9  7  1  0
 10 11  1  0
 10  9  1  0
 11 12  1  0
 13 12  1  6
 13 14  1  0
 14  4  1  0
 15 13  1  0
 16 15  2  0
 17 15  1  0
 18 29  1  0
 18 17  1  0
 18 19  1  6
 20 19  1  0
 21 20  2  0
 22 21  1  0
 23 22  1  0
 23 28  2  0
 24 23  1  0
 25 24  2  0
 25 26  1  0
 26 27  2  0
 27 28  1  0
 28 20  1  0
 29 31  1  0
 30 29  2  0
M  END
$$$$
