ARW.pdb
     RDKit          3D

 31 32  0  0  1  0  0  0  0  0999 V2000
    7.9557  -12.1326   19.8349 C   0  0  0  0  0  0  0  0  0  0  0  0
    7.8899  -13.5217   19.2460 C   0  0  2  0  0  0  0  0  0  0  0  0
    6.6161  -13.6596   18.5823 N   0  0  0  0  0  0  0  0  0  0  0  0
    8.0042  -14.5091   20.3471 C   0  0  0  0  0  0  0  0  0  0  0  0
    7.0278  -14.9304   20.9911 O   0  0  0  0  0  0  0  0  0  0  0  0
    9.3878  -21.8559   20.7755 N   0  0  0  0  0  0  0  0  0  0  0  0
   10.5760  -21.8845   21.5290 C   0  0  0  0  0  0  0  0  0  0  0  0
   11.0215  -22.9925   22.0033 N   0  0  0  0  0  0  0  0  0  0  0  0
   11.2743  -20.6678   21.7561 N   0  0  0  0  0  0  0  0  0  0  0  0
   11.0797  -19.4982   20.9480 C   0  0  0  0  0  0  0  0  0  0  0  0
   10.3810  -18.4193   21.7388 C   0  0  0  0  0  0  0  0  0  0  0  0
   10.1594  -17.2284   20.8566 C   0  0  0  0  0  0  0  0  0  0  0  0
    9.5052  -16.0763   21.6330 C   0  0  2  0  0  0  0  0  0  0  0  0
    9.2848  -15.0114   20.7001 N   0  0  0  0  0  0  0  0  0  0  0  0
   10.2646  -15.7262   22.8295 C   0  0  0  0  0  0  0  0  0  0  0  0
   11.5104  -15.9590   22.8097 O   0  0  0  0  0  0  0  0  0  0  0  0
   11.9038  -23.0632   22.5383 N   0  0  0  0  0  0  0  0  0  0  0  0
    9.7501  -15.1490   24.0201 C   0  0  2  0  0  0  0  0  0  0  0  0
    9.7060  -15.8856   25.2819 C   0  0  0  0  0  0  0  0  0  0  0  0
    8.3176  -16.3632   25.5750 C   0  0  0  0  0  0  0  0  0  0  0  0
    7.3264  -15.2991   25.8330 C   0  0  0  0  0  0  0  0  0  0  0  0
    5.9344  -15.4978   25.8527 N   0  0  0  0  0  0  0  0  0  0  0  0
    5.3474  -14.3395   26.1505 C   0  0  0  0  0  0  0  0  0  0  0  0
    6.2580  -13.3776   26.3307 C   0  0  0  0  0  0  0  0  0  0  0  0
    6.1522  -12.0280   26.6403 C   0  0  0  0  0  0  0  0  0  0  0  0
    7.2611  -11.2236   26.7629 C   0  0  0  0  0  0  0  0  0  0  0  0
    8.4945  -11.8055   26.5663 C   0  0  0  0  0  0  0  0  0  0  0  0
    8.5880  -13.1532   26.2581 C   0  0  0  0  0  0  0  0  0  0  0  0
    7.4964  -13.9704   26.1331 C   0  0  0  0  0  0  0  0  0  0  0  0
   10.7546  -16.9027   25.2647 O   0  0  0  0  0  0  0  0  0  0  0  0
   11.0030  -17.6982   24.3282 O   0  0  0  0  0  0  0  0  0  0  0  0
  2  1  1  1
  3  2  1  0
  4  2  1  0
  4  5  2  0
  7  6  1  0
  8  7  2  0
  9  7  1  0
 10 11  1  0
 10  9  1  0
 11 12  1  0
 13 12  1  6
 13 14  1  0
 14  4  1  0
 15 13  1  0
 16 15  2  0
 17 15  1  0
 18 29  1  0
 18 17  1  0
 18 19  1  6
 20 19  1  0
 21 20  2  0
 22 21  1  0
 23 22  1  0
 23 28  2  0
 24 23  1  0
 25 24  2  0
 25 26  1  0
 26 27  2  0
 27 28  1  0
 28 20  1  0
 29 31  1  0
 30 29  2  0
M  END
$$$$
