ARW.pdb
     RDKit          3D

 31 32  0  0  1  0  0  0  0  0999 V2000
    8.0855  -12.3058   20.2862 C   0  0  0  0  0  0  0  0  0  0  0  0
    8.2762  -13.5561   19.4607 C   0  0  2  0  0  0  0  0  0  0  0  0
    7.3634  -13.4915   18.3451 N   0  0  0  0  0  0  0  0  0  0  0  0
    7.9688  -14.7345   20.3075 C   0  0  0  0  0  0  0  0  0  0  0  0
    6.8112  -15.1019   20.5728 O   0  0  0  0  0  0  0  0  0  0  0  0
   10.4251  -16.8218   16.5408 N   0  0  0  0  0  0  0  0  0  0  0  0
   11.7567  -17.1703   16.8336 C   0  0  0  0  0  0  0  0  0  0  0  0
   12.7123  -16.8090   16.0544 N   0  0  0  0  0  0  0  0  0  0  0  0
   12.0261  -17.9281   18.0053 N   0  0  0  0  0  0  0  0  0  0  0  0
   10.9910  -18.4024   18.8785 C   0  0  0  0  0  0  0  0  0  0  0  0
   10.4879  -17.2842   19.7584 C   0  0  0  0  0  0  0  0  0  0  0  0
    9.4960  -17.8365   20.7364 C   0  0  0  0  0  0  0  0  0  0  0  0
    8.8668  -16.7185   21.5804 C   0  0  2  0  0  0  0  0  0  0  0  0
    9.0364  -15.4957   20.8534 N   0  0  0  0  0  0  0  0  0  0  0  0
    9.3733  -16.7197   22.9495 C   0  0  0  0  0  0  0  0  0  0  0  0
    9.5689  -17.8491   23.4904 O   0  0  0  0  0  0  0  0  0  0  0  0
   13.7106  -16.9618   16.2773 N   0  0  0  0  0  0  0  0  0  0  0  0
    9.6712  -15.5807   23.7430 C   0  0  1  0  0  0  0  0  0  0  0  0
   10.0505  -15.6945   25.1500 C   0  0  0  0  0  0  0  0  0  0  0  0
    8.8704  -16.0625   25.9948 C   0  0  0  0  0  0  0  0  0  0  0  0
    7.6836  -15.1992   25.8299 C   0  0  0  0  0  0  0  0  0  0  0  0
    6.4289  -15.6503   25.3826 N   0  0  0  0  0  0  0  0  0  0  0  0
    5.5841  -14.6202   25.3880 C   0  0  0  0  0  0  0  0  0  0  0  0
    6.1936  -13.5077   25.8099 C   0  0  0  0  0  0  0  0  0  0  0  0
    5.7548  -12.2012   25.9798 C   0  0  0  0  0  0  0  0  0  0  0  0
    6.5942  -11.2070   26.4256 C   0  0  0  0  0  0  0  0  0  0  0  0
    7.8994  -11.5520   26.7012 C   0  0  0  0  0  0  0  0  0  0  0  0
    8.3261  -12.8589   26.5283 C   0  0  0  0  0  0  0  0  0  0  0  0
    7.5056  -13.8625   26.0870 C   0  0  0  0  0  0  0  0  0  0  0  0
   11.2191  -16.5657   25.2486 O   0  0  0  0  0  0  0  0  0  0  0  0
   11.6864  -17.2884   24.3371 O   0  0  0  0  0  0  0  0  0  0  0  0
  2  1  1  1
  3  2  1  0
  4  2  1  0
  4  5  2  0
  7  6  1  0
  8  7  2  0
  9  7  1  0
 10 11  1  0
 10  9  1  0
 11 12  1  0
 13 12  1  6
 13 14  1  0
 14  4  1  0
 15 13  1  0
 16 15  2  0
 17 15  1  0
 18 29  1  0
 18 17  1  0
 18 19  1  1
 20 19  1  0
 21 20  2  0
 22 21  1  0
 23 22  1  0
 23 28  2  0
 24 23  1  0
 25 24  2  0
 25 26  1  0
 26 27  2  0
 27 28  1  0
 28 20  1  0
 29 31  1  0
 30 29  2  0
M  END
$$$$
