ARW.pdb
     RDKit          3D

 31 32  0  0  1  0  0  0  0  0999 V2000
    7.0513  -20.3150   24.7543 C   0  0  0  0  0  0  0  0  0  0  0  0
    6.6707  -20.3303   23.2928 C   0  0  2  0  0  0  0  0  0  0  0  0
    6.9986  -21.6326   22.7652 N   0  0  0  0  0  0  0  0  0  0  0  0
    7.4485  -19.2811   22.5896 C   0  0  0  0  0  0  0  0  0  0  0  0
    8.6068  -19.4535   22.1725 O   0  0  0  0  0  0  0  0  0  0  0  0
    7.8837  -11.9451   19.1023 N   0  0  0  0  0  0  0  0  0  0  0  0
    8.3597  -13.0413   18.3592 C   0  0  0  0  0  0  0  0  0  0  0  0
    9.4202  -12.9324   17.6419 N   0  0  0  0  0  0  0  0  0  0  0  0
    7.6478  -14.2700   18.4158 N   0  0  0  0  0  0  0  0  0  0  0  0
    6.5930  -14.5137   19.3575 C   0  0  0  0  0  0  0  0  0  0  0  0
    7.1528  -14.6658   20.7508 C   0  0  0  0  0  0  0  0  0  0  0  0
    6.5120  -15.8481   21.4118 C   0  0  0  0  0  0  0  0  0  0  0  0
    7.5659  -16.8656   21.8725 C   0  0  2  0  0  0  0  0  0  0  0  0
    6.8590  -18.0075   22.3714 N   0  0  0  0  0  0  0  0  0  0  0  0
    8.5354  -16.2689   22.7862 C   0  0  0  0  0  0  0  0  0  0  0  0
    9.2543  -15.3298   22.3305 O   0  0  0  0  0  0  0  0  0  0  0  0
    9.8151  -13.7169   17.0958 N   0  0  0  0  0  0  0  0  0  0  0  0
    8.7584  -16.6333   24.1401 C   0  0  1  0  0  0  0  0  0  0  0  0
    9.7401  -15.9447   24.9760 C   0  0  0  0  0  0  0  0  0  0  0  0
    9.1338  -15.5252   26.2791 C   0  0  0  0  0  0  0  0  0  0  0  0
    7.8513  -14.8005   26.1730 C   0  0  0  0  0  0  0  0  0  0  0  0
    6.5967  -15.4214   26.0382 N   0  0  0  0  0  0  0  0  0  0  0  0
    5.6592  -14.4753   26.0080 C   0  0  0  0  0  0  0  0  0  0  0  0
    6.2065  -13.2602   26.1133 C   0  0  0  0  0  0  0  0  0  0  0  0
    5.6643  -11.9818   26.1226 C   0  0  0  0  0  0  0  0  0  0  0  0
    6.4536  -10.8607   26.2320 C   0  0  0  0  0  0  0  0  0  0  0  0
    7.8150  -11.0481   26.3328 C   0  0  0  0  0  0  0  0  0  0  0  0
    8.3448  -12.3284   26.3227 C   0  0  0  0  0  0  0  0  0  0  0  0
    7.5758  -13.4564   26.2161 C   0  0  0  0  0  0  0  0  0  0  0  0
   10.9451  -16.7672   25.0533 O   0  0  0  0  0  0  0  0  0  0  0  0
   11.0566  -17.9590   24.6808 O   0  0  0  0  0  0  0  0  0  0  0  0
  2  1  1  1
  3  2  1  0
  4  2  1  0
  4  5  2  0
  7  6  1  0
  8  7  2  0
  9  7  1  0
 10 11  1  0
 10  9  1  0
 11 12  1  0
 13 12  1  1
 13 14  1  0
 14  4  1  0
 15 13  1  0
 16 15  2  0
 17 15  1  0
 18 29  1  0
 18 17  1  0
 18 19  1  1
 20 19  1  0
 21 20  2  0
 22 21  1  0
 23 22  1  0
 23 28  2  0
 24 23  1  0
 25 24  2  0
 25 26  1  0
 26 27  2  0
 27 28  1  0
 28 20  1  0
 29 31  1  0
 30 29  2  0
M  END
$$$$
