GTP.pdb
     RDKit          3D

 19 19  0  0  1  0  0  0  0  0999 V2000
   16.3521  -11.9522  -17.3715 N   0  0  0  0  0  0  0  0  0  0  0  0
   16.5416  -10.6085  -16.9191 C   0  0  0  0  0  0  0  0  0  0  0  0
   17.8550  -10.4505  -16.2485 C   0  0  0  0  0  0  0  0  0  0  0  0
   18.2139  -11.2994  -15.4211 O   0  0  0  0  0  0  0  0  0  0  0  0
   21.2667  -10.6758  -17.2599 C   0  0  0  0  0  0  0  0  0  0  0  0
   21.0621   -9.2200  -16.8603 C   0  0  1  0  0  0  0  0  0  0  0  0
   20.6419   -8.4831  -17.9658 O   0  0  0  0  0  0  0  0  0  0  0  0
   19.9441   -9.1133  -15.8150 C   0  0  2  0  0  0  0  0  0  0  0  0
   18.7035   -9.3535  -16.5338 N   0  0  0  0  0  0  0  0  0  0  0  0
   19.9720   -7.7371  -15.2807 C   0  0  0  0  0  0  0  0  0  0  0  0
   19.2078   -6.8835  -15.8063 O   0  0  0  0  0  0  0  0  0  0  0  0
   20.8091   -7.3313  -14.2136 N   0  0  0  0  0  0  0  0  0  0  0  0
   21.7874   -8.1007  -13.4684 C   0  0  0  0  0  0  0  0  0  0  0  0
   21.7467   -7.5071  -12.0552 C   0  0  0  0  0  0  0  0  0  0  0  0
   20.8887   -6.2836  -12.1448 C   0  0  0  0  0  0  0  0  0  0  0  0
   20.8647   -6.0055  -13.6194 C   0  0  1  0  0  0  0  0  0  0  0  0
   22.1044   -5.2918  -13.9827 C   0  0  0  0  0  0  0  0  0  0  0  0
   23.0281   -5.9733  -14.7624 O   0  0  0  0  0  0  0  0  0  0  0  0
   22.3882   -4.1260  -13.6451 O   0  0  0  0  0  0  0  0  0  0  0  0
  1  2  1  0
  2  3  1  0
  3  4  2  0
  3  9  1  0
  6  5  1  6
  6  7  1  0
  8  6  1  0
  8  9  1  6
 10 11  2  0
 10  8  1  0
 12 10  1  0
 13 12  1  0
 14 15  1  0
 14 13  1  0
 15 16  1  0
 16 12  1  0
 16 17  1  6
 18 17  1  0
 19 17  2  0
M  END
$$$$
