GTP.pdb
     RDKit          3D

 19 19  0  0  1  0  0  0  0  0999 V2000
   16.0007  -10.2207  -16.8889 N   0  0  0  0  0  0  0  0  0  0  0  0
   16.6074  -10.9237  -15.8009 C   0  0  0  0  0  0  0  0  0  0  0  0
   18.0611  -10.6397  -15.7251 C   0  0  0  0  0  0  0  0  0  0  0  0
   18.7857  -11.3867  -15.0535 O   0  0  0  0  0  0  0  0  0  0  0  0
   21.9723   -8.3170  -17.5836 C   0  0  0  0  0  0  0  0  0  0  0  0
   20.5371   -8.8234  -17.6516 C   0  0  1  0  0  0  0  0  0  0  0  0
   20.4908  -10.0101  -18.3805 O   0  0  0  0  0  0  0  0  0  0  0  0
   20.0295   -9.1573  -16.2428 C   0  0  2  0  0  0  0  0  0  0  0  0
   18.6351   -9.5366  -16.4021 N   0  0  0  0  0  0  0  0  0  0  0  0
   20.1398   -7.9275  -15.4331 C   0  0  0  0  0  0  0  0  0  0  0  0
   19.3362   -6.9867  -15.6748 O   0  0  0  0  0  0  0  0  0  0  0  0
   21.0971   -7.7536  -14.4048 N   0  0  0  0  0  0  0  0  0  0  0  0
   22.2014   -8.6125  -14.0216 C   0  0  0  0  0  0  0  0  0  0  0  0
   22.3296   -8.4196  -12.5059 C   0  0  0  0  0  0  0  0  0  0  0  0
   21.4145   -7.2883  -12.1539 C   0  0  0  0  0  0  0  0  0  0  0  0
   21.1756   -6.6325  -13.4824 C   0  0  1  0  0  0  0  0  0  0  0  0
   22.3210   -5.7518  -13.7838 C   0  0  0  0  0  0  0  0  0  0  0  0
   22.4527   -4.5950  -13.0286 O   0  0  0  0  0  0  0  0  0  0  0  0
   23.1794   -5.9638  -14.6623 O   0  0  0  0  0  0  0  0  0  0  0  0
  1  2  1  0
  2  3  1  0
  3  4  2  0
  3  9  1  0
  6  5  1  1
  6  7  1  0
  8  6  1  0
  8  9  1  6
 10 11  2  0
 10  8  1  0
 12 10  1  0
 13 12  1  0
 14 15  1  0
 14 13  1  0
 15 16  1  0
 16 12  1  0
 16 17  1  6
 18 17  1  0
 19 17  2  0
M  END
$$$$
