GTP.pdb
     RDKit          3D

 19 19  0  0  1  0  0  0  0  0999 V2000
   14.3764  -10.4600  -10.2215 N   0  0  0  0  0  0  0  0  0  0  0  0
   15.1476   -9.2554  -10.2064 C   0  0  0  0  0  0  0  0  0  0  0  0
   16.0477   -9.1819  -11.3828 C   0  0  0  0  0  0  0  0  0  0  0  0
   16.3969  -10.2318  -11.9395 O   0  0  0  0  0  0  0  0  0  0  0  0
   17.6166   -6.9740  -15.3264 C   0  0  0  0  0  0  0  0  0  0  0  0
   16.6899   -7.1868  -14.1360 C   0  0  1  0  0  0  0  0  0  0  0  0
   15.6707   -8.0705  -14.4852 O   0  0  0  0  0  0  0  0  0  0  0  0
   17.4585   -7.8423  -12.9813 C   0  0  2  0  0  0  0  0  0  0  0  0
   16.5140   -7.9411  -11.8806 N   0  0  0  0  0  0  0  0  0  0  0  0
   18.5715   -6.9394  -12.6259 C   0  0  0  0  0  0  0  0  0  0  0  0
   18.3080   -5.9220  -11.9298 O   0  0  0  0  0  0  0  0  0  0  0  0
   19.9118   -7.1586  -13.0252 N   0  0  0  0  0  0  0  0  0  0  0  0
   20.4564   -8.1841  -13.8946 C   0  0  0  0  0  0  0  0  0  0  0  0
   21.8578   -8.4568  -13.3354 C   0  0  0  0  0  0  0  0  0  0  0  0
   22.1019   -7.4043  -12.2992 C   0  0  0  0  0  0  0  0  0  0  0  0
   21.0675   -6.3691  -12.6313 C   0  0  1  0  0  0  0  0  0  0  0  0
   21.5725   -5.5410  -13.7438 C   0  0  0  0  0  0  0  0  0  0  0  0
   22.5288   -4.5816  -13.4423 O   0  0  0  0  0  0  0  0  0  0  0  0
   21.2089   -5.6344  -14.9324 O   0  0  0  0  0  0  0  0  0  0  0  0
  1  2  1  0
  2  3  1  0
  3  4  2  0
  3  9  1  0
  6  5  1  6
  6  7  1  0
  8  6  1  0
  8  9  1  1
 10 11  2  0
 10  8  1  0
 12 10  1  0
 13 12  1  0
 14 15  1  0
 14 13  1  0
 15 16  1  0
 16 12  1  0
 16 17  1  6
 18 17  1  0
 19 17  2  0
M  END
$$$$
