GTP.pdb
     RDKit          3D

 19 19  0  0  1  0  0  0  0  0999 V2000
   21.9001  -27.7057  -11.8067 N   0  0  0  0  0  0  0  0  0  0  0  0
   21.6150  -27.0704  -13.0561 C   0  0  0  0  0  0  0  0  0  0  0  0
   22.1776  -25.6988  -13.0992 C   0  0  0  0  0  0  0  0  0  0  0  0
   21.9645  -24.9312  -12.1508 O   0  0  0  0  0  0  0  0  0  0  0  0
   25.2270  -22.5533  -15.4420 C   0  0  0  0  0  0  0  0  0  0  0  0
   24.5597  -23.9197  -15.3488 C   0  0  1  0  0  0  0  0  0  0  0  0
   25.4789  -24.8621  -14.8920 O   0  0  0  0  0  0  0  0  0  0  0  0
   23.4250  -23.8820  -14.3169 C   0  0  2  0  0  0  0  0  0  0  0  0
   22.9503  -25.2508  -14.1978 N   0  0  0  0  0  0  0  0  0  0  0  0
   22.3629  -23.0139  -14.8634 C   0  0  0  0  0  0  0  0  0  0  0  0
   21.6085  -23.4918  -15.7530 O   0  0  0  0  0  0  0  0  0  0  0  0
   22.1508  -21.6798  -14.4400 N   0  0  0  0  0  0  0  0  0  0  0  0
   22.9839  -20.8369  -13.6036 C   0  0  0  0  0  0  0  0  0  0  0  0
   21.9910  -19.9512  -12.8416 C   0  0  0  0  0  0  0  0  0  0  0  0
   20.6510  -20.2063  -13.4584 C   0  0  0  0  0  0  0  0  0  0  0  0
   21.0080  -20.8435  -14.7694 C   0  0  1  0  0  0  0  0  0  0  0  0
   21.3640  -19.7785  -15.7273 C   0  0  0  0  0  0  0  0  0  0  0  0
   20.3452  -18.9403  -16.1574 O   0  0  0  0  0  0  0  0  0  0  0  0
   22.5065  -19.5718  -16.1807 O   0  0  0  0  0  0  0  0  0  0  0  0
  1  2  1  0
  2  3  1  0
  3  4  2  0
  3  9  1  0
  6  5  1  1
  6  7  1  0
  8  6  1  0
  8  9  1  6
 10 11  2  0
 10  8  1  0
 12 10  1  0
 13 12  1  0
 14 15  1  0
 14 13  1  0
 15 16  1  0
 16 12  1  0
 16 17  1  6
 18 17  1  0
 19 17  2  0
M  END
$$$$
