GTP.pdb
     RDKit          3D

 19 19  0  0  1  0  0  0  0  0999 V2000
   12.2221  -18.2956    1.9013 N   0  0  0  0  0  0  0  0  0  0  0  0
   12.7037  -17.1839    2.6617 C   0  0  0  0  0  0  0  0  0  0  0  0
   14.1659  -17.2845    2.8885 C   0  0  0  0  0  0  0  0  0  0  0  0
   14.7549  -18.3245    2.5633 O   0  0  0  0  0  0  0  0  0  0  0  0
   18.2729  -14.8154    4.2453 C   0  0  0  0  0  0  0  0  0  0  0  0
   16.7532  -14.9027    4.1836 C   0  0  1  0  0  0  0  0  0  0  0  0
   16.2698  -14.0199    3.2199 O   0  0  0  0  0  0  0  0  0  0  0  0
   16.3241  -16.3078    3.7418 C   0  0  2  0  0  0  0  0  0  0  0  0
   14.8993  -16.2205    3.4670 N   0  0  0  0  0  0  0  0  0  0  0  0
   16.5754  -17.2206    4.8749 C   0  0  0  0  0  0  0  0  0  0  0  0
   15.7133  -17.2742    5.7930 O   0  0  0  0  0  0  0  0  0  0  0  0
   17.7293  -18.0339    4.9807 N   0  0  0  0  0  0  0  0  0  0  0  0
   18.8488  -18.1649    4.0676 C   0  0  0  0  0  0  0  0  0  0  0  0
   19.2922  -19.6256    4.2112 C   0  0  0  0  0  0  0  0  0  0  0  0
   18.5201  -20.1807    5.3674 C   0  0  0  0  0  0  0  0  0  0  0  0
   18.0447  -18.9430    6.0705 C   0  0  1  0  0  0  0  0  0  0  0  0
   19.1429  -18.4309    6.9132 C   0  0  0  0  0  0  0  0  0  0  0  0
   19.4085  -19.1069    8.0957 O   0  0  0  0  0  0  0  0  0  0  0  0
   19.8509  -17.4400    6.6478 O   0  0  0  0  0  0  0  0  0  0  0  0
  1  2  1  0
  2  3  1  0
  3  4  2  0
  3  9  1  0
  6  5  1  6
  6  7  1  0
  8  6  1  0
  8  9  1  1
 10 11  2  0
 10  8  1  0
 12 10  1  0
 13 12  1  0
 14 15  1  0
 14 13  1  0
 15 16  1  0
 16 12  1  0
 16 17  1  1
 18 17  1  0
 19 17  2  0
M  END
$$$$
