GTP.pdb
     RDKit          3D

 19 19  0  0  1  0  0  0  0  0999 V2000
   24.3366  -20.8350   -8.5929 N   0  0  0  0  0  0  0  0  0  0  0  0
   24.1934  -21.1478   -9.9813 C   0  0  0  0  0  0  0  0  0  0  0  0
   25.0957  -20.3147  -10.8129 C   0  0  0  0  0  0  0  0  0  0  0  0
   25.5539  -19.2664  -10.3383 O   0  0  0  0  0  0  0  0  0  0  0  0
   26.7755  -22.0063  -14.2471 C   0  0  0  0  0  0  0  0  0  0  0  0
   27.4124  -20.8641  -13.4658 C   0  0  1  0  0  0  0  0  0  0  0  0
   28.2449  -20.1264  -14.3052 O   0  0  0  0  0  0  0  0  0  0  0  0
   26.3291  -19.8984  -12.9681 C   0  0  2  0  0  0  0  0  0  0  0  0
   25.4425  -20.6917  -12.1328 N   0  0  0  0  0  0  0  0  0  0  0  0
   25.6078  -19.3978  -14.1553 C   0  0  0  0  0  0  0  0  0  0  0  0
   24.5798  -20.0240  -14.5297 O   0  0  0  0  0  0  0  0  0  0  0  0
   26.0106  -18.2563  -14.8892 N   0  0  0  0  0  0  0  0  0  0  0  0
   27.2685  -17.5350  -14.8507 C   0  0  0  0  0  0  0  0  0  0  0  0
   26.8839  -16.0775  -15.1313 C   0  0  0  0  0  0  0  0  0  0  0  0
   25.4398  -16.0991  -15.5252 C   0  0  0  0  0  0  0  0  0  0  0  0
   25.2152  -17.5413  -15.8741 C   0  0  1  0  0  0  0  0  0  0  0  0
   25.7027  -17.7732  -17.2477 C   0  0  0  0  0  0  0  0  0  0  0  0
   26.7578  -18.6601  -17.4093 O   0  0  0  0  0  0  0  0  0  0  0  0
   25.2427  -17.2363  -18.2743 O   0  0  0  0  0  0  0  0  0  0  0  0
  1  2  1  0
  2  3  1  0
  3  4  2  0
  3  9  1  0
  6  5  1  6
  6  7  1  0
  8  6  1  0
  8  9  1  1
 10 11  2  0
 10  8  1  0
 12 10  1  0
 13 12  1  0
 14 15  1  0
 14 13  1  0
 15 16  1  0
 16 12  1  0
 16 17  1  6
 18 17  1  0
 19 17  2  0
M  END
$$$$
