GTP.pdb
     RDKit          3D

 19 19  0  0  1  0  0  0  0  0999 V2000
   17.6583  -13.5027  -16.4608 N   0  0  0  0  0  0  0  0  0  0  0  0
   17.8061  -12.1270  -16.8238 C   0  0  0  0  0  0  0  0  0  0  0  0
   19.2047  -11.6714  -16.6342 C   0  0  0  0  0  0  0  0  0  0  0  0
   19.9252  -12.2642  -15.8196 O   0  0  0  0  0  0  0  0  0  0  0  0
   23.0226   -9.0191  -18.2379 C   0  0  0  0  0  0  0  0  0  0  0  0
   21.6395   -9.6279  -18.4316 C   0  0  1  0  0  0  0  0  0  0  0  0
   21.7453  -10.8171  -19.1502 O   0  0  0  0  0  0  0  0  0  0  0  0
   21.0301   -9.9932  -17.0718 C   0  0  2  0  0  0  0  0  0  0  0  0
   19.7309  -10.5770  -17.3623 N   0  0  0  0  0  0  0  0  0  0  0  0
   20.8725   -8.7384  -16.3097 C   0  0  0  0  0  0  0  0  0  0  0  0
   19.9454   -7.9540  -16.6479 O   0  0  0  0  0  0  0  0  0  0  0  0
   21.7055   -8.3749  -15.2243 N   0  0  0  0  0  0  0  0  0  0  0  0
   22.8883   -9.0389  -14.7102 C   0  0  0  0  0  0  0  0  0  0  0  0
   22.8608   -8.7591  -13.2029 C   0  0  0  0  0  0  0  0  0  0  0  0
   21.7638   -7.7637  -12.9867 C   0  0  0  0  0  0  0  0  0  0  0  0
   21.5421   -7.2134  -14.3651 C   0  0  1  0  0  0  0  0  0  0  0  0
   22.5670   -6.1850  -14.6303 C   0  0  0  0  0  0  0  0  0  0  0  0
   22.4820   -4.9995  -13.9138 O   0  0  0  0  0  0  0  0  0  0  0  0
   23.5027   -6.2959  -15.4462 O   0  0  0  0  0  0  0  0  0  0  0  0
  1  2  1  0
  2  3  1  0
  3  4  2  0
  3  9  1  0
  6  5  1  1
  6  7  1  0
  8  6  1  0
  8  9  1  6
 10 11  2  0
 10  8  1  0
 12 10  1  0
 13 12  1  0
 14 15  1  0
 14 13  1  0
 15 16  1  0
 16 12  1  0
 16 17  1  6
 18 17  1  0
 19 17  2  0
M  END
$$$$
