GTP.pdb
     RDKit          3D

 19 19  0  0  1  0  0  0  0  0999 V2000
   22.0553  -12.0046  -19.0888 N   0  0  0  0  0  0  0  0  0  0  0  0
   22.2586  -10.6046  -19.2999 C   0  0  0  0  0  0  0  0  0  0  0  0
   21.3478   -9.7981  -18.4516 C   0  0  0  0  0  0  0  0  0  0  0  0
   20.1867   -9.6001  -18.8347 O   0  0  0  0  0  0  0  0  0  0  0  0
   19.6297  -10.4778  -15.6413 C   0  0  0  0  0  0  0  0  0  0  0  0
   20.5398   -9.3462  -15.1808 C   0  0  1  0  0  0  0  0  0  0  0  0
   21.7354   -9.8719  -14.6951 O   0  0  0  0  0  0  0  0  0  0  0  0
   20.9091   -8.4505  -16.3704 C   0  0  2  0  0  0  0  0  0  0  0  0
   21.7767   -9.2522  -17.2176 N   0  0  0  0  0  0  0  0  0  0  0  0
   21.6441   -7.2879  -15.8334 C   0  0  0  0  0  0  0  0  0  0  0  0
   22.8939   -7.2532  -15.9942 O   0  0  0  0  0  0  0  0  0  0  0  0
   21.0188   -6.2164  -15.1516 N   0  0  0  0  0  0  0  0  0  0  0  0
   19.6201   -6.0329  -14.8134 C   0  0  0  0  0  0  0  0  0  0  0  0
   19.4053   -4.5162  -14.8789 C   0  0  0  0  0  0  0  0  0  0  0  0
   20.7649   -3.9124  -15.0459 C   0  0  0  0  0  0  0  0  0  0  0  0
   21.6750   -5.0298  -14.6270 C   0  0  1  0  0  0  0  0  0  0  0  0
   21.7480   -5.0482  -13.1530 C   0  0  0  0  0  0  0  0  0  0  0  0
   22.4196   -4.0034  -12.5341 O   0  0  0  0  0  0  0  0  0  0  0  0
   21.2546   -5.9270  -12.4196 O   0  0  0  0  0  0  0  0  0  0  0  0
  1  2  1  0
  2  3  1  0
  3  4  2  0
  3  9  1  0
  6  5  1  6
  6  7  1  0
  8  6  1  0
  8  9  1  6
 10 11  2  0
 10  8  1  0
 12 10  1  0
 13 12  1  0
 14 15  1  0
 14 13  1  0
 15 16  1  0
 16 12  1  0
 16 17  1  1
 18 17  1  0
 19 17  2  0
M  END
$$$$
