GTP.pdb
     RDKit          3D

 19 19  0  0  1  0  0  0  0  0999 V2000
   15.1398  -12.7662  -16.3112 N   0  0  0  0  0  0  0  0  0  0  0  0
   15.6877  -11.4856  -15.9856 C   0  0  0  0  0  0  0  0  0  0  0  0
   17.1690  -11.5039  -16.0575 C   0  0  0  0  0  0  0  0  0  0  0  0
   17.7759  -12.5230  -15.7008 O   0  0  0  0  0  0  0  0  0  0  0  0
   19.6269  -10.8714  -18.9101 C   0  0  0  0  0  0  0  0  0  0  0  0
   19.7902   -9.7890  -17.8505 C   0  0  1  0  0  0  0  0  0  0  0  0
   18.9526   -8.7143  -18.1426 O   0  0  0  0  0  0  0  0  0  0  0  0
   19.3522  -10.3231  -16.4806 C   0  0  2  0  0  0  0  0  0  0  0  0
   17.9004  -10.3848  -16.5236 N   0  0  0  0  0  0  0  0  0  0  0  0
   19.7967   -9.3469  -15.4659 C   0  0  0  0  0  0  0  0  0  0  0  0
   18.9278   -8.5924  -14.9511 O   0  0  0  0  0  0  0  0  0  0  0  0
   21.1419   -9.2173  -15.0445 N   0  0  0  0  0  0  0  0  0  0  0  0
   22.3326   -9.8696  -15.5554 C   0  0  0  0  0  0  0  0  0  0  0  0
   23.2386  -10.0300  -14.3288 C   0  0  0  0  0  0  0  0  0  0  0  0
   22.5830   -9.2581  -13.2263 C   0  0  0  0  0  0  0  0  0  0  0  0
   21.6292   -8.3688  -13.9690 C   0  0  1  0  0  0  0  0  0  0  0  0
   22.3766   -7.2045  -14.4831 C   0  0  0  0  0  0  0  0  0  0  0  0
   22.7848   -6.2506  -13.5616 O   0  0  0  0  0  0  0  0  0  0  0  0
   22.6706   -7.0095  -15.6786 O   0  0  0  0  0  0  0  0  0  0  0  0
  1  2  1  0
  2  3  1  0
  3  4  2  0
  3  9  1  0
  6  5  1  6
  6  7  1  0
  8  6  1  0
  8  9  1  6
 10 11  2  0
 10  8  1  0
 12 10  1  0
 13 12  1  0
 14 15  1  0
 14 13  1  0
 15 16  1  0
 16 12  1  0
 16 17  1  6
 18 17  1  0
 19 17  2  0
M  END
$$$$
