GTP.pdb
     RDKit          3D

 19 19  0  0  1  0  0  0  0  0999 V2000
   20.8296  -21.9065  -10.9772 N   0  0  0  0  0  0  0  0  0  0  0  0
   21.3861  -21.8340  -12.2929 C   0  0  0  0  0  0  0  0  0  0  0  0
   22.5647  -20.9342  -12.3260 C   0  0  0  0  0  0  0  0  0  0  0  0
   22.6573  -20.0329  -11.4815 O   0  0  0  0  0  0  0  0  0  0  0  0
   25.9507  -21.6028  -11.6284 C   0  0  0  0  0  0  0  0  0  0  0  0
   25.9559  -21.1429  -13.0808 C   0  0  1  0  0  0  0  0  0  0  0  0
   25.8085  -22.2430  -13.9232 O   0  0  0  0  0  0  0  0  0  0  0  0
   24.7548  -20.2263  -13.3469 C   0  0  2  0  0  0  0  0  0  0  0  0
   23.5819  -21.0838  -13.2994 N   0  0  0  0  0  0  0  0  0  0  0  0
   24.9252  -19.6606  -14.7002 C   0  0  0  0  0  0  0  0  0  0  0  0
   24.1417  -20.0514  -15.6070 O   0  0  0  0  0  0  0  0  0  0  0  0
   25.9184  -18.7064  -15.0276 N   0  0  0  0  0  0  0  0  0  0  0  0
   27.0399  -18.2378  -14.2360 C   0  0  0  0  0  0  0  0  0  0  0  0
   27.2221  -16.7747  -14.6571 C   0  0  0  0  0  0  0  0  0  0  0  0
   26.3152  -16.5656  -15.8296 C   0  0  0  0  0  0  0  0  0  0  0  0
   26.0251  -17.9687  -16.2759 C   0  0  1  0  0  0  0  0  0  0  0  0
   27.1547  -18.4423  -17.0994 C   0  0  0  0  0  0  0  0  0  0  0  0
   27.3960  -17.7785  -18.2940 O   0  0  0  0  0  0  0  0  0  0  0  0
   27.9092  -19.3906  -16.8079 O   0  0  0  0  0  0  0  0  0  0  0  0
  1  2  1  0
  2  3  1  0
  3  4  2  0
  3  9  1  0
  6  5  1  1
  6  7  1  0
  8  6  1  0
  8  9  1  6
 10 11  2  0
 10  8  1  0
 12 10  1  0
 13 12  1  0
 14 15  1  0
 14 13  1  0
 15 16  1  0
 16 12  1  0
 16 17  1  6
 18 17  1  0
 19 17  2  0
M  END
$$$$
