GTP.pdb
     RDKit          3D

 19 19  0  0  1  0  0  0  0  0999 V2000
   18.5953  -15.7378  -17.3305 N   0  0  0  0  0  0  0  0  0  0  0  0
   18.3813  -14.3437  -17.0923 C   0  0  0  0  0  0  0  0  0  0  0  0
   19.6675  -13.6303  -16.9017 C   0  0  0  0  0  0  0  0  0  0  0  0
   20.4410  -14.0118  -16.0128 O   0  0  0  0  0  0  0  0  0  0  0  0
   22.7128  -10.0606  -18.5697 C   0  0  0  0  0  0  0  0  0  0  0  0
   21.5330  -11.0047  -18.7635 C   0  0  1  0  0  0  0  0  0  0  0  0
   21.8795  -12.0127  -19.6611 O   0  0  0  0  0  0  0  0  0  0  0  0
   21.1916  -11.6993  -17.4388 C   0  0  2  0  0  0  0  0  0  0  0  0
   20.0278  -12.5264  -17.7120 N   0  0  0  0  0  0  0  0  0  0  0  0
   20.8558  -10.6433  -16.4629 C   0  0  0  0  0  0  0  0  0  0  0  0
   19.7139  -10.1142  -16.5342 O   0  0  0  0  0  0  0  0  0  0  0  0
   21.7470  -10.1987  -15.4569 N   0  0  0  0  0  0  0  0  0  0  0  0
   23.1350  -10.5564  -15.2343 C   0  0  0  0  0  0  0  0  0  0  0  0
   23.3087  -10.4916  -13.7122 C   0  0  0  0  0  0  0  0  0  0  0  0
   22.0475   -9.8881  -13.1771 C   0  0  0  0  0  0  0  0  0  0  0  0
   21.4440   -9.2525  -14.3953 C   0  0  1  0  0  0  0  0  0  0  0  0
   22.0988   -7.9486  -14.6176 C   0  0  0  0  0  0  0  0  0  0  0  0
   21.8297   -6.9359  -13.7078 O   0  0  0  0  0  0  0  0  0  0  0  0
   22.8742   -7.6843  -15.5571 O   0  0  0  0  0  0  0  0  0  0  0  0
  1  2  1  0
  2  3  1  0
  3  4  2  0
  3  9  1  0
  6  5  1  1
  6  7  1  0
  8  6  1  0
  8  9  1  6
 10 11  2  0
 10  8  1  0
 12 10  1  0
 13 12  1  0
 14 15  1  0
 14 13  1  0
 15 16  1  0
 16 12  1  0
 16 17  1  6
 18 17  1  0
 19 17  2  0
M  END
$$$$
