GTP.pdb
     RDKit          3D

 19 19  0  0  1  0  0  0  0  0999 V2000
   15.1907  -22.2645    1.5546 N   0  0  0  0  0  0  0  0  0  0  0  0
   14.8559  -21.1522    2.3894 C   0  0  0  0  0  0  0  0  0  0  0  0
   16.0737  -20.4324    2.8348 C   0  0  0  0  0  0  0  0  0  0  0  0
   17.1847  -20.9272    2.5998 O   0  0  0  0  0  0  0  0  0  0  0  0
   15.6259  -16.9412    5.2637 C   0  0  0  0  0  0  0  0  0  0  0  0
   16.7589  -17.0598    4.2522 C   0  0  1  0  0  0  0  0  0  0  0  0
   17.8877  -16.3969    4.7301 O   0  0  0  0  0  0  0  0  0  0  0  0
   17.1582  -18.5310    4.0791 C   0  0  2  0  0  0  0  0  0  0  0  0
   15.9927  -19.1962    3.5203 N   0  0  0  0  0  0  0  0  0  0  0  0
   17.4619  -19.0647    5.4220 C   0  0  0  0  0  0  0  0  0  0  0  0
   16.5378  -19.6506    6.0479 O   0  0  0  0  0  0  0  0  0  0  0  0
   18.7317  -18.9521    6.0375 N   0  0  0  0  0  0  0  0  0  0  0  0
   19.9288  -18.2857    5.5611 C   0  0  0  0  0  0  0  0  0  0  0  0
   21.0837  -19.1264    6.1183 C   0  0  0  0  0  0  0  0  0  0  0  0
   20.4628  -20.1077    7.0631 C   0  0  0  0  0  0  0  0  0  0  0  0
   19.1150  -19.5029    7.3273 C   0  0  1  0  0  0  0  0  0  0  0  0
   19.2653  -18.4509    8.3516 C   0  0  0  0  0  0  0  0  0  0  0  0
   19.0656  -17.1373    7.9514 O   0  0  0  0  0  0  0  0  0  0  0  0
   19.5572  -18.6480    9.5472 O   0  0  0  0  0  0  0  0  0  0  0  0
  1  2  1  0
  2  3  1  0
  3  4  2  0
  3  9  1  0
  6  5  1  1
  6  7  1  0
  8  6  1  0
  8  9  1  1
 10 11  2  0
 10  8  1  0
 12 10  1  0
 13 12  1  0
 14 15  1  0
 14 13  1  0
 15 16  1  0
 16 12  1  0
 16 17  1  1
 18 17  1  0
 19 17  2  0
M  END
$$$$
