LFQ.pdb
     RDKit          3D

 29 29  0  0  1  0  0  0  0  0999 V2000
    7.6614  -14.8349   17.1319 C   0  0  0  0  0  0  0  0  0  0  0  0
    7.7008  -13.8184   18.2467 C   0  0  2  0  0  0  0  0  0  0  0  0
    7.7985  -12.4513   17.5905 C   0  0  0  0  0  0  0  0  0  0  0  0
    8.8822  -13.9775   19.1421 C   0  0  0  0  0  0  0  0  0  0  0  0
    8.7960  -15.1973   20.0294 C   0  0  2  0  0  0  0  0  0  0  0  0
    7.5870  -15.9353   19.8502 N   0  0  0  0  0  0  0  0  0  0  0  0
    9.0684  -14.8309   21.4433 C   0  0  0  0  0  0  0  0  0  0  0  0
   10.2055  -14.3656   21.7002 O   0  0  0  0  0  0  0  0  0  0  0  0
    8.1157  -14.9852   22.4771 N   0  0  0  0  0  0  0  0  0  0  0  0
    8.3897  -14.5830   23.8363 C   0  0  1  0  0  0  0  0  0  0  0  0
    7.0902  -14.3002   24.5569 C   0  0  0  0  0  0  0  0  0  0  0  0
    7.3123  -13.6624   25.8758 C   0  0  0  0  0  0  0  0  0  0  0  0
    7.0133  -12.3294   26.0579 C   0  0  0  0  0  0  0  0  0  0  0  0
    7.2018  -11.6880   27.2672 C   0  0  0  0  0  0  0  0  0  0  0  0
    7.7053  -12.3891   28.3399 C   0  0  0  0  0  0  0  0  0  0  0  0
    8.0102  -13.7236   28.1768 C   0  0  0  0  0  0  0  0  0  0  0  0
    7.8152  -14.3523   26.9567 C   0  0  0  0  0  0  0  0  0  0  0  0
    9.0322  -15.7257   24.5822 C   0  0  0  0  0  0  0  0  0  0  0  0
    8.4008  -16.7993   24.5675 O   0  0  0  0  0  0  0  0  0  0  0  0
   15.1847  -15.9747   23.9232 N   0  0  0  0  0  0  0  0  0  0  0  0
   14.9871  -17.0321   24.8374 C   0  0  0  0  0  0  0  0  0  0  0  0
   15.9759  -17.7375   25.1578 O   0  0  0  0  0  0  0  0  0  0  0  0
   13.6400  -17.3304   25.4289 C   0  0  0  0  0  0  0  0  0  0  0  0
   12.6320  -16.3109   25.0293 C   0  0  0  0  0  0  0  0  0  0  0  0
   11.2411  -16.5355   25.5745 C   0  0  2  0  0  0  0  0  0  0  0  0
   10.2491  -15.5877   25.2422 N   0  0  0  0  0  0  0  0  0  0  0  0
   11.3022  -17.0261   26.9323 C   0  0  0  0  0  0  0  0  0  0  0  0
   12.0190  -17.9833   27.3244 O   0  0  0  0  0  0  0  0  0  0  0  0
   10.5209  -16.4195   27.9193 O   0  0  0  0  0  0  0  0  0  0  0  0
  2  4  1  0
  2  3  1  6
  2  1  1  0
  5  6  1  1
  5  4  1  0
  7  5  1  0
  8  7  2  0
  9  7  1  0
 10  9  1  0
 11 12  1  0
 10 11  1  1
 12 17  2  0
 13 12  1  0
 13 14  2  0
 14 15  1  0
 15 16  2  0
 17 16  1  0
 18 10  1  0
 18 26  1  0
 19 18  2  0
 21 22  2  0
 21 20  1  0
 23 21  1  0
 24 23  1  0
 25 24  1  1
 25 26  1  0
 27 29  1  0
 27 25  1  0
 28 27  2  0
M  END
$$$$
