LFQ.pdb
     RDKit          3D

 29 29  0  0  1  0  0  0  0  0999 V2000
    8.4290  -12.8023   18.5261 C   0  0  0  0  0  0  0  0  0  0  0  0
    8.0686  -13.6913   19.6912 C   0  0  2  0  0  0  0  0  0  0  0  0
    7.4853  -12.7900   20.7666 C   0  0  0  0  0  0  0  0  0  0  0  0
    9.2457  -14.3938   20.2772 C   0  0  0  0  0  0  0  0  0  0  0  0
    8.8891  -15.7087   20.9306 C   0  0  2  0  0  0  0  0  0  0  0  0
    7.6204  -16.2143   20.5144 N   0  0  0  0  0  0  0  0  0  0  0  0
    9.0395  -15.6129   22.4056 C   0  0  0  0  0  0  0  0  0  0  0  0
   10.1667  -15.2726   22.8404 O   0  0  0  0  0  0  0  0  0  0  0  0
    7.9846  -15.8849   23.3075 N   0  0  0  0  0  0  0  0  0  0  0  0
    8.1758  -15.8603   24.7383 C   0  0  1  0  0  0  0  0  0  0  0  0
    6.9010  -15.4090   25.4161 C   0  0  0  0  0  0  0  0  0  0  0  0
    6.9662  -13.9895   25.8358 C   0  0  0  0  0  0  0  0  0  0  0  0
    8.1801  -13.3391   25.8872 C   0  0  0  0  0  0  0  0  0  0  0  0
    8.2948  -12.0169   26.2716 C   0  0  0  0  0  0  0  0  0  0  0  0
    7.1671  -11.3075   26.6194 C   0  0  0  0  0  0  0  0  0  0  0  0
    5.9438  -11.9413   26.5742 C   0  0  0  0  0  0  0  0  0  0  0  0
    5.8460  -13.2686   26.1862 C   0  0  0  0  0  0  0  0  0  0  0  0
    8.4331  -17.2599   25.2383 C   0  0  0  0  0  0  0  0  0  0  0  0
    7.6944  -18.1438   24.7645 O   0  0  0  0  0  0  0  0  0  0  0  0
   13.9971  -18.2263   23.1441 N   0  0  0  0  0  0  0  0  0  0  0  0
   13.2252  -19.3484   23.5152 C   0  0  0  0  0  0  0  0  0  0  0  0
   13.1714  -20.3241   22.7258 O   0  0  0  0  0  0  0  0  0  0  0  0
   12.4758  -19.4033   24.8148 C   0  0  0  0  0  0  0  0  0  0  0  0
   11.3360  -18.4464   24.8270 C   0  0  0  0  0  0  0  0  0  0  0  0
   10.5363  -18.4171   26.1084 C   0  0  2  0  0  0  0  0  0  0  0  0
    9.4296  -17.5426   26.1670 N   0  0  0  0  0  0  0  0  0  0  0  0
   11.4123  -18.5022   27.2545 C   0  0  0  0  0  0  0  0  0  0  0  0
   12.0453  -17.5364   27.7548 O   0  0  0  0  0  0  0  0  0  0  0  0
   11.6003  -19.7336   27.8875 O   0  0  0  0  0  0  0  0  0  0  0  0
  2  4  1  0
  2  3  1  1
  2  1  1  0
  5  6  1  1
  5  4  1  0
  7  5  1  0
  8  7  2  0
  9  7  1  0
 10  9  1  0
 11 12  1  0
 10 11  1  1
 12 17  2  0
 13 12  1  0
 13 14  2  0
 14 15  1  0
 15 16  2  0
 17 16  1  0
 18 10  1  0
 18 26  1  0
 19 18  2  0
 21 22  2  0
 21 20  1  0
 23 21  1  0
 24 23  1  0
 25 24  1  6
 25 26  1  0
 27 29  1  0
 27 25  1  0
 28 27  2  0
M  END
$$$$
