LFQ.pdb
     RDKit          3D

 29 29  0  0  1  0  0  0  0  0999 V2000
    8.5271  -12.5818   18.6908 C   0  0  0  0  0  0  0  0  0  0  0  0
    8.1512  -13.6867   19.6477 C   0  0  2  0  0  0  0  0  0  0  0  0
    7.5438  -13.0200   20.8707 C   0  0  0  0  0  0  0  0  0  0  0  0
    9.3218  -14.4899   20.1030 C   0  0  0  0  0  0  0  0  0  0  0  0
    8.9375  -15.6520   20.9888 C   0  0  2  0  0  0  0  0  0  0  0  0
    7.5729  -16.0439   20.8370 N   0  0  0  0  0  0  0  0  0  0  0  0
    9.3288  -15.3831   22.3967 C   0  0  0  0  0  0  0  0  0  0  0  0
   10.5271  -15.5965   22.7034 O   0  0  0  0  0  0  0  0  0  0  0  0
    8.4212  -14.9087   23.3721 N   0  0  0  0  0  0  0  0  0  0  0  0
    8.5036  -15.3142   24.7552 C   0  0  1  0  0  0  0  0  0  0  0  0
    7.1611  -15.1209   25.4248 C   0  0  0  0  0  0  0  0  0  0  0  0
    6.9245  -13.7071   25.7999 C   0  0  0  0  0  0  0  0  0  0  0  0
    7.9204  -12.7703   25.6270 C   0  0  0  0  0  0  0  0  0  0  0  0
    7.7504  -11.4403   25.9606 C   0  0  0  0  0  0  0  0  0  0  0  0
    6.5500  -11.0169   26.4858 C   0  0  0  0  0  0  0  0  0  0  0  0
    5.5419  -11.9397   26.6659 C   0  0  0  0  0  0  0  0  0  0  0  0
    5.7287  -13.2707   26.3261 C   0  0  0  0  0  0  0  0  0  0  0  0
    8.7916  -16.7928   24.8326 C   0  0  0  0  0  0  0  0  0  0  0  0
    8.1769  -17.5032   24.0147 O   0  0  0  0  0  0  0  0  0  0  0  0
   12.2879  -18.8577   21.7568 N   0  0  0  0  0  0  0  0  0  0  0  0
   12.8275  -19.6011   22.8287 C   0  0  0  0  0  0  0  0  0  0  0  0
   13.4524  -20.6591   22.5673 O   0  0  0  0  0  0  0  0  0  0  0  0
   12.6745  -19.1633   24.2564 C   0  0  0  0  0  0  0  0  0  0  0  0
   11.6261  -18.1161   24.3954 C   0  0  0  0  0  0  0  0  0  0  0  0
   10.7346  -18.2574   25.6068 C   0  0  2  0  0  0  0  0  0  0  0  0
    9.6848  -17.3255   25.7567 N   0  0  0  0  0  0  0  0  0  0  0  0
   11.5134  -18.6152   26.7703 C   0  0  0  0  0  0  0  0  0  0  0  0
   11.9754  -19.7616   27.0073 O   0  0  0  0  0  0  0  0  0  0  0  0
   11.7996  -17.6435   27.7327 O   0  0  0  0  0  0  0  0  0  0  0  0
  2  4  1  0
  2  3  1  1
  2  1  1  0
  5  6  1  1
  5  4  1  0
  7  5  1  0
  8  7  2  0
  9  7  1  0
 10  9  1  0
 11 12  1  0
 10 11  1  1
 12 17  2  0
 13 12  1  0
 13 14  2  0
 14 15  1  0
 15 16  2  0
 17 16  1  0
 18 10  1  0
 18 26  1  0
 19 18  2  0
 21 22  2  0
 21 20  1  0
 23 21  1  0
 24 23  1  0
 25 24  1  6
 25 26  1  0
 27 29  1  0
 27 25  1  0
 28 27  2  0
M  END
$$$$
