LFQ.pdb
     RDKit          3D

 29 29  0  0  1  0  0  0  0  0999 V2000
    8.4876  -13.2614   16.9536 C   0  0  0  0  0  0  0  0  0  0  0  0
    8.0752  -13.8038   18.3003 C   0  0  2  0  0  0  0  0  0  0  0  0
    7.5248  -12.6316   19.0954 C   0  0  0  0  0  0  0  0  0  0  0  0
    9.2127  -14.3813   19.0717 C   0  0  0  0  0  0  0  0  0  0  0  0
    8.8101  -15.5510   19.9392 C   0  0  2  0  0  0  0  0  0  0  0  0
    7.5098  -16.0543   19.6317 N   0  0  0  0  0  0  0  0  0  0  0  0
    8.9988  -15.2210   21.3756 C   0  0  0  0  0  0  0  0  0  0  0  0
   10.1770  -15.0316   21.7645 O   0  0  0  0  0  0  0  0  0  0  0  0
    7.9251  -15.1168   22.2903 N   0  0  0  0  0  0  0  0  0  0  0  0
    8.1188  -14.6711   23.6497 C   0  0  1  0  0  0  0  0  0  0  0  0
    6.8605  -13.9971   24.1502 C   0  0  0  0  0  0  0  0  0  0  0  0
    7.0380  -13.4212   25.5039 C   0  0  0  0  0  0  0  0  0  0  0  0
    7.6534  -12.1979   25.6591 C   0  0  0  0  0  0  0  0  0  0  0  0
    7.8430  -11.6177   26.8988 C   0  0  0  0  0  0  0  0  0  0  0  0
    7.4084  -12.2701   28.0308 C   0  0  0  0  0  0  0  0  0  0  0  0
    6.7906  -13.4949   27.8952 C   0  0  0  0  0  0  0  0  0  0  0  0
    6.6080  -14.0633   26.6441 C   0  0  0  0  0  0  0  0  0  0  0  0
    8.3304  -15.8641   24.5481 C   0  0  0  0  0  0  0  0  0  0  0  0
    7.4300  -16.7243   24.5194 O   0  0  0  0  0  0  0  0  0  0  0  0
   13.2950  -18.9649   23.7297 N   0  0  0  0  0  0  0  0  0  0  0  0
   12.9371  -19.5199   24.9774 C   0  0  0  0  0  0  0  0  0  0  0  0
   13.5642  -20.5294   25.3843 O   0  0  0  0  0  0  0  0  0  0  0  0
   11.8382  -18.9397   25.8197 C   0  0  0  0  0  0  0  0  0  0  0  0
   11.2358  -17.7397   25.1777 C   0  0  0  0  0  0  0  0  0  0  0  0
   10.0705  -17.1307   25.9217 C   0  0  2  0  0  0  0  0  0  0  0  0
    9.4568  -15.9931   25.3542 N   0  0  0  0  0  0  0  0  0  0  0  0
   10.3143  -17.1473   27.3460 C   0  0  0  0  0  0  0  0  0  0  0  0
   10.7819  -18.1229   27.9889 O   0  0  0  0  0  0  0  0  0  0  0  0
   10.0224  -16.0128   28.1077 O   0  0  0  0  0  0  0  0  0  0  0  0
  2  4  1  0
  2  3  1  1
  2  1  1  0
  5  6  1  1
  5  4  1  0
  7  5  1  0
  8  7  2  0
  9  7  1  0
 10  9  1  0
 11 12  1  0
 10 11  1  1
 12 17  2  0
 13 12  1  0
 13 14  2  0
 14 15  1  0
 15 16  2  0
 17 16  1  0
 18 10  1  0
 18 26  1  0
 19 18  2  0
 21 22  2  0
 21 20  1  0
 23 21  1  0
 24 23  1  0
 25 24  1  6
 25 26  1  0
 27 29  1  0
 27 25  1  0
 28 27  2  0
M  END
$$$$
