LFQ.pdb
     RDKit          3D

 29 29  0  0  1  0  0  0  0  0999 V2000
    7.5216  -13.9428   18.6446 C   0  0  0  0  0  0  0  0  0  0  0  0
    7.7870  -13.3107   19.9891 C   0  0  2  0  0  0  0  0  0  0  0  0
    8.1117  -11.8490   19.7302 C   0  0  0  0  0  0  0  0  0  0  0  0
    8.9495  -13.9148   20.7005 C   0  0  0  0  0  0  0  0  0  0  0  0
    8.6860  -15.3222   21.1828 C   0  0  2  0  0  0  0  0  0  0  0  0
    7.3630  -15.7744   20.8931 N   0  0  0  0  0  0  0  0  0  0  0  0
    9.0649  -15.4603   22.6128 C   0  0  0  0  0  0  0  0  0  0  0  0
   10.2384  -15.1405   22.9226 O   0  0  0  0  0  0  0  0  0  0  0  0
    8.1719  -15.9265   23.6056 N   0  0  0  0  0  0  0  0  0  0  0  0
    8.5678  -16.0637   24.9872 C   0  0  1  0  0  0  0  0  0  0  0  0
    7.4111  -15.6932   25.8888 C   0  0  0  0  0  0  0  0  0  0  0  0
    7.2744  -14.2260   26.0447 C   0  0  0  0  0  0  0  0  0  0  0  0
    8.3264  -13.4821   26.5340 C   0  0  0  0  0  0  0  0  0  0  0  0
    8.2499  -12.1123   26.6981 C   0  0  0  0  0  0  0  0  0  0  0  0
    7.0896  -11.4494   26.3664 C   0  0  0  0  0  0  0  0  0  0  0  0
    6.0266  -12.1768   25.8753 C   0  0  0  0  0  0  0  0  0  0  0  0
    6.1196  -13.5508   25.7167 C   0  0  0  0  0  0  0  0  0  0  0  0
    8.8730  -17.5105   25.2847 C   0  0  0  0  0  0  0  0  0  0  0  0
    8.4108  -18.3347   24.4733 O   0  0  0  0  0  0  0  0  0  0  0  0
   12.1667  -18.7977   21.8370 N   0  0  0  0  0  0  0  0  0  0  0  0
   12.6389  -19.0396   23.1451 C   0  0  0  0  0  0  0  0  0  0  0  0
   13.8700  -18.9239   23.3670 O   0  0  0  0  0  0  0  0  0  0  0  0
   11.7166  -19.4273   24.2643 C   0  0  0  0  0  0  0  0  0  0  0  0
   11.8437  -18.4991   25.4209 C   0  0  0  0  0  0  0  0  0  0  0  0
   10.7980  -18.6689   26.4979 C   0  0  2  0  0  0  0  0  0  0  0  0
    9.6211  -17.8965   26.3923 N   0  0  0  0  0  0  0  0  0  0  0  0
   11.4227  -18.8044   27.7939 C   0  0  0  0  0  0  0  0  0  0  0  0
   11.8724  -17.8525   28.4835 O   0  0  0  0  0  0  0  0  0  0  0  0
   11.5588  -20.0730   28.3634 O   0  0  0  0  0  0  0  0  0  0  0  0
  2  4  1  0
  2  3  1  6
  2  1  1  0
  5  6  1  1
  5  4  1  0
  7  5  1  0
  8  7  2  0
  9  7  1  0
 10  9  1  0
 11 12  1  0
 10 11  1  1
 12 17  2  0
 13 12  1  0
 13 14  2  0
 14 15  1  0
 15 16  2  0
 17 16  1  0
 18 10  1  0
 18 26  1  0
 19 18  2  0
 21 22  2  0
 21 20  1  0
 23 21  1  0
 24 23  1  0
 25 24  1  6
 25 26  1  0
 27 29  1  0
 27 25  1  0
 28 27  2  0
M  END
$$$$
