LFQ.pdb
     RDKit          3D

 29 29  0  0  1  0  0  0  0  0999 V2000
    6.9190  -14.1330   19.4041 C   0  0  0  0  0  0  0  0  0  0  0  0
    8.2779  -13.7052   19.9021 C   0  0  2  0  0  0  0  0  0  0  0  0
    8.7015  -12.5170   19.0548 C   0  0  0  0  0  0  0  0  0  0  0  0
    9.3165  -14.7639   19.7507 C   0  0  0  0  0  0  0  0  0  0  0  0
    9.2298  -15.8381   20.8096 C   0  0  2  0  0  0  0  0  0  0  0  0
    8.1287  -16.7264   20.6165 N   0  0  0  0  0  0  0  0  0  0  0  0
    9.2800  -15.2348   22.1664 C   0  0  0  0  0  0  0  0  0  0  0  0
   10.3759  -14.7411   22.5279 O   0  0  0  0  0  0  0  0  0  0  0  0
    8.1657  -15.2004   23.0368 N   0  0  0  0  0  0  0  0  0  0  0  0
    8.1545  -14.3932   24.2336 C   0  0  1  0  0  0  0  0  0  0  0  0
    6.7673  -13.8334   24.4588 C   0  0  0  0  0  0  0  0  0  0  0  0
    6.6984  -12.9887   25.6742 C   0  0  0  0  0  0  0  0  0  0  0  0
    7.5606  -11.9241   25.8257 C   0  0  0  0  0  0  0  0  0  0  0  0
    7.5370  -11.1064   26.9392 C   0  0  0  0  0  0  0  0  0  0  0  0
    6.6269  -11.3480   27.9437 C   0  0  0  0  0  0  0  0  0  0  0  0
    5.7564  -12.4084   27.8099 C   0  0  0  0  0  0  0  0  0  0  0  0
    5.7930  -13.2195   26.6862 C   0  0  0  0  0  0  0  0  0  0  0  0
    8.4462  -15.2613   25.4321 C   0  0  0  0  0  0  0  0  0  0  0  0
    7.7769  -15.0109   26.4523 O   0  0  0  0  0  0  0  0  0  0  0  0
    5.9508  -20.1625   25.6435 N   0  0  0  0  0  0  0  0  0  0  0  0
    7.0010  -20.3564   24.7203 C   0  0  0  0  0  0  0  0  0  0  0  0
    6.9129  -21.3093   23.9065 O   0  0  0  0  0  0  0  0  0  0  0  0
    8.2063  -19.4620   24.6879 C   0  0  0  0  0  0  0  0  0  0  0  0
    8.1218  -18.3968   25.7238 C   0  0  0  0  0  0  0  0  0  0  0  0
    9.3826  -17.5869   25.9158 C   0  0  2  0  0  0  0  0  0  0  0  0
    9.3998  -16.2737   25.3981 N   0  0  0  0  0  0  0  0  0  0  0  0
   10.5511  -18.4175   25.7341 C   0  0  0  0  0  0  0  0  0  0  0  0
   10.7542  -19.5172   26.3115 O   0  0  0  0  0  0  0  0  0  0  0  0
   11.5589  -18.0060   24.8581 O   0  0  0  0  0  0  0  0  0  0  0  0
  2  4  1  0
  2  3  1  6
  2  1  1  0
  5  6  1  1
  5  4  1  0
  7  5  1  0
  8  7  2  0
  9  7  1  0
 10  9  1  0
 11 12  1  0
 10 11  1  1
 12 17  2  0
 13 12  1  0
 13 14  2  0
 14 15  1  0
 15 16  2  0
 17 16  1  0
 18 10  1  0
 18 26  1  0
 19 18  2  0
 21 22  2  0
 21 20  1  0
 23 21  1  0
 24 23  1  0
 25 24  1  6
 25 26  1  0
 27 29  1  0
 27 25  1  0
 28 27  2  0
M  END
$$$$
