LFQ.pdb
     RDKit          3D

 29 29  0  0  1  0  0  0  0  0999 V2000
    7.8395  -19.1279   18.4730 C   0  0  0  0  0  0  0  0  0  0  0  0
    9.1975  -19.3203   19.1027 C   0  0  2  0  0  0  0  0  0  0  0  0
    9.2616  -20.7632   19.5748 C   0  0  0  0  0  0  0  0  0  0  0  0
    9.4222  -18.4445   20.2881 C   0  0  0  0  0  0  0  0  0  0  0  0
    9.1916  -16.9798   19.9978 C   0  0  2  0  0  0  0  0  0  0  0  0
   10.0244  -16.4789   18.9517 N   0  0  0  0  0  0  0  0  0  0  0  0
    9.2631  -16.1847   21.2509 C   0  0  0  0  0  0  0  0  0  0  0  0
   10.4050  -15.9855   21.7325 O   0  0  0  0  0  0  0  0  0  0  0  0
    8.1197  -15.6614   21.8984 N   0  0  0  0  0  0  0  0  0  0  0  0
    8.2104  -14.9358   23.1432 C   0  0  1  0  0  0  0  0  0  0  0  0
    6.8869  -14.2670   23.4418 C   0  0  0  0  0  0  0  0  0  0  0  0
    6.9206  -13.5096   24.7149 C   0  0  0  0  0  0  0  0  0  0  0  0
    6.4014  -14.0660   25.8639 C   0  0  0  0  0  0  0  0  0  0  0  0
    6.4085  -13.4017   27.0755 C   0  0  0  0  0  0  0  0  0  0  0  0
    6.9492  -12.1382   27.1574 C   0  0  0  0  0  0  0  0  0  0  0  0
    7.4734  -11.5652   26.0184 C   0  0  0  0  0  0  0  0  0  0  0  0
    7.4585  -12.2452   24.8104 C   0  0  0  0  0  0  0  0  0  0  0  0
    8.4462  -15.9029   24.2764 C   0  0  0  0  0  0  0  0  0  0  0  0
    7.7835  -16.9565   24.2301 O   0  0  0  0  0  0  0  0  0  0  0  0
   12.5471  -19.0025   23.6872 N   0  0  0  0  0  0  0  0  0  0  0  0
   12.9615  -18.8788   25.0309 C   0  0  0  0  0  0  0  0  0  0  0  0
   13.8187  -19.6862   25.4686 O   0  0  0  0  0  0  0  0  0  0  0  0
   12.4094  -17.8184   25.9388 C   0  0  0  0  0  0  0  0  0  0  0  0
   11.5010  -16.8941   25.2070 C   0  0  0  0  0  0  0  0  0  0  0  0
   10.2713  -16.4638   25.9717 C   0  0  2  0  0  0  0  0  0  0  0  0
    9.3447  -15.6341   25.3039 N   0  0  0  0  0  0  0  0  0  0  0  0
   10.6081  -16.1605   27.3439 C   0  0  0  0  0  0  0  0  0  0  0  0
   10.3310  -15.0853   27.9363 O   0  0  0  0  0  0  0  0  0  0  0  0
   11.2951  -17.1062   28.1094 O   0  0  0  0  0  0  0  0  0  0  0  0
  2  4  1  0
  2  3  1  1
  2  1  1  0
  5  6  1  6
  5  4  1  0
  7  5  1  0
  8  7  2  0
  9  7  1  0
 10  9  1  0
 11 12  1  0
 10 11  1  1
 12 17  2  0
 13 12  1  0
 13 14  2  0
 14 15  1  0
 15 16  2  0
 17 16  1  0
 18 10  1  0
 18 26  1  0
 19 18  2  0
 21 22  2  0
 21 20  1  0
 23 21  1  0
 24 23  1  0
 25 24  1  6
 25 26  1  0
 27 29  1  0
 27 25  1  0
 28 27  2  0
M  END
$$$$
