LFQ.pdb
     RDKit          3D

 29 29  0  0  1  0  0  0  0  0999 V2000
    7.6860  -14.1145   18.3066 C   0  0  0  0  0  0  0  0  0  0  0  0
    7.6155  -13.2831   19.5641 C   0  0  2  0  0  0  0  0  0  0  0  0
    7.7247  -11.8293   19.1355 C   0  0  0  0  0  0  0  0  0  0  0  0
    8.7311  -13.5615   20.5130 C   0  0  0  0  0  0  0  0  0  0  0  0
    8.6300  -14.9192   21.1682 C   0  0  2  0  0  0  0  0  0  0  0  0
    7.3297  -15.4986   21.0571 N   0  0  0  0  0  0  0  0  0  0  0  0
    9.1418  -14.8624   22.5619 C   0  0  0  0  0  0  0  0  0  0  0  0
   10.2174  -14.2425   22.7468 O   0  0  0  0  0  0  0  0  0  0  0  0
    8.4753  -15.4666   23.6533 N   0  0  0  0  0  0  0  0  0  0  0  0
    9.0229  -15.4487   24.9890 C   0  0  1  0  0  0  0  0  0  0  0  0
    7.9007  -15.5059   26.0016 C   0  0  0  0  0  0  0  0  0  0  0  0
    7.2791  -14.1786   26.2195 C   0  0  0  0  0  0  0  0  0  0  0  0
    7.9880  -13.1787   26.8496 C   0  0  0  0  0  0  0  0  0  0  0  0
    7.4544  -11.9245   27.0766 C   0  0  0  0  0  0  0  0  0  0  0  0
    6.1703  -11.6451   26.6659 C   0  0  0  0  0  0  0  0  0  0  0  0
    5.4457  -12.6329   26.0338 C   0  0  0  0  0  0  0  0  0  0  0  0
    5.9958  -13.8862   25.8136 C   0  0  0  0  0  0  0  0  0  0  0  0
    9.8442  -16.6933   25.2158 C   0  0  0  0  0  0  0  0  0  0  0  0
    9.2283  -17.7704   25.1065 O   0  0  0  0  0  0  0  0  0  0  0  0
   16.1343  -16.6360   24.3671 N   0  0  0  0  0  0  0  0  0  0  0  0
   15.0482  -16.2892   23.5348 C   0  0  0  0  0  0  0  0  0  0  0  0
   15.2904  -15.7106   22.4464 O   0  0  0  0  0  0  0  0  0  0  0  0
   13.6275  -16.5914   23.9142 C   0  0  0  0  0  0  0  0  0  0  0  0
   13.5569  -17.3882   25.1694 C   0  0  0  0  0  0  0  0  0  0  0  0
   12.1610  -17.6616   25.6783 C   0  0  2  0  0  0  0  0  0  0  0  0
   11.1992  -16.6395   25.5262 N   0  0  0  0  0  0  0  0  0  0  0  0
   12.2100  -18.3852   26.9282 C   0  0  0  0  0  0  0  0  0  0  0  0
   12.9509  -19.3751   27.1628 O   0  0  0  0  0  0  0  0  0  0  0  0
   11.3874  -17.9889   27.9858 O   0  0  0  0  0  0  0  0  0  0  0  0
  2  4  1  0
  2  3  1  6
  2  1  1  0
  5  6  1  1
  5  4  1  0
  7  5  1  0
  8  7  2  0
  9  7  1  0
 10  9  1  0
 11 12  1  0
 10 11  1  1
 12 17  2  0
 13 12  1  0
 13 14  2  0
 14 15  1  0
 15 16  2  0
 17 16  1  0
 18 10  1  0
 18 26  1  0
 19 18  2  0
 21 22  2  0
 21 20  1  0
 23 21  1  0
 24 23  1  0
 25 24  1  1
 25 26  1  0
 27 29  1  0
 27 25  1  0
 28 27  2  0
M  END
$$$$
