LFQ.pdb
     RDKit          3D

 29 29  0  0  1  0  0  0  0  0999 V2000
    7.7646  -13.5868   17.4862 C   0  0  0  0  0  0  0  0  0  0  0  0
    8.1636  -13.6660   18.9395 C   0  0  2  0  0  0  0  0  0  0  0  0
    8.4196  -12.2414   19.4023 C   0  0  0  0  0  0  0  0  0  0  0  0
    9.4141  -14.4469   19.1613 C   0  0  0  0  0  0  0  0  0  0  0  0
    9.2159  -15.6443   20.0612 C   0  0  2  0  0  0  0  0  0  0  0  0
    8.0754  -16.4272   19.7076 N   0  0  0  0  0  0  0  0  0  0  0  0
    9.2376  -15.2306   21.4880 C   0  0  0  0  0  0  0  0  0  0  0  0
   10.3274  -14.7999   21.9377 O   0  0  0  0  0  0  0  0  0  0  0  0
    8.1033  -15.3045   22.3296 N   0  0  0  0  0  0  0  0  0  0  0  0
    8.1397  -14.8614   23.7032 C   0  0  1  0  0  0  0  0  0  0  0  0
    6.9584  -13.9580   23.9796 C   0  0  0  0  0  0  0  0  0  0  0  0
    6.9911  -13.4033   25.3532 C   0  0  0  0  0  0  0  0  0  0  0  0
    6.2987  -14.0285   26.3676 C   0  0  0  0  0  0  0  0  0  0  0  0
    6.2971  -13.5520   27.6646 C   0  0  0  0  0  0  0  0  0  0  0  0
    7.0066  -12.4132   27.9737 C   0  0  0  0  0  0  0  0  0  0  0  0
    7.7055  -11.7740   26.9720 C   0  0  0  0  0  0  0  0  0  0  0  0
    7.6968  -12.2652   25.6757 C   0  0  0  0  0  0  0  0  0  0  0  0
    7.9737  -16.0464   24.6215 C   0  0  0  0  0  0  0  0  0  0  0  0
    6.9880  -16.7717   24.3896 O   0  0  0  0  0  0  0  0  0  0  0  0
   11.2173  -19.2453   22.3343 N   0  0  0  0  0  0  0  0  0  0  0  0
   11.7498  -19.6130   23.5889 C   0  0  0  0  0  0  0  0  0  0  0  0
   12.2658  -20.7521   23.7083 O   0  0  0  0  0  0  0  0  0  0  0  0
   11.7148  -18.6868   24.7698 C   0  0  0  0  0  0  0  0  0  0  0  0
   10.7123  -17.6028   24.5820 C   0  0  0  0  0  0  0  0  0  0  0  0
    9.8681  -17.2922   25.7958 C   0  0  2  0  0  0  0  0  0  0  0  0
    8.8636  -16.3099   25.6579 N   0  0  0  0  0  0  0  0  0  0  0  0
   10.6807  -17.2878   26.9906 C   0  0  0  0  0  0  0  0  0  0  0  0
   11.1813  -18.3092   27.5292 O   0  0  0  0  0  0  0  0  0  0  0  0
   10.9574  -16.0770   27.6306 O   0  0  0  0  0  0  0  0  0  0  0  0
  2  4  1  0
  2  3  1  6
  2  1  1  0
  5  6  1  6
  5  4  1  0
  7  5  1  0
  8  7  2  0
  9  7  1  0
 10  9  1  0
 11 12  1  0
 10 11  1  6
 12 17  2  0
 13 12  1  0
 13 14  2  0
 14 15  1  0
 15 16  2  0
 17 16  1  0
 18 10  1  0
 18 26  1  0
 19 18  2  0
 21 22  2  0
 21 20  1  0
 23 21  1  0
 24 23  1  0
 25 24  1  6
 25 26  1  0
 27 29  1  0
 27 25  1  0
 28 27  2  0
M  END
$$$$
