LFQ.pdb
     RDKit          3D

 29 29  0  0  1  0  0  0  0  0999 V2000
    7.6637  -14.0086   18.1358 C   0  0  0  0  0  0  0  0  0  0  0  0
    7.2526  -13.2757   19.3894 C   0  0  2  0  0  0  0  0  0  0  0  0
    7.2079  -11.7978   19.0387 C   0  0  0  0  0  0  0  0  0  0  0  0
    8.2196  -13.4469   20.5111 C   0  0  0  0  0  0  0  0  0  0  0  0
    8.2354  -14.8489   21.0740 C   0  0  2  0  0  0  0  0  0  0  0  0
    6.9496  -15.4697   21.0659 N   0  0  0  0  0  0  0  0  0  0  0  0
    8.8994  -14.8671   22.4031 C   0  0  0  0  0  0  0  0  0  0  0  0
   10.0702  -14.4181   22.4590 O   0  0  0  0  0  0  0  0  0  0  0  0
    8.2726  -15.3594   23.5715 N   0  0  0  0  0  0  0  0  0  0  0  0
    8.8981  -15.2725   24.8697 C   0  0  1  0  0  0  0  0  0  0  0  0
    7.8365  -15.1614   25.9415 C   0  0  0  0  0  0  0  0  0  0  0  0
    7.3504  -13.7709   26.1016 C   0  0  0  0  0  0  0  0  0  0  0  0
    8.2491  -12.7397   26.2701 C   0  0  0  0  0  0  0  0  0  0  0  0
    7.8474  -11.4266   26.4235 C   0  0  0  0  0  0  0  0  0  0  0  0
    6.5057  -11.1178   26.4101 C   0  0  0  0  0  0  0  0  0  0  0  0
    5.5917  -12.1361   26.2426 C   0  0  0  0  0  0  0  0  0  0  0  0
    6.0113  -13.4486   26.0901 C   0  0  0  0  0  0  0  0  0  0  0  0
    9.6416  -16.5524   25.1597 C   0  0  0  0  0  0  0  0  0  0  0  0
    8.9303  -17.5623   25.3196 O   0  0  0  0  0  0  0  0  0  0  0  0
   15.5568  -16.5888   22.2004 N   0  0  0  0  0  0  0  0  0  0  0  0
   14.9145  -16.3116   23.4265 C   0  0  0  0  0  0  0  0  0  0  0  0
   15.5728  -15.7376   24.3295 O   0  0  0  0  0  0  0  0  0  0  0  0
   13.4809  -16.6815   23.6746 C   0  0  0  0  0  0  0  0  0  0  0  0
   13.3360  -17.5023   24.9076 C   0  0  0  0  0  0  0  0  0  0  0  0
   11.9171  -17.6871   25.3924 C   0  0  2  0  0  0  0  0  0  0  0  0
   11.0295  -16.5996   25.2426 N   0  0  0  0  0  0  0  0  0  0  0  0
   11.8977  -18.4304   26.6315 C   0  0  0  0  0  0  0  0  0  0  0  0
   12.5773  -19.4632   26.8666 O   0  0  0  0  0  0  0  0  0  0  0  0
   11.0744  -18.0045   27.6770 O   0  0  0  0  0  0  0  0  0  0  0  0
  2  4  1  0
  2  3  1  6
  2  1  1  0
  5  6  1  1
  5  4  1  0
  7  5  1  0
  8  7  2  0
  9  7  1  0
 10  9  1  0
 11 12  1  0
 10 11  1  1
 12 17  2  0
 13 12  1  0
 13 14  2  0
 14 15  1  0
 15 16  2  0
 17 16  1  0
 18 10  1  0
 18 26  1  0
 19 18  2  0
 21 22  2  0
 21 20  1  0
 23 21  1  0
 24 23  1  0
 25 24  1  1
 25 26  1  0
 27 29  1  0
 27 25  1  0
 28 27  2  0
M  END
$$$$
