LFQ.pdb
     RDKit          3D

 29 29  0  0  1  0  0  0  0  0999 V2000
    7.1604  -13.8824   18.1504 C   0  0  0  0  0  0  0  0  0  0  0  0
    8.1040  -13.4634   19.2512 C   0  0  2  0  0  0  0  0  0  0  0  0
    8.5841  -12.0631   18.9080 C   0  0  0  0  0  0  0  0  0  0  0  0
    9.3042  -14.3411   19.3587 C   0  0  0  0  0  0  0  0  0  0  0  0
    9.0666  -15.5734   20.2000 C   0  0  2  0  0  0  0  0  0  0  0  0
    7.8488  -16.2452   19.8769 N   0  0  0  0  0  0  0  0  0  0  0  0
    9.2063  -15.2511   21.6437 C   0  0  0  0  0  0  0  0  0  0  0  0
   10.3348  -14.8622   22.0319 O   0  0  0  0  0  0  0  0  0  0  0  0
    8.1401  -15.3654   22.5660 N   0  0  0  0  0  0  0  0  0  0  0  0
    8.2725  -14.9532   23.9432 C   0  0  1  0  0  0  0  0  0  0  0  0
    6.9845  -14.3122   24.4103 C   0  0  0  0  0  0  0  0  0  0  0  0
    7.1097  -13.7380   25.7705 C   0  0  0  0  0  0  0  0  0  0  0  0
    6.4188  -14.2980   26.8233 C   0  0  0  0  0  0  0  0  0  0  0  0
    6.5013  -13.8008   28.1098 C   0  0  0  0  0  0  0  0  0  0  0  0
    7.2972  -12.7074   28.3687 C   0  0  0  0  0  0  0  0  0  0  0  0
    7.9960  -12.1337   27.3281 C   0  0  0  0  0  0  0  0  0  0  0  0
    7.9021  -12.6448   26.0429 C   0  0  0  0  0  0  0  0  0  0  0  0
    8.4677  -16.1665   24.8178 C   0  0  0  0  0  0  0  0  0  0  0  0
    7.5419  -16.9995   24.7951 O   0  0  0  0  0  0  0  0  0  0  0  0
   12.5606  -18.0466   22.5131 N   0  0  0  0  0  0  0  0  0  0  0  0
   12.4234  -18.5072   23.8404 C   0  0  0  0  0  0  0  0  0  0  0  0
   13.4628  -18.8049   24.4800 O   0  0  0  0  0  0  0  0  0  0  0  0
   11.0815  -18.6480   24.4984 C   0  0  0  0  0  0  0  0  0  0  0  0
   11.1412  -18.2843   25.9403 C   0  0  0  0  0  0  0  0  0  0  0  0
   10.0113  -17.4084   26.4286 C   0  0  2  0  0  0  0  0  0  0  0  0
    9.6067  -16.3416   25.5972 N   0  0  0  0  0  0  0  0  0  0  0  0
   10.1312  -17.1715   27.8490 C   0  0  0  0  0  0  0  0  0  0  0  0
   10.0184  -16.0494   28.4076 O   0  0  0  0  0  0  0  0  0  0  0  0
   10.3923  -18.2436   28.7062 O   0  0  0  0  0  0  0  0  0  0  0  0
  2  4  1  0
  2  3  1  6
  2  1  1  0
  5  6  1  1
  5  4  1  0
  7  5  1  0
  8  7  2  0
  9  7  1  0
 10  9  1  0
 11 12  1  0
 10 11  1  1
 12 17  2  0
 13 12  1  0
 13 14  2  0
 14 15  1  0
 15 16  2  0
 17 16  1  0
 18 10  1  0
 18 26  1  0
 19 18  2  0
 21 22  2  0
 21 20  1  0
 23 21  1  0
 24 23  1  0
 25 24  1  6
 25 26  1  0
 27 29  1  0
 27 25  1  0
 28 27  2  0
M  END
$$$$
