LFQ.pdb
     RDKit          3D

 29 29  0  0  1  0  0  0  0  0999 V2000
    6.6366  -13.8008   19.0834 C   0  0  0  0  0  0  0  0  0  0  0  0
    7.9791  -13.4081   19.6502 C   0  0  2  0  0  0  0  0  0  0  0  0
    8.3728  -12.1020   18.9808 C   0  0  0  0  0  0  0  0  0  0  0  0
    9.0495  -14.4055   19.3638 C   0  0  0  0  0  0  0  0  0  0  0  0
    8.9433  -15.6520   20.2112 C   0  0  2  0  0  0  0  0  0  0  0  0
    7.7575  -16.4044   19.9534 N   0  0  0  0  0  0  0  0  0  0  0  0
    9.1418  -15.3224   21.6463 C   0  0  0  0  0  0  0  0  0  0  0  0
   10.2966  -14.9755   21.9947 O   0  0  0  0  0  0  0  0  0  0  0  0
    8.1019  -15.3854   22.6028 N   0  0  0  0  0  0  0  0  0  0  0  0
    8.3184  -15.0540   23.9912 C   0  0  1  0  0  0  0  0  0  0  0  0
    7.0281  -14.5573   24.6048 C   0  0  0  0  0  0  0  0  0  0  0  0
    7.2391  -13.9784   25.9523 C   0  0  0  0  0  0  0  0  0  0  0  0
    7.5019  -12.6328   26.0930 C   0  0  0  0  0  0  0  0  0  0  0  0
    7.7059  -12.0444   27.3264 C   0  0  0  0  0  0  0  0  0  0  0  0
    7.6484  -12.8136   28.4669 C   0  0  0  0  0  0  0  0  0  0  0  0
    7.3867  -14.1616   28.3461 C   0  0  0  0  0  0  0  0  0  0  0  0
    7.1843  -14.7366   27.1010 C   0  0  0  0  0  0  0  0  0  0  0  0
    8.6840  -16.3005   24.7577 C   0  0  0  0  0  0  0  0  0  0  0  0
    8.0006  -17.3095   24.4998 O   0  0  0  0  0  0  0  0  0  0  0  0
   13.4625  -18.0442   22.6902 N   0  0  0  0  0  0  0  0  0  0  0  0
   13.4015  -18.1896   24.0930 C   0  0  0  0  0  0  0  0  0  0  0  0
   14.1392  -19.0484   24.6374 O   0  0  0  0  0  0  0  0  0  0  0  0
   12.4874  -17.3526   24.9401 C   0  0  0  0  0  0  0  0  0  0  0  0
   11.3901  -18.1689   25.5273 C   0  0  0  0  0  0  0  0  0  0  0  0
   10.3726  -17.3932   26.3307 C   0  0  2  0  0  0  0  0  0  0  0  0
    9.7163  -16.3200   25.6902 N   0  0  0  0  0  0  0  0  0  0  0  0
   10.8308  -17.2123   27.6892 C   0  0  0  0  0  0  0  0  0  0  0  0
   11.4027  -18.0926   28.3833 O   0  0  0  0  0  0  0  0  0  0  0  0
   10.6447  -15.9796   28.3202 O   0  0  0  0  0  0  0  0  0  0  0  0
  2  4  1  0
  2  3  1  6
  2  1  1  0
  5  6  1  1
  5  4  1  0
  7  5  1  0
  8  7  2  0
  9  7  1  0
 10  9  1  0
 11 12  1  0
 10 11  1  1
 12 17  2  0
 13 12  1  0
 13 14  2  0
 14 15  1  0
 15 16  2  0
 17 16  1  0
 18 10  1  0
 18 26  1  0
 19 18  2  0
 21 22  2  0
 21 20  1  0
 23 21  1  0
 24 23  1  0
 25 24  1  6
 25 26  1  0
 27 29  1  0
 27 25  1  0
 28 27  2  0
M  END
$$$$
