LFQ.pdb
     RDKit          3D

 29 29  0  0  1  0  0  0  0  0999 V2000
    8.1774  -12.6755   17.8345 C   0  0  0  0  0  0  0  0  0  0  0  0
    7.7915  -13.6796   18.8932 C   0  0  2  0  0  0  0  0  0  0  0  0
    7.5993  -12.9029   20.1850 C   0  0  0  0  0  0  0  0  0  0  0  0
    8.8429  -14.7087   19.1345 C   0  0  0  0  0  0  0  0  0  0  0  0
    8.4088  -15.7876   20.0990 C   0  0  2  0  0  0  0  0  0  0  0  0
    7.0634  -16.2171   19.8895 N   0  0  0  0  0  0  0  0  0  0  0  0
    8.6944  -15.3783   21.4985 C   0  0  0  0  0  0  0  0  0  0  0  0
    9.8777  -15.0558   21.7654 O   0  0  0  0  0  0  0  0  0  0  0  0
    7.7049  -15.3417   22.5083 N   0  0  0  0  0  0  0  0  0  0  0  0
    7.9970  -14.8955   23.8499 C   0  0  1  0  0  0  0  0  0  0  0  0
    6.7138  -14.5040   24.5485 C   0  0  0  0  0  0  0  0  0  0  0  0
    6.9685  -13.7822   25.8172 C   0  0  0  0  0  0  0  0  0  0  0  0
    6.7579  -12.4223   25.8928 C   0  0  0  0  0  0  0  0  0  0  0  0
    6.9801  -11.7030   27.0515 C   0  0  0  0  0  0  0  0  0  0  0  0
    7.4279  -12.3506   28.1810 C   0  0  0  0  0  0  0  0  0  0  0  0
    7.6442  -13.7109   28.1245 C   0  0  0  0  0  0  0  0  0  0  0  0
    7.4164  -14.4179   26.9540 C   0  0  0  0  0  0  0  0  0  0  0  0
    8.5676  -16.0394   24.6505 C   0  0  0  0  0  0  0  0  0  0  0  0
    7.7744  -16.9658   24.9039 O   0  0  0  0  0  0  0  0  0  0  0  0
   14.6977  -17.5993   24.2118 N   0  0  0  0  0  0  0  0  0  0  0  0
   14.2526  -18.4337   25.2598 C   0  0  0  0  0  0  0  0  0  0  0  0
   15.0546  -19.2759   25.7348 O   0  0  0  0  0  0  0  0  0  0  0  0
   12.8604  -18.3402   25.8138 C   0  0  0  0  0  0  0  0  0  0  0  0
   12.0880  -17.2467   25.1637 C   0  0  0  0  0  0  0  0  0  0  0  0
   10.6699  -17.0814   25.6576 C   0  0  2  0  0  0  0  0  0  0  0  0
    9.8919  -16.0568   25.0764 N   0  0  0  0  0  0  0  0  0  0  0  0
   10.6063  -17.2712   27.0887 C   0  0  0  0  0  0  0  0  0  0  0  0
   10.7085  -18.3790   27.6770 O   0  0  0  0  0  0  0  0  0  0  0  0
   10.4179  -16.1656   27.9222 O   0  0  0  0  0  0  0  0  0  0  0  0
  2  4  1  0
  2  3  1  1
  2  1  1  0
  5  6  1  1
  5  4  1  0
  7  5  1  0
  8  7  2  0
  9  7  1  0
 10  9  1  0
 11 12  1  0
 10 11  1  1
 12 17  2  0
 13 12  1  0
 13 14  2  0
 14 15  1  0
 15 16  2  0
 17 16  1  0
 18 10  1  0
 18 26  1  0
 19 18  2  0
 21 22  2  0
 21 20  1  0
 23 21  1  0
 24 23  1  0
 25 24  1  1
 25 26  1  0
 27 29  1  0
 27 25  1  0
 28 27  2  0
M  END
$$$$
