LFQ.pdb
     RDKit          3D

 29 29  0  0  1  0  0  0  0  0999 V2000
    6.2671  -14.0855   19.9219 C   0  0  0  0  0  0  0  0  0  0  0  0
    7.7424  -13.7674   19.9336 C   0  0  2  0  0  0  0  0  0  0  0  0
    7.9539  -12.6308   18.9475 C   0  0  0  0  0  0  0  0  0  0  0  0
    8.5913  -14.9121   19.4958 C   0  0  0  0  0  0  0  0  0  0  0  0
    8.5739  -16.0707   20.4653 C   0  0  2  0  0  0  0  0  0  0  0  0
    7.3440  -16.7958   20.4487 N   0  0  0  0  0  0  0  0  0  0  0  0
    8.9832  -15.6196   21.8205 C   0  0  0  0  0  0  0  0  0  0  0  0
   10.1951  -15.3357   21.9823 O   0  0  0  0  0  0  0  0  0  0  0  0
    8.0778  -15.5036   22.9008 N   0  0  0  0  0  0  0  0  0  0  0  0
    8.5136  -15.1421   24.2288 C   0  0  1  0  0  0  0  0  0  0  0  0
    7.3812  -14.4687   24.9721 C   0  0  0  0  0  0  0  0  0  0  0  0
    7.7889  -14.0276   26.3267 C   0  0  0  0  0  0  0  0  0  0  0  0
    7.9899  -12.6891   26.5862 C   0  0  0  0  0  0  0  0  0  0  0  0
    8.3702  -12.2265   27.8315 C   0  0  0  0  0  0  0  0  0  0  0  0
    8.5599  -13.1195   28.8621 C   0  0  0  0  0  0  0  0  0  0  0  0
    8.3636  -14.4626   28.6214 C   0  0  0  0  0  0  0  0  0  0  0  0
    7.9821  -14.9104   27.3662 C   0  0  0  0  0  0  0  0  0  0  0  0
    8.8344  -16.3898   25.0131 C   0  0  0  0  0  0  0  0  0  0  0  0
    7.9142  -17.2255   25.0930 O   0  0  0  0  0  0  0  0  0  0  0  0
   12.8723  -18.9840   22.9679 N   0  0  0  0  0  0  0  0  0  0  0  0
   13.5252  -18.1019   23.8558 C   0  0  0  0  0  0  0  0  0  0  0  0
   14.6188  -17.5967   23.4997 O   0  0  0  0  0  0  0  0  0  0  0  0
   12.9511  -17.7569   25.1993 C   0  0  0  0  0  0  0  0  0  0  0  0
   11.6863  -18.4977   25.4574 C   0  0  0  0  0  0  0  0  0  0  0  0
   10.6380  -17.7290   26.2270 C   0  0  2  0  0  0  0  0  0  0  0  0
   10.0762  -16.5920   25.6069 N   0  0  0  0  0  0  0  0  0  0  0  0
   10.9924  -17.6501   27.6257 C   0  0  0  0  0  0  0  0  0  0  0  0
   10.9304  -16.6092   28.3304 O   0  0  0  0  0  0  0  0  0  0  0  0
   11.4441  -18.7950   28.2872 O   0  0  0  0  0  0  0  0  0  0  0  0
  2  4  1  0
  2  3  1  6
  2  1  1  0
  5  6  1  1
  5  4  1  0
  7  5  1  0
  8  7  2  0
  9  7  1  0
 10  9  1  0
 11 12  1  0
 10 11  1  1
 12 17  2  0
 13 12  1  0
 13 14  2  0
 14 15  1  0
 15 16  2  0
 17 16  1  0
 18 10  1  0
 18 26  1  0
 19 18  2  0
 21 22  2  0
 21 20  1  0
 23 21  1  0
 24 23  1  0
 25 24  1  6
 25 26  1  0
 27 29  1  0
 27 25  1  0
 28 27  2  0
M  END
$$$$
