LFQ.pdb
     RDKit          3D

 29 29  0  0  1  0  0  0  0  0999 V2000
    7.8332  -15.3036   16.6785 C   0  0  0  0  0  0  0  0  0  0  0  0
    7.6538  -14.2279   17.7217 C   0  0  2  0  0  0  0  0  0  0  0  0
    7.5795  -12.9044   16.9788 C   0  0  0  0  0  0  0  0  0  0  0  0
    8.7925  -14.1469   18.6805 C   0  0  0  0  0  0  0  0  0  0  0  0
    8.8036  -15.2732   19.6876 C   0  0  2  0  0  0  0  0  0  0  0  0
    7.7132  -16.1805   19.5242 N   0  0  0  0  0  0  0  0  0  0  0  0
    8.9319  -14.7352   21.0666 C   0  0  0  0  0  0  0  0  0  0  0  0
    9.9444  -14.0349   21.3108 O   0  0  0  0  0  0  0  0  0  0  0  0
    7.9779  -14.9801   22.0816 N   0  0  0  0  0  0  0  0  0  0  0  0
    8.1719  -14.5282   23.4389 C   0  0  1  0  0  0  0  0  0  0  0  0
    6.8296  -14.3003   24.0979 C   0  0  0  0  0  0  0  0  0  0  0  0
    6.9662  -13.7100   25.4502 C   0  0  0  0  0  0  0  0  0  0  0  0
    7.1179  -14.5279   26.5490 C   0  0  0  0  0  0  0  0  0  0  0  0
    7.2494  -14.0277   27.8304 C   0  0  0  0  0  0  0  0  0  0  0  0
    7.2305  -12.6664   28.0364 C   0  0  0  0  0  0  0  0  0  0  0  0
    7.0797  -11.8324   26.9492 C   0  0  0  0  0  0  0  0  0  0  0  0
    6.9490  -12.3504   25.6700 C   0  0  0  0  0  0  0  0  0  0  0  0
    8.8444  -15.6133   24.2422 C   0  0  0  0  0  0  0  0  0  0  0  0
    8.2677  -16.7173   24.2421 O   0  0  0  0  0  0  0  0  0  0  0  0
   15.0321  -15.6224   23.8800 N   0  0  0  0  0  0  0  0  0  0  0  0
   14.7893  -16.7796   24.6511 C   0  0  0  0  0  0  0  0  0  0  0  0
   15.7343  -17.5878   24.8298 O   0  0  0  0  0  0  0  0  0  0  0  0
   13.4450  -17.0646   25.2555 C   0  0  0  0  0  0  0  0  0  0  0  0
   12.4468  -16.0276   24.8768 C   0  0  0  0  0  0  0  0  0  0  0  0
   11.0391  -16.2846   25.3612 C   0  0  2  0  0  0  0  0  0  0  0  0
   10.0300  -15.3936   24.9362 N   0  0  0  0  0  0  0  0  0  0  0  0
   11.0483  -16.7120   26.7415 C   0  0  0  0  0  0  0  0  0  0  0  0
   10.8384  -15.9644   27.7320 O   0  0  0  0  0  0  0  0  0  0  0  0
   11.3060  -18.0511   27.0460 O   0  0  0  0  0  0  0  0  0  0  0  0
  2  4  1  0
  2  3  1  6
  2  1  1  0
  5  6  1  1
  5  4  1  0
  7  5  1  0
  8  7  2  0
  9  7  1  0
 10  9  1  0
 11 12  1  0
 10 11  1  1
 12 17  2  0
 13 12  1  0
 13 14  2  0
 14 15  1  0
 15 16  2  0
 17 16  1  0
 18 10  1  0
 18 26  1  0
 19 18  2  0
 21 22  2  0
 21 20  1  0
 23 21  1  0
 24 23  1  0
 25 24  1  1
 25 26  1  0
 27 29  1  0
 27 25  1  0
 28 27  2  0
M  END
$$$$
