VGT.pdb
     RDKit          3D

 19 18  0  0  1  0  0  0  0  0999 V2000
   16.5451  -13.4193  -17.0882 C   0  0  0  0  0  0  0  0  0  0  0  0
   17.6899  -13.4296  -16.0982 C   0  0  2  0  0  0  0  0  0  0  0  0
   17.3148  -12.5704  -14.9381 C   0  0  0  0  0  0  0  0  0  0  0  0
   19.0014  -13.0942  -16.7322 C   0  0  2  0  0  0  0  0  0  0  0  0
   19.1802  -13.8846  -17.9307 N   0  0  0  0  0  0  0  0  0  0  0  0
   20.1634  -13.2679  -15.8452 C   0  0  0  0  0  0  0  0  0  0  0  0
   20.2864  -12.6278  -14.7495 O   0  0  0  0  0  0  0  0  0  0  0  0
   21.2096  -14.1555  -16.1592 N   0  0  0  0  0  0  0  0  0  0  0  0
   22.3544  -14.3364  -15.2533 C   0  0  0  0  0  0  0  0  0  0  0  0
   23.2926  -15.3431  -15.7857 C   0  0  0  0  0  0  0  0  0  0  0  0
   22.9679  -15.9757  -16.8217 O   0  0  0  0  0  0  0  0  0  0  0  0
   27.9578  -16.9863  -15.8829 C   0  0  0  0  0  0  0  0  0  0  0  0
   26.8819  -16.0841  -15.3737 C   0  0  1  0  0  0  0  0  0  0  0  0
   27.0290  -14.8073  -15.9614 O   0  0  0  0  0  0  0  0  0  0  0  0
   25.4869  -16.5763  -15.6844 C   0  0  2  0  0  0  0  0  0  0  0  0
   24.5322  -15.6313  -15.1933 N   0  0  0  0  0  0  0  0  0  0  0  0
   25.2520  -17.9498  -15.2517 C   0  0  0  0  0  0  0  0  0  0  0  0
   24.8363  -18.2126  -14.1000 O   0  0  0  0  0  0  0  0  0  0  0  0
   25.4881  -18.9995  -16.1197 O   0  0  0  0  0  0  0  0  0  0  0  0
  2  1  1  6
  2  4  1  0
  3  2  1  0
  4  5  1  6
  6  4  1  0
  6  7  2  0
  8  6  1  0
  9  8  1  0
  9 10  1  0
 10 11  2  0
 10 16  1  0
 13 12  1  6
 13 15  1  0
 14 13  1  0
 15 17  1  0
 15 16  1  1
 17 18  2  0
 17 19  1  0
M  END
$$$$
