VGT.pdb
     RDKit          3D

 19 18  0  0  1  0  0  0  0  0999 V2000
   23.8795  -15.0233  -15.3283 C   0  0  0  0  0  0  0  0  0  0  0  0
   23.4855  -13.6699  -15.8795 C   0  0  2  0  0  0  0  0  0  0  0  0
   24.4847  -12.6648  -15.4147 C   0  0  0  0  0  0  0  0  0  0  0  0
   22.0610  -13.3230  -15.5883 C   0  0  2  0  0  0  0  0  0  0  0  0
   21.2012  -14.4161  -15.9872 N   0  0  0  0  0  0  0  0  0  0  0  0
   21.6019  -12.0747  -16.2195 C   0  0  0  0  0  0  0  0  0  0  0  0
   21.1885  -12.0322  -17.4249 O   0  0  0  0  0  0  0  0  0  0  0  0
   21.5937  -10.8515  -15.5236 N   0  0  0  0  0  0  0  0  0  0  0  0
   21.2528   -9.5907  -16.2006 C   0  0  0  0  0  0  0  0  0  0  0  0
   21.7988   -8.4341  -15.4648 C   0  0  0  0  0  0  0  0  0  0  0  0
   22.5327   -8.6506  -14.4680 O   0  0  0  0  0  0  0  0  0  0  0  0
   22.5384   -3.5114  -15.5817 C   0  0  0  0  0  0  0  0  0  0  0  0
   21.7536   -4.7167  -15.9845 C   0  0  1  0  0  0  0  0  0  0  0  0
   22.0183   -5.0119  -17.3410 O   0  0  0  0  0  0  0  0  0  0  0  0
   22.0829   -5.9482  -15.1723 C   0  0  2  0  0  0  0  0  0  0  0  0
   21.5403   -7.1013  -15.8216 N   0  0  0  0  0  0  0  0  0  0  0  0
   21.7195   -5.8230  -13.7647 C   0  0  0  0  0  0  0  0  0  0  0  0
   20.6118   -6.2191  -13.3356 O   0  0  0  0  0  0  0  0  0  0  0  0
   22.6062   -5.2561  -12.8682 O   0  0  0  0  0  0  0  0  0  0  0  0
  2  1  1  1
  2  4  1  0
  3  2  1  0
  4  5  1  6
  6  4  1  0
  6  7  2  0
  8  6  1  0
  9  8  1  0
  9 10  1  0
 10 11  2  0
 10 16  1  0
 13 12  1  1
 13 15  1  0
 14 13  1  0
 15 17  1  0
 15 16  1  6
 17 18  2  0
 17 19  1  0
M  END
$$$$
