VGT.pdb
     RDKit          3D

 19 18  0  0  1  0  0  0  0  0999 V2000
   17.6316  -14.3124  -16.4312 C   0  0  0  0  0  0  0  0  0  0  0  0
   17.4377  -12.9508  -15.7994 C   0  0  2  0  0  0  0  0  0  0  0  0
   15.9735  -12.6905  -15.6854 C   0  0  0  0  0  0  0  0  0  0  0  0
   18.2157  -11.8792  -16.4926 C   0  0  2  0  0  0  0  0  0  0  0  0
   19.5999  -12.2823  -16.6143 N   0  0  0  0  0  0  0  0  0  0  0  0
   18.1382  -10.5602  -15.8435 C   0  0  0  0  0  0  0  0  0  0  0  0
   17.0459   -9.9091  -15.7506 O   0  0  0  0  0  0  0  0  0  0  0  0
   19.2722   -9.9405  -15.2860 N   0  0  0  0  0  0  0  0  0  0  0  0
   19.1531   -8.7187  -14.4754 C   0  0  0  0  0  0  0  0  0  0  0  0
   20.4671   -8.0691  -14.3066 C   0  0  0  0  0  0  0  0  0  0  0  0
   21.4836   -8.7971  -14.1816 O   0  0  0  0  0  0  0  0  0  0  0  0
   22.1001   -6.4038  -16.7910 C   0  0  0  0  0  0  0  0  0  0  0  0
   22.0942   -5.3924  -15.6919 C   0  0  1  0  0  0  0  0  0  0  0  0
   21.0440   -4.4727  -15.9120 O   0  0  0  0  0  0  0  0  0  0  0  0
   21.8981   -5.9959  -14.3200 C   0  0  2  0  0  0  0  0  0  0  0  0
   20.6408   -6.6764  -14.2785 N   0  0  0  0  0  0  0  0  0  0  0  0
   22.1014   -5.0399  -13.2367 C   0  0  0  0  0  0  0  0  0  0  0  0
   21.1530   -4.6547  -12.5153 O   0  0  0  0  0  0  0  0  0  0  0  0
   23.3639   -4.5359  -12.9853 O   0  0  0  0  0  0  0  0  0  0  0  0
  2  1  1  6
  2  4  1  0
  3  2  1  0
  4  5  1  1
  6  4  1  0
  6  7  2  0
  8  6  1  0
  9  8  1  0
  9 10  1  0
 10 11  2  0
 10 16  1  0
 13 12  1  6
 13 15  1  0
 14 13  1  0
 15 17  1  0
 15 16  1  6
 17 18  2  0
 17 19  1  0
M  END
$$$$
