VGT.pdb
     RDKit          3D

 19 18  0  0  1  0  0  0  0  0999 V2000
   26.7501  -13.6010  -17.0229 C   0  0  0  0  0  0  0  0  0  0  0  0
   26.5496  -12.1190  -16.7897 C   0  0  2  0  0  0  0  0  0  0  0  0
   27.3238  -11.7258  -15.5770 C   0  0  0  0  0  0  0  0  0  0  0  0
   25.1064  -11.7303  -16.7690 C   0  0  2  0  0  0  0  0  0  0  0  0
   24.4716  -12.1454  -18.0010 N   0  0  0  0  0  0  0  0  0  0  0  0
   24.8706  -10.2940  -16.5486 C   0  0  0  0  0  0  0  0  0  0  0  0
   25.1264   -9.7237  -15.4374 O   0  0  0  0  0  0  0  0  0  0  0  0
   24.3465   -9.4653  -17.5583 N   0  0  0  0  0  0  0  0  0  0  0  0
   24.0584   -8.0448  -17.3066 C   0  0  0  0  0  0  0  0  0  0  0  0
   22.6083   -7.8218  -17.1502 C   0  0  0  0  0  0  0  0  0  0  0  0
   21.8997   -7.7413  -18.1848 O   0  0  0  0  0  0  0  0  0  0  0  0
   20.2048  -10.0069  -16.0781 C   0  0  0  0  0  0  0  0  0  0  0  0
   20.0096   -8.8474  -15.1570 C   0  0  1  0  0  0  0  0  0  0  0  0
   20.6520   -9.1171  -13.9275 O   0  0  0  0  0  0  0  0  0  0  0  0
   20.5700   -7.5507  -15.6949 C   0  0  2  0  0  0  0  0  0  0  0  0
   21.9778   -7.6945  -15.9025 N   0  0  0  0  0  0  0  0  0  0  0  0
   20.1946   -6.3875  -14.8980 C   0  0  0  0  0  0  0  0  0  0  0  0
   19.0001   -6.0296  -14.7824 O   0  0  0  0  0  0  0  0  0  0  0  0
   21.1666   -5.6503  -14.2478 O   0  0  0  0  0  0  0  0  0  0  0  0
  2  1  1  1
  2  4  1  0
  3  2  1  0
  4  5  1  6
  6  4  1  0
  6  7  2  0
  8  6  1  0
  9  8  1  0
  9 10  1  0
 10 11  2  0
 10 16  1  0
 13 12  1  6
 13 15  1  0
 14 13  1  0
 15 17  1  0
 15 16  1  1
 17 18  2  0
 17 19  1  0
M  END
$$$$
