VGT.pdb
     RDKit          3D

 19 18  0  0  1  0  0  0  0  0999 V2000
   16.0015  -12.3406  -18.2023 C   0  0  0  0  0  0  0  0  0  0  0  0
   16.5456  -13.2141  -19.3122 C   0  0  2  0  0  0  0  0  0  0  0  0
   15.9569  -14.5769  -19.1682 C   0  0  0  0  0  0  0  0  0  0  0  0
   18.0377  -13.1780  -19.3932 C   0  0  2  0  0  0  0  0  0  0  0  0
   18.6047  -13.8985  -18.2740 N   0  0  0  0  0  0  0  0  0  0  0  0
   18.6071  -11.8216  -19.4499 C   0  0  0  0  0  0  0  0  0  0  0  0
   18.4083  -11.0394  -20.4369 O   0  0  0  0  0  0  0  0  0  0  0  0
   19.4075  -11.3095  -18.4116 N   0  0  0  0  0  0  0  0  0  0  0  0
   19.8815   -9.9170  -18.4294 C   0  0  0  0  0  0  0  0  0  0  0  0
   19.9041   -9.3515  -17.0668 C   0  0  0  0  0  0  0  0  0  0  0  0
   18.8372   -9.3457  -16.4029 O   0  0  0  0  0  0  0  0  0  0  0  0
   21.6520  -10.8177  -14.4530 C   0  0  0  0  0  0  0  0  0  0  0  0
   22.1125   -9.3980  -14.3958 C   0  0  1  0  0  0  0  0  0  0  0  0
   23.3826   -9.2962  -15.0070 O   0  0  0  0  0  0  0  0  0  0  0  0
   21.1839   -8.4353  -15.0999 C   0  0  2  0  0  0  0  0  0  0  0  0
   21.0585   -8.8182  -16.4722 N   0  0  0  0  0  0  0  0  0  0  0  0
   21.5434   -7.0361  -14.8956 C   0  0  0  0  0  0  0  0  0  0  0  0
   21.8946   -6.3033  -15.8485 O   0  0  0  0  0  0  0  0  0  0  0  0
   21.5015   -6.4881  -13.6271 O   0  0  0  0  0  0  0  0  0  0  0  0
  2  1  1  1
  2  4  1  0
  3  2  1  0
  4  5  1  1
  6  4  1  0
  6  7  2  0
  8  6  1  0
  9  8  1  0
  9 10  1  0
 10 11  2  0
 10 16  1  0
 13 12  1  6
 13 15  1  0
 14 13  1  0
 15 17  1  0
 15 16  1  6
 17 18  2  0
 17 19  1  0
M  END
$$$$
