VGT.pdb
     RDKit          3D

 19 18  0  0  1  0  0  0  0  0999 V2000
   17.7642  -19.8106  -17.9407 C   0  0  0  0  0  0  0  0  0  0  0  0
   19.1746  -19.4223  -17.5522 C   0  0  2  0  0  0  0  0  0  0  0  0
   19.9924  -19.3198  -18.7952 C   0  0  0  0  0  0  0  0  0  0  0  0
   19.7450  -20.3114  -16.4946 C   0  0  2  0  0  0  0  0  0  0  0  0
   18.8730  -20.3180  -15.3402 N   0  0  0  0  0  0  0  0  0  0  0  0
   21.1130  -19.9577  -16.0811 C   0  0  0  0  0  0  0  0  0  0  0  0
   22.0999  -19.9946  -16.8874 O   0  0  0  0  0  0  0  0  0  0  0  0
   21.4094  -19.5569  -14.7649 N   0  0  0  0  0  0  0  0  0  0  0  0
   22.7835  -19.2220  -14.3604 C   0  0  0  0  0  0  0  0  0  0  0  0
   23.3064  -20.2144  -13.4018 C   0  0  0  0  0  0  0  0  0  0  0  0
   22.5165  -21.0763  -12.9413 O   0  0  0  0  0  0  0  0  0  0  0  0
   26.8451  -21.7784  -13.9854 C   0  0  0  0  0  0  0  0  0  0  0  0
   26.6685  -21.4566  -12.5376 C   0  0  1  0  0  0  0  0  0  0  0  0
   27.3741  -20.2700  -12.2356 O   0  0  0  0  0  0  0  0  0  0  0  0
   25.2253  -21.2486  -12.1392 C   0  0  2  0  0  0  0  0  0  0  0  0
   24.6439  -20.2455  -12.9767 N   0  0  0  0  0  0  0  0  0  0  0  0
   25.0513  -21.0143  -10.7096 C   0  0  0  0  0  0  0  0  0  0  0  0
   24.5751  -19.9411  -10.2740 O   0  0  0  0  0  0  0  0  0  0  0  0
   25.4151  -21.9884   -9.7986 O   0  0  0  0  0  0  0  0  0  0  0  0
  2  1  1  6
  2  4  1  0
  3  2  1  0
  4  5  1  1
  6  4  1  0
  6  7  2  0
  8  6  1  0
  9  8  1  0
  9 10  1  0
 10 11  2  0
 10 16  1  0
 13 12  1  6
 13 15  1  0
 14 13  1  0
 15 17  1  0
 15 16  1  6
 17 18  2  0
 17 19  1  0
M  END
$$$$
