VGT.pdb
     RDKit          3D

 19 18  0  0  1  0  0  0  0  0999 V2000
   28.5789  -22.7483  -18.1228 C   0  0  0  0  0  0  0  0  0  0  0  0
   27.3137  -22.6549  -17.2973 C   0  0  2  0  0  0  0  0  0  0  0  0
   26.9254  -21.2184  -17.1947 C   0  0  0  0  0  0  0  0  0  0  0  0
   27.4255  -23.3719  -15.9906 C   0  0  2  0  0  0  0  0  0  0  0  0
   27.7381  -24.7651  -16.2236 N   0  0  0  0  0  0  0  0  0  0  0  0
   26.2286  -23.2675  -15.1397 C   0  0  0  0  0  0  0  0  0  0  0  0
   25.2307  -24.0506  -15.2677 O   0  0  0  0  0  0  0  0  0  0  0  0
   26.1185  -22.2916  -14.1316 N   0  0  0  0  0  0  0  0  0  0  0  0
   24.9248  -22.2097  -13.2759 C   0  0  0  0  0  0  0  0  0  0  0  0
   23.9071  -21.3256  -13.8758 C   0  0  0  0  0  0  0  0  0  0  0  0
   24.2938  -20.3411  -14.5540 O   0  0  0  0  0  0  0  0  0  0  0  0
   21.1059  -22.4969  -16.0831 C   0  0  0  0  0  0  0  0  0  0  0  0
   20.5033  -21.6462  -15.0135 C   0  0  1  0  0  0  0  0  0  0  0  0
   19.9357  -22.4783  -14.0223 O   0  0  0  0  0  0  0  0  0  0  0  0
   21.5013  -20.7362  -14.3349 C   0  0  2  0  0  0  0  0  0  0  0  0
   22.5259  -21.5280  -13.7276 N   0  0  0  0  0  0  0  0  0  0  0  0
   20.8793  -19.7665  -13.4394 C   0  0  0  0  0  0  0  0  0  0  0  0
   21.1184  -19.7615  -12.2101 O   0  0  0  0  0  0  0  0  0  0  0  0
   20.0024  -18.8231  -13.9413 O   0  0  0  0  0  0  0  0  0  0  0  0
  2  1  1  1
  2  4  1  0
  3  2  1  0
  4  5  1  6
  6  4  1  0
  6  7  2  0
  8  6  1  0
  9  8  1  0
  9 10  1  0
 10 11  2  0
 10 16  1  0
 13 12  1  6
 13 15  1  0
 14 13  1  0
 15 17  1  0
 15 16  1  1
 17 18  2  0
 17 19  1  0
M  END
$$$$
