VGT.pdb
     RDKit          3D

 19 18  0  0  1  0  0  0  0  0999 V2000
   19.3680  -13.7135  -15.5545 C   0  0  0  0  0  0  0  0  0  0  0  0
   18.0141  -13.0661  -15.3581 C   0  0  2  0  0  0  0  0  0  0  0  0
   16.9941  -14.1451  -15.2164 C   0  0  0  0  0  0  0  0  0  0  0  0
   17.7082  -12.0440  -16.4050 C   0  0  2  0  0  0  0  0  0  0  0  0
   17.3996  -12.7033  -17.6553 N   0  0  0  0  0  0  0  0  0  0  0  0
   18.7791  -11.0561  -16.6161 C   0  0  0  0  0  0  0  0  0  0  0  0
   19.6486  -11.1802  -17.5403 O   0  0  0  0  0  0  0  0  0  0  0  0
   18.9037   -9.9129  -15.8047 N   0  0  0  0  0  0  0  0  0  0  0  0
   20.0840   -9.0394  -15.8930 C   0  0  0  0  0  0  0  0  0  0  0  0
   19.9378   -7.8665  -15.0098 C   0  0  0  0  0  0  0  0  0  0  0  0
   18.9141   -7.7860  -14.2856 O   0  0  0  0  0  0  0  0  0  0  0  0
   23.1574   -5.0004  -14.7039 C   0  0  0  0  0  0  0  0  0  0  0  0
   22.2859   -5.4407  -13.5737 C   0  0  1  0  0  0  0  0  0  0  0  0
   22.2279   -4.4143  -12.6040 O   0  0  0  0  0  0  0  0  0  0  0  0
   20.8691   -5.7575  -13.9945 C   0  0  2  0  0  0  0  0  0  0  0  0
   20.8855   -6.8335  -14.9366 N   0  0  0  0  0  0  0  0  0  0  0  0
   20.1236   -4.5831  -14.4346 C   0  0  0  0  0  0  0  0  0  0  0  0
   19.9982   -4.3029  -15.6487 O   0  0  0  0  0  0  0  0  0  0  0  0
   19.5344   -3.7476  -13.5040 O   0  0  0  0  0  0  0  0  0  0  0  0
  2  1  1  6
  2  4  1  0
  3  2  1  0
  4  5  1  6
  6  4  1  0
  6  7  2  0
  8  6  1  0
  9  8  1  0
  9 10  1  0
 10 11  2  0
 10 16  1  0
 13 12  1  6
 13 15  1  0
 14 13  1  0
 15 17  1  0
 15 16  1  6
 17 18  2  0
 17 19  1  0
M  END
$$$$
