HTV.pdb
     RDKit          3D

 25 25  0  0  1  0  0  0  0  0999 V2000
   10.3790  -17.5308   18.7210 N   0  0  0  0  0  0  0  0  0  0  0  0
   10.7617  -17.2675   20.0846 C   0  0  1  0  0  0  0  0  0  0  0  0
   12.1893  -16.7493   20.1077 C   0  0  0  0  0  0  0  0  0  0  0  0
   13.1501  -17.8611   19.8954 C   0  0  0  0  0  0  0  0  0  0  0  0
   13.7665  -18.6245   20.8685 C   0  0  0  0  0  0  0  0  0  0  0  0
   14.5655  -19.5310   20.2930 N   0  0  0  0  0  0  0  0  0  0  0  0
   14.4574  -19.3448   18.9645 C   0  0  0  0  0  0  0  0  0  0  0  0
   13.6090  -18.3438   18.7253 N   0  0  0  0  0  0  0  0  0  0  0  0
    9.8239  -16.2671   20.6726 C   0  0  0  0  0  0  0  0  0  0  0  0
    9.4910  -15.2420   20.0367 O   0  0  0  0  0  0  0  0  0  0  0  0
    6.5876  -16.3915   20.9036 C   0  0  0  0  0  0  0  0  0  0  0  0
    6.9010  -16.0980   22.3679 C   0  0  1  0  0  0  0  0  0  0  0  0
    6.6637  -17.2522   23.0854 O   0  0  0  0  0  0  0  0  0  0  0  0
    8.3022  -15.5875   22.5020 C   0  0  2  0  0  0  0  0  0  0  0  0
    9.3014  -16.4828   21.9749 N   0  0  0  0  0  0  0  0  0  0  0  0
    8.6260  -15.0520   23.8501 C   0  0  0  0  0  0  0  0  0  0  0  0
    9.5955  -15.4527   24.5378 O   0  0  0  0  0  0  0  0  0  0  0  0
    5.6812  -12.9033   26.1444 C   0  0  0  0  0  0  0  0  0  0  0  0
    7.1099  -12.4677   26.1548 C   0  0  1  0  0  0  0  0  0  0  0  0
    7.4900  -11.8874   27.4835 C   0  0  0  0  0  0  0  0  0  0  0  0
    8.0740  -13.5898   25.8149 C   0  0  2  0  0  0  0  0  0  0  0  0
    7.8324  -14.0326   24.4416 N   0  0  0  0  0  0  0  0  0  0  0  0
    7.9303  -14.7539   26.7044 C   0  0  0  0  0  0  0  0  0  0  0  0
    7.1307  -15.6954   26.4623 O   0  0  0  0  0  0  0  0  0  0  0  0
    8.6806  -14.8782   27.8765 O   0  0  0  0  0  0  0  0  0  0  0  0
  2  1  1  6
  3  2  1  0
  3  4  1  0
  4  5  2  0
  5  6  1  0
  7  6  1  0
  8  4  1  0
  8  7  2  0
  9 10  2  0
  9  2  1  0
 12 11  1  6
 12 14  1  0
 13 12  1  0
 14 16  1  0
 14 15  1  1
 15  9  1  0
 16 22  1  0
 17 16  2  0
 19 20  1  1
 19 18  1  0
 21 19  1  0
 21 22  1  6
 23 25  1  0
 23 21  1  0
 24 23  2  0
M  END
$$$$
