HTV.pdb
     RDKit          3D

 25 25  0  0  1  0  0  0  0  0999 V2000
   10.5067  -17.0164   18.5274 N   0  0  0  0  0  0  0  0  0  0  0  0
   10.5129  -17.2415   19.9502 C   0  0  1  0  0  0  0  0  0  0  0  0
   11.9438  -17.1793   20.4558 C   0  0  0  0  0  0  0  0  0  0  0  0
   12.6753  -18.4219   20.1021 C   0  0  0  0  0  0  0  0  0  0  0  0
   12.1600  -19.5399   19.4741 C   0  0  0  0  0  0  0  0  0  0  0  0
   13.1223  -20.4579   19.3242 N   0  0  0  0  0  0  0  0  0  0  0  0
   14.2404  -19.9272   19.8530 C   0  0  0  0  0  0  0  0  0  0  0  0
   13.9731  -18.7065   20.3196 N   0  0  0  0  0  0  0  0  0  0  0  0
    9.6695  -16.2053   20.6142 C   0  0  0  0  0  0  0  0  0  0  0  0
    9.5743  -15.0502   20.1422 O   0  0  0  0  0  0  0  0  0  0  0  0
    6.1989  -16.2338   20.8780 C   0  0  0  0  0  0  0  0  0  0  0  0
    6.6189  -15.9976   22.3259 C   0  0  1  0  0  0  0  0  0  0  0  0
    6.3515  -17.1521   23.0321 O   0  0  0  0  0  0  0  0  0  0  0  0
    8.0558  -15.5803   22.3834 C   0  0  2  0  0  0  0  0  0  0  0  0
    8.9639  -16.5364   21.8008 N   0  0  0  0  0  0  0  0  0  0  0  0
    8.4874  -15.0739   23.7124 C   0  0  0  0  0  0  0  0  0  0  0  0
    9.5244  -15.4677   24.2980 O   0  0  0  0  0  0  0  0  0  0  0  0
    5.8235  -12.9409   26.3513 C   0  0  0  0  0  0  0  0  0  0  0  0
    7.2228  -12.4648   26.1358 C   0  0  1  0  0  0  0  0  0  0  0  0
    7.7727  -11.8208   27.3725 C   0  0  0  0  0  0  0  0  0  0  0  0
    8.1646  -13.5718   25.6980 C   0  0  2  0  0  0  0  0  0  0  0  0
    7.7265  -14.0924   24.4029 N   0  0  0  0  0  0  0  0  0  0  0  0
    8.2095  -14.6924   26.6516 C   0  0  0  0  0  0  0  0  0  0  0  0
    7.5149  -15.7320   26.5066 O   0  0  0  0  0  0  0  0  0  0  0  0
    9.0332  -14.6626   27.7799 O   0  0  0  0  0  0  0  0  0  0  0  0
  2  1  1  6
  3  2  1  0
  3  4  1  0
  4  5  2  0
  5  6  1  0
  7  6  1  0
  8  4  1  0
  8  7  2  0
  9 10  2  0
  9  2  1  0
 12 11  1  6
 12 14  1  0
 13 12  1  0
 14 16  1  0
 14 15  1  1
 15  9  1  0
 16 22  1  0
 17 16  2  0
 19 20  1  1
 19 18  1  0
 21 19  1  0
 21 22  1  6
 23 25  1  0
 23 21  1  0
 24 23  2  0
M  END
$$$$
