HTV.pdb
     RDKit          3D

 25 25  0  0  1  0  0  0  0  0999 V2000
    8.9292  -18.8873   19.9846 N   0  0  0  0  0  0  0  0  0  0  0  0
    9.2905  -17.5193   20.2554 C   0  0  1  0  0  0  0  0  0  0  0  0
    9.1842  -16.7149   18.9714 C   0  0  0  0  0  0  0  0  0  0  0  0
   10.3443  -16.9908   18.0869 C   0  0  0  0  0  0  0  0  0  0  0  0
   11.6829  -16.8783   18.4117 C   0  0  0  0  0  0  0  0  0  0  0  0
   12.4339  -17.2118   17.3553 N   0  0  0  0  0  0  0  0  0  0  0  0
   11.5790  -17.5337   16.3669 C   0  0  0  0  0  0  0  0  0  0  0  0
   10.3260  -17.4014   16.8049 N   0  0  0  0  0  0  0  0  0  0  0  0
    8.3810  -16.9702   21.3030 C   0  0  0  0  0  0  0  0  0  0  0  0
    7.1994  -16.6584   21.0336 O   0  0  0  0  0  0  0  0  0  0  0  0
    6.4626  -18.3134   23.2526 C   0  0  0  0  0  0  0  0  0  0  0  0
    7.2185  -17.5160   24.3115 C   0  0  1  0  0  0  0  0  0  0  0  0
    8.0337  -18.3952   24.9937 O   0  0  0  0  0  0  0  0  0  0  0  0
    7.9620  -16.3851   23.6707 C   0  0  2  0  0  0  0  0  0  0  0  0
    8.8653  -16.7992   22.6265 N   0  0  0  0  0  0  0  0  0  0  0  0
    8.5593  -15.4272   24.6375 C   0  0  0  0  0  0  0  0  0  0  0  0
    9.7941  -15.2338   24.7446 O   0  0  0  0  0  0  0  0  0  0  0  0
    7.3980  -11.7365   25.3368 C   0  0  0  0  0  0  0  0  0  0  0  0
    7.4672  -12.5132   26.6108 C   0  0  1  0  0  0  0  0  0  0  0  0
    6.0995  -12.9084   27.0797 C   0  0  0  0  0  0  0  0  0  0  0  0
    8.3273  -13.7590   26.4993 C   0  0  2  0  0  0  0  0  0  0  0  0
    7.7393  -14.6631   25.5108 N   0  0  0  0  0  0  0  0  0  0  0  0
    8.4449  -14.4865   27.7737 C   0  0  0  0  0  0  0  0  0  0  0  0
    7.9608  -15.6359   27.9435 O   0  0  0  0  0  0  0  0  0  0  0  0
    9.1064  -13.9354   28.8742 O   0  0  0  0  0  0  0  0  0  0  0  0
  2  1  1  6
  3  2  1  0
  3  4  1  0
  4  5  2  0
  5  6  1  0
  7  6  1  0
  8  4  1  0
  8  7  2  0
  9 10  2  0
  9  2  1  0
 12 11  1  6
 12 14  1  0
 13 12  1  0
 14 16  1  0
 14 15  1  1
 15  9  1  0
 16 22  1  0
 17 16  2  0
 19 20  1  6
 19 18  1  0
 21 19  1  0
 21 22  1  6
 23 25  1  0
 23 21  1  0
 24 23  2  0
M  END
$$$$
