HTV.pdb
     RDKit          3D

 25 25  0  0  1  0  0  0  0  0999 V2000
   11.4475  -16.4652   19.2981 N   0  0  0  0  0  0  0  0  0  0  0  0
   11.4369  -17.0900   20.5960 C   0  0  1  0  0  0  0  0  0  0  0  0
   12.8497  -17.5202   20.9508 C   0  0  0  0  0  0  0  0  0  0  0  0
   13.1773  -18.8156   20.3037 C   0  0  0  0  0  0  0  0  0  0  0  0
   12.3494  -19.9149   20.1776 C   0  0  0  0  0  0  0  0  0  0  0  0
   12.9951  -20.8958   19.5356 N   0  0  0  0  0  0  0  0  0  0  0  0
   14.2238  -20.4232   19.2559 C   0  0  0  0  0  0  0  0  0  0  0  0
   14.3338  -19.1761   19.7161 N   0  0  0  0  0  0  0  0  0  0  0  0
   10.9080  -16.1227   21.6014 C   0  0  0  0  0  0  0  0  0  0  0  0
   11.4032  -14.9797   21.7208 O   0  0  0  0  0  0  0  0  0  0  0  0
    7.4679  -14.7663   22.0178 C   0  0  0  0  0  0  0  0  0  0  0  0
    7.8499  -15.3684   23.3669 C   0  0  1  0  0  0  0  0  0  0  0  0
    7.1121  -16.5221   23.5335 O   0  0  0  0  0  0  0  0  0  0  0  0
    9.3294  -15.5898   23.4313 C   0  0  2  0  0  0  0  0  0  0  0  0
    9.8252  -16.5066   22.4355 N   0  0  0  0  0  0  0  0  0  0  0  0
    9.8441  -15.8535   24.8004 C   0  0  0  0  0  0  0  0  0  0  0  0
   10.4792  -16.8894   25.1119 O   0  0  0  0  0  0  0  0  0  0  0  0
   10.6574  -12.7079   27.4509 C   0  0  0  0  0  0  0  0  0  0  0  0
    9.9909  -13.9109   28.0337 C   0  0  1  0  0  0  0  0  0  0  0  0
    8.5242  -13.6747   28.2330 C   0  0  0  0  0  0  0  0  0  0  0  0
   10.1774  -15.1588   27.1899 C   0  0  2  0  0  0  0  0  0  0  0  0
    9.6365  -14.9203   25.8516 N   0  0  0  0  0  0  0  0  0  0  0  0
    9.4989  -16.3363   27.7558 C   0  0  0  0  0  0  0  0  0  0  0  0
    8.4225  -16.7879   27.2849 O   0  0  0  0  0  0  0  0  0  0  0  0
   10.0178  -17.0229   28.8566 O   0  0  0  0  0  0  0  0  0  0  0  0
  2  1  1  6
  3  2  1  0
  3  4  1  0
  4  5  2  0
  5  6  1  0
  7  6  1  0
  8  4  1  0
  8  7  2  0
  9 10  2  0
  9  2  1  0
 12 11  1  6
 12 14  1  0
 13 12  1  0
 14 16  1  0
 14 15  1  6
 15  9  1  0
 16 22  1  0
 17 16  2  0
 19 20  1  6
 19 18  1  0
 21 19  1  0
 21 22  1  6
 23 25  1  0
 23 21  1  0
 24 23  2  0
M  END
$$$$
