HTV.pdb
     RDKit          3D

 25 25  0  0  1  0  0  0  0  0999 V2000
    8.5187  -16.2364   19.8274 N   0  0  0  0  0  0  0  0  0  0  0  0
    8.1978  -15.0381   20.5597 C   0  0  1  0  0  0  0  0  0  0  0  0
    7.0548  -14.3216   19.8616 C   0  0  0  0  0  0  0  0  0  0  0  0
    7.4035  -14.0411   18.4460 C   0  0  0  0  0  0  0  0  0  0  0  0
    8.1133  -12.9580   17.9634 C   0  0  0  0  0  0  0  0  0  0  0  0
    8.2285  -13.0495   16.6332 N   0  0  0  0  0  0  0  0  0  0  0  0
    7.5967  -14.1821   16.2734 C   0  0  0  0  0  0  0  0  0  0  0  0
    7.1018  -14.7771   17.3598 N   0  0  0  0  0  0  0  0  0  0  0  0
    7.8217  -15.4031   21.9565 C   0  0  0  0  0  0  0  0  0  0  0  0
    6.6971  -15.1094   22.4205 O   0  0  0  0  0  0  0  0  0  0  0  0
    7.6844  -18.6605   23.6165 C   0  0  0  0  0  0  0  0  0  0  0  0
    8.5566  -17.8058   24.5317 C   0  0  1  0  0  0  0  0  0  0  0  0
    9.8448  -18.2933   24.4558 O   0  0  0  0  0  0  0  0  0  0  0  0
    8.4399  -16.3619   24.1526 C   0  0  2  0  0  0  0  0  0  0  0  0
    8.7557  -16.0948   22.7718 N   0  0  0  0  0  0  0  0  0  0  0  0
    9.0908  -15.4293   25.1095 C   0  0  0  0  0  0  0  0  0  0  0  0
   10.2399  -14.9562   24.9393 O   0  0  0  0  0  0  0  0  0  0  0  0
    7.6766  -12.1294   26.3241 C   0  0  0  0  0  0  0  0  0  0  0  0
    8.0319  -12.9538   27.5179 C   0  0  1  0  0  0  0  0  0  0  0  0
    6.8128  -13.5753   28.1296 C   0  0  0  0  0  0  0  0  0  0  0  0
    9.0366  -14.0477   27.2050 C   0  0  2  0  0  0  0  0  0  0  0  0
    8.4254  -15.0168   26.2953 N   0  0  0  0  0  0  0  0  0  0  0  0
    9.4880  -14.7680   28.4069 C   0  0  0  0  0  0  0  0  0  0  0  0
   10.1295  -14.2048   29.3319 O   0  0  0  0  0  0  0  0  0  0  0  0
    9.2263  -16.1286   28.5879 O   0  0  0  0  0  0  0  0  0  0  0  0
  2  1  1  6
  3  2  1  0
  3  4  1  0
  4  5  2  0
  5  6  1  0
  7  6  1  0
  8  4  1  0
  8  7  2  0
  9 10  2  0
  9  2  1  0
 12 11  1  6
 12 14  1  0
 13 12  1  0
 14 16  1  0
 14 15  1  6
 15  9  1  0
 16 22  1  0
 17 16  2  0
 19 20  1  6
 19 18  1  0
 21 19  1  0
 21 22  1  6
 23 25  1  0
 23 21  1  0
 24 23  2  0
M  END
$$$$
