HTV.pdb
     RDKit          3D

 25 25  0  0  1  0  0  0  0  0999 V2000
   10.4941  -15.5436   18.5777 N   0  0  0  0  0  0  0  0  0  0  0  0
   10.9365  -15.4701   19.9466 C   0  0  1  0  0  0  0  0  0  0  0  0
   11.7790  -14.2195   20.1289 C   0  0  0  0  0  0  0  0  0  0  0  0
   13.1431  -14.4264   19.5806 C   0  0  0  0  0  0  0  0  0  0  0  0
   14.1749  -15.1369   20.1641 C   0  0  0  0  0  0  0  0  0  0  0  0
   15.2529  -15.1012   19.3718 N   0  0  0  0  0  0  0  0  0  0  0  0
   14.9086  -14.3735   18.2932 C   0  0  0  0  0  0  0  0  0  0  0  0
   13.6438  -13.9686   18.4177 N   0  0  0  0  0  0  0  0  0  0  0  0
    9.7462  -15.4443   20.8458 C   0  0  0  0  0  0  0  0  0  0  0  0
    8.7515  -14.7327   20.5806 O   0  0  0  0  0  0  0  0  0  0  0  0
    6.7263  -17.3950   23.9988 C   0  0  0  0  0  0  0  0  0  0  0  0
    7.9724  -17.5436   23.1306 C   0  0  1  0  0  0  0  0  0  0  0  0
    7.5960  -18.1779   21.9648 O   0  0  0  0  0  0  0  0  0  0  0  0
    8.6058  -16.2055   22.9060 C   0  0  2  0  0  0  0  0  0  0  0  0
    9.7433  -16.2405   22.0212 N   0  0  0  0  0  0  0  0  0  0  0  0
    8.8365  -15.4273   24.1510 C   0  0  0  0  0  0  0  0  0  0  0  0
    9.9488  -15.3591   24.7267 O   0  0  0  0  0  0  0  0  0  0  0  0
    6.9315  -12.4058   27.6423 C   0  0  0  0  0  0  0  0  0  0  0  0
    6.8464  -13.0738   26.3090 C   0  0  1  0  0  0  0  0  0  0  0  0
    6.8702  -12.0691   25.1969 C   0  0  0  0  0  0  0  0  0  0  0  0
    7.9549  -14.0853   26.0812 C   0  0  2  0  0  0  0  0  0  0  0  0
    7.7802  -14.7029   24.7664 N   0  0  0  0  0  0  0  0  0  0  0  0
    7.9673  -15.1550   27.0925 C   0  0  0  0  0  0  0  0  0  0  0  0
    7.2404  -16.1786   27.0032 O   0  0  0  0  0  0  0  0  0  0  0  0
    8.7944  -15.0914   28.2169 O   0  0  0  0  0  0  0  0  0  0  0  0
  2  1  1  6
  3  2  1  0
  3  4  1  0
  4  5  2  0
  5  6  1  0
  7  6  1  0
  8  4  1  0
  8  7  2  0
  9 10  2  0
  9  2  1  0
 12 11  1  1
 12 14  1  0
 13 12  1  0
 14 16  1  0
 14 15  1  1
 15  9  1  0
 16 22  1  0
 17 16  2  0
 19 20  1  6
 19 18  1  0
 21 19  1  0
 21 22  1  6
 23 25  1  0
 23 21  1  0
 24 23  2  0
M  END
$$$$
