HTV.pdb
     RDKit          3D

 25 25  0  0  1  0  0  0  0  0999 V2000
   11.2463  -16.9215   19.2748 N   0  0  0  0  0  0  0  0  0  0  0  0
   10.9644  -17.2790   20.6415 C   0  0  1  0  0  0  0  0  0  0  0  0
   12.2742  -17.5314   21.3682 C   0  0  0  0  0  0  0  0  0  0  0  0
   12.7951  -18.8841   21.0474 C   0  0  0  0  0  0  0  0  0  0  0  0
   12.4731  -20.0705   21.6789 C   0  0  0  0  0  0  0  0  0  0  0  0
   13.1423  -21.0809   21.1111 N   0  0  0  0  0  0  0  0  0  0  0  0
   13.8838  -20.5406   20.1264 C   0  0  0  0  0  0  0  0  0  0  0  0
   13.6761  -19.2235   20.0876 N   0  0  0  0  0  0  0  0  0  0  0  0
   10.2016  -16.1731   21.2903 C   0  0  0  0  0  0  0  0  0  0  0  0
   10.5610  -14.9808   21.1660 O   0  0  0  0  0  0  0  0  0  0  0  0
    6.6324  -15.3638   20.7062 C   0  0  0  0  0  0  0  0  0  0  0  0
    6.7928  -15.5060   22.2171 C   0  0  1  0  0  0  0  0  0  0  0  0
    6.2028  -16.6960   22.5896 O   0  0  0  0  0  0  0  0  0  0  0  0
    8.2394  -15.4121   22.5922 C   0  0  2  0  0  0  0  0  0  0  0  0
    9.0495  -16.4796   22.0610 N   0  0  0  0  0  0  0  0  0  0  0  0
    8.4754  -15.1385   24.0338 C   0  0  0  0  0  0  0  0  0  0  0  0
    9.2823  -15.7920   24.7377 O   0  0  0  0  0  0  0  0  0  0  0  0
    7.4140  -11.4070   25.7473 C   0  0  0  0  0  0  0  0  0  0  0  0
    7.1613  -12.6414   26.5494 C   0  0  1  0  0  0  0  0  0  0  0  0
    5.7199  -13.0467   26.4809 C   0  0  0  0  0  0  0  0  0  0  0  0
    8.0225  -13.8148   26.1185 C   0  0  2  0  0  0  0  0  0  0  0  0
    7.7805  -14.0955   24.7032 N   0  0  0  0  0  0  0  0  0  0  0  0
    7.7408  -15.0402   26.8840 C   0  0  0  0  0  0  0  0  0  0  0  0
    6.9918  -15.9529   26.4479 O   0  0  0  0  0  0  0  0  0  0  0  0
    8.2947  -15.2587   28.1481 O   0  0  0  0  0  0  0  0  0  0  0  0
  2  1  1  6
  3  2  1  0
  3  4  1  0
  4  5  2  0
  5  6  1  0
  7  6  1  0
  8  4  1  0
  8  7  2  0
  9 10  2  0
  9  2  1  0
 12 11  1  6
 12 14  1  0
 13 12  1  0
 14 16  1  0
 14 15  1  1
 15  9  1  0
 16 22  1  0
 17 16  2  0
 19 20  1  6
 19 18  1  0
 21 19  1  0
 21 22  1  6
 23 25  1  0
 23 21  1  0
 24 23  2  0
M  END
$$$$
