HTV.pdb
     RDKit          3D

 25 25  0  0  1  0  0  0  0  0999 V2000
   11.9505  -16.7797   19.8760 N   0  0  0  0  0  0  0  0  0  0  0  0
   12.2512  -17.2097   21.2175 C   0  0  1  0  0  0  0  0  0  0  0  0
   13.6659  -16.7833   21.5695 C   0  0  0  0  0  0  0  0  0  0  0  0
   14.6568  -17.6354   20.8650 C   0  0  0  0  0  0  0  0  0  0  0  0
   14.9556  -17.6214   19.5158 C   0  0  0  0  0  0  0  0  0  0  0  0
   15.9007  -18.5317   19.2526 N   0  0  0  0  0  0  0  0  0  0  0  0
   16.2002  -19.1195   20.4257 C   0  0  0  0  0  0  0  0  0  0  0  0
   15.4548  -18.5827   21.3929 N   0  0  0  0  0  0  0  0  0  0  0  0
   11.2645  -16.6049   22.1590 C   0  0  0  0  0  0  0  0  0  0  0  0
   10.7784  -15.4717   21.9453 O   0  0  0  0  0  0  0  0  0  0  0  0
    8.0606  -18.0705   23.0260 C   0  0  0  0  0  0  0  0  0  0  0  0
    8.6818  -17.7162   24.3741 C   0  0  1  0  0  0  0  0  0  0  0  0
    9.0133  -18.8975   25.0047 O   0  0  0  0  0  0  0  0  0  0  0  0
    9.8461  -16.7952   24.1781 C   0  0  2  0  0  0  0  0  0  0  0  0
   10.8714  -17.3278   23.3159 N   0  0  0  0  0  0  0  0  0  0  0  0
   10.3678  -16.2010   25.4365 C   0  0  0  0  0  0  0  0  0  0  0  0
   11.5183  -16.4273   25.8821 O   0  0  0  0  0  0  0  0  0  0  0  0
    9.4186  -12.4081   26.7683 C   0  0  0  0  0  0  0  0  0  0  0  0
    9.2727  -13.4916   27.7861 C   0  0  1  0  0  0  0  0  0  0  0  0
    7.8361  -13.8824   27.9598 C   0  0  0  0  0  0  0  0  0  0  0  0
   10.0822  -14.7314   27.4520 C   0  0  2  0  0  0  0  0  0  0  0  0
    9.5676  -15.3239   26.2172 N   0  0  0  0  0  0  0  0  0  0  0  0
   10.0234  -15.7530   28.5103 C   0  0  0  0  0  0  0  0  0  0  0  0
    9.4021  -16.8384   28.3688 O   0  0  0  0  0  0  0  0  0  0  0  0
   10.6601  -15.5714   29.7408 O   0  0  0  0  0  0  0  0  0  0  0  0
  2  1  1  6
  3  2  1  0
  3  4  1  0
  4  5  2  0
  5  6  1  0
  7  6  1  0
  8  4  1  0
  8  7  2  0
  9 10  2  0
  9  2  1  0
 12 11  1  6
 12 14  1  0
 13 12  1  0
 14 16  1  0
 14 15  1  1
 15  9  1  0
 16 22  1  0
 17 16  2  0
 19 20  1  6
 19 18  1  0
 21 19  1  0
 21 22  1  6
 23 25  1  0
 23 21  1  0
 24 23  2  0
M  END
$$$$
