HTV.pdb
     RDKit          3D

 25 25  0  0  1  0  0  0  0  0999 V2000
    8.4772  -16.4384   19.7718 N   0  0  0  0  0  0  0  0  0  0  0  0
    8.3558  -15.2410   20.5635 C   0  0  1  0  0  0  0  0  0  0  0  0
    7.1952  -14.4144   20.0375 C   0  0  0  0  0  0  0  0  0  0  0  0
    7.4175  -14.0511   18.6152 C   0  0  0  0  0  0  0  0  0  0  0  0
    8.2169  -13.0324   18.1323 C   0  0  0  0  0  0  0  0  0  0  0  0
    8.1655  -13.0128   16.7951 N   0  0  0  0  0  0  0  0  0  0  0  0
    7.3397  -14.0113   16.4312 C   0  0  0  0  0  0  0  0  0  0  0  0
    6.8909  -14.6342   17.5219 N   0  0  0  0  0  0  0  0  0  0  0  0
    8.1362  -15.6170   21.9905 C   0  0  0  0  0  0  0  0  0  0  0  0
    6.9813  -15.7178   22.4617 O   0  0  0  0  0  0  0  0  0  0  0  0
    8.4459  -18.5978   23.4691 C   0  0  0  0  0  0  0  0  0  0  0  0
    9.3242  -17.7615   24.3952 C   0  0  1  0  0  0  0  0  0  0  0  0
   10.6362  -18.1177   24.1610 O   0  0  0  0  0  0  0  0  0  0  0  0
    9.0531  -16.3040   24.1841 C   0  0  2  0  0  0  0  0  0  0  0  0
    9.2567  -15.8642   22.8265 N   0  0  0  0  0  0  0  0  0  0  0  0
    9.6747  -15.4180   25.2027 C   0  0  0  0  0  0  0  0  0  0  0  0
   10.7975  -14.8784   25.0558 O   0  0  0  0  0  0  0  0  0  0  0  0
    8.1755  -12.2908   26.6412 C   0  0  0  0  0  0  0  0  0  0  0  0
    8.5662  -13.1669   27.7862 C   0  0  1  0  0  0  0  0  0  0  0  0
    7.3710  -13.8515   28.3773 C   0  0  0  0  0  0  0  0  0  0  0  0
    9.5950  -14.2161   27.4055 C   0  0  2  0  0  0  0  0  0  0  0  0
    9.0097  -15.1307   26.4251 N   0  0  0  0  0  0  0  0  0  0  0  0
   10.0528  -15.0100   28.5575 C   0  0  0  0  0  0  0  0  0  0  0  0
    9.7610  -16.2261   28.6996 O   0  0  0  0  0  0  0  0  0  0  0  0
   10.8435  -14.4515   29.5651 O   0  0  0  0  0  0  0  0  0  0  0  0
  2  1  1  6
  3  2  1  0
  3  4  1  0
  4  5  2  0
  5  6  1  0
  7  6  1  0
  8  4  1  0
  8  7  2  0
  9 10  2  0
  9  2  1  0
 12 11  1  6
 12 14  1  0
 13 12  1  0
 14 16  1  0
 14 15  1  6
 15  9  1  0
 16 22  1  0
 17 16  2  0
 19 20  1  6
 19 18  1  0
 21 19  1  0
 21 22  1  6
 23 25  1  0
 23 21  1  0
 24 23  2  0
M  END
$$$$
