HTV.pdb
     RDKit          3D

 25 25  0  0  1  0  0  0  0  0999 V2000
   10.4524  -15.1523   18.3212 N   0  0  0  0  0  0  0  0  0  0  0  0
   10.8623  -14.9712   19.6902 C   0  0  1  0  0  0  0  0  0  0  0  0
   11.9022  -13.8659   19.7544 C   0  0  0  0  0  0  0  0  0  0  0  0
   13.2467  -14.3959   19.4145 C   0  0  0  0  0  0  0  0  0  0  0  0
   13.5733  -15.7051   19.1158 C   0  0  0  0  0  0  0  0  0  0  0  0
   14.8842  -15.7973   18.8621 N   0  0  0  0  0  0  0  0  0  0  0  0
   15.3865  -14.5562   18.9985 C   0  0  0  0  0  0  0  0  0  0  0  0
   14.4053  -13.7154   19.3296 N   0  0  0  0  0  0  0  0  0  0  0  0
    9.6695  -14.6269   20.5177 C   0  0  0  0  0  0  0  0  0  0  0  0
    8.9248  -13.6692   20.2105 O   0  0  0  0  0  0  0  0  0  0  0  0
    6.5726  -15.7677   20.9745 C   0  0  0  0  0  0  0  0  0  0  0  0
    7.0635  -15.8007   22.4190 C   0  0  1  0  0  0  0  0  0  0  0  0
    7.2238  -17.1236   22.7756 O   0  0  0  0  0  0  0  0  0  0  0  0
    8.3138  -14.9883   22.5563 C   0  0  2  0  0  0  0  0  0  0  0  0
    9.3756  -15.3992   21.6721 N   0  0  0  0  0  0  0  0  0  0  0  0
    8.7493  -14.7784   23.9618 C   0  0  0  0  0  0  0  0  0  0  0  0
    9.8546  -15.1690   24.4079 O   0  0  0  0  0  0  0  0  0  0  0  0
    7.7306  -11.4799   26.2791 C   0  0  0  0  0  0  0  0  0  0  0  0
    7.4981  -12.8141   26.9091 C   0  0  1  0  0  0  0  0  0  0  0  0
    6.0513  -13.2001   26.8427 C   0  0  0  0  0  0  0  0  0  0  0  0
    8.3304  -13.9183   26.2830 C   0  0  2  0  0  0  0  0  0  0  0  0
    7.9126  -14.1071   24.8936 N   0  0  0  0  0  0  0  0  0  0  0  0
    8.1894  -15.2054   26.9834 C   0  0  0  0  0  0  0  0  0  0  0  0
    7.4750  -16.1420   26.5399 O   0  0  0  0  0  0  0  0  0  0  0  0
    8.8471  -15.4596   28.1897 O   0  0  0  0  0  0  0  0  0  0  0  0
  2  1  1  6
  3  2  1  0
  3  4  1  0
  4  5  2  0
  5  6  1  0
  7  6  1  0
  8  4  1  0
  8  7  2  0
  9 10  2  0
  9  2  1  0
 12 11  1  6
 12 14  1  0
 13 12  1  0
 14 16  1  0
 14 15  1  6
 15  9  1  0
 16 22  1  0
 17 16  2  0
 19 20  1  6
 19 18  1  0
 21 19  1  0
 21 22  1  6
 23 25  1  0
 23 21  1  0
 24 23  2  0
M  END
$$$$
