HTV.pdb
     RDKit          3D

 25 25  0  0  1  0  0  0  0  0999 V2000
    8.4715  -16.4514   19.5553 N   0  0  0  0  0  0  0  0  0  0  0  0
    8.1404  -15.2098   20.2064 C   0  0  1  0  0  0  0  0  0  0  0  0
    7.0921  -14.4821   19.3826 C   0  0  0  0  0  0  0  0  0  0  0  0
    7.6206  -14.1632   18.0323 C   0  0  0  0  0  0  0  0  0  0  0  0
    8.4864  -13.1390   17.6988 C   0  0  0  0  0  0  0  0  0  0  0  0
    8.7364  -13.1684   16.3844 N   0  0  0  0  0  0  0  0  0  0  0  0
    8.0348  -14.2035   15.8865 C   0  0  0  0  0  0  0  0  0  0  0  0
    7.3656  -14.8004   16.8740 N   0  0  0  0  0  0  0  0  0  0  0  0
    7.6318  -15.4966   21.5794 C   0  0  0  0  0  0  0  0  0  0  0  0
    6.4146  -15.3949   21.8517 O   0  0  0  0  0  0  0  0  0  0  0  0
    7.2321  -18.3809   23.3415 C   0  0  0  0  0  0  0  0  0  0  0  0
    8.0624  -17.5679   24.3306 C   0  0  1  0  0  0  0  0  0  0  0  0
    9.3207  -18.1310   24.3816 O   0  0  0  0  0  0  0  0  0  0  0  0
    8.0685  -16.1243   23.9330 C   0  0  2  0  0  0  0  0  0  0  0  0
    8.5446  -15.8913   22.5925 N   0  0  0  0  0  0  0  0  0  0  0  0
    8.6651  -15.2182   24.9488 C   0  0  0  0  0  0  0  0  0  0  0  0
    9.8785  -14.9006   24.9634 O   0  0  0  0  0  0  0  0  0  0  0  0
    7.1465  -11.7929   25.9916 C   0  0  0  0  0  0  0  0  0  0  0  0
    7.4519  -12.5986   27.2118 C   0  0  1  0  0  0  0  0  0  0  0  0
    6.2041  -13.1830   27.8017 C   0  0  0  0  0  0  0  0  0  0  0  0
    8.4427  -13.7183   26.9499 C   0  0  2  0  0  0  0  0  0  0  0  0
    7.8689  -14.6519   25.9806 N   0  0  0  0  0  0  0  0  0  0  0  0
    8.7849  -14.4729   28.1666 C   0  0  0  0  0  0  0  0  0  0  0  0
    8.3945  -15.6534   28.3625 O   0  0  0  0  0  0  0  0  0  0  0  0
    9.5689  -13.9145   29.1796 O   0  0  0  0  0  0  0  0  0  0  0  0
  2  1  1  6
  3  2  1  0
  3  4  1  0
  4  5  2  0
  5  6  1  0
  7  6  1  0
  8  4  1  0
  8  7  2  0
  9 10  2  0
  9  2  1  0
 12 11  1  6
 12 14  1  0
 13 12  1  0
 14 16  1  0
 14 15  1  6
 15  9  1  0
 16 22  1  0
 17 16  2  0
 19 20  1  6
 19 18  1  0
 21 19  1  0
 21 22  1  6
 23 25  1  0
 23 21  1  0
 24 23  2  0
M  END
$$$$
