HTV.pdb
     RDKit          3D

 25 25  0  0  1  0  0  0  0  0999 V2000
   10.8638  -16.7347   19.0745 N   0  0  0  0  0  0  0  0  0  0  0  0
   11.1315  -15.8155   20.1510 C   0  0  1  0  0  0  0  0  0  0  0  0
   11.6144  -14.4981   19.5695 C   0  0  0  0  0  0  0  0  0  0  0  0
   13.0757  -14.5474   19.3119 C   0  0  0  0  0  0  0  0  0  0  0  0
   14.0824  -14.6588   20.2521 C   0  0  0  0  0  0  0  0  0  0  0  0
   15.2728  -14.6711   19.6404 N   0  0  0  0  0  0  0  0  0  0  0  0
   15.0242  -14.5682   18.3217 C   0  0  0  0  0  0  0  0  0  0  0  0
   13.7071  -14.4940   18.1240 N   0  0  0  0  0  0  0  0  0  0  0  0
    9.8862  -15.6191   20.9490 C   0  0  0  0  0  0  0  0  0  0  0  0
    8.9060  -15.0019   20.4753 O   0  0  0  0  0  0  0  0  0  0  0  0
    7.3018  -17.5790   21.9110 C   0  0  0  0  0  0  0  0  0  0  0  0
    7.7528  -17.0457   23.2677 C   0  0  1  0  0  0  0  0  0  0  0  0
    8.3408  -18.0891   23.9522 O   0  0  0  0  0  0  0  0  0  0  0  0
    8.6570  -15.8666   23.0825 C   0  0  2  0  0  0  0  0  0  0  0  0
    9.8134  -16.1416   22.2670 N   0  0  0  0  0  0  0  0  0  0  0  0
    8.9676  -15.1374   24.3398 C   0  0  0  0  0  0  0  0  0  0  0  0
   10.1033  -15.1316   24.8722 O   0  0  0  0  0  0  0  0  0  0  0  0
    7.4962  -11.4678   25.2495 C   0  0  0  0  0  0  0  0  0  0  0  0
    7.3310  -12.4617   26.3522 C   0  0  1  0  0  0  0  0  0  0  0  0
    5.9242  -12.9753   26.4128 C   0  0  0  0  0  0  0  0  0  0  0  0
    8.2798  -13.6406   26.2345 C   0  0  2  0  0  0  0  0  0  0  0  0
    7.9668  -14.3909   25.0181 N   0  0  0  0  0  0  0  0  0  0  0  0
    8.1882  -14.5626   27.3785 C   0  0  0  0  0  0  0  0  0  0  0  0
    8.5461  -14.2364   28.5403 O   0  0  0  0  0  0  0  0  0  0  0  0
    7.6943  -15.8618   27.2354 O   0  0  0  0  0  0  0  0  0  0  0  0
  2  1  1  6
  3  2  1  0
  3  4  1  0
  4  5  2  0
  5  6  1  0
  7  6  1  0
  8  4  1  0
  8  7  2  0
  9 10  2  0
  9  2  1  0
 12 11  1  6
 12 14  1  0
 13 12  1  0
 14 16  1  0
 14 15  1  1
 15  9  1  0
 16 22  1  0
 17 16  2  0
 19 20  1  6
 19 18  1  0
 21 19  1  0
 21 22  1  6
 23 25  1  0
 23 21  1  0
 24 23  2  0
M  END
$$$$
