HTV.pdb
     RDKit          3D

 25 25  0  0  1  0  0  0  0  0999 V2000
    8.4884  -18.7296   19.3427 N   0  0  0  0  0  0  0  0  0  0  0  0
    8.9502  -17.4229   19.7355 C   0  0  1  0  0  0  0  0  0  0  0  0
    8.9671  -16.5160   18.5171 C   0  0  0  0  0  0  0  0  0  0  0  0
   10.0299  -16.9370   17.5697 C   0  0  0  0  0  0  0  0  0  0  0  0
   11.3941  -16.9207   17.7899 C   0  0  0  0  0  0  0  0  0  0  0  0
   12.0325  -17.3737   16.7043 N   0  0  0  0  0  0  0  0  0  0  0  0
   11.0812  -17.6754   15.8014 C   0  0  0  0  0  0  0  0  0  0  0  0
    9.8802  -17.4138   16.3196 N   0  0  0  0  0  0  0  0  0  0  0  0
    8.0450  -16.8793   20.7896 C   0  0  0  0  0  0  0  0  0  0  0  0
    6.8071  -16.8271   20.6140 O   0  0  0  0  0  0  0  0  0  0  0  0
    6.2287  -17.8756   22.1930 C   0  0  0  0  0  0  0  0  0  0  0  0
    6.8096  -17.2739   23.4693 C   0  0  1  0  0  0  0  0  0  0  0  0
    7.4192  -18.2928   24.1717 O   0  0  0  0  0  0  0  0  0  0  0  0
    7.7326  -16.1441   23.1319 C   0  0  2  0  0  0  0  0  0  0  0  0
    8.5984  -16.4140   22.0114 N   0  0  0  0  0  0  0  0  0  0  0  0
    8.4331  -15.5620   24.3064 C   0  0  0  0  0  0  0  0  0  0  0  0
    9.6512  -15.7443   24.5441 O   0  0  0  0  0  0  0  0  0  0  0  0
    7.7434  -11.8043   25.5632 C   0  0  0  0  0  0  0  0  0  0  0  0
    7.7345  -12.7921   26.6836 C   0  0  1  0  0  0  0  0  0  0  0  0
    6.3347  -13.1095   27.1153 C   0  0  0  0  0  0  0  0  0  0  0  0
    8.4474  -14.0868   26.3378 C   0  0  2  0  0  0  0  0  0  0  0  0
    7.7390  -14.7487   25.2422 N   0  0  0  0  0  0  0  0  0  0  0  0
    8.5133  -15.0220   27.4728 C   0  0  0  0  0  0  0  0  0  0  0  0
    9.1810  -14.7788   28.5117 O   0  0  0  0  0  0  0  0  0  0  0  0
    7.8318  -16.2418   27.4583 O   0  0  0  0  0  0  0  0  0  0  0  0
  2  1  1  6
  3  2  1  0
  3  4  1  0
  4  5  2  0
  5  6  1  0
  7  6  1  0
  8  4  1  0
  8  7  2  0
  9 10  2  0
  9  2  1  0
 12 11  1  6
 12 14  1  0
 13 12  1  0
 14 16  1  0
 14 15  1  6
 15  9  1  0
 16 22  1  0
 17 16  2  0
 19 20  1  6
 19 18  1  0
 21 19  1  0
 21 22  1  6
 23 25  1  0
 23 21  1  0
 24 23  2  0
M  END
$$$$
