HTV.pdb
     RDKit          3D

 25 25  0  0  1  0  0  0  0  0999 V2000
   11.4741  -16.0692   20.2487 N   0  0  0  0  0  0  0  0  0  0  0  0
   11.4463  -17.0556   21.2982 C   0  0  1  0  0  0  0  0  0  0  0  0
   12.8713  -17.3779   21.7135 C   0  0  0  0  0  0  0  0  0  0  0  0
   13.5331  -18.2246   20.6891 C   0  0  0  0  0  0  0  0  0  0  0  0
   12.9464  -18.7919   19.5739 C   0  0  0  0  0  0  0  0  0  0  0  0
   13.8604  -19.4874   18.8868 N   0  0  0  0  0  0  0  0  0  0  0  0
   15.0189  -19.3628   19.5603 C   0  0  0  0  0  0  0  0  0  0  0  0
   14.8235  -18.6058   20.6410 N   0  0  0  0  0  0  0  0  0  0  0  0
   10.6647  -16.5222   22.4517 C   0  0  0  0  0  0  0  0  0  0  0  0
   10.7854  -15.3319   22.8186 O   0  0  0  0  0  0  0  0  0  0  0  0
    6.9691  -16.8570   25.6332 C   0  0  0  0  0  0  0  0  0  0  0  0
    7.7416  -17.5705   24.5274 C   0  0  1  0  0  0  0  0  0  0  0  0
    6.9337  -17.6063   23.4097 O   0  0  0  0  0  0  0  0  0  0  0  0
    9.0547  -16.8894   24.2949 C   0  0  2  0  0  0  0  0  0  0  0  0
    9.7697  -17.3801   23.1435 N   0  0  0  0  0  0  0  0  0  0  0  0
    9.8948  -16.7601   25.5141 C   0  0  0  0  0  0  0  0  0  0  0  0
   10.9786  -17.3710   25.6739 O   0  0  0  0  0  0  0  0  0  0  0  0
   10.0767  -13.1829   27.4775 C   0  0  0  0  0  0  0  0  0  0  0  0
    9.9957  -14.3628   28.3898 C   0  0  1  0  0  0  0  0  0  0  0  0
    8.6165  -14.5162   28.9564 C   0  0  0  0  0  0  0  0  0  0  0  0
   10.3971  -15.6621   27.7153 C   0  0  2  0  0  0  0  0  0  0  0  0
    9.5012  -15.9154   26.5868 N   0  0  0  0  0  0  0  0  0  0  0  0
   10.3307  -16.8196   28.6225 C   0  0  0  0  0  0  0  0  0  0  0  0
   11.1349  -16.9771   29.5779 O   0  0  0  0  0  0  0  0  0  0  0  0
    9.3622  -17.8154   28.4709 O   0  0  0  0  0  0  0  0  0  0  0  0
  2  1  1  6
  3  2  1  0
  3  4  1  0
  4  5  2  0
  5  6  1  0
  7  6  1  0
  8  4  1  0
  8  7  2  0
  9 10  2  0
  9  2  1  0
 12 11  1  1
 12 14  1  0
 13 12  1  0
 14 16  1  0
 14 15  1  6
 15  9  1  0
 16 22  1  0
 17 16  2  0
 19 20  1  6
 19 18  1  0
 21 19  1  0
 21 22  1  6
 23 25  1  0
 23 21  1  0
 24 23  2  0
M  END
$$$$
