LAA.pdb
     RDKit          3D

 19 18  0  0  1  0  0  0  0  0999 V2000
    9.6231  -13.2911   19.3136 C   0  0  0  0  0  0  0  0  0  0  0  0
    8.1254  -13.4326   19.5927 C   0  0  2  0  0  0  0  0  0  0  0  0
    7.4601  -12.0727   19.6311 C   0  0  0  0  0  0  0  0  0  0  0  0
    7.9715  -14.0598   20.9351 C   0  0  0  0  0  0  0  0  0  0  0  0
    8.6469  -15.4179   21.0237 C   0  0  2  0  0  0  0  0  0  0  0  0
    7.9493  -16.3638   20.2111 N   0  0  0  0  0  0  0  0  0  0  0  0
    8.7185  -15.8257   22.4508 C   0  0  0  0  0  0  0  0  0  0  0  0
    7.7691  -15.5715   23.2357 O   0  0  0  0  0  0  0  0  0  0  0  0
   10.8648  -18.1053   24.4611 C   0  0  0  0  0  0  0  0  0  0  0  0
    9.8757  -16.9645   24.3876 C   0  0  2  0  0  0  0  0  0  0  0  0
    9.8390  -16.5115   22.9997 N   0  0  0  0  0  0  0  0  0  0  0  0
   10.2149  -15.8550   25.3093 C   0  0  0  0  0  0  0  0  0  0  0  0
   11.1625  -15.0791   25.0181 O   0  0  0  0  0  0  0  0  0  0  0  0
    8.5836  -13.7434   27.6325 C   0  0  0  0  0  0  0  0  0  0  0  0
    9.8656  -14.5594   27.4467 C   0  0  2  0  0  0  0  0  0  0  0  0
    9.5186  -15.6250   26.5101 N   0  0  0  0  0  0  0  0  0  0  0  0
   10.3409  -15.0948   28.7360 C   0  0  0  0  0  0  0  0  0  0  0  0
   10.9028  -14.2004   29.6403 O   0  0  0  0  0  0  0  0  0  0  0  0
   10.2219  -16.3070   28.9594 O   0  0  0  0  0  0  0  0  0  0  0  0
  2  4  1  0
  2  1  1  1
  3  2  1  0
  4  5  1  0
  5  7  1  0
  5  6  1  6
  7  8  2  0
 10  9  1  6
 10 12  1  0
 11 10  1  0
 11  7  1  0
 12 13  2  0
 12 16  1  0
 15 14  1  1
 15 17  1  0
 16 15  1  0
 17 19  2  0
 17 18  1  0
M  END
$$$$
