LAA.pdb
     RDKit          3D

 19 18  0  0  1  0  0  0  0  0999 V2000
    7.5291  -11.6065   25.2872 C   0  0  0  0  0  0  0  0  0  0  0  0
    6.5056  -12.6020   25.8373 C   0  0  2  0  0  0  0  0  0  0  0  0
    6.1133  -12.2348   27.2532 C   0  0  0  0  0  0  0  0  0  0  0  0
    7.1510  -13.9442   25.8706 C   0  0  0  0  0  0  0  0  0  0  0  0
    7.8168  -14.3025   24.5527 C   0  0  2  0  0  0  0  0  0  0  0  0
    7.0450  -13.7956   23.4623 N   0  0  0  0  0  0  0  0  0  0  0  0
    8.0005  -15.7759   24.4932 C   0  0  0  0  0  0  0  0  0  0  0  0
    8.2436  -16.4315   25.5387 O   0  0  0  0  0  0  0  0  0  0  0  0
    7.4740  -18.5019   22.0211 C   0  0  0  0  0  0  0  0  0  0  0  0
    8.2267  -17.9383   23.2048 C   0  0  2  0  0  0  0  0  0  0  0  0
    7.9142  -16.5136   23.2785 N   0  0  0  0  0  0  0  0  0  0  0  0
    9.6878  -18.1670   23.1132 C   0  0  0  0  0  0  0  0  0  0  0  0
   10.1268  -19.3465   23.0821 O   0  0  0  0  0  0  0  0  0  0  0  0
   12.6556  -16.0530   22.4237 C   0  0  0  0  0  0  0  0  0  0  0  0
   12.0651  -17.3227   23.0425 C   0  0  2  0  0  0  0  0  0  0  0  0
   10.6196  -17.1141   23.0585 N   0  0  0  0  0  0  0  0  0  0  0  0
   12.6024  -17.5476   24.3974 C   0  0  0  0  0  0  0  0  0  0  0  0
   11.7287  -17.4129   25.4706 O   0  0  0  0  0  0  0  0  0  0  0  0
   13.7980  -17.8445   24.5237 O   0  0  0  0  0  0  0  0  0  0  0  0
  2  4  1  0
  2  1  1  1
  3  2  1  0
  4  5  1  0
  5  7  1  0
  5  6  1  6
  7  8  2  0
 10  9  1  6
 10 12  1  0
 11 10  1  0
 11  7  1  0
 12 13  2  0
 12 16  1  0
 15 14  1  1
 15 17  1  0
 16 15  1  0
 17 19  2  0
 17 18  1  0
M  END
$$$$
