LAA.pdb
     RDKit          3D

 19 18  0  0  1  0  0  0  0  0999 V2000
    9.5699  -12.7123   19.3285 C   0  0  0  0  0  0  0  0  0  0  0  0
    8.2034  -13.3982   19.3870 C   0  0  2  0  0  0  0  0  0  0  0  0
    7.1003  -12.4174   19.0485 C   0  0  0  0  0  0  0  0  0  0  0  0
    7.9910  -13.8674   20.7848 C   0  0  0  0  0  0  0  0  0  0  0  0
    9.0361  -14.8788   21.2243 C   0  0  2  0  0  0  0  0  0  0  0  0
    9.0054  -16.0182   20.3625 N   0  0  0  0  0  0  0  0  0  0  0  0
    8.7974  -15.2270   22.6491 C   0  0  0  0  0  0  0  0  0  0  0  0
    8.1443  -14.4524   23.3945 O   0  0  0  0  0  0  0  0  0  0  0  0
    9.3587  -18.2461   24.7944 C   0  0  0  0  0  0  0  0  0  0  0  0
    9.0025  -16.7865   24.6271 C   0  0  2  0  0  0  0  0  0  0  0  0
    9.2822  -16.4286   23.2392 N   0  0  0  0  0  0  0  0  0  0  0  0
    9.7351  -15.9088   25.5697 C   0  0  0  0  0  0  0  0  0  0  0  0
   10.9900  -15.8391   25.4989 O   0  0  0  0  0  0  0  0  0  0  0  0
    8.7932  -13.2509   27.9744 C   0  0  0  0  0  0  0  0  0  0  0  0
    9.7973  -14.3163   27.5265 C   0  0  2  0  0  0  0  0  0  0  0  0
    9.0855  -15.1398   26.5527 N   0  0  0  0  0  0  0  0  0  0  0  0
   10.2709  -15.1103   28.6755 C   0  0  0  0  0  0  0  0  0  0  0  0
    9.8406  -16.4290   28.7719 O   0  0  0  0  0  0  0  0  0  0  0  0
   11.0249  -14.5764   29.4999 O   0  0  0  0  0  0  0  0  0  0  0  0
  2  4  1  0
  2  1  1  1
  3  2  1  0
  4  5  1  0
  5  7  1  0
  5  6  1  6
  7  8  2  0
 10  9  1  6
 10 12  1  0
 11 10  1  0
 11  7  1  0
 12 13  2  0
 12 16  1  0
 15 14  1  1
 15 17  1  0
 16 15  1  0
 17 19  2  0
 17 18  1  0
M  END
$$$$
