LAA.pdb
     RDKit          3D

 19 18  0  0  1  0  0  0  0  0999 V2000
    7.9836  -13.5314   17.9741 C   0  0  0  0  0  0  0  0  0  0  0  0
    7.2961  -13.5966   19.3395 C   0  0  2  0  0  0  0  0  0  0  0  0
    7.2800  -12.2307   19.9933 C   0  0  0  0  0  0  0  0  0  0  0  0
    8.0909  -14.5129   20.2042 C   0  0  0  0  0  0  0  0  0  0  0  0
    8.1238  -15.9348   19.6697 C   0  0  2  0  0  0  0  0  0  0  0  0
    6.7956  -16.4545   19.5831 N   0  0  0  0  0  0  0  0  0  0  0  0
    9.0078  -16.7537   20.5392 C   0  0  0  0  0  0  0  0  0  0  0  0
    8.5212  -17.4615   21.4581 O   0  0  0  0  0  0  0  0  0  0  0  0
   12.6330  -17.6968   20.4943 C   0  0  0  0  0  0  0  0  0  0  0  0
   11.2732  -17.6896   21.1548 C   0  0  2  0  0  0  0  0  0  0  0  0
   10.4230  -16.7843   20.3864 N   0  0  0  0  0  0  0  0  0  0  0  0
   11.3339  -17.2934   22.5813 C   0  0  0  0  0  0  0  0  0  0  0  0
   12.1440  -17.8756   23.3492 O   0  0  0  0  0  0  0  0  0  0  0  0
    9.5909  -14.7122   24.6558 C   0  0  0  0  0  0  0  0  0  0  0  0
   10.5488  -15.9002   24.5337 C   0  0  2  0  0  0  0  0  0  0  0  0
   10.5182  -16.2840   23.1248 N   0  0  0  0  0  0  0  0  0  0  0  0
   10.1303  -17.0072   25.4136 C   0  0  0  0  0  0  0  0  0  0  0  0
   10.3187  -16.8522   26.7825 O   0  0  0  0  0  0  0  0  0  0  0  0
    9.6331  -18.0201   24.9034 O   0  0  0  0  0  0  0  0  0  0  0  0
  2  4  1  0
  2  1  1  6
  3  2  1  0
  4  5  1  0
  5  7  1  0
  5  6  1  1
  7  8  2  0
 10  9  1  6
 10 12  1  0
 11 10  1  0
 11  7  1  0
 12 13  2  0
 12 16  1  0
 15 14  1  6
 15 17  1  0
 16 15  1  0
 17 19  2  0
 17 18  1  0
M  END
$$$$
