LAA.pdb
     RDKit          3D

 19 18  0  0  1  0  0  0  0  0999 V2000
    6.3045  -12.3672   26.5043 C   0  0  0  0  0  0  0  0  0  0  0  0
    7.0934  -13.2434   25.5290 C   0  0  2  0  0  0  0  0  0  0  0  0
    7.6366  -12.4116   24.3859 C   0  0  0  0  0  0  0  0  0  0  0  0
    6.1533  -14.2499   24.9613 C   0  0  0  0  0  0  0  0  0  0  0  0
    6.8221  -15.1651   23.9497 C   0  0  2  0  0  0  0  0  0  0  0  0
    5.8634  -16.0740   23.4051 N   0  0  0  0  0  0  0  0  0  0  0  0
    7.9621  -15.8552   24.6073 C   0  0  0  0  0  0  0  0  0  0  0  0
    7.7944  -16.4771   25.6876 O   0  0  0  0  0  0  0  0  0  0  0  0
   11.4374  -16.7792   23.6068 C   0  0  0  0  0  0  0  0  0  0  0  0
   10.3732  -16.6100   24.6671 C   0  0  2  0  0  0  0  0  0  0  0  0
    9.2789  -15.8527   24.0658 N   0  0  0  0  0  0  0  0  0  0  0  0
   10.8848  -15.9436   25.8876 C   0  0  0  0  0  0  0  0  0  0  0  0
   11.5351  -14.8711   25.7782 O   0  0  0  0  0  0  0  0  0  0  0  0
   10.3259  -14.7740   28.8260 C   0  0  0  0  0  0  0  0  0  0  0  0
   11.2786  -15.8862   28.3798 C   0  0  2  0  0  0  0  0  0  0  0  0
   10.6753  -16.4597   27.1796 N   0  0  0  0  0  0  0  0  0  0  0  0
   11.4483  -16.8931   29.4439 C   0  0  0  0  0  0  0  0  0  0  0  0
   12.1465  -16.5163   30.5857 O   0  0  0  0  0  0  0  0  0  0  0  0
   10.9672  -18.0222   29.2795 O   0  0  0  0  0  0  0  0  0  0  0  0
  2  4  1  0
  2  1  1  1
  3  2  1  0
  4  5  1  0
  5  7  1  0
  5  6  1  1
  7  8  2  0
 10  9  1  6
 10 12  1  0
 11 10  1  0
 11  7  1  0
 12 13  2  0
 12 16  1  0
 15 14  1  1
 15 17  1  0
 16 15  1  0
 17 19  2  0
 17 18  1  0
M  END
$$$$
