LAA.pdb
     RDKit          3D

 19 18  0  0  1  0  0  0  0  0999 V2000
    6.3839  -12.5242   26.2468 C   0  0  0  0  0  0  0  0  0  0  0  0
    7.4325  -13.3912   26.9469 C   0  0  2  0  0  0  0  0  0  0  0  0
    8.6447  -12.5635   27.3198 C   0  0  0  0  0  0  0  0  0  0  0  0
    7.8688  -14.4411   25.9844 C   0  0  0  0  0  0  0  0  0  0  0  0
    6.6974  -15.1616   25.3388 C   0  0  2  0  0  0  0  0  0  0  0  0
    6.2169  -16.1887   26.2082 N   0  0  0  0  0  0  0  0  0  0  0  0
    7.1250  -15.6812   24.0139 C   0  0  0  0  0  0  0  0  0  0  0  0
    7.3627  -16.9061   23.8551 O   0  0  0  0  0  0  0  0  0  0  0  0
    7.5158  -14.2673   20.5627 C   0  0  0  0  0  0  0  0  0  0  0  0
    7.7504  -15.3538   21.5872 C   0  0  2  0  0  0  0  0  0  0  0  0
    7.2867  -14.8430   22.8744 N   0  0  0  0  0  0  0  0  0  0  0  0
    9.1683  -15.7789   21.6537 C   0  0  0  0  0  0  0  0  0  0  0  0
    9.7195  -16.2509   20.6249 O   0  0  0  0  0  0  0  0  0  0  0  0
   11.9628  -15.2164   23.9929 C   0  0  0  0  0  0  0  0  0  0  0  0
   11.3344  -16.0963   22.9091 C   0  0  2  0  0  0  0  0  0  0  0  0
    9.9373  -15.6785   22.8276 N   0  0  0  0  0  0  0  0  0  0  0  0
   11.4612  -17.5252   23.2513 C   0  0  0  0  0  0  0  0  0  0  0  0
   12.7372  -18.0775   23.2603 O   0  0  0  0  0  0  0  0  0  0  0  0
   10.4368  -18.1693   23.5141 O   0  0  0  0  0  0  0  0  0  0  0  0
  2  4  1  0
  2  1  1  6
  3  2  1  0
  4  5  1  0
  5  7  1  0
  5  6  1  1
  7  8  2  0
 10  9  1  6
 10 12  1  0
 11 10  1  0
 11  7  1  0
 12 13  2  0
 12 16  1  0
 15 14  1  1
 15 17  1  0
 16 15  1  0
 17 19  2  0
 17 18  1  0
M  END
$$$$
