LAA.pdb
     RDKit          3D

 19 18  0  0  1  0  0  0  0  0999 V2000
    9.3068  -13.7496   19.5043 C   0  0  0  0  0  0  0  0  0  0  0  0
    7.8057  -13.4775   19.6229 C   0  0  2  0  0  0  0  0  0  0  0  0
    7.5230  -11.9940   19.5092 C   0  0  0  0  0  0  0  0  0  0  0  0
    7.3684  -13.9285   20.9736 C   0  0  0  0  0  0  0  0  0  0  0  0
    7.5320  -15.4264   21.1681 C   0  0  2  0  0  0  0  0  0  0  0  0
    6.5179  -16.1262   20.4443 N   0  0  0  0  0  0  0  0  0  0  0  0
    7.5125  -15.7261   22.6234 C   0  0  0  0  0  0  0  0  0  0  0  0
    6.5354  -15.3762   23.3340 O   0  0  0  0  0  0  0  0  0  0  0  0
    9.0337  -18.1120   24.9011 C   0  0  0  0  0  0  0  0  0  0  0  0
    8.5514  -16.6913   24.7152 C   0  0  2  0  0  0  0  0  0  0  0  0
    8.5731  -16.4103   23.2823 N   0  0  0  0  0  0  0  0  0  0  0  0
    9.3643  -15.7094   25.4707 C   0  0  0  0  0  0  0  0  0  0  0  0
   10.4920  -15.3700   25.0259 O   0  0  0  0  0  0  0  0  0  0  0  0
    8.8195  -13.1152   27.9414 C   0  0  0  0  0  0  0  0  0  0  0  0
    9.7564  -14.2351   27.4811 C   0  0  2  0  0  0  0  0  0  0  0  0
    8.9293  -15.1313   26.6774 N   0  0  0  0  0  0  0  0  0  0  0  0
   10.3555  -14.9291   28.6362 C   0  0  0  0  0  0  0  0  0  0  0  0
   11.3246  -14.2508   29.3671 O   0  0  0  0  0  0  0  0  0  0  0  0
    9.9755  -16.0763   28.9063 O   0  0  0  0  0  0  0  0  0  0  0  0
  2  4  1  0
  2  1  1  1
  3  2  1  0
  4  5  1  0
  5  7  1  0
  5  6  1  6
  7  8  2  0
 10  9  1  6
 10 12  1  0
 11 10  1  0
 11  7  1  0
 12 13  2  0
 12 16  1  0
 15 14  1  1
 15 17  1  0
 16 15  1  0
 17 19  2  0
 17 18  1  0
M  END
$$$$
