LAA.pdb
     RDKit          3D

 19 18  0  0  1  0  0  0  0  0999 V2000
    8.3183  -11.9570   20.3325 C   0  0  0  0  0  0  0  0  0  0  0  0
    8.4475  -13.4816   20.3204 C   0  0  2  0  0  0  0  0  0  0  0  0
    7.4994  -14.0883   19.3072 C   0  0  0  0  0  0  0  0  0  0  0  0
    8.0614  -13.9802   21.6700 C   0  0  0  0  0  0  0  0  0  0  0  0
    8.7135  -15.3103   22.0075 C   0  0  2  0  0  0  0  0  0  0  0  0
    8.5999  -16.2048   20.8990 N   0  0  0  0  0  0  0  0  0  0  0  0
    8.0947  -15.8471   23.2473 C   0  0  0  0  0  0  0  0  0  0  0  0
    8.0087  -15.1324   24.2788 O   0  0  0  0  0  0  0  0  0  0  0  0
    5.9872  -18.6751   24.3070 C   0  0  0  0  0  0  0  0  0  0  0  0
    7.1521  -17.7587   24.6051 C   0  0  2  0  0  0  0  0  0  0  0  0
    7.5754  -17.1697   23.3376 N   0  0  0  0  0  0  0  0  0  0  0  0
    8.2720  -18.4595   25.2761 C   0  0  0  0  0  0  0  0  0  0  0  0
    8.0565  -19.0795   26.3503 O   0  0  0  0  0  0  0  0  0  0  0  0
   11.8568  -19.0782   24.4126 C   0  0  0  0  0  0  0  0  0  0  0  0
   10.6909  -19.1685   25.4007 C   0  0  2  0  0  0  0  0  0  0  0  0
    9.5818  -18.4645   24.7623 N   0  0  0  0  0  0  0  0  0  0  0  0
   11.0509  -18.5649   26.6972 C   0  0  0  0  0  0  0  0  0  0  0  0
   10.4841  -17.3366   27.0187 O   0  0  0  0  0  0  0  0  0  0  0  0
   11.8355  -19.1699   27.4400 O   0  0  0  0  0  0  0  0  0  0  0  0
  2  4  1  0
  2  1  1  1
  3  2  1  0
  4  5  1  0
  5  7  1  0
  5  6  1  6
  7  8  2  0
 10  9  1  6
 10 12  1  0
 11 10  1  0
 11  7  1  0
 12 13  2  0
 12 16  1  0
 15 14  1  6
 15 17  1  0
 16 15  1  0
 17 19  2  0
 17 18  1  0
M  END
$$$$
