LAA.pdb
     RDKit          3D

 19 18  0  0  1  0  0  0  0  0999 V2000
    9.4112  -13.5896   19.4605 C   0  0  0  0  0  0  0  0  0  0  0  0
    7.9061  -13.4912   19.7175 C   0  0  2  0  0  0  0  0  0  0  0  0
    7.4608  -12.0438   19.7254 C   0  0  0  0  0  0  0  0  0  0  0  0
    7.6379  -14.0640   21.0662 C   0  0  0  0  0  0  0  0  0  0  0  0
    8.0240  -15.5303   21.1629 C   0  0  2  0  0  0  0  0  0  0  0  0
    7.0552  -16.3356   20.4886 N   0  0  0  0  0  0  0  0  0  0  0  0
    8.1778  -15.8923   22.5959 C   0  0  0  0  0  0  0  0  0  0  0  0
    7.2178  -15.7517   23.3963 O   0  0  0  0  0  0  0  0  0  0  0  0
   10.4094  -18.0727   24.5183 C   0  0  0  0  0  0  0  0  0  0  0  0
    9.5033  -16.8625   24.5164 C   0  0  2  0  0  0  0  0  0  0  0  0
    9.3916  -16.4070   23.1334 N   0  0  0  0  0  0  0  0  0  0  0  0
    9.9935  -15.7815   25.4034 C   0  0  0  0  0  0  0  0  0  0  0  0
   11.0556  -15.1743   25.1068 O   0  0  0  0  0  0  0  0  0  0  0  0
    8.5533  -13.5493   27.8706 C   0  0  0  0  0  0  0  0  0  0  0  0
    9.7981  -14.3448   27.4690 C   0  0  2  0  0  0  0  0  0  0  0  0
    9.3188  -15.3970   26.5767 N   0  0  0  0  0  0  0  0  0  0  0  0
   10.4756  -14.8982   28.6564 C   0  0  0  0  0  0  0  0  0  0  0  0
   10.4875  -16.2802   28.8091 O   0  0  0  0  0  0  0  0  0  0  0  0
   11.0012  -14.1179   29.4616 O   0  0  0  0  0  0  0  0  0  0  0  0
  2  4  1  0
  2  1  1  1
  3  2  1  0
  4  5  1  0
  5  7  1  0
  5  6  1  1
  7  8  2  0
 10  9  1  6
 10 12  1  0
 11 10  1  0
 11  7  1  0
 12 13  2  0
 12 16  1  0
 15 14  1  1
 15 17  1  0
 16 15  1  0
 17 19  2  0
 17 18  1  0
M  END
$$$$
