LAA.pdb
     RDKit          3D

 19 18  0  0  1  0  0  0  0  0999 V2000
    7.1907  -12.1574   25.1689 C   0  0  0  0  0  0  0  0  0  0  0  0
    6.7170  -13.0220   26.3391 C   0  0  2  0  0  0  0  0  0  0  0  0
    7.1775  -12.4337   27.6564 C   0  0  0  0  0  0  0  0  0  0  0  0
    7.3407  -14.3667   26.1910 C   0  0  0  0  0  0  0  0  0  0  0  0
    6.8275  -15.1151   24.9724 C   0  0  2  0  0  0  0  0  0  0  0  0
    5.5187  -15.6275   25.2298 N   0  0  0  0  0  0  0  0  0  0  0  0
    7.8031  -16.1780   24.6163 C   0  0  0  0  0  0  0  0  0  0  0  0
    7.8490  -17.2487   25.2748 O   0  0  0  0  0  0  0  0  0  0  0  0
   10.3849  -16.6721   21.9320 C   0  0  0  0  0  0  0  0  0  0  0  0
    9.7097  -17.0773   23.2225 C   0  0  2  0  0  0  0  0  0  0  0  0
    8.7204  -16.0495   23.5351 N   0  0  0  0  0  0  0  0  0  0  0  0
   10.6700  -17.2596   24.3361 C   0  0  0  0  0  0  0  0  0  0  0  0
   11.2197  -16.2493   24.8480 O   0  0  0  0  0  0  0  0  0  0  0  0
   11.5079  -20.0358   26.6252 C   0  0  0  0  0  0  0  0  0  0  0  0
   11.9269  -18.7185   25.9672 C   0  0  2  0  0  0  0  0  0  0  0  0
   11.0004  -18.5250   24.8548 N   0  0  0  0  0  0  0  0  0  0  0  0
   13.3279  -18.7799   25.5106 C   0  0  0  0  0  0  0  0  0  0  0  0
   14.3269  -18.6251   26.4653 O   0  0  0  0  0  0  0  0  0  0  0  0
   13.5562  -18.9648   24.3076 O   0  0  0  0  0  0  0  0  0  0  0  0
  2  4  1  0
  2  1  1  6
  3  2  1  0
  4  5  1  0
  5  7  1  0
  5  6  1  1
  7  8  2  0
 10  9  1  6
 10 12  1  0
 11 10  1  0
 11  7  1  0
 12 13  2  0
 12 16  1  0
 15 14  1  6
 15 17  1  0
 16 15  1  0
 17 19  2  0
 17 18  1  0
M  END
$$$$
