LAA.pdb
     RDKit          3D

 19 18  0  0  1  0  0  0  0  0999 V2000
    7.7001  -13.4428   18.9791 C   0  0  0  0  0  0  0  0  0  0  0  0
    7.3770  -13.5157   20.4729 C   0  0  2  0  0  0  0  0  0  0  0  0
    7.7334  -12.2135   21.1590 C   0  0  0  0  0  0  0  0  0  0  0  0
    8.2155  -14.5945   21.0662 C   0  0  0  0  0  0  0  0  0  0  0  0
    7.8647  -15.9694   20.5230 C   0  0  2  0  0  0  0  0  0  0  0  0
    6.4914  -16.2627   20.7870 N   0  0  0  0  0  0  0  0  0  0  0  0
    8.7917  -16.9694   21.1137 C   0  0  0  0  0  0  0  0  0  0  0  0
    8.4096  -17.7203   22.0475 O   0  0  0  0  0  0  0  0  0  0  0  0
   12.2098  -18.2537   20.2671 C   0  0  0  0  0  0  0  0  0  0  0  0
   11.0057  -18.1862   21.1787 C   0  0  2  0  0  0  0  0  0  0  0  0
   10.1341  -17.1318   20.6677 N   0  0  0  0  0  0  0  0  0  0  0  0
   11.3741  -17.9444   22.5934 C   0  0  0  0  0  0  0  0  0  0  0  0
   12.2262  -18.6892   23.1448 O   0  0  0  0  0  0  0  0  0  0  0  0
   10.5457  -15.3005   25.0971 C   0  0  0  0  0  0  0  0  0  0  0  0
   11.1566  -16.6623   24.7563 C   0  0  2  0  0  0  0  0  0  0  0  0
   10.8089  -16.9083   23.3592 N   0  0  0  0  0  0  0  0  0  0  0  0
   10.6301  -17.7137   25.6464 C   0  0  0  0  0  0  0  0  0  0  0  0
   11.1329  -17.7767   26.9413 O   0  0  0  0  0  0  0  0  0  0  0  0
    9.7702  -18.4903   25.2096 O   0  0  0  0  0  0  0  0  0  0  0  0
  2  4  1  0
  2  1  1  6
  3  2  1  0
  4  5  1  0
  5  7  1  0
  5  6  1  1
  7  8  2  0
 10  9  1  6
 10 12  1  0
 11 10  1  0
 11  7  1  0
 12 13  2  0
 12 16  1  0
 15 14  1  1
 15 17  1  0
 16 15  1  0
 17 19  2  0
 17 18  1  0
M  END
$$$$
