LAA.pdb
     RDKit          3D

 19 18  0  0  1  0  0  0  0  0999 V2000
    9.3582  -13.8521   19.3847 C   0  0  0  0  0  0  0  0  0  0  0  0
    7.9048  -13.4818   19.6881 C   0  0  2  0  0  0  0  0  0  0  0  0
    7.7179  -11.9796   19.6444 C   0  0  0  0  0  0  0  0  0  0  0  0
    7.5979  -13.9451   21.0702 C   0  0  0  0  0  0  0  0  0  0  0  0
    7.7150  -15.4526   21.2180 C   0  0  2  0  0  0  0  0  0  0  0  0
    6.6574  -16.0966   20.5050 N   0  0  0  0  0  0  0  0  0  0  0  0
    7.7263  -15.7934   22.6644 C   0  0  0  0  0  0  0  0  0  0  0  0
    6.7306  -15.5357   23.3885 O   0  0  0  0  0  0  0  0  0  0  0  0
    9.3577  -18.2273   24.7753 C   0  0  0  0  0  0  0  0  0  0  0  0
    8.8119  -16.8194   24.7029 C   0  0  2  0  0  0  0  0  0  0  0  0
    8.8380  -16.4163   23.2995 N   0  0  0  0  0  0  0  0  0  0  0  0
    9.5688  -15.8697   25.5520 C   0  0  0  0  0  0  0  0  0  0  0  0
   10.6650  -15.4103   25.1373 O   0  0  0  0  0  0  0  0  0  0  0  0
    8.8569  -13.5829   28.2703 C   0  0  0  0  0  0  0  0  0  0  0  0
    9.8774  -14.5658   27.6906 C   0  0  2  0  0  0  0  0  0  0  0  0
    9.1138  -15.4521   26.8161 N   0  0  0  0  0  0  0  0  0  0  0  0
   10.5613  -15.3099   28.7646 C   0  0  0  0  0  0  0  0  0  0  0  0
   11.4853  -14.6207   29.5421 O   0  0  0  0  0  0  0  0  0  0  0  0
   10.2881  -16.5065   28.9293 O   0  0  0  0  0  0  0  0  0  0  0  0
  2  4  1  0
  2  1  1  1
  3  2  1  0
  4  5  1  0
  5  7  1  0
  5  6  1  6
  7  8  2  0
 10  9  1  6
 10 12  1  0
 11 10  1  0
 11  7  1  0
 12 13  2  0
 12 16  1  0
 15 14  1  1
 15 17  1  0
 16 15  1  0
 17 19  2  0
 17 18  1  0
M  END
$$$$
