LAA.pdb
     RDKit          3D

 19 18  0  0  1  0  0  0  0  0999 V2000
    5.2776  -12.5589   26.0150 C   0  0  0  0  0  0  0  0  0  0  0  0
    6.5527  -12.9863   26.7449 C   0  0  2  0  0  0  0  0  0  0  0  0
    7.3159  -11.7745   27.2373 C   0  0  0  0  0  0  0  0  0  0  0  0
    7.4142  -13.7087   25.7676 C   0  0  0  0  0  0  0  0  0  0  0  0
    6.7713  -14.9882   25.2597 C   0  0  2  0  0  0  0  0  0  0  0  0
    6.3931  -15.8152   26.3619 N   0  0  0  0  0  0  0  0  0  0  0  0
    7.7142  -15.6624   24.3299 C   0  0  0  0  0  0  0  0  0  0  0  0
    8.6396  -16.3888   24.7751 O   0  0  0  0  0  0  0  0  0  0  0  0
    8.1449  -15.8357   20.5987 C   0  0  0  0  0  0  0  0  0  0  0  0
    8.5308  -16.2291   22.0064 C   0  0  2  0  0  0  0  0  0  0  0  0
    7.6272  -15.5287   22.9151 N   0  0  0  0  0  0  0  0  0  0  0  0
    9.9483  -15.9273   22.3148 C   0  0  0  0  0  0  0  0  0  0  0  0
   10.3290  -14.7280   22.3547 O   0  0  0  0  0  0  0  0  0  0  0  0
   12.5192  -17.0862   24.3096 C   0  0  0  0  0  0  0  0  0  0  0  0
   12.3046  -16.6497   22.8580 C   0  0  2  0  0  0  0  0  0  0  0  0
   10.9009  -16.9311   22.5685 N   0  0  0  0  0  0  0  0  0  0  0  0
   13.2094  -17.3782   21.9494 C   0  0  0  0  0  0  0  0  0  0  0  0
   12.6385  -18.2558   21.0344 O   0  0  0  0  0  0  0  0  0  0  0  0
   14.4288  -17.1812   22.0368 O   0  0  0  0  0  0  0  0  0  0  0  0
  2  4  1  0
  2  1  1  6
  3  2  1  0
  4  5  1  0
  5  7  1  0
  5  6  1  1
  7  8  2  0
 10  9  1  6
 10 12  1  0
 11 10  1  0
 11  7  1  0
 12 13  2  0
 12 16  1  0
 15 14  1  1
 15 17  1  0
 16 15  1  0
 17 19  2  0
 17 18  1  0
M  END
$$$$
