VYK.pdb
     RDKit          3D

 29 29  0  0  1  0  0  0  0  0999 V2000
   22.7752  -26.4859  -21.9218 C   0  0  0  0  0  0  0  0  0  0  0  0
   23.8953  -27.2613  -21.3201 C   0  0  2  0  0  0  0  0  0  0  0  0
   23.4383  -28.6435  -20.9695 C   0  0  0  0  0  0  0  0  0  0  0  0
   24.5394  -26.5998  -20.1368 C   0  0  2  0  0  0  0  0  0  0  0  0
   25.1114  -25.3459  -20.5913 N   0  0  0  0  0  0  0  0  0  0  0  0
   25.5325  -27.4527  -19.4571 C   0  0  0  0  0  0  0  0  0  0  0  0
   26.5838  -27.7316  -20.0890 O   0  0  0  0  0  0  0  0  0  0  0  0
   30.9610  -24.2217  -17.9294 O   0  0  0  0  0  0  0  0  0  0  0  0
   29.9857  -25.1301  -17.5407 C   0  0  0  0  0  0  0  0  0  0  0  0
   28.7038  -24.7391  -17.2685 C   0  0  0  0  0  0  0  0  0  0  0  0
   27.7648  -25.7008  -16.8811 C   0  0  0  0  0  0  0  0  0  0  0  0
   28.0828  -27.0389  -16.7619 C   0  0  0  0  0  0  0  0  0  0  0  0
   27.0467  -27.9806  -16.3549 C   0  0  0  0  0  0  0  0  0  0  0  0
   26.3969  -28.7541  -17.4679 C   0  0  2  0  0  0  0  0  0  0  0  0
   25.3704  -27.9718  -18.1425 N   0  0  0  0  0  0  0  0  0  0  0  0
   25.7702  -30.0257  -17.0296 C   0  0  0  0  0  0  0  0  0  0  0  0
   24.5930  -30.0457  -16.5957 O   0  0  0  0  0  0  0  0  0  0  0  0
   29.3883  -27.3822  -17.0474 C   0  0  0  0  0  0  0  0  0  0  0  0
   30.3184  -26.4552  -17.4272 C   0  0  0  0  0  0  0  0  0  0  0  0
   26.4616  -31.2715  -17.0782 N   0  0  0  0  0  0  0  0  0  0  0  0
   25.8874  -32.5206  -16.6020 C   0  0  1  0  0  0  0  0  0  0  0  0
   26.7261  -33.6893  -16.9756 C   0  0  0  0  0  0  0  0  0  0  0  0
   26.1283  -34.9873  -16.5699 C   0  0  0  0  0  0  0  0  0  0  0  0
   27.0311  -36.1693  -16.9119 C   0  0  0  0  0  0  0  0  0  0  0  0
   26.3028  -37.4294  -16.4974 C   0  0  0  0  0  0  0  0  0  0  0  0
   27.0851  -38.6135  -16.7035 N   0  0  0  0  0  0  0  0  0  0  0  0
   25.6583  -32.4898  -15.1434 C   0  0  0  0  0  0  0  0  0  0  0  0
   26.6007  -32.0329  -14.4103 O   0  0  0  0  0  0  0  0  0  0  0  0
   24.5313  -32.9020  -14.4889 O   0  0  0  0  0  0  0  0  0  0  0  0
  2  3  1  1
  2  1  1  0
  4  2  1  0
  4  5  1  6
  6 15  1  0
  6  4  1  0
  7  6  2  0
  8  9  1  0
  9 19  2  0
  9 10  1  0
 10 11  2  0
 11 12  1  0
 12 13  1  0
 14 13  1  1
 14 16  1  0
 14 15  1  0
 16 20  1  0
 17 16  2  0
 18 12  2  0
 19 18  1  0
 20 21  1  0
 21 27  1  0
 21 22  1  1
 23 22  1  0
 24 25  1  0
 24 23  1  0
 26 25  1  0
 27 28  2  0
 27 29  1  0
M  END
$$$$
