VYK.pdb
     RDKit          3D

 29 29  0  0  1  0  0  0  0  0999 V2000
   23.4335  -37.8209  -13.1645 C   0  0  0  0  0  0  0  0  0  0  0  0
   22.1317  -37.1190  -13.3395 C   0  0  2  0  0  0  0  0  0  0  0  0
   21.5944  -37.3604  -14.7162 C   0  0  0  0  0  0  0  0  0  0  0  0
   22.1764  -35.6493  -13.0381 C   0  0  2  0  0  0  0  0  0  0  0  0
   23.1156  -35.0395  -13.9612 N   0  0  0  0  0  0  0  0  0  0  0  0
   22.5017  -35.3492  -11.6310 C   0  0  0  0  0  0  0  0  0  0  0  0
   23.6901  -35.0323  -11.3675 O   0  0  0  0  0  0  0  0  0  0  0  0
   23.4125  -28.8834   -9.6522 O   0  0  0  0  0  0  0  0  0  0  0  0
   22.8709  -30.1340   -9.3874 C   0  0  0  0  0  0  0  0  0  0  0  0
   23.4381  -30.9883   -8.4824 C   0  0  0  0  0  0  0  0  0  0  0  0
   22.8463  -32.2358   -8.2580 C   0  0  0  0  0  0  0  0  0  0  0  0
   21.7042  -32.6420   -8.9185 C   0  0  0  0  0  0  0  0  0  0  0  0
   21.1465  -33.9574   -8.6275 C   0  0  0  0  0  0  0  0  0  0  0  0
   21.9129  -35.1259   -9.1813 C   0  0  2  0  0  0  0  0  0  0  0  0
   21.5582  -35.3974  -10.5674 N   0  0  0  0  0  0  0  0  0  0  0  0
   21.7224  -36.3848   -8.4192 C   0  0  0  0  0  0  0  0  0  0  0  0
   20.6782  -37.0670   -8.5562 O   0  0  0  0  0  0  0  0  0  0  0  0
   21.1709  -31.7447   -9.8208 C   0  0  0  0  0  0  0  0  0  0  0  0
   21.7364  -30.5218  -10.0521 C   0  0  0  0  0  0  0  0  0  0  0  0
   22.7004  -36.8774   -7.5064 N   0  0  0  0  0  0  0  0  0  0  0  0
   22.5735  -38.1502   -6.8129 C   0  0  1  0  0  0  0  0  0  0  0  0
   23.8106  -38.4947   -6.0647 C   0  0  0  0  0  0  0  0  0  0  0  0
   23.7836  -39.8672   -5.4972 C   0  0  0  0  0  0  0  0  0  0  0  0
   25.0518  -40.1912   -4.7123 C   0  0  0  0  0  0  0  0  0  0  0  0
   24.9131  -41.6057   -4.1928 C   0  0  0  0  0  0  0  0  0  0  0  0
   26.1194  -42.0944   -3.5906 N   0  0  0  0  0  0  0  0  0  0  0  0
   21.4017  -38.1626   -5.9142 C   0  0  0  0  0  0  0  0  0  0  0  0
   20.6903  -39.2244   -5.8911 O   0  0  0  0  0  0  0  0  0  0  0  0
   20.9950  -37.1466   -5.0950 O   0  0  0  0  0  0  0  0  0  0  0  0
  2  3  1  6
  2  1  1  0
  4  2  1  0
  4  5  1  6
  6 15  1  0
  6  4  1  0
  7  6  2  0
  8  9  1  0
  9 19  2  0
  9 10  1  0
 10 11  2  0
 11 12  1  0
 12 13  1  0
 14 13  1  1
 14 16  1  0
 14 15  1  0
 16 20  1  0
 17 16  2  0
 18 12  2  0
 19 18  1  0
 20 21  1  0
 21 27  1  0
 21 22  1  1
 23 22  1  0
 24 25  1  0
 24 23  1  0
 26 25  1  0
 27 28  2  0
 27 29  1  0
M  END
$$$$
