VYK.pdb
     RDKit          3D

 29 29  0  0  1  0  0  0  0  0999 V2000
   28.2628  -23.1784  -18.8748 C   0  0  0  0  0  0  0  0  0  0  0  0
   27.1637  -22.9390  -17.8988 C   0  0  2  0  0  0  0  0  0  0  0  0
   26.6705  -21.5295  -18.0100 C   0  0  0  0  0  0  0  0  0  0  0  0
   27.5170  -23.2664  -16.4773 C   0  0  2  0  0  0  0  0  0  0  0  0
   27.8777  -24.6711  -16.4262 N   0  0  0  0  0  0  0  0  0  0  0  0
   26.4510  -22.9283  -15.5155 C   0  0  0  0  0  0  0  0  0  0  0  0
   25.4191  -23.6477  -15.5201 O   0  0  0  0  0  0  0  0  0  0  0  0
   22.3026  -19.8897   -8.2586 O   0  0  0  0  0  0  0  0  0  0  0  0
   23.2193  -20.1248   -9.2744 C   0  0  0  0  0  0  0  0  0  0  0  0
   24.3011  -20.9418   -9.0944 C   0  0  0  0  0  0  0  0  0  0  0  0
   25.1904  -21.1403  -10.1557 C   0  0  0  0  0  0  0  0  0  0  0  0
   25.0183  -20.5400  -11.3868 C   0  0  0  0  0  0  0  0  0  0  0  0
   25.9885  -20.7988  -12.4440 C   0  0  0  0  0  0  0  0  0  0  0  0
   25.4666  -21.5513  -13.6360 C   0  0  2  0  0  0  0  0  0  0  0  0
   26.5231  -21.8471  -14.5937 N   0  0  0  0  0  0  0  0  0  0  0  0
   24.3882  -20.8428  -14.3687 C   0  0  0  0  0  0  0  0  0  0  0  0
   24.6454  -19.8418  -15.0803 O   0  0  0  0  0  0  0  0  0  0  0  0
   23.9123  -19.7255  -11.5178 C   0  0  0  0  0  0  0  0  0  0  0  0
   23.0334  -19.5206  -10.4909 C   0  0  0  0  0  0  0  0  0  0  0  0
   23.0254  -21.2560  -14.3040 N   0  0  0  0  0  0  0  0  0  0  0  0
   21.9314  -20.4866  -14.8767 C   0  0  1  0  0  0  0  0  0  0  0  0
   21.1451  -21.2888  -15.8499 C   0  0  0  0  0  0  0  0  0  0  0  0
   20.0529  -20.5146  -16.4936 C   0  0  0  0  0  0  0  0  0  0  0  0
   19.2581  -21.3568  -17.4877 C   0  0  0  0  0  0  0  0  0  0  0  0
   18.2943  -20.4300  -18.1964 C   0  0  0  0  0  0  0  0  0  0  0  0
   17.4290  -21.1228  -19.1064 N   0  0  0  0  0  0  0  0  0  0  0  0
   21.0515  -19.9332  -13.8278 C   0  0  0  0  0  0  0  0  0  0  0  0
   20.4770  -18.8174  -14.0713 O   0  0  0  0  0  0  0  0  0  0  0  0
   20.7837  -20.4961  -12.6112 O   0  0  0  0  0  0  0  0  0  0  0  0
  2  3  1  1
  2  1  1  0
  4  2  1  0
  4  5  1  6
  6 15  1  0
  6  4  1  0
  7  6  2  0
  8  9  1  0
  9 19  2  0
  9 10  1  0
 10 11  2  0
 11 12  1  0
 12 13  1  0
 14 13  1  1
 14 16  1  0
 14 15  1  0
 16 20  1  0
 17 16  2  0
 18 12  2  0
 19 18  1  0
 20 21  1  0
 21 27  1  0
 21 22  1  6
 23 22  1  0
 24 25  1  0
 24 23  1  0
 26 25  1  0
 27 28  2  0
 27 29  1  0
M  END
$$$$
