VYK.pdb
     RDKit          3D

 29 29  0  0  1  0  0  0  0  0999 V2000
   26.1261  -17.3201  -21.1182 C   0  0  0  0  0  0  0  0  0  0  0  0
   24.7846  -17.1609  -20.4914 C   0  0  2  0  0  0  0  0  0  0  0  0
   24.4394  -15.7090  -20.3690 C   0  0  0  0  0  0  0  0  0  0  0  0
   24.6338  -17.8550  -19.1692 C   0  0  2  0  0  0  0  0  0  0  0  0
   24.9574  -19.2556  -19.3683 N   0  0  0  0  0  0  0  0  0  0  0  0
   23.3039  -17.6705  -18.5586 C   0  0  0  0  0  0  0  0  0  0  0  0
   22.3216  -18.1947  -19.1438 O   0  0  0  0  0  0  0  0  0  0  0  0
   20.7051  -22.9505  -15.4129 O   0  0  0  0  0  0  0  0  0  0  0  0
   20.9065  -21.5768  -15.4210 C   0  0  0  0  0  0  0  0  0  0  0  0
   19.8613  -20.6951  -15.4390 C   0  0  0  0  0  0  0  0  0  0  0  0
   20.1272  -19.3217  -15.4464 C   0  0  0  0  0  0  0  0  0  0  0  0
   21.4121  -18.8172  -15.4360 C   0  0  0  0  0  0  0  0  0  0  0  0
   21.6068  -17.3723  -15.4424 C   0  0  0  0  0  0  0  0  0  0  0  0
   21.7428  -16.7401  -16.7993 C   0  0  2  0  0  0  0  0  0  0  0  0
   23.0720  -16.9417  -17.3590 N   0  0  0  0  0  0  0  0  0  0  0  0
   21.4717  -15.2813  -16.8123 C   0  0  0  0  0  0  0  0  0  0  0  0
   22.4059  -14.4531  -16.6868 O   0  0  0  0  0  0  0  0  0  0  0  0
   22.4312  -19.7472  -15.4179 C   0  0  0  0  0  0  0  0  0  0  0  0
   22.1890  -21.0926  -15.4105 C   0  0  0  0  0  0  0  0  0  0  0  0
   20.1566  -14.7528  -16.9662 N   0  0  0  0  0  0  0  0  0  0  0  0
   19.8679  -13.3269  -16.9835 C   0  0  1  0  0  0  0  0  0  0  0  0
   20.6740  -12.6148  -18.0092 C   0  0  0  0  0  0  0  0  0  0  0  0
   20.4040  -11.1546  -18.0501 C   0  0  0  0  0  0  0  0  0  0  0  0
   21.1922  -10.4537  -19.1531 C   0  0  0  0  0  0  0  0  0  0  0  0
   20.9042   -8.9722  -19.0430 C   0  0  0  0  0  0  0  0  0  0  0  0
   21.6815   -8.1882  -19.9583 N   0  0  0  0  0  0  0  0  0  0  0  0
   18.4276  -13.0686  -17.1824 C   0  0  0  0  0  0  0  0  0  0  0  0
   17.7644  -13.9279  -17.8578 O   0  0  0  0  0  0  0  0  0  0  0  0
   17.7220  -11.9957  -16.7137 O   0  0  0  0  0  0  0  0  0  0  0  0
  2  3  1  1
  2  1  1  0
  4  2  1  0
  4  5  1  6
  6 15  1  0
  6  4  1  0
  7  6  2  0
  8  9  1  0
  9 19  2  0
  9 10  1  0
 10 11  2  0
 11 12  1  0
 12 13  1  0
 14 13  1  1
 14 16  1  0
 14 15  1  0
 16 20  1  0
 17 16  2  0
 18 12  2  0
 19 18  1  0
 20 21  1  0
 21 27  1  0
 21 22  1  6
 23 22  1  0
 24 25  1  0
 24 23  1  0
 26 25  1  0
 27 28  2  0
 27 29  1  0
M  END
$$$$
