VYK.pdb
     RDKit          3D

 29 29  0  0  1  0  0  0  0  0999 V2000
   30.8407  -33.6404  -19.9536 C   0  0  0  0  0  0  0  0  0  0  0  0
   29.7923  -32.5852  -19.8796 C   0  0  2  0  0  0  0  0  0  0  0  0
   30.2237  -31.3723  -20.6445 C   0  0  0  0  0  0  0  0  0  0  0  0
   29.3860  -32.2144  -18.4831 C   0  0  2  0  0  0  0  0  0  0  0  0
   28.6952  -33.3542  -17.9089 N   0  0  0  0  0  0  0  0  0  0  0  0
   28.5802  -30.9808  -18.4151 C   0  0  0  0  0  0  0  0  0  0  0  0
   27.3651  -31.0662  -18.7290 O   0  0  0  0  0  0  0  0  0  0  0  0
   25.5112  -23.1136  -15.7370 O   0  0  0  0  0  0  0  0  0  0  0  0
   26.2755  -24.2503  -15.9634 C   0  0  0  0  0  0  0  0  0  0  0  0
   25.8555  -25.4913  -15.5713 C   0  0  0  0  0  0  0  0  0  0  0  0
   26.6697  -26.5996  -15.8272 C   0  0  0  0  0  0  0  0  0  0  0  0
   27.8893  -26.4899  -16.4645 C   0  0  0  0  0  0  0  0  0  0  0  0
   28.6790  -27.6933  -16.6969 C   0  0  0  0  0  0  0  0  0  0  0  0
   28.2568  -28.5320  -17.8706 C   0  0  2  0  0  0  0  0  0  0  0  0
   29.0937  -29.7145  -18.0192 N   0  0  0  0  0  0  0  0  0  0  0  0
   28.2776  -27.8073  -19.1652 C   0  0  0  0  0  0  0  0  0  0  0  0
   29.3577  -27.6052  -19.7711 O   0  0  0  0  0  0  0  0  0  0  0  0
   28.2678  -25.2172  -16.8399 C   0  0  0  0  0  0  0  0  0  0  0  0
   27.4843  -24.1234  -16.5976 C   0  0  0  0  0  0  0  0  0  0  0  0
   27.0904  -27.3110  -19.7790 N   0  0  0  0  0  0  0  0  0  0  0  0
   27.0939  -26.5393  -21.0124 C   0  0  1  0  0  0  0  0  0  0  0  0
   26.0541  -27.0151  -21.9619 C   0  0  0  0  0  0  0  0  0  0  0  0
   26.1494  -26.3730  -23.2980 C   0  0  0  0  0  0  0  0  0  0  0  0
   25.0499  -26.8467  -24.2446 C   0  0  0  0  0  0  0  0  0  0  0  0
   25.7072  -27.1963  -25.5621 C   0  0  0  0  0  0  0  0  0  0  0  0
   24.7691  -27.6625  -26.5416 N   0  0  0  0  0  0  0  0  0  0  0  0
   26.9349  -25.0952  -20.7479 C   0  0  0  0  0  0  0  0  0  0  0  0
   27.7424  -24.2978  -21.3365 O   0  0  0  0  0  0  0  0  0  0  0  0
   26.0039  -24.5161  -19.9316 O   0  0  0  0  0  0  0  0  0  0  0  0
  2  3  1  1
  2  1  1  0
  4  2  1  0
  4  5  1  6
  6 15  1  0
  6  4  1  0
  7  6  2  0
  8  9  1  0
  9 19  2  0
  9 10  1  0
 10 11  2  0
 11 12  1  0
 12 13  1  0
 14 13  1  1
 14 16  1  0
 14 15  1  0
 16 20  1  0
 17 16  2  0
 18 12  2  0
 19 18  1  0
 20 21  1  0
 21 27  1  0
 21 22  1  6
 23 22  1  0
 24 25  1  0
 24 23  1  0
 26 25  1  0
 27 28  2  0
 27 29  1  0
M  END
$$$$
