VYK.pdb
     RDKit          3D

 29 29  0  0  1  0  0  0  0  0999 V2000
   24.3549    3.5969   -7.4433 C   0  0  0  0  0  0  0  0  0  0  0  0
   23.9285    2.1784   -7.5988 C   0  0  2  0  0  0  0  0  0  0  0  0
   24.4364    1.3568   -6.4546 C   0  0  0  0  0  0  0  0  0  0  0  0
   24.3139    1.5573   -8.9097 C   0  0  2  0  0  0  0  0  0  0  0  0
   25.7634    1.5192   -8.9690 N   0  0  0  0  0  0  0  0  0  0  0  0
   23.7250    2.2396  -10.0773 C   0  0  0  0  0  0  0  0  0  0  0  0
   24.4643    3.0300  -10.7182 O   0  0  0  0  0  0  0  0  0  0  0  0
   24.8875    0.7438  -16.9598 O   0  0  0  0  0  0  0  0  0  0  0  0
   24.0079    0.9921  -15.9148 C   0  0  0  0  0  0  0  0  0  0  0  0
   23.3530   -0.0193  -15.2679 C   0  0  0  0  0  0  0  0  0  0  0  0
   22.4785    0.2933  -14.2218 C   0  0  0  0  0  0  0  0  0  0  0  0
   22.2485    1.5917  -13.8133 C   0  0  0  0  0  0  0  0  0  0  0  0
   21.3236    1.8358  -12.7129 C   0  0  0  0  0  0  0  0  0  0  0  0
   21.8146    2.7743  -11.6464 C   0  0  2  0  0  0  0  0  0  0  0  0
   22.3836    2.0563  -10.5144 N   0  0  0  0  0  0  0  0  0  0  0  0
   20.7670    3.6816  -11.1160 C   0  0  0  0  0  0  0  0  0  0  0  0
   19.9280    3.2731  -10.2771 O   0  0  0  0  0  0  0  0  0  0  0  0
   22.9328    2.5755  -14.4973 C   0  0  0  0  0  0  0  0  0  0  0  0
   23.7909    2.2875  -15.5218 C   0  0  0  0  0  0  0  0  0  0  0  0
   20.6611    5.0432  -11.5247 N   0  0  0  0  0  0  0  0  0  0  0  0
   19.6273    5.9434  -11.0372 C   0  0  1  0  0  0  0  0  0  0  0  0
   19.9488    7.3634  -11.3355 C   0  0  0  0  0  0  0  0  0  0  0  0
   19.0278    8.3203  -10.6700 C   0  0  0  0  0  0  0  0  0  0  0  0
   19.4052    9.7724  -10.9496 C   0  0  0  0  0  0  0  0  0  0  0  0
   18.3044   10.3702  -11.7986 C   0  0  0  0  0  0  0  0  0  0  0  0
   18.5284   11.7543  -12.1002 N   0  0  0  0  0  0  0  0  0  0  0  0
   18.2999    5.5862  -11.5769 C   0  0  0  0  0  0  0  0  0  0  0  0
   17.2780    5.8871  -10.8702 O   0  0  0  0  0  0  0  0  0  0  0  0
   18.0474    4.9619  -12.7664 O   0  0  0  0  0  0  0  0  0  0  0  0
  2  3  1  1
  2  1  1  0
  4  2  1  0
  4  5  1  6
  6 15  1  0
  6  4  1  0
  7  6  2  0
  8  9  1  0
  9 19  2  0
  9 10  1  0
 10 11  2  0
 11 12  1  0
 12 13  1  0
 14 13  1  6
 14 16  1  0
 14 15  1  0
 16 20  1  0
 17 16  2  0
 18 12  2  0
 19 18  1  0
 20 21  1  0
 21 27  1  0
 21 22  1  6
 23 22  1  0
 24 25  1  0
 24 23  1  0
 26 25  1  0
 27 28  2  0
 27 29  1  0
M  END
$$$$
