VYK.pdb
     RDKit          3D

 29 29  0  0  1  0  0  0  0  0999 V2000
   16.4278  -10.2645  -18.0651 C   0  0  0  0  0  0  0  0  0  0  0  0
   16.7852  -10.0858  -16.6305 C   0  0  2  0  0  0  0  0  0  0  0  0
   16.1653   -8.8323  -16.0948 C   0  0  0  0  0  0  0  0  0  0  0  0
   18.2601  -10.1080  -16.3534 C   0  0  2  0  0  0  0  0  0  0  0  0
   18.7754  -11.3833  -16.8164 N   0  0  0  0  0  0  0  0  0  0  0  0
   18.5951   -9.8503  -14.9403 C   0  0  0  0  0  0  0  0  0  0  0  0
   18.4163  -10.7899  -14.1233 O   0  0  0  0  0  0  0  0  0  0  0  0
   22.0663   -6.6394   -7.4510 O   0  0  0  0  0  0  0  0  0  0  0  0
   21.7022   -6.8542   -8.7734 C   0  0  0  0  0  0  0  0  0  0  0  0
   20.9638   -5.9417   -9.4751 C   0  0  0  0  0  0  0  0  0  0  0  0
   20.6274   -6.2142  -10.8053 C   0  0  0  0  0  0  0  0  0  0  0  0
   21.0141   -7.3761  -11.4427 C   0  0  0  0  0  0  0  0  0  0  0  0
   20.6256   -7.5858  -12.8323 C   0  0  0  0  0  0  0  0  0  0  0  0
   19.3546   -8.3603  -13.0427 C   0  0  2  0  0  0  0  0  0  0  0  0
   19.1030   -8.6133  -14.4546 N   0  0  0  0  0  0  0  0  0  0  0  0
   18.1484   -7.6973  -12.4883 C   0  0  0  0  0  0  0  0  0  0  0  0
   17.5946   -6.7535  -13.1022 O   0  0  0  0  0  0  0  0  0  0  0  0
   21.7570   -8.2640  -10.6921 C   0  0  0  0  0  0  0  0  0  0  0  0
   22.0944   -8.0135   -9.3913 C   0  0  0  0  0  0  0  0  0  0  0  0
   17.5647   -8.0922  -11.2490 N   0  0  0  0  0  0  0  0  0  0  0  0
   16.3794   -7.4606  -10.6895 C   0  0  1  0  0  0  0  0  0  0  0  0
   15.4767   -8.4535  -10.0505 C   0  0  0  0  0  0  0  0  0  0  0  0
   14.2331   -7.8460   -9.5110 C   0  0  0  0  0  0  0  0  0  0  0  0
   13.2984   -8.8890   -8.9048 C   0  0  0  0  0  0  0  0  0  0  0  0
   12.0983   -8.1527   -8.3500 C   0  0  0  0  0  0  0  0  0  0  0  0
   11.0398   -9.0371   -7.9575 N   0  0  0  0  0  0  0  0  0  0  0  0
   16.7351   -6.3913   -9.7352 C   0  0  0  0  0  0  0  0  0  0  0  0
   15.7916   -5.6330   -9.3241 O   0  0  0  0  0  0  0  0  0  0  0  0
   17.9811   -6.1259   -9.2395 O   0  0  0  0  0  0  0  0  0  0  0  0
  2  3  1  6
  2  1  1  0
  4  2  1  0
  4  5  1  1
  6 15  1  0
  6  4  1  0
  7  6  2  0
  8  9  1  0
  9 19  2  0
  9 10  1  0
 10 11  2  0
 11 12  1  0
 12 13  1  0
 14 13  1  6
 14 16  1  0
 14 15  1  0
 16 20  1  0
 17 16  2  0
 18 12  2  0
 19 18  1  0
 20 21  1  0
 21 27  1  0
 21 22  1  1
 23 22  1  0
 24 25  1  0
 24 23  1  0
 26 25  1  0
 27 28  2  0
 27 29  1  0
M  END
$$$$
