VYK.pdb
     RDKit          3D

 29 29  0  0  1  0  0  0  0  0999 V2000
   28.5424  -18.7345  -18.1296 C   0  0  0  0  0  0  0  0  0  0  0  0
   27.6482  -19.2051  -17.0356 C   0  0  2  0  0  0  0  0  0  0  0  0
   27.1688  -18.0427  -16.2226 C   0  0  0  0  0  0  0  0  0  0  0  0
   28.2533  -20.2566  -16.1519 C   0  0  2  0  0  0  0  0  0  0  0  0
   28.6245  -21.3786  -16.9941 N   0  0  0  0  0  0  0  0  0  0  0  0
   27.3761  -20.6613  -15.0372 C   0  0  0  0  0  0  0  0  0  0  0  0
   26.3550  -21.3383  -15.3219 O   0  0  0  0  0  0  0  0  0  0  0  0
   23.7934  -21.1442   -6.8839 O   0  0  0  0  0  0  0  0  0  0  0  0
   24.6601  -20.9875   -7.9572 C   0  0  0  0  0  0  0  0  0  0  0  0
   25.1537  -22.0599   -8.6476 C   0  0  0  0  0  0  0  0  0  0  0  0
   26.0236  -21.8388   -9.7206 C   0  0  0  0  0  0  0  0  0  0  0  0
   26.4064  -20.5720  -10.1133 C   0  0  0  0  0  0  0  0  0  0  0  0
   27.3154  -20.4242  -11.2437 C   0  0  0  0  0  0  0  0  0  0  0  0
   26.7346  -20.7469  -12.5920 C   0  0  2  0  0  0  0  0  0  0  0  0
   27.6170  -20.3329  -13.6741 N   0  0  0  0  0  0  0  0  0  0  0  0
   25.4086  -20.1281  -12.8386 C   0  0  0  0  0  0  0  0  0  0  0  0
   25.3112  -18.9102  -13.1247 O   0  0  0  0  0  0  0  0  0  0  0  0
   25.8814  -19.5241   -9.3852 C   0  0  0  0  0  0  0  0  0  0  0  0
   25.0302  -19.7224   -8.3340 C   0  0  0  0  0  0  0  0  0  0  0  0
   24.1954  -20.8732  -12.7652 N   0  0  0  0  0  0  0  0  0  0  0  0
   22.8872  -20.2935  -13.0283 C   0  0  1  0  0  0  0  0  0  0  0  0
   22.6682  -20.0665  -14.4807 C   0  0  0  0  0  0  0  0  0  0  0  0
   21.3340  -19.4880  -14.7840 C   0  0  0  0  0  0  0  0  0  0  0  0
   21.0946  -19.3477  -16.2848 C   0  0  0  0  0  0  0  0  0  0  0  0
   19.7401  -18.6980  -16.4678 C   0  0  0  0  0  0  0  0  0  0  0  0
   19.3885  -18.5317  -17.8481 N   0  0  0  0  0  0  0  0  0  0  0  0
   21.8040  -21.1224  -12.4623 C   0  0  0  0  0  0  0  0  0  0  0  0
   20.9595  -20.5431  -11.6972 O   0  0  0  0  0  0  0  0  0  0  0  0
   21.6075  -22.4585  -12.6746 O   0  0  0  0  0  0  0  0  0  0  0  0
  2  3  1  1
  2  1  1  0
  4  2  1  0
  4  5  1  6
  6 15  1  0
  6  4  1  0
  7  6  2  0
  8  9  1  0
  9 19  2  0
  9 10  1  0
 10 11  2  0
 11 12  1  0
 12 13  1  0
 14 13  1  1
 14 16  1  0
 14 15  1  0
 16 20  1  0
 17 16  2  0
 18 12  2  0
 19 18  1  0
 20 21  1  0
 21 27  1  0
 21 22  1  6
 23 22  1  0
 24 25  1  0
 24 23  1  0
 26 25  1  0
 27 28  2  0
 27 29  1  0
M  END
$$$$
