VYK.pdb
     RDKit          3D

 29 29  0  0  1  0  0  0  0  0999 V2000
   25.0893  -23.6529  -14.7353 C   0  0  0  0  0  0  0  0  0  0  0  0
   24.5487  -22.7128  -15.7561 C   0  0  2  0  0  0  0  0  0  0  0  0
   25.2447  -22.9152  -17.0664 C   0  0  0  0  0  0  0  0  0  0  0  0
   24.5918  -21.2684  -15.3505 C   0  0  2  0  0  0  0  0  0  0  0  0
   25.9866  -20.8765  -15.2672 N   0  0  0  0  0  0  0  0  0  0  0  0
   23.8575  -20.9878  -14.1024 C   0  0  0  0  0  0  0  0  0  0  0  0
   24.5361  -20.8369  -13.0541 O   0  0  0  0  0  0  0  0  0  0  0  0
   18.0419  -17.7523  -17.2780 O   0  0  0  0  0  0  0  0  0  0  0  0
   18.8439  -18.0806  -16.1933 C   0  0  0  0  0  0  0  0  0  0  0  0
   20.1988  -17.8963  -16.2167 C   0  0  0  0  0  0  0  0  0  0  0  0
   20.9545  -18.2463  -15.0928 C   0  0  0  0  0  0  0  0  0  0  0  0
   20.3829  -18.7740  -13.9524 C   0  0  0  0  0  0  0  0  0  0  0  0
   21.2386  -19.1115  -12.8211 C   0  0  0  0  0  0  0  0  0  0  0  0
   21.7461  -20.5260  -12.7885 C   0  0  2  0  0  0  0  0  0  0  0  0
   22.4415  -20.8796  -14.0182 N   0  0  0  0  0  0  0  0  0  0  0  0
   20.6848  -21.5401  -12.5709 C   0  0  0  0  0  0  0  0  0  0  0  0
   20.2288  -22.2087  -13.5297 O   0  0  0  0  0  0  0  0  0  0  0  0
   19.0135  -18.9404  -13.9788 C   0  0  0  0  0  0  0  0  0  0  0  0
   18.2601  -18.6038  -15.0687 C   0  0  0  0  0  0  0  0  0  0  0  0
   20.1370  -21.8039  -11.2814 N   0  0  0  0  0  0  0  0  0  0  0  0
   19.0879  -22.7843  -11.0468 C   0  0  1  0  0  0  0  0  0  0  0  0
   19.1870  -23.3817   -9.6895 C   0  0  0  0  0  0  0  0  0  0  0  0
   18.0858  -24.3333   -9.3914 C   0  0  0  0  0  0  0  0  0  0  0  0
   18.2168  -24.9486   -8.0009 C   0  0  0  0  0  0  0  0  0  0  0  0
   17.0163  -25.8451   -7.7883 C   0  0  0  0  0  0  0  0  0  0  0  0
   17.0117  -26.4659   -6.4955 N   0  0  0  0  0  0  0  0  0  0  0  0
   17.7470  -22.2048  -11.2634 C   0  0  0  0  0  0  0  0  0  0  0  0
   17.5940  -20.9633  -10.9995 O   0  0  0  0  0  0  0  0  0  0  0  0
   16.6412  -22.8641  -11.7227 O   0  0  0  0  0  0  0  0  0  0  0  0
  2  3  1  6
  2  1  1  0
  4  2  1  0
  4  5  1  1
  6 15  1  0
  6  4  1  0
  7  6  2  0
  8  9  1  0
  9 19  2  0
  9 10  1  0
 10 11  2  0
 11 12  1  0
 12 13  1  0
 14 13  1  6
 14 16  1  0
 14 15  1  0
 16 20  1  0
 17 16  2  0
 18 12  2  0
 19 18  1  0
 20 21  1  0
 21 27  1  0
 21 22  1  1
 23 22  1  0
 24 25  1  0
 24 23  1  0
 26 25  1  0
 27 28  2  0
 27 29  1  0
M  END
$$$$
