FDQ.pdb
     RDKit          3D

 29 29  0  0  1  0  0  0  0  0999 V2000
   29.0268  -21.4062   -8.6903 N   0  0  0  0  0  0  0  0  0  0  0  0
   27.7402  -20.7827   -8.7438 C   0  0  1  0  0  0  0  0  0  0  0  0
   27.7850  -19.4337   -8.0919 C   0  0  0  0  0  0  0  0  0  0  0  0
   28.0530  -19.5272   -6.6421 C   0  0  0  0  0  0  0  0  0  0  0  0
   29.2976  -19.2484   -6.1434 C   0  0  0  0  0  0  0  0  0  0  0  0
   29.6203  -19.3311   -4.7958 C   0  0  0  0  0  0  0  0  0  0  0  0
   28.6359  -19.7146   -3.9117 C   0  0  0  0  0  0  0  0  0  0  0  0
   27.3647  -20.0034   -4.3837 C   0  0  0  0  0  0  0  0  0  0  0  0
   27.0707  -19.9120   -5.7331 C   0  0  0  0  0  0  0  0  0  0  0  0
   27.1745  -20.7527  -10.1148 C   0  0  0  0  0  0  0  0  0  0  0  0
   27.9685  -20.5513  -11.0933 O   0  0  0  0  0  0  0  0  0  0  0  0
   25.8171  -20.9286  -10.4390 N   0  0  0  0  0  0  0  0  0  0  0  0
   25.3645  -20.8414  -11.7808 C   0  0  1  0  0  0  0  0  0  0  0  0
   25.9752  -21.9443  -12.6116 C   0  0  0  0  0  0  0  0  0  0  0  0
   25.4051  -21.8187  -13.9830 C   0  0  0  0  0  0  0  0  0  0  0  0
   25.7271  -20.8621  -14.7502 O   0  0  0  0  0  0  0  0  0  0  0  0
   23.9053  -20.7681  -11.9268 C   0  0  0  0  0  0  0  0  0  0  0  0
   23.1714  -21.1667  -11.0060 O   0  0  0  0  0  0  0  0  0  0  0  0
   24.5059  -22.7577  -14.4349 O   0  0  0  0  0  0  0  0  0  0  0  0
   21.7850  -16.9840  -16.4372 N   0  0  0  0  0  0  0  0  0  0  0  0
   21.2745  -18.3074  -16.5276 C   0  0  0  0  0  0  0  0  0  0  0  0
   20.7661  -18.6738  -17.6338 O   0  0  0  0  0  0  0  0  0  0  0  0
   21.3588  -19.1804  -15.3419 C   0  0  0  0  0  0  0  0  0  0  0  0
   22.0161  -18.4896  -14.1670 C   0  0  0  0  0  0  0  0  0  0  0  0
   22.1193  -19.4403  -12.9793 C   0  0  2  0  0  0  0  0  0  0  0  0
   23.3364  -20.2450  -13.1064 N   0  0  0  0  0  0  0  0  0  0  0  0
   20.9671  -20.3659  -13.0797 C   0  0  0  0  0  0  0  0  0  0  0  0
   19.7195  -19.9834  -12.5970 O   0  0  0  0  0  0  0  0  0  0  0  0
   21.0870  -21.5059  -13.5951 O   0  0  0  0  0  0  0  0  0  0  0  0
  2  1  1  6
  2  3  1  0
  2 10  1  0
  3  4  1  0
  4  5  2  0
  5  6  1  0
  7  6  2  0
  8  7  1  0
  9  8  2  0
  9  4  1  0
 10 11  2  0
 12 10  1  0
 12 13  1  0
 13 14  1  6
 14 15  1  0
 15 19  1  0
 16 15  2  0
 17 13  1  0
 17 18  2  0
 21 20  1  0
 21 22  2  0
 23 21  1  0
 24 23  1  0
 25 24  1  6
 25 26  1  0
 26 17  1  0
 27 28  1  0
 27 25  1  0
 29 27  2  0
M  END
$$$$
