FDQ.pdb
     RDKit          3D

 29 29  0  0  1  0  0  0  0  0999 V2000
   29.8199  -20.0626  -13.6125 N   0  0  0  0  0  0  0  0  0  0  0  0
   28.5913  -20.6315  -13.1500 C   0  0  1  0  0  0  0  0  0  0  0  0
   28.4893  -20.5151  -11.6590 C   0  0  0  0  0  0  0  0  0  0  0  0
   29.6166  -21.1789  -10.9727 C   0  0  0  0  0  0  0  0  0  0  0  0
   30.8189  -20.5395  -10.8275 C   0  0  0  0  0  0  0  0  0  0  0  0
   31.9217  -21.1108  -10.2073 C   0  0  0  0  0  0  0  0  0  0  0  0
   31.8010  -22.3903   -9.7112 C   0  0  0  0  0  0  0  0  0  0  0  0
   30.5972  -23.0655   -9.8413 C   0  0  0  0  0  0  0  0  0  0  0  0
   29.5133  -22.4711  -10.4639 C   0  0  0  0  0  0  0  0  0  0  0  0
   27.4066  -20.0934  -13.8624 C   0  0  0  0  0  0  0  0  0  0  0  0
   27.1738  -18.8409  -13.7901 O   0  0  0  0  0  0  0  0  0  0  0  0
   26.5000  -20.8535  -14.6233 N   0  0  0  0  0  0  0  0  0  0  0  0
   25.3526  -20.2591  -15.2088 C   0  0  1  0  0  0  0  0  0  0  0  0
   25.4361  -20.3324  -16.7146 C   0  0  0  0  0  0  0  0  0  0  0  0
   24.3064  -19.5212  -17.2502 C   0  0  0  0  0  0  0  0  0  0  0  0
   23.8383  -19.7210  -18.4114 O   0  0  0  0  0  0  0  0  0  0  0  0
   24.0748  -20.7635  -14.6902 C   0  0  0  0  0  0  0  0  0  0  0  0
   23.7408  -21.9409  -14.9089 O   0  0  0  0  0  0  0  0  0  0  0  0
   23.7531  -18.5285  -16.4736 O   0  0  0  0  0  0  0  0  0  0  0  0
   21.8158  -19.8586   -9.1435 N   0  0  0  0  0  0  0  0  0  0  0  0
   20.7679  -20.6100   -9.7415 C   0  0  0  0  0  0  0  0  0  0  0  0
   19.8645  -21.0797   -8.9802 O   0  0  0  0  0  0  0  0  0  0  0  0
   20.7835  -20.8060  -11.2031 C   0  0  0  0  0  0  0  0  0  0  0  0
   22.0184  -20.2152  -11.8476 C   0  0  0  0  0  0  0  0  0  0  0  0
   22.0296  -20.5061  -13.3443 C   0  0  2  0  0  0  0  0  0  0  0  0
   23.2289  -19.9171  -13.9441 N   0  0  0  0  0  0  0  0  0  0  0  0
   20.8594  -19.8027  -13.9187 C   0  0  0  0  0  0  0  0  0  0  0  0
   19.7710  -20.5286  -14.3922 O   0  0  0  0  0  0  0  0  0  0  0  0
   20.8219  -18.5486  -13.9933 O   0  0  0  0  0  0  0  0  0  0  0  0
  2  1  1  6
  2  3  1  0
  2 10  1  0
  3  4  1  0
  4  5  2  0
  5  6  1  0
  7  6  2  0
  8  7  1  0
  9  8  2  0
  9  4  1  0
 10 11  2  0
 12 10  1  0
 12 13  1  0
 13 14  1  6
 14 15  1  0
 15 19  1  0
 16 15  2  0
 17 13  1  0
 17 18  2  0
 21 20  1  0
 21 22  2  0
 23 21  1  0
 24 23  1  0
 25 24  1  1
 25 26  1  0
 26 17  1  0
 27 28  1  0
 27 25  1  0
 29 27  2  0
M  END
$$$$
