FDQ.pdb
     RDKit          3D

 29 29  0  0  1  0  0  0  0  0999 V2000
   23.1792  -14.4775  -17.4758 N   0  0  0  0  0  0  0  0  0  0  0  0
   23.2328  -13.5047  -16.4281 C   0  0  1  0  0  0  0  0  0  0  0  0
   24.6235  -12.9632  -16.2876 C   0  0  0  0  0  0  0  0  0  0  0  0
   25.5957  -14.0174  -15.9328 C   0  0  0  0  0  0  0  0  0  0  0  0
   26.4852  -14.4873  -16.8620 C   0  0  0  0  0  0  0  0  0  0  0  0
   27.4136  -15.4855  -16.5992 C   0  0  0  0  0  0  0  0  0  0  0  0
   27.4419  -16.0337  -15.3357 C   0  0  0  0  0  0  0  0  0  0  0  0
   26.5552  -15.5801  -14.3713 C   0  0  0  0  0  0  0  0  0  0  0  0
   25.6402  -14.5828  -14.6609 C   0  0  0  0  0  0  0  0  0  0  0  0
   22.2038  -12.4464  -16.5755 C   0  0  0  0  0  0  0  0  0  0  0  0
   21.9188  -12.0384  -17.7505 O   0  0  0  0  0  0  0  0  0  0  0  0
   21.5022  -11.8407  -15.5175 N   0  0  0  0  0  0  0  0  0  0  0  0
   20.5182  -10.8480  -15.7610 C   0  0  1  0  0  0  0  0  0  0  0  0
   19.2499  -11.1730  -15.0091 C   0  0  0  0  0  0  0  0  0  0  0  0
   18.2257  -10.1795  -15.4393 C   0  0  0  0  0  0  0  0  0  0  0  0
   17.6614   -9.4061  -14.6081 O   0  0  0  0  0  0  0  0  0  0  0  0
   20.9732   -9.4713  -15.5299 C   0  0  0  0  0  0  0  0  0  0  0  0
   21.7063   -9.2177  -14.5584 O   0  0  0  0  0  0  0  0  0  0  0  0
   17.8766  -10.0937  -16.7679 O   0  0  0  0  0  0  0  0  0  0  0  0
   22.0528   -2.7659  -18.4589 N   0  0  0  0  0  0  0  0  0  0  0  0
   21.4768   -4.0652  -18.4707 C   0  0  0  0  0  0  0  0  0  0  0  0
   20.9159   -4.4567  -19.5424 O   0  0  0  0  0  0  0  0  0  0  0  0
   21.5576   -4.8856  -17.2478 C   0  0  0  0  0  0  0  0  0  0  0  0
   20.9494   -6.2582  -17.4371 C   0  0  0  0  0  0  0  0  0  0  0  0
   21.1399   -7.1033  -16.1823 C   0  0  2  0  0  0  0  0  0  0  0  0
   20.5827   -8.4389  -16.4077 N   0  0  0  0  0  0  0  0  0  0  0  0
   20.3329   -6.4636  -15.1175 C   0  0  0  0  0  0  0  0  0  0  0  0
   18.9724   -6.7359  -15.0131 O   0  0  0  0  0  0  0  0  0  0  0  0
   20.8501   -5.6678  -14.2936 O   0  0  0  0  0  0  0  0  0  0  0  0
  2  1  1  6
  2  3  1  0
  2 10  1  0
  3  4  1  0
  4  5  2  0
  5  6  1  0
  7  6  2  0
  8  7  1  0
  9  8  2  0
  9  4  1  0
 10 11  2  0
 12 10  1  0
 12 13  1  0
 13 14  1  1
 14 15  1  0
 15 19  1  0
 16 15  2  0
 17 13  1  0
 17 18  2  0
 21 20  1  0
 21 22  2  0
 23 21  1  0
 24 23  1  0
 25 24  1  6
 25 26  1  0
 26 17  1  0
 27 28  1  0
 27 25  1  0
 29 27  2  0
M  END
$$$$
