FDQ.pdb
     RDKit          3D

 29 29  0  0  1  0  0  0  0  0999 V2000
   27.9961  -19.6312  -15.8399 N   0  0  0  0  0  0  0  0  0  0  0  0
   26.8419  -20.4210  -16.1419 C   0  0  1  0  0  0  0  0  0  0  0  0
   27.0965  -21.8631  -15.8219 C   0  0  0  0  0  0  0  0  0  0  0  0
   28.0685  -22.4741  -16.7516 C   0  0  0  0  0  0  0  0  0  0  0  0
   29.3033  -22.8687  -16.3097 C   0  0  0  0  0  0  0  0  0  0  0  0
   30.2676  -23.4348  -17.1323 C   0  0  0  0  0  0  0  0  0  0  0  0
   29.9671  -23.6091  -18.4654 C   0  0  0  0  0  0  0  0  0  0  0  0
   28.7256  -23.2208  -18.9450 C   0  0  0  0  0  0  0  0  0  0  0  0
   27.7826  -22.6593  -18.1018 C   0  0  0  0  0  0  0  0  0  0  0  0
   25.6054  -19.8912  -15.5167 C   0  0  0  0  0  0  0  0  0  0  0  0
   25.6862  -19.3869  -14.3473 O   0  0  0  0  0  0  0  0  0  0  0  0
   24.3287  -19.8958  -16.1073 N   0  0  0  0  0  0  0  0  0  0  0  0
   23.1950  -19.4031  -15.4111 C   0  0  1  0  0  0  0  0  0  0  0  0
   22.1381  -18.9476  -16.3885 C   0  0  0  0  0  0  0  0  0  0  0  0
   22.6634  -17.7213  -17.0529 C   0  0  0  0  0  0  0  0  0  0  0  0
   22.8745  -17.6825  -18.3025 O   0  0  0  0  0  0  0  0  0  0  0  0
   22.6634  -20.3160  -14.3913 C   0  0  0  0  0  0  0  0  0  0  0  0
   22.3274  -21.4697  -14.7098 O   0  0  0  0  0  0  0  0  0  0  0  0
   22.9301  -16.6004  -16.3000 O   0  0  0  0  0  0  0  0  0  0  0  0
   24.5756  -20.4804   -8.6202 N   0  0  0  0  0  0  0  0  0  0  0  0
   25.1471  -21.0976   -9.7659 C   0  0  0  0  0  0  0  0  0  0  0  0
   26.3497  -21.5021   -9.6851 O   0  0  0  0  0  0  0  0  0  0  0  0
   24.3223  -21.2345  -10.9807 C   0  0  0  0  0  0  0  0  0  0  0  0
   22.9208  -20.6982  -10.7856 C   0  0  0  0  0  0  0  0  0  0  0  0
   22.1015  -20.8718  -12.0598 C   0  0  2  0  0  0  0  0  0  0  0  0
   22.5360  -19.8877  -13.0538 N   0  0  0  0  0  0  0  0  0  0  0  0
   20.6995  -20.5504  -11.7059 C   0  0  0  0  0  0  0  0  0  0  0  0
   19.9483  -21.4425  -10.9471 O   0  0  0  0  0  0  0  0  0  0  0  0
   20.1600  -19.4783  -12.0791 O   0  0  0  0  0  0  0  0  0  0  0  0
  2  1  1  1
  2  3  1  0
  2 10  1  0
  3  4  1  0
  4  5  2  0
  5  6  1  0
  7  6  2  0
  8  7  1  0
  9  8  2  0
  9  4  1  0
 10 11  2  0
 12 10  1  0
 12 13  1  0
 13 14  1  6
 14 15  1  0
 15 19  1  0
 16 15  2  0
 17 13  1  0
 17 18  2  0
 21 20  1  0
 21 22  2  0
 23 21  1  0
 24 23  1  0
 25 24  1  1
 25 26  1  0
 26 17  1  0
 27 28  1  0
 27 25  1  0
 29 27  2  0
M  END
$$$$
