FDQ.pdb
     RDKit          3D

 29 29  0  0  1  0  0  0  0  0999 V2000
   24.9336  -20.0810   -7.8398 N   0  0  0  0  0  0  0  0  0  0  0  0
   26.1402  -20.1513   -8.6055 C   0  0  1  0  0  0  0  0  0  0  0  0
   27.1259  -21.0677   -7.9457 C   0  0  0  0  0  0  0  0  0  0  0  0
   27.7831  -20.4322   -6.7852 C   0  0  0  0  0  0  0  0  0  0  0  0
   27.2723  -20.5858   -5.5238 C   0  0  0  0  0  0  0  0  0  0  0  0
   27.8311  -20.0045   -4.3938 C   0  0  0  0  0  0  0  0  0  0  0  0
   28.9602  -19.2307   -4.5488 C   0  0  0  0  0  0  0  0  0  0  0  0
   29.5032  -19.0553   -5.8124 C   0  0  0  0  0  0  0  0  0  0  0  0
   28.9254  -19.6475   -6.9219 C   0  0  0  0  0  0  0  0  0  0  0  0
   25.8960  -20.4814  -10.0309 C   0  0  0  0  0  0  0  0  0  0  0  0
   24.6936  -20.4691  -10.4580 O   0  0  0  0  0  0  0  0  0  0  0  0
   26.8884  -20.8138  -10.9707 N   0  0  0  0  0  0  0  0  0  0  0  0
   26.7115  -20.5456  -12.3526 C   0  0  1  0  0  0  0  0  0  0  0  0
   27.9675  -20.8885  -13.1171 C   0  0  0  0  0  0  0  0  0  0  0  0
   27.6914  -20.6016  -14.5533 C   0  0  0  0  0  0  0  0  0  0  0  0
   28.2523  -21.2590  -15.4810 O   0  0  0  0  0  0  0  0  0  0  0  0
   25.5106  -21.1521  -12.9409 C   0  0  0  0  0  0  0  0  0  0  0  0
   25.3273  -22.3779  -12.8451 O   0  0  0  0  0  0  0  0  0  0  0  0
   26.8095  -19.5998  -14.8899 O   0  0  0  0  0  0  0  0  0  0  0  0
   20.6826  -22.5984  -11.1565 N   0  0  0  0  0  0  0  0  0  0  0  0
   20.1380  -21.5341  -11.9251 C   0  0  0  0  0  0  0  0  0  0  0  0
   18.8863  -21.3252  -11.8473 O   0  0  0  0  0  0  0  0  0  0  0  0
   21.0458  -20.7341  -12.7682 C   0  0  0  0  0  0  0  0  0  0  0  0
   22.4923  -21.1474  -12.6057 C   0  0  0  0  0  0  0  0  0  0  0  0
   23.2570  -20.9342  -13.9075 C   0  0  2  0  0  0  0  0  0  0  0  0
   24.5658  -20.3476  -13.6108 N   0  0  0  0  0  0  0  0  0  0  0  0
   22.4920  -19.9326  -14.6859 C   0  0  0  0  0  0  0  0  0  0  0  0
   21.4202  -20.3331  -15.4775 O   0  0  0  0  0  0  0  0  0  0  0  0
   22.7897  -18.7120  -14.6525 O   0  0  0  0  0  0  0  0  0  0  0  0
  2  1  1  1
  2  3  1  0
  2 10  1  0
  3  4  1  0
  4  5  2  0
  5  6  1  0
  7  6  2  0
  8  7  1  0
  9  8  2  0
  9  4  1  0
 10 11  2  0
 12 10  1  0
 12 13  1  0
 13 14  1  6
 14 15  1  0
 15 19  1  0
 16 15  2  0
 17 13  1  0
 17 18  2  0
 21 20  1  0
 21 22  2  0
 23 21  1  0
 24 23  1  0
 25 24  1  1
 25 26  1  0
 26 17  1  0
 27 28  1  0
 27 25  1  0
 29 27  2  0
M  END
$$$$
