FDQ.pdb
     RDKit          3D

 29 29  0  0  1  0  0  0  0  0999 V2000
   27.4976  -21.4251   -9.8087 N   0  0  0  0  0  0  0  0  0  0  0  0
   26.2586  -20.9188   -9.3031 C   0  0  1  0  0  0  0  0  0  0  0  0
   26.4749  -19.6123   -8.6007 C   0  0  0  0  0  0  0  0  0  0  0  0
   27.1480  -19.7883   -7.2975 C   0  0  0  0  0  0  0  0  0  0  0  0
   28.4370  -19.3632   -7.1151 C   0  0  0  0  0  0  0  0  0  0  0  0
   29.1321  -19.5111   -5.9226 C   0  0  0  0  0  0  0  0  0  0  0  0
   28.4915  -20.1187   -4.8651 C   0  0  0  0  0  0  0  0  0  0  0  0
   27.1860  -20.5602   -5.0163 C   0  0  0  0  0  0  0  0  0  0  0  0
   26.5165  -20.3990   -6.2170 C   0  0  0  0  0  0  0  0  0  0  0  0
   25.1985  -20.8590  -10.3390 C   0  0  0  0  0  0  0  0  0  0  0  0
   25.5514  -20.7895  -11.5633 O   0  0  0  0  0  0  0  0  0  0  0  0
   23.8144  -20.8712  -10.0884 N   0  0  0  0  0  0  0  0  0  0  0  0
   22.8748  -20.8437  -11.1510 C   0  0  1  0  0  0  0  0  0  0  0  0
   21.4704  -20.9700  -10.6110 C   0  0  0  0  0  0  0  0  0  0  0  0
   21.0017  -22.3452  -10.9432 C   0  0  0  0  0  0  0  0  0  0  0  0
   21.6927  -23.1254  -11.6651 O   0  0  0  0  0  0  0  0  0  0  0  0
   23.0259  -19.7061  -12.0671 C   0  0  0  0  0  0  0  0  0  0  0  0
   23.6395  -18.6908  -11.6954 O   0  0  0  0  0  0  0  0  0  0  0  0
   19.7905  -22.7865  -10.4607 O   0  0  0  0  0  0  0  0  0  0  0  0
   26.7834  -20.2869  -16.5341 N   0  0  0  0  0  0  0  0  0  0  0  0
   26.5114  -18.9721  -16.0677 C   0  0  0  0  0  0  0  0  0  0  0  0
   27.4965  -18.1867  -15.8969 O   0  0  0  0  0  0  0  0  0  0  0  0
   25.1112  -18.5900  -15.8063 C   0  0  0  0  0  0  0  0  0  0  0  0
   24.5158  -19.3544  -14.6441 C   0  0  0  0  0  0  0  0  0  0  0  0
   23.0771  -18.9137  -14.3973 C   0  0  2  0  0  0  0  0  0  0  0  0
   22.4792  -19.7643  -13.3657 N   0  0  0  0  0  0  0  0  0  0  0  0
   22.3383  -19.1638  -15.6566 C   0  0  0  0  0  0  0  0  0  0  0  0
   21.3357  -20.1276  -15.6988 O   0  0  0  0  0  0  0  0  0  0  0  0
   22.5968  -18.5211  -16.7053 O   0  0  0  0  0  0  0  0  0  0  0  0
  2  1  1  6
  2  3  1  0
  2 10  1  0
  3  4  1  0
  4  5  2  0
  5  6  1  0
  7  6  2  0
  8  7  1  0
  9  8  2  0
  9  4  1  0
 10 11  2  0
 12 10  1  0
 12 13  1  0
 13 14  1  1
 14 15  1  0
 15 19  1  0
 16 15  2  0
 17 13  1  0
 17 18  2  0
 21 20  1  0
 21 22  2  0
 23 21  1  0
 24 23  1  0
 25 24  1  6
 25 26  1  0
 26 17  1  0
 27 28  1  0
 27 25  1  0
 29 27  2  0
M  END
$$$$
