FDQ.pdb
     RDKit          3D

 29 29  0  0  1  0  0  0  0  0999 V2000
   28.2057  -20.0804   -9.4889 N   0  0  0  0  0  0  0  0  0  0  0  0
   26.8845  -20.5393   -9.1876 C   0  0  1  0  0  0  0  0  0  0  0  0
   26.4170  -19.9681   -7.8830 C   0  0  0  0  0  0  0  0  0  0  0  0
   27.4775  -19.9940   -6.8547 C   0  0  0  0  0  0  0  0  0  0  0  0
   27.8937  -18.8366   -6.2525 C   0  0  0  0  0  0  0  0  0  0  0  0
   28.8941  -18.7887   -5.2913 C   0  0  0  0  0  0  0  0  0  0  0  0
   29.5019  -19.9689   -4.9230 C   0  0  0  0  0  0  0  0  0  0  0  0
   29.1037  -21.1586   -5.5130 C   0  0  0  0  0  0  0  0  0  0  0  0
   28.1027  -21.1770   -6.4687 C   0  0  0  0  0  0  0  0  0  0  0  0
   25.9313  -20.3132  -10.3016 C   0  0  0  0  0  0  0  0  0  0  0  0
   24.9917  -19.4666  -10.1322 O   0  0  0  0  0  0  0  0  0  0  0  0
   25.9703  -20.9604  -11.5499 N   0  0  0  0  0  0  0  0  0  0  0  0
   25.1338  -20.5471  -12.6186 C   0  0  1  0  0  0  0  0  0  0  0  0
   25.9641  -20.2213  -13.8369 C   0  0  0  0  0  0  0  0  0  0  0  0
   26.6314  -21.4862  -14.2561 C   0  0  0  0  0  0  0  0  0  0  0  0
   27.4895  -22.0594  -13.5194 O   0  0  0  0  0  0  0  0  0  0  0  0
   24.0305  -21.4683  -12.9186 C   0  0  0  0  0  0  0  0  0  0  0  0
   24.1455  -22.6773  -12.6530 O   0  0  0  0  0  0  0  0  0  0  0  0
   26.3164  -22.0518  -15.4708 O   0  0  0  0  0  0  0  0  0  0  0  0
   18.8921  -22.5901  -10.8773 N   0  0  0  0  0  0  0  0  0  0  0  0
   19.1457  -21.2449  -11.2596 C   0  0  0  0  0  0  0  0  0  0  0  0
   18.4727  -20.3286  -10.6904 O   0  0  0  0  0  0  0  0  0  0  0  0
   20.1677  -20.9833  -12.2902 C   0  0  0  0  0  0  0  0  0  0  0  0
   20.9156  -22.2374  -12.6871 C   0  0  0  0  0  0  0  0  0  0  0  0
   21.8201  -21.9624  -13.8834 C   0  0  2  0  0  0  0  0  0  0  0  0
   22.8423  -20.9844  -13.5040 N   0  0  0  0  0  0  0  0  0  0  0  0
   20.9691  -21.3306  -14.9182 C   0  0  0  0  0  0  0  0  0  0  0  0
   19.9848  -22.0735  -15.5624 O   0  0  0  0  0  0  0  0  0  0  0  0
   21.1146  -20.1236  -15.2372 O   0  0  0  0  0  0  0  0  0  0  0  0
  2  1  1  6
  2  3  1  0
  2 10  1  0
  3  4  1  0
  4  5  2  0
  5  6  1  0
  7  6  2  0
  8  7  1  0
  9  8  2  0
  9  4  1  0
 10 11  2  0
 12 10  1  0
 12 13  1  0
 13 14  1  6
 14 15  1  0
 15 19  1  0
 16 15  2  0
 17 13  1  0
 17 18  2  0
 21 20  1  0
 21 22  2  0
 23 21  1  0
 24 23  1  0
 25 24  1  1
 25 26  1  0
 26 17  1  0
 27 28  1  0
 27 25  1  0
 29 27  2  0
M  END
$$$$
