FDQ.pdb
     RDKit          3D

 29 29  0  0  1  0  0  0  0  0999 V2000
   24.8058  -21.4224   -8.5533 N   0  0  0  0  0  0  0  0  0  0  0  0
   25.0472  -20.5719   -9.6782 C   0  0  1  0  0  0  0  0  0  0  0  0
   26.5079  -20.5503  -10.0139 C   0  0  0  0  0  0  0  0  0  0  0  0
   27.3470  -20.3085   -8.8223 C   0  0  0  0  0  0  0  0  0  0  0  0
   27.2929  -19.1095   -8.1627 C   0  0  0  0  0  0  0  0  0  0  0  0
   28.0641  -18.8119   -7.0474 C   0  0  0  0  0  0  0  0  0  0  0  0
   28.9314  -19.7741   -6.5785 C   0  0  0  0  0  0  0  0  0  0  0  0
   29.0102  -20.9990   -7.2230 C   0  0  0  0  0  0  0  0  0  0  0  0
   28.2287  -21.2689   -8.3329 C   0  0  0  0  0  0  0  0  0  0  0  0
   24.1836  -20.8985  -10.8393 C   0  0  0  0  0  0  0  0  0  0  0  0
   23.7265  -22.0856  -10.9391 O   0  0  0  0  0  0  0  0  0  0  0  0
   23.8177  -20.0013  -11.8590 N   0  0  0  0  0  0  0  0  0  0  0  0
   23.0395  -20.4254  -12.9668 C   0  0  1  0  0  0  0  0  0  0  0  0
   21.8582  -19.5050  -13.1593 C   0  0  0  0  0  0  0  0  0  0  0  0
   20.9595  -19.7041  -11.9872 C   0  0  0  0  0  0  0  0  0  0  0  0
   20.6308  -18.7403  -11.2319 O   0  0  0  0  0  0  0  0  0  0  0  0
   23.8031  -20.6284  -14.2044 C   0  0  0  0  0  0  0  0  0  0  0  0
   23.4360  -20.0740  -15.2549 O   0  0  0  0  0  0  0  0  0  0  0  0
   20.4715  -20.9608  -11.7094 O   0  0  0  0  0  0  0  0  0  0  0  0
   29.3152  -21.8755  -15.1772 N   0  0  0  0  0  0  0  0  0  0  0  0
   28.9020  -22.3721  -16.4432 C   0  0  0  0  0  0  0  0  0  0  0  0
   29.7539  -22.3753  -17.3870 O   0  0  0  0  0  0  0  0  0  0  0  0
   27.5162  -22.8530  -16.5961 C   0  0  0  0  0  0  0  0  0  0  0  0
   26.7150  -22.7077  -15.3207 C   0  0  0  0  0  0  0  0  0  0  0  0
   25.6970  -21.5807  -15.4562 C   0  0  2  0  0  0  0  0  0  0  0  0
   24.9511  -21.4473  -14.2028 N   0  0  0  0  0  0  0  0  0  0  0  0
   24.7340  -22.0063  -16.4983 C   0  0  0  0  0  0  0  0  0  0  0  0
   23.8874  -23.0861  -16.2681 O   0  0  0  0  0  0  0  0  0  0  0  0
   24.6602  -21.4112  -17.6029 O   0  0  0  0  0  0  0  0  0  0  0  0
  2  1  1  1
  2  3  1  0
  2 10  1  0
  3  4  1  0
  4  5  2  0
  5  6  1  0
  7  6  2  0
  8  7  1  0
  9  8  2  0
  9  4  1  0
 10 11  2  0
 12 10  1  0
 12 13  1  0
 13 14  1  6
 14 15  1  0
 15 19  1  0
 16 15  2  0
 17 13  1  0
 17 18  2  0
 21 20  1  0
 21 22  2  0
 23 21  1  0
 24 23  1  0
 25 24  1  1
 25 26  1  0
 26 17  1  0
 27 28  1  0
 27 25  1  0
 29 27  2  0
M  END
$$$$
