FDQ.pdb
     RDKit          3D

 29 29  0  0  1  0  0  0  0  0999 V2000
   24.4322  -15.5696  -17.1685 N   0  0  0  0  0  0  0  0  0  0  0  0
   23.1659  -15.9767  -17.6956 C   0  0  1  0  0  0  0  0  0  0  0  0
   23.2448  -17.3774  -18.2235 C   0  0  0  0  0  0  0  0  0  0  0  0
   24.2155  -17.4988  -19.3305 C   0  0  0  0  0  0  0  0  0  0  0  0
   23.9778  -16.8943  -20.5362 C   0  0  0  0  0  0  0  0  0  0  0  0
   24.8398  -16.9807  -21.6209 C   0  0  0  0  0  0  0  0  0  0  0  0
   25.9971  -17.7142  -21.4776 C   0  0  0  0  0  0  0  0  0  0  0  0
   26.2683  -18.3384  -20.2698 C   0  0  0  0  0  0  0  0  0  0  0  0
   25.3909  -18.2349  -19.2043 C   0  0  0  0  0  0  0  0  0  0  0  0
   22.0535  -15.7741  -16.7353 C   0  0  0  0  0  0  0  0  0  0  0  0
   22.2952  -15.9146  -15.4902 O   0  0  0  0  0  0  0  0  0  0  0  0
   20.7324  -15.4357  -17.0800 N   0  0  0  0  0  0  0  0  0  0  0  0
   19.7467  -15.2138  -16.0841 C   0  0  1  0  0  0  0  0  0  0  0  0
   18.6418  -14.3397  -16.6272 C   0  0  0  0  0  0  0  0  0  0  0  0
   19.2386  -12.9984  -16.8844 C   0  0  0  0  0  0  0  0  0  0  0  0
   19.3992  -12.5586  -18.0627 O   0  0  0  0  0  0  0  0  0  0  0  0
   19.2377  -16.4359  -15.4492 C   0  0  0  0  0  0  0  0  0  0  0  0
   19.1171  -17.4761  -16.1194 O   0  0  0  0  0  0  0  0  0  0  0  0
   19.6291  -12.2125  -15.8241 O   0  0  0  0  0  0  0  0  0  0  0  0
   19.8996  -20.5179  -11.8082 N   0  0  0  0  0  0  0  0  0  0  0  0
   20.9424  -19.6387  -12.2078 C   0  0  0  0  0  0  0  0  0  0  0  0
   22.1009  -20.1322  -12.3832 O   0  0  0  0  0  0  0  0  0  0  0  0
   20.6295  -18.2098  -12.3954 C   0  0  0  0  0  0  0  0  0  0  0  0
   19.1655  -17.9078  -12.1605 C   0  0  0  0  0  0  0  0  0  0  0  0
   18.4455  -17.6951  -13.4877 C   0  0  2  0  0  0  0  0  0  0  0  0
   18.8885  -16.4323  -14.0830 N   0  0  0  0  0  0  0  0  0  0  0  0
   17.0066  -17.5500  -13.1675 C   0  0  0  0  0  0  0  0  0  0  0  0
   16.2812  -18.6414  -12.7001 O   0  0  0  0  0  0  0  0  0  0  0  0
   16.4123  -16.4516  -13.3101 O   0  0  0  0  0  0  0  0  0  0  0  0
  2  1  1  1
  2  3  1  0
  2 10  1  0
  3  4  1  0
  4  5  2  0
  5  6  1  0
  7  6  2  0
  8  7  1  0
  9  8  2  0
  9  4  1  0
 10 11  2  0
 12 10  1  0
 12 13  1  0
 13 14  1  6
 14 15  1  0
 15 19  1  0
 16 15  2  0
 17 13  1  0
 17 18  2  0
 21 20  1  0
 21 22  2  0
 23 21  1  0
 24 23  1  0
 25 24  1  1
 25 26  1  0
 26 17  1  0
 27 28  1  0
 27 25  1  0
 29 27  2  0
M  END
$$$$
