FDQ.pdb
     RDKit          3D

 29 29  0  0  1  0  0  0  0  0999 V2000
   12.8694   -2.8586   -9.2800 N   0  0  0  0  0  0  0  0  0  0  0  0
   13.7682   -3.9701   -9.2187 C   0  0  1  0  0  0  0  0  0  0  0  0
   13.2799   -4.9838   -8.2283 C   0  0  0  0  0  0  0  0  0  0  0  0
   13.1208   -4.4071   -6.8775 C   0  0  0  0  0  0  0  0  0  0  0  0
   11.8785   -4.2792   -6.3155 C   0  0  0  0  0  0  0  0  0  0  0  0
   11.6577   -3.7330   -5.0585 C   0  0  0  0  0  0  0  0  0  0  0  0
   12.7465   -3.2955   -4.3369 C   0  0  0  0  0  0  0  0  0  0  0  0
   14.0183   -3.4111   -4.8767 C   0  0  0  0  0  0  0  0  0  0  0  0
   14.2093   -3.9604   -6.1326 C   0  0  0  0  0  0  0  0  0  0  0  0
   14.0575   -4.5475  -10.5542 C   0  0  0  0  0  0  0  0  0  0  0  0
   13.1054   -4.6230  -11.4004 O   0  0  0  0  0  0  0  0  0  0  0  0
   15.3092   -5.0287  -10.9788 N   0  0  0  0  0  0  0  0  0  0  0  0
   15.4871   -5.5672  -12.2792 C   0  0  1  0  0  0  0  0  0  0  0  0
   16.7746   -5.0606  -12.8837 C   0  0  0  0  0  0  0  0  0  0  0  0
   16.5272   -3.6547  -13.3120 C   0  0  0  0  0  0  0  0  0  0  0  0
   15.6461   -3.3703  -14.1782 O   0  0  0  0  0  0  0  0  0  0  0  0
   15.3665   -7.0287  -12.3538 C   0  0  0  0  0  0  0  0  0  0  0  0
   15.8948   -7.7377  -11.4800 O   0  0  0  0  0  0  0  0  0  0  0  0
   17.2692   -2.6347  -12.7610 O   0  0  0  0  0  0  0  0  0  0  0  0
   10.5284  -10.3730  -12.7420 N   0  0  0  0  0  0  0  0  0  0  0  0
   11.4699  -11.3558  -13.1517 C   0  0  0  0  0  0  0  0  0  0  0  0
   11.0455  -12.5370  -13.3543 O   0  0  0  0  0  0  0  0  0  0  0  0
   12.8802  -10.9580  -13.3178 C   0  0  0  0  0  0  0  0  0  0  0  0
   13.0854   -9.4732  -13.1105 C   0  0  0  0  0  0  0  0  0  0  0  0
   14.5292   -9.0873  -13.4130 C   0  0  2  0  0  0  0  0  0  0  0  0
   14.6517   -7.6278  -13.4116 N   0  0  0  0  0  0  0  0  0  0  0  0
   14.8090   -9.5512  -14.7916 C   0  0  0  0  0  0  0  0  0  0  0  0
   15.2333  -10.8570  -15.0169 O   0  0  0  0  0  0  0  0  0  0  0  0
   14.6735   -8.7858  -15.7794 O   0  0  0  0  0  0  0  0  0  0  0  0
  2  1  1  6
  2  3  1  0
  2 10  1  0
  3  4  1  0
  4  5  2  0
  5  6  1  0
  7  6  2  0
  8  7  1  0
  9  8  2  0
  9  4  1  0
 10 11  2  0
 12 10  1  0
 12 13  1  0
 13 14  1  1
 14 15  1  0
 15 19  1  0
 16 15  2  0
 17 13  1  0
 17 18  2  0
 21 20  1  0
 21 22  2  0
 23 21  1  0
 24 23  1  0
 25 24  1  6
 25 26  1  0
 26 17  1  0
 27 28  1  0
 27 25  1  0
 29 27  2  0
M  END
$$$$
