FDQ.pdb
     RDKit          3D

 29 29  0  0  1  0  0  0  0  0999 V2000
   25.8124  -19.5810  -10.8913 N   0  0  0  0  0  0  0  0  0  0  0  0
   25.7093  -20.5997  -11.8907 C   0  0  1  0  0  0  0  0  0  0  0  0
   26.4124  -21.8453  -11.4425 C   0  0  0  0  0  0  0  0  0  0  0  0
   27.8128  -21.5817  -11.0527 C   0  0  0  0  0  0  0  0  0  0  0  0
   28.1919  -21.6309   -9.7377 C   0  0  0  0  0  0  0  0  0  0  0  0
   29.4858  -21.3794   -9.3023 C   0  0  0  0  0  0  0  0  0  0  0  0
   30.4407  -21.0628  -10.2435 C   0  0  0  0  0  0  0  0  0  0  0  0
   30.0902  -21.0051  -11.5836 C   0  0  0  0  0  0  0  0  0  0  0  0
   28.7920  -21.2613  -11.9896 C   0  0  0  0  0  0  0  0  0  0  0  0
   24.3105  -20.8392  -12.3226 C   0  0  0  0  0  0  0  0  0  0  0  0
   24.0908  -21.7564  -13.1822 O   0  0  0  0  0  0  0  0  0  0  0  0
   23.1845  -20.1330  -11.8623 N   0  0  0  0  0  0  0  0  0  0  0  0
   21.9051  -20.3303  -12.4429 C   0  0  1  0  0  0  0  0  0  0  0  0
   20.8225  -20.0821  -11.4201 C   0  0  0  0  0  0  0  0  0  0  0  0
   19.5429  -20.5522  -12.0224 C   0  0  0  0  0  0  0  0  0  0  0  0
   19.4952  -21.5841  -12.7574 O   0  0  0  0  0  0  0  0  0  0  0  0
   21.6824  -19.5884  -13.6903 C   0  0  0  0  0  0  0  0  0  0  0  0
   21.8878  -18.3628  -13.7253 O   0  0  0  0  0  0  0  0  0  0  0  0
   18.3808  -19.8548  -11.7819 O   0  0  0  0  0  0  0  0  0  0  0  0
   21.8955  -19.9255  -21.0111 N   0  0  0  0  0  0  0  0  0  0  0  0
   21.8999  -20.5005  -19.7113 C   0  0  0  0  0  0  0  0  0  0  0  0
   22.1342  -21.7463  -19.6136 O   0  0  0  0  0  0  0  0  0  0  0  0
   21.6329  -19.6291  -18.5518 C   0  0  0  0  0  0  0  0  0  0  0  0
   21.6792  -20.3867  -17.2427 C   0  0  0  0  0  0  0  0  0  0  0  0
   21.1845  -19.5068  -16.0999 C   0  0  2  0  0  0  0  0  0  0  0  0
   21.2393  -20.2629  -14.8467 N   0  0  0  0  0  0  0  0  0  0  0  0
   19.7585  -19.2180  -16.3778 C   0  0  0  0  0  0  0  0  0  0  0  0
   19.4053  -18.1029  -17.1312 O   0  0  0  0  0  0  0  0  0  0  0  0
   18.8437  -19.9628  -15.9438 O   0  0  0  0  0  0  0  0  0  0  0  0
  2  1  1  1
  2  3  1  0
  2 10  1  0
  3  4  1  0
  4  5  2  0
  5  6  1  0
  7  6  2  0
  8  7  1  0
  9  8  2  0
  9  4  1  0
 10 11  2  0
 12 10  1  0
 12 13  1  0
 13 14  1  1
 14 15  1  0
 15 19  1  0
 16 15  2  0
 17 13  1  0
 17 18  2  0
 21 20  1  0
 21 22  2  0
 23 21  1  0
 24 23  1  0
 25 24  1  6
 25 26  1  0
 26 17  1  0
 27 28  1  0
 27 25  1  0
 29 27  2  0
M  END
$$$$
