FDQ.pdb
     RDKit          3D

 29 29  0  0  1  0  0  0  0  0999 V2000
   27.9175  -20.6487   -9.8191 N   0  0  0  0  0  0  0  0  0  0  0  0
   26.5430  -20.9859   -9.6087 C   0  0  1  0  0  0  0  0  0  0  0  0
   26.0628  -20.4327   -8.3010 C   0  0  0  0  0  0  0  0  0  0  0  0
   27.1583  -20.3024   -7.3184 C   0  0  0  0  0  0  0  0  0  0  0  0
   27.2757  -19.1748   -6.5500 C   0  0  0  0  0  0  0  0  0  0  0  0
   28.2883  -18.9821   -5.6202 C   0  0  0  0  0  0  0  0  0  0  0  0
   29.2264  -19.9784   -5.4614 C   0  0  0  0  0  0  0  0  0  0  0  0
   29.1361  -21.1331   -6.2233 C   0  0  0  0  0  0  0  0  0  0  0  0
   28.1151  -21.2989   -7.1430 C   0  0  0  0  0  0  0  0  0  0  0  0
   25.6794  -20.6128  -10.7556 C   0  0  0  0  0  0  0  0  0  0  0  0
   25.0536  -19.5018  -10.7062 O   0  0  0  0  0  0  0  0  0  0  0  0
   25.4839  -21.3878  -11.9131 N   0  0  0  0  0  0  0  0  0  0  0  0
   24.6080  -20.9610  -12.9443 C   0  0  1  0  0  0  0  0  0  0  0  0
   25.3978  -20.5348  -14.1585 C   0  0  0  0  0  0  0  0  0  0  0  0
   26.2644  -21.6868  -14.5368 C   0  0  0  0  0  0  0  0  0  0  0  0
   25.7752  -22.8259  -14.8023 O   0  0  0  0  0  0  0  0  0  0  0  0
   23.5431  -21.9173  -13.2721 C   0  0  0  0  0  0  0  0  0  0  0  0
   23.5303  -23.0370  -12.7321 O   0  0  0  0  0  0  0  0  0  0  0  0
   27.6292  -21.5198  -14.6001 O   0  0  0  0  0  0  0  0  0  0  0  0
   18.3342  -23.2740  -10.2122 N   0  0  0  0  0  0  0  0  0  0  0  0
   18.9102  -22.3548  -11.1306 C   0  0  0  0  0  0  0  0  0  0  0  0
   18.2272  -21.3329  -11.4555 O   0  0  0  0  0  0  0  0  0  0  0  0
   20.2597  -22.6326  -11.6566 C   0  0  0  0  0  0  0  0  0  0  0  0
   20.8005  -21.4856  -12.4822 C   0  0  0  0  0  0  0  0  0  0  0  0
   21.1593  -21.9618  -13.8856 C   0  0  2  0  0  0  0  0  0  0  0  0
   22.5355  -21.5674  -14.1947 N   0  0  0  0  0  0  0  0  0  0  0  0
   20.2716  -21.2297  -14.8184 C   0  0  0  0  0  0  0  0  0  0  0  0
   19.1395  -21.8501  -15.3375 O   0  0  0  0  0  0  0  0  0  0  0  0
   20.5169  -20.0456  -15.1611 O   0  0  0  0  0  0  0  0  0  0  0  0
  2  1  1  6
  2  3  1  0
  2 10  1  0
  3  4  1  0
  4  5  2  0
  5  6  1  0
  7  6  2  0
  8  7  1  0
  9  8  2  0
  9  4  1  0
 10 11  2  0
 12 10  1  0
 12 13  1  0
 13 14  1  6
 14 15  1  0
 15 19  1  0
 16 15  2  0
 17 13  1  0
 17 18  2  0
 21 20  1  0
 21 22  2  0
 23 21  1  0
 24 23  1  0
 25 24  1  1
 25 26  1  0
 26 17  1  0
 27 28  1  0
 27 25  1  0
 29 27  2  0
M  END
$$$$
