FDQ.pdb
     RDKit          3D

 29 29  0  0  1  0  0  0  0  0999 V2000
   24.8014  -20.4106   -9.8072 N   0  0  0  0  0  0  0  0  0  0  0  0
   25.3215  -20.3129  -11.1365 C   0  0  1  0  0  0  0  0  0  0  0  0
   26.2597  -21.4481  -11.4160 C   0  0  0  0  0  0  0  0  0  0  0  0
   26.8521  -21.3581  -12.7664 C   0  0  0  0  0  0  0  0  0  0  0  0
   26.4315  -22.1902  -13.7695 C   0  0  0  0  0  0  0  0  0  0  0  0
   26.9557  -22.1684  -15.0547 C   0  0  0  0  0  0  0  0  0  0  0  0
   27.9532  -21.2612  -15.3370 C   0  0  0  0  0  0  0  0  0  0  0  0
   28.4017  -20.4039  -14.3441 C   0  0  0  0  0  0  0  0  0  0  0  0
   27.8604  -20.4472  -13.0709 C   0  0  0  0  0  0  0  0  0  0  0  0
   24.2570  -20.1669  -12.1592 C   0  0  0  0  0  0  0  0  0  0  0  0
   23.0413  -20.2810  -11.7884 O   0  0  0  0  0  0  0  0  0  0  0  0
   24.4710  -19.9104  -13.5256 N   0  0  0  0  0  0  0  0  0  0  0  0
   23.4210  -19.4472  -14.3598 C   0  0  1  0  0  0  0  0  0  0  0  0
   23.9763  -18.5934  -15.4744 C   0  0  0  0  0  0  0  0  0  0  0  0
   22.8122  -17.9514  -16.1481 C   0  0  0  0  0  0  0  0  0  0  0  0
   21.6465  -18.0046  -15.6523 O   0  0  0  0  0  0  0  0  0  0  0  0
   22.5244  -20.5012  -14.8507 C   0  0  0  0  0  0  0  0  0  0  0  0
   23.0001  -21.5162  -15.3883 O   0  0  0  0  0  0  0  0  0  0  0  0
   22.9973  -17.2842  -17.3377 O   0  0  0  0  0  0  0  0  0  0  0  0
   19.0352  -24.5769  -14.3572 N   0  0  0  0  0  0  0  0  0  0  0  0
   19.8482  -24.1529  -13.2711 C   0  0  0  0  0  0  0  0  0  0  0  0
   20.3876  -25.0487  -12.5478 O   0  0  0  0  0  0  0  0  0  0  0  0
   20.0216  -22.7067  -13.0400 C   0  0  0  0  0  0  0  0  0  0  0  0
   19.3138  -21.8705  -14.0837 C   0  0  0  0  0  0  0  0  0  0  0  0
   20.2836  -21.4635  -15.1878 C   0  0  2  0  0  0  0  0  0  0  0  0
   21.1277  -20.3653  -14.7116 N   0  0  0  0  0  0  0  0  0  0  0  0
   19.4587  -20.9347  -16.2988 C   0  0  0  0  0  0  0  0  0  0  0  0
   18.9257  -21.8018  -17.2473 O   0  0  0  0  0  0  0  0  0  0  0  0
   19.2245  -19.7050  -16.4116 O   0  0  0  0  0  0  0  0  0  0  0  0
  2  1  1  1
  2  3  1  0
  2 10  1  0
  3  4  1  0
  4  5  2  0
  5  6  1  0
  7  6  2  0
  8  7  1  0
  9  8  2  0
  9  4  1  0
 10 11  2  0
 12 10  1  0
 12 13  1  0
 13 14  1  6
 14 15  1  0
 15 19  1  0
 16 15  2  0
 17 13  1  0
 17 18  2  0
 21 20  1  0
 21 22  2  0
 23 21  1  0
 24 23  1  0
 25 24  1  1
 25 26  1  0
 26 17  1  0
 27 28  1  0
 27 25  1  0
 29 27  2  0
M  END
$$$$
