YKH.pdb
     RDKit          3D

 32 33  0  0  1  0  0  0  0  0999 V2000
    7.7713  -12.2568   17.1435 O   0  0  0  0  0  0  0  0  0  0  0  0
    7.7781  -12.8516   18.3988 C   0  0  0  0  0  0  0  0  0  0  0  0
    6.6694  -12.8441   19.2213 C   0  0  0  0  0  0  0  0  0  0  0  0
    6.7210  -13.4528   20.4719 C   0  0  0  0  0  0  0  0  0  0  0  0
    7.8568  -14.0699   20.9203 C   0  0  0  0  0  0  0  0  0  0  0  0
    7.8842  -14.7124   22.2600 C   0  0  0  0  0  0  0  0  0  0  0  0
    8.0299  -16.2053   22.0506 C   0  0  2  0  0  0  0  0  0  0  0  0
    6.7072  -16.7396   21.8325 N   0  0  0  0  0  0  0  0  0  0  0  0
    8.6219  -16.8841   23.2241 C   0  0  0  0  0  0  0  0  0  0  0  0
    7.8963  -17.2783   24.1551 O   0  0  0  0  0  0  0  0  0  0  0  0
    8.9595  -14.0739   20.0948 C   0  0  0  0  0  0  0  0  0  0  0  0
    8.9220  -13.4709   18.8457 C   0  0  0  0  0  0  0  0  0  0  0  0
   10.0407  -17.1181   23.3452 N   0  0  0  0  0  0  0  0  0  0  0  0
   10.6371  -17.7488   24.4572 C   0  0  1  0  0  0  0  0  0  0  0  0
   11.8452  -18.5440   24.1508 C   0  0  0  0  0  0  0  0  0  0  0  0
   12.4017  -19.3801   25.2205 C   0  0  0  0  0  0  0  0  0  0  0  0
   13.6324  -20.1600   24.9175 C   0  0  0  0  0  0  0  0  0  0  0  0
   14.0705  -20.9696   26.1552 C   0  0  0  0  0  0  0  0  0  0  0  0
   13.3739  -22.2355   26.1851 N   0  0  0  0  0  0  0  0  0  0  0  0
   10.9148  -16.8173   25.5846 C   0  0  0  0  0  0  0  0  0  0  0  0
   11.6117  -15.7854   25.3643 O   0  0  0  0  0  0  0  0  0  0  0  0
   10.4608  -16.9879   26.9009 N   0  0  0  0  0  0  0  0  0  0  0  0
   10.6601  -16.0268   27.9881 C   0  0  1  0  0  0  0  0  0  0  0  0
    9.4019  -15.6958   28.6795 C   0  0  0  0  0  0  0  0  0  0  0  0
    8.4942  -14.9364   27.8032 C   0  0  0  0  0  0  0  0  0  0  0  0
    8.8068  -14.4542   26.5091 C   0  0  0  0  0  0  0  0  0  0  0  0
    7.7630  -13.8102   25.9943 N   0  0  0  0  0  0  0  0  0  0  0  0
    6.7766  -13.8539   26.9072 C   0  0  0  0  0  0  0  0  0  0  0  0
    7.2307  -14.5211   27.9616 N   0  0  0  0  0  0  0  0  0  0  0  0
   11.5848  -16.7113   28.9249 C   0  0  0  0  0  0  0  0  0  0  0  0
   11.9519  -16.0985   29.9645 O   0  0  0  0  0  0  0  0  0  0  0  0
   12.0460  -17.9741   28.6984 O   0  0  0  0  0  0  0  0  0  0  0  0
  1  2  1  0
  2  3  2  0
  3  4  1  0
  5  6  1  0
  5  4  2  0
  6  7  1  0
  7  8  1  1
  9  7  1  0
 10  9  2  0
 11  5  1  0
 12 11  2  0
 12  2  1  0
 13  9  1  0
 14 20  1  0
 14 13  1  0
 14 15  1  6
 16 15  1  0
 17 16  1  0
 18 17  1  0
 19 18  1  0
 20 22  1  0
 21 20  2  0
 22 23  1  0
 23 30  1  0
 23 24  1  1
 25 24  1  0
 26 25  2  0
 27 26  1  0
 28 27  1  0
 28 29  2  0
 29 25  1  0
 30 31  2  0
 30 32  1  0
M  END
$$$$
