YKH.pdb
     RDKit          3D

 32 33  0  0  1  0  0  0  0  0999 V2000
    6.4279  -14.1486   17.0602 O   0  0  0  0  0  0  0  0  0  0  0  0
    7.6073  -13.9606   17.7697 C   0  0  0  0  0  0  0  0  0  0  0  0
    7.6326  -13.3355   19.0003 C   0  0  0  0  0  0  0  0  0  0  0  0
    8.8377  -13.1684   19.6764 C   0  0  0  0  0  0  0  0  0  0  0  0
   10.0200  -13.6125   19.1502 C   0  0  0  0  0  0  0  0  0  0  0  0
   11.2924  -13.4214   19.8937 C   0  0  0  0  0  0  0  0  0  0  0  0
   11.6706  -14.7534   20.5072 C   0  0  2  0  0  0  0  0  0  0  0  0
   11.7140  -15.7219   19.4382 N   0  0  0  0  0  0  0  0  0  0  0  0
   10.6873  -15.2101   21.5136 C   0  0  0  0  0  0  0  0  0  0  0  0
   10.4216  -14.5005   22.5008 O   0  0  0  0  0  0  0  0  0  0  0  0
    9.9879  -14.2354   17.9220 C   0  0  0  0  0  0  0  0  0  0  0  0
    8.7936  -14.4085   17.2372 C   0  0  0  0  0  0  0  0  0  0  0  0
   10.0013  -16.4749   21.4031 N   0  0  0  0  0  0  0  0  0  0  0  0
    9.1340  -16.9833   22.3927 C   0  0  1  0  0  0  0  0  0  0  0  0
    8.5791  -18.3238   22.1084 C   0  0  0  0  0  0  0  0  0  0  0  0
    7.6714  -18.9114   23.1002 C   0  0  0  0  0  0  0  0  0  0  0  0
    7.0545  -20.2267   22.7775 C   0  0  0  0  0  0  0  0  0  0  0  0
    6.0794  -20.6486   23.8958 C   0  0  0  0  0  0  0  0  0  0  0  0
    5.5806  -21.9797   23.6353 N   0  0  0  0  0  0  0  0  0  0  0  0
    9.7198  -16.9559   23.7609 C   0  0  0  0  0  0  0  0  0  0  0  0
   10.8700  -17.4497   23.9407 O   0  0  0  0  0  0  0  0  0  0  0  0
    9.0932  -16.4179   24.8948 N   0  0  0  0  0  0  0  0  0  0  0  0
    9.7368  -16.2243   26.1962 C   0  0  1  0  0  0  0  0  0  0  0  0
    9.0462  -15.2142   27.0169 C   0  0  0  0  0  0  0  0  0  0  0  0
    9.6524  -15.1069   28.3546 C   0  0  0  0  0  0  0  0  0  0  0  0
   10.0408  -13.9033   28.9913 C   0  0  0  0  0  0  0  0  0  0  0  0
   10.5540  -14.1630   30.1907 N   0  0  0  0  0  0  0  0  0  0  0  0
   10.5151  -15.4962   30.3618 C   0  0  0  0  0  0  0  0  0  0  0  0
    9.9811  -16.0287   29.2689 N   0  0  0  0  0  0  0  0  0  0  0  0
    9.6524  -17.5514   26.8541 C   0  0  0  0  0  0  0  0  0  0  0  0
    8.6424  -18.2726   26.6285 O   0  0  0  0  0  0  0  0  0  0  0  0
   10.6269  -18.0123   27.6888 O   0  0  0  0  0  0  0  0  0  0  0  0
  1  2  1  0
  2  3  2  0
  3  4  1  0
  5  6  1  0
  5  4  2  0
  6  7  1  0
  7  8  1  6
  9  7  1  0
 10  9  2  0
 11  5  1  0
 12 11  2  0
 12  2  1  0
 13  9  1  0
 14 20  1  0
 14 13  1  0
 14 15  1  6
 16 15  1  0
 17 16  1  0
 18 17  1  0
 19 18  1  0
 20 22  1  0
 21 20  2  0
 22 23  1  0
 23 30  1  0
 23 24  1  1
 25 24  1  0
 26 25  2  0
 27 26  1  0
 28 27  1  0
 28 29  2  0
 29 25  1  0
 30 31  2  0
 30 32  1  0
M  END
$$$$
