YKH.pdb
     RDKit          3D

 32 33  0  0  1  0  0  0  0  0999 V2000
    6.1703  -10.5775   26.6164 O   0  0  0  0  0  0  0  0  0  0  0  0
    6.4343  -11.9413   26.6316 C   0  0  0  0  0  0  0  0  0  0  0  0
    5.4334  -12.8818   26.7703 C   0  0  0  0  0  0  0  0  0  0  0  0
    5.7437  -14.2386   26.7801 C   0  0  0  0  0  0  0  0  0  0  0  0
    7.0333  -14.6779   26.6543 C   0  0  0  0  0  0  0  0  0  0  0  0
    7.3365  -16.1326   26.6677 C   0  0  0  0  0  0  0  0  0  0  0  0
    6.6845  -16.7490   25.4476 C   0  0  2  0  0  0  0  0  0  0  0  0
    6.4316  -18.1371   25.7508 N   0  0  0  0  0  0  0  0  0  0  0  0
    7.5509  -16.6812   24.2505 C   0  0  0  0  0  0  0  0  0  0  0  0
    8.4392  -17.5334   24.0677 O   0  0  0  0  0  0  0  0  0  0  0  0
    8.0273  -13.7343   26.5162 C   0  0  0  0  0  0  0  0  0  0  0  0
    7.7321  -12.3786   26.5048 C   0  0  0  0  0  0  0  0  0  0  0  0
    7.4121  -15.6451   23.2557 N   0  0  0  0  0  0  0  0  0  0  0  0
    8.1735  -15.5930   22.0693 C   0  0  1  0  0  0  0  0  0  0  0  0
    7.7988  -14.5115   21.1334 C   0  0  0  0  0  0  0  0  0  0  0  0
    8.4271  -14.5080   19.8075 C   0  0  0  0  0  0  0  0  0  0  0  0
    7.9217  -13.5292   18.8068 C   0  0  0  0  0  0  0  0  0  0  0  0
    8.5889  -13.7719   17.4374 C   0  0  0  0  0  0  0  0  0  0  0  0
    8.2122  -12.7243   16.5157 N   0  0  0  0  0  0  0  0  0  0  0  0
    9.6421  -15.5686   22.3116 C   0  0  0  0  0  0  0  0  0  0  0  0
   10.1107  -14.7227   23.1264 O   0  0  0  0  0  0  0  0  0  0  0  0
   10.5734  -16.4216   21.7010 N   0  0  0  0  0  0  0  0  0  0  0  0
   12.0172  -16.4006   21.9471 C   0  0  1  0  0  0  0  0  0  0  0  0
   12.6207  -17.7412   21.8494 C   0  0  0  0  0  0  0  0  0  0  0  0
   12.3948  -18.5199   23.0787 C   0  0  0  0  0  0  0  0  0  0  0  0
   12.3505  -17.9946   24.3928 C   0  0  0  0  0  0  0  0  0  0  0  0
   12.1289  -18.9696   25.2701 N   0  0  0  0  0  0  0  0  0  0  0  0
   12.0264  -20.1165   24.5753 C   0  0  0  0  0  0  0  0  0  0  0  0
   12.1863  -19.8260   23.2896 N   0  0  0  0  0  0  0  0  0  0  0  0
   12.5633  -15.5235   20.8824 C   0  0  0  0  0  0  0  0  0  0  0  0
   13.7732  -15.1736   20.9516 O   0  0  0  0  0  0  0  0  0  0  0  0
   11.8028  -15.0878   19.8381 O   0  0  0  0  0  0  0  0  0  0  0  0
  1  2  1  0
  2  3  2  0
  3  4  1  0
  5  6  1  0
  5  4  2  0
  6  7  1  0
  7  8  1  1
  9  7  1  0
 10  9  2  0
 11  5  1  0
 12 11  2  0
 12  2  1  0
 13  9  1  0
 14 20  1  0
 14 13  1  0
 14 15  1  1
 16 15  1  0
 17 16  1  0
 18 17  1  0
 19 18  1  0
 20 22  1  0
 21 20  2  0
 22 23  1  0
 23 30  1  0
 23 24  1  6
 25 24  1  0
 26 25  2  0
 27 26  1  0
 28 27  1  0
 28 29  2  0
 29 25  1  0
 30 31  2  0
 30 32  1  0
M  END
$$$$
