YKH.pdb
     RDKit          3D

 32 33  0  0  1  0  0  0  0  0999 V2000
    9.1551  -14.1713   12.1650 O   0  0  0  0  0  0  0  0  0  0  0  0
    9.6802  -14.5044   13.4072 C   0  0  0  0  0  0  0  0  0  0  0  0
   10.8638  -15.2023   13.5414 C   0  0  0  0  0  0  0  0  0  0  0  0
   11.3531  -15.5149   14.8063 C   0  0  0  0  0  0  0  0  0  0  0  0
   10.6858  -15.1454   15.9422 C   0  0  0  0  0  0  0  0  0  0  0  0
   11.2311  -15.4919   17.2805 C   0  0  0  0  0  0  0  0  0  0  0  0
   10.9782  -14.3142   18.1985 C   0  0  2  0  0  0  0  0  0  0  0  0
   12.1391  -13.4595   18.1307 N   0  0  0  0  0  0  0  0  0  0  0  0
   10.7824  -14.7277   19.6052 C   0  0  0  0  0  0  0  0  0  0  0  0
   11.7214  -14.6555   20.4188 O   0  0  0  0  0  0  0  0  0  0  0  0
    9.5056  -14.4493   15.8015 C   0  0  0  0  0  0  0  0  0  0  0  0
    9.0063  -14.1311   14.5466 C   0  0  0  0  0  0  0  0  0  0  0  0
    9.5191  -15.2252   20.0941 N   0  0  0  0  0  0  0  0  0  0  0  0
    9.3137  -15.6732   21.4159 C   0  0  1  0  0  0  0  0  0  0  0  0
    7.9282  -16.0839   21.7282 C   0  0  0  0  0  0  0  0  0  0  0  0
    7.4932  -17.4125   21.2828 C   0  0  0  0  0  0  0  0  0  0  0  0
    6.0506  -17.7499   21.4242 C   0  0  0  0  0  0  0  0  0  0  0  0
    5.7318  -19.0595   20.6742 C   0  0  0  0  0  0  0  0  0  0  0  0
    4.3015  -19.2605   20.6243 N   0  0  0  0  0  0  0  0  0  0  0  0
   10.2654  -16.7396   21.8318 C   0  0  0  0  0  0  0  0  0  0  0  0
   10.6464  -17.5848   20.9718 O   0  0  0  0  0  0  0  0  0  0  0  0
   10.7889  -16.8928   23.1242 N   0  0  0  0  0  0  0  0  0  0  0  0
   11.6527  -17.9948   23.5541 C   0  0  1  0  0  0  0  0  0  0  0  0
   12.8698  -17.5188   24.2343 C   0  0  0  0  0  0  0  0  0  0  0  0
   13.6605  -18.6426   24.7638 C   0  0  0  0  0  0  0  0  0  0  0  0
   13.4011  -20.0156   24.5346 C   0  0  0  0  0  0  0  0  0  0  0  0
   14.3063  -20.7645   25.1582 N   0  0  0  0  0  0  0  0  0  0  0  0
   15.1504  -19.9289   25.7886 C   0  0  0  0  0  0  0  0  0  0  0  0
   14.7499  -18.6872   25.5416 N   0  0  0  0  0  0  0  0  0  0  0  0
   10.8181  -18.7740   24.5014 C   0  0  0  0  0  0  0  0  0  0  0  0
    9.7206  -18.2826   24.8824 O   0  0  0  0  0  0  0  0  0  0  0  0
   11.1982  -19.9970   24.9690 O   0  0  0  0  0  0  0  0  0  0  0  0
  1  2  1  0
  2  3  2  0
  3  4  1  0
  5  6  1  0
  5  4  2  0
  6  7  1  0
  7  8  1  1
  9  7  1  0
 10  9  2  0
 11  5  1  0
 12 11  2  0
 12  2  1  0
 13  9  1  0
 14 20  1  0
 14 13  1  0
 14 15  1  6
 16 15  1  0
 17 16  1  0
 18 17  1  0
 19 18  1  0
 20 22  1  0
 21 20  2  0
 22 23  1  0
 23 30  1  0
 23 24  1  1
 25 24  1  0
 26 25  2  0
 27 26  1  0
 28 27  1  0
 28 29  2  0
 29 25  1  0
 30 31  2  0
 30 32  1  0
M  END
$$$$
