YKH.pdb
     RDKit          3D

 32 33  0  0  1  0  0  0  0  0999 V2000
    9.2290  -18.2879   14.8789 O   0  0  0  0  0  0  0  0  0  0  0  0
    9.2667  -17.1064   15.6086 C   0  0  0  0  0  0  0  0  0  0  0  0
   10.2129  -16.8772   16.5872 C   0  0  0  0  0  0  0  0  0  0  0  0
   10.2133  -15.6781   17.2940 C   0  0  0  0  0  0  0  0  0  0  0  0
    9.2884  -14.7012   17.0449 C   0  0  0  0  0  0  0  0  0  0  0  0
    9.3120  -13.4301   17.8143 C   0  0  0  0  0  0  0  0  0  0  0  0
    8.1887  -13.4861   18.8286 C   0  0  2  0  0  0  0  0  0  0  0  0
    8.1523  -12.2092   19.5002 N   0  0  0  0  0  0  0  0  0  0  0  0
    8.3968  -14.5430   19.8424 C   0  0  0  0  0  0  0  0  0  0  0  0
    9.2340  -14.3881   20.7501 O   0  0  0  0  0  0  0  0  0  0  0  0
    8.3470  -14.9361   16.0672 C   0  0  0  0  0  0  0  0  0  0  0  0
    8.3350  -16.1269   15.3550 C   0  0  0  0  0  0  0  0  0  0  0  0
    7.6548  -15.7806   19.8298 N   0  0  0  0  0  0  0  0  0  0  0  0
    7.8809  -16.8373   20.7366 C   0  0  1  0  0  0  0  0  0  0  0  0
    6.8367  -17.8839   20.7493 C   0  0  0  0  0  0  0  0  0  0  0  0
    7.0293  -19.0296   21.6455 C   0  0  0  0  0  0  0  0  0  0  0  0
    5.9831  -20.0880   21.6474 C   0  0  0  0  0  0  0  0  0  0  0  0
    5.1625  -20.0262   22.9520 C   0  0  0  0  0  0  0  0  0  0  0  0
    4.0902  -20.9940   22.9033 N   0  0  0  0  0  0  0  0  0  0  0  0
    9.2242  -17.4620   20.5912 C   0  0  0  0  0  0  0  0  0  0  0  0
    9.6594  -17.7066   19.4294 O   0  0  0  0  0  0  0  0  0  0  0  0
   10.0694  -17.8114   21.6549 N   0  0  0  0  0  0  0  0  0  0  0  0
   11.4847  -17.4480   21.7557 C   0  0  1  0  0  0  0  0  0  0  0  0
   11.6957  -15.9922   21.6713 C   0  0  0  0  0  0  0  0  0  0  0  0
   12.2641  -15.6092   20.3679 C   0  0  0  0  0  0  0  0  0  0  0  0
   12.6213  -16.5015   19.3282 C   0  0  0  0  0  0  0  0  0  0  0  0
   13.1046  -15.8262   18.2891 N   0  0  0  0  0  0  0  0  0  0  0  0
   13.0764  -14.5212   18.6126 C   0  0  0  0  0  0  0  0  0  0  0  0
   12.5783  -14.4194   19.8393 N   0  0  0  0  0  0  0  0  0  0  0  0
   11.9011  -17.9406   23.0918 C   0  0  0  0  0  0  0  0  0  0  0  0
   11.0424  -18.5124   23.8176 O   0  0  0  0  0  0  0  0  0  0  0  0
   13.1750  -17.7959   23.5555 O   0  0  0  0  0  0  0  0  0  0  0  0
  1  2  1  0
  2  3  2  0
  3  4  1  0
  5  6  1  0
  5  4  2  0
  6  7  1  0
  7  8  1  1
  9  7  1  0
 10  9  2  0
 11  5  1  0
 12 11  2  0
 12  2  1  0
 13  9  1  0
 14 20  1  0
 14 13  1  0
 14 15  1  6
 16 15  1  0
 17 16  1  0
 18 17  1  0
 19 18  1  0
 20 22  1  0
 21 20  2  0
 22 23  1  0
 23 30  1  0
 23 24  1  1
 25 24  1  0
 26 25  2  0
 27 26  1  0
 28 27  1  0
 28 29  2  0
 29 25  1  0
 30 31  2  0
 30 32  1  0
M  END
$$$$
