YKH.pdb
     RDKit          3D

 32 33  0  0  1  0  0  0  0  0999 V2000
    5.7239  -10.9048   28.9107 O   0  0  0  0  0  0  0  0  0  0  0  0
    6.2715  -11.6974   27.9099 C   0  0  0  0  0  0  0  0  0  0  0  0
    5.6494  -11.8749   26.6904 C   0  0  0  0  0  0  0  0  0  0  0  0
    6.2344  -12.6784   25.7160 C   0  0  0  0  0  0  0  0  0  0  0  0
    7.4289  -13.3095   25.9325 C   0  0  0  0  0  0  0  0  0  0  0  0
    8.0315  -14.1614   24.8745 C   0  0  0  0  0  0  0  0  0  0  0  0
    7.0240  -15.2352   24.5200 C   0  0  2  0  0  0  0  0  0  0  0  0
    6.9070  -16.1087   25.6628 N   0  0  0  0  0  0  0  0  0  0  0  0
    7.4467  -16.0423   23.3546 C   0  0  0  0  0  0  0  0  0  0  0  0
    8.2295  -16.9985   23.5021 O   0  0  0  0  0  0  0  0  0  0  0  0
    8.0445  -13.1283   27.1514 C   0  0  0  0  0  0  0  0  0  0  0  0
    7.4724  -12.3302   28.1317 C   0  0  0  0  0  0  0  0  0  0  0  0
    6.9822  -15.7669   22.0164 N   0  0  0  0  0  0  0  0  0  0  0  0
    7.8359  -15.6631   20.8981 C   0  0  1  0  0  0  0  0  0  0  0  0
    7.4330  -14.6534   19.8961 C   0  0  0  0  0  0  0  0  0  0  0  0
    7.7495  -14.9238   18.4891 C   0  0  0  0  0  0  0  0  0  0  0  0
    8.0631  -13.7600   17.6162 C   0  0  0  0  0  0  0  0  0  0  0  0
    8.3856  -14.2367   16.1850 C   0  0  0  0  0  0  0  0  0  0  0  0
    8.6815  -13.0992   15.3442 N   0  0  0  0  0  0  0  0  0  0  0  0
    9.2663  -15.4732   21.2637 C   0  0  0  0  0  0  0  0  0  0  0  0
    9.7006  -14.2976   21.4324 O   0  0  0  0  0  0  0  0  0  0  0  0
   10.1965  -16.5080   21.4415 N   0  0  0  0  0  0  0  0  0  0  0  0
   10.9626  -16.7457   22.6670 C   0  0  1  0  0  0  0  0  0  0  0  0
   10.0973  -17.0823   23.8110 C   0  0  0  0  0  0  0  0  0  0  0  0
   10.8878  -17.2923   25.0355 C   0  0  0  0  0  0  0  0  0  0  0  0
   12.2992  -17.2274   25.1289 C   0  0  0  0  0  0  0  0  0  0  0  0
   12.6884  -17.4671   26.3781 N   0  0  0  0  0  0  0  0  0  0  0  0
   11.5798  -17.6871   27.1068 C   0  0  0  0  0  0  0  0  0  0  0  0
   10.5344  -17.5788   26.2953 N   0  0  0  0  0  0  0  0  0  0  0  0
   11.8377  -17.8986   22.3410 C   0  0  0  0  0  0  0  0  0  0  0  0
   11.7085  -18.4539   21.2159 O   0  0  0  0  0  0  0  0  0  0  0  0
   12.7715  -18.3723   23.2142 O   0  0  0  0  0  0  0  0  0  0  0  0
  1  2  1  0
  2  3  2  0
  3  4  1  0
  5  6  1  0
  5  4  2  0
  6  7  1  0
  7  8  1  1
  9  7  1  0
 10  9  2  0
 11  5  1  0
 12 11  2  0
 12  2  1  0
 13  9  1  0
 14 20  1  0
 14 13  1  0
 14 15  1  6
 16 15  1  0
 17 16  1  0
 18 17  1  0
 19 18  1  0
 20 22  1  0
 21 20  2  0
 22 23  1  0
 23 30  1  0
 23 24  1  1
 25 24  1  0
 26 25  2  0
 27 26  1  0
 28 27  1  0
 28 29  2  0
 29 25  1  0
 30 31  2  0
 30 32  1  0
M  END
$$$$
