YKH.pdb
     RDKit          3D

 32 33  0  0  1  0  0  0  0  0999 V2000
    9.2551  -12.5464   17.2100 O   0  0  0  0  0  0  0  0  0  0  0  0
    8.6716  -13.0246   18.3765 C   0  0  0  0  0  0  0  0  0  0  0  0
    7.3655  -12.7348   18.7169 C   0  0  0  0  0  0  0  0  0  0  0  0
    6.8215  -13.2355   19.8961 C   0  0  0  0  0  0  0  0  0  0  0  0
    7.5538  -14.0205   20.7443 C   0  0  0  0  0  0  0  0  0  0  0  0
    6.9478  -14.5423   21.9969 C   0  0  0  0  0  0  0  0  0  0  0  0
    6.7141  -16.0270   21.8104 C   0  0  2  0  0  0  0  0  0  0  0  0
    5.3154  -16.2065   21.5041 N   0  0  0  0  0  0  0  0  0  0  0  0
    7.0308  -16.8049   23.0282 C   0  0  0  0  0  0  0  0  0  0  0  0
    6.2455  -16.8096   23.9936 O   0  0  0  0  0  0  0  0  0  0  0  0
    8.8563  -14.3060   20.3989 C   0  0  0  0  0  0  0  0  0  0  0  0
    9.4113  -13.8134   19.2264 C   0  0  0  0  0  0  0  0  0  0  0  0
    8.2409  -17.5808   23.1547 N   0  0  0  0  0  0  0  0  0  0  0  0
    8.6168  -18.2564   24.3347 C   0  0  1  0  0  0  0  0  0  0  0  0
    9.4028  -19.4908   24.1244 C   0  0  0  0  0  0  0  0  0  0  0  0
    9.8057  -20.2541   25.3109 C   0  0  0  0  0  0  0  0  0  0  0  0
   10.5482  -21.5256   25.0945 C   0  0  0  0  0  0  0  0  0  0  0  0
   10.8674  -22.1951   26.4469 C   0  0  0  0  0  0  0  0  0  0  0  0
   11.4698  -23.4897   26.2233 N   0  0  0  0  0  0  0  0  0  0  0  0
    9.3028  -17.3799   25.3231 C   0  0  0  0  0  0  0  0  0  0  0  0
   10.2665  -16.6601   24.9329 O   0  0  0  0  0  0  0  0  0  0  0  0
    8.9661  -17.2800   26.6813 N   0  0  0  0  0  0  0  0  0  0  0  0
    9.6087  -16.3787   27.6405 C   0  0  1  0  0  0  0  0  0  0  0  0
    8.6319  -15.5581   28.3777 C   0  0  0  0  0  0  0  0  0  0  0  0
    7.9913  -14.5683   27.4954 C   0  0  0  0  0  0  0  0  0  0  0  0
    6.8099  -14.7749   26.7427 C   0  0  0  0  0  0  0  0  0  0  0  0
    6.5064  -13.6781   26.0540 N   0  0  0  0  0  0  0  0  0  0  0  0
    7.4490  -12.7595   26.3298 C   0  0  0  0  0  0  0  0  0  0  0  0
    8.3105  -13.3065   27.1792 N   0  0  0  0  0  0  0  0  0  0  0  0
   10.3196  -17.2807   28.5798 C   0  0  0  0  0  0  0  0  0  0  0  0
   10.2487  -18.5256   28.3897 O   0  0  0  0  0  0  0  0  0  0  0  0
   11.0430  -16.8081   29.6344 O   0  0  0  0  0  0  0  0  0  0  0  0
  1  2  1  0
  2  3  2  0
  3  4  1  0
  5  6  1  0
  5  4  2  0
  6  7  1  0
  7  8  1  1
  9  7  1  0
 10  9  2  0
 11  5  1  0
 12 11  2  0
 12  2  1  0
 13  9  1  0
 14 20  1  0
 14 13  1  0
 14 15  1  6
 16 15  1  0
 17 16  1  0
 18 17  1  0
 19 18  1  0
 20 22  1  0
 21 20  2  0
 22 23  1  0
 23 30  1  0
 23 24  1  1
 25 24  1  0
 26 25  2  0
 27 26  1  0
 28 27  1  0
 28 29  2  0
 29 25  1  0
 30 31  2  0
 30 32  1  0
M  END
$$$$
