YKH.pdb
     RDKit          3D

 32 33  0  0  1  0  0  0  0  0999 V2000
    8.4638  -12.9383   16.7077 O   0  0  0  0  0  0  0  0  0  0  0  0
    8.2153  -13.3565   18.0089 C   0  0  0  0  0  0  0  0  0  0  0  0
    8.9606  -14.3465   18.6173 C   0  0  0  0  0  0  0  0  0  0  0  0
    8.6764  -14.7343   19.9235 C   0  0  0  0  0  0  0  0  0  0  0  0
    7.6631  -14.1545   20.6369 C   0  0  0  0  0  0  0  0  0  0  0  0
    7.3815  -14.5875   22.0303 C   0  0  0  0  0  0  0  0  0  0  0  0
    7.0844  -16.0722   21.9989 C   0  0  2  0  0  0  0  0  0  0  0  0
    5.7746  -16.2360   21.4155 N   0  0  0  0  0  0  0  0  0  0  0  0
    7.0740  -16.6738   23.3503 C   0  0  0  0  0  0  0  0  0  0  0  0
    6.1738  -16.3863   24.1600 O   0  0  0  0  0  0  0  0  0  0  0  0
    6.9232  -13.1673   20.0241 C   0  0  0  0  0  0  0  0  0  0  0  0
    7.1957  -12.7710   18.7225 C   0  0  0  0  0  0  0  0  0  0  0  0
    8.0861  -17.6047   23.7879 N   0  0  0  0  0  0  0  0  0  0  0  0
    8.2428  -18.0167   25.1280 C   0  0  1  0  0  0  0  0  0  0  0  0
    8.6701  -19.4210   25.3040 C   0  0  0  0  0  0  0  0  0  0  0  0
    7.6427  -20.4642   25.2091 C   0  0  0  0  0  0  0  0  0  0  0  0
    8.0689  -21.8742   25.4214 C   0  0  0  0  0  0  0  0  0  0  0  0
    6.8801  -22.8315   25.1983 C   0  0  0  0  0  0  0  0  0  0  0  0
    7.3080  -24.1983   25.3918 N   0  0  0  0  0  0  0  0  0  0  0  0
    9.1209  -17.1153   25.9232 C   0  0  0  0  0  0  0  0  0  0  0  0
   10.2970  -16.8947   25.5142 O   0  0  0  0  0  0  0  0  0  0  0  0
    8.7495  -16.4742   27.1144 N   0  0  0  0  0  0  0  0  0  0  0  0
    9.6509  -15.6884   27.9602 C   0  0  1  0  0  0  0  0  0  0  0  0
    9.0804  -14.3784   28.3196 C   0  0  0  0  0  0  0  0  0  0  0  0
    8.7149  -13.6071   27.1195 C   0  0  0  0  0  0  0  0  0  0  0  0
    9.4839  -13.5093   25.9346 C   0  0  0  0  0  0  0  0  0  0  0  0
    8.8651  -12.7342   25.0482 N   0  0  0  0  0  0  0  0  0  0  0  0
    7.7165  -12.3206   25.6120 C   0  0  0  0  0  0  0  0  0  0  0  0
    7.6510  -12.8470   26.8293 N   0  0  0  0  0  0  0  0  0  0  0  0
    9.8285  -16.5126   29.1810 C   0  0  0  0  0  0  0  0  0  0  0  0
   10.5726  -16.0748   30.1006 O   0  0  0  0  0  0  0  0  0  0  0  0
    9.2154  -17.7201   29.3385 O   0  0  0  0  0  0  0  0  0  0  0  0
  1  2  1  0
  2  3  2  0
  3  4  1  0
  5  6  1  0
  5  4  2  0
  6  7  1  0
  7  8  1  1
  9  7  1  0
 10  9  2  0
 11  5  1  0
 12 11  2  0
 12  2  1  0
 13  9  1  0
 14 20  1  0
 14 13  1  0
 14 15  1  6
 16 15  1  0
 17 16  1  0
 18 17  1  0
 19 18  1  0
 20 22  1  0
 21 20  2  0
 22 23  1  0
 23 30  1  0
 23 24  1  1
 25 24  1  0
 26 25  2  0
 27 26  1  0
 28 27  1  0
 28 29  2  0
 29 25  1  0
 30 31  2  0
 30 32  1  0
M  END
$$$$
