YKH.pdb
     RDKit          3D

 32 33  0  0  1  0  0  0  0  0999 V2000
   18.5138  -19.7482    7.6631 O   0  0  0  0  0  0  0  0  0  0  0  0
   17.9871  -19.7191    8.9482 C   0  0  0  0  0  0  0  0  0  0  0  0
   16.9065  -20.4951    9.3170 C   0  0  0  0  0  0  0  0  0  0  0  0
   16.4113  -20.4340   10.6163 C   0  0  0  0  0  0  0  0  0  0  0  0
   16.9720  -19.6142   11.5572 C   0  0  0  0  0  0  0  0  0  0  0  0
   16.4235  -19.5689   12.9376 C   0  0  0  0  0  0  0  0  0  0  0  0
   15.2313  -18.6349   12.9278 C   0  0  2  0  0  0  0  0  0  0  0  0
   15.7370  -17.2945   12.7545 N   0  0  0  0  0  0  0  0  0  0  0  0
   14.4642  -18.6866   14.1916 C   0  0  0  0  0  0  0  0  0  0  0  0
   14.8465  -18.0440   15.1863 O   0  0  0  0  0  0  0  0  0  0  0  0
   18.0499  -18.8425   11.1829 C   0  0  0  0  0  0  0  0  0  0  0  0
   18.5538  -18.8935    9.8910 C   0  0  0  0  0  0  0  0  0  0  0  0
   13.2594  -19.4685   14.3310 N   0  0  0  0  0  0  0  0  0  0  0  0
   12.5377  -19.5847   15.5376 C   0  0  1  0  0  0  0  0  0  0  0  0
   11.1484  -20.0685   15.3906 C   0  0  0  0  0  0  0  0  0  0  0  0
   10.2969  -19.4073   14.3953 C   0  0  0  0  0  0  0  0  0  0  0  0
    8.8839  -19.8611   14.2851 C   0  0  0  0  0  0  0  0  0  0  0  0
    8.1599  -19.0877   13.1639 C   0  0  0  0  0  0  0  0  0  0  0  0
    6.7667  -19.4701   13.1251 N   0  0  0  0  0  0  0  0  0  0  0  0
   13.2467  -20.3838   16.5742 C   0  0  0  0  0  0  0  0  0  0  0  0
   13.5904  -21.5693   16.2995 O   0  0  0  0  0  0  0  0  0  0  0  0
   13.5745  -19.9265   17.8592 N   0  0  0  0  0  0  0  0  0  0  0  0
   14.8476  -20.1763   18.5390 C   0  0  1  0  0  0  0  0  0  0  0  0
   15.9968  -19.6408   17.7884 C   0  0  0  0  0  0  0  0  0  0  0  0
   17.2689  -19.9646   18.4558 C   0  0  0  0  0  0  0  0  0  0  0  0
   17.4837  -21.0457   19.3445 C   0  0  0  0  0  0  0  0  0  0  0  0
   18.7450  -21.0495   19.7669 N   0  0  0  0  0  0  0  0  0  0  0  0
   19.3644  -20.0073   19.1851 C   0  0  0  0  0  0  0  0  0  0  0  0
   18.4759  -19.3852   18.4192 N   0  0  0  0  0  0  0  0  0  0  0  0
   14.7209  -19.4701   19.8376 C   0  0  0  0  0  0  0  0  0  0  0  0
   15.7159  -19.4510   20.6126 O   0  0  0  0  0  0  0  0  0  0  0  0
   13.5699  -18.8449   20.2158 O   0  0  0  0  0  0  0  0  0  0  0  0
  1  2  1  0
  2  3  2  0
  3  4  1  0
  5  6  1  0
  5  4  2  0
  6  7  1  0
  7  8  1  1
  9  7  1  0
 10  9  2  0
 11  5  1  0
 12 11  2  0
 12  2  1  0
 13  9  1  0
 14 20  1  0
 14 13  1  0
 14 15  1  6
 16 15  1  0
 17 16  1  0
 18 17  1  0
 19 18  1  0
 20 22  1  0
 21 20  2  0
 22 23  1  0
 23 30  1  0
 23 24  1  6
 25 24  1  0
 26 25  2  0
 27 26  1  0
 28 27  1  0
 28 29  2  0
 29 25  1  0
 30 31  2  0
 30 32  1  0
M  END
$$$$
