YKH.pdb
     RDKit          3D

 32 33  0  0  1  0  0  0  0  0999 V2000
    8.0963  -12.7174   15.3963 O   0  0  0  0  0  0  0  0  0  0  0  0
    8.0735  -13.2214   16.6906 C   0  0  0  0  0  0  0  0  0  0  0  0
    8.8226  -14.3189   17.0649 C   0  0  0  0  0  0  0  0  0  0  0  0
    8.7690  -14.7901   18.3735 C   0  0  0  0  0  0  0  0  0  0  0  0
    7.9829  -14.1888   19.3182 C   0  0  0  0  0  0  0  0  0  0  0  0
    7.9449  -14.7125   20.7084 C   0  0  0  0  0  0  0  0  0  0  0  0
    7.2181  -16.0409   20.6793 C   0  0  2  0  0  0  0  0  0  0  0  0
    5.8129  -15.7581   20.5117 N   0  0  0  0  0  0  0  0  0  0  0  0
    7.3956  -16.8083   21.9314 C   0  0  0  0  0  0  0  0  0  0  0  0
    6.8262  -16.4466   22.9771 O   0  0  0  0  0  0  0  0  0  0  0  0
    7.2380  -13.0942   18.9383 C   0  0  0  0  0  0  0  0  0  0  0  0
    7.2818  -12.6139   17.6372 C   0  0  0  0  0  0  0  0  0  0  0  0
    8.2209  -17.9900   22.0012 N   0  0  0  0  0  0  0  0  0  0  0  0
    8.5276  -18.6597   23.2043 C   0  0  1  0  0  0  0  0  0  0  0  0
    9.1068  -20.0097   23.0378 C   0  0  0  0  0  0  0  0  0  0  0  0
    9.4797  -20.7470   24.2503 C   0  0  0  0  0  0  0  0  0  0  0  0
   10.2350  -22.0180   24.0805 C   0  0  0  0  0  0  0  0  0  0  0  0
   10.4670  -22.6891   25.4499 C   0  0  0  0  0  0  0  0  0  0  0  0
    9.2165  -23.1991   25.9643 N   0  0  0  0  0  0  0  0  0  0  0  0
    9.3730  -17.8550   24.1282 C   0  0  0  0  0  0  0  0  0  0  0  0
   10.3971  -17.2744   23.6664 O   0  0  0  0  0  0  0  0  0  0  0  0
    9.1276  -17.6802   25.4983 N   0  0  0  0  0  0  0  0  0  0  0  0
    9.8787  -16.7804   26.3768 C   0  0  1  0  0  0  0  0  0  0  0  0
    9.0372  -16.2074   27.4418 C   0  0  0  0  0  0  0  0  0  0  0  0
    9.8368  -15.4007   28.3790 C   0  0  0  0  0  0  0  0  0  0  0  0
   10.9388  -14.5820   28.0320 C   0  0  0  0  0  0  0  0  0  0  0  0
   11.4333  -13.9931   29.1174 N   0  0  0  0  0  0  0  0  0  0  0  0
   10.6927  -14.3982   30.1642 C   0  0  0  0  0  0  0  0  0  0  0  0
    9.7608  -15.2249   29.7046 N   0  0  0  0  0  0  0  0  0  0  0  0
   10.9326  -17.6373   26.9735 C   0  0  0  0  0  0  0  0  0  0  0  0
   11.8897  -17.0818   27.5789 O   0  0  0  0  0  0  0  0  0  0  0  0
   10.8980  -18.9976   26.8889 O   0  0  0  0  0  0  0  0  0  0  0  0
  1  2  1  0
  2  3  2  0
  3  4  1  0
  5  6  1  0
  5  4  2  0
  6  7  1  0
  7  8  1  1
  9  7  1  0
 10  9  2  0
 11  5  1  0
 12 11  2  0
 12  2  1  0
 13  9  1  0
 14 20  1  0
 14 13  1  0
 14 15  1  6
 16 15  1  0
 17 16  1  0
 18 17  1  0
 19 18  1  0
 20 22  1  0
 21 20  2  0
 22 23  1  0
 23 30  1  0
 23 24  1  1
 25 24  1  0
 26 25  2  0
 27 26  1  0
 28 27  1  0
 28 29  2  0
 29 25  1  0
 30 31  2  0
 30 32  1  0
M  END
$$$$
