VYL.pdb
     RDKit          3D

 28 28  0  0  1  0  0  0  0  0999 V2000
    7.9696  -12.7746   18.4268 C   0  0  0  0  0  0  0  0  0  0  0  0
    7.8229  -13.5013   19.7408 C   0  0  2  0  0  0  0  0  0  0  0  0
    8.4952  -12.6613   20.8077 C   0  0  0  0  0  0  0  0  0  0  0  0
    8.5315  -14.8395   19.7237 C   0  0  2  0  0  0  0  0  0  0  0  0
    7.9263  -15.6846   18.7117 N   0  0  0  0  0  0  0  0  0  0  0  0
    8.4714  -15.5021   21.0609 C   0  0  0  0  0  0  0  0  0  0  0  0
    7.3902  -16.0019   21.4870 O   0  0  0  0  0  0  0  0  0  0  0  0
   10.0940  -21.7041   19.7720 O   0  0  0  0  0  0  0  0  0  0  0  0
   10.2474  -20.6214   20.6359 C   0  0  0  0  0  0  0  0  0  0  0  0
    9.6878  -20.5887   21.8950 C   0  0  0  0  0  0  0  0  0  0  0  0
    9.8712  -19.4872   22.7140 C   0  0  0  0  0  0  0  0  0  0  0  0
   10.6129  -18.3899   22.3085 C   0  0  0  0  0  0  0  0  0  0  0  0
   10.7712  -17.2510   23.2239 C   0  0  0  0  0  0  0  0  0  0  0  0
    9.5838  -16.2982   23.1737 C   0  0  2  0  0  0  0  0  0  0  0  0
    9.5972  -15.6069   21.9110 N   0  0  0  0  0  0  0  0  0  0  0  0
    9.7667  -15.3713   24.3218 C   0  0  0  0  0  0  0  0  0  0  0  0
   10.8319  -14.7077   24.3667 O   0  0  0  0  0  0  0  0  0  0  0  0
   11.1681  -18.4270   21.0540 C   0  0  0  0  0  0  0  0  0  0  0  0
   10.9909  -19.5239   20.2263 C   0  0  0  0  0  0  0  0  0  0  0  0
    7.7452  -11.7896   25.7303 C   0  0  0  0  0  0  0  0  0  0  0  0
    7.1132  -13.0260   26.2402 C   0  0  2  0  0  0  0  0  0  0  0  0
    5.7382  -12.6712   26.8659 C   0  0  0  0  0  0  0  0  0  0  0  0
    7.8704  -13.9193   27.1400 C   0  0  0  0  0  0  0  0  0  0  0  0
    9.1019  -14.5283   26.6326 C   0  0  2  0  0  0  0  0  0  0  0  0
    8.8143  -15.2077   25.3432 N   0  0  0  0  0  0  0  0  0  0  0  0
    9.7191  -15.5331   27.4752 C   0  0  0  0  0  0  0  0  0  0  0  0
    9.7913  -16.9050   27.2364 O   0  0  0  0  0  0  0  0  0  0  0  0
   10.2654  -15.1509   28.5853 O   0  0  0  0  0  0  0  0  0  0  0  0
  2  1  1  6
  3  2  1  0
  4  2  1  0
  4  5  1  6
  6  4  1  0
  6  7  2  0
  8  9  1  0
  9 10  2  0
 10 11  1  0
 12 13  1  0
 12 11  2  0
 14 13  1  6
 14 15  1  0
 15  6  1  0
 16 14  1  0
 17 16  2  0
 18 12  1  0
 19 18  2  0
 19  9  1  0
 21 20  1  1
 21 23  1  0
 22 21  1  0
 24 23  1  1
 24 26  1  0
 24 25  1  0
 25 16  1  0
 26 27  1  0
 28 26  2  0
M  END
$$$$
