VYL.pdb
     RDKit          3D

 28 28  0  0  1  0  0  0  0  0999 V2000
    8.2029  -13.1184   18.3967 C   0  0  0  0  0  0  0  0  0  0  0  0
    7.7018  -13.6514   19.7162 C   0  0  2  0  0  0  0  0  0  0  0  0
    8.5399  -13.0255   20.8124 C   0  0  0  0  0  0  0  0  0  0  0  0
    7.8877  -15.1505   19.8223 C   0  0  2  0  0  0  0  0  0  0  0  0
    7.0848  -15.8021   18.8048 N   0  0  0  0  0  0  0  0  0  0  0  0
    7.5139  -15.6485   21.1800 C   0  0  0  0  0  0  0  0  0  0  0  0
    6.3112  -15.6191   21.5711 O   0  0  0  0  0  0  0  0  0  0  0  0
    7.6507  -20.0360   28.8091 O   0  0  0  0  0  0  0  0  0  0  0  0
    7.9055  -19.5354   27.5337 C   0  0  0  0  0  0  0  0  0  0  0  0
    6.9188  -19.3800   26.5842 C   0  0  0  0  0  0  0  0  0  0  0  0
    7.2263  -18.8774   25.3309 C   0  0  0  0  0  0  0  0  0  0  0  0
    8.5178  -18.5157   24.9849 C   0  0  0  0  0  0  0  0  0  0  0  0
    8.7805  -17.9883   23.6385 C   0  0  0  0  0  0  0  0  0  0  0  0
    8.1360  -16.6265   23.4141 C   0  0  2  0  0  0  0  0  0  0  0  0
    8.4640  -16.1712   22.0885 N   0  0  0  0  0  0  0  0  0  0  0  0
    8.6993  -15.7398   24.4663 C   0  0  0  0  0  0  0  0  0  0  0  0
    9.8988  -15.3881   24.3465 O   0  0  0  0  0  0  0  0  0  0  0  0
    9.4970  -18.6723   25.9336 C   0  0  0  0  0  0  0  0  0  0  0  0
    9.2004  -19.1741   27.1907 C   0  0  0  0  0  0  0  0  0  0  0  0
    7.2638  -11.6814   25.5940 C   0  0  0  0  0  0  0  0  0  0  0  0
    6.6097  -12.7568   26.3712 C   0  0  2  0  0  0  0  0  0  0  0  0
    5.4279  -12.1534   27.1756 C   0  0  0  0  0  0  0  0  0  0  0  0
    7.4230  -13.6349   27.2363 C   0  0  0  0  0  0  0  0  0  0  0  0
    8.5155  -14.3912   26.6205 C   0  0  2  0  0  0  0  0  0  0  0  0
    7.9593  -15.2848   25.5722 N   0  0  0  0  0  0  0  0  0  0  0  0
    9.2814  -15.2505   27.5011 C   0  0  0  0  0  0  0  0  0  0  0  0
   10.4174  -14.9087   28.2341 O   0  0  0  0  0  0  0  0  0  0  0  0
    8.9026  -16.4811   27.6388 O   0  0  0  0  0  0  0  0  0  0  0  0
  2  1  1  6
  3  2  1  0
  4  2  1  0
  4  5  1  6
  6  4  1  0
  6  7  2  0
  8  9  1  0
  9 10  2  0
 10 11  1  0
 12 13  1  0
 12 11  2  0
 14 13  1  1
 14 15  1  0
 15  6  1  0
 16 14  1  0
 17 16  2  0
 18 12  1  0
 19 18  2  0
 19  9  1  0
 21 20  1  1
 21 23  1  0
 22 21  1  0
 24 23  1  1
 24 26  1  0
 24 25  1  0
 25 16  1  0
 26 27  1  0
 28 26  2  0
M  END
$$$$
