VYL.pdb
     RDKit          3D

 28 28  0  0  1  0  0  0  0  0999 V2000
    3.6238  -20.4669   23.7068 C   0  0  0  0  0  0  0  0  0  0  0  0
    4.4474  -20.7697   22.4795 C   0  0  2  0  0  0  0  0  0  0  0  0
    4.3868  -22.2652   22.2433 C   0  0  0  0  0  0  0  0  0  0  0  0
    5.9058  -20.4153   22.6815 C   0  0  2  0  0  0  0  0  0  0  0  0
    6.4214  -21.1547   23.8181 N   0  0  0  0  0  0  0  0  0  0  0  0
    6.0831  -18.9470   22.8903 C   0  0  0  0  0  0  0  0  0  0  0  0
    5.8097  -18.1250   21.9685 O   0  0  0  0  0  0  0  0  0  0  0  0
    7.2289  -11.1800   26.9362 O   0  0  0  0  0  0  0  0  0  0  0  0
    7.1505  -12.5424   26.6537 C   0  0  0  0  0  0  0  0  0  0  0  0
    5.9505  -13.2056   26.5136 C   0  0  0  0  0  0  0  0  0  0  0  0
    5.9289  -14.5615   26.2326 C   0  0  0  0  0  0  0  0  0  0  0  0
    7.0937  -15.2959   26.0829 C   0  0  0  0  0  0  0  0  0  0  0  0
    7.0047  -16.7323   25.7850 C   0  0  0  0  0  0  0  0  0  0  0  0
    6.8572  -17.0064   24.2939 C   0  0  2  0  0  0  0  0  0  0  0  0
    6.5575  -18.4019   24.1065 N   0  0  0  0  0  0  0  0  0  0  0  0
    8.1604  -16.6270   23.6871 C   0  0  0  0  0  0  0  0  0  0  0  0
    9.0964  -17.4613   23.7559 O   0  0  0  0  0  0  0  0  0  0  0  0
    8.2861  -14.6312   26.2233 C   0  0  0  0  0  0  0  0  0  0  0  0
    8.3194  -13.2749   26.5045 C   0  0  0  0  0  0  0  0  0  0  0  0
    7.4546  -14.3084   19.8966 C   0  0  0  0  0  0  0  0  0  0  0  0
    8.0550  -13.4594   20.9488 C   0  0  2  0  0  0  0  0  0  0  0  0
    8.0640  -11.9848   20.4657 C   0  0  0  0  0  0  0  0  0  0  0  0
    9.3679  -13.8192   21.5210 C   0  0  0  0  0  0  0  0  0  0  0  0
    9.5196  -15.1468   22.1205 C   0  0  2  0  0  0  0  0  0  0  0  0
    8.3873  -15.3943   23.0496 N   0  0  0  0  0  0  0  0  0  0  0  0
   10.7211  -15.3689   22.9000 C   0  0  0  0  0  0  0  0  0  0  0  0
   10.8018  -15.6443   24.2646 O   0  0  0  0  0  0  0  0  0  0  0  0
   11.8647  -15.3025   22.2961 O   0  0  0  0  0  0  0  0  0  0  0  0
  2  1  1  1
  3  2  1  0
  4  2  1  0
  4  5  1  1
  6  4  1  0
  6  7  2  0
  8  9  1  0
  9 10  2  0
 10 11  1  0
 12 13  1  0
 12 11  2  0
 14 13  1  1
 14 15  1  0
 15  6  1  0
 16 14  1  0
 17 16  2  0
 18 12  1  0
 19 18  2  0
 19  9  1  0
 21 20  1  6
 21 23  1  0
 22 21  1  0
 24 23  1  1
 24 26  1  0
 24 25  1  0
 25 16  1  0
 26 27  1  0
 28 26  2  0
M  END
$$$$
