VYL.pdb
     RDKit          3D

 28 28  0  0  1  0  0  0  0  0999 V2000
    7.8732  -13.7227   17.8838 C   0  0  0  0  0  0  0  0  0  0  0  0
    7.4989  -14.0576   19.3065 C   0  0  2  0  0  0  0  0  0  0  0  0
    7.2346  -12.7534   20.0311 C   0  0  0  0  0  0  0  0  0  0  0  0
    8.6331  -14.7447   20.0377 C   0  0  2  0  0  0  0  0  0  0  0  0
    9.0205  -15.9342   19.3031 N   0  0  0  0  0  0  0  0  0  0  0  0
    8.2416  -15.0989   21.4350 C   0  0  0  0  0  0  0  0  0  0  0  0
    7.7907  -14.2183   22.2232 O   0  0  0  0  0  0  0  0  0  0  0  0
    7.2134  -19.9949   28.7943 O   0  0  0  0  0  0  0  0  0  0  0  0
    7.5345  -19.5585   27.5103 C   0  0  0  0  0  0  0  0  0  0  0  0
    8.8335  -19.3611   27.0944 C   0  0  0  0  0  0  0  0  0  0  0  0
    9.0977  -18.9261   25.8065 C   0  0  0  0  0  0  0  0  0  0  0  0
    8.0835  -18.6751   24.8971 C   0  0  0  0  0  0  0  0  0  0  0  0
    8.4282  -18.2151   23.5445 C   0  0  0  0  0  0  0  0  0  0  0  0
    7.9835  -16.7807   23.2897 C   0  0  2  0  0  0  0  0  0  0  0  0
    8.3504  -16.4132   21.9471 N   0  0  0  0  0  0  0  0  0  0  0  0
    8.6875  -15.9574   24.3081 C   0  0  0  0  0  0  0  0  0  0  0  0
    9.9184  -15.7666   24.1488 O   0  0  0  0  0  0  0  0  0  0  0  0
    6.7916  -18.8731   25.3157 C   0  0  0  0  0  0  0  0  0  0  0  0
    6.5160  -19.3081   26.6020 C   0  0  0  0  0  0  0  0  0  0  0  0
    7.8102  -11.7321   25.1603 C   0  0  0  0  0  0  0  0  0  0  0  0
    7.0448  -12.6712   26.0091 C   0  0  2  0  0  0  0  0  0  0  0  0
    5.9263  -11.8896   26.7481 C   0  0  0  0  0  0  0  0  0  0  0  0
    7.7587  -13.5571   26.9507 C   0  0  0  0  0  0  0  0  0  0  0  0
    8.7287  -14.5083   26.4035 C   0  0  2  0  0  0  0  0  0  0  0  0
    8.0456  -15.3920   25.4242 N   0  0  0  0  0  0  0  0  0  0  0  0
    9.3668  -15.3970   27.3540 C   0  0  0  0  0  0  0  0  0  0  0  0
    9.1060  -16.7533   27.5463 O   0  0  0  0  0  0  0  0  0  0  0  0
   10.2785  -14.9088   28.1334 O   0  0  0  0  0  0  0  0  0  0  0  0
  2  1  1  6
  3  2  1  0
  4  2  1  0
  4  5  1  6
  6  4  1  0
  6  7  2  0
  8  9  1  0
  9 10  2  0
 10 11  1  0
 12 13  1  0
 12 11  2  0
 14 13  1  1
 14 15  1  0
 15  6  1  0
 16 14  1  0
 17 16  2  0
 18 12  1  0
 19 18  2  0
 19  9  1  0
 21 20  1  1
 21 23  1  0
 22 21  1  0
 24 23  1  1
 24 26  1  0
 24 25  1  0
 25 16  1  0
 26 27  1  0
 28 26  2  0
M  END
$$$$
