VYL.pdb
     RDKit          3D

 28 28  0  0  1  0  0  0  0  0999 V2000
    7.0988  -13.0089   20.5262 C   0  0  0  0  0  0  0  0  0  0  0  0
    8.5361  -13.0350   20.0684 C   0  0  2  0  0  0  0  0  0  0  0  0
    8.6506  -12.1252   18.8621 C   0  0  0  0  0  0  0  0  0  0  0  0
    8.9557  -14.4183   19.6170 C   0  0  2  0  0  0  0  0  0  0  0  0
    8.0808  -14.8540   18.5449 N   0  0  0  0  0  0  0  0  0  0  0  0
    8.9190  -15.3924   20.7486 C   0  0  0  0  0  0  0  0  0  0  0  0
    7.9224  -16.1538   20.9145 O   0  0  0  0  0  0  0  0  0  0  0  0
   11.3124  -21.0227   18.4823 O   0  0  0  0  0  0  0  0  0  0  0  0
   11.2850  -20.1089   19.5341 C   0  0  0  0  0  0  0  0  0  0  0  0
   10.3685  -20.1831   20.5608 C   0  0  0  0  0  0  0  0  0  0  0  0
   10.3850  -19.2485   21.5826 C   0  0  0  0  0  0  0  0  0  0  0  0
   11.3085  -18.2167   21.6149 C   0  0  0  0  0  0  0  0  0  0  0  0
   11.2747  -17.2561   22.7267 C   0  0  0  0  0  0  0  0  0  0  0  0
    9.9751  -16.4625   22.7671 C   0  0  2  0  0  0  0  0  0  0  0  0
    9.9752  -15.5173   21.6814 N   0  0  0  0  0  0  0  0  0  0  0  0
    9.9579  -15.7917   24.0940 C   0  0  0  0  0  0  0  0  0  0  0  0
   10.9684  -15.1196   24.4166 O   0  0  0  0  0  0  0  0  0  0  0  0
   12.2190  -18.1469   20.5905 C   0  0  0  0  0  0  0  0  0  0  0  0
   12.2115  -19.0766   19.5632 C   0  0  0  0  0  0  0  0  0  0  0  0
    7.8217  -12.2713   26.0935 C   0  0  0  0  0  0  0  0  0  0  0  0
    7.0649  -13.5333   25.9422 C   0  0  2  0  0  0  0  0  0  0  0  0
    5.5696  -13.2687   26.2617 C   0  0  0  0  0  0  0  0  0  0  0  0
    7.5283  -14.7535   26.6331 C   0  0  0  0  0  0  0  0  0  0  0  0
    8.8748  -15.2467   26.3350 C   0  0  2  0  0  0  0  0  0  0  0  0
    8.8767  -15.8755   24.9891 N   0  0  0  0  0  0  0  0  0  0  0  0
    9.4085  -16.2488   27.2359 C   0  0  0  0  0  0  0  0  0  0  0  0
    9.5922  -17.6060   26.9736 O   0  0  0  0  0  0  0  0  0  0  0  0
    9.7548  -15.8796   28.4278 O   0  0  0  0  0  0  0  0  0  0  0  0
  2  1  1  6
  3  2  1  0
  4  2  1  0
  4  5  1  6
  6  4  1  0
  6  7  2  0
  8  9  1  0
  9 10  2  0
 10 11  1  0
 12 13  1  0
 12 11  2  0
 14 13  1  1
 14 15  1  0
 15  6  1  0
 16 14  1  0
 17 16  2  0
 18 12  1  0
 19 18  2  0
 19  9  1  0
 21 20  1  1
 21 23  1  0
 22 21  1  0
 24 23  1  1
 24 26  1  0
 24 25  1  0
 25 16  1  0
 26 27  1  0
 28 26  2  0
M  END
$$$$
