VYL.pdb
     RDKit          3D

 28 28  0  0  1  0  0  0  0  0999 V2000
    7.2017  -12.9297   20.4421 C   0  0  0  0  0  0  0  0  0  0  0  0
    8.3575  -13.7538   19.9310 C   0  0  2  0  0  0  0  0  0  0  0  0
    8.6420  -13.3139   18.5093 C   0  0  0  0  0  0  0  0  0  0  0  0
    8.0137  -15.2275   19.8747 C   0  0  2  0  0  0  0  0  0  0  0  0
    6.9486  -15.4304   18.9109 N   0  0  0  0  0  0  0  0  0  0  0  0
    7.6074  -15.7412   21.2171 C   0  0  0  0  0  0  0  0  0  0  0  0
    6.3930  -15.7358   21.5712 O   0  0  0  0  0  0  0  0  0  0  0  0
    7.6235  -20.0396   28.9243 O   0  0  0  0  0  0  0  0  0  0  0  0
    7.9321  -19.5518   27.6558 C   0  0  0  0  0  0  0  0  0  0  0  0
    9.2279  -19.3671   27.2243 C   0  0  0  0  0  0  0  0  0  0  0  0
    9.4794  -18.8792   25.9529 C   0  0  0  0  0  0  0  0  0  0  0  0
    8.4555  -18.5615   25.0758 C   0  0  0  0  0  0  0  0  0  0  0  0
    8.7870  -18.0477   23.7394 C   0  0  0  0  0  0  0  0  0  0  0  0
    8.1869  -16.6713   23.4829 C   0  0  2  0  0  0  0  0  0  0  0  0
    8.5384  -16.2532   22.1511 N   0  0  0  0  0  0  0  0  0  0  0  0
    8.7700  -15.7815   24.5216 C   0  0  0  0  0  0  0  0  0  0  0  0
   10.0107  -15.5899   24.4904 O   0  0  0  0  0  0  0  0  0  0  0  0
    7.1669  -18.7471   25.5099 C   0  0  0  0  0  0  0  0  0  0  0  0
    6.9038  -19.2347   26.7799 C   0  0  0  0  0  0  0  0  0  0  0  0
    7.8251  -11.5525   25.1959 C   0  0  0  0  0  0  0  0  0  0  0  0
    6.9616  -12.4322   26.0137 C   0  0  2  0  0  0  0  0  0  0  0  0
    5.8372  -11.5799   26.6595 C   0  0  0  0  0  0  0  0  0  0  0  0
    7.5690  -13.3262   27.0199 C   0  0  0  0  0  0  0  0  0  0  0  0
    8.5863  -14.2800   26.5721 C   0  0  2  0  0  0  0  0  0  0  0  0
    8.0052  -15.1549   25.5215 N   0  0  0  0  0  0  0  0  0  0  0  0
    9.1169  -15.1771   27.5791 C   0  0  0  0  0  0  0  0  0  0  0  0
    8.9111  -16.5530   27.6751 O   0  0  0  0  0  0  0  0  0  0  0  0
    9.8611  -14.6780   28.5139 O   0  0  0  0  0  0  0  0  0  0  0  0
  2  1  1  6
  3  2  1  0
  4  2  1  0
  4  5  1  6
  6  4  1  0
  6  7  2  0
  8  9  1  0
  9 10  2  0
 10 11  1  0
 12 13  1  0
 12 11  2  0
 14 13  1  1
 14 15  1  0
 15  6  1  0
 16 14  1  0
 17 16  2  0
 18 12  1  0
 19 18  2  0
 19  9  1  0
 21 20  1  1
 21 23  1  0
 22 21  1  0
 24 23  1  1
 24 26  1  0
 24 25  1  0
 25 16  1  0
 26 27  1  0
 28 26  2  0
M  END
$$$$
