VYL.pdb
     RDKit          3D

 28 28  0  0  1  0  0  0  0  0999 V2000
    7.6776  -12.7401   18.4813 C   0  0  0  0  0  0  0  0  0  0  0  0
    7.5822  -13.4477   19.8104 C   0  0  2  0  0  0  0  0  0  0  0  0
    8.4930  -12.7249   20.7819 C   0  0  0  0  0  0  0  0  0  0  0  0
    8.0782  -14.8757   19.7222 C   0  0  2  0  0  0  0  0  0  0  0  0
    7.2535  -15.6078   18.7797 N   0  0  0  0  0  0  0  0  0  0  0  0
    8.0575  -15.5405   21.0596 C   0  0  0  0  0  0  0  0  0  0  0  0
    6.9621  -15.7854   21.6432 O   0  0  0  0  0  0  0  0  0  0  0  0
   10.5322  -20.4757   27.9342 O   0  0  0  0  0  0  0  0  0  0  0  0
   10.4813  -19.7733   26.7316 C   0  0  0  0  0  0  0  0  0  0  0  0
    9.5100  -19.9966   25.7798 C   0  0  0  0  0  0  0  0  0  0  0  0
    9.5053  -19.2702   24.6008 C   0  0  0  0  0  0  0  0  0  0  0  0
   10.4613  -18.3043   24.3332 C   0  0  0  0  0  0  0  0  0  0  0  0
   10.4026  -17.5667   23.0634 C   0  0  0  0  0  0  0  0  0  0  0  0
    9.2456  -16.5768   23.0216 C   0  0  2  0  0  0  0  0  0  0  0  0
    9.2377  -15.9269   21.7372 N   0  0  0  0  0  0  0  0  0  0  0  0
    9.4979  -15.6205   24.1318 C   0  0  0  0  0  0  0  0  0  0  0  0
   10.5971  -15.0133   24.1349 O   0  0  0  0  0  0  0  0  0  0  0  0
   11.4265  -18.0854   25.2840 C   0  0  0  0  0  0  0  0  0  0  0  0
   11.4406  -18.8065   26.4671 C   0  0  0  0  0  0  0  0  0  0  0  0
    8.1207  -11.5314   25.5791 C   0  0  0  0  0  0  0  0  0  0  0  0
    7.1825  -12.6402   25.8596 C   0  0  2  0  0  0  0  0  0  0  0  0
    5.8542  -12.0536   26.4067 C   0  0  0  0  0  0  0  0  0  0  0  0
    7.6208  -13.7789   26.6914 C   0  0  0  0  0  0  0  0  0  0  0  0
    8.8529  -14.4754   26.3147 C   0  0  2  0  0  0  0  0  0  0  0  0
    8.5743  -15.3701   25.1621 N   0  0  0  0  0  0  0  0  0  0  0  0
    9.4525  -15.3192   27.3291 C   0  0  0  0  0  0  0  0  0  0  0  0
   10.4758  -14.9778   28.2128 O   0  0  0  0  0  0  0  0  0  0  0  0
    9.0207  -16.5340   27.4498 O   0  0  0  0  0  0  0  0  0  0  0  0
  2  1  1  6
  3  2  1  0
  4  2  1  0
  4  5  1  6
  6  4  1  0
  6  7  2  0
  8  9  1  0
  9 10  2  0
 10 11  1  0
 12 13  1  0
 12 11  2  0
 14 13  1  6
 14 15  1  0
 15  6  1  0
 16 14  1  0
 17 16  2  0
 18 12  1  0
 19 18  2  0
 19  9  1  0
 21 20  1  1
 21 23  1  0
 22 21  1  0
 24 23  1  1
 24 26  1  0
 24 25  1  0
 25 16  1  0
 26 27  1  0
 28 26  2  0
M  END
$$$$
