VYL.pdb
     RDKit          3D

 28 28  0  0  1  0  0  0  0  0999 V2000
    8.3688  -13.0042   18.3777 C   0  0  0  0  0  0  0  0  0  0  0  0
    7.8331  -13.6058   19.6534 C   0  0  2  0  0  0  0  0  0  0  0  0
    8.6210  -13.0160   20.8055 C   0  0  0  0  0  0  0  0  0  0  0  0
    8.0440  -15.1047   19.6983 C   0  0  2  0  0  0  0  0  0  0  0  0
    7.2954  -15.7224   18.6201 N   0  0  0  0  0  0  0  0  0  0  0  0
    7.6261  -15.6719   21.0154 C   0  0  0  0  0  0  0  0  0  0  0  0
    6.4067  -15.6967   21.3512 O   0  0  0  0  0  0  0  0  0  0  0  0
    7.6237  -20.1299   28.6365 O   0  0  0  0  0  0  0  0  0  0  0  0
    7.9362  -19.6154   27.3796 C   0  0  0  0  0  0  0  0  0  0  0  0
    9.2334  -19.4545   26.9428 C   0  0  0  0  0  0  0  0  0  0  0  0
    9.4889  -18.9382   25.6834 C   0  0  0  0  0  0  0  0  0  0  0  0
    8.4677  -18.5679   24.8240 C   0  0  0  0  0  0  0  0  0  0  0  0
    8.8033  -18.0260   23.4998 C   0  0  0  0  0  0  0  0  0  0  0  0
    8.1904  -16.6516   23.2640 C   0  0  2  0  0  0  0  0  0  0  0  0
    8.5510  -16.2034   21.9445 N   0  0  0  0  0  0  0  0  0  0  0  0
    8.7525  -15.7761   24.3262 C   0  0  0  0  0  0  0  0  0  0  0  0
    9.9581  -15.4403   24.2224 O   0  0  0  0  0  0  0  0  0  0  0  0
    7.1777  -18.7299   25.2634 C   0  0  0  0  0  0  0  0  0  0  0  0
    6.9107  -19.2455   26.5215 C   0  0  0  0  0  0  0  0  0  0  0  0
    7.4371  -11.5824   25.6479 C   0  0  0  0  0  0  0  0  0  0  0  0
    6.7114  -12.7008   26.2890 C   0  0  2  0  0  0  0  0  0  0  0  0
    5.5119  -12.1318   27.0924 C   0  0  0  0  0  0  0  0  0  0  0  0
    7.4526  -13.6850   27.1030 C   0  0  0  0  0  0  0  0  0  0  0  0
    8.5540  -14.4146   26.4708 C   0  0  2  0  0  0  0  0  0  0  0  0
    8.0052  -15.3150   25.4245 N   0  0  0  0  0  0  0  0  0  0  0  0
    9.3485  -15.2613   27.3383 C   0  0  0  0  0  0  0  0  0  0  0  0
    9.0320  -16.5440   27.7846 O   0  0  0  0  0  0  0  0  0  0  0  0
   10.4792  -14.8041   27.7734 O   0  0  0  0  0  0  0  0  0  0  0  0
  2  1  1  6
  3  2  1  0
  4  2  1  0
  4  5  1  6
  6  4  1  0
  6  7  2  0
  8  9  1  0
  9 10  2  0
 10 11  1  0
 12 13  1  0
 12 11  2  0
 14 13  1  1
 14 15  1  0
 15  6  1  0
 16 14  1  0
 17 16  2  0
 18 12  1  0
 19 18  2  0
 19  9  1  0
 21 20  1  1
 21 23  1  0
 22 21  1  0
 24 23  1  1
 24 26  1  0
 24 25  1  0
 25 16  1  0
 26 27  1  0
 28 26  2  0
M  END
$$$$
