VYL.pdb
     RDKit          3D

 28 28  0  0  1  0  0  0  0  0999 V2000
    7.9819  -13.0443   18.3512 C   0  0  0  0  0  0  0  0  0  0  0  0
    7.4815  -13.7222   19.6027 C   0  0  2  0  0  0  0  0  0  0  0  0
    8.1199  -13.0271   20.7881 C   0  0  0  0  0  0  0  0  0  0  0  0
    7.9077  -15.1741   19.6626 C   0  0  2  0  0  0  0  0  0  0  0  0
    7.2962  -15.8946   18.5620 N   0  0  0  0  0  0  0  0  0  0  0  0
    7.5307  -15.7965   20.9670 C   0  0  0  0  0  0  0  0  0  0  0  0
    6.3190  -16.0286   21.2466 O   0  0  0  0  0  0  0  0  0  0  0  0
    7.7259  -20.0933   28.6480 O   0  0  0  0  0  0  0  0  0  0  0  0
    8.0089  -19.5728   27.3866 C   0  0  0  0  0  0  0  0  0  0  0  0
    9.2823  -19.2182   26.9964 C   0  0  0  0  0  0  0  0  0  0  0  0
    9.5089  -18.7052   25.7302 C   0  0  0  0  0  0  0  0  0  0  0  0
    8.4817  -18.5299   24.8176 C   0  0  0  0  0  0  0  0  0  0  0  0
    8.7863  -17.9807   23.4889 C   0  0  0  0  0  0  0  0  0  0  0  0
    8.1466  -16.6164   23.2656 C   0  0  2  0  0  0  0  0  0  0  0  0
    8.4876  -16.1551   21.9453 N   0  0  0  0  0  0  0  0  0  0  0  0
    8.7020  -15.7363   24.3274 C   0  0  0  0  0  0  0  0  0  0  0  0
    9.9347  -15.4985   24.2968 O   0  0  0  0  0  0  0  0  0  0  0  0
    7.2155  -18.8844   25.2107 C   0  0  0  0  0  0  0  0  0  0  0  0
    6.9775  -19.3986   26.4752 C   0  0  0  0  0  0  0  0  0  0  0  0
    7.7964  -11.4499   25.1404 C   0  0  0  0  0  0  0  0  0  0  0  0
    6.8951  -12.4074   25.8180 C   0  0  2  0  0  0  0  0  0  0  0  0
    5.6777  -11.6365   26.3938 C   0  0  0  0  0  0  0  0  0  0  0  0
    7.4385  -13.3361   26.8294 C   0  0  0  0  0  0  0  0  0  0  0  0
    8.4707  -14.2868   26.4102 C   0  0  2  0  0  0  0  0  0  0  0  0
    7.9199  -15.1675   25.3482 N   0  0  0  0  0  0  0  0  0  0  0  0
    8.9797  -15.1786   27.4331 C   0  0  0  0  0  0  0  0  0  0  0  0
   10.0689  -14.9603   28.2759 O   0  0  0  0  0  0  0  0  0  0  0  0
    8.3869  -16.3171   27.6042 O   0  0  0  0  0  0  0  0  0  0  0  0
  2  1  1  6
  3  2  1  0
  4  2  1  0
  4  5  1  6
  6  4  1  0
  6  7  2  0
  8  9  1  0
  9 10  2  0
 10 11  1  0
 12 13  1  0
 12 11  2  0
 14 13  1  1
 14 15  1  0
 15  6  1  0
 16 14  1  0
 17 16  2  0
 18 12  1  0
 19 18  2  0
 19  9  1  0
 21 20  1  1
 21 23  1  0
 22 21  1  0
 24 23  1  1
 24 26  1  0
 24 25  1  0
 25 16  1  0
 26 27  1  0
 28 26  2  0
M  END
$$$$
