VYL.pdb
     RDKit          3D

 28 28  0  0  1  0  0  0  0  0999 V2000
    8.8645  -13.0446   19.0922 C   0  0  0  0  0  0  0  0  0  0  0  0
    8.3514  -14.3561   18.5510 C   0  0  2  0  0  0  0  0  0  0  0  0
    7.1526  -14.0540   17.6750 C   0  0  0  0  0  0  0  0  0  0  0  0
    7.8677  -15.2689   19.6584 C   0  0  2  0  0  0  0  0  0  0  0  0
    6.9264  -14.5461   20.4927 N   0  0  0  0  0  0  0  0  0  0  0  0
    9.0077  -15.7778   20.4784 C   0  0  0  0  0  0  0  0  0  0  0  0
    9.6993  -16.7611   20.0846 O   0  0  0  0  0  0  0  0  0  0  0  0
   14.5151  -15.0524   17.7068 O   0  0  0  0  0  0  0  0  0  0  0  0
   13.7884  -14.9689   18.8931 C   0  0  0  0  0  0  0  0  0  0  0  0
   12.9752  -13.8976   19.1938 C   0  0  0  0  0  0  0  0  0  0  0  0
   12.2743  -13.8644   20.3878 C   0  0  0  0  0  0  0  0  0  0  0  0
   12.3601  -14.8900   21.3148 C   0  0  0  0  0  0  0  0  0  0  0  0
   11.5915  -14.7963   22.5639 C   0  0  0  0  0  0  0  0  0  0  0  0
   10.3938  -15.7374   22.5789 C   0  0  2  0  0  0  0  0  0  0  0  0
    9.3723  -15.2014   21.7177 N   0  0  0  0  0  0  0  0  0  0  0  0
    9.9537  -15.8012   23.9977 C   0  0  0  0  0  0  0  0  0  0  0  0
   10.8432  -15.7549   24.8828 O   0  0  0  0  0  0  0  0  0  0  0  0
   13.1712  -15.9546   21.0109 C   0  0  0  0  0  0  0  0  0  0  0  0
   13.8769  -15.9981   19.8193 C   0  0  0  0  0  0  0  0  0  0  0  0
    8.5232  -12.9081   26.6061 C   0  0  0  0  0  0  0  0  0  0  0  0
    7.4557  -13.5370   25.7978 C   0  0  2  0  0  0  0  0  0  0  0  0
    6.1787  -12.6586   25.8739 C   0  0  0  0  0  0  0  0  0  0  0  0
    7.1140  -14.9575   26.0124 C   0  0  0  0  0  0  0  0  0  0  0  0
    8.1616  -15.9592   25.8020 C   0  0  2  0  0  0  0  0  0  0  0  0
    8.6064  -15.9093   24.3856 N   0  0  0  0  0  0  0  0  0  0  0  0
    7.7930  -17.3391   26.0480 C   0  0  0  0  0  0  0  0  0  0  0  0
    7.8359  -18.3976   25.1412 O   0  0  0  0  0  0  0  0  0  0  0  0
    7.3631  -17.6581   27.2271 O   0  0  0  0  0  0  0  0  0  0  0  0
  2  1  1  1
  3  2  1  0
  4  2  1  0
  4  5  1  1
  6  4  1  0
  6  7  2  0
  8  9  1  0
  9 10  2  0
 10 11  1  0
 12 13  1  0
 12 11  2  0
 14 13  1  1
 14 15  1  0
 15  6  1  0
 16 14  1  0
 17 16  2  0
 18 12  1  0
 19 18  2  0
 19  9  1  0
 21 20  1  1
 21 23  1  0
 22 21  1  0
 24 23  1  6
 24 26  1  0
 24 25  1  0
 25 16  1  0
 26 27  1  0
 28 26  2  0
M  END
$$$$
