VYL.pdb
     RDKit          3D

 28 28  0  0  1  0  0  0  0  0999 V2000
    5.5354  -20.3529   22.8919 C   0  0  0  0  0  0  0  0  0  0  0  0
    6.6151  -19.3280   23.1369 C   0  0  2  0  0  0  0  0  0  0  0  0
    6.0819  -18.3313   24.1459 C   0  0  0  0  0  0  0  0  0  0  0  0
    6.9437  -18.5486   21.8807 C   0  0  2  0  0  0  0  0  0  0  0  0
    7.2315  -19.4793   20.8058 N   0  0  0  0  0  0  0  0  0  0  0  0
    8.1013  -17.6304   22.0996 C   0  0  0  0  0  0  0  0  0  0  0  0
    9.2853  -18.0753   22.1181 O   0  0  0  0  0  0  0  0  0  0  0  0
    7.7840  -13.8415   16.4106 O   0  0  0  0  0  0  0  0  0  0  0  0
    7.9734  -13.8678   17.7910 C   0  0  0  0  0  0  0  0  0  0  0  0
    6.9259  -13.8493   18.6865 C   0  0  0  0  0  0  0  0  0  0  0  0
    7.1697  -13.8770   20.0494 C   0  0  0  0  0  0  0  0  0  0  0  0
    8.4559  -13.9237   20.5614 C   0  0  0  0  0  0  0  0  0  0  0  0
    8.6494  -13.9513   22.0180 C   0  0  0  0  0  0  0  0  0  0  0  0
    9.0398  -15.3339   22.5243 C   0  0  2  0  0  0  0  0  0  0  0  0
    7.9435  -16.2381   22.2948 N   0  0  0  0  0  0  0  0  0  0  0  0
    9.3303  -15.1617   23.9722 C   0  0  0  0  0  0  0  0  0  0  0  0
   10.4613  -14.7160   24.2872 O   0  0  0  0  0  0  0  0  0  0  0  0
    9.4957  -13.9420   19.6659 C   0  0  0  0  0  0  0  0  0  0  0  0
    9.2632  -13.9146   18.3002 C   0  0  0  0  0  0  0  0  0  0  0  0
    8.2164  -12.0098   26.8411 C   0  0  0  0  0  0  0  0  0  0  0  0
    7.2516  -13.0775   26.4984 C   0  0  2  0  0  0  0  0  0  0  0  0
    5.8234  -12.6149   26.8911 C   0  0  0  0  0  0  0  0  0  0  0  0
    7.4894  -14.4582   26.9652 C   0  0  0  0  0  0  0  0  0  0  0  0
    8.6439  -15.1804   26.4260 C   0  0  2  0  0  0  0  0  0  0  0  0
    8.4088  -15.4711   24.9883 N   0  0  0  0  0  0  0  0  0  0  0  0
    8.9490  -16.4579   27.0387 C   0  0  0  0  0  0  0  0  0  0  0  0
    8.9836  -17.7049   26.4156 O   0  0  0  0  0  0  0  0  0  0  0  0
    9.2145  -16.4823   28.3059 O   0  0  0  0  0  0  0  0  0  0  0  0
  2  1  1  6
  3  2  1  0
  4  2  1  0
  4  5  1  6
  6  4  1  0
  6  7  2  0
  8  9  1  0
  9 10  2  0
 10 11  1  0
 12 13  1  0
 12 11  2  0
 14 13  1  1
 14 15  1  0
 15  6  1  0
 16 14  1  0
 17 16  2  0
 18 12  1  0
 19 18  2  0
 19  9  1  0
 21 20  1  1
 21 23  1  0
 22 21  1  0
 24 23  1  1
 24 26  1  0
 24 25  1  0
 25 16  1  0
 26 27  1  0
 28 26  2  0
M  END
$$$$
