VYL.pdb
     RDKit          3D

 28 28  0  0  1  0  0  0  0  0999 V2000
    8.0378  -12.4154   18.3043 C   0  0  0  0  0  0  0  0  0  0  0  0
    7.8181  -13.2451   19.5451 C   0  0  2  0  0  0  0  0  0  0  0  0
    8.3878  -12.4751   20.7192 C   0  0  0  0  0  0  0  0  0  0  0  0
    8.5641  -14.5612   19.4790 C   0  0  2  0  0  0  0  0  0  0  0  0
    8.1297  -15.2951   18.3054 N   0  0  0  0  0  0  0  0  0  0  0  0
    8.3427  -15.3727   20.7132 C   0  0  0  0  0  0  0  0  0  0  0  0
    7.2235  -15.9186   20.9362 O   0  0  0  0  0  0  0  0  0  0  0  0
    8.8683  -21.5249   19.1146 O   0  0  0  0  0  0  0  0  0  0  0  0
    9.1733  -20.5435   20.0559 C   0  0  0  0  0  0  0  0  0  0  0  0
    8.5536  -20.4726   21.2848 C   0  0  0  0  0  0  0  0  0  0  0  0
    8.8944  -19.4762   22.1841 C   0  0  0  0  0  0  0  0  0  0  0  0
    9.8570  -18.5245   21.8908 C   0  0  0  0  0  0  0  0  0  0  0  0
   10.1746  -17.4920   22.8873 C   0  0  0  0  0  0  0  0  0  0  0  0
    9.1649  -16.3514   22.8814 C   0  0  2  0  0  0  0  0  0  0  0  0
    9.3513  -15.5735   21.6846 N   0  0  0  0  0  0  0  0  0  0  0  0
    9.4451  -15.5636   24.1109 C   0  0  0  0  0  0  0  0  0  0  0  0
   10.5250  -14.9243   24.1559 O   0  0  0  0  0  0  0  0  0  0  0  0
   10.4714  -18.5991   20.6659 C   0  0  0  0  0  0  0  0  0  0  0  0
   10.1381  -19.5918   19.7585 C   0  0  0  0  0  0  0  0  0  0  0  0
    7.5303  -12.0294   25.7304 C   0  0  0  0  0  0  0  0  0  0  0  0
    6.8719  -13.2642   26.2099 C   0  0  2  0  0  0  0  0  0  0  0  0
    5.5466  -12.8872   26.9237 C   0  0  0  0  0  0  0  0  0  0  0  0
    7.6340  -14.2333   27.0228 C   0  0  0  0  0  0  0  0  0  0  0  0
    8.8750  -14.7766   26.4663 C   0  0  2  0  0  0  0  0  0  0  0  0
    8.5676  -15.5040   25.2081 N   0  0  0  0  0  0  0  0  0  0  0  0
    9.5958  -15.7199   27.2976 C   0  0  0  0  0  0  0  0  0  0  0  0
    9.8080  -17.0749   27.0458 O   0  0  0  0  0  0  0  0  0  0  0  0
   10.1045  -15.2934   28.4095 O   0  0  0  0  0  0  0  0  0  0  0  0
  2  1  1  6
  3  2  1  0
  4  2  1  0
  4  5  1  6
  6  4  1  0
  6  7  2  0
  8  9  1  0
  9 10  2  0
 10 11  1  0
 12 13  1  0
 12 11  2  0
 14 13  1  6
 14 15  1  0
 15  6  1  0
 16 14  1  0
 17 16  2  0
 18 12  1  0
 19 18  2  0
 19  9  1  0
 21 20  1  1
 21 23  1  0
 22 21  1  0
 24 23  1  1
 24 26  1  0
 24 25  1  0
 25 16  1  0
 26 27  1  0
 28 26  2  0
M  END
$$$$
