VYL.pdb
     RDKit          3D

 28 28  0  0  1  0  0  0  0  0999 V2000
    6.1217  -19.5631   20.2862 C   0  0  0  0  0  0  0  0  0  0  0  0
    7.2358  -18.5737   20.5237 C   0  0  2  0  0  0  0  0  0  0  0  0
    8.3820  -18.9434   19.6043 C   0  0  0  0  0  0  0  0  0  0  0  0
    7.7649  -18.6545   21.9403 C   0  0  2  0  0  0  0  0  0  0  0  0
    6.7019  -18.3088   22.8649 N   0  0  0  0  0  0  0  0  0  0  0  0
    8.9384  -17.7508   22.1331 C   0  0  0  0  0  0  0  0  0  0  0  0
   10.0317  -17.9745   21.5375 O   0  0  0  0  0  0  0  0  0  0  0  0
    7.4655  -13.4048   17.7178 O   0  0  0  0  0  0  0  0  0  0  0  0
    7.9421  -13.6203   19.0095 C   0  0  0  0  0  0  0  0  0  0  0  0
    7.1084  -13.7365   20.1007 C   0  0  0  0  0  0  0  0  0  0  0  0
    7.6344  -13.9504   21.3638 C   0  0  0  0  0  0  0  0  0  0  0  0
    8.9986  -14.0548   21.5797 C   0  0  0  0  0  0  0  0  0  0  0  0
    9.4953  -14.2822   22.9441 C   0  0  0  0  0  0  0  0  0  0  0  0
    9.9980  -15.7056   23.1477 C   0  0  2  0  0  0  0  0  0  0  0  0
    8.8958  -16.6155   22.9760 N   0  0  0  0  0  0  0  0  0  0  0  0
   10.5446  -15.7422   24.5299 C   0  0  0  0  0  0  0  0  0  0  0  0
   11.6762  -15.2317   24.7192 O   0  0  0  0  0  0  0  0  0  0  0  0
    9.8248  -13.9384   20.4901 C   0  0  0  0  0  0  0  0  0  0  0  0
    9.3092  -13.7243   19.2219 C   0  0  0  0  0  0  0  0  0  0  0  0
   10.1972  -13.1794   27.9264 C   0  0  0  0  0  0  0  0  0  0  0  0
    9.2004  -14.2222   27.5990 C   0  0  2  0  0  0  0  0  0  0  0  0
    7.8295  -13.8203   28.2047 C   0  0  0  0  0  0  0  0  0  0  0  0
    9.4962  -15.6383   27.8954 C   0  0  0  0  0  0  0  0  0  0  0  0
   10.4050  -16.3563   26.9989 C   0  0  2  0  0  0  0  0  0  0  0  0
    9.8608  -16.3144   25.6173 N   0  0  0  0  0  0  0  0  0  0  0  0
   10.6241  -17.7589   27.2908 C   0  0  0  0  0  0  0  0  0  0  0  0
   10.2796  -18.8498   26.4934 O   0  0  0  0  0  0  0  0  0  0  0  0
   11.1919  -18.0704   28.4122 O   0  0  0  0  0  0  0  0  0  0  0  0
  2  1  1  1
  3  2  1  0
  4  2  1  0
  4  5  1  1
  6  4  1  0
  6  7  2  0
  8  9  1  0
  9 10  2  0
 10 11  1  0
 12 13  1  0
 12 11  2  0
 14 13  1  1
 14 15  1  0
 15  6  1  0
 16 14  1  0
 17 16  2  0
 18 12  1  0
 19 18  2  0
 19  9  1  0
 21 20  1  1
 21 23  1  0
 22 21  1  0
 24 23  1  1
 24 26  1  0
 24 25  1  0
 25 16  1  0
 26 27  1  0
 28 26  2  0
M  END
$$$$
