YIT.pdb
     RDKit          3D

 28 28  0  0  1  0  0  0  0  0999 V2000
   15.6492  -25.0438  -13.5084 O   0  0  0  0  0  0  0  0  0  0  0  0
   16.7755  -24.2536  -13.5841 C   0  0  0  0  0  0  0  0  0  0  0  0
   16.6696  -22.9031  -13.8315 C   0  0  0  0  0  0  0  0  0  0  0  0
   17.7892  -22.1144  -13.9073 C   0  0  0  0  0  0  0  0  0  0  0  0
   19.0356  -22.6623  -13.7371 C   0  0  0  0  0  0  0  0  0  0  0  0
   20.2099  -21.7385  -13.8318 C   0  0  0  0  0  0  0  0  0  0  0  0
   20.7468  -21.4446  -12.4498 C   0  0  2  0  0  0  0  0  0  0  0  0
   19.7779  -20.7303  -11.6758 N   0  0  0  0  0  0  0  0  0  0  0  0
   22.0257  -20.7112  -12.5914 C   0  0  0  0  0  0  0  0  0  0  0  0
   22.0740  -19.4641  -12.7178 O   0  0  0  0  0  0  0  0  0  0  0  0
   19.1555  -24.0072  -13.4899 C   0  0  0  0  0  0  0  0  0  0  0  0
   18.0269  -24.7862  -13.4163 C   0  0  0  0  0  0  0  0  0  0  0  0
   25.6682  -21.0965   -8.9563 C   0  0  0  0  0  0  0  0  0  0  0  0
   24.8067  -20.8087  -10.1264 C   0  0  0  0  0  0  0  0  0  0  0  0
   25.3723  -21.0310  -11.4805 C   0  0  2  0  0  0  0  0  0  0  0  0
   26.8343  -20.6301  -11.6206 C   0  0  0  0  0  0  0  0  0  0  0  0
   24.5158  -20.7032  -12.6287 C   0  0  2  0  0  0  0  0  0  0  0  0
   23.2441  -21.4266  -12.5860 N   0  0  0  0  0  0  0  0  0  0  0  0
   25.1271  -21.0393  -13.9221 C   0  0  0  0  0  0  0  0  0  0  0  0
   25.6173  -22.1675  -14.1695 O   0  0  0  0  0  0  0  0  0  0  0  0
   24.1200  -18.7597  -17.2994 C   0  0  0  0  0  0  0  0  0  0  0  0
   24.4755  -20.2276  -17.3258 C   0  0  1  0  0  0  0  0  0  0  0  0
   24.8985  -20.5641  -18.6091 O   0  0  0  0  0  0  0  0  0  0  0  0
   25.5832  -20.5192  -16.3041 C   0  0  2  0  0  0  0  0  0  0  0  0
   25.2095  -20.1047  -14.9968 N   0  0  0  0  0  0  0  0  0  0  0  0
   26.8356  -19.8604  -16.7580 C   0  0  0  0  0  0  0  0  0  0  0  0
   27.5458  -20.4572  -17.7833 O   0  0  0  0  0  0  0  0  0  0  0  0
   27.2078  -18.7916  -16.2021 O   0  0  0  0  0  0  0  0  0  0  0  0
  2  1  1  0
  3  2  2  0
  4  3  1  0
  5 11  1  0
  5  4  2  0
  6  5  1  0
  7  6  1  0
  7  8  1  1
  9 10  2  0
  9  7  1  0
 11 12  2  0
 12  2  1  0
 14 13  1  0
 15 14  1  0
 15 16  1  6
 17 18  1  1
 17 15  1  0
 18  9  1  0
 19 17  1  0
 20 19  2  0
 22 23  1  0
 22 24  1  0
 22 21  1  6
 24 25  1  1
 25 19  1  0
 26 24  1  0
 26 27  1  0
 28 26  2  0
M  END
$$$$
