YIT.pdb
     RDKit          3D

 28 28  0  0  1  0  0  0  0  0999 V2000
    8.2379  -15.4941   -0.4112 O   0  0  0  0  0  0  0  0  0  0  0  0
    9.2068  -16.1349    0.3300 C   0  0  0  0  0  0  0  0  0  0  0  0
   10.3801  -15.4920    0.6561 C   0  0  0  0  0  0  0  0  0  0  0  0
   11.3461  -16.1276    1.3937 C   0  0  0  0  0  0  0  0  0  0  0  0
   11.1562  -17.4183    1.8187 C   0  0  0  0  0  0  0  0  0  0  0  0
   12.2540  -18.0450    2.6209 C   0  0  0  0  0  0  0  0  0  0  0  0
   13.3507  -18.5311    1.7014 C   0  0  2  0  0  0  0  0  0  0  0  0
   12.8726  -19.5889    0.8644 N   0  0  0  0  0  0  0  0  0  0  0  0
   14.5117  -18.9312    2.5294 C   0  0  0  0  0  0  0  0  0  0  0  0
   14.7428  -20.1273    2.8282 O   0  0  0  0  0  0  0  0  0  0  0  0
    9.9912  -18.0709    1.5007 C   0  0  0  0  0  0  0  0  0  0  0  0
    9.0316  -17.4236    0.7616 C   0  0  0  0  0  0  0  0  0  0  0  0
   19.0047  -15.4110    2.6735 C   0  0  0  0  0  0  0  0  0  0  0  0
   17.8328  -16.1455    3.2039 C   0  0  0  0  0  0  0  0  0  0  0  0
   17.8095  -17.6221    3.0557 C   0  0  2  0  0  0  0  0  0  0  0  0
   18.2713  -18.1207    1.6933 C   0  0  0  0  0  0  0  0  0  0  0  0
   16.6634  -18.3376    3.6337 C   0  0  2  0  0  0  0  0  0  0  0  0
   15.4006  -17.9427    3.0079 N   0  0  0  0  0  0  0  0  0  0  0  0
   16.4936  -18.0928    5.0727 C   0  0  0  0  0  0  0  0  0  0  0  0
   15.8042  -17.1468    5.5247 O   0  0  0  0  0  0  0  0  0  0  0  0
   16.9665  -19.5244    9.7730 C   0  0  0  0  0  0  0  0  0  0  0  0
   17.2474  -19.8447    8.3238 C   0  0  1  0  0  0  0  0  0  0  0  0
   16.4356  -20.9063    7.9330 O   0  0  0  0  0  0  0  0  0  0  0  0
   16.9740  -18.6127    7.4500 C   0  0  2  0  0  0  0  0  0  0  0  0
   17.1022  -18.9151    6.0670 N   0  0  0  0  0  0  0  0  0  0  0  0
   17.8914  -17.5202    7.8662 C   0  0  0  0  0  0  0  0  0  0  0  0
   19.1617  -17.4988    7.3208 O   0  0  0  0  0  0  0  0  0  0  0  0
   17.4892  -16.6574    8.6930 O   0  0  0  0  0  0  0  0  0  0  0  0
  2  1  1  0
  3  2  2  0
  4  3  1  0
  5 11  1  0
  5  4  2  0
  6  5  1  0
  7  6  1  0
  7  8  1  1
  9 10  2  0
  9  7  1  0
 11 12  2  0
 12  2  1  0
 14 13  1  0
 15 14  1  0
 15 16  1  6
 17 18  1  6
 17 15  1  0
 18  9  1  0
 19 17  1  0
 20 19  2  0
 22 23  1  0
 22 24  1  0
 22 21  1  1
 24 25  1  6
 25 19  1  0
 26 24  1  0
 26 27  1  0
 28 26  2  0
M  END
$$$$
