YIT.pdb
     RDKit          3D

 28 28  0  0  1  0  0  0  0  0999 V2000
   16.4781  -25.3509  -14.5942 O   0  0  0  0  0  0  0  0  0  0  0  0
   17.5554  -24.4918  -14.5904 C   0  0  0  0  0  0  0  0  0  0  0  0
   17.3652  -23.1283  -14.5592 C   0  0  0  0  0  0  0  0  0  0  0  0
   18.4359  -22.2711  -14.5554 C   0  0  0  0  0  0  0  0  0  0  0  0
   19.7169  -22.7622  -14.5827 C   0  0  0  0  0  0  0  0  0  0  0  0
   20.8340  -21.7655  -14.5745 C   0  0  0  0  0  0  0  0  0  0  0  0
   21.4261  -21.6669  -13.1873 C   0  0  2  0  0  0  0  0  0  0  0  0
   20.4626  -21.1472  -12.2656 N   0  0  0  0  0  0  0  0  0  0  0  0
   22.6554  -20.8442  -13.2612 C   0  0  0  0  0  0  0  0  0  0  0  0
   22.6305  -19.5920  -13.1900 O   0  0  0  0  0  0  0  0  0  0  0  0
   19.9207  -24.1193  -14.6139 C   0  0  0  0  0  0  0  0  0  0  0  0
   18.8404  -24.9671  -14.6174 C   0  0  0  0  0  0  0  0  0  0  0  0
   26.5293  -21.3968   -9.9322 C   0  0  0  0  0  0  0  0  0  0  0  0
   25.5857  -21.0244  -11.0115 C   0  0  0  0  0  0  0  0  0  0  0  0
   26.0804  -21.0517  -12.4106 C   0  0  2  0  0  0  0  0  0  0  0  0
   27.4964  -20.5199  -12.5833 C   0  0  0  0  0  0  0  0  0  0  0  0
   25.1313  -20.6723  -13.4665 C   0  0  2  0  0  0  0  0  0  0  0  0
   23.9092  -21.4764  -13.4175 N   0  0  0  0  0  0  0  0  0  0  0  0
   25.6729  -20.8451  -14.8216 C   0  0  0  0  0  0  0  0  0  0  0  0
   25.9170  -21.9716  -15.3177 O   0  0  0  0  0  0  0  0  0  0  0  0
   26.3839  -19.2241  -19.3779 C   0  0  0  0  0  0  0  0  0  0  0  0
   25.7720  -19.0337  -18.0101 C   0  0  1  0  0  0  0  0  0  0  0  0
   24.4146  -19.3367  -18.0793 O   0  0  0  0  0  0  0  0  0  0  0  0
   26.4712  -19.9424  -16.9896 C   0  0  2  0  0  0  0  0  0  0  0  0
   25.9631  -19.7413  -15.6775 N   0  0  0  0  0  0  0  0  0  0  0  0
   27.9357  -19.7000  -17.0606 C   0  0  0  0  0  0  0  0  0  0  0  0
   28.7123  -20.6221  -17.7375 O   0  0  0  0  0  0  0  0  0  0  0  0
   28.4194  -18.6746  -16.5088 O   0  0  0  0  0  0  0  0  0  0  0  0
  2  1  1  0
  3  2  2  0
  4  3  1  0
  5 11  1  0
  5  4  2  0
  6  5  1  0
  7  6  1  0
  7  8  1  1
  9 10  2  0
  9  7  1  0
 11 12  2  0
 12  2  1  0
 14 13  1  0
 15 14  1  0
 15 16  1  1
 17 18  1  6
 17 15  1  0
 18  9  1  0
 19 17  1  0
 20 19  2  0
 22 23  1  0
 22 24  1  0
 22 21  1  6
 24 25  1  1
 25 19  1  0
 26 24  1  0
 26 27  1  0
 28 26  2  0
M  END
$$$$
