YIT.pdb
     RDKit          3D

 28 28  0  0  1  0  0  0  0  0999 V2000
   28.4933  -19.2259   -5.6872 O   0  0  0  0  0  0  0  0  0  0  0  0
   28.1075  -19.4927   -6.9828 C   0  0  0  0  0  0  0  0  0  0  0  0
   26.8706  -19.0981   -7.4418 C   0  0  0  0  0  0  0  0  0  0  0  0
   26.4843  -19.3624   -8.7310 C   0  0  0  0  0  0  0  0  0  0  0  0
   27.3283  -20.0265   -9.5850 C   0  0  0  0  0  0  0  0  0  0  0  0
   26.8378  -20.2771  -10.9772 C   0  0  0  0  0  0  0  0  0  0  0  0
   25.9592  -21.5068  -11.0002 C   0  0  2  0  0  0  0  0  0  0  0  0
   26.7443  -22.6888  -10.8142 N   0  0  0  0  0  0  0  0  0  0  0  0
   25.1986  -21.5140  -12.2710 C   0  0  0  0  0  0  0  0  0  0  0  0
   25.5509  -22.1998  -13.2604 O   0  0  0  0  0  0  0  0  0  0  0  0
   28.5642  -20.4255   -9.1405 C   0  0  0  0  0  0  0  0  0  0  0  0
   28.9393  -20.1549   -7.8474 C   0  0  0  0  0  0  0  0  0  0  0  0
   19.9277  -21.9984  -11.6455 C   0  0  0  0  0  0  0  0  0  0  0  0
   21.3276  -21.9936  -12.1297 C   0  0  0  0  0  0  0  0  0  0  0  0
   21.7222  -20.9534  -13.1121 C   0  0  2  0  0  0  0  0  0  0  0  0
   20.7082  -20.7282  -14.2252 C   0  0  0  0  0  0  0  0  0  0  0  0
   23.1316  -20.9212  -13.5272 C   0  0  2  0  0  0  0  0  0  0  0  0
   24.0319  -20.7259  -12.3898 N   0  0  0  0  0  0  0  0  0  0  0  0
   23.4330  -19.8353  -14.4704 C   0  0  0  0  0  0  0  0  0  0  0  0
   23.8671  -18.7168  -14.1031 O   0  0  0  0  0  0  0  0  0  0  0  0
   25.9383  -20.2999  -16.8572 C   0  0  0  0  0  0  0  0  0  0  0  0
   25.3244  -18.9336  -16.6617 C   0  0  1  0  0  0  0  0  0  0  0  0
   25.8398  -18.0681  -17.6230 O   0  0  0  0  0  0  0  0  0  0  0  0
   23.7968  -19.0206  -16.7847 C   0  0  2  0  0  0  0  0  0  0  0  0
   23.2538  -19.9721  -15.8791 N   0  0  0  0  0  0  0  0  0  0  0  0
   23.4495  -19.3359  -18.1949 C   0  0  0  0  0  0  0  0  0  0  0  0
   23.5146  -18.3121  -19.1218 O   0  0  0  0  0  0  0  0  0  0  0  0
   23.1106  -20.5116  -18.4994 O   0  0  0  0  0  0  0  0  0  0  0  0
  2  1  1  0
  3  2  2  0
  4  3  1  0
  5 11  1  0
  5  4  2  0
  6  5  1  0
  7  6  1  0
  7  8  1  6
  9 10  2  0
  9  7  1  0
 11 12  2  0
 12  2  1  0
 14 13  1  0
 15 14  1  0
 15 16  1  6
 17 18  1  1
 17 15  1  0
 18  9  1  0
 19 17  1  0
 20 19  2  0
 22 23  1  0
 22 24  1  0
 22 21  1  6
 24 25  1  1
 25 19  1  0
 26 24  1  0
 26 27  1  0
 28 26  2  0
M  END
$$$$
