YIT.pdb
     RDKit          3D

 28 28  0  0  1  0  0  0  0  0999 V2000
   29.1618  -26.2344  -18.7802 O   0  0  0  0  0  0  0  0  0  0  0  0
   28.7286  -25.2684  -17.8982 C   0  0  0  0  0  0  0  0  0  0  0  0
   29.3943  -24.0678  -17.7903 C   0  0  0  0  0  0  0  0  0  0  0  0
   28.9652  -23.1047  -16.9131 C   0  0  0  0  0  0  0  0  0  0  0  0
   27.8618  -23.3249  -16.1276 C   0  0  0  0  0  0  0  0  0  0  0  0
   27.4527  -22.2266  -15.1961 C   0  0  0  0  0  0  0  0  0  0  0  0
   26.1243  -21.6511  -15.6305 C   0  0  2  0  0  0  0  0  0  0  0  0
   26.2695  -20.9170  -16.8504 N   0  0  0  0  0  0  0  0  0  0  0  0
   25.5871  -20.8276  -14.5229 C   0  0  0  0  0  0  0  0  0  0  0  0
   25.7481  -19.5847  -14.4711 O   0  0  0  0  0  0  0  0  0  0  0  0
   27.1889  -24.5172  -16.2252 C   0  0  0  0  0  0  0  0  0  0  0  0
   27.6285  -25.4736  -17.1072 C   0  0  0  0  0  0  0  0  0  0  0  0
   20.6471  -20.3949  -13.7774 C   0  0  0  0  0  0  0  0  0  0  0  0
   22.1278  -20.3767  -13.7381 C   0  0  0  0  0  0  0  0  0  0  0  0
   22.7952  -20.6950  -12.4512 C   0  0  2  0  0  0  0  0  0  0  0  0
   22.0936  -20.1260  -11.2257 C   0  0  0  0  0  0  0  0  0  0  0  0
   24.2632  -20.6338  -12.4224 C   0  0  2  0  0  0  0  0  0  0  0  0
   24.8649  -21.4485  -13.4791 N   0  0  0  0  0  0  0  0  0  0  0  0
   24.8387  -21.1213  -11.1611 C   0  0  0  0  0  0  0  0  0  0  0  0
   24.7333  -22.3126  -10.7814 O   0  0  0  0  0  0  0  0  0  0  0  0
   28.4454  -20.3482   -9.8928 C   0  0  0  0  0  0  0  0  0  0  0  0
   27.4764  -20.1155   -8.7576 C   0  0  1  0  0  0  0  0  0  0  0  0
   27.3104  -18.7441   -8.5829 O   0  0  0  0  0  0  0  0  0  0  0  0
   26.1294  -20.7816   -9.0705 C   0  0  2  0  0  0  0  0  0  0  0  0
   25.5625  -20.2736  -10.2709 N   0  0  0  0  0  0  0  0  0  0  0  0
   25.2239  -20.5950   -7.9070 C   0  0  0  0  0  0  0  0  0  0  0  0
   25.6177  -21.1192   -6.6897 O   0  0  0  0  0  0  0  0  0  0  0  0
   24.1385  -19.9725   -8.0627 O   0  0  0  0  0  0  0  0  0  0  0  0
  2  1  1  0
  3  2  2  0
  4  3  1  0
  5 11  1  0
  5  4  2  0
  6  5  1  0
  7  6  1  0
  7  8  1  6
  9 10  2  0
  9  7  1  0
 11 12  2  0
 12  2  1  0
 14 13  1  0
 15 14  1  0
 15 16  1  1
 17 18  1  6
 17 15  1  0
 18  9  1  0
 19 17  1  0
 20 19  2  0
 22 23  1  0
 22 24  1  0
 22 21  1  6
 24 25  1  6
 25 19  1  0
 26 24  1  0
 26 27  1  0
 28 26  2  0
M  END
$$$$
