YIT.pdb
     RDKit          3D

 28 28  0  0  1  0  0  0  0  0999 V2000
   13.5489  -35.6911   -7.4484 O   0  0  0  0  0  0  0  0  0  0  0  0
   14.3733  -34.6230   -7.1692 C   0  0  0  0  0  0  0  0  0  0  0  0
   13.8665  -33.4752   -6.6017 C   0  0  0  0  0  0  0  0  0  0  0  0
   14.6850  -32.4105   -6.3228 C   0  0  0  0  0  0  0  0  0  0  0  0
   16.0260  -32.4745   -6.6065 C   0  0  0  0  0  0  0  0  0  0  0  0
   16.8560  -31.2743   -6.2720 C   0  0  0  0  0  0  0  0  0  0  0  0
   16.6752  -30.2116   -7.3315 C   0  0  2  0  0  0  0  0  0  0  0  0
   17.2550  -30.6332   -8.5701 N   0  0  0  0  0  0  0  0  0  0  0  0
   17.2529  -28.9448   -6.8263 C   0  0  0  0  0  0  0  0  0  0  0  0
   18.3788  -28.5282   -7.1901 O   0  0  0  0  0  0  0  0  0  0  0  0
   16.5444  -33.6127   -7.1721 C   0  0  0  0  0  0  0  0  0  0  0  0
   15.7144  -34.6719   -7.4466 C   0  0  0  0  0  0  0  0  0  0  0  0
   15.4954  -23.3212   -5.4610 C   0  0  0  0  0  0  0  0  0  0  0  0
   16.4582  -24.4251   -5.2407 C   0  0  0  0  0  0  0  0  0  0  0  0
   16.0519  -25.7953   -5.6412 C   0  0  2  0  0  0  0  0  0  0  0  0
   14.6232  -26.1594   -5.2619 C   0  0  0  0  0  0  0  0  0  0  0  0
   17.0425  -26.8671   -5.4695 C   0  0  2  0  0  0  0  0  0  0  0  0
   16.5228  -28.1656   -5.9010 N   0  0  0  0  0  0  0  0  0  0  0  0
   17.4660  -27.0464   -4.0738 C   0  0  0  0  0  0  0  0  0  0  0  0
   18.1597  -26.2000   -3.4598 O   0  0  0  0  0  0  0  0  0  0  0  0
   15.4095  -27.0525   -1.1299 C   0  0  0  0  0  0  0  0  0  0  0  0
   16.1577  -28.3633   -1.0679 C   0  0  1  0  0  0  0  0  0  0  0  0
   15.3236  -29.3786   -1.5286 O   0  0  0  0  0  0  0  0  0  0  0  0
   17.4285  -28.2850   -1.9252 C   0  0  2  0  0  0  0  0  0  0  0  0
   17.1192  -28.2003   -3.3100 N   0  0  0  0  0  0  0  0  0  0  0  0
   18.2833  -29.4615   -1.6187 C   0  0  0  0  0  0  0  0  0  0  0  0
   18.7964  -29.5729   -0.3397 O   0  0  0  0  0  0  0  0  0  0  0  0
   18.5116  -30.3111   -2.5219 O   0  0  0  0  0  0  0  0  0  0  0  0
  2  1  1  0
  3  2  2  0
  4  3  1  0
  5 11  1  0
  5  4  2  0
  6  5  1  0
  7  6  1  0
  7  8  1  6
  9 10  2  0
  9  7  1  0
 11 12  2  0
 12  2  1  0
 14 13  1  0
 15 14  1  0
 15 16  1  1
 17 18  1  1
 17 15  1  0
 18  9  1  0
 19 17  1  0
 20 19  2  0
 22 23  1  0
 22 24  1  0
 22 21  1  6
 24 25  1  6
 25 19  1  0
 26 24  1  0
 26 27  1  0
 28 26  2  0
M  END
$$$$
