YIT.pdb
     RDKit          3D

 28 28  0  0  1  0  0  0  0  0999 V2000
   46.5383   -8.0715   -1.8796 O   0  0  0  0  0  0  0  0  0  0  0  0
   45.6434   -8.3065   -2.9007 C   0  0  0  0  0  0  0  0  0  0  0  0
   45.8626   -7.7903   -4.1583 C   0  0  0  0  0  0  0  0  0  0  0  0
   44.9733   -8.0227   -5.1763 C   0  0  0  0  0  0  0  0  0  0  0  0
   43.8481   -8.7762   -4.9550 C   0  0  0  0  0  0  0  0  0  0  0  0
   42.9254   -8.9884   -6.1147 C   0  0  0  0  0  0  0  0  0  0  0  0
   42.7151  -10.4679   -6.3415 C   0  0  2  0  0  0  0  0  0  0  0  0
   43.9708  -11.1344   -6.5065 N   0  0  0  0  0  0  0  0  0  0  0  0
   41.8146  -10.6390   -7.5048 C   0  0  0  0  0  0  0  0  0  0  0  0
   42.2472  -10.7802   -8.6737 O   0  0  0  0  0  0  0  0  0  0  0  0
   43.6174   -9.2969   -3.7060 C   0  0  0  0  0  0  0  0  0  0  0  0
   44.5154   -9.0569   -2.6950 C   0  0  0  0  0  0  0  0  0  0  0  0
   36.3985  -13.0798   -8.9381 C   0  0  0  0  0  0  0  0  0  0  0  0
   37.5381  -12.1855   -9.2477 C   0  0  0  0  0  0  0  0  0  0  0  0
   38.4332  -11.7852   -8.1335 C   0  0  2  0  0  0  0  0  0  0  0  0
   37.7157  -11.5360   -6.8141 C   0  0  0  0  0  0  0  0  0  0  0  0
   39.5190  -10.8462   -8.4480 C   0  0  2  0  0  0  0  0  0  0  0  0
   40.4154  -10.6458   -7.3084 N   0  0  0  0  0  0  0  0  0  0  0  0
   39.0381   -9.5089   -8.8222 C   0  0  0  0  0  0  0  0  0  0  0  0
   38.2895   -9.3071   -9.8087 O   0  0  0  0  0  0  0  0  0  0  0  0
   37.0527   -6.9432   -6.7744 C   0  0  0  0  0  0  0  0  0  0  0  0
   38.3311   -6.2961   -7.2526 C   0  0  1  0  0  0  0  0  0  0  0  0
   39.2543   -6.3015   -6.2102 O   0  0  0  0  0  0  0  0  0  0  0  0
   38.8867   -7.0594   -8.4628 C   0  0  2  0  0  0  0  0  0  0  0  0
   39.3878   -8.3360   -8.0893 N   0  0  0  0  0  0  0  0  0  0  0  0
   39.9280   -6.2241   -9.1160 C   0  0  0  0  0  0  0  0  0  0  0  0
   39.5450   -5.0011   -9.6348 O   0  0  0  0  0  0  0  0  0  0  0  0
   41.1132   -6.6501   -9.1764 O   0  0  0  0  0  0  0  0  0  0  0  0
  2  1  1  0
  3  2  2  0
  4  3  1  0
  5 11  1  0
  5  4  2  0
  6  5  1  0
  7  6  1  0
  7  8  1  6
  9 10  2  0
  9  7  1  0
 11 12  2  0
 12  2  1  0
 14 13  1  0
 15 14  1  0
 15 16  1  1
 17 18  1  1
 17 15  1  0
 18  9  1  0
 19 17  1  0
 20 19  2  0
 22 23  1  0
 22 24  1  0
 22 21  1  1
 24 25  1  1
 25 19  1  0
 26 24  1  0
 26 27  1  0
 28 26  2  0
M  END
$$$$
