YIT.pdb
     RDKit          3D

 28 28  0  0  1  0  0  0  0  0999 V2000
   28.7463  -14.3712  -18.1493 O   0  0  0  0  0  0  0  0  0  0  0  0
   28.0729  -15.3721  -17.4834 C   0  0  0  0  0  0  0  0  0  0  0  0
   27.4377  -16.3749  -18.1814 C   0  0  0  0  0  0  0  0  0  0  0  0
   26.7667  -17.3723  -17.5210 C   0  0  0  0  0  0  0  0  0  0  0  0
   26.7187  -17.3849  -16.1498 C   0  0  0  0  0  0  0  0  0  0  0  0
   25.9694  -18.5063  -15.4998 C   0  0  0  0  0  0  0  0  0  0  0  0
   26.9409  -19.5361  -14.9703 C   0  0  2  0  0  0  0  0  0  0  0  0
   27.5883  -20.2177  -16.0493 N   0  0  0  0  0  0  0  0  0  0  0  0
   26.2054  -20.4523  -14.0685 C   0  0  0  0  0  0  0  0  0  0  0  0
   25.6767  -21.5143  -14.4760 O   0  0  0  0  0  0  0  0  0  0  0  0
   27.3476  -16.3914  -15.4416 C   0  0  0  0  0  0  0  0  0  0  0  0
   28.0161  -15.3983  -16.1145 C   0  0  0  0  0  0  0  0  0  0  0  0
   25.0719  -21.4704   -8.0168 C   0  0  0  0  0  0  0  0  0  0  0  0
   24.7009  -21.5359   -9.4494 C   0  0  0  0  0  0  0  0  0  0  0  0
   25.5453  -20.7994  -10.4229 C   0  0  2  0  0  0  0  0  0  0  0  0
   25.9651  -19.4108   -9.9610 C   0  0  0  0  0  0  0  0  0  0  0  0
   25.1848  -20.9093  -11.8433 C   0  0  2  0  0  0  0  0  0  0  0  0
   26.0856  -20.1336  -12.6972 N   0  0  0  0  0  0  0  0  0  0  0  0
   23.8307  -20.4198  -12.1368 C   0  0  0  0  0  0  0  0  0  0  0  0
   23.6054  -19.2675  -12.5793 O   0  0  0  0  0  0  0  0  0  0  0  0
   22.0132  -22.1471  -14.5804 C   0  0  0  0  0  0  0  0  0  0  0  0
   21.5081  -20.8237  -14.0558 C   0  0  1  0  0  0  0  0  0  0  0  0
   20.2542  -20.5716  -14.6063 O   0  0  0  0  0  0  0  0  0  0  0  0
   21.4212  -20.8635  -12.5238 C   0  0  2  0  0  0  0  0  0  0  0  0
   22.6668  -21.2209  -11.9397 N   0  0  0  0  0  0  0  0  0  0  0  0
   20.3358  -21.8001  -12.1323 C   0  0  0  0  0  0  0  0  0  0  0  0
   20.6864  -22.9426  -11.4371 O   0  0  0  0  0  0  0  0  0  0  0  0
   19.1441  -21.5284  -12.4417 O   0  0  0  0  0  0  0  0  0  0  0  0
  2  1  1  0
  3  2  2  0
  4  3  1  0
  5 11  1  0
  5  4  2  0
  6  5  1  0
  7  6  1  0
  7  8  1  6
  9 10  2  0
  9  7  1  0
 11 12  2  0
 12  2  1  0
 14 13  1  0
 15 14  1  0
 15 16  1  1
 17 18  1  6
 17 15  1  0
 18  9  1  0
 19 17  1  0
 20 19  2  0
 22 23  1  0
 22 24  1  0
 22 21  1  6
 24 25  1  1
 25 19  1  0
 26 24  1  0
 26 27  1  0
 28 26  2  0
M  END
$$$$
