YIT.pdb
     RDKit          3D

 28 28  0  0  1  0  0  0  0  0999 V2000
   22.0287  -21.4147   -7.7517 O   0  0  0  0  0  0  0  0  0  0  0  0
   22.6484  -21.3039   -8.9774 C   0  0  0  0  0  0  0  0  0  0  0  0
   23.9887  -21.5887   -9.1141 C   0  0  0  0  0  0  0  0  0  0  0  0
   24.6080  -21.4792  -10.3330 C   0  0  0  0  0  0  0  0  0  0  0  0
   23.8977  -21.0826  -11.4379 C   0  0  0  0  0  0  0  0  0  0  0  0
   24.6412  -20.9882  -12.7339 C   0  0  0  0  0  0  0  0  0  0  0  0
   25.7767  -19.9990  -12.6053 C   0  0  2  0  0  0  0  0  0  0  0  0
   25.7081  -19.3157  -11.3497 N   0  0  0  0  0  0  0  0  0  0  0  0
   25.7292  -19.0794  -13.7653 C   0  0  0  0  0  0  0  0  0  0  0  0
   25.2281  -17.9317  -13.6922 O   0  0  0  0  0  0  0  0  0  0  0  0
   22.5609  -20.7956  -11.3158 C   0  0  0  0  0  0  0  0  0  0  0  0
   21.9524  -20.9091  -10.0899 C   0  0  0  0  0  0  0  0  0  0  0  0
   27.3748  -15.9996  -17.7913 C   0  0  0  0  0  0  0  0  0  0  0  0
   27.8755  -17.3917  -17.7172 C   0  0  0  0  0  0  0  0  0  0  0  0
   27.6717  -18.1397  -16.4516 C   0  0  2  0  0  0  0  0  0  0  0  0
   28.7565  -19.1644  -16.1497 C   0  0  0  0  0  0  0  0  0  0  0  0
   26.3003  -18.5609  -16.1332 C   0  0  2  0  0  0  0  0  0  0  0  0
   26.2629  -19.4939  -15.0061 N   0  0  0  0  0  0  0  0  0  0  0  0
   25.6321  -19.2480  -17.2472 C   0  0  0  0  0  0  0  0  0  0  0  0
   26.0016  -20.3684  -17.6746 O   0  0  0  0  0  0  0  0  0  0  0  0
   21.6579  -20.0065  -19.9974 C   0  0  0  0  0  0  0  0  0  0  0  0
   22.3250  -19.2397  -18.8798 C   0  0  1  0  0  0  0  0  0  0  0  0
   21.8510  -19.7189  -17.6613 O   0  0  0  0  0  0  0  0  0  0  0  0
   23.8485  -19.4063  -18.9637 C   0  0  2  0  0  0  0  0  0  0  0  0
   24.5094  -18.6907  -17.9284 N   0  0  0  0  0  0  0  0  0  0  0  0
   24.3014  -18.9757  -20.3121 C   0  0  0  0  0  0  0  0  0  0  0  0
   24.6009  -19.9576  -21.2382 O   0  0  0  0  0  0  0  0  0  0  0  0
   24.3975  -17.7447  -20.5674 O   0  0  0  0  0  0  0  0  0  0  0  0
  2  1  1  0
  3  2  2  0
  4  3  1  0
  5 11  1  0
  5  4  2  0
  6  5  1  0
  7  6  1  0
  7  8  1  1
  9 10  2  0
  9  7  1  0
 11 12  2  0
 12  2  1  0
 14 13  1  0
 15 14  1  0
 15 16  1  6
 17 18  1  1
 17 15  1  0
 18  9  1  0
 19 17  1  0
 20 19  2  0
 22 23  1  0
 22 24  1  0
 22 21  1  6
 24 25  1  1
 25 19  1  0
 26 24  1  0
 26 27  1  0
 28 26  2  0
M  END
$$$$
