YIT.pdb
     RDKit          3D

 28 28  0  0  1  0  0  0  0  0999 V2000
   17.0024  -24.2358  -15.6677 O   0  0  0  0  0  0  0  0  0  0  0  0
   18.1874  -23.5655  -15.4554 C   0  0  0  0  0  0  0  0  0  0  0  0
   18.3968  -22.8629  -14.2897 C   0  0  0  0  0  0  0  0  0  0  0  0
   19.5754  -22.1949  -14.0759 C   0  0  0  0  0  0  0  0  0  0  0  0
   20.5666  -22.2175  -15.0245 C   0  0  0  0  0  0  0  0  0  0  0  0
   21.8255  -21.4668  -14.7193 C   0  0  0  0  0  0  0  0  0  0  0  0
   21.7078  -20.7896  -13.3732 C   0  0  2  0  0  0  0  0  0  0  0  0
   20.6729  -19.8014  -13.3966 N   0  0  0  0  0  0  0  0  0  0  0  0
   23.0312  -20.2298  -13.0143 C   0  0  0  0  0  0  0  0  0  0  0  0
   23.2936  -19.0075  -13.1179 O   0  0  0  0  0  0  0  0  0  0  0  0
   20.3711  -22.9140  -16.1910 C   0  0  0  0  0  0  0  0  0  0  0  0
   19.1865  -23.5788  -16.3932 C   0  0  0  0  0  0  0  0  0  0  0  0
   24.7965  -20.9013   -8.2671 C   0  0  0  0  0  0  0  0  0  0  0  0
   24.5310  -20.5816   -9.6889 C   0  0  0  0  0  0  0  0  0  0  0  0
   25.5982  -20.8691  -10.6795 C   0  0  2  0  0  0  0  0  0  0  0  0
   27.0044  -20.5437  -10.1952 C   0  0  0  0  0  0  0  0  0  0  0  0
   25.3209  -20.5325  -12.0828 C   0  0  2  0  0  0  0  0  0  0  0  0
   24.0457  -21.0894  -12.5367 N   0  0  0  0  0  0  0  0  0  0  0  0
   26.3374  -21.0436  -13.0129 C   0  0  0  0  0  0  0  0  0  0  0  0
   26.9655  -22.1114  -12.8137 O   0  0  0  0  0  0  0  0  0  0  0  0
   25.4768  -22.0572  -16.2139 C   0  0  0  0  0  0  0  0  0  0  0  0
   26.8718  -22.3036  -15.6896 C   0  0  1  0  0  0  0  0  0  0  0  0
   27.6426  -22.8588  -16.7078 O   0  0  0  0  0  0  0  0  0  0  0  0
   27.4930  -20.9856  -15.2068 C   0  0  2  0  0  0  0  0  0  0  0  0
   26.6875  -20.3614  -14.2159 N   0  0  0  0  0  0  0  0  0  0  0  0
   27.7103  -20.1026  -16.3822 C   0  0  0  0  0  0  0  0  0  0  0  0
   28.6397  -20.4985  -17.3261 O   0  0  0  0  0  0  0  0  0  0  0  0
   27.0495  -19.0334  -16.4820 O   0  0  0  0  0  0  0  0  0  0  0  0
  2  1  1  0
  3  2  2  0
  4  3  1  0
  5 11  1  0
  5  4  2  0
  6  5  1  0
  7  6  1  0
  7  8  1  6
  9 10  2  0
  9  7  1  0
 11 12  2  0
 12  2  1  0
 14 13  1  0
 15 14  1  0
 15 16  1  1
 17 18  1  6
 17 15  1  0
 18  9  1  0
 19 17  1  0
 20 19  2  0
 22 23  1  0
 22 24  1  0
 22 21  1  6
 24 25  1  1
 25 19  1  0
 26 24  1  0
 26 27  1  0
 28 26  2  0
M  END
$$$$
