YIT.pdb
     RDKit          3D

 28 28  0  0  1  0  0  0  0  0999 V2000
   35.3376  -39.4594   -8.5376 O   0  0  0  0  0  0  0  0  0  0  0  0
   34.5168  -38.6410   -7.7926 C   0  0  0  0  0  0  0  0  0  0  0  0
   33.1727  -38.5485   -8.0777 C   0  0  0  0  0  0  0  0  0  0  0  0
   32.3535  -37.7346   -7.3376 C   0  0  0  0  0  0  0  0  0  0  0  0
   32.8639  -36.9979   -6.2986 C   0  0  0  0  0  0  0  0  0  0  0  0
   31.9083  -36.1342   -5.5356 C   0  0  0  0  0  0  0  0  0  0  0  0
   31.4016  -35.0194   -6.4215 C   0  0  2  0  0  0  0  0  0  0  0  0
   32.4701  -34.1372   -6.7797 N   0  0  0  0  0  0  0  0  0  0  0  0
   30.2958  -34.3294   -5.7183 C   0  0  0  0  0  0  0  0  0  0  0  0
   30.4993  -33.4596   -4.8377 O   0  0  0  0  0  0  0  0  0  0  0  0
   34.2019  -37.0807   -6.0036 C   0  0  0  0  0  0  0  0  0  0  0  0
   35.0117  -37.8993   -6.7520 C   0  0  0  0  0  0  0  0  0  0  0  0
   26.4634  -32.2935   -8.6004 C   0  0  0  0  0  0  0  0  0  0  0  0
   27.4165  -32.6951   -7.5400 C   0  0  0  0  0  0  0  0  0  0  0  0
   26.8833  -33.4261   -6.3634 C   0  0  2  0  0  0  0  0  0  0  0  0
   25.6222  -32.8158   -5.7675 C   0  0  0  0  0  0  0  0  0  0  0  0
   27.8591  -33.9342   -5.3891 C   0  0  2  0  0  0  0  0  0  0  0  0
   28.9577  -34.6506   -6.0388 N   0  0  0  0  0  0  0  0  0  0  0  0
   27.2772  -34.8782   -4.4248 C   0  0  0  0  0  0  0  0  0  0  0  0
   26.9188  -36.0384   -4.7409 O   0  0  0  0  0  0  0  0  0  0  0  0
   26.5760  -36.3405    0.2120 C   0  0  0  0  0  0  0  0  0  0  0  0
   27.2346  -35.3966   -0.7662 C   0  0  1  0  0  0  0  0  0  0  0  0
   28.5821  -35.7305   -0.8744 O   0  0  0  0  0  0  0  0  0  0  0  0
   26.5480  -35.4944   -2.1355 C   0  0  2  0  0  0  0  0  0  0  0  0
   27.0752  -34.5448   -3.0525 N   0  0  0  0  0  0  0  0  0  0  0  0
   25.0832  -35.3294   -1.9469 C   0  0  0  0  0  0  0  0  0  0  0  0
   24.5169  -34.1197   -2.3042 O   0  0  0  0  0  0  0  0  0  0  0  0
   24.4100  -36.2845   -1.4731 O   0  0  0  0  0  0  0  0  0  0  0  0
  2  1  1  0
  3  2  2  0
  4  3  1  0
  5 11  1  0
  5  4  2  0
  6  5  1  0
  7  6  1  0
  7  8  1  1
  9 10  2  0
  9  7  1  0
 11 12  2  0
 12  2  1  0
 14 13  1  0
 15 14  1  0
 15 16  1  1
 17 18  1  6
 17 15  1  0
 18  9  1  0
 19 17  1  0
 20 19  2  0
 22 23  1  0
 22 24  1  0
 22 21  1  1
 24 25  1  6
 25 19  1  0
 26 24  1  0
 26 27  1  0
 28 26  2  0
M  END
$$$$
