YIT.pdb
     RDKit          3D

 28 28  0  0  1  0  0  0  0  0999 V2000
   20.3864  -16.0662  -19.1855 O   0  0  0  0  0  0  0  0  0  0  0  0
   21.0669  -16.8306  -18.2629 C   0  0  0  0  0  0  0  0  0  0  0  0
   20.5225  -18.0010  -17.7834 C   0  0  0  0  0  0  0  0  0  0  0  0
   21.1978  -18.7637  -16.8650 C   0  0  0  0  0  0  0  0  0  0  0  0
   22.4305  -18.3695  -16.4091 C   0  0  0  0  0  0  0  0  0  0  0  0
   23.1073  -19.2544  -15.4090 C   0  0  0  0  0  0  0  0  0  0  0  0
   24.3061  -19.9234  -16.0414 C   0  0  2  0  0  0  0  0  0  0  0  0
   23.8985  -20.7640  -17.1256 N   0  0  0  0  0  0  0  0  0  0  0  0
   25.0412  -20.6589  -14.9868 C   0  0  0  0  0  0  0  0  0  0  0  0
   24.6702  -21.7818  -14.5684 O   0  0  0  0  0  0  0  0  0  0  0  0
   22.9848  -17.2049  -16.8788 C   0  0  0  0  0  0  0  0  0  0  0  0
   22.2987  -16.4500  -17.7982 C   0  0  0  0  0  0  0  0  0  0  0  0
   30.4954  -20.8295  -12.0216 C   0  0  0  0  0  0  0  0  0  0  0  0
   29.0360  -21.0742  -12.0881 C   0  0  0  0  0  0  0  0  0  0  0  0
   28.2815  -20.4878  -13.2238 C   0  0  2  0  0  0  0  0  0  0  0  0
   28.7324  -19.0878  -13.6172 C   0  0  0  0  0  0  0  0  0  0  0  0
   26.8299  -20.7148  -13.2549 C   0  0  2  0  0  0  0  0  0  0  0  0
   26.2040  -20.0896  -14.4210 N   0  0  0  0  0  0  0  0  0  0  0  0
   26.1329  -20.1683  -12.0823 C   0  0  0  0  0  0  0  0  0  0  0  0
   25.8392  -18.9535  -11.9711 O   0  0  0  0  0  0  0  0  0  0  0  0
   22.9900  -19.9719  -11.0539 C   0  0  0  0  0  0  0  0  0  0  0  0
   23.6013  -20.6318   -9.8404 C   0  0  1  0  0  0  0  0  0  0  0  0
   23.3084  -21.9927   -9.8740 O   0  0  0  0  0  0  0  0  0  0  0  0
   25.1204  -20.4120   -9.8311 C   0  0  2  0  0  0  0  0  0  0  0  0
   25.7369  -20.9809  -10.9786 N   0  0  0  0  0  0  0  0  0  0  0  0
   25.6748  -20.9693   -8.5699 C   0  0  0  0  0  0  0  0  0  0  0  0
   26.6307  -21.9635   -8.6668 O   0  0  0  0  0  0  0  0  0  0  0  0
   25.2623  -20.5247   -7.4644 O   0  0  0  0  0  0  0  0  0  0  0  0
  2  1  1  0
  3  2  2  0
  4  3  1  0
  5 11  1  0
  5  4  2  0
  6  5  1  0
  7  6  1  0
  7  8  1  6
  9 10  2  0
  9  7  1  0
 11 12  2  0
 12  2  1  0
 14 13  1  0
 15 14  1  0
 15 16  1  1
 17 18  1  6
 17 15  1  0
 18  9  1  0
 19 17  1  0
 20 19  2  0
 22 23  1  0
 22 24  1  0
 22 21  1  6
 24 25  1  6
 25 19  1  0
 26 24  1  0
 26 27  1  0
 28 26  2  0
M  END
$$$$
