YIT.pdb
     RDKit          3D

 28 28  0  0  1  0  0  0  0  0999 V2000
   19.8973  -15.3490  -19.7175 O   0  0  0  0  0  0  0  0  0  0  0  0
   20.4991  -16.3020  -18.9248 C   0  0  0  0  0  0  0  0  0  0  0  0
   21.4766  -15.9479  -18.0218 C   0  0  0  0  0  0  0  0  0  0  0  0
   22.0772  -16.8946  -17.2318 C   0  0  0  0  0  0  0  0  0  0  0  0
   21.7110  -18.2133  -17.3304 C   0  0  0  0  0  0  0  0  0  0  0  0
   22.4094  -19.1882  -16.4343 C   0  0  0  0  0  0  0  0  0  0  0  0
   23.7197  -19.6126  -17.0567 C   0  0  2  0  0  0  0  0  0  0  0  0
   23.4895  -20.4966  -18.1585 N   0  0  0  0  0  0  0  0  0  0  0  0
   24.5651  -20.2157  -16.0008 C   0  0  0  0  0  0  0  0  0  0  0  0
   24.3417  -21.3577  -15.5324 O   0  0  0  0  0  0  0  0  0  0  0  0
   20.7379  -18.5800  -18.2264 C   0  0  0  0  0  0  0  0  0  0  0  0
   20.1441  -17.6227  -19.0119 C   0  0  0  0  0  0  0  0  0  0  0  0
   29.0039  -21.2693  -13.0627 C   0  0  0  0  0  0  0  0  0  0  0  0
   28.6147  -19.8412  -13.1210 C   0  0  0  0  0  0  0  0  0  0  0  0
   27.7506  -19.3991  -14.2438 C   0  0  2  0  0  0  0  0  0  0  0  0
   27.7991  -17.9023  -14.5179 C   0  0  0  0  0  0  0  0  0  0  0  0
   26.4219  -20.0174  -14.3530 C   0  0  2  0  0  0  0  0  0  0  0  0
   25.6668  -19.4923  -15.4917 N   0  0  0  0  0  0  0  0  0  0  0  0
   25.5784  -19.7902  -13.1713 C   0  0  0  0  0  0  0  0  0  0  0  0
   25.0260  -18.6893  -12.9318 O   0  0  0  0  0  0  0  0  0  0  0  0
   22.4777  -20.0175  -12.1018 C   0  0  0  0  0  0  0  0  0  0  0  0
   23.1635  -20.8709  -11.0611 C   0  0  1  0  0  0  0  0  0  0  0  0
   23.0034  -22.2112  -11.4030 O   0  0  0  0  0  0  0  0  0  0  0  0
   24.6542  -20.5127  -10.9859 C   0  0  2  0  0  0  0  0  0  0  0  0
   25.3238  -20.8078  -12.2045 N   0  0  0  0  0  0  0  0  0  0  0  0
   25.2589  -21.2295   -9.8329 C   0  0  0  0  0  0  0  0  0  0  0  0
   24.7580  -20.9650   -8.5717 O   0  0  0  0  0  0  0  0  0  0  0  0
   26.1976  -22.0462  -10.0369 O   0  0  0  0  0  0  0  0  0  0  0  0
  2  1  1  0
  3  2  2  0
  4  3  1  0
  5 11  1  0
  5  4  2  0
  6  5  1  0
  7  6  1  0
  7  8  1  6
  9 10  2  0
  9  7  1  0
 11 12  2  0
 12  2  1  0
 14 13  1  0
 15 14  1  0
 15 16  1  1
 17 18  1  6
 17 15  1  0
 18  9  1  0
 19 17  1  0
 20 19  2  0
 22 23  1  0
 22 24  1  0
 22 21  1  6
 24 25  1  6
 25 19  1  0
 26 24  1  0
 26 27  1  0
 28 26  2  0
M  END
$$$$
