YIT.pdb
     RDKit          3D

 28 28  0  0  1  0  0  0  0  0999 V2000
   28.9531  -13.9937  -17.4817 O   0  0  0  0  0  0  0  0  0  0  0  0
   28.3184  -15.1270  -17.0220 C   0  0  0  0  0  0  0  0  0  0  0  0
   27.8460  -15.1913  -15.7301 C   0  0  0  0  0  0  0  0  0  0  0  0
   27.2138  -16.3183  -15.2701 C   0  0  0  0  0  0  0  0  0  0  0  0
   27.0426  -17.4019  -16.0942 C   0  0  0  0  0  0  0  0  0  0  0  0
   26.3418  -18.5949  -15.5222 C   0  0  0  0  0  0  0  0  0  0  0  0
   27.3030  -19.4021  -14.6802 C   0  0  2  0  0  0  0  0  0  0  0  0
   28.2710  -20.0541  -15.5085 N   0  0  0  0  0  0  0  0  0  0  0  0
   26.5191  -20.3496  -13.8547 C   0  0  0  0  0  0  0  0  0  0  0  0
   26.2519  -21.5132  -14.2394 O   0  0  0  0  0  0  0  0  0  0  0  0
   27.5086  -17.3512  -17.3844 C   0  0  0  0  0  0  0  0  0  0  0  0
   28.1398  -16.2171  -17.8330 C   0  0  0  0  0  0  0  0  0  0  0  0
   27.0460  -20.4746   -8.4247 C   0  0  0  0  0  0  0  0  0  0  0  0
   26.7852  -20.8285   -9.8393 C   0  0  0  0  0  0  0  0  0  0  0  0
   25.4035  -20.6649  -10.3558 C   0  0  2  0  0  0  0  0  0  0  0  0
   24.3276  -21.2714   -9.4656 C   0  0  0  0  0  0  0  0  0  0  0  0
   25.2006  -20.8428  -11.8004 C   0  0  2  0  0  0  0  0  0  0  0  0
   26.0479  -19.9442  -12.5859 N   0  0  0  0  0  0  0  0  0  0  0  0
   23.8211  -20.5729  -12.2292 C   0  0  0  0  0  0  0  0  0  0  0  0
   23.2740  -19.4519  -12.0932 O   0  0  0  0  0  0  0  0  0  0  0  0
   21.6434  -23.3389  -14.7187 C   0  0  0  0  0  0  0  0  0  0  0  0
   21.5293  -21.8336  -14.7708 C   0  0  1  0  0  0  0  0  0  0  0  0
   20.2750  -21.4955  -15.2720 O   0  0  0  0  0  0  0  0  0  0  0  0
   21.7215  -21.2423  -13.3674 C   0  0  2  0  0  0  0  0  0  0  0  0
   22.9980  -21.5687  -12.8340 N   0  0  0  0  0  0  0  0  0  0  0  0
   20.6171  -21.7186  -12.4944 C   0  0  0  0  0  0  0  0  0  0  0  0
   19.3356  -21.2826  -12.7760 O   0  0  0  0  0  0  0  0  0  0  0  0
   20.8785  -22.4954  -11.5363 O   0  0  0  0  0  0  0  0  0  0  0  0
  2  1  1  0
  3  2  2  0
  4  3  1  0
  5 11  1  0
  5  4  2  0
  6  5  1  0
  7  6  1  0
  7  8  1  6
  9 10  2  0
  9  7  1  0
 11 12  2  0
 12  2  1  0
 14 13  1  0
 15 14  1  0
 15 16  1  1
 17 18  1  6
 17 15  1  0
 18  9  1  0
 19 17  1  0
 20 19  2  0
 22 23  1  0
 22 24  1  0
 22 21  1  1
 24 25  1  1
 25 19  1  0
 26 24  1  0
 26 27  1  0
 28 26  2  0
M  END
$$$$
