YIT.pdb
     RDKit          3D

 28 28  0  0  1  0  0  0  0  0999 V2000
   28.9801   -8.2319  -18.4052 O   0  0  0  0  0  0  0  0  0  0  0  0
   28.1376   -8.8425  -17.5019 C   0  0  0  0  0  0  0  0  0  0  0  0
   28.5505   -9.9499  -16.7953 C   0  0  0  0  0  0  0  0  0  0  0  0
   27.7137  -10.5596  -15.8956 C   0  0  0  0  0  0  0  0  0  0  0  0
   26.4481  -10.0725  -15.6862 C   0  0  0  0  0  0  0  0  0  0  0  0
   25.5936  -10.7894  -14.6876 C   0  0  0  0  0  0  0  0  0  0  0  0
   24.7532  -11.8344  -15.3849 C   0  0  2  0  0  0  0  0  0  0  0  0
   25.5838  -12.7386  -16.1200 N   0  0  0  0  0  0  0  0  0  0  0  0
   23.7592  -11.1422  -16.2373 C   0  0  0  0  0  0  0  0  0  0  0  0
   23.7964  -11.1950  -17.4900 O   0  0  0  0  0  0  0  0  0  0  0  0
   26.0238   -8.9691  -16.3839 C   0  0  0  0  0  0  0  0  0  0  0  0
   26.8710   -8.3677  -17.2819 C   0  0  0  0  0  0  0  0  0  0  0  0
   19.0465  -12.6661  -16.8591 C   0  0  0  0  0  0  0  0  0  0  0  0
   20.2854  -11.8732  -17.0340 C   0  0  0  0  0  0  0  0  0  0  0  0
   20.3977  -10.5849  -16.3055 C   0  0  2  0  0  0  0  0  0  0  0  0
   19.1276   -9.7455  -16.3211 C   0  0  0  0  0  0  0  0  0  0  0  0
   21.6517   -9.8340  -16.4575 C   0  0  2  0  0  0  0  0  0  0  0  0
   22.7256  -10.3913  -15.6339 N   0  0  0  0  0  0  0  0  0  0  0  0
   21.5333   -8.4230  -16.0640 C   0  0  0  0  0  0  0  0  0  0  0  0
   21.6013   -8.0422  -14.8704 O   0  0  0  0  0  0  0  0  0  0  0  0
   21.3262   -3.6259  -17.2786 C   0  0  0  0  0  0  0  0  0  0  0  0
   21.4748   -5.0518  -17.7546 C   0  0  1  0  0  0  0  0  0  0  0  0
   22.7667   -5.2298  -18.2427 O   0  0  0  0  0  0  0  0  0  0  0  0
   21.2015   -6.0238  -16.5984 C   0  0  2  0  0  0  0  0  0  0  0  0
   21.3312   -7.3772  -17.0130 N   0  0  0  0  0  0  0  0  0  0  0  0
   19.8513   -5.7397  -16.0462 C   0  0  0  0  0  0  0  0  0  0  0  0
   19.7718   -5.0093  -14.8749 O   0  0  0  0  0  0  0  0  0  0  0  0
   18.8329   -6.1674  -16.6542 O   0  0  0  0  0  0  0  0  0  0  0  0
  2  1  1  0
  3  2  2  0
  4  3  1  0
  5 11  1  0
  5  4  2  0
  6  5  1  0
  7  6  1  0
  7  8  1  6
  9 10  2  0
  9  7  1  0
 11 12  2  0
 12  2  1  0
 14 13  1  0
 15 14  1  0
 15 16  1  6
 17 18  1  1
 17 15  1  0
 18  9  1  0
 19 17  1  0
 20 19  2  0
 22 23  1  0
 22 24  1  0
 22 21  1  1
 24 25  1  6
 25 19  1  0
 26 24  1  0
 26 27  1  0
 28 26  2  0
M  END
$$$$
