YIT.pdb
     RDKit          3D

 28 28  0  0  1  0  0  0  0  0999 V2000
   29.2574  -14.5313  -17.6350 O   0  0  0  0  0  0  0  0  0  0  0  0
   28.5016  -15.5513  -17.0993 C   0  0  0  0  0  0  0  0  0  0  0  0
   28.0682  -15.4919  -15.7935 C   0  0  0  0  0  0  0  0  0  0  0  0
   27.3157  -16.5058  -15.2578 C   0  0  0  0  0  0  0  0  0  0  0  0
   26.9828  -17.5981  -16.0187 C   0  0  0  0  0  0  0  0  0  0  0  0
   26.1577  -18.6632  -15.3659 C   0  0  0  0  0  0  0  0  0  0  0  0
   27.0518  -19.6078  -14.5959 C   0  0  2  0  0  0  0  0  0  0  0  0
   27.9016  -20.3350  -15.4886 N   0  0  0  0  0  0  0  0  0  0  0  0
   26.1973  -20.4892  -13.7674 C   0  0  0  0  0  0  0  0  0  0  0  0
   25.7499  -21.5818  -14.1910 O   0  0  0  0  0  0  0  0  0  0  0  0
   27.4082  -17.6700  -17.3218 C   0  0  0  0  0  0  0  0  0  0  0  0
   28.1611  -16.6484  -17.8465 C   0  0  0  0  0  0  0  0  0  0  0  0
   26.7998  -20.6140   -8.2933 C   0  0  0  0  0  0  0  0  0  0  0  0
   26.5214  -20.9586   -9.7068 C   0  0  0  0  0  0  0  0  0  0  0  0
   25.1453  -20.7428  -10.2193 C   0  0  2  0  0  0  0  0  0  0  0  0
   24.0501  -21.3115   -9.3277 C   0  0  0  0  0  0  0  0  0  0  0  0
   24.9322  -20.9093  -11.6637 C   0  0  2  0  0  0  0  0  0  0  0  0
   25.8645  -20.1003  -12.4504 N   0  0  0  0  0  0  0  0  0  0  0  0
   23.5866  -20.5117  -12.1004 C   0  0  0  0  0  0  0  0  0  0  0  0
   23.1370  -19.3505  -11.9454 O   0  0  0  0  0  0  0  0  0  0  0  0
   21.4232  -22.9033  -14.8214 C   0  0  0  0  0  0  0  0  0  0  0  0
   21.2138  -21.4134  -14.6862 C   0  0  1  0  0  0  0  0  0  0  0  0
   19.9206  -21.1026  -15.0986 O   0  0  0  0  0  0  0  0  0  0  0  0
   21.4284  -20.9819  -13.2289 C   0  0  2  0  0  0  0  0  0  0  0  0
   22.6876  -21.4194  -12.7353 N   0  0  0  0  0  0  0  0  0  0  0  0
   20.3015  -21.4973  -12.4084 C   0  0  0  0  0  0  0  0  0  0  0  0
   19.0538  -20.9313  -12.5944 O   0  0  0  0  0  0  0  0  0  0  0  0
   20.5142  -22.4226  -11.5788 O   0  0  0  0  0  0  0  0  0  0  0  0
  2  1  1  0
  3  2  2  0
  4  3  1  0
  5 11  1  0
  5  4  2  0
  6  5  1  0
  7  6  1  0
  7  8  1  6
  9 10  2  0
  9  7  1  0
 11 12  2  0
 12  2  1  0
 14 13  1  0
 15 14  1  0
 15 16  1  1
 17 18  1  6
 17 15  1  0
 18  9  1  0
 19 17  1  0
 20 19  2  0
 22 23  1  0
 22 24  1  0
 22 21  1  1
 24 25  1  1
 25 19  1  0
 26 24  1  0
 26 27  1  0
 28 26  2  0
M  END
$$$$
