GAV.pdb
     RDKit          3D

 17 16  0  0  1  0  0  0  0  0999 V2000
    8.6624  -15.4997   19.0571 N   0  0  0  0  0  0  0  0  0  0  0  0
    9.4573  -15.9552   20.1749 C   0  0  0  0  0  0  0  0  0  0  0  0
    8.7086  -15.7920   21.4599 C   0  0  0  0  0  0  0  0  0  0  0  0
    7.8078  -14.9374   21.5653 O   0  0  0  0  0  0  0  0  0  0  0  0
    8.5471  -17.8137   24.5855 C   0  0  0  0  0  0  0  0  0  0  0  0
    8.2825  -16.5498   23.8295 C   0  0  2  0  0  0  0  0  0  0  0  0
    9.0043  -16.5983   22.5755 N   0  0  0  0  0  0  0  0  0  0  0  0
    8.7633  -15.4023   24.6713 C   0  0  0  0  0  0  0  0  0  0  0  0
    9.9677  -15.0361   24.6739 O   0  0  0  0  0  0  0  0  0  0  0  0
    6.8227  -12.0669   24.9372 C   0  0  0  0  0  0  0  0  0  0  0  0
    7.2512  -12.4778   26.3200 C   0  0  1  0  0  0  0  0  0  0  0  0
    6.0639  -12.9486   27.1150 C   0  0  0  0  0  0  0  0  0  0  0  0
    8.3045  -13.5550   26.3036 C   0  0  2  0  0  0  0  0  0  0  0  0
    7.8763  -14.6756   25.5061 N   0  0  0  0  0  0  0  0  0  0  0  0
    8.7170  -13.9607   27.6711 C   0  0  0  0  0  0  0  0  0  0  0  0
    9.3825  -13.0861   28.5282 O   0  0  0  0  0  0  0  0  0  0  0  0
    8.4877  -15.1107   28.1244 O   0  0  0  0  0  0  0  0  0  0  0  0
  1  2  1  0
  2  3  1  0
  3  4  2  0
  6  5  1  1
  7  6  1  0
  7  3  1  0
  8  6  1  0
  8  9  2  0
 11 10  1  6
 11 13  1  0
 12 11  1  0
 13 14  1  1
 13 15  1  0
 14  8  1  0
 15 16  1  0
 17 15  2  0
M  END
$$$$
