GAV.pdb
     RDKit          3D

 17 16  0  0  1  0  0  0  0  0999 V2000
    7.9219  -12.4497   18.7201 N   0  0  0  0  0  0  0  0  0  0  0  0
    8.6497  -13.4855   19.4173 C   0  0  0  0  0  0  0  0  0  0  0  0
    8.0115  -13.7862   20.7367 C   0  0  0  0  0  0  0  0  0  0  0  0
    7.3249  -12.9255   21.3203 O   0  0  0  0  0  0  0  0  0  0  0  0
    7.6528  -16.9226   22.7362 C   0  0  0  0  0  0  0  0  0  0  0  0
    7.5281  -15.4396   22.5815 C   0  0  2  0  0  0  0  0  0  0  0  0
    8.1721  -15.0450   21.3464 N   0  0  0  0  0  0  0  0  0  0  0  0
    8.2052  -14.7970   23.7585 C   0  0  0  0  0  0  0  0  0  0  0  0
    9.4508  -14.6194   23.7959 O   0  0  0  0  0  0  0  0  0  0  0  0
    6.9915  -11.5058   25.4261 C   0  0  0  0  0  0  0  0  0  0  0  0
    7.2163  -12.5510   26.4851 C   0  0  1  0  0  0  0  0  0  0  0  0
    5.8993  -13.0934   26.9695 C   0  0  0  0  0  0  0  0  0  0  0  0
    8.0813  -13.6867   26.0035 C   0  0  2  0  0  0  0  0  0  0  0  0
    7.4665  -14.3588   24.8874 N   0  0  0  0  0  0  0  0  0  0  0  0
    8.4417  -14.6239   27.0974 C   0  0  0  0  0  0  0  0  0  0  0  0
    9.2746  -14.2424   28.1477 O   0  0  0  0  0  0  0  0  0  0  0  0
    8.0152  -15.8060   27.1318 O   0  0  0  0  0  0  0  0  0  0  0  0
  1  2  1  0
  2  3  1  0
  3  4  2  0
  6  5  1  1
  7  6  1  0
  7  3  1  0
  8  6  1  0
  8  9  2  0
 11 10  1  6
 11 13  1  0
 12 11  1  0
 13 14  1  6
 13 15  1  0
 14  8  1  0
 15 16  1  0
 17 15  2  0
M  END
$$$$
