GAV.pdb
     RDKit          3D

 17 16  0  0  1  0  0  0  0  0999 V2000
    6.9454  -16.7876   19.4750 N   0  0  0  0  0  0  0  0  0  0  0  0
    7.5124  -17.4963   20.5997 C   0  0  0  0  0  0  0  0  0  0  0  0
    6.9847  -16.9530   21.8900 C   0  0  0  0  0  0  0  0  0  0  0  0
    6.4075  -15.8492   21.9249 O   0  0  0  0  0  0  0  0  0  0  0  0
    6.7732  -18.3108   25.3696 C   0  0  0  0  0  0  0  0  0  0  0  0
    6.7295  -17.1799   24.3908 C   0  0  2  0  0  0  0  0  0  0  0  0
    7.1283  -17.6750   23.0901 N   0  0  0  0  0  0  0  0  0  0  0  0
    7.6838  -16.1225   24.8684 C   0  0  0  0  0  0  0  0  0  0  0  0
    8.9035  -16.1358   24.5576 O   0  0  0  0  0  0  0  0  0  0  0  0
    6.8443  -12.2883   24.8578 C   0  0  0  0  0  0  0  0  0  0  0  0
    7.4167  -12.6867   26.1913 C   0  0  1  0  0  0  0  0  0  0  0  0
    6.3286  -12.7458   27.2286 C   0  0  0  0  0  0  0  0  0  0  0  0
    8.1358  -14.0097   26.1409 C   0  0  2  0  0  0  0  0  0  0  0  0
    7.2504  -15.0553   25.6962 N   0  0  0  0  0  0  0  0  0  0  0  0
    8.7979  -14.3407   27.4280 C   0  0  0  0  0  0  0  0  0  0  0  0
    8.4550  -15.4757   28.1607 O   0  0  0  0  0  0  0  0  0  0  0  0
    9.6992  -13.6162   27.9213 O   0  0  0  0  0  0  0  0  0  0  0  0
  1  2  1  0
  2  3  1  0
  3  4  2  0
  6  5  1  1
  7  6  1  0
  7  3  1  0
  8  6  1  0
  8  9  2  0
 11 10  1  6
 11 13  1  0
 12 11  1  0
 13 14  1  1
 13 15  1  0
 14  8  1  0
 15 16  1  0
 17 15  2  0
M  END
$$$$
