GAV.pdb
     RDKit          3D

 17 16  0  0  1  0  0  0  0  0999 V2000
    5.5051  -18.5611   20.0738 N   0  0  0  0  0  0  0  0  0  0  0  0
    6.3555  -17.4992   20.5615 C   0  0  0  0  0  0  0  0  0  0  0  0
    6.1383  -17.2753   22.0248 C   0  0  0  0  0  0  0  0  0  0  0  0
    4.9947  -17.0614   22.4711 O   0  0  0  0  0  0  0  0  0  0  0  0
    7.6896  -18.2483   25.0740 C   0  0  0  0  0  0  0  0  0  0  0  0
    7.0939  -17.0804   24.3528 C   0  0  2  0  0  0  0  0  0  0  0  0
    7.2185  -17.3012   22.9274 N   0  0  0  0  0  0  0  0  0  0  0  0
    7.8526  -15.8511   24.7649 C   0  0  0  0  0  0  0  0  0  0  0  0
    8.9351  -15.5200   24.2144 O   0  0  0  0  0  0  0  0  0  0  0  0
    6.4060  -12.3864   24.8801 C   0  0  0  0  0  0  0  0  0  0  0  0
    7.0698  -12.6325   26.2080 C   0  0  1  0  0  0  0  0  0  0  0  0
    6.0344  -12.8955   27.2672 C   0  0  0  0  0  0  0  0  0  0  0  0
    8.0463  -13.7790   26.1636 C   0  0  2  0  0  0  0  0  0  0  0  0
    7.3801  -15.0031   25.7991 N   0  0  0  0  0  0  0  0  0  0  0  0
    8.8183  -13.9110   27.4251 C   0  0  0  0  0  0  0  0  0  0  0  0
    8.7638  -15.0662   28.2029 O   0  0  0  0  0  0  0  0  0  0  0  0
    9.5583  -12.9900   27.8549 O   0  0  0  0  0  0  0  0  0  0  0  0
  1  2  1  0
  2  3  1  0
  3  4  2  0
  6  5  1  1
  7  6  1  0
  7  3  1  0
  8  6  1  0
  8  9  2  0
 11 10  1  6
 11 13  1  0
 12 11  1  0
 13 14  1  1
 13 15  1  0
 14  8  1  0
 15 16  1  0
 17 15  2  0
M  END
$$$$
