GAV.pdb
     RDKit          3D

 17 16  0  0  1  0  0  0  0  0999 V2000
   12.7084  -16.7718   23.8264 N   0  0  0  0  0  0  0  0  0  0  0  0
   11.8929  -15.5826   23.9246 C   0  0  0  0  0  0  0  0  0  0  0  0
   10.4445  -15.9402   24.0378 C   0  0  0  0  0  0  0  0  0  0  0  0
   10.0603  -17.1062   23.8238 O   0  0  0  0  0  0  0  0  0  0  0  0
    7.4181  -14.0954   25.2147 C   0  0  0  0  0  0  0  0  0  0  0  0
    8.0640  -15.2251   24.4762 C   0  0  2  0  0  0  0  0  0  0  0  0
    9.4863  -14.9699   24.3876 N   0  0  0  0  0  0  0  0  0  0  0  0
    7.4523  -15.2865   23.1055 C   0  0  0  0  0  0  0  0  0  0  0  0
    6.2466  -15.6011   22.9270 O   0  0  0  0  0  0  0  0  0  0  0  0
    7.1023  -12.5518   20.8032 C   0  0  0  0  0  0  0  0  0  0  0  0
    7.7582  -13.6321   19.9863 C   0  0  1  0  0  0  0  0  0  0  0  0
    9.2105  -13.3083   19.7645 C   0  0  0  0  0  0  0  0  0  0  0  0
    7.6378  -14.9926   20.6222 C   0  0  2  0  0  0  0  0  0  0  0  0
    8.2107  -14.9909   21.9439 N   0  0  0  0  0  0  0  0  0  0  0  0
    8.1999  -16.0671   19.7652 C   0  0  0  0  0  0  0  0  0  0  0  0
    9.2539  -16.8726   20.1926 O   0  0  0  0  0  0  0  0  0  0  0  0
    7.7550  -16.3044   18.6136 O   0  0  0  0  0  0  0  0  0  0  0  0
  1  2  1  0
  2  3  1  0
  3  4  2  0
  6  5  1  1
  7  6  1  0
  7  3  1  0
  8  6  1  0
  8  9  2  0
 11 10  1  1
 11 13  1  0
 12 11  1  0
 13 14  1  1
 13 15  1  0
 14  8  1  0
 15 16  1  0
 17 15  2  0
M  END
$$$$
