GAV.pdb
     RDKit          3D

 17 16  0  0  1  0  0  0  0  0999 V2000
    8.5791  -14.6421   13.2643 N   0  0  0  0  0  0  0  0  0  0  0  0
    9.3777  -15.5056   14.1042 C   0  0  0  0  0  0  0  0  0  0  0  0
    8.7551  -15.6539   15.4567 C   0  0  0  0  0  0  0  0  0  0  0  0
    8.0306  -14.7541   15.9238 O   0  0  0  0  0  0  0  0  0  0  0  0
    8.6481  -18.4489   17.9427 C   0  0  0  0  0  0  0  0  0  0  0  0
    8.4228  -17.0224   17.5513 C   0  0  2  0  0  0  0  0  0  0  0  0
    8.9737  -16.8103   16.2293 N   0  0  0  0  0  0  0  0  0  0  0  0
    9.1205  -16.1543   18.5594 C   0  0  0  0  0  0  0  0  0  0  0  0
   10.3568  -15.9252   18.4999 O   0  0  0  0  0  0  0  0  0  0  0  0
    8.1046  -12.6616   19.5958 C   0  0  0  0  0  0  0  0  0  0  0  0
    8.2905  -13.4614   20.8569 C   0  0  1  0  0  0  0  0  0  0  0  0
    6.9554  -13.7857   21.4697 C   0  0  0  0  0  0  0  0  0  0  0  0
    9.0607  -14.7356   20.6261 C   0  0  2  0  0  0  0  0  0  0  0  0
    8.4130  -15.5504   19.6302 N   0  0  0  0  0  0  0  0  0  0  0  0
    9.3114  -15.4788   21.8869 C   0  0  0  0  0  0  0  0  0  0  0  0
   10.2154  -15.0201   22.8434 O   0  0  0  0  0  0  0  0  0  0  0  0
    8.7227  -16.5568   22.1552 O   0  0  0  0  0  0  0  0  0  0  0  0
  1  2  1  0
  2  3  1  0
  3  4  2  0
  6  5  1  1
  7  6  1  0
  7  3  1  0
  8  6  1  0
  8  9  2  0
 11 10  1  6
 11 13  1  0
 12 11  1  0
 13 14  1  6
 13 15  1  0
 14  8  1  0
 15 16  1  0
 17 15  2  0
M  END
$$$$
