GAV.pdb
     RDKit          3D

 17 16  0  0  1  0  0  0  0  0999 V2000
    8.1257  -12.5823   18.5479 N   0  0  0  0  0  0  0  0  0  0  0  0
    8.5201  -13.8615   19.0927 C   0  0  0  0  0  0  0  0  0  0  0  0
    7.9040  -14.0775   20.4390 C   0  0  0  0  0  0  0  0  0  0  0  0
    7.3963  -13.1268   21.0644 O   0  0  0  0  0  0  0  0  0  0  0  0
    7.1651  -17.1631   22.4220 C   0  0  0  0  0  0  0  0  0  0  0  0
    7.1916  -15.6761   22.2577 C   0  0  2  0  0  0  0  0  0  0  0  0
    7.8843  -15.3564   21.0273 N   0  0  0  0  0  0  0  0  0  0  0  0
    7.9178  -15.0969   23.4382 C   0  0  0  0  0  0  0  0  0  0  0  0
    9.1736  -15.0172   23.4749 O   0  0  0  0  0  0  0  0  0  0  0  0
    5.6995  -13.1250   26.6332 C   0  0  0  0  0  0  0  0  0  0  0  0
    7.0320  -12.7118   26.0690 C   0  0  1  0  0  0  0  0  0  0  0  0
    7.7960  -11.8995   27.0789 C   0  0  0  0  0  0  0  0  0  0  0  0
    7.8669  -13.8884   25.6347 C   0  0  2  0  0  0  0  0  0  0  0  0
    7.2168  -14.6109   24.5714 N   0  0  0  0  0  0  0  0  0  0  0  0
    8.2348  -14.7690   26.7722 C   0  0  0  0  0  0  0  0  0  0  0  0
    9.2010  -14.3988   27.7060 O   0  0  0  0  0  0  0  0  0  0  0  0
    7.6950  -15.8903   26.9507 O   0  0  0  0  0  0  0  0  0  0  0  0
  1  2  1  0
  2  3  1  0
  3  4  2  0
  6  5  1  1
  7  6  1  0
  7  3  1  0
  8  6  1  0
  8  9  2  0
 11 10  1  1
 11 13  1  0
 12 11  1  0
 13 14  1  6
 13 15  1  0
 14  8  1  0
 15 16  1  0
 17 15  2  0
M  END
$$$$
