GAV.pdb
     RDKit          3D

 17 16  0  0  1  0  0  0  0  0999 V2000
    7.8960  -12.5565   18.7317 N   0  0  0  0  0  0  0  0  0  0  0  0
    8.5069  -13.6917   19.3850 C   0  0  0  0  0  0  0  0  0  0  0  0
    7.8770  -13.9380   20.7197 C   0  0  0  0  0  0  0  0  0  0  0  0
    7.2020  -13.0506   21.2761 O   0  0  0  0  0  0  0  0  0  0  0  0
    7.4909  -16.9971   22.8276 C   0  0  0  0  0  0  0  0  0  0  0  0
    7.3973  -15.5169   22.6295 C   0  0  2  0  0  0  0  0  0  0  0  0
    8.0327  -15.1745   21.3745 N   0  0  0  0  0  0  0  0  0  0  0  0
    8.1049  -14.8548   23.7774 C   0  0  0  0  0  0  0  0  0  0  0  0
    9.3526  -14.6882   23.7846 O   0  0  0  0  0  0  0  0  0  0  0  0
    7.0413  -11.5143   25.4175 C   0  0  0  0  0  0  0  0  0  0  0  0
    7.2352  -12.5509   26.4910 C   0  0  1  0  0  0  0  0  0  0  0  0
    5.9027  -13.0285   27.0007 C   0  0  0  0  0  0  0  0  0  0  0  0
    8.0446  -13.7302   26.0178 C   0  0  2  0  0  0  0  0  0  0  0  0
    7.3943  -14.3847   24.9114 N   0  0  0  0  0  0  0  0  0  0  0  0
    8.3663  -14.6718   27.1200 C   0  0  0  0  0  0  0  0  0  0  0  0
    9.1931  -14.3067   28.1809 O   0  0  0  0  0  0  0  0  0  0  0  0
    7.9106  -15.8430   27.1523 O   0  0  0  0  0  0  0  0  0  0  0  0
  1  2  1  0
  2  3  1  0
  3  4  2  0
  6  5  1  1
  7  6  1  0
  7  3  1  0
  8  6  1  0
  8  9  2  0
 11 10  1  6
 11 13  1  0
 12 11  1  0
 13 14  1  6
 13 15  1  0
 14  8  1  0
 15 16  1  0
 17 15  2  0
M  END
$$$$
