GAV.pdb
     RDKit          3D

 17 16  0  0  1  0  0  0  0  0999 V2000
    7.8076  -16.3221   18.7375 N   0  0  0  0  0  0  0  0  0  0  0  0
    8.6772  -15.9889   19.8427 C   0  0  0  0  0  0  0  0  0  0  0  0
    7.9164  -15.9745   21.1310 C   0  0  0  0  0  0  0  0  0  0  0  0
    6.8008  -15.4241   21.2029 O   0  0  0  0  0  0  0  0  0  0  0  0
    8.0570  -17.8340   24.2893 C   0  0  0  0  0  0  0  0  0  0  0  0
    7.8131  -16.5338   23.5901 C   0  0  2  0  0  0  0  0  0  0  0  0
    8.4428  -16.5810   22.2873 N   0  0  0  0  0  0  0  0  0  0  0  0
    8.4153  -15.4421   24.4281 C   0  0  0  0  0  0  0  0  0  0  0  0
    9.6393  -15.1544   24.3689 O   0  0  0  0  0  0  0  0  0  0  0  0
    6.6750  -11.9814   24.7844 C   0  0  0  0  0  0  0  0  0  0  0  0
    7.1292  -12.4506   26.1402 C   0  0  1  0  0  0  0  0  0  0  0  0
    5.9510  -12.9151   26.9523 C   0  0  0  0  0  0  0  0  0  0  0  0
    8.1504  -13.5553   26.0584 C   0  0  2  0  0  0  0  0  0  0  0  0
    7.6265  -14.6819   25.3292 N   0  0  0  0  0  0  0  0  0  0  0  0
    8.6716  -13.9411   27.3942 C   0  0  0  0  0  0  0  0  0  0  0  0
    9.4765  -13.0857   28.1444 O   0  0  0  0  0  0  0  0  0  0  0  0
    8.4142  -15.0559   27.9151 O   0  0  0  0  0  0  0  0  0  0  0  0
  1  2  1  0
  2  3  1  0
  3  4  2  0
  6  5  1  1
  7  6  1  0
  7  3  1  0
  8  6  1  0
  8  9  2  0
 11 10  1  6
 11 13  1  0
 12 11  1  0
 13 14  1  1
 13 15  1  0
 14  8  1  0
 15 16  1  0
 17 15  2  0
M  END
$$$$
