GAV.pdb
     RDKit          3D

 17 16  0  0  1  0  0  0  0  0999 V2000
   12.1719  -16.0101   20.3256 N   0  0  0  0  0  0  0  0  0  0  0  0
   11.1160  -16.8375   20.8635 C   0  0  0  0  0  0  0  0  0  0  0  0
   10.0836  -16.0002   21.5503 C   0  0  0  0  0  0  0  0  0  0  0  0
   10.2881  -14.7897   21.7642 O   0  0  0  0  0  0  0  0  0  0  0  0
    6.5483  -16.6330   22.5774 C   0  0  0  0  0  0  0  0  0  0  0  0
    7.7984  -15.8111   22.6051 C   0  0  2  0  0  0  0  0  0  0  0  0
    8.8616  -16.5601   21.9689 N   0  0  0  0  0  0  0  0  0  0  0  0
    8.1344  -15.5353   24.0431 C   0  0  0  0  0  0  0  0  0  0  0  0
    8.9831  -16.2194   24.6725 O   0  0  0  0  0  0  0  0  0  0  0  0
    7.6474  -11.7504   25.6342 C   0  0  0  0  0  0  0  0  0  0  0  0
    7.2282  -12.8698   26.5484 C   0  0  1  0  0  0  0  0  0  0  0  0
    5.7279  -12.9695   26.5959 C   0  0  0  0  0  0  0  0  0  0  0  0
    7.8079  -14.1991   26.1397 C   0  0  2  0  0  0  0  0  0  0  0  0
    7.5064  -14.4850   24.7603 N   0  0  0  0  0  0  0  0  0  0  0  0
    7.3924  -15.2982   27.0474 C   0  0  0  0  0  0  0  0  0  0  0  0
    8.0779  -15.5748   28.2289 O   0  0  0  0  0  0  0  0  0  0  0  0
    6.4038  -16.0334   26.7972 O   0  0  0  0  0  0  0  0  0  0  0  0
  1  2  1  0
  2  3  1  0
  3  4  2  0
  6  5  1  1
  7  6  1  0
  7  3  1  0
  8  6  1  0
  8  9  2  0
 11 10  1  6
 11 13  1  0
 12 11  1  0
 13 14  1  6
 13 15  1  0
 14  8  1  0
 15 16  1  0
 17 15  2  0
M  END
$$$$
