GAV.pdb
     RDKit          3D

 17 16  0  0  1  0  0  0  0  0999 V2000
    5.6180  -19.4072   23.2551 N   0  0  0  0  0  0  0  0  0  0  0  0
    5.3084  -18.0050   23.0912 C   0  0  0  0  0  0  0  0  0  0  0  0
    6.5512  -17.2142   22.8293 C   0  0  0  0  0  0  0  0  0  0  0  0
    7.6737  -17.6967   23.0742 O   0  0  0  0  0  0  0  0  0  0  0  0
    7.2081  -13.9725   21.1021 C   0  0  0  0  0  0  0  0  0  0  0  0
    7.6340  -15.0899   22.0014 C   0  0  2  0  0  0  0  0  0  0  0  0
    6.4800  -15.9109   22.3016 N   0  0  0  0  0  0  0  0  0  0  0  0
    8.1901  -14.4816   23.2573 C   0  0  0  0  0  0  0  0  0  0  0  0
    9.2915  -13.8722   23.2719 O   0  0  0  0  0  0  0  0  0  0  0  0
    7.4763  -12.4587   27.6136 C   0  0  0  0  0  0  0  0  0  0  0  0
    6.9441  -13.2000   26.4171 C   0  0  1  0  0  0  0  0  0  0  0  0
    6.3127  -12.2388   25.4472 C   0  0  0  0  0  0  0  0  0  0  0  0
    8.0079  -14.0002   25.7115 C   0  0  2  0  0  0  0  0  0  0  0  0
    7.4947  -14.5671   24.4906 N   0  0  0  0  0  0  0  0  0  0  0  0
    8.6216  -15.0242   26.5945 C   0  0  0  0  0  0  0  0  0  0  0  0
    9.4640  -14.6761   27.6489 O   0  0  0  0  0  0  0  0  0  0  0  0
    8.4133  -16.2539   26.4366 O   0  0  0  0  0  0  0  0  0  0  0  0
  1  2  1  0
  2  3  1  0
  3  4  2  0
  6  5  1  6
  7  6  1  0
  7  3  1  0
  8  6  1  0
  8  9  2  0
 11 10  1  1
 11 13  1  0
 12 11  1  0
 13 14  1  6
 13 15  1  0
 14  8  1  0
 15 16  1  0
 17 15  2  0
M  END
$$$$
