GAV.pdb
     RDKit          3D

 17 16  0  0  1  0  0  0  0  0999 V2000
    8.1564  -12.4944   18.7811 N   0  0  0  0  0  0  0  0  0  0  0  0
    8.5576  -13.7394   19.3959 C   0  0  0  0  0  0  0  0  0  0  0  0
    7.8618  -13.9325   20.7063 C   0  0  0  0  0  0  0  0  0  0  0  0
    7.2688  -12.9842   21.2557 O   0  0  0  0  0  0  0  0  0  0  0  0
    7.1506  -16.9406   22.8103 C   0  0  0  0  0  0  0  0  0  0  0  0
    7.1974  -15.4595   22.6030 C   0  0  2  0  0  0  0  0  0  0  0  0
    7.8618  -15.1867   21.3459 N   0  0  0  0  0  0  0  0  0  0  0  0
    7.9651  -14.8602   23.7467 C   0  0  0  0  0  0  0  0  0  0  0  0
    9.2227  -14.8065   23.7501 O   0  0  0  0  0  0  0  0  0  0  0  0
    6.9446  -11.4784   25.4409 C   0  0  0  0  0  0  0  0  0  0  0  0
    7.2245  -12.5154   26.4948 C   0  0  1  0  0  0  0  0  0  0  0  0
    5.9364  -13.0073   27.0966 C   0  0  0  0  0  0  0  0  0  0  0  0
    8.0096  -13.6856   25.9617 C   0  0  2  0  0  0  0  0  0  0  0  0
    7.3030  -14.3245   24.8810 N   0  0  0  0  0  0  0  0  0  0  0  0
    8.3901  -14.6431   27.0309 C   0  0  0  0  0  0  0  0  0  0  0  0
    9.2981  -14.3041   28.0323 O   0  0  0  0  0  0  0  0  0  0  0  0
    7.9139  -15.8053   27.0872 O   0  0  0  0  0  0  0  0  0  0  0  0
  1  2  1  0
  2  3  1  0
  3  4  2  0
  6  5  1  1
  7  6  1  0
  7  3  1  0
  8  6  1  0
  8  9  2  0
 11 10  1  6
 11 13  1  0
 12 11  1  0
 13 14  1  6
 13 15  1  0
 14  8  1  0
 15 16  1  0
 17 15  2  0
M  END
$$$$
