AYP.pdb
     RDKit          3D

 25 26  0  0  1  0  0  0  0  0999 V2000
   20.4065  -35.7887  -11.6988 C   0  0  0  0  0  0  0  0  0  0  0  0
   20.1935  -34.2978  -11.5981 C   0  0  2  0  0  0  0  0  0  0  0  0
   19.7583  -33.7995  -12.8719 N   0  0  0  0  0  0  0  0  0  0  0  0
   21.4067  -33.6009  -11.0980 C   0  0  0  0  0  0  0  0  0  0  0  0
   22.2524  -33.2046  -11.9177 O   0  0  0  0  0  0  0  0  0  0  0  0
   19.6573  -27.2309  -11.0464 O   0  0  0  0  0  0  0  0  0  0  0  0
   20.3487  -28.2525  -10.4104 C   0  0  0  0  0  0  0  0  0  0  0  0
   19.6623  -29.0321   -9.5235 C   0  0  0  0  0  0  0  0  0  0  0  0
   20.2858  -30.0542   -8.8644 C   0  0  0  0  0  0  0  0  0  0  0  0
   21.6350  -30.3546   -9.0562 C   0  0  0  0  0  0  0  0  0  0  0  0
   22.1954  -31.4712   -8.3046 C   0  0  0  0  0  0  0  0  0  0  0  0
   22.6575  -32.6462   -9.1307 C   0  0  2  0  0  0  0  0  0  0  0  0
   21.6028  -33.3897   -9.7296 N   0  0  0  0  0  0  0  0  0  0  0  0
   23.4628  -33.5421   -8.2763 C   0  0  0  0  0  0  0  0  0  0  0  0
   22.8939  -34.5260   -7.6654 O   0  0  0  0  0  0  0  0  0  0  0  0
   22.2918  -29.5526   -9.9522 C   0  0  0  0  0  0  0  0  0  0  0  0
   21.6732  -28.5066  -10.6331 C   0  0  0  0  0  0  0  0  0  0  0  0
   24.8598  -33.4058   -8.0664 N   0  0  0  0  0  0  0  0  0  0  0  0
   25.7947  -32.4133   -8.5790 C   0  0  0  0  0  0  0  0  0  0  0  0
   27.0667  -33.2501   -8.8008 C   0  0  0  0  0  0  0  0  0  0  0  0
   27.0872  -34.0664   -7.5295 C   0  0  0  0  0  0  0  0  0  0  0  0
   25.6465  -34.3310   -7.2496 C   0  0  1  0  0  0  0  0  0  0  0  0
   25.4157  -34.0413   -5.8050 C   0  0  0  0  0  0  0  0  0  0  0  0
   25.8892  -34.8358   -4.9553 O   0  0  0  0  0  0  0  0  0  0  0  0
   24.7067  -32.9433   -5.3396 O   0  0  0  0  0  0  0  0  0  0  0  0
  2  1  1  6
  2  3  1  0
  4 13  1  0
  4  2  1  0
  5  4  2  0
  6  7  1  0
  7 17  2  0
  8  9  2  0
  8  7  1  0
  9 10  1  0
 10 16  2  0
 10 11  1  0
 12 11  1  1
 12 13  1  0
 14 12  1  0
 15 14  2  0
 17 16  1  0
 18 14  1  0
 18 22  1  0
 19 20  1  0
 19 18  1  0
 20 21  1  0
 22 21  1  0
 23 25  1  0
 22 23  1  1
 24 23  2  0
M  END
$$$$
