AYP.pdb
     RDKit          3D

 25 26  0  0  1  0  0  0  0  0999 V2000
   20.3963  -13.3487  -15.5859 C   0  0  0  0  0  0  0  0  0  0  0  0
   19.1006  -12.8587  -16.1851 C   0  0  2  0  0  0  0  0  0  0  0  0
   18.7367  -13.7146  -17.2785 N   0  0  0  0  0  0  0  0  0  0  0  0
   19.1840  -11.4297  -16.5835 C   0  0  0  0  0  0  0  0  0  0  0  0
   19.6911  -11.1409  -17.6807 O   0  0  0  0  0  0  0  0  0  0  0  0
   17.6428   -2.7890  -17.0288 O   0  0  0  0  0  0  0  0  0  0  0  0
   17.6290   -4.1078  -16.5966 C   0  0  0  0  0  0  0  0  0  0  0  0
   17.4602   -5.0855  -17.5354 C   0  0  0  0  0  0  0  0  0  0  0  0
   17.4372   -6.4034  -17.1743 C   0  0  0  0  0  0  0  0  0  0  0  0
   17.5825   -6.8185  -15.8499 C   0  0  0  0  0  0  0  0  0  0  0  0
   17.5485   -8.2508  -15.5798 C   0  0  0  0  0  0  0  0  0  0  0  0
   18.7863   -9.0179  -15.9743 C   0  0  2  0  0  0  0  0  0  0  0  0
   18.7027  -10.4194  -15.7450 N   0  0  0  0  0  0  0  0  0  0  0  0
   19.9420   -8.4702  -15.2357 C   0  0  0  0  0  0  0  0  0  0  0  0
   20.1794   -8.8689  -14.0316 O   0  0  0  0  0  0  0  0  0  0  0  0
   17.7497   -5.8117  -14.9359 C   0  0  0  0  0  0  0  0  0  0  0  0
   17.7756   -4.4634  -15.2849 C   0  0  0  0  0  0  0  0  0  0  0  0
   20.8451   -7.5094  -15.7605 N   0  0  0  0  0  0  0  0  0  0  0  0
   20.8816   -6.8702  -17.0689 C   0  0  0  0  0  0  0  0  0  0  0  0
   22.3932   -6.7514  -17.3299 C   0  0  0  0  0  0  0  0  0  0  0  0
   22.8711   -6.2712  -15.9793 C   0  0  0  0  0  0  0  0  0  0  0  0
   21.9872   -6.9829  -15.0119 C   0  0  1  0  0  0  0  0  0  0  0  0
   21.5124   -5.9744  -14.0212 C   0  0  0  0  0  0  0  0  0  0  0  0
   20.3172   -5.5937  -14.0853 O   0  0  0  0  0  0  0  0  0  0  0  0
   22.3131   -5.4281  -13.0287 O   0  0  0  0  0  0  0  0  0  0  0  0
  2  1  1  6
  2  3  1  0
  4 13  1  0
  4  2  1  0
  5  4  2  0
  6  7  1  0
  7 17  2  0
  8  9  2  0
  8  7  1  0
  9 10  1  0
 10 16  2  0
 10 11  1  0
 12 11  1  1
 12 13  1  0
 14 12  1  0
 15 14  2  0
 17 16  1  0
 18 14  1  0
 18 22  1  0
 19 20  1  0
 19 18  1  0
 20 21  1  0
 22 21  1  0
 23 25  1  0
 22 23  1  1
 24 23  2  0
M  END
$$$$
