AYP.pdb
     RDKit          3D

 25 26  0  0  1  0  0  0  0  0999 V2000
   26.6896  -19.4101  -19.2467 C   0  0  0  0  0  0  0  0  0  0  0  0
   27.8205  -19.6725  -18.2821 C   0  0  2  0  0  0  0  0  0  0  0  0
   28.8054  -20.4937  -18.9270 N   0  0  0  0  0  0  0  0  0  0  0  0
   27.3322  -20.2621  -17.0087 C   0  0  0  0  0  0  0  0  0  0  0  0
   27.2206  -21.4967  -16.9226 O   0  0  0  0  0  0  0  0  0  0  0  0
   28.6991  -21.7872   -8.8361 O   0  0  0  0  0  0  0  0  0  0  0  0
   28.2402  -21.0914   -9.9459 C   0  0  0  0  0  0  0  0  0  0  0  0
   29.0867  -20.9558  -11.0092 C   0  0  0  0  0  0  0  0  0  0  0  0
   28.6950  -20.2817  -12.1317 C   0  0  0  0  0  0  0  0  0  0  0  0
   27.4306  -19.7039  -12.2539 C   0  0  0  0  0  0  0  0  0  0  0  0
   27.1173  -19.0134  -13.4991 C   0  0  0  0  0  0  0  0  0  0  0  0
   26.6181  -19.8889  -14.6219 C   0  0  2  0  0  0  0  0  0  0  0  0
   27.0015  -19.4498  -15.9196 N   0  0  0  0  0  0  0  0  0  0  0  0
   25.1450  -19.9657  -14.5476 C   0  0  0  0  0  0  0  0  0  0  0  0
   24.4285  -19.0197  -15.0543 O   0  0  0  0  0  0  0  0  0  0  0  0
   26.6086  -19.8595  -11.1689 C   0  0  0  0  0  0  0  0  0  0  0  0
   26.9902  -20.5428  -10.0166 C   0  0  0  0  0  0  0  0  0  0  0  0
   24.4284  -21.0323  -13.9451 N   0  0  0  0  0  0  0  0  0  0  0  0
   24.9136  -22.2502  -13.3103 C   0  0  0  0  0  0  0  0  0  0  0  0
   23.8436  -23.2775  -13.7192 C   0  0  0  0  0  0  0  0  0  0  0  0
   22.5850  -22.4741  -13.4883 C   0  0  0  0  0  0  0  0  0  0  0  0
   22.9673  -21.0872  -13.8810 C   0  0  1  0  0  0  0  0  0  0  0  0
   22.4801  -20.1730  -12.8082 C   0  0  0  0  0  0  0  0  0  0  0  0
   21.2639  -19.8596  -12.7997 O   0  0  0  0  0  0  0  0  0  0  0  0
   23.2913  -19.6448  -11.8143 O   0  0  0  0  0  0  0  0  0  0  0  0
  2  1  1  6
  2  3  1  0
  4 13  1  0
  4  2  1  0
  5  4  2  0
  6  7  1  0
  7 17  2  0
  8  9  2  0
  8  7  1  0
  9 10  1  0
 10 16  2  0
 10 11  1  0
 12 11  1  1
 12 13  1  0
 14 12  1  0
 15 14  2  0
 17 16  1  0
 18 14  1  0
 18 22  1  0
 19 20  1  0
 19 18  1  0
 20 21  1  0
 22 21  1  0
 23 25  1  0
 22 23  1  1
 24 23  2  0
M  END
$$$$
