AYP.pdb
     RDKit          3D

 25 26  0  0  1  0  0  0  0  0999 V2000
   20.9967  -18.5448  -16.5268 C   0  0  0  0  0  0  0  0  0  0  0  0
   21.1812  -19.3172  -15.2433 C   0  0  2  0  0  0  0  0  0  0  0  0
   20.2534  -18.8269  -14.2638 N   0  0  0  0  0  0  0  0  0  0  0  0
   22.5885  -19.2691  -14.7692 C   0  0  0  0  0  0  0  0  0  0  0  0
   23.0388  -18.1962  -14.3329 O   0  0  0  0  0  0  0  0  0  0  0  0
   23.0678  -20.5438   -8.0373 O   0  0  0  0  0  0  0  0  0  0  0  0
   23.5821  -20.8050   -9.2996 C   0  0  0  0  0  0  0  0  0  0  0  0
   22.7084  -21.1834  -10.2791 C   0  0  0  0  0  0  0  0  0  0  0  0
   23.1517  -21.4551  -11.5430 C   0  0  0  0  0  0  0  0  0  0  0  0
   24.4979  -21.3630  -11.8992 C   0  0  0  0  0  0  0  0  0  0  0  0
   24.8577  -21.6700  -13.2783 C   0  0  0  0  0  0  0  0  0  0  0  0
   24.7067  -20.5338  -14.2595 C   0  0  2  0  0  0  0  0  0  0  0  0
   23.4008  -20.4067  -14.8092 N   0  0  0  0  0  0  0  0  0  0  0  0
   25.6817  -20.7163  -15.3537 C   0  0  0  0  0  0  0  0  0  0  0  0
   25.3414  -21.3726  -16.4113 O   0  0  0  0  0  0  0  0  0  0  0  0
   25.3450  -20.9811  -10.8924 C   0  0  0  0  0  0  0  0  0  0  0  0
   24.9118  -20.7003   -9.5986 C   0  0  0  0  0  0  0  0  0  0  0  0
   27.0074  -20.2099  -15.3373 N   0  0  0  0  0  0  0  0  0  0  0  0
   27.7285  -19.4974  -14.2913 C   0  0  0  0  0  0  0  0  0  0  0  0
   28.5779  -18.5034  -15.1023 C   0  0  0  0  0  0  0  0  0  0  0  0
   29.0738  -19.4021  -16.2110 C   0  0  0  0  0  0  0  0  0  0  0  0
   27.9256  -20.3171  -16.4721 C   0  0  1  0  0  0  0  0  0  0  0  0
   28.4711  -21.7032  -16.5433 C   0  0  0  0  0  0  0  0  0  0  0  0
   29.1385  -22.0291  -17.5562 O   0  0  0  0  0  0  0  0  0  0  0  0
   28.2861  -22.6594  -15.5553 O   0  0  0  0  0  0  0  0  0  0  0  0
  2  1  1  6
  2  3  1  0
  4 13  1  0
  4  2  1  0
  5  4  2  0
  6  7  1  0
  7 17  2  0
  8  9  2  0
  8  7  1  0
  9 10  1  0
 10 16  2  0
 10 11  1  0
 12 11  1  1
 12 13  1  0
 14 12  1  0
 15 14  2  0
 17 16  1  0
 18 14  1  0
 18 22  1  0
 19 20  1  0
 19 18  1  0
 20 21  1  0
 22 21  1  0
 23 25  1  0
 22 23  1  1
 24 23  2  0
M  END
$$$$
