AYP.pdb
     RDKit          3D

 25 26  0  0  1  0  0  0  0  0999 V2000
   25.8348  -18.5349  -19.2709 C   0  0  0  0  0  0  0  0  0  0  0  0
   27.1328  -18.6431  -18.5082 C   0  0  2  0  0  0  0  0  0  0  0  0
   28.1641  -19.0925  -19.3997 N   0  0  0  0  0  0  0  0  0  0  0  0
   26.9968  -19.5116  -17.3104 C   0  0  0  0  0  0  0  0  0  0  0  0
   27.1105  -20.7417  -17.4446 O   0  0  0  0  0  0  0  0  0  0  0  0
   25.4792  -21.3669   -8.6932 O   0  0  0  0  0  0  0  0  0  0  0  0
   25.8987  -20.8194   -9.8976 C   0  0  0  0  0  0  0  0  0  0  0  0
   25.1084  -19.8670  -10.4754 C   0  0  0  0  0  0  0  0  0  0  0  0
   25.4654  -19.2893  -11.6614 C   0  0  0  0  0  0  0  0  0  0  0  0
   26.6367  -19.6328  -12.3378 C   0  0  0  0  0  0  0  0  0  0  0  0
   26.9216  -18.9479  -13.5930 C   0  0  0  0  0  0  0  0  0  0  0  0
   26.5112  -19.6839  -14.8445 C   0  0  2  0  0  0  0  0  0  0  0  0
   26.7450  -18.9635  -16.0488 N   0  0  0  0  0  0  0  0  0  0  0  0
   25.0770  -20.0235  -14.7491 C   0  0  0  0  0  0  0  0  0  0  0  0
   24.1882  -19.1383  -15.0514 O   0  0  0  0  0  0  0  0  0  0  0  0
   27.4045  -20.5908  -11.7295 C   0  0  0  0  0  0  0  0  0  0  0  0
   27.0569  -21.1907  -10.5213 C   0  0  0  0  0  0  0  0  0  0  0  0
   24.5793  -21.2879  -14.3395 N   0  0  0  0  0  0  0  0  0  0  0  0
   25.2915  -22.4861  -13.9167 C   0  0  0  0  0  0  0  0  0  0  0  0
   24.4139  -23.6077  -14.4993 C   0  0  0  0  0  0  0  0  0  0  0  0
   23.0374  -23.0962  -14.1433 C   0  0  0  0  0  0  0  0  0  0  0  0
   23.1540  -21.6172  -14.2941 C   0  0  1  0  0  0  0  0  0  0  0  0
   22.5374  -20.9989  -13.0851 C   0  0  0  0  0  0  0  0  0  0  0  0
   21.2844  -20.9736  -13.0026 O   0  0  0  0  0  0  0  0  0  0  0  0
   23.2657  -20.4473  -12.0411 O   0  0  0  0  0  0  0  0  0  0  0  0
  2  1  1  6
  2  3  1  0
  4 13  1  0
  4  2  1  0
  5  4  2  0
  6  7  1  0
  7 17  2  0
  8  9  2  0
  8  7  1  0
  9 10  1  0
 10 16  2  0
 10 11  1  0
 12 11  1  1
 12 13  1  0
 14 12  1  0
 15 14  2  0
 17 16  1  0
 18 14  1  0
 18 22  1  0
 19 20  1  0
 19 18  1  0
 20 21  1  0
 22 21  1  0
 23 25  1  0
 22 23  1  1
 24 23  2  0
M  END
$$$$
