AYP.pdb
     RDKit          3D

 25 26  0  0  1  0  0  0  0  0999 V2000
   23.5746  -21.4739  -19.4194 C   0  0  0  0  0  0  0  0  0  0  0  0
   24.3376  -22.1488  -18.3057 C   0  0  2  0  0  0  0  0  0  0  0  0
   23.5638  -23.2507  -17.8082 N   0  0  0  0  0  0  0  0  0  0  0  0
   24.7149  -21.1887  -17.2363 C   0  0  0  0  0  0  0  0  0  0  0  0
   25.5131  -20.2747  -17.5042 O   0  0  0  0  0  0  0  0  0  0  0  0
   20.9920  -16.0041  -18.1061 O   0  0  0  0  0  0  0  0  0  0  0  0
   21.4557  -16.9617  -17.2150 C   0  0  0  0  0  0  0  0  0  0  0  0
   22.6055  -16.6915  -16.5290 C   0  0  0  0  0  0  0  0  0  0  0  0
   23.1145  -17.5934  -15.6371 C   0  0  0  0  0  0  0  0  0  0  0  0
   22.4999  -18.8197  -15.3806 C   0  0  0  0  0  0  0  0  0  0  0  0
   23.1273  -19.7025  -14.4045 C   0  0  0  0  0  0  0  0  0  0  0  0
   24.3838  -20.3976  -14.8676 C   0  0  2  0  0  0  0  0  0  0  0  0
   24.1862  -21.3033  -15.9468 N   0  0  0  0  0  0  0  0  0  0  0  0
   24.9768  -21.1214  -13.7250 C   0  0  0  0  0  0  0  0  0  0  0  0
   24.4895  -22.2613  -13.3668 O   0  0  0  0  0  0  0  0  0  0  0  0
   21.3495  -19.0569  -16.0860 C   0  0  0  0  0  0  0  0  0  0  0  0
   20.8159  -18.1501  -16.9989 C   0  0  0  0  0  0  0  0  0  0  0  0
   26.0778  -20.6503  -12.9634 N   0  0  0  0  0  0  0  0  0  0  0  0
   26.9330  -19.4888  -13.1668 C   0  0  0  0  0  0  0  0  0  0  0  0
   28.3045  -20.0108  -12.7045 C   0  0  0  0  0  0  0  0  0  0  0  0
   27.9119  -20.7427  -11.4423 C   0  0  0  0  0  0  0  0  0  0  0  0
   26.5787  -21.3271  -11.7662 C   0  0  1  0  0  0  0  0  0  0  0  0
   25.6765  -21.0371  -10.6147 C   0  0  0  0  0  0  0  0  0  0  0  0
   24.8666  -20.0827  -10.7185 O   0  0  0  0  0  0  0  0  0  0  0  0
   25.6766  -21.7596   -9.4304 O   0  0  0  0  0  0  0  0  0  0  0  0
  2  1  1  6
  2  3  1  0
  4 13  1  0
  4  2  1  0
  5  4  2  0
  6  7  1  0
  7 17  2  0
  8  9  2  0
  8  7  1  0
  9 10  1  0
 10 16  2  0
 10 11  1  0
 12 11  1  1
 12 13  1  0
 14 12  1  0
 15 14  2  0
 17 16  1  0
 18 14  1  0
 18 22  1  0
 19 20  1  0
 19 18  1  0
 20 21  1  0
 22 21  1  0
 23 25  1  0
 22 23  1  1
 24 23  2  0
M  END
$$$$
