AYP.pdb
     RDKit          3D

 25 26  0  0  1  0  0  0  0  0999 V2000
   20.5223  -20.9161  -14.9236 C   0  0  0  0  0  0  0  0  0  0  0  0
   20.8329  -20.9861  -13.4483 C   0  0  2  0  0  0  0  0  0  0  0  0
   19.7987  -20.3088  -12.7190 N   0  0  0  0  0  0  0  0  0  0  0  0
   22.1864  -20.4536  -13.1447 C   0  0  0  0  0  0  0  0  0  0  0  0
   22.3091  -19.2488  -12.8662 O   0  0  0  0  0  0  0  0  0  0  0  0
   27.3829  -19.3856   -7.1501 O   0  0  0  0  0  0  0  0  0  0  0  0
   26.7952  -19.9582   -8.2695 C   0  0  0  0  0  0  0  0  0  0  0  0
   27.6099  -20.5900   -9.1655 C   0  0  0  0  0  0  0  0  0  0  0  0
   27.0930  -21.1737  -10.2879 C   0  0  0  0  0  0  0  0  0  0  0  0
   25.7280  -21.1582  -10.5778 C   0  0  0  0  0  0  0  0  0  0  0  0
   25.2862  -21.8178  -11.8007 C   0  0  0  0  0  0  0  0  0  0  0  0
   24.6416  -20.9207  -12.8284 C   0  0  2  0  0  0  0  0  0  0  0  0
   23.3097  -21.2862  -13.1693 N   0  0  0  0  0  0  0  0  0  0  0  0
   25.4746  -20.9177  -14.0480 C   0  0  0  0  0  0  0  0  0  0  0  0
   25.1902  -21.7182  -15.0193 O   0  0  0  0  0  0  0  0  0  0  0  0
   24.9414  -20.5162   -9.6579 C   0  0  0  0  0  0  0  0  0  0  0  0
   25.4501  -19.9156   -8.5086 C   0  0  0  0  0  0  0  0  0  0  0  0
   26.6000  -20.0763  -14.2466 N   0  0  0  0  0  0  0  0  0  0  0  0
   27.2289  -19.1197  -13.3459 C   0  0  0  0  0  0  0  0  0  0  0  0
   27.6575  -17.9997  -14.3099 C   0  0  0  0  0  0  0  0  0  0  0  0
   28.2305  -18.8152  -15.4456 C   0  0  0  0  0  0  0  0  0  0  0  0
   27.3540  -20.0205  -15.4998 C   0  0  1  0  0  0  0  0  0  0  0  0
   28.2453  -21.2120  -15.5993 C   0  0  0  0  0  0  0  0  0  0  0  0
   28.4205  -21.9122  -14.5714 O   0  0  0  0  0  0  0  0  0  0  0  0
   28.8961  -21.5966  -16.7626 O   0  0  0  0  0  0  0  0  0  0  0  0
  2  1  1  6
  2  3  1  0
  4 13  1  0
  4  2  1  0
  5  4  2  0
  6  7  1  0
  7 17  2  0
  8  9  2  0
  8  7  1  0
  9 10  1  0
 10 16  2  0
 10 11  1  0
 12 11  1  1
 12 13  1  0
 14 12  1  0
 15 14  2  0
 17 16  1  0
 18 14  1  0
 18 22  1  0
 19 20  1  0
 19 18  1  0
 20 21  1  0
 22 21  1  0
 23 25  1  0
 22 23  1  1
 24 23  2  0
M  END
$$$$
