AYP.pdb
     RDKit          3D

 25 26  0  0  1  0  0  0  0  0999 V2000
   29.1790  -20.0905  -13.1894 C   0  0  0  0  0  0  0  0  0  0  0  0
   27.7452  -20.5196  -12.9939 C   0  0  2  0  0  0  0  0  0  0  0  0
   26.9845  -20.1551  -14.1553 N   0  0  0  0  0  0  0  0  0  0  0  0
   27.1710  -19.9667  -11.7401 C   0  0  0  0  0  0  0  0  0  0  0  0
   26.8281  -18.7726  -11.7122 O   0  0  0  0  0  0  0  0  0  0  0  0
   20.2687  -19.4709  -11.3122 O   0  0  0  0  0  0  0  0  0  0  0  0
   21.4998  -19.8899  -10.8275 C   0  0  0  0  0  0  0  0  0  0  0  0
   21.6439  -20.0168   -9.4752 C   0  0  0  0  0  0  0  0  0  0  0  0
   22.8310  -20.4250   -8.9349 C   0  0  0  0  0  0  0  0  0  0  0  0
   23.9439  -20.7304   -9.7196 C   0  0  0  0  0  0  0  0  0  0  0  0
   25.1578  -21.1622   -9.0372 C   0  0  0  0  0  0  0  0  0  0  0  0
   26.4070  -20.3871   -9.3767 C   0  0  2  0  0  0  0  0  0  0  0  0
   27.0150  -20.7684  -10.6050 N   0  0  0  0  0  0  0  0  0  0  0  0
   27.3813  -20.5485   -8.2785 C   0  0  0  0  0  0  0  0  0  0  0  0
   28.2249  -21.5244   -8.3097 O   0  0  0  0  0  0  0  0  0  0  0  0
   23.7634  -20.5921  -11.0707 C   0  0  0  0  0  0  0  0  0  0  0  0
   22.5613  -20.1772  -11.6394 C   0  0  0  0  0  0  0  0  0  0  0  0
   27.4697  -19.6875   -7.1539 N   0  0  0  0  0  0  0  0  0  0  0  0
   26.7409  -18.4641   -6.8473 C   0  0  0  0  0  0  0  0  0  0  0  0
   27.8144  -17.6143   -6.1453 C   0  0  0  0  0  0  0  0  0  0  0  0
   28.4383  -18.6492   -5.2382 C   0  0  0  0  0  0  0  0  0  0  0  0
   28.3994  -19.9032   -6.0443 C   0  0  1  0  0  0  0  0  0  0  0  0
   27.8770  -20.9831   -5.1584 C   0  0  0  0  0  0  0  0  0  0  0  0
   28.6002  -21.3773   -4.2102 O   0  0  0  0  0  0  0  0  0  0  0  0
   26.6358  -21.5820   -5.3177 O   0  0  0  0  0  0  0  0  0  0  0  0
  2  1  1  6
  2  3  1  0
  4 13  1  0
  4  2  1  0
  5  4  2  0
  6  7  1  0
  7 17  2  0
  8  9  2  0
  8  7  1  0
  9 10  1  0
 10 16  2  0
 10 11  1  0
 12 11  1  1
 12 13  1  0
 14 12  1  0
 15 14  2  0
 17 16  1  0
 18 14  1  0
 18 22  1  0
 19 20  1  0
 19 18  1  0
 20 21  1  0
 22 21  1  0
 23 25  1  0
 22 23  1  1
 24 23  2  0
M  END
$$$$
