AYP.pdb
     RDKit          3D

 25 26  0  0  1  0  0  0  0  0999 V2000
   20.6118  -18.3017  -15.8018 C   0  0  0  0  0  0  0  0  0  0  0  0
   21.0777  -19.6147  -15.2211 C   0  0  2  0  0  0  0  0  0  0  0  0
   20.1028  -20.0815  -14.2766 N   0  0  0  0  0  0  0  0  0  0  0  0
   22.4363  -19.5041  -14.6300 C   0  0  0  0  0  0  0  0  0  0  0  0
   22.6910  -18.5417  -13.8863 O   0  0  0  0  0  0  0  0  0  0  0  0
   22.2457  -20.8200   -8.3618 O   0  0  0  0  0  0  0  0  0  0  0  0
   22.9548  -20.9958   -9.5418 C   0  0  0  0  0  0  0  0  0  0  0  0
   22.2978  -21.5461  -10.6054 C   0  0  0  0  0  0  0  0  0  0  0  0
   22.9399  -21.7457  -11.7952 C   0  0  0  0  0  0  0  0  0  0  0  0
   24.2792  -21.4047  -11.9885 C   0  0  0  0  0  0  0  0  0  0  0  0
   24.8611  -21.6563  -13.3014 C   0  0  0  0  0  0  0  0  0  0  0  0
   24.7092  -20.5410  -14.3061 C   0  0  2  0  0  0  0  0  0  0  0  0
   23.4189  -20.4618  -14.8999 N   0  0  0  0  0  0  0  0  0  0  0  0
   25.7246  -20.7118  -15.3649 C   0  0  0  0  0  0  0  0  0  0  0  0
   25.4451  -21.4106  -16.4130 O   0  0  0  0  0  0  0  0  0  0  0  0
   24.9063  -20.8556  -10.9011 C   0  0  0  0  0  0  0  0  0  0  0  0
   24.2685  -20.6448   -9.6808 C   0  0  0  0  0  0  0  0  0  0  0  0
   27.0269  -20.1493  -15.3233 N   0  0  0  0  0  0  0  0  0  0  0  0
   27.6648  -19.3307  -14.3011 C   0  0  0  0  0  0  0  0  0  0  0  0
   28.5154  -18.3643  -15.1437 C   0  0  0  0  0  0  0  0  0  0  0  0
   29.1024  -19.3210  -16.1553 C   0  0  0  0  0  0  0  0  0  0  0  0
   28.0056  -20.3011  -16.4008 C   0  0  1  0  0  0  0  0  0  0  0  0
   28.6079  -21.6640  -16.3395 C   0  0  0  0  0  0  0  0  0  0  0  0
   28.4020  -22.3605  -15.3148 O   0  0  0  0  0  0  0  0  0  0  0  0
   29.3852  -22.2127  -17.3491 O   0  0  0  0  0  0  0  0  0  0  0  0
  2  1  1  1
  2  3  1  0
  4 13  1  0
  4  2  1  0
  5  4  2  0
  6  7  1  0
  7 17  2  0
  8  9  2  0
  8  7  1  0
  9 10  1  0
 10 16  2  0
 10 11  1  0
 12 11  1  1
 12 13  1  0
 14 12  1  0
 15 14  2  0
 17 16  1  0
 18 14  1  0
 18 22  1  0
 19 20  1  0
 19 18  1  0
 20 21  1  0
 22 21  1  0
 23 25  1  0
 22 23  1  1
 24 23  2  0
M  END
$$$$
