AYP.pdb
     RDKit          3D

 25 26  0  0  1  0  0  0  0  0999 V2000
   46.8896  -11.3176   -8.3497 C   0  0  0  0  0  0  0  0  0  0  0  0
   45.9173  -11.8777   -7.3403 C   0  0  2  0  0  0  0  0  0  0  0  0
   46.2766  -13.2362   -7.0472 N   0  0  0  0  0  0  0  0  0  0  0  0
   44.5103  -11.7470   -7.7997 C   0  0  0  0  0  0  0  0  0  0  0  0
   44.0488  -12.6042   -8.5720 O   0  0  0  0  0  0  0  0  0  0  0  0
   36.1475   -8.6946   -7.9276 O   0  0  0  0  0  0  0  0  0  0  0  0
   37.4993   -8.8646   -7.6630 C   0  0  0  0  0  0  0  0  0  0  0  0
   37.8739   -9.9534   -6.9282 C   0  0  0  0  0  0  0  0  0  0  0  0
   39.1894  -10.1774   -6.6332 C   0  0  0  0  0  0  0  0  0  0  0  0
   40.2071   -9.3223   -7.0582 C   0  0  0  0  0  0  0  0  0  0  0  0
   41.5766   -9.6618   -6.6910 C   0  0  0  0  0  0  0  0  0  0  0  0
   42.3470  -10.4590   -7.7145 C   0  0  2  0  0  0  0  0  0  0  0  0
   43.7108  -10.6809   -7.3759 N   0  0  0  0  0  0  0  0  0  0  0  0
   42.2737   -9.7626   -9.0148 C   0  0  0  0  0  0  0  0  0  0  0  0
   43.1119   -8.8192   -9.2838 O   0  0  0  0  0  0  0  0  0  0  0  0
   39.7950   -8.2413   -7.7924 C   0  0  0  0  0  0  0  0  0  0  0  0
   38.4593   -7.9966   -8.1027 C   0  0  0  0  0  0  0  0  0  0  0  0
   41.3250  -10.0574  -10.0283 N   0  0  0  0  0  0  0  0  0  0  0  0
   40.2324  -11.0207  -10.0414 C   0  0  0  0  0  0  0  0  0  0  0  0
   40.2396  -11.4995  -11.5036 C   0  0  0  0  0  0  0  0  0  0  0  0
   40.4081  -10.1831  -12.2259 C   0  0  0  0  0  0  0  0  0  0  0  0
   41.3090   -9.3972  -11.3345 C   0  0  1  0  0  0  0  0  0  0  0  0
   40.7182   -8.0348  -11.1978 C   0  0  0  0  0  0  0  0  0  0  0  0
   40.2145   -7.7122  -10.0934 O   0  0  0  0  0  0  0  0  0  0  0  0
   40.6904   -7.0972  -12.2200 O   0  0  0  0  0  0  0  0  0  0  0  0
  2  1  1  6
  2  3  1  0
  4 13  1  0
  4  2  1  0
  5  4  2  0
  6  7  1  0
  7 17  2  0
  8  9  2  0
  8  7  1  0
  9 10  1  0
 10 16  2  0
 10 11  1  0
 12 11  1  1
 12 13  1  0
 14 12  1  0
 15 14  2  0
 17 16  1  0
 18 14  1  0
 18 22  1  0
 19 20  1  0
 19 18  1  0
 20 21  1  0
 22 21  1  0
 23 25  1  0
 22 23  1  1
 24 23  2  0
M  END
$$$$
