AYP.pdb
     RDKit          3D

 25 26  0  0  1  0  0  0  0  0999 V2000
   23.2176  -12.9345  -17.6225 C   0  0  0  0  0  0  0  0  0  0  0  0
   23.7977  -11.6091  -17.1922 C   0  0  2  0  0  0  0  0  0  0  0  0
   24.4758  -11.7792  -15.9386 N   0  0  0  0  0  0  0  0  0  0  0  0
   22.7614  -10.5456  -17.1397 C   0  0  0  0  0  0  0  0  0  0  0  0
   22.1286  -10.2723  -18.1737 O   0  0  0  0  0  0  0  0  0  0  0  0
   16.5609  -12.9709  -16.6171 O   0  0  0  0  0  0  0  0  0  0  0  0
   17.5509  -12.1327  -16.1237 C   0  0  0  0  0  0  0  0  0  0  0  0
   17.4335  -10.7938  -16.3670 C   0  0  0  0  0  0  0  0  0  0  0  0
   18.3751   -9.9158  -15.9084 C   0  0  0  0  0  0  0  0  0  0  0  0
   19.4902  -10.3292  -15.1782 C   0  0  0  0  0  0  0  0  0  0  0  0
   20.4280   -9.3054  -14.7333 C   0  0  0  0  0  0  0  0  0  0  0  0
   21.4704   -8.8935  -15.7433 C   0  0  2  0  0  0  0  0  0  0  0  0
   22.4951   -9.8581  -15.9515 N   0  0  0  0  0  0  0  0  0  0  0  0
   22.0793   -7.6204  -15.3077 C   0  0  0  0  0  0  0  0  0  0  0  0
   23.1519   -7.6363  -14.5905 O   0  0  0  0  0  0  0  0  0  0  0  0
   19.5754  -11.6780  -14.9532 C   0  0  0  0  0  0  0  0  0  0  0  0
   18.6259  -12.5878  -15.4127 C   0  0  0  0  0  0  0  0  0  0  0  0
   21.5645   -6.3367  -15.6257 N   0  0  0  0  0  0  0  0  0  0  0  0
   20.3588   -5.9611  -16.3517 C   0  0  0  0  0  0  0  0  0  0  0  0
   20.8179   -4.7073  -17.1164 C   0  0  0  0  0  0  0  0  0  0  0  0
   21.5863   -3.9873  -16.0329 C   0  0  0  0  0  0  0  0  0  0  0  0
   22.2321   -5.0868  -15.2596 C   0  0  1  0  0  0  0  0  0  0  0  0
   22.0039   -4.8042  -13.8132 C   0  0  0  0  0  0  0  0  0  0  0  0
   21.1566   -5.4973  -13.1975 O   0  0  0  0  0  0  0  0  0  0  0  0
   22.6729   -3.8183  -13.1025 O   0  0  0  0  0  0  0  0  0  0  0  0
  2  1  1  1
  2  3  1  0
  4 13  1  0
  4  2  1  0
  5  4  2  0
  6  7  1  0
  7 17  2  0
  8  9  2  0
  8  7  1  0
  9 10  1  0
 10 16  2  0
 10 11  1  0
 12 11  1  1
 12 13  1  0
 14 12  1  0
 15 14  2  0
 17 16  1  0
 18 14  1  0
 18 22  1  0
 19 20  1  0
 19 18  1  0
 20 21  1  0
 22 21  1  0
 23 25  1  0
 22 23  1  1
 24 23  2  0
M  END
$$$$
