AYP.pdb
     RDKit          3D

 25 26  0  0  1  0  0  0  0  0999 V2000
   30.6344  -21.5559  -11.7208 C   0  0  0  0  0  0  0  0  0  0  0  0
   29.1539  -21.6642  -11.9938 C   0  0  2  0  0  0  0  0  0  0  0  0
   28.9016  -21.3024  -13.3597 N   0  0  0  0  0  0  0  0  0  0  0  0
   28.3566  -20.8575  -11.0340 C   0  0  0  0  0  0  0  0  0  0  0  0
   28.1044  -19.6724  -11.3102 O   0  0  0  0  0  0  0  0  0  0  0  0
   22.2509  -20.0123  -12.9594 O   0  0  0  0  0  0  0  0  0  0  0  0
   23.1241  -20.3794  -11.9452 C   0  0  0  0  0  0  0  0  0  0  0  0
   23.2792  -19.5206  -10.8944 C   0  0  0  0  0  0  0  0  0  0  0  0
   24.1245  -19.8238   -9.8641 C   0  0  0  0  0  0  0  0  0  0  0  0
   24.8640  -21.0066   -9.8269 C   0  0  0  0  0  0  0  0  0  0  0  0
   25.7302  -21.2298   -8.6756 C   0  0  0  0  0  0  0  0  0  0  0  0
   27.1508  -20.7440   -8.8252 C   0  0  2  0  0  0  0  0  0  0  0  0
   27.8933  -21.4133   -9.8374 N   0  0  0  0  0  0  0  0  0  0  0  0
   27.8448  -20.8946   -7.5302 C   0  0  0  0  0  0  0  0  0  0  0  0
   28.2952  -22.0508   -7.1760 O   0  0  0  0  0  0  0  0  0  0  0  0
   24.6837  -21.8436  -10.8965 C   0  0  0  0  0  0  0  0  0  0  0  0
   23.8270  -21.5517  -11.9555 C   0  0  0  0  0  0  0  0  0  0  0  0
   28.0660  -19.8348   -6.6125 N   0  0  0  0  0  0  0  0  0  0  0  0
   27.6810  -18.4319   -6.6865 C   0  0  0  0  0  0  0  0  0  0  0  0
   28.8796  -17.7312   -6.0233 C   0  0  0  0  0  0  0  0  0  0  0  0
   29.1058  -18.6348   -4.8336 C   0  0  0  0  0  0  0  0  0  0  0  0
   28.7938  -19.9973   -5.3532 C   0  0  1  0  0  0  0  0  0  0  0  0
   27.9133  -20.6628   -4.3503 C   0  0  0  0  0  0  0  0  0  0  0  0
   26.6962  -20.8033   -4.6266 O   0  0  0  0  0  0  0  0  0  0  0  0
   28.3576  -21.1385   -3.1251 O   0  0  0  0  0  0  0  0  0  0  0  0
  2  1  1  1
  2  3  1  0
  4 13  1  0
  4  2  1  0
  5  4  2  0
  6  7  1  0
  7 17  2  0
  8  9  2  0
  8  7  1  0
  9 10  1  0
 10 16  2  0
 10 11  1  0
 12 11  1  1
 12 13  1  0
 14 12  1  0
 15 14  2  0
 17 16  1  0
 18 14  1  0
 18 22  1  0
 19 20  1  0
 19 18  1  0
 20 21  1  0
 22 21  1  0
 23 25  1  0
 22 23  1  1
 24 23  2  0
M  END
$$$$
