AFI.pdb
     RDKit          3D

 25 25  0  0  1  0  0  0  0  0999 V2000
   27.2386  -20.9163  -17.3714 C   0  0  0  0  0  0  0  0  0  0  0  0
   28.0661  -21.7233  -16.3928 C   0  0  2  0  0  0  0  0  0  0  0  0
   28.3716  -22.9799  -17.0036 N   0  0  0  0  0  0  0  0  0  0  0  0
   27.3077  -21.8877  -15.1145 C   0  0  0  0  0  0  0  0  0  0  0  0
   26.4654  -22.8198  -15.0475 O   0  0  0  0  0  0  0  0  0  0  0  0
   27.4784  -21.0683  -13.9898 N   0  0  0  0  0  0  0  0  0  0  0  0
   26.7273  -21.1802  -12.7602 C   0  0  1  0  0  0  0  0  0  0  0  0
   27.5227  -20.4599  -11.6912 C   0  0  0  0  0  0  0  0  0  0  0  0
   26.8139  -20.3637  -10.4161 C   0  0  0  0  0  0  0  0  0  0  0  0
   26.9305  -21.3894   -9.5020 C   0  0  0  0  0  0  0  0  0  0  0  0
   26.2873  -21.3629   -8.2772 C   0  0  0  0  0  0  0  0  0  0  0  0
   25.5062  -20.2875   -7.9509 C   0  0  0  0  0  0  0  0  0  0  0  0
   25.3767  -19.2538   -8.8488 C   0  0  0  0  0  0  0  0  0  0  0  0
   26.0243  -19.2935  -10.0674 C   0  0  0  0  0  0  0  0  0  0  0  0
   25.4508  -20.4450  -12.9160 C   0  0  0  0  0  0  0  0  0  0  0  0
   25.4902  -19.3088  -13.4737 O   0  0  0  0  0  0  0  0  0  0  0  0
   21.5622  -18.5513  -15.1571 C   0  0  0  0  0  0  0  0  0  0  0  0
   21.2640  -19.9234  -14.5517 C   0  0  0  0  0  0  0  0  0  0  0  0
   22.5313  -20.6439  -14.1900 C   0  0  2  0  0  0  0  0  0  0  0  0
   22.3210  -22.1162  -14.4034 C   0  0  0  0  0  0  0  0  0  0  0  0
   23.0005  -20.2408  -12.8399 C   0  0  2  0  0  0  0  0  0  0  0  0
   24.2098  -20.9708  -12.4655 N   0  0  0  0  0  0  0  0  0  0  0  0
   21.9902  -20.5774  -11.8131 C   0  0  0  0  0  0  0  0  0  0  0  0
   22.2625  -21.5430  -10.8594 O   0  0  0  0  0  0  0  0  0  0  0  0
   20.8786  -19.9726  -11.8258 O   0  0  0  0  0  0  0  0  0  0  0  0
  2  1  1  6
  2  3  1  0
  4  2  1  0
  4  5  2  0
  6  4  1  0
  7  6  1  0
  7  8  1  1
  8  9  1  0
  9 10  2  0
  9 14  1  0
 10 11  1  0
 11 12  2  0
 13 12  1  0
 14 13  2  0
 15  7  1  0
 16 15  2  0
 18 17  1  0
 19 18  1  0
 19 20  1  1
 21 19  1  0
 21 22  1  1
 22 15  1  0
 23 24  1  0
 23 21  1  0
 25 23  2  0
M  END
$$$$
