AFI.pdb
     RDKit          3D

 25 25  0  0  1  0  0  0  0  0999 V2000
   26.8923  -21.1968  -18.7228 C   0  0  0  0  0  0  0  0  0  0  0  0
   27.8167  -21.2627  -17.5249 C   0  0  2  0  0  0  0  0  0  0  0  0
   28.7968  -22.2730  -17.7782 N   0  0  0  0  0  0  0  0  0  0  0  0
   27.0182  -21.5486  -16.2932 C   0  0  0  0  0  0  0  0  0  0  0  0
   26.4408  -22.6635  -16.2138 O   0  0  0  0  0  0  0  0  0  0  0  0
   26.8750  -20.6518  -15.2252 N   0  0  0  0  0  0  0  0  0  0  0  0
   26.2129  -20.9491  -13.9754 C   0  0  1  0  0  0  0  0  0  0  0  0
   26.8454  -20.0648  -12.9208 C   0  0  0  0  0  0  0  0  0  0  0  0
   26.2692  -20.2566  -11.5908 C   0  0  0  0  0  0  0  0  0  0  0  0
   26.7657  -21.2547  -10.7795 C   0  0  0  0  0  0  0  0  0  0  0  0
   26.2670  -21.4908   -9.5106 C   0  0  0  0  0  0  0  0  0  0  0  0
   25.2463  -20.7136   -9.0339 C   0  0  0  0  0  0  0  0  0  0  0  0
   24.7368  -19.7126   -9.8274 C   0  0  0  0  0  0  0  0  0  0  0  0
   25.2441  -19.4882  -11.0916 C   0  0  0  0  0  0  0  0  0  0  0  0
   24.7925  -20.5426  -14.0831 C   0  0  0  0  0  0  0  0  0  0  0  0
   24.5438  -19.3879  -14.5395 O   0  0  0  0  0  0  0  0  0  0  0  0
   21.1520  -23.1834  -16.6040 C   0  0  0  0  0  0  0  0  0  0  0  0
   21.8752  -22.0012  -15.9579 C   0  0  0  0  0  0  0  0  0  0  0  0
   21.4841  -21.8485  -14.5157 C   0  0  2  0  0  0  0  0  0  0  0  0
   20.0100  -21.5656  -14.4482 C   0  0  0  0  0  0  0  0  0  0  0  0
   22.3679  -20.8717  -13.8299 C   0  0  2  0  0  0  0  0  0  0  0  0
   23.7250  -21.3968  -13.6956 N   0  0  0  0  0  0  0  0  0  0  0  0
   21.8945  -20.6158  -12.4520 C   0  0  0  0  0  0  0  0  0  0  0  0
   21.1671  -19.4730  -12.1673 O   0  0  0  0  0  0  0  0  0  0  0  0
   22.1686  -21.4539  -11.5443 O   0  0  0  0  0  0  0  0  0  0  0  0
  2  1  1  6
  2  3  1  0
  4  2  1  0
  4  5  2  0
  6  4  1  0
  7  6  1  0
  7  8  1  1
  8  9  1  0
  9 10  2  0
  9 14  1  0
 10 11  1  0
 11 12  2  0
 13 12  1  0
 14 13  2  0
 15  7  1  0
 16 15  2  0
 18 17  1  0
 19 18  1  0
 19 20  1  6
 21 19  1  0
 21 22  1  1
 22 15  1  0
 23 24  1  0
 23 21  1  0
 25 23  2  0
M  END
$$$$
