AFI.pdb
     RDKit          3D

 25 25  0  0  1  0  0  0  0  0999 V2000
   16.6358  -10.9741  -14.4574 C   0  0  0  0  0  0  0  0  0  0  0  0
   17.6541   -9.9096  -14.8090 C   0  0  2  0  0  0  0  0  0  0  0  0
   18.8782  -10.5652  -15.1516 N   0  0  0  0  0  0  0  0  0  0  0  0
   17.8196   -8.9757  -13.6529 C   0  0  0  0  0  0  0  0  0  0  0  0
   18.4673   -9.3857  -12.6553 O   0  0  0  0  0  0  0  0  0  0  0  0
   17.2981   -7.6750  -13.6140 N   0  0  0  0  0  0  0  0  0  0  0  0
   17.5634   -6.7055  -12.5755 C   0  0  1  0  0  0  0  0  0  0  0  0
   18.1818   -5.4976  -13.2483 C   0  0  0  0  0  0  0  0  0  0  0  0
   19.5744   -5.7095  -13.6396 C   0  0  0  0  0  0  0  0  0  0  0  0
   19.8582   -6.1106  -14.9279 C   0  0  0  0  0  0  0  0  0  0  0  0
   21.1528   -6.3292  -15.3645 C   0  0  0  0  0  0  0  0  0  0  0  0
   22.1952   -6.1443  -14.4972 C   0  0  0  0  0  0  0  0  0  0  0  0
   21.9336   -5.7443  -13.2076 C   0  0  0  0  0  0  0  0  0  0  0  0
   20.6368   -5.5299  -12.7855 C   0  0  0  0  0  0  0  0  0  0  0  0
   16.2725   -6.2636  -11.9988 C   0  0  0  0  0  0  0  0  0  0  0  0
   15.3036   -6.0833  -12.7939 O   0  0  0  0  0  0  0  0  0  0  0  0
   14.8135   -7.4163   -6.7844 C   0  0  0  0  0  0  0  0  0  0  0  0
   14.8205   -7.2467   -8.3040 C   0  0  0  0  0  0  0  0  0  0  0  0
   14.6230   -5.8087   -8.6904 C   0  0  2  0  0  0  0  0  0  0  0  0
   13.3317   -5.3267   -8.0922 C   0  0  0  0  0  0  0  0  0  0  0  0
   14.7684   -5.6317  -10.1577 C   0  0  2  0  0  0  0  0  0  0  0  0
   16.0973   -6.0415  -10.6061 N   0  0  0  0  0  0  0  0  0  0  0  0
   14.6381   -4.2055  -10.5278 C   0  0  0  0  0  0  0  0  0  0  0  0
   15.7325   -3.3621  -10.4437 O   0  0  0  0  0  0  0  0  0  0  0  0
   13.5139   -3.7735  -10.9166 O   0  0  0  0  0  0  0  0  0  0  0  0
  2  1  1  1
  2  3  1  0
  4  2  1  0
  4  5  2  0
  6  4  1  0
  7  6  1  0
  7  8  1  6
  8  9  1  0
  9 10  2  0
  9 14  1  0
 10 11  1  0
 11 12  2  0
 13 12  1  0
 14 13  2  0
 15  7  1  0
 16 15  2  0
 18 17  1  0
 19 18  1  0
 19 20  1  6
 21 19  1  0
 21 22  1  1
 22 15  1  0
 23 24  1  0
 23 21  1  0
 25 23  2  0
M  END
$$$$
