AFI.pdb
     RDKit          3D

 25 25  0  0  1  0  0  0  0  0999 V2000
   25.6225  -34.8606  -11.1406 C   0  0  0  0  0  0  0  0  0  0  0  0
   24.6375  -33.7209  -10.9838 C   0  0  2  0  0  0  0  0  0  0  0  0
   25.1138  -32.6158  -11.7568 N   0  0  0  0  0  0  0  0  0  0  0  0
   24.4985  -33.3769   -9.5352 C   0  0  0  0  0  0  0  0  0  0  0  0
   25.1627  -32.4025   -9.0970 O   0  0  0  0  0  0  0  0  0  0  0  0
   23.6751  -34.0727   -8.6389 N   0  0  0  0  0  0  0  0  0  0  0  0
   23.4766  -33.7217   -7.2511 C   0  0  1  0  0  0  0  0  0  0  0  0
   22.0838  -34.1829   -6.8751 C   0  0  0  0  0  0  0  0  0  0  0  0
   21.7756  -33.9817   -5.4601 C   0  0  0  0  0  0  0  0  0  0  0  0
   21.7122  -32.6981   -4.9608 C   0  0  0  0  0  0  0  0  0  0  0  0
   21.4256  -32.4362   -3.6327 C   0  0  0  0  0  0  0  0  0  0  0  0
   21.1955  -33.4786   -2.7762 C   0  0  0  0  0  0  0  0  0  0  0  0
   21.2540  -34.7668   -3.2544 C   0  0  0  0  0  0  0  0  0  0  0  0
   21.5410  -35.0134   -4.5821 C   0  0  0  0  0  0  0  0  0  0  0  0
   24.4265  -34.5018   -6.4244 C   0  0  0  0  0  0  0  0  0  0  0  0
   24.6560  -35.7000   -6.7640 O   0  0  0  0  0  0  0  0  0  0  0  0
   29.9002  -34.5886   -4.5170 C   0  0  0  0  0  0  0  0  0  0  0  0
   28.4872  -35.0608   -4.1730 C   0  0  0  0  0  0  0  0  0  0  0  0
   27.4530  -34.2637   -4.9156 C   0  0  2  0  0  0  0  0  0  0  0  0
   27.6828  -32.8054   -4.6360 C   0  0  0  0  0  0  0  0  0  0  0  0
   26.0881  -34.7753   -4.6313 C   0  0  2  0  0  0  0  0  0  0  0  0
   25.0730  -33.9520   -5.2846 N   0  0  0  0  0  0  0  0  0  0  0  0
   25.7950  -34.7061   -3.1830 C   0  0  0  0  0  0  0  0  0  0  0  0
   26.2427  -35.7037   -2.3342 O   0  0  0  0  0  0  0  0  0  0  0  0
   25.1287  -33.7263   -2.7387 O   0  0  0  0  0  0  0  0  0  0  0  0
  2  1  1  1
  2  3  1  0
  4  2  1  0
  4  5  2  0
  6  4  1  0
  7  6  1  0
  7  8  1  1
  8  9  1  0
  9 10  2  0
  9 14  1  0
 10 11  1  0
 11 12  2  0
 13 12  1  0
 14 13  2  0
 15  7  1  0
 16 15  2  0
 18 17  1  0
 19 18  1  0
 19 20  1  1
 21 19  1  0
 21 22  1  6
 22 15  1  0
 23 24  1  0
 23 21  1  0
 25 23  2  0
M  END
$$$$
