AFI.pdb
     RDKit          3D

 25 25  0  0  1  0  0  0  0  0999 V2000
   27.4925  -25.9657  -18.3218 C   0  0  0  0  0  0  0  0  0  0  0  0
   28.5835  -25.2598  -17.5438 C   0  0  2  0  0  0  0  0  0  0  0  0
   29.3208  -26.2490  -16.8202 N   0  0  0  0  0  0  0  0  0  0  0  0
   27.9707  -24.2396  -16.6383 C   0  0  0  0  0  0  0  0  0  0  0  0
   27.5742  -24.6215  -15.5071 O   0  0  0  0  0  0  0  0  0  0  0  0
   27.8122  -22.8875  -16.9731 N   0  0  0  0  0  0  0  0  0  0  0  0
   27.3895  -21.8506  -16.0593 C   0  0  1  0  0  0  0  0  0  0  0  0
   28.1551  -20.5975  -16.4307 C   0  0  0  0  0  0  0  0  0  0  0  0
   27.7259  -19.4194  -15.6788 C   0  0  0  0  0  0  0  0  0  0  0  0
   27.0597  -18.4070  -16.3362 C   0  0  0  0  0  0  0  0  0  0  0  0
   26.6258  -17.2652  -15.6860 C   0  0  0  0  0  0  0  0  0  0  0  0
   26.8603  -17.1249  -14.3450 C   0  0  0  0  0  0  0  0  0  0  0  0
   27.5233  -18.1234  -13.6705 C   0  0  0  0  0  0  0  0  0  0  0  0
   27.9506  -19.2573  -14.3320 C   0  0  0  0  0  0  0  0  0  0  0  0
   25.9554  -21.5654  -16.2967 C   0  0  0  0  0  0  0  0  0  0  0  0
   25.5384  -21.5998  -17.4919 O   0  0  0  0  0  0  0  0  0  0  0  0
   20.4547  -22.8031  -14.7799 C   0  0  0  0  0  0  0  0  0  0  0  0
   21.3148  -21.5640  -15.0308 C   0  0  0  0  0  0  0  0  0  0  0  0
   22.7561  -21.8281  -14.7006 C   0  0  2  0  0  0  0  0  0  0  0  0
   22.9546  -21.6167  -13.2263 C   0  0  0  0  0  0  0  0  0  0  0  0
   23.6530  -21.0551  -15.5971 C   0  0  2  0  0  0  0  0  0  0  0  0
   25.0550  -21.2609  -15.2403 N   0  0  0  0  0  0  0  0  0  0  0  0
   23.4082  -19.6031  -15.4562 C   0  0  0  0  0  0  0  0  0  0  0  0
   24.1615  -18.8534  -14.5692 O   0  0  0  0  0  0  0  0  0  0  0  0
   22.5008  -19.0641  -16.1544 O   0  0  0  0  0  0  0  0  0  0  0  0
  2  1  1  1
  2  3  1  0
  4  2  1  0
  4  5  2  0
  6  4  1  0
  7  6  1  0
  7  8  1  6
  8  9  1  0
  9 10  2  0
  9 14  1  0
 10 11  1  0
 11 12  2  0
 13 12  1  0
 14 13  2  0
 15  7  1  0
 16 15  2  0
 18 17  1  0
 19 18  1  0
 19 20  1  1
 21 19  1  0
 21 22  1  1
 22 15  1  0
 23 24  1  0
 23 21  1  0
 25 23  2  0
M  END
$$$$
