AFI.pdb
     RDKit          3D

 25 25  0  0  1  0  0  0  0  0999 V2000
   18.4299  -16.4246  -20.0976 C   0  0  0  0  0  0  0  0  0  0  0  0
   19.1622  -16.7954  -18.8248 C   0  0  2  0  0  0  0  0  0  0  0  0
   18.9616  -18.1920  -18.5905 N   0  0  0  0  0  0  0  0  0  0  0  0
   18.6561  -15.9563  -17.6952 C   0  0  0  0  0  0  0  0  0  0  0  0
   17.4557  -16.1020  -17.3477 O   0  0  0  0  0  0  0  0  0  0  0  0
   19.4363  -15.0200  -17.0023 N   0  0  0  0  0  0  0  0  0  0  0  0
   18.9812  -14.2264  -15.8834 C   0  0  1  0  0  0  0  0  0  0  0  0
   20.0420  -14.3329  -14.8076 C   0  0  0  0  0  0  0  0  0  0  0  0
   20.0522  -15.6331  -14.1391 C   0  0  0  0  0  0  0  0  0  0  0  0
   19.1233  -15.8906  -13.1532 C   0  0  0  0  0  0  0  0  0  0  0  0
   19.0768  -17.0988  -12.4805 C   0  0  0  0  0  0  0  0  0  0  0  0
   19.9783  -18.0792  -12.7959 C   0  0  0  0  0  0  0  0  0  0  0  0
   20.9131  -17.8424  -13.7764 C   0  0  0  0  0  0  0  0  0  0  0  0
   20.9480  -16.6320  -14.4394 C   0  0  0  0  0  0  0  0  0  0  0  0
   18.9307  -12.8057  -16.2996 C   0  0  0  0  0  0  0  0  0  0  0  0
   19.9118  -12.3499  -16.9577 O   0  0  0  0  0  0  0  0  0  0  0  0
   14.3953  -10.4973  -18.0882 C   0  0  0  0  0  0  0  0  0  0  0  0
   15.8718  -10.8604  -17.9269 C   0  0  0  0  0  0  0  0  0  0  0  0
   16.4970  -10.0988  -16.7932 C   0  0  2  0  0  0  0  0  0  0  0  0
   16.3752   -8.6291  -17.0808 C   0  0  0  0  0  0  0  0  0  0  0  0
   17.8679  -10.5977  -16.5150 C   0  0  2  0  0  0  0  0  0  0  0  0
   17.8330  -11.9593  -15.9859 N   0  0  0  0  0  0  0  0  0  0  0  0
   18.5223   -9.7754  -15.4739 C   0  0  0  0  0  0  0  0  0  0  0  0
   19.3237   -8.7056  -15.8341 O   0  0  0  0  0  0  0  0  0  0  0  0
   18.3397  -10.0689  -14.2566 O   0  0  0  0  0  0  0  0  0  0  0  0
  2  1  1  6
  2  3  1  0
  4  2  1  0
  4  5  2  0
  6  4  1  0
  7  6  1  0
  7  8  1  1
  8  9  1  0
  9 10  2  0
  9 14  1  0
 10 11  1  0
 11 12  2  0
 13 12  1  0
 14 13  2  0
 15  7  1  0
 16 15  2  0
 18 17  1  0
 19 18  1  0
 19 20  1  6
 21 19  1  0
 21 22  1  1
 22 15  1  0
 23 24  1  0
 23 21  1  0
 25 23  2  0
M  END
$$$$
