AFI.pdb
     RDKit          3D

 25 25  0  0  1  0  0  0  0  0999 V2000
   25.8719  -19.2809  -18.9753 C   0  0  0  0  0  0  0  0  0  0  0  0
   26.9256  -19.3542  -17.8900 C   0  0  2  0  0  0  0  0  0  0  0  0
   28.0677  -20.0266  -18.4277 N   0  0  0  0  0  0  0  0  0  0  0  0
   26.3655  -20.0613  -16.6973 C   0  0  0  0  0  0  0  0  0  0  0  0
   25.9474  -21.2373  -16.8549 O   0  0  0  0  0  0  0  0  0  0  0  0
   26.2785  -19.4942  -15.4181 N   0  0  0  0  0  0  0  0  0  0  0  0
   25.7365  -20.1551  -14.2527 C   0  0  1  0  0  0  0  0  0  0  0  0
   26.3253  -19.4636  -13.0406 C   0  0  0  0  0  0  0  0  0  0  0  0
   25.8774  -20.0437  -11.7755 C   0  0  0  0  0  0  0  0  0  0  0  0
   24.7085  -19.5891  -11.2028 C   0  0  0  0  0  0  0  0  0  0  0  0
   24.2272  -20.0939  -10.0078 C   0  0  0  0  0  0  0  0  0  0  0  0
   24.9266  -21.0781   -9.3632 C   0  0  0  0  0  0  0  0  0  0  0  0
   26.0951  -21.5455   -9.9178 C   0  0  0  0  0  0  0  0  0  0  0  0
   26.5636  -21.0326  -11.1109 C   0  0  0  0  0  0  0  0  0  0  0  0
   24.2741  -19.9224  -14.2132 C   0  0  0  0  0  0  0  0  0  0  0  0
   23.8575  -18.7516  -14.4564 O   0  0  0  0  0  0  0  0  0  0  0  0
   19.0070  -21.2325  -16.2369 C   0  0  0  0  0  0  0  0  0  0  0  0
   19.7476  -20.7656  -14.9833 C   0  0  0  0  0  0  0  0  0  0  0  0
   21.2060  -21.1189  -15.0516 C   0  0  2  0  0  0  0  0  0  0  0  0
   21.3283  -22.5961  -15.2976 C   0  0  0  0  0  0  0  0  0  0  0  0
   21.9324  -20.5924  -13.8682 C   0  0  2  0  0  0  0  0  0  0  0  0
   23.3466  -20.9573  -13.9160 N   0  0  0  0  0  0  0  0  0  0  0  0
   21.4026  -21.1875  -12.6219 C   0  0  0  0  0  0  0  0  0  0  0  0
   21.9206  -22.3793  -12.1450 O   0  0  0  0  0  0  0  0  0  0  0  0
   20.4707  -20.5923  -12.0065 O   0  0  0  0  0  0  0  0  0  0  0  0
  2  1  1  6
  2  3  1  0
  4  2  1  0
  4  5  2  0
  6  4  1  0
  7  6  1  0
  7  8  1  1
  8  9  1  0
  9 10  2  0
  9 14  1  0
 10 11  1  0
 11 12  2  0
 13 12  1  0
 14 13  2  0
 15  7  1  0
 16 15  2  0
 18 17  1  0
 19 18  1  0
 19 20  1  1
 21 19  1  0
 21 22  1  6
 22 15  1  0
 23 24  1  0
 23 21  1  0
 25 23  2  0
M  END
$$$$
