AFI.pdb
     RDKit          3D

 25 25  0  0  1  0  0  0  0  0999 V2000
   29.3027  -19.5286  -13.8280 C   0  0  0  0  0  0  0  0  0  0  0  0
   27.9052  -20.0841  -14.0073 C   0  0  2  0  0  0  0  0  0  0  0  0
   27.3615  -19.5326  -15.2097 N   0  0  0  0  0  0  0  0  0  0  0  0
   27.0767  -19.7481  -12.8085 C   0  0  0  0  0  0  0  0  0  0  0  0
   26.8040  -18.5371  -12.6043 O   0  0  0  0  0  0  0  0  0  0  0  0
   26.5873  -20.6985  -11.9015 N   0  0  0  0  0  0  0  0  0  0  0  0
   25.7599  -20.4015  -10.7544 C   0  0  1  0  0  0  0  0  0  0  0  0
   24.4888  -21.2109  -10.9070 C   0  0  0  0  0  0  0  0  0  0  0  0
   23.5443  -20.6221  -11.8551 C   0  0  0  0  0  0  0  0  0  0  0  0
   22.6602  -19.6599  -11.4150 C   0  0  0  0  0  0  0  0  0  0  0  0
   21.7405  -19.0618  -12.2582 C   0  0  0  0  0  0  0  0  0  0  0  0
   21.6977  -19.4295  -13.5758 C   0  0  0  0  0  0  0  0  0  0  0  0
   22.5711  -20.3875  -14.0349 C   0  0  0  0  0  0  0  0  0  0  0  0
   23.4836  -20.9761  -13.1822 C   0  0  0  0  0  0  0  0  0  0  0  0
   26.4425  -20.8969   -9.5367 C   0  0  0  0  0  0  0  0  0  0  0  0
   26.8821  -22.0844   -9.5501 O   0  0  0  0  0  0  0  0  0  0  0  0
   29.6241  -19.3371   -4.5501 C   0  0  0  0  0  0  0  0  0  0  0  0
   28.7570  -20.3475   -5.3019 C   0  0  0  0  0  0  0  0  0  0  0  0
   28.0730  -19.7076   -6.4762 C   0  0  2  0  0  0  0  0  0  0  0  0
   27.3300  -18.4944   -5.9929 C   0  0  0  0  0  0  0  0  0  0  0  0
   27.2718  -20.7064   -7.2287 C   0  0  2  0  0  0  0  0  0  0  0  0
   26.6130  -20.0911   -8.3787 N   0  0  0  0  0  0  0  0  0  0  0  0
   26.1866  -21.2502   -6.3833 C   0  0  0  0  0  0  0  0  0  0  0  0
   26.4809  -22.1205   -5.3479 O   0  0  0  0  0  0  0  0  0  0  0  0
   24.9920  -20.9098   -6.6256 O   0  0  0  0  0  0  0  0  0  0  0  0
  2  1  1  1
  2  3  1  0
  4  2  1  0
  4  5  2  0
  6  4  1  0
  7  6  1  0
  7  8  1  6
  8  9  1  0
  9 10  2  0
  9 14  1  0
 10 11  1  0
 11 12  2  0
 13 12  1  0
 14 13  2  0
 15  7  1  0
 16 15  2  0
 18 17  1  0
 19 18  1  0
 19 20  1  1
 21 19  1  0
 21 22  1  6
 22 15  1  0
 23 24  1  0
 23 21  1  0
 25 23  2  0
M  END
$$$$
