AFI.pdb
     RDKit          3D

 25 25  0  0  1  0  0  0  0  0999 V2000
   26.9657  -20.7762  -17.1352 C   0  0  0  0  0  0  0  0  0  0  0  0
   27.5873  -21.7570  -16.1629 C   0  0  2  0  0  0  0  0  0  0  0  0
   27.6691  -23.0295  -16.8106 N   0  0  0  0  0  0  0  0  0  0  0  0
   26.7651  -21.8119  -14.9150 C   0  0  0  0  0  0  0  0  0  0  0  0
   25.6870  -22.4594  -14.9505 O   0  0  0  0  0  0  0  0  0  0  0  0
   27.1223  -21.1873  -13.7118 N   0  0  0  0  0  0  0  0  0  0  0  0
   26.3765  -21.2771  -12.4771 C   0  0  1  0  0  0  0  0  0  0  0  0
   27.2455  -20.6742  -11.3929 C   0  0  0  0  0  0  0  0  0  0  0  0
   26.5563  -20.5476  -10.1098 C   0  0  0  0  0  0  0  0  0  0  0  0
   25.7578  -21.5819   -9.6696 C   0  0  0  0  0  0  0  0  0  0  0  0
   25.0774  -21.5281   -8.4659 C   0  0  0  0  0  0  0  0  0  0  0  0
   25.1933  -20.4157   -7.6771 C   0  0  0  0  0  0  0  0  0  0  0  0
   25.9849  -19.3728   -8.0980 C   0  0  0  0  0  0  0  0  0  0  0  0
   26.6581  -19.4401   -9.3014 C   0  0  0  0  0  0  0  0  0  0  0  0
   25.1715  -20.4228  -12.5881 C   0  0  0  0  0  0  0  0  0  0  0  0
   25.3432  -19.1906  -12.8245 O   0  0  0  0  0  0  0  0  0  0  0  0
   21.0745  -21.5568  -15.6700 C   0  0  0  0  0  0  0  0  0  0  0  0
   21.6249  -21.4524  -14.2473 C   0  0  0  0  0  0  0  0  0  0  0  0
   22.1861  -20.0847  -13.9817 C   0  0  2  0  0  0  0  0  0  0  0  0
   23.1227  -19.7274  -15.1009 C   0  0  0  0  0  0  0  0  0  0  0  0
   22.7479  -20.0021  -12.6095 C   0  0  2  0  0  0  0  0  0  0  0  0
   23.8560  -20.9394  -12.4394 N   0  0  0  0  0  0  0  0  0  0  0  0
   21.7331  -20.3883  -11.6049 C   0  0  0  0  0  0  0  0  0  0  0  0
   21.8683  -21.5710  -10.8985 O   0  0  0  0  0  0  0  0  0  0  0  0
   20.7440  -19.6238  -11.4078 O   0  0  0  0  0  0  0  0  0  0  0  0
  2  1  1  6
  2  3  1  0
  4  2  1  0
  4  5  2  0
  6  4  1  0
  7  6  1  0
  7  8  1  1
  8  9  1  0
  9 10  2  0
  9 14  1  0
 10 11  1  0
 11 12  2  0
 13 12  1  0
 14 13  2  0
 15  7  1  0
 16 15  2  0
 18 17  1  0
 19 18  1  0
 19 20  1  6
 21 19  1  0
 21 22  1  6
 22 15  1  0
 23 24  1  0
 23 21  1  0
 25 23  2  0
M  END
$$$$
