AFI.pdb
     RDKit          3D

 25 25  0  0  1  0  0  0  0  0999 V2000
   30.4389  -20.7337  -11.7647 C   0  0  0  0  0  0  0  0  0  0  0  0
   30.4532  -21.2093  -10.3269 C   0  0  2  0  0  0  0  0  0  0  0  0
   31.1603  -22.4516  -10.2795 N   0  0  0  0  0  0  0  0  0  0  0  0
   29.0488  -21.3412   -9.8306 C   0  0  0  0  0  0  0  0  0  0  0  0
   28.4662  -22.4427  -10.0036 O   0  0  0  0  0  0  0  0  0  0  0  0
   28.3445  -20.3144   -9.1862 N   0  0  0  0  0  0  0  0  0  0  0  0
   26.9842  -20.4145   -8.7083 C   0  0  1  0  0  0  0  0  0  0  0  0
   26.7964  -19.3171   -7.6814 C   0  0  0  0  0  0  0  0  0  0  0  0
   27.5369  -19.5572   -6.4438 C   0  0  0  0  0  0  0  0  0  0  0  0
   27.1956  -20.6338   -5.6530 C   0  0  0  0  0  0  0  0  0  0  0  0
   27.8543  -20.9189   -4.4701 C   0  0  0  0  0  0  0  0  0  0  0  0
   28.8811  -20.1118   -4.0608 C   0  0  0  0  0  0  0  0  0  0  0  0
   29.2372  -19.0325   -4.8352 C   0  0  0  0  0  0  0  0  0  0  0  0
   28.5711  -18.7600   -6.0134 C   0  0  0  0  0  0  0  0  0  0  0  0
   26.0646  -20.1163   -9.8306 C   0  0  0  0  0  0  0  0  0  0  0  0
   26.2295  -19.0259  -10.4529 O   0  0  0  0  0  0  0  0  0  0  0  0
   26.1414  -22.8570  -13.8889 C   0  0  0  0  0  0  0  0  0  0  0  0
   25.8961  -21.7110  -12.9067 C   0  0  0  0  0  0  0  0  0  0  0  0
   24.4548  -21.6550  -12.4876 C   0  0  2  0  0  0  0  0  0  0  0  0
   23.6069  -21.4813  -13.7158 C   0  0  0  0  0  0  0  0  0  0  0  0
   24.2570  -20.6512  -11.4111 C   0  0  2  0  0  0  0  0  0  0  0  0
   25.0243  -21.0034  -10.2184 N   0  0  0  0  0  0  0  0  0  0  0  0
   22.8410  -20.6134  -10.9851 C   0  0  0  0  0  0  0  0  0  0  0  0
   21.8989  -19.9580  -11.7592 O   0  0  0  0  0  0  0  0  0  0  0  0
   22.5104  -21.1844   -9.9053 O   0  0  0  0  0  0  0  0  0  0  0  0
  2  1  1  6
  2  3  1  0
  4  2  1  0
  4  5  2  0
  6  4  1  0
  7  6  1  0
  7  8  1  1
  8  9  1  0
  9 10  2  0
  9 14  1  0
 10 11  1  0
 11 12  2  0
 13 12  1  0
 14 13  2  0
 15  7  1  0
 16 15  2  0
 18 17  1  0
 19 18  1  0
 19 20  1  6
 21 19  1  0
 21 22  1  1
 22 15  1  0
 23 24  1  0
 23 21  1  0
 25 23  2  0
M  END
$$$$
