AFI.pdb
     RDKit          3D

 25 25  0  0  1  0  0  0  0  0999 V2000
   27.2884  -21.3441  -16.9286 C   0  0  0  0  0  0  0  0  0  0  0  0
   27.9928  -22.2350  -15.9267 C   0  0  2  0  0  0  0  0  0  0  0  0
   28.0002  -23.5668  -16.4483 N   0  0  0  0  0  0  0  0  0  0  0  0
   27.2953  -22.1509  -14.6067 C   0  0  0  0  0  0  0  0  0  0  0  0
   26.3012  -22.8988  -14.4194 O   0  0  0  0  0  0  0  0  0  0  0  0
   27.6813  -21.2913  -13.5686 N   0  0  0  0  0  0  0  0  0  0  0  0
   27.0921  -21.2671  -12.2491 C   0  0  1  0  0  0  0  0  0  0  0  0
   28.0164  -20.4516  -11.3690 C   0  0  0  0  0  0  0  0  0  0  0  0
   27.5263  -20.3098   -9.9988 C   0  0  0  0  0  0  0  0  0  0  0  0
   27.9827  -21.1754   -9.0276 C   0  0  0  0  0  0  0  0  0  0  0  0
   27.5606  -21.0975   -7.7122 C   0  0  0  0  0  0  0  0  0  0  0  0
   26.6597  -20.1325   -7.3511 C   0  0  0  0  0  0  0  0  0  0  0  0
   26.1921  -19.2591   -8.3049 C   0  0  0  0  0  0  0  0  0  0  0  0
   26.6219  -19.3484   -9.6138 C   0  0  0  0  0  0  0  0  0  0  0  0
   25.8060  -20.5354  -12.3177 C   0  0  0  0  0  0  0  0  0  0  0  0
   25.8055  -19.3964  -12.8710 O   0  0  0  0  0  0  0  0  0  0  0  0
   22.6772  -21.6012  -15.6405 C   0  0  0  0  0  0  0  0  0  0  0  0
   23.3860  -20.8654  -14.5029 C   0  0  0  0  0  0  0  0  0  0  0  0
   22.6309  -21.0065  -13.2121 C   0  0  2  0  0  0  0  0  0  0  0  0
   21.2174  -20.5475  -13.4333 C   0  0  0  0  0  0  0  0  0  0  0  0
   23.3628  -20.3513  -12.0983 C   0  0  2  0  0  0  0  0  0  0  0  0
   24.5986  -21.0675  -11.7899 N   0  0  0  0  0  0  0  0  0  0  0  0
   22.5587  -20.3780  -10.8570 C   0  0  0  0  0  0  0  0  0  0  0  0
   21.5649  -19.4365  -10.6514 O   0  0  0  0  0  0  0  0  0  0  0  0
   22.7976  -21.2695   -9.9912 O   0  0  0  0  0  0  0  0  0  0  0  0
  2  1  1  6
  2  3  1  0
  4  2  1  0
  4  5  2  0
  6  4  1  0
  7  6  1  0
  7  8  1  1
  8  9  1  0
  9 10  2  0
  9 14  1  0
 10 11  1  0
 11 12  2  0
 13 12  1  0
 14 13  2  0
 15  7  1  0
 16 15  2  0
 18 17  1  0
 19 18  1  0
 19 20  1  6
 21 19  1  0
 21 22  1  1
 22 15  1  0
 23 24  1  0
 23 21  1  0
 25 23  2  0
M  END
$$$$
