AFI.pdb
     RDKit          3D

 25 25  0  0  1  0  0  0  0  0999 V2000
   27.1410  -20.5660  -16.8953 C   0  0  0  0  0  0  0  0  0  0  0  0
   28.0013  -21.4262  -15.9932 C   0  0  2  0  0  0  0  0  0  0  0  0
   28.2014  -22.6848  -16.6424 N   0  0  0  0  0  0  0  0  0  0  0  0
   27.3341  -21.5780  -14.6635 C   0  0  0  0  0  0  0  0  0  0  0  0
   26.4759  -22.4893  -14.5380 O   0  0  0  0  0  0  0  0  0  0  0  0
   27.6067  -20.7684  -13.5518 N   0  0  0  0  0  0  0  0  0  0  0  0
   26.9983  -20.9156  -12.2491 C   0  0  1  0  0  0  0  0  0  0  0  0
   27.8094  -20.0731  -11.2866 C   0  0  0  0  0  0  0  0  0  0  0  0
   27.3154  -20.1370   -9.9120 C   0  0  0  0  0  0  0  0  0  0  0  0
   26.5717  -19.0881   -9.4144 C   0  0  0  0  0  0  0  0  0  0  0  0
   26.0737  -19.0835   -8.1234 C   0  0  0  0  0  0  0  0  0  0  0  0
   26.3213  -20.1510   -7.3035 C   0  0  0  0  0  0  0  0  0  0  0  0
   27.0611  -21.2076   -7.7806 C   0  0  0  0  0  0  0  0  0  0  0  0
   27.5518  -21.1987   -9.0710 C   0  0  0  0  0  0  0  0  0  0  0  0
   25.6380  -20.3308  -12.2926 C   0  0  0  0  0  0  0  0  0  0  0  0
   25.5165  -19.1563  -12.7499 O   0  0  0  0  0  0  0  0  0  0  0  0
   22.2714  -20.5589  -15.8134 C   0  0  0  0  0  0  0  0  0  0  0  0
   22.7872  -19.9848  -14.4934 C   0  0  0  0  0  0  0  0  0  0  0  0
   22.6010  -20.9615  -13.3675 C   0  0  2  0  0  0  0  0  0  0  0  0
   21.1509  -21.3505  -13.3080 C   0  0  0  0  0  0  0  0  0  0  0  0
   23.1871  -20.4340  -12.1091 C   0  0  2  0  0  0  0  0  0  0  0  0
   24.4905  -21.0390  -11.8438 N   0  0  0  0  0  0  0  0  0  0  0  0
   22.3361  -20.7813  -10.9501 C   0  0  0  0  0  0  0  0  0  0  0  0
   21.0610  -20.2539  -10.8404 O   0  0  0  0  0  0  0  0  0  0  0  0
   22.7944  -21.5614  -10.0652 O   0  0  0  0  0  0  0  0  0  0  0  0
  2  1  1  6
  2  3  1  0
  4  2  1  0
  4  5  2  0
  6  4  1  0
  7  6  1  0
  7  8  1  1
  8  9  1  0
  9 10  2  0
  9 14  1  0
 10 11  1  0
 11 12  2  0
 13 12  1  0
 14 13  2  0
 15  7  1  0
 16 15  2  0
 18 17  1  0
 19 18  1  0
 19 20  1  1
 21 19  1  0
 21 22  1  1
 22 15  1  0
 23 24  1  0
 23 21  1  0
 25 23  2  0
M  END
$$$$
