AFI.pdb
     RDKit          3D

 25 25  0  0  1  0  0  0  0  0999 V2000
   28.5828  -20.0067  -13.9440 C   0  0  0  0  0  0  0  0  0  0  0  0
   29.4267  -21.0020  -13.1752 C   0  0  2  0  0  0  0  0  0  0  0  0
   29.5164  -22.1989  -13.9529 N   0  0  0  0  0  0  0  0  0  0  0  0
   28.8124  -21.2464  -11.8338 C   0  0  0  0  0  0  0  0  0  0  0  0
   27.9463  -22.1541  -11.7415 O   0  0  0  0  0  0  0  0  0  0  0  0
   29.1427  -20.5271  -10.6767 N   0  0  0  0  0  0  0  0  0  0  0  0
   28.5542  -20.7364   -9.3734 C   0  0  1  0  0  0  0  0  0  0  0  0
   29.3455  -19.8959   -8.3928 C   0  0  0  0  0  0  0  0  0  0  0  0
   28.8093  -19.9438   -7.0334 C   0  0  0  0  0  0  0  0  0  0  0  0
   27.9941  -18.9220   -6.5948 C   0  0  0  0  0  0  0  0  0  0  0  0
   27.4532  -18.9044   -5.3214 C   0  0  0  0  0  0  0  0  0  0  0  0
   27.7297  -19.9307   -4.4591 C   0  0  0  0  0  0  0  0  0  0  0  0
   28.5408  -20.9597   -4.8771 C   0  0  0  0  0  0  0  0  0  0  0  0
   29.0737  -20.9642   -6.1507 C   0  0  0  0  0  0  0  0  0  0  0  0
   27.1737  -20.1996   -9.3850 C   0  0  0  0  0  0  0  0  0  0  0  0
   27.0134  -18.9953   -9.7422 O   0  0  0  0  0  0  0  0  0  0  0  0
   24.4884  -20.9112  -13.0275 C   0  0  0  0  0  0  0  0  0  0  0  0
   24.9844  -20.3475  -11.6954 C   0  0  0  0  0  0  0  0  0  0  0  0
   24.1694  -20.8715  -10.5476 C   0  0  2  0  0  0  0  0  0  0  0  0
   22.7247  -20.5443  -10.7993 C   0  0  0  0  0  0  0  0  0  0  0  0
   24.7265  -20.4095   -9.2507 C   0  0  2  0  0  0  0  0  0  0  0  0
   26.0488  -20.9844   -9.0135 N   0  0  0  0  0  0  0  0  0  0  0  0
   23.8796  -20.8641   -8.1263 C   0  0  0  0  0  0  0  0  0  0  0  0
   22.6377  -20.2906   -7.9145 O   0  0  0  0  0  0  0  0  0  0  0  0
   24.3110  -21.7783   -7.3649 O   0  0  0  0  0  0  0  0  0  0  0  0
  2  1  1  6
  2  3  1  0
  4  2  1  0
  4  5  2  0
  6  4  1  0
  7  6  1  0
  7  8  1  1
  8  9  1  0
  9 10  2  0
  9 14  1  0
 10 11  1  0
 11 12  2  0
 13 12  1  0
 14 13  2  0
 15  7  1  0
 16 15  2  0
 18 17  1  0
 19 18  1  0
 19 20  1  6
 21 19  1  0
 21 22  1  1
 22 15  1  0
 23 24  1  0
 23 21  1  0
 25 23  2  0
M  END
$$$$
