AFI.pdb
     RDKit          3D

 25 25  0  0  1  0  0  0  0  0999 V2000
   29.8207  -17.5555  -16.0959 C   0  0  0  0  0  0  0  0  0  0  0  0
   28.8629  -18.7070  -16.3205 C   0  0  2  0  0  0  0  0  0  0  0  0
   28.3742  -18.6200  -17.6618 N   0  0  0  0  0  0  0  0  0  0  0  0
   27.7593  -18.6421  -15.3135 C   0  0  0  0  0  0  0  0  0  0  0  0
   27.2540  -17.5163  -15.0683 O   0  0  0  0  0  0  0  0  0  0  0  0
   27.2555  -19.7567  -14.6285 N   0  0  0  0  0  0  0  0  0  0  0  0
   26.0915  -19.7477  -13.7718 C   0  0  1  0  0  0  0  0  0  0  0  0
   24.9792  -20.4387  -14.5330 C   0  0  0  0  0  0  0  0  0  0  0  0
   23.7165  -20.4739  -13.7967 C   0  0  0  0  0  0  0  0  0  0  0  0
   23.3231  -21.6482  -13.1906 C   0  0  0  0  0  0  0  0  0  0  0  0
   22.1411  -21.7512  -12.4787 C   0  0  0  0  0  0  0  0  0  0  0  0
   21.3267  -20.6571  -12.3656 C   0  0  0  0  0  0  0  0  0  0  0  0
   21.7009  -19.4761  -12.9628 C   0  0  0  0  0  0  0  0  0  0  0  0
   22.8832  -19.3877  -13.6701 C   0  0  0  0  0  0  0  0  0  0  0  0
   26.3757  -20.5764  -12.5774 C   0  0  0  0  0  0  0  0  0  0  0  0
   26.9036  -21.7127  -12.7614 O   0  0  0  0  0  0  0  0  0  0  0  0
   27.4422  -19.0957   -7.2542 C   0  0  0  0  0  0  0  0  0  0  0  0
   26.5765  -19.4554   -8.4622 C   0  0  0  0  0  0  0  0  0  0  0  0
   27.0527  -20.7229   -9.1127 C   0  0  2  0  0  0  0  0  0  0  0  0
   28.4918  -20.5458   -9.5065 C   0  0  0  0  0  0  0  0  0  0  0  0
   26.1265  -21.1402  -10.1960 C   0  0  2  0  0  0  0  0  0  0  0  0
   26.0776  -20.1385  -11.2588 N   0  0  0  0  0  0  0  0  0  0  0  0
   24.7431  -21.2566   -9.6853 C   0  0  0  0  0  0  0  0  0  0  0  0
   24.4192  -22.2463   -8.7732 O   0  0  0  0  0  0  0  0  0  0  0  0
   23.8669  -20.4422  -10.0980 O   0  0  0  0  0  0  0  0  0  0  0  0
  2  1  1  1
  2  3  1  0
  4  2  1  0
  4  5  2  0
  6  4  1  0
  7  6  1  0
  7  8  1  6
  8  9  1  0
  9 10  2  0
  9 14  1  0
 10 11  1  0
 11 12  2  0
 13 12  1  0
 14 13  2  0
 15  7  1  0
 16 15  2  0
 18 17  1  0
 19 18  1  0
 19 20  1  6
 21 19  1  0
 21 22  1  6
 22 15  1  0
 23 24  1  0
 23 21  1  0
 25 23  2  0
M  END
$$$$
