KLA.pdb
     RDKit          3D

 23 22  0  0  1  0  0  0  0  0999 V2000
   28.4966  -21.1335  -16.6447 N   0  0  0  0  0  0  0  0  0  0  0  0
   28.0708  -20.2062  -15.6449 C   0  0  1  0  0  0  0  0  0  0  0  0
   27.5665  -18.9543  -16.3253 C   0  0  0  0  0  0  0  0  0  0  0  0
   28.7615  -18.2136  -16.8579 C   0  0  0  0  0  0  0  0  0  0  0  0
   28.6959  -17.9730  -18.3473 C   0  0  0  0  0  0  0  0  0  0  0  0
   29.8244  -17.1116  -18.8429 C   0  0  0  0  0  0  0  0  0  0  0  0
   29.7177  -17.0474  -20.2936 N   0  0  0  0  0  0  0  0  0  0  0  0
   27.0735  -20.8109  -14.7453 C   0  0  0  0  0  0  0  0  0  0  0  0
   26.2371  -21.6870  -15.1624 O   0  0  0  0  0  0  0  0  0  0  0  0
   25.7194  -20.1961   -8.7000 C   0  0  0  0  0  0  0  0  0  0  0  0
   25.2860  -20.7916  -10.0478 C   0  0  2  0  0  0  0  0  0  0  0  0
   25.0432  -22.2400   -9.8232 C   0  0  0  0  0  0  0  0  0  0  0  0
   26.3140  -20.4263  -11.0361 C   0  0  0  0  0  0  0  0  0  0  0  0
   26.0384  -20.7830  -12.4604 C   0  0  2  0  0  0  0  0  0  0  0  0
   27.0514  -20.4016  -13.3839 N   0  0  0  0  0  0  0  0  0  0  0  0
   24.6708  -20.3368  -12.8691 C   0  0  0  0  0  0  0  0  0  0  0  0
   24.4438  -19.0989  -12.8913 O   0  0  0  0  0  0  0  0  0  0  0  0
   21.8845  -21.5175  -14.8811 C   0  0  0  0  0  0  0  0  0  0  0  0
   22.3112  -20.7657  -13.6531 C   0  0  2  0  0  0  0  0  0  0  0  0
   23.6312  -21.2010  -13.2268 N   0  0  0  0  0  0  0  0  0  0  0  0
   21.2943  -20.9991  -12.5945 C   0  0  0  0  0  0  0  0  0  0  0  0
   21.6403  -21.6654  -11.5888 O   0  0  0  0  0  0  0  0  0  0  0  0
   20.0141  -20.4898  -12.7331 O   0  0  0  0  0  0  0  0  0  0  0  0
  2  8  1  0
  2  1  1  6
  3  2  1  0
  4  3  1  0
  5  4  1  0
  6  5  1  0
  6  7  1  0
  8  9  2  0
 11 10  1  1
 11 12  1  0
 14 13  1  1
 13 11  1  0
 15 14  1  0
 15  8  1  0
 16 17  2  0
 16 14  1  0
 19 18  1  6
 19 21  1  0
 19 20  1  0
 20 16  1  0
 21 23  1  0
 22 21  2  0
M  END
$$$$
