KLA.pdb
     RDKit          3D

 23 22  0  0  1  0  0  0  0  0999 V2000
   20.2269  -20.6836  -12.6001 N   0  0  0  0  0  0  0  0  0  0  0  0
   21.1336  -21.0117  -13.6541 C   0  0  1  0  0  0  0  0  0  0  0  0
   20.4341  -20.8097  -14.9786 C   0  0  0  0  0  0  0  0  0  0  0  0
   19.5870  -22.0250  -15.2353 C   0  0  0  0  0  0  0  0  0  0  0  0
   20.3865  -23.3047  -15.2941 C   0  0  0  0  0  0  0  0  0  0  0  0
   19.5485  -24.4913  -15.6826 C   0  0  0  0  0  0  0  0  0  0  0  0
   19.3232  -25.2777  -14.4781 N   0  0  0  0  0  0  0  0  0  0  0  0
   22.3838  -20.2406  -13.5429 C   0  0  0  0  0  0  0  0  0  0  0  0
   22.3836  -18.9596  -13.5329 O   0  0  0  0  0  0  0  0  0  0  0  0
   25.2256  -19.8185  -10.4285 C   0  0  0  0  0  0  0  0  0  0  0  0
   25.4385  -21.2039  -11.0564 C   0  0  2  0  0  0  0  0  0  0  0  0
   26.3718  -21.9432  -10.1677 C   0  0  0  0  0  0  0  0  0  0  0  0
   25.8624  -20.9902  -12.4498 C   0  0  0  0  0  0  0  0  0  0  0  0
   24.8843  -20.3190  -13.3577 C   0  0  2  0  0  0  0  0  0  0  0  0
   23.6120  -20.9501  -13.4450 N   0  0  0  0  0  0  0  0  0  0  0  0
   25.4968  -20.0418  -14.6936 C   0  0  0  0  0  0  0  0  0  0  0  0
   25.3580  -20.9135  -15.5909 O   0  0  0  0  0  0  0  0  0  0  0  0
   27.5467  -17.3101  -16.2885 C   0  0  0  0  0  0  0  0  0  0  0  0
   26.7566  -18.5868  -16.3253 C   0  0  2  0  0  0  0  0  0  0  0  0
   26.2113  -18.8821  -15.0104 N   0  0  0  0  0  0  0  0  0  0  0  0
   27.6572  -19.6716  -16.7958 C   0  0  0  0  0  0  0  0  0  0  0  0
   28.1353  -20.4488  -15.9341 O   0  0  0  0  0  0  0  0  0  0  0  0
   27.9460  -19.8023  -18.1437 O   0  0  0  0  0  0  0  0  0  0  0  0
  2  8  1  0
  2  1  1  1
  3  2  1  0
  4  3  1  0
  5  4  1  0
  6  5  1  0
  6  7  1  0
  8  9  2  0
 11 10  1  1
 11 12  1  0
 14 13  1  1
 13 11  1  0
 15 14  1  0
 15  8  1  0
 16 17  2  0
 16 14  1  0
 19 18  1  1
 19 21  1  0
 19 20  1  0
 20 16  1  0
 21 23  1  0
 22 21  2  0
M  END
$$$$
