KLA.pdb
     RDKit          3D

 23 22  0  0  1  0  0  0  0  0999 V2000
   27.2634  -21.3910  -17.2510 N   0  0  0  0  0  0  0  0  0  0  0  0
   26.5490  -20.4344  -16.4665 C   0  0  1  0  0  0  0  0  0  0  0  0
   25.5829  -19.6940  -17.3625 C   0  0  0  0  0  0  0  0  0  0  0  0
   26.3905  -18.9823  -18.4120 C   0  0  0  0  0  0  0  0  0  0  0  0
   25.5622  -18.0615  -19.2759 C   0  0  0  0  0  0  0  0  0  0  0  0
   26.3574  -17.4517  -20.3971 C   0  0  0  0  0  0  0  0  0  0  0  0
   26.7630  -16.1206  -19.9687 N   0  0  0  0  0  0  0  0  0  0  0  0
   25.8883  -21.0736  -15.3156 C   0  0  0  0  0  0  0  0  0  0  0  0
   25.2129  -22.1544  -15.4447 O   0  0  0  0  0  0  0  0  0  0  0  0
   25.6025  -19.9321   -9.2213 C   0  0  0  0  0  0  0  0  0  0  0  0
   25.0456  -20.7711  -10.3810 C   0  0  2  0  0  0  0  0  0  0  0  0
   25.0835  -22.1910   -9.9454 C   0  0  0  0  0  0  0  0  0  0  0  0
   25.8146  -20.4151  -11.5847 C   0  0  0  0  0  0  0  0  0  0  0  0
   25.2550  -20.8549  -12.8981 C   0  0  2  0  0  0  0  0  0  0  0  0
   26.0127  -20.4639  -14.0372 N   0  0  0  0  0  0  0  0  0  0  0  0
   23.8053  -20.5042  -13.0067 C   0  0  0  0  0  0  0  0  0  0  0  0
   23.5013  -19.2831  -13.0350 O   0  0  0  0  0  0  0  0  0  0  0  0
   20.6028  -22.2099  -13.8559 C   0  0  0  0  0  0  0  0  0  0  0  0
   21.3598  -21.0987  -13.1868 C   0  0  2  0  0  0  0  0  0  0  0  0
   22.7687  -21.4402  -13.0786 N   0  0  0  0  0  0  0  0  0  0  0  0
   20.7525  -20.8687  -11.8498 C   0  0  0  0  0  0  0  0  0  0  0  0
   21.4097  -21.2226  -10.8410 O   0  0  0  0  0  0  0  0  0  0  0  0
   19.5027  -20.2821  -11.7434 O   0  0  0  0  0  0  0  0  0  0  0  0
  2  8  1  0
  2  1  1  6
  3  2  1  0
  4  3  1  0
  5  4  1  0
  6  5  1  0
  6  7  1  0
  8  9  2  0
 11 10  1  1
 11 12  1  0
 14 13  1  1
 13 11  1  0
 15 14  1  0
 15  8  1  0
 16 17  2  0
 16 14  1  0
 19 18  1  1
 19 21  1  0
 19 20  1  0
 20 16  1  0
 21 23  1  0
 22 21  2  0
M  END
$$$$
