KLA.pdb
     RDKit          3D

 23 22  0  0  1  0  0  0  0  0999 V2000
   18.7391  -12.7056  -17.2611 N   0  0  0  0  0  0  0  0  0  0  0  0
   19.2761  -11.4253  -17.5976 C   0  0  1  0  0  0  0  0  0  0  0  0
   18.1428  -10.5163  -18.0141 C   0  0  0  0  0  0  0  0  0  0  0  0
   17.4863  -11.1311  -19.2189 C   0  0  0  0  0  0  0  0  0  0  0  0
   16.3489  -10.3007  -19.7641 C   0  0  0  0  0  0  0  0  0  0  0  0
   15.7286  -10.9075  -20.9922 C   0  0  0  0  0  0  0  0  0  0  0  0
   14.7563   -9.9528  -21.5052 N   0  0  0  0  0  0  0  0  0  0  0  0
   20.0760  -10.8735  -16.4905 C   0  0  0  0  0  0  0  0  0  0  0  0
   19.7217  -11.0206  -15.2683 O   0  0  0  0  0  0  0  0  0  0  0  0
   25.8245   -9.7806  -15.1340 C   0  0  0  0  0  0  0  0  0  0  0  0
   24.4001   -9.2786  -14.8548 C   0  0  2  0  0  0  0  0  0  0  0  0
   24.1530   -9.4631  -13.4015 C   0  0  0  0  0  0  0  0  0  0  0  0
   23.5007   -9.9802  -15.7853 C   0  0  0  0  0  0  0  0  0  0  0  0
   22.0808   -9.5183  -15.8295 C   0  0  2  0  0  0  0  0  0  0  0  0
   21.2674  -10.1632  -16.8027 N   0  0  0  0  0  0  0  0  0  0  0  0
   22.0050   -8.0261  -15.8943 C   0  0  0  0  0  0  0  0  0  0  0  0
   22.5405   -7.4574  -16.8813 O   0  0  0  0  0  0  0  0  0  0  0  0
   19.9929   -5.3290  -14.3242 C   0  0  0  0  0  0  0  0  0  0  0  0
   21.2341   -5.7812  -15.0385 C   0  0  2  0  0  0  0  0  0  0  0  0
   21.3807   -7.2238  -14.9340 N   0  0  0  0  0  0  0  0  0  0  0  0
   22.3944   -5.0725  -14.4376 C   0  0  0  0  0  0  0  0  0  0  0  0
   23.1973   -5.7468  -13.7480 O   0  0  0  0  0  0  0  0  0  0  0  0
   22.5647   -3.7140  -14.6443 O   0  0  0  0  0  0  0  0  0  0  0  0
  2  8  1  0
  2  1  1  1
  3  2  1  0
  4  3  1  0
  5  4  1  0
  6  5  1  0
  6  7  1  0
  8  9  2  0
 11 10  1  1
 11 12  1  0
 14 13  1  6
 13 11  1  0
 15 14  1  0
 15  8  1  0
 16 17  2  0
 16 14  1  0
 19 18  1  1
 19 21  1  0
 19 20  1  0
 20 16  1  0
 21 23  1  0
 22 21  2  0
M  END
$$$$
