KLA.pdb
     RDKit          3D

 23 22  0  0  1  0  0  0  0  0999 V2000
   20.5365  -22.8114  -10.7035 N   0  0  0  0  0  0  0  0  0  0  0  0
   20.1422  -22.1225  -11.8913 C   0  0  1  0  0  0  0  0  0  0  0  0
   18.7523  -21.5635  -11.6911 C   0  0  0  0  0  0  0  0  0  0  0  0
   17.7822  -22.5177  -12.3303 C   0  0  0  0  0  0  0  0  0  0  0  0
   17.6155  -23.8032  -11.5556 C   0  0  0  0  0  0  0  0  0  0  0  0
   16.2317  -23.9597  -10.9885 C   0  0  0  0  0  0  0  0  0  0  0  0
   16.1567  -25.2820  -10.3836 N   0  0  0  0  0  0  0  0  0  0  0  0
   21.1265  -21.0916  -12.2628 C   0  0  0  0  0  0  0  0  0  0  0  0
   20.9236  -19.8507  -12.0180 O   0  0  0  0  0  0  0  0  0  0  0  0
   24.7647  -19.8390  -10.5719 C   0  0  0  0  0  0  0  0  0  0  0  0
   24.8555  -21.2433  -11.1873 C   0  0  2  0  0  0  0  0  0  0  0  0
   26.1016  -21.8638  -10.6680 C   0  0  0  0  0  0  0  0  0  0  0  0
   24.7379  -21.0880  -12.6464 C   0  0  0  0  0  0  0  0  0  0  0  0
   23.4178  -20.6268  -13.1721 C   0  0  2  0  0  0  0  0  0  0  0  0
   22.3258  -21.4999  -12.9082 N   0  0  0  0  0  0  0  0  0  0  0  0
   23.5226  -20.2333  -14.6111 C   0  0  0  0  0  0  0  0  0  0  0  0
   23.5616  -21.1558  -15.4665 O   0  0  0  0  0  0  0  0  0  0  0  0
   23.6788  -17.0422  -16.6101 C   0  0  0  0  0  0  0  0  0  0  0  0
   23.7969  -18.5311  -16.4533 C   0  0  2  0  0  0  0  0  0  0  0  0
   23.5798  -18.9126  -15.0674 N   0  0  0  0  0  0  0  0  0  0  0  0
   25.1474  -18.9373  -16.9231 C   0  0  0  0  0  0  0  0  0  0  0  0
   26.0482  -19.0774  -16.0606 O   0  0  0  0  0  0  0  0  0  0  0  0
   25.3821  -19.1486  -18.2713 O   0  0  0  0  0  0  0  0  0  0  0  0
  2  8  1  0
  2  1  1  1
  3  2  1  0
  4  3  1  0
  5  4  1  0
  6  5  1  0
  6  7  1  0
  8  9  2  0
 11 10  1  1
 11 12  1  0
 14 13  1  6
 13 11  1  0
 15 14  1  0
 15  8  1  0
 16 17  2  0
 16 14  1  0
 19 18  1  1
 19 21  1  0
 19 20  1  0
 20 16  1  0
 21 23  1  0
 22 21  2  0
M  END
$$$$
