KLA.pdb
     RDKit          3D

 23 22  0  0  1  0  0  0  0  0999 V2000
   18.9615  -15.3555  -16.7230 N   0  0  0  0  0  0  0  0  0  0  0  0
   19.0604  -14.0185  -17.2166 C   0  0  1  0  0  0  0  0  0  0  0  0
   17.6884  -13.5578  -17.6523 C   0  0  0  0  0  0  0  0  0  0  0  0
   17.2604  -14.4277  -18.8014 C   0  0  0  0  0  0  0  0  0  0  0  0
   15.9302  -14.0222  -19.3902 C   0  0  0  0  0  0  0  0  0  0  0  0
   15.5225  -14.8913  -20.5475 C   0  0  0  0  0  0  0  0  0  0  0  0
   14.3282  -14.3010  -21.1350 N   0  0  0  0  0  0  0  0  0  0  0  0
   19.6753  -13.1250  -16.2200 C   0  0  0  0  0  0  0  0  0  0  0  0
   19.2662  -13.0906  -15.0065 O   0  0  0  0  0  0  0  0  0  0  0  0
   23.2418  -13.0003  -14.0008 C   0  0  0  0  0  0  0  0  0  0  0  0
   23.5716  -12.7392  -15.4780 C   0  0  2  0  0  0  0  0  0  0  0  0
   25.0488  -12.8225  -15.6131 C   0  0  0  0  0  0  0  0  0  0  0  0
   22.9321  -11.4662  -15.8487 C   0  0  0  0  0  0  0  0  0  0  0  0
   21.4424  -11.4064  -15.7548 C   0  0  2  0  0  0  0  0  0  0  0  0
   20.7477  -12.2867  -16.6306 N   0  0  0  0  0  0  0  0  0  0  0  0
   20.9573   -9.9939  -15.8333 C   0  0  0  0  0  0  0  0  0  0  0  0
   21.0915   -9.3914  -16.9303 O   0  0  0  0  0  0  0  0  0  0  0  0
   19.0394   -7.5829  -13.6878 C   0  0  0  0  0  0  0  0  0  0  0  0
   19.9669   -7.9040  -14.8245 C   0  0  2  0  0  0  0  0  0  0  0  0
   20.3666   -9.3008  -14.7721 N   0  0  0  0  0  0  0  0  0  0  0  0
   21.1421   -6.9990  -14.7287 C   0  0  0  0  0  0  0  0  0  0  0  0
   20.9470   -5.7695  -14.8874 O   0  0  0  0  0  0  0  0  0  0  0  0
   22.4009   -7.5158  -14.4723 O   0  0  0  0  0  0  0  0  0  0  0  0
  2  8  1  0
  2  1  1  1
  3  2  1  0
  4  3  1  0
  5  4  1  0
  6  5  1  0
  6  7  1  0
  8  9  2  0
 11 10  1  1
 11 12  1  0
 14 13  1  6
 13 11  1  0
 15 14  1  0
 15  8  1  0
 16 17  2  0
 16 14  1  0
 19 18  1  1
 19 21  1  0
 19 20  1  0
 20 16  1  0
 21 23  1  0
 22 21  2  0
M  END
$$$$
