KLA.pdb
     RDKit          3D

 23 22  0  0  1  0  0  0  0  0999 V2000
   17.5792  -11.8061  -18.4460 N   0  0  0  0  0  0  0  0  0  0  0  0
   18.6920  -10.9211  -18.5848 C   0  0  1  0  0  0  0  0  0  0  0  0
   18.2984   -9.7840  -19.4994 C   0  0  0  0  0  0  0  0  0  0  0  0
   17.7543  -10.3860  -20.7650 C   0  0  0  0  0  0  0  0  0  0  0  0
   18.7597  -10.4098  -21.8915 C   0  0  0  0  0  0  0  0  0  0  0  0
   18.1425  -10.7945  -23.2077 C   0  0  0  0  0  0  0  0  0  0  0  0
   19.1923  -10.7333  -24.2147 N   0  0  0  0  0  0  0  0  0  0  0  0
   19.1748  -10.4597  -17.2719 C   0  0  0  0  0  0  0  0  0  0  0  0
   18.3946  -10.3841  -16.2586 O   0  0  0  0  0  0  0  0  0  0  0  0
   24.2558  -10.4917  -14.0112 C   0  0  0  0  0  0  0  0  0  0  0  0
   22.9472   -9.7182  -14.2314 C   0  0  2  0  0  0  0  0  0  0  0  0
   22.1660   -9.8216  -12.9719 C   0  0  0  0  0  0  0  0  0  0  0  0
   22.3264  -10.2519  -15.4548 C   0  0  0  0  0  0  0  0  0  0  0  0
   21.1058   -9.5501  -15.9541 C   0  0  2  0  0  0  0  0  0  0  0  0
   20.5423  -10.0931  -17.1425 N   0  0  0  0  0  0  0  0  0  0  0  0
   21.3308   -8.0736  -16.0305 C   0  0  0  0  0  0  0  0  0  0  0  0
   22.2793   -7.6648  -16.7499 O   0  0  0  0  0  0  0  0  0  0  0  0
   19.5067   -4.9435  -15.1578 C   0  0  0  0  0  0  0  0  0  0  0  0
   20.7846   -5.6858  -15.4250 C   0  0  2  0  0  0  0  0  0  0  0  0
   20.5597   -7.1205  -15.3576 N   0  0  0  0  0  0  0  0  0  0  0  0
   21.7901   -5.2461  -14.4225 C   0  0  0  0  0  0  0  0  0  0  0  0
   22.2222   -4.0708  -14.5053 O   0  0  0  0  0  0  0  0  0  0  0  0
   22.2218   -6.1197  -13.4387 O   0  0  0  0  0  0  0  0  0  0  0  0
  2  8  1  0
  2  1  1  1
  3  2  1  0
  4  3  1  0
  5  4  1  0
  6  5  1  0
  6  7  1  0
  8  9  2  0
 11 10  1  1
 11 12  1  0
 14 13  1  6
 13 11  1  0
 15 14  1  0
 15  8  1  0
 16 17  2  0
 16 14  1  0
 19 18  1  1
 19 21  1  0
 19 20  1  0
 20 16  1  0
 21 23  1  0
 22 21  2  0
M  END
$$$$
