KLA.pdb
     RDKit          3D

 23 22  0  0  1  0  0  0  0  0999 V2000
   17.7113  -12.6713  -17.7179 N   0  0  0  0  0  0  0  0  0  0  0  0
   18.6209  -11.6373  -18.0978 C   0  0  1  0  0  0  0  0  0  0  0  0
   17.8850  -10.6317  -18.9532 C   0  0  0  0  0  0  0  0  0  0  0  0
   17.1184  -11.3965  -19.9961 C   0  0  0  0  0  0  0  0  0  0  0  0
   16.3693  -10.5039  -20.9565 C   0  0  0  0  0  0  0  0  0  0  0  0
   15.6189  -11.2820  -22.0018 C   0  0  0  0  0  0  0  0  0  0  0  0
   14.9336  -10.3192  -22.8522 N   0  0  0  0  0  0  0  0  0  0  0  0
   19.2600  -11.0280  -16.9188 C   0  0  0  0  0  0  0  0  0  0  0  0
   18.6076  -10.8140  -15.8373 O   0  0  0  0  0  0  0  0  0  0  0  0
   24.8155  -10.7630  -14.4958 C   0  0  0  0  0  0  0  0  0  0  0  0
   23.4690  -10.0270  -14.5611 C   0  0  2  0  0  0  0  0  0  0  0  0
   22.9055  -10.0324  -13.1864 C   0  0  0  0  0  0  0  0  0  0  0  0
   22.6719  -10.6701  -15.6184 C   0  0  0  0  0  0  0  0  0  0  0  0
   21.3527  -10.0484  -15.9422 C   0  0  2  0  0  0  0  0  0  0  0  0
   20.6348  -10.6745  -16.9991 N   0  0  0  0  0  0  0  0  0  0  0  0
   21.4865   -8.5692  -16.1168 C   0  0  0  0  0  0  0  0  0  0  0  0
   22.2188   -8.1565  -17.0537 O   0  0  0  0  0  0  0  0  0  0  0  0
   19.7056   -5.4880  -15.4967 C   0  0  0  0  0  0  0  0  0  0  0  0
   21.0367   -6.1809  -15.4382 C   0  0  2  0  0  0  0  0  0  0  0  0
   20.8539   -7.6175  -15.3106 N   0  0  0  0  0  0  0  0  0  0  0  0
   21.7940   -5.6255  -14.2861 C   0  0  0  0  0  0  0  0  0  0  0  0
   21.9490   -6.3598  -13.2803 O   0  0  0  0  0  0  0  0  0  0  0  0
   22.3027   -4.3388  -14.3415 O   0  0  0  0  0  0  0  0  0  0  0  0
  2  8  1  0
  2  1  1  1
  3  2  1  0
  4  3  1  0
  5  4  1  0
  6  5  1  0
  6  7  1  0
  8  9  2  0
 11 10  1  1
 11 12  1  0
 14 13  1  6
 13 11  1  0
 15 14  1  0
 15  8  1  0
 16 17  2  0
 16 14  1  0
 19 18  1  1
 19 21  1  0
 19 20  1  0
 20 16  1  0
 21 23  1  0
 22 21  2  0
M  END
$$$$
