KLA.pdb
     RDKit          3D

 23 22  0  0  1  0  0  0  0  0999 V2000
   15.7315  -26.4472   -7.3687 N   0  0  0  0  0  0  0  0  0  0  0  0
   15.9353  -25.7782   -6.1230 C   0  0  1  0  0  0  0  0  0  0  0  0
   14.6674  -25.0443   -5.7514 C   0  0  0  0  0  0  0  0  0  0  0  0
   14.7421  -23.6712   -6.3594 C   0  0  0  0  0  0  0  0  0  0  0  0
   14.0557  -23.5775   -7.7012 C   0  0  0  0  0  0  0  0  0  0  0  0
   14.1401  -22.1997   -8.2975 C   0  0  0  0  0  0  0  0  0  0  0  0
   13.4303  -22.2316   -9.5683 N   0  0  0  0  0  0  0  0  0  0  0  0
   16.3809  -26.7169   -5.0789 C   0  0  0  0  0  0  0  0  0  0  0  0
   16.0632  -27.9575   -5.1118 O   0  0  0  0  0  0  0  0  0  0  0  0
   18.9220  -28.5761   -1.2112 C   0  0  0  0  0  0  0  0  0  0  0  0
   19.9817  -27.8314   -2.0367 C   0  0  2  0  0  0  0  0  0  0  0  0
   20.9815  -27.2967   -1.0766 C   0  0  0  0  0  0  0  0  0  0  0  0
   19.2707  -26.8574   -2.8811 C   0  0  0  0  0  0  0  0  0  0  0  0
   17.7967  -27.0456   -3.0344 C   0  0  2  0  0  0  0  0  0  0  0  0
   17.1825  -26.2185   -4.0158 N   0  0  0  0  0  0  0  0  0  0  0  0
   17.1095  -26.9939   -1.7071 C   0  0  0  0  0  0  0  0  0  0  0  0
   17.2862  -25.9687   -0.9986 O   0  0  0  0  0  0  0  0  0  0  0  0
   14.5065  -28.9616    0.1410 C   0  0  0  0  0  0  0  0  0  0  0  0
   15.6210  -27.9563    0.0886 C   0  0  2  0  0  0  0  0  0  0  0  0
   16.2865  -28.0059   -1.2030 N   0  0  0  0  0  0  0  0  0  0  0  0
   16.5642  -28.2572    1.1973 C   0  0  0  0  0  0  0  0  0  0  0  0
   17.6856  -28.7339    0.8971 O   0  0  0  0  0  0  0  0  0  0  0  0
   16.1978  -28.0124    2.5100 O   0  0  0  0  0  0  0  0  0  0  0  0
  2  8  1  0
  2  1  1  6
  3  2  1  0
  4  3  1  0
  5  4  1  0
  6  5  1  0
  6  7  1  0
  8  9  2  0
 11 10  1  1
 11 12  1  0
 14 13  1  1
 13 11  1  0
 15 14  1  0
 15  8  1  0
 16 17  2  0
 16 14  1  0
 19 18  1  6
 19 21  1  0
 19 20  1  0
 20 16  1  0
 21 23  1  0
 22 21  2  0
M  END
$$$$
