KLA.pdb
     RDKit          3D

 23 22  0  0  1  0  0  0  0  0999 V2000
   14.2318  -11.3712  -14.4164 N   0  0  0  0  0  0  0  0  0  0  0  0
   15.3211  -10.5122  -14.0753 C   0  0  1  0  0  0  0  0  0  0  0  0
   16.0811  -10.1663  -15.3351 C   0  0  0  0  0  0  0  0  0  0  0  0
   16.6147  -11.4486  -15.9108 C   0  0  0  0  0  0  0  0  0  0  0  0
   17.9428  -11.8577  -15.3200 C   0  0  0  0  0  0  0  0  0  0  0  0
   18.4546  -13.1510  -15.8913 C   0  0  0  0  0  0  0  0  0  0  0  0
   19.7252  -13.4407  -15.2418 N   0  0  0  0  0  0  0  0  0  0  0  0
   14.8545   -9.3226  -13.3427 C   0  0  0  0  0  0  0  0  0  0  0  0
   13.7414   -8.7547  -13.6244 O   0  0  0  0  0  0  0  0  0  0  0  0
   15.7407   -6.9963   -7.7740 C   0  0  0  0  0  0  0  0  0  0  0  0
   15.2463   -6.6709   -9.1912 C   0  0  2  0  0  0  0  0  0  0  0  0
   13.8075   -6.3182   -9.0776 C   0  0  0  0  0  0  0  0  0  0  0  0
   15.5933   -7.8169  -10.0475 C   0  0  0  0  0  0  0  0  0  0  0  0
   15.3199   -7.6749  -11.5092 C   0  0  2  0  0  0  0  0  0  0  0  0
   15.6708   -8.8044  -12.3003 N   0  0  0  0  0  0  0  0  0  0  0  0
   15.8776   -6.3911  -12.0359 C   0  0  0  0  0  0  0  0  0  0  0  0
   17.1268   -6.2406  -12.0021 O   0  0  0  0  0  0  0  0  0  0  0  0
   14.6294   -3.5166  -14.0777 C   0  0  0  0  0  0  0  0  0  0  0  0
   15.6519   -4.1543  -13.1814 C   0  0  2  0  0  0  0  0  0  0  0  0
   15.1054   -5.3504  -12.5616 N   0  0  0  0  0  0  0  0  0  0  0  0
   16.0587   -3.1519  -12.1620 C   0  0  0  0  0  0  0  0  0  0  0  0
   15.5908   -3.2737  -11.0038 O   0  0  0  0  0  0  0  0  0  0  0  0
   16.9256   -2.1264  -12.4998 O   0  0  0  0  0  0  0  0  0  0  0  0
  2  8  1  0
  2  1  1  6
  3  2  1  0
  4  3  1  0
  5  4  1  0
  6  5  1  0
  6  7  1  0
  8  9  2  0
 11 10  1  1
 11 12  1  0
 14 13  1  1
 13 11  1  0
 15 14  1  0
 15  8  1  0
 16 17  2  0
 16 14  1  0
 19 18  1  6
 19 21  1  0
 19 20  1  0
 20 16  1  0
 21 23  1  0
 22 21  2  0
M  END
$$$$
