FIM.pdb
     RDKit          3D

 28 28  0  0  1  0  0  0  0  0999 V2000
    5.4662  -18.1234   24.6323 N   0  0  0  0  0  0  0  0  0  0  0  0
    5.8856  -16.7493   24.5788 C   0  0  1  0  0  0  0  0  0  0  0  0
    6.2547  -16.3351   26.0032 C   0  0  0  0  0  0  0  0  0  0  0  0
    6.4432  -14.8711   26.0977 C   0  0  0  0  0  0  0  0  0  0  0  0
    7.7217  -14.3634   26.1476 C   0  0  0  0  0  0  0  0  0  0  0  0
    7.9649  -13.0057   26.2350 C   0  0  0  0  0  0  0  0  0  0  0  0
    6.8928  -12.1404   26.2731 C   0  0  0  0  0  0  0  0  0  0  0  0
    5.6212  -12.6605   26.2224 C   0  0  0  0  0  0  0  0  0  0  0  0
    5.3706  -14.0220   26.1346 C   0  0  0  0  0  0  0  0  0  0  0  0
    7.1187  -16.6271   23.7606 C   0  0  0  0  0  0  0  0  0  0  0  0
    8.0031  -17.5260   23.7681 O   0  0  0  0  0  0  0  0  0  0  0  0
    7.1567  -12.6311   19.8579 C   0  0  0  0  0  0  0  0  0  0  0  0
    7.2645  -13.9696   20.5341 C   0  0  0  0  0  0  0  0  0  0  0  0
    8.5598  -14.1050   21.3123 C   0  0  2  0  0  0  0  0  0  0  0  0
    9.6905  -14.2175   20.3116 C   0  0  0  0  0  0  0  0  0  0  0  0
    8.5792  -15.3893   22.1225 C   0  0  2  0  0  0  0  0  0  0  0  0
    7.3870  -15.5027   22.9219 N   0  0  0  0  0  0  0  0  0  0  0  0
    9.8146  -15.5419   22.9023 C   0  0  0  0  0  0  0  0  0  0  0  0
   10.8577  -15.9480   22.3259 O   0  0  0  0  0  0  0  0  0  0  0  0
   10.2302  -13.6591   28.8158 C   0  0  0  0  0  0  0  0  0  0  0  0
   11.5914  -14.8623   29.0505 S   0  0  0  0  0  0  0  0  0  0  0  0
   12.1066  -15.4117   27.3725 C   0  0  0  0  0  0  0  0  0  0  0  0
   10.9348  -15.1075   26.4717 C   0  0  0  0  0  0  0  0  0  0  0  0
   11.1677  -15.4510   25.0351 C   0  0  2  0  0  0  0  0  0  0  0  0
    9.9307  -15.2610   24.2891 N   0  0  0  0  0  0  0  0  0  0  0  0
   11.7750  -16.7522   24.7855 C   0  0  0  0  0  0  0  0  0  0  0  0
   11.0600  -17.7609   24.5952 O   0  0  0  0  0  0  0  0  0  0  0  0
   13.1514  -16.9186   24.7502 O   0  0  0  0  0  0  0  0  0  0  0  0
  2  1  1  1
  2 10  1  0
  2  3  1  0
  3  4  1  0
  4  9  2  0
  5  4  1  0
  5  6  2  0
  6  7  1  0
  7  8  2  0
  9  8  1  0
 10 11  2  0
 10 17  1  0
 13 12  1  0
 14 15  1  6
 14 13  1  0
 16 14  1  0
 16 17  1  1
 18 16  1  0
 18 19  2  0
 20 21  1  0
 21 22  1  0
 22 23  1  0
 24 23  1  1
 24 25  1  0
 25 18  1  0
 26 24  1  0
 26 28  1  0
 27 26  2  0
M  END
$$$$
