FIM.pdb
     RDKit          3D

 28 28  0  0  1  0  0  0  0  0999 V2000
    5.6328  -18.0040   25.0110 N   0  0  0  0  0  0  0  0  0  0  0  0
    6.0420  -16.6269   24.9526 C   0  0  1  0  0  0  0  0  0  0  0  0
    6.4245  -16.2100   26.3727 C   0  0  0  0  0  0  0  0  0  0  0  0
    6.4729  -14.7370   26.4980 C   0  0  0  0  0  0  0  0  0  0  0  0
    7.6951  -14.1041   26.4788 C   0  0  0  0  0  0  0  0  0  0  0  0
    7.8079  -12.7311   26.5902 C   0  0  0  0  0  0  0  0  0  0  0  0
    6.6604  -11.9796   26.7243 C   0  0  0  0  0  0  0  0  0  0  0  0
    5.4462  -12.6241   26.7418 C   0  0  0  0  0  0  0  0  0  0  0  0
    5.3265  -14.0016   26.6304 C   0  0  0  0  0  0  0  0  0  0  0  0
    7.2648  -16.4962   24.1203 C   0  0  0  0  0  0  0  0  0  0  0  0
    8.1039  -17.4337   24.0350 O   0  0  0  0  0  0  0  0  0  0  0  0
    7.1106  -12.8746   19.9727 C   0  0  0  0  0  0  0  0  0  0  0  0
    7.3378  -14.1112   20.7971 C   0  0  0  0  0  0  0  0  0  0  0  0
    8.6233  -14.0259   21.5983 C   0  0  2  0  0  0  0  0  0  0  0  0
    9.7806  -14.1387   20.6285 C   0  0  0  0  0  0  0  0  0  0  0  0
    8.7517  -15.2003   22.5526 C   0  0  2  0  0  0  0  0  0  0  0  0
    7.5729  -15.3204   23.3705 N   0  0  0  0  0  0  0  0  0  0  0  0
    9.9949  -15.1549   23.3336 C   0  0  0  0  0  0  0  0  0  0  0  0
   10.3638  -14.0614   23.8368 O   0  0  0  0  0  0  0  0  0  0  0  0
   11.3573  -15.3703   28.9942 C   0  0  0  0  0  0  0  0  0  0  0  0
   11.0776  -13.9437   27.8797 S   0  0  0  0  0  0  0  0  0  0  0  0
   11.8406  -14.3780   26.2634 C   0  0  0  0  0  0  0  0  0  0  0  0
   11.2388  -15.7072   25.8782 C   0  0  0  0  0  0  0  0  0  0  0  0
   11.8276  -16.3047   24.6403 C   0  0  2  0  0  0  0  0  0  0  0  0
   10.8359  -16.2734   23.5734 N   0  0  0  0  0  0  0  0  0  0  0  0
   12.4344  -17.6203   24.7990 C   0  0  0  0  0  0  0  0  0  0  0  0
   13.6347  -17.7301   25.1337 O   0  0  0  0  0  0  0  0  0  0  0  0
   11.7124  -18.7854   24.5872 O   0  0  0  0  0  0  0  0  0  0  0  0
  2  1  1  1
  2 10  1  0
  2  3  1  0
  3  4  1  0
  4  9  2  0
  5  4  1  0
  5  6  2  0
  6  7  1  0
  7  8  2  0
  9  8  1  0
 10 11  2  0
 10 17  1  0
 13 12  1  0
 14 15  1  6
 14 13  1  0
 16 14  1  0
 16 17  1  1
 18 16  1  0
 18 19  2  0
 20 21  1  0
 21 22  1  0
 22 23  1  0
 24 23  1  1
 24 25  1  0
 25 18  1  0
 26 24  1  0
 26 28  1  0
 27 26  2  0
M  END
$$$$
