FIM.pdb
     RDKit          3D

 28 28  0  0  1  0  0  0  0  0999 V2000
    5.4429  -17.9314   24.7324 N   0  0  0  0  0  0  0  0  0  0  0  0
    6.0395  -16.6238   24.6939 C   0  0  1  0  0  0  0  0  0  0  0  0
    6.4838  -16.2892   26.1178 C   0  0  0  0  0  0  0  0  0  0  0  0
    6.4526  -14.8294   26.3537 C   0  0  0  0  0  0  0  0  0  0  0  0
    7.6083  -14.1899   26.7413 C   0  0  0  0  0  0  0  0  0  0  0  0
    7.6454  -12.8283   26.9761 C   0  0  0  0  0  0  0  0  0  0  0  0
    6.4893  -12.0955   26.8162 C   0  0  0  0  0  0  0  0  0  0  0  0
    5.3420  -12.7463   26.4287 C   0  0  0  0  0  0  0  0  0  0  0  0
    5.2984  -14.1123   26.1914 C   0  0  0  0  0  0  0  0  0  0  0  0
    7.2642  -16.6499   23.8546 C   0  0  0  0  0  0  0  0  0  0  0  0
    7.8279  -17.7359   23.5497 O   0  0  0  0  0  0  0  0  0  0  0  0
    7.4851  -12.6283   20.1311 C   0  0  0  0  0  0  0  0  0  0  0  0
    7.5575  -13.9813   20.7826 C   0  0  0  0  0  0  0  0  0  0  0  0
    8.8641  -14.1786   21.5281 C   0  0  2  0  0  0  0  0  0  0  0  0
    9.9710  -14.2846   20.5003 C   0  0  0  0  0  0  0  0  0  0  0  0
    8.8652  -15.4914   22.2916 C   0  0  2  0  0  0  0  0  0  0  0  0
    7.8806  -15.4680   23.3419 N   0  0  0  0  0  0  0  0  0  0  0  0
   10.2051  -15.8645   22.7636 C   0  0  0  0  0  0  0  0  0  0  0  0
   11.2148  -15.3653   22.2012 O   0  0  0  0  0  0  0  0  0  0  0  0
    9.6965  -13.2544   26.9673 C   0  0  0  0  0  0  0  0  0  0  0  0
   11.0543  -14.1149   27.8456 S   0  0  0  0  0  0  0  0  0  0  0  0
   12.1765  -14.7886   26.5533 C   0  0  0  0  0  0  0  0  0  0  0  0
   11.2870  -15.1192   25.3800 C   0  0  0  0  0  0  0  0  0  0  0  0
   11.4584  -16.5111   24.8610 C   0  0  2  0  0  0  0  0  0  0  0  0
   10.4604  -16.7657   23.8305 N   0  0  0  0  0  0  0  0  0  0  0  0
   11.4991  -17.5625   25.8696 C   0  0  0  0  0  0  0  0  0  0  0  0
   12.5218  -17.7320   26.5697 O   0  0  0  0  0  0  0  0  0  0  0  0
   10.4185  -18.4041   26.0879 O   0  0  0  0  0  0  0  0  0  0  0  0
  2  1  1  1
  2 10  1  0
  2  3  1  0
  3  4  1  0
  4  9  2  0
  5  4  1  0
  5  6  2  0
  6  7  1  0
  7  8  2  0
  9  8  1  0
 10 11  2  0
 10 17  1  0
 13 12  1  0
 14 15  1  6
 14 13  1  0
 16 14  1  0
 16 17  1  1
 18 16  1  0
 18 19  2  0
 20 21  1  0
 21 22  1  0
 22 23  1  0
 24 23  1  1
 24 25  1  0
 25 18  1  0
 26 24  1  0
 26 28  1  0
 27 26  2  0
M  END
$$$$
