FIM.pdb
     RDKit          3D

 28 28  0  0  1  0  0  0  0  0999 V2000
    5.1415  -17.6629   24.7017 N   0  0  0  0  0  0  0  0  0  0  0  0
    5.8097  -16.3906   24.7448 C   0  0  1  0  0  0  0  0  0  0  0  0
    6.3397  -16.2080   26.1670 C   0  0  0  0  0  0  0  0  0  0  0  0
    6.7432  -14.8053   26.4065 C   0  0  0  0  0  0  0  0  0  0  0  0
    8.0780  -14.5125   26.5718 C   0  0  0  0  0  0  0  0  0  0  0  0
    8.5197  -13.2224   26.7973 C   0  0  0  0  0  0  0  0  0  0  0  0
    7.5926  -12.2044   26.8575 C   0  0  0  0  0  0  0  0  0  0  0  0
    6.2627  -12.5104   26.6906 C   0  0  0  0  0  0  0  0  0  0  0  0
    5.8133  -13.8030   26.4639 C   0  0  0  0  0  0  0  0  0  0  0  0
    6.9896  -16.4068   23.8433 C   0  0  0  0  0  0  0  0  0  0  0  0
    7.7686  -17.3975   23.7997 O   0  0  0  0  0  0  0  0  0  0  0  0
    6.8859  -13.3887   19.3087 C   0  0  0  0  0  0  0  0  0  0  0  0
    7.1438  -14.5032   20.2844 C   0  0  0  0  0  0  0  0  0  0  0  0
    8.4198  -14.2772   21.0735 C   0  0  2  0  0  0  0  0  0  0  0  0
    9.5885  -14.5463   20.1492 C   0  0  0  0  0  0  0  0  0  0  0  0
    8.5410  -15.2729   22.2137 C   0  0  2  0  0  0  0  0  0  0  0  0
    7.3210  -15.3209   22.9769 N   0  0  0  0  0  0  0  0  0  0  0  0
    9.7314  -15.0359   23.0411 C   0  0  0  0  0  0  0  0  0  0  0  0
    9.9149  -13.8943   23.5392 O   0  0  0  0  0  0  0  0  0  0  0  0
   10.7187  -13.1573   28.4431 C   0  0  0  0  0  0  0  0  0  0  0  0
   10.5529  -14.9743   28.2803 S   0  0  0  0  0  0  0  0  0  0  0  0
   11.7045  -15.4926   26.9429 C   0  0  0  0  0  0  0  0  0  0  0  0
   10.8595  -15.5807   25.6957 C   0  0  0  0  0  0  0  0  0  0  0  0
   11.6344  -15.9056   24.4588 C   0  0  2  0  0  0  0  0  0  0  0  0
   10.7170  -16.0154   23.3323 N   0  0  0  0  0  0  0  0  0  0  0  0
   12.5352  -17.0473   24.5574 C   0  0  0  0  0  0  0  0  0  0  0  0
   13.5142  -17.0186   25.3355 O   0  0  0  0  0  0  0  0  0  0  0  0
   12.3427  -18.1939   23.8012 O   0  0  0  0  0  0  0  0  0  0  0  0
  2  1  1  1
  2 10  1  0
  2  3  1  0
  3  4  1  0
  4  9  2  0
  5  4  1  0
  5  6  2  0
  6  7  1  0
  7  8  2  0
  9  8  1  0
 10 11  2  0
 10 17  1  0
 13 12  1  0
 14 15  1  6
 14 13  1  0
 16 14  1  0
 16 17  1  1
 18 16  1  0
 18 19  2  0
 20 21  1  0
 21 22  1  0
 22 23  1  0
 24 23  1  1
 24 25  1  0
 25 18  1  0
 26 24  1  0
 26 28  1  0
 27 26  2  0
M  END
$$$$
