FIM.pdb
     RDKit          3D

 28 28  0  0  1  0  0  0  0  0999 V2000
    5.8244  -17.3360   25.0174 N   0  0  0  0  0  0  0  0  0  0  0  0
    6.5671  -16.1409   24.7225 C   0  0  1  0  0  0  0  0  0  0  0  0
    7.4138  -15.8211   25.9545 C   0  0  0  0  0  0  0  0  0  0  0  0
    7.2643  -14.4029   26.3470 C   0  0  0  0  0  0  0  0  0  0  0  0
    8.3913  -13.6241   26.4818 C   0  0  0  0  0  0  0  0  0  0  0  0
    8.3191  -12.2924   26.8445 C   0  0  0  0  0  0  0  0  0  0  0  0
    7.0808  -11.7340   27.0768 C   0  0  0  0  0  0  0  0  0  0  0  0
    5.9632  -12.5227   26.9386 C   0  0  0  0  0  0  0  0  0  0  0  0
    6.0292  -13.8596   26.5748 C   0  0  0  0  0  0  0  0  0  0  0  0
    7.5107  -16.3934   23.6041 C   0  0  0  0  0  0  0  0  0  0  0  0
    7.7687  -17.5647   23.2148 O   0  0  0  0  0  0  0  0  0  0  0  0
    7.2484  -12.1298   20.1893 C   0  0  0  0  0  0  0  0  0  0  0  0
    7.2287  -13.5452   20.6960 C   0  0  0  0  0  0  0  0  0  0  0  0
    8.6293  -14.1054   20.8576 C   0  0  2  0  0  0  0  0  0  0  0  0
    9.2007  -14.3276   19.4731 C   0  0  0  0  0  0  0  0  0  0  0  0
    8.5994  -15.4672   21.5292 C   0  0  2  0  0  0  0  0  0  0  0  0
    8.1821  -15.3465   22.9019 N   0  0  0  0  0  0  0  0  0  0  0  0
    9.8637  -16.1981   21.3715 C   0  0  0  0  0  0  0  0  0  0  0  0
   10.3169  -16.3976   20.2140 O   0  0  0  0  0  0  0  0  0  0  0  0
   15.6467  -13.5745   19.9680 C   0  0  0  0  0  0  0  0  0  0  0  0
   14.5365  -13.7291   21.4167 S   0  0  0  0  0  0  0  0  0  0  0  0
   13.2257  -14.9331   20.9522 C   0  0  0  0  0  0  0  0  0  0  0  0
   12.2972  -14.9956   22.1401 C   0  0  0  0  0  0  0  0  0  0  0  0
   12.0423  -16.3819   22.6395 C   0  0  2  0  0  0  0  0  0  0  0  0
   10.6362  -16.7109   22.4468 N   0  0  0  0  0  0  0  0  0  0  0  0
   12.4993  -16.6607   23.9952 C   0  0  0  0  0  0  0  0  0  0  0  0
   13.5755  -17.2677   24.1906 O   0  0  0  0  0  0  0  0  0  0  0  0
   11.7668  -16.2681   25.1055 O   0  0  0  0  0  0  0  0  0  0  0  0
  2  1  1  1
  2 10  1  0
  2  3  1  0
  3  4  1  0
  4  9  2  0
  5  4  1  0
  5  6  2  0
  6  7  1  0
  7  8  2  0
  9  8  1  0
 10 11  2  0
 10 17  1  0
 13 12  1  0
 14 15  1  6
 14 13  1  0
 16 14  1  0
 16 17  1  1
 18 16  1  0
 18 19  2  0
 20 21  1  0
 21 22  1  0
 22 23  1  0
 24 23  1  1
 24 25  1  0
 25 18  1  0
 26 24  1  0
 26 28  1  0
 27 26  2  0
M  END
$$$$
