FIM.pdb
     RDKit          3D

 28 28  0  0  1  0  0  0  0  0999 V2000
    8.8000  -15.8387   20.6897 N   0  0  0  0  0  0  0  0  0  0  0  0
    8.5333  -14.8114   21.6596 C   0  0  1  0  0  0  0  0  0  0  0  0
    7.1774  -14.1999   21.3067 C   0  0  0  0  0  0  0  0  0  0  0  0
    7.2222  -13.5377   19.9849 C   0  0  0  0  0  0  0  0  0  0  0  0
    7.9546  -12.3811   19.8409 C   0  0  0  0  0  0  0  0  0  0  0  0
    8.0377  -11.7155   18.6325 C   0  0  0  0  0  0  0  0  0  0  0  0
    7.3657  -12.2291   17.5443 C   0  0  0  0  0  0  0  0  0  0  0  0
    6.6380  -13.3848   17.7016 C   0  0  0  0  0  0  0  0  0  0  0  0
    6.5509  -14.0574   18.9116 C   0  0  0  0  0  0  0  0  0  0  0  0
    8.3971  -15.4125   23.0105 C   0  0  0  0  0  0  0  0  0  0  0  0
    8.1600  -14.7014   24.0245 O   0  0  0  0  0  0  0  0  0  0  0  0
    5.3845  -19.6728   23.1556 C   0  0  0  0  0  0  0  0  0  0  0  0
    6.0757  -18.4098   23.5885 C   0  0  0  0  0  0  0  0  0  0  0  0
    7.3879  -18.6987   24.2931 C   0  0  2  0  0  0  0  0  0  0  0  0
    7.0639  -19.2398   25.6696 C   0  0  0  0  0  0  0  0  0  0  0  0
    8.1826  -17.4234   24.5134 C   0  0  2  0  0  0  0  0  0  0  0  0
    8.5230  -16.8141   23.2540 N   0  0  0  0  0  0  0  0  0  0  0  0
    9.3443  -17.6306   25.3880 C   0  0  0  0  0  0  0  0  0  0  0  0
   10.3335  -18.2756   24.9518 O   0  0  0  0  0  0  0  0  0  0  0  0
    9.4765  -12.9990   28.0032 C   0  0  0  0  0  0  0  0  0  0  0  0
   11.0138  -13.5724   28.8176 S   0  0  0  0  0  0  0  0  0  0  0  0
   11.5712  -15.0672   27.9020 C   0  0  0  0  0  0  0  0  0  0  0  0
   10.7851  -16.2145   28.4876 C   0  0  0  0  0  0  0  0  0  0  0  0
   10.6161  -17.3727   27.5569 C   0  0  2  0  0  0  0  0  0  0  0  0
    9.4446  -17.1494   26.7201 N   0  0  0  0  0  0  0  0  0  0  0  0
   10.6133  -18.6905   28.1797 C   0  0  0  0  0  0  0  0  0  0  0  0
   11.6851  -19.3092   28.3621 O   0  0  0  0  0  0  0  0  0  0  0  0
    9.4365  -19.3001   28.5883 O   0  0  0  0  0  0  0  0  0  0  0  0
  2  1  1  6
  2 10  1  0
  2  3  1  0
  3  4  1  0
  4  9  2  0
  5  4  1  0
  5  6  2  0
  6  7  1  0
  7  8  2  0
  9  8  1  0
 10 11  2  0
 10 17  1  0
 13 12  1  0
 14 15  1  1
 14 13  1  0
 16 14  1  0
 16 17  1  6
 18 16  1  0
 18 19  2  0
 20 21  1  0
 21 22  1  0
 22 23  1  0
 24 23  1  1
 24 25  1  0
 25 18  1  0
 26 24  1  0
 26 28  1  0
 27 26  2  0
M  END
$$$$
