FIM.pdb
     RDKit          3D

 28 28  0  0  1  0  0  0  0  0999 V2000
    8.8953  -16.1514   19.6745 N   0  0  0  0  0  0  0  0  0  0  0  0
    8.1986  -16.5215   20.8766 C   0  0  1  0  0  0  0  0  0  0  0  0
    8.4394  -18.0151   21.0951 C   0  0  0  0  0  0  0  0  0  0  0  0
    7.8013  -18.8168   20.0284 C   0  0  0  0  0  0  0  0  0  0  0  0
    6.4437  -19.0381   20.0798 C   0  0  0  0  0  0  0  0  0  0  0  0
    5.7876  -19.7772   19.1136 C   0  0  0  0  0  0  0  0  0  0  0  0
    6.5188  -20.3054   18.0717 C   0  0  0  0  0  0  0  0  0  0  0  0
    7.8739  -20.0768   18.0321 C   0  0  0  0  0  0  0  0  0  0  0  0
    8.5380  -19.3358   18.9986 C   0  0  0  0  0  0  0  0  0  0  0  0
    8.7875  -15.8143   22.0420 C   0  0  0  0  0  0  0  0  0  0  0  0
   10.0022  -15.4763   22.0593 O   0  0  0  0  0  0  0  0  0  0  0  0
    5.9042  -12.0872   24.8051 C   0  0  0  0  0  0  0  0  0  0  0  0
    6.9841  -12.8864   24.1302 C   0  0  0  0  0  0  0  0  0  0  0  0
    7.5491  -13.9561   25.0457 C   0  0  2  0  0  0  0  0  0  0  0  0
    8.2558  -13.2594   26.1893 C   0  0  0  0  0  0  0  0  0  0  0  0
    8.6051  -14.7832   24.3337 C   0  0  2  0  0  0  0  0  0  0  0  0
    8.0339  -15.4728   23.2061 N   0  0  0  0  0  0  0  0  0  0  0  0
    9.3309  -15.6739   25.2487 C   0  0  0  0  0  0  0  0  0  0  0  0
    8.7447  -16.6869   25.7126 O   0  0  0  0  0  0  0  0  0  0  0  0
   10.1453  -13.6418   29.2134 C   0  0  0  0  0  0  0  0  0  0  0  0
   10.3131  -15.1880   30.1812 S   0  0  0  0  0  0  0  0  0  0  0  0
   11.2694  -16.3633   29.1383 C   0  0  0  0  0  0  0  0  0  0  0  0
   10.4968  -16.4764   27.8470 C   0  0  0  0  0  0  0  0  0  0  0  0
   11.3427  -16.3522   26.6202 C   0  0  2  0  0  0  0  0  0  0  0  0
   10.6751  -15.4801   25.6628 N   0  0  0  0  0  0  0  0  0  0  0  0
   11.7780  -17.6077   26.0213 C   0  0  0  0  0  0  0  0  0  0  0  0
   11.4391  -17.9062   24.8548 O   0  0  0  0  0  0  0  0  0  0  0  0
   12.5744  -18.5072   26.7143 O   0  0  0  0  0  0  0  0  0  0  0  0
  2  1  1  6
  2 10  1  0
  2  3  1  0
  3  4  1  0
  4  9  2  0
  5  4  1  0
  5  6  2  0
  6  7  1  0
  7  8  2  0
  9  8  1  0
 10 11  2  0
 10 17  1  0
 13 12  1  0
 14 15  1  1
 14 13  1  0
 16 14  1  0
 16 17  1  6
 18 16  1  0
 18 19  2  0
 20 21  1  0
 21 22  1  0
 22 23  1  0
 24 23  1  1
 24 25  1  0
 25 18  1  0
 26 24  1  0
 26 28  1  0
 27 26  2  0
M  END
$$$$
