FIM.pdb
     RDKit          3D

 28 28  0  0  1  0  0  0  0  0999 V2000
    5.5328  -17.0139   25.1469 N   0  0  0  0  0  0  0  0  0  0  0  0
    6.2048  -15.7919   24.7969 C   0  0  1  0  0  0  0  0  0  0  0  0
    6.7367  -15.1829   26.0943 C   0  0  0  0  0  0  0  0  0  0  0  0
    6.4417  -13.7350   26.1602 C   0  0  0  0  0  0  0  0  0  0  0  0
    5.8256  -13.2286   27.2822 C   0  0  0  0  0  0  0  0  0  0  0  0
    5.5243  -11.8854   27.4059 C   0  0  0  0  0  0  0  0  0  0  0  0
    5.8521  -11.0338   26.3731 C   0  0  0  0  0  0  0  0  0  0  0  0
    6.4672  -11.5523   25.2583 C   0  0  0  0  0  0  0  0  0  0  0  0
    6.7723  -12.8992   25.1283 C   0  0  0  0  0  0  0  0  0  0  0  0
    7.3837  -16.0879   23.9441 C   0  0  0  0  0  0  0  0  0  0  0  0
    8.0006  -17.1840   24.0346 O   0  0  0  0  0  0  0  0  0  0  0  0
    7.1422  -13.2041   20.0075 C   0  0  0  0  0  0  0  0  0  0  0  0
    7.6722  -14.5937   20.2273 C   0  0  0  0  0  0  0  0  0  0  0  0
    9.0283  -14.5786   20.9074 C   0  0  2  0  0  0  0  0  0  0  0  0
   10.0322  -15.1856   19.9500 C   0  0  0  0  0  0  0  0  0  0  0  0
    9.0304  -15.4619   22.1427 C   0  0  2  0  0  0  0  0  0  0  0  0
    7.8946  -15.1688   22.9777 N   0  0  0  0  0  0  0  0  0  0  0  0
   10.3078  -15.4116   22.8660 C   0  0  0  0  0  0  0  0  0  0  0  0
   10.7638  -14.2957   23.2290 O   0  0  0  0  0  0  0  0  0  0  0  0
    9.9802  -14.3589   27.9193 C   0  0  0  0  0  0  0  0  0  0  0  0
   10.5648  -16.0710   28.2066 S   0  0  0  0  0  0  0  0  0  0  0  0
   11.8149  -16.4282   26.9055 C   0  0  0  0  0  0  0  0  0  0  0  0
   11.0660  -16.3575   25.5973 C   0  0  0  0  0  0  0  0  0  0  0  0
   11.9163  -16.6204   24.3956 C   0  0  2  0  0  0  0  0  0  0  0  0
   11.0901  -16.5491   23.1977 N   0  0  0  0  0  0  0  0  0  0  0  0
   12.7241  -17.8326   24.4443 C   0  0  0  0  0  0  0  0  0  0  0  0
   12.3763  -18.8536   23.8108 O   0  0  0  0  0  0  0  0  0  0  0  0
   13.8942  -17.8985   25.1860 O   0  0  0  0  0  0  0  0  0  0  0  0
  2  1  1  1
  2 10  1  0
  2  3  1  0
  3  4  1  0
  4  9  2  0
  5  4  1  0
  5  6  2  0
  6  7  1  0
  7  8  2  0
  9  8  1  0
 10 11  2  0
 10 17  1  0
 13 12  1  0
 14 15  1  6
 14 13  1  0
 16 14  1  0
 16 17  1  1
 18 16  1  0
 18 19  2  0
 20 21  1  0
 21 22  1  0
 22 23  1  0
 24 23  1  1
 24 25  1  0
 25 18  1  0
 26 24  1  0
 26 28  1  0
 27 26  2  0
M  END
$$$$
