FIM.pdb
     RDKit          3D

 28 28  0  0  1  0  0  0  0  0999 V2000
    5.4353  -17.9793   24.8006 N   0  0  0  0  0  0  0  0  0  0  0  0
    6.0019  -16.6588   24.7501 C   0  0  1  0  0  0  0  0  0  0  0  0
    6.6349  -16.3877   26.1149 C   0  0  0  0  0  0  0  0  0  0  0  0
    6.9318  -14.9487   26.2852 C   0  0  0  0  0  0  0  0  0  0  0  0
    8.2300  -14.5128   26.1458 C   0  0  0  0  0  0  0  0  0  0  0  0
    8.5725  -13.1817   26.2913 C   0  0  0  0  0  0  0  0  0  0  0  0
    7.5818  -12.2696   26.5845 C   0  0  0  0  0  0  0  0  0  0  0  0
    6.2894  -12.7181   26.7209 C   0  0  0  0  0  0  0  0  0  0  0  0
    5.9394  -14.0525   26.5760 C   0  0  0  0  0  0  0  0  0  0  0  0
    7.0983  -16.6155   23.7496 C   0  0  0  0  0  0  0  0  0  0  0  0
    7.7442  -17.6529   23.4384 O   0  0  0  0  0  0  0  0  0  0  0  0
    6.8415  -13.0637   19.6307 C   0  0  0  0  0  0  0  0  0  0  0  0
    7.0972  -14.2857   20.4684 C   0  0  0  0  0  0  0  0  0  0  0  0
    8.4296  -14.2059   21.1894 C   0  0  2  0  0  0  0  0  0  0  0  0
    9.5248  -14.3562   20.1546 C   0  0  0  0  0  0  0  0  0  0  0  0
    8.5974  -15.3636   22.1579 C   0  0  2  0  0  0  0  0  0  0  0  0
    7.4932  -15.4173   23.0803 N   0  0  0  0  0  0  0  0  0  0  0  0
    9.9067  -15.3525   22.8237 C   0  0  0  0  0  0  0  0  0  0  0  0
   10.6233  -14.3200   22.7509 O   0  0  0  0  0  0  0  0  0  0  0  0
   10.2535  -14.4426   29.8769 C   0  0  0  0  0  0  0  0  0  0  0  0
    9.5523  -14.6760   28.2007 S   0  0  0  0  0  0  0  0  0  0  0  0
   10.8782  -15.4311   27.1734 C   0  0  0  0  0  0  0  0  0  0  0  0
   10.3120  -15.5056   25.7766 C   0  0  0  0  0  0  0  0  0  0  0  0
   11.1669  -16.2670   24.8145 C   0  0  2  0  0  0  0  0  0  0  0  0
   10.4432  -16.4401   23.5619 N   0  0  0  0  0  0  0  0  0  0  0  0
   11.7231  -17.5181   25.3145 C   0  0  0  0  0  0  0  0  0  0  0  0
   11.1467  -18.6049   25.0880 O   0  0  0  0  0  0  0  0  0  0  0  0
   12.8978  -17.5496   26.0511 O   0  0  0  0  0  0  0  0  0  0  0  0
  2  1  1  1
  2 10  1  0
  2  3  1  0
  3  4  1  0
  4  9  2  0
  5  4  1  0
  5  6  2  0
  6  7  1  0
  7  8  2  0
  9  8  1  0
 10 11  2  0
 10 17  1  0
 13 12  1  0
 14 15  1  6
 14 13  1  0
 16 14  1  0
 16 17  1  1
 18 16  1  0
 18 19  2  0
 20 21  1  0
 21 22  1  0
 22 23  1  0
 24 23  1  1
 24 25  1  0
 25 18  1  0
 26 24  1  0
 26 28  1  0
 27 26  2  0
M  END
$$$$
