FIM.pdb
     RDKit          3D

 28 28  0  0  1  0  0  0  0  0999 V2000
    5.4342  -17.9848   24.9756 N   0  0  0  0  0  0  0  0  0  0  0  0
    5.8347  -16.6129   24.8187 C   0  0  1  0  0  0  0  0  0  0  0  0
    6.1661  -16.0781   26.2119 C   0  0  0  0  0  0  0  0  0  0  0  0
    6.3868  -14.6159   26.1799 C   0  0  0  0  0  0  0  0  0  0  0  0
    5.3136  -13.7736   26.3627 C   0  0  0  0  0  0  0  0  0  0  0  0
    5.4536  -12.3987   26.3453 C   0  0  0  0  0  0  0  0  0  0  0  0
    6.7059  -11.8617   26.1383 C   0  0  0  0  0  0  0  0  0  0  0  0
    7.7693  -12.7140   25.9574 C   0  0  0  0  0  0  0  0  0  0  0  0
    7.6352  -14.0946   25.9739 C   0  0  0  0  0  0  0  0  0  0  0  0
    7.0837  -16.5376   24.0192 C   0  0  0  0  0  0  0  0  0  0  0  0
    7.9636  -17.4382   24.0901 O   0  0  0  0  0  0  0  0  0  0  0  0
    6.8869  -13.2959   19.6193 C   0  0  0  0  0  0  0  0  0  0  0  0
    7.1772  -14.4988   20.4731 C   0  0  0  0  0  0  0  0  0  0  0  0
    8.4590  -14.3302   21.2670 C   0  0  2  0  0  0  0  0  0  0  0  0
    9.6207  -14.5514   20.3214 C   0  0  0  0  0  0  0  0  0  0  0  0
    8.5788  -15.3938   22.3444 C   0  0  2  0  0  0  0  0  0  0  0  0
    7.3732  -15.4591   23.1289 N   0  0  0  0  0  0  0  0  0  0  0  0
    9.7904  -15.2330   23.1590 C   0  0  0  0  0  0  0  0  0  0  0  0
   10.1348  -14.0787   23.5251 O   0  0  0  0  0  0  0  0  0  0  0  0
   10.4700  -14.9034   29.1318 C   0  0  0  0  0  0  0  0  0  0  0  0
    9.6813  -16.2095   28.1180 S   0  0  0  0  0  0  0  0  0  0  0  0
   10.9508  -16.7866   26.9186 C   0  0  0  0  0  0  0  0  0  0  0  0
   11.0390  -15.7023   25.8727 C   0  0  0  0  0  0  0  0  0  0  0  0
   11.6639  -16.1463   24.5888 C   0  0  2  0  0  0  0  0  0  0  0  0
   10.6260  -16.3016   23.5781 N   0  0  0  0  0  0  0  0  0  0  0  0
   12.5342  -17.3120   24.6778 C   0  0  0  0  0  0  0  0  0  0  0  0
   13.5518  -17.2910   25.4051 O   0  0  0  0  0  0  0  0  0  0  0  0
   12.2697  -18.4739   23.9682 O   0  0  0  0  0  0  0  0  0  0  0  0
  2  1  1  1
  2 10  1  0
  2  3  1  0
  3  4  1  0
  4  9  2  0
  5  4  1  0
  5  6  2  0
  6  7  1  0
  7  8  2  0
  9  8  1  0
 10 11  2  0
 10 17  1  0
 13 12  1  0
 14 15  1  6
 14 13  1  0
 16 14  1  0
 16 17  1  1
 18 16  1  0
 18 19  2  0
 20 21  1  0
 21 22  1  0
 22 23  1  0
 24 23  1  1
 24 25  1  0
 25 18  1  0
 26 24  1  0
 26 28  1  0
 27 26  2  0
M  END
$$$$
