FIM.pdb
     RDKit          3D

 28 28  0  0  1  0  0  0  0  0999 V2000
    5.9088  -18.2238   24.9506 N   0  0  0  0  0  0  0  0  0  0  0  0
    6.1165  -16.8043   24.8557 C   0  0  1  0  0  0  0  0  0  0  0  0
    6.2766  -16.2763   26.2813 C   0  0  0  0  0  0  0  0  0  0  0  0
    6.2026  -14.7993   26.3111 C   0  0  0  0  0  0  0  0  0  0  0  0
    4.9693  -14.1904   26.2564 C   0  0  0  0  0  0  0  0  0  0  0  0
    4.8326  -12.8153   26.2816 C   0  0  0  0  0  0  0  0  0  0  0  0
    5.9669  -12.0369   26.3637 C   0  0  0  0  0  0  0  0  0  0  0  0
    7.1924  -12.6576   26.4179 C   0  0  0  0  0  0  0  0  0  0  0  0
    7.3361  -14.0370   26.3931 C   0  0  0  0  0  0  0  0  0  0  0  0
    7.3906  -16.5246   24.1463 C   0  0  0  0  0  0  0  0  0  0  0  0
    8.3794  -17.3012   24.2422 O   0  0  0  0  0  0  0  0  0  0  0  0
    7.1809  -12.6143   20.1425 C   0  0  0  0  0  0  0  0  0  0  0  0
    7.3638  -13.9008   20.8986 C   0  0  0  0  0  0  0  0  0  0  0  0
    8.6505  -13.9039   21.7024 C   0  0  2  0  0  0  0  0  0  0  0  0
    9.8062  -13.9256   20.7244 C   0  0  0  0  0  0  0  0  0  0  0  0
    8.7727  -15.1689   22.5338 C   0  0  2  0  0  0  0  0  0  0  0  0
    7.5841  -15.3763   23.3195 N   0  0  0  0  0  0  0  0  0  0  0  0
   10.0056  -15.1986   23.3318 C   0  0  0  0  0  0  0  0  0  0  0  0
   10.4052  -14.1398   23.8832 O   0  0  0  0  0  0  0  0  0  0  0  0
   11.7137  -13.1436   27.8623 C   0  0  0  0  0  0  0  0  0  0  0  0
   11.7747  -14.9241   28.2886 S   0  0  0  0  0  0  0  0  0  0  0  0
   12.5309  -15.7864   26.8507 C   0  0  0  0  0  0  0  0  0  0  0  0
   11.4546  -15.8268   25.7937 C   0  0  0  0  0  0  0  0  0  0  0  0
   11.9069  -16.3974   24.4876 C   0  0  2  0  0  0  0  0  0  0  0  0
   10.8036  -16.3549   23.5371 N   0  0  0  0  0  0  0  0  0  0  0  0
   12.5352  -17.7109   24.5540 C   0  0  0  0  0  0  0  0  0  0  0  0
   13.7736  -17.8162   24.6958 O   0  0  0  0  0  0  0  0  0  0  0  0
   11.7924  -18.8786   24.4635 O   0  0  0  0  0  0  0  0  0  0  0  0
  2  1  1  1
  2 10  1  0
  2  3  1  0
  3  4  1  0
  4  9  2  0
  5  4  1  0
  5  6  2  0
  6  7  1  0
  7  8  2  0
  9  8  1  0
 10 11  2  0
 10 17  1  0
 13 12  1  0
 14 15  1  6
 14 13  1  0
 16 14  1  0
 16 17  1  1
 18 16  1  0
 18 19  2  0
 20 21  1  0
 21 22  1  0
 22 23  1  0
 24 23  1  1
 24 25  1  0
 25 18  1  0
 26 24  1  0
 26 28  1  0
 27 26  2  0
M  END
$$$$
