FIM.pdb
     RDKit          3D

 28 28  0  0  1  0  0  0  0  0999 V2000
    5.6704  -17.9265   25.2237 N   0  0  0  0  0  0  0  0  0  0  0  0
    5.9996  -16.5386   25.0440 C   0  0  1  0  0  0  0  0  0  0  0  0
    6.2261  -15.9456   26.4346 C   0  0  0  0  0  0  0  0  0  0  0  0
    6.2480  -14.4675   26.3837 C   0  0  0  0  0  0  0  0  0  0  0  0
    5.0547  -13.7814   26.3691 C   0  0  0  0  0  0  0  0  0  0  0  0
    5.0073  -12.4008   26.3233 C   0  0  0  0  0  0  0  0  0  0  0  0
    6.1915  -11.6967   26.2912 C   0  0  0  0  0  0  0  0  0  0  0  0
    7.3762  -12.3941   26.3064 C   0  0  0  0  0  0  0  0  0  0  0  0
    7.4304  -13.7794   26.3524 C   0  0  0  0  0  0  0  0  0  0  0  0
    7.2827  -16.4132   24.3072 C   0  0  0  0  0  0  0  0  0  0  0  0
    8.2108  -17.2535   24.4578 O   0  0  0  0  0  0  0  0  0  0  0  0
    7.1549  -13.1890   19.8081 C   0  0  0  0  0  0  0  0  0  0  0  0
    7.3315  -14.3133   20.7905 C   0  0  0  0  0  0  0  0  0  0  0  0
    8.6430  -14.2016   21.5450 C   0  0  2  0  0  0  0  0  0  0  0  0
    9.7654  -14.4532   20.5603 C   0  0  0  0  0  0  0  0  0  0  0  0
    8.7574  -15.2823   22.6058 C   0  0  2  0  0  0  0  0  0  0  0  0
    7.5529  -15.3508   23.3918 N   0  0  0  0  0  0  0  0  0  0  0  0
    9.9718  -15.1425   23.4201 C   0  0  0  0  0  0  0  0  0  0  0  0
   10.4240  -13.9912   23.6549 O   0  0  0  0  0  0  0  0  0  0  0  0
   10.8228  -15.5451   29.1763 C   0  0  0  0  0  0  0  0  0  0  0  0
   11.5882  -14.2277   28.1592 S   0  0  0  0  0  0  0  0  0  0  0  0
   11.1334  -14.5776   26.4116 C   0  0  0  0  0  0  0  0  0  0  0  0
   11.8523  -15.8560   26.0567 C   0  0  0  0  0  0  0  0  0  0  0  0
   12.0109  -16.0755   24.5861 C   0  0  2  0  0  0  0  0  0  0  0  0
   10.6955  -16.2288   23.9787 N   0  0  0  0  0  0  0  0  0  0  0  0
   12.9305  -17.1384   24.1999 C   0  0  0  0  0  0  0  0  0  0  0  0
   12.5130  -18.1512   23.5959 O   0  0  0  0  0  0  0  0  0  0  0  0
   14.2860  -17.0674   24.4845 O   0  0  0  0  0  0  0  0  0  0  0  0
  2  1  1  1
  2 10  1  0
  2  3  1  0
  3  4  1  0
  4  9  2  0
  5  4  1  0
  5  6  2  0
  6  7  1  0
  7  8  2  0
  9  8  1  0
 10 11  2  0
 10 17  1  0
 13 12  1  0
 14 15  1  6
 14 13  1  0
 16 14  1  0
 16 17  1  1
 18 16  1  0
 18 19  2  0
 20 21  1  0
 21 22  1  0
 22 23  1  0
 24 23  1  1
 24 25  1  0
 25 18  1  0
 26 24  1  0
 26 28  1  0
 27 26  2  0
M  END
$$$$
