FIM.pdb
     RDKit          3D

 28 28  0  0  1  0  0  0  0  0999 V2000
    5.4827  -17.9735   24.7352 N   0  0  0  0  0  0  0  0  0  0  0  0
    5.8659  -16.5882   24.7010 C   0  0  1  0  0  0  0  0  0  0  0  0
    6.1082  -16.1521   26.1459 C   0  0  0  0  0  0  0  0  0  0  0  0
    6.2012  -14.6794   26.2468 C   0  0  0  0  0  0  0  0  0  0  0  0
    6.0438  -13.9201   25.1095 C   0  0  0  0  0  0  0  0  0  0  0  0
    6.1180  -12.5402   25.1372 C   0  0  0  0  0  0  0  0  0  0  0  0
    6.3571  -11.9123   26.3405 C   0  0  0  0  0  0  0  0  0  0  0  0
    6.5123  -12.6823   27.4688 C   0  0  0  0  0  0  0  0  0  0  0  0
    6.4388  -14.0674   27.4475 C   0  0  0  0  0  0  0  0  0  0  0  0
    7.1563  -16.4367   23.9822 C   0  0  0  0  0  0  0  0  0  0  0  0
    8.1086  -17.2426   24.1663 O   0  0  0  0  0  0  0  0  0  0  0  0
    7.1303  -13.1497   19.4810 C   0  0  0  0  0  0  0  0  0  0  0  0
    7.3392  -14.3382   20.3777 C   0  0  0  0  0  0  0  0  0  0  0  0
    8.5435  -14.1568   21.2823 C   0  0  2  0  0  0  0  0  0  0  0  0
    9.7864  -14.2627   20.4239 C   0  0  0  0  0  0  0  0  0  0  0  0
    8.6346  -15.2777   22.3030 C   0  0  2  0  0  0  0  0  0  0  0  0
    7.4072  -15.3860   23.0480 N   0  0  0  0  0  0  0  0  0  0  0  0
    9.8222  -15.1613   23.1594 C   0  0  0  0  0  0  0  0  0  0  0  0
   10.0616  -14.0653   23.7308 O   0  0  0  0  0  0  0  0  0  0  0  0
   10.6233  -13.5541   28.2013 C   0  0  0  0  0  0  0  0  0  0  0  0
   10.9400  -15.3492   28.3828 S   0  0  0  0  0  0  0  0  0  0  0  0
   11.9846  -15.8489   26.9536 C   0  0  0  0  0  0  0  0  0  0  0  0
   11.0579  -15.8621   25.7627 C   0  0  0  0  0  0  0  0  0  0  0  0
   11.7392  -16.1640   24.4662 C   0  0  2  0  0  0  0  0  0  0  0  0
   10.7459  -16.2120   23.4015 N   0  0  0  0  0  0  0  0  0  0  0  0
   12.6128  -17.3307   24.4666 C   0  0  0  0  0  0  0  0  0  0  0  0
   13.6244  -17.3666   25.2015 O   0  0  0  0  0  0  0  0  0  0  0  0
   12.3581  -18.4312   23.6618 O   0  0  0  0  0  0  0  0  0  0  0  0
  2  1  1  1
  2 10  1  0
  2  3  1  0
  3  4  1  0
  4  9  2  0
  5  4  1  0
  5  6  2  0
  6  7  1  0
  7  8  2  0
  9  8  1  0
 10 11  2  0
 10 17  1  0
 13 12  1  0
 14 15  1  6
 14 13  1  0
 16 14  1  0
 16 17  1  1
 18 16  1  0
 18 19  2  0
 20 21  1  0
 21 22  1  0
 22 23  1  0
 24 23  1  1
 24 25  1  0
 25 18  1  0
 26 24  1  0
 26 28  1  0
 27 26  2  0
M  END
$$$$
