FIM.pdb
     RDKit          3D

 28 28  0  0  1  0  0  0  0  0999 V2000
    5.6223  -16.8968   25.3435 N   0  0  0  0  0  0  0  0  0  0  0  0
    6.3546  -15.7380   24.9099 C   0  0  1  0  0  0  0  0  0  0  0  0
    7.0805  -15.1799   26.1340 C   0  0  0  0  0  0  0  0  0  0  0  0
    6.7357  -13.7583   26.3525 C   0  0  0  0  0  0  0  0  0  0  0  0
    6.6377  -13.2845   27.6412 C   0  0  0  0  0  0  0  0  0  0  0  0
    6.3203  -11.9669   27.9122 C   0  0  0  0  0  0  0  0  0  0  0  0
    6.0965  -11.1077   26.8581 C   0  0  0  0  0  0  0  0  0  0  0  0
    6.1978  -11.5936   25.5760 C   0  0  0  0  0  0  0  0  0  0  0  0
    6.5160  -12.9148   25.2976 C   0  0  0  0  0  0  0  0  0  0  0  0
    7.3995  -16.1351   23.9324 C   0  0  0  0  0  0  0  0  0  0  0  0
    7.8774  -17.3020   23.9202 O   0  0  0  0  0  0  0  0  0  0  0  0
    7.1690  -13.4104   19.7604 C   0  0  0  0  0  0  0  0  0  0  0  0
    7.6059  -14.7810   20.1972 C   0  0  0  0  0  0  0  0  0  0  0  0
    8.9903  -14.7601   20.8176 C   0  0  2  0  0  0  0  0  0  0  0  0
    9.9409  -15.4313   19.8488 C   0  0  0  0  0  0  0  0  0  0  0  0
    9.0305  -15.5839   22.0928 C   0  0  2  0  0  0  0  0  0  0  0  0
    7.9289  -15.2398   22.9537 N   0  0  0  0  0  0  0  0  0  0  0  0
   10.3342  -15.5124   22.7657 C   0  0  0  0  0  0  0  0  0  0  0  0
   10.8351  -14.3846   23.0147 O   0  0  0  0  0  0  0  0  0  0  0  0
   10.1513  -14.0500   27.8935 C   0  0  0  0  0  0  0  0  0  0  0  0
   10.2521  -15.8679   28.0949 S   0  0  0  0  0  0  0  0  0  0  0  0
   11.5360  -16.4598   26.9183 C   0  0  0  0  0  0  0  0  0  0  0  0
   10.8911  -16.4006   25.5553 C   0  0  0  0  0  0  0  0  0  0  0  0
   11.8272  -16.6952   24.4270 C   0  0  2  0  0  0  0  0  0  0  0  0
   11.0947  -16.6416   23.1687 N   0  0  0  0  0  0  0  0  0  0  0  0
   12.6168  -17.9130   24.5609 C   0  0  0  0  0  0  0  0  0  0  0  0
   13.6405  -17.9305   25.2796 O   0  0  0  0  0  0  0  0  0  0  0  0
   12.2668  -19.0835   23.9043 O   0  0  0  0  0  0  0  0  0  0  0  0
  2  1  1  1
  2 10  1  0
  2  3  1  0
  3  4  1  0
  4  9  2  0
  5  4  1  0
  5  6  2  0
  6  7  1  0
  7  8  2  0
  9  8  1  0
 10 11  2  0
 10 17  1  0
 13 12  1  0
 14 15  1  6
 14 13  1  0
 16 14  1  0
 16 17  1  1
 18 16  1  0
 18 19  2  0
 20 21  1  0
 21 22  1  0
 22 23  1  0
 24 23  1  1
 24 25  1  0
 25 18  1  0
 26 24  1  0
 26 28  1  0
 27 26  2  0
M  END
$$$$
