FIM.pdb
     RDKit          3D

 28 28  0  0  1  0  0  0  0  0999 V2000
    5.3283  -18.7181   23.2854 N   0  0  0  0  0  0  0  0  0  0  0  0
    5.7096  -17.3703   23.6098 C   0  0  1  0  0  0  0  0  0  0  0  0
    5.8817  -17.3038   25.1273 C   0  0  0  0  0  0  0  0  0  0  0  0
    6.1912  -15.9255   25.5659 C   0  0  0  0  0  0  0  0  0  0  0  0
    6.9417  -15.7388   26.7046 C   0  0  0  0  0  0  0  0  0  0  0  0
    7.2660  -14.4771   27.1662 C   0  0  0  0  0  0  0  0  0  0  0  0
    6.8223  -13.3785   26.4624 C   0  0  0  0  0  0  0  0  0  0  0  0
    6.0738  -13.5788   25.3267 C   0  0  0  0  0  0  0  0  0  0  0  0
    5.7452  -14.8424   24.8583 C   0  0  0  0  0  0  0  0  0  0  0  0
    7.0326  -17.0597   23.0114 C   0  0  0  0  0  0  0  0  0  0  0  0
    7.9874  -17.8816   23.0672 O   0  0  0  0  0  0  0  0  0  0  0  0
    7.4209  -12.6349   19.5127 C   0  0  0  0  0  0  0  0  0  0  0  0
    7.5167  -14.0340   20.0546 C   0  0  0  0  0  0  0  0  0  0  0  0
    8.5868  -14.1522   21.1236 C   0  0  2  0  0  0  0  0  0  0  0  0
    9.9328  -13.9848   20.4506 C   0  0  0  0  0  0  0  0  0  0  0  0
    8.5903  -15.5388   21.7429 C   0  0  2  0  0  0  0  0  0  0  0  0
    7.3138  -15.8298   22.3421 N   0  0  0  0  0  0  0  0  0  0  0  0
    9.7190  -15.7402   22.6610 C   0  0  0  0  0  0  0  0  0  0  0  0
   10.8371  -16.0810   22.1931 O   0  0  0  0  0  0  0  0  0  0  0  0
   10.6297  -13.4520   29.1272 C   0  0  0  0  0  0  0  0  0  0  0  0
   11.9864  -14.0042   28.0272 S   0  0  0  0  0  0  0  0  0  0  0  0
   11.4940  -15.6481   27.3649 C   0  0  0  0  0  0  0  0  0  0  0  0
   10.4241  -15.3649   26.3391 C   0  0  0  0  0  0  0  0  0  0  0  0
   10.8001  -15.7555   24.9455 C   0  0  2  0  0  0  0  0  0  0  0  0
    9.6496  -15.5772   24.0697 N   0  0  0  0  0  0  0  0  0  0  0  0
   11.4133  -17.0698   24.7998 C   0  0  0  0  0  0  0  0  0  0  0  0
   12.5552  -17.2925   25.2593 O   0  0  0  0  0  0  0  0  0  0  0  0
   10.7613  -18.1097   24.1540 O   0  0  0  0  0  0  0  0  0  0  0  0
  2  1  1  1
  2 10  1  0
  2  3  1  0
  3  4  1  0
  4  9  2  0
  5  4  1  0
  5  6  2  0
  6  7  1  0
  7  8  2  0
  9  8  1  0
 10 11  2  0
 10 17  1  0
 13 12  1  0
 14 15  1  6
 14 13  1  0
 16 14  1  0
 16 17  1  1
 18 16  1  0
 18 19  2  0
 20 21  1  0
 21 22  1  0
 22 23  1  0
 24 23  1  1
 24 25  1  0
 25 18  1  0
 26 24  1  0
 26 28  1  0
 27 26  2  0
M  END
$$$$
