SSN.pdb
     RDKit          3D

 21 20  0  0  1  0  0  0  0  0999 V2000
   21.0918   -9.4518  -18.2022 O   0  0  0  0  0  0  0  0  0  0  0  0
   22.3383   -8.8088  -18.1717 C   0  0  0  0  0  0  0  0  0  0  0  0
   22.9349   -8.9576  -16.7907 C   0  0  2  0  0  0  0  0  0  0  0  0
   23.0163  -10.3410  -16.4183 N   0  0  0  0  0  0  0  0  0  0  0  0
   22.0442   -8.2386  -15.8184 C   0  0  0  0  0  0  0  0  0  0  0  0
   21.0430   -8.8170  -15.3313 O   0  0  0  0  0  0  0  0  0  0  0  0
   23.1144   -4.4974  -14.4107 O   0  0  0  0  0  0  0  0  0  0  0  0
   22.2764   -5.3393  -13.6420 C   0  0  0  0  0  0  0  0  0  0  0  0
   21.4636   -6.1274  -14.5828 C   0  0  2  0  0  0  0  0  0  0  0  0
   22.3337   -6.8962  -15.4457 N   0  0  0  0  0  0  0  0  0  0  0  0
   20.4958   -5.3995  -15.3928 C   0  0  0  0  0  0  0  0  0  0  0  0
   20.8426   -5.0132  -16.5318 O   0  0  0  0  0  0  0  0  0  0  0  0
   15.0404   -5.1000  -17.6377 N   0  0  0  0  0  0  0  0  0  0  0  0
   16.2660   -4.4987  -17.2443 C   0  0  0  0  0  0  0  0  0  0  0  0
   16.6847   -3.5191  -17.9036 O   0  0  0  0  0  0  0  0  0  0  0  0
   17.0182   -5.0138  -16.0965 C   0  0  0  0  0  0  0  0  0  0  0  0
   18.3026   -4.2790  -15.8094 C   0  0  2  0  0  0  0  0  0  0  0  0
   19.1731   -5.0896  -14.9867 N   0  0  0  0  0  0  0  0  0  0  0  0
   18.0893   -2.9613  -15.1628 C   0  0  0  0  0  0  0  0  0  0  0  0
   17.8449   -2.9371  -13.9331 O   0  0  0  0  0  0  0  0  0  0  0  0
   18.1569   -1.7852  -15.8919 O   0  0  0  0  0  0  0  0  0  0  0  0
  1  2  1  0
  2  3  1  0
  3  4  1  1
  5  3  1  0
  5  6  2  0
  7  8  1  0
  9  8  1  6
  9 11  1  0
  9 10  1  0
 10  5  1  0
 11 18  1  0
 12 11  2  0
 13 14  1  0
 14 15  2  0
 16 14  1  0
 17 16  1  1
 17 19  1  0
 18 17  1  0
 19 20  2  0
 19 21  1  0
M  END
$$$$
