SSN.pdb
     RDKit          3D

 21 20  0  0  1  0  0  0  0  0999 V2000
   19.1113  -13.5154  -15.3022 O   0  0  0  0  0  0  0  0  0  0  0  0
   19.1512  -12.1165  -15.4008 C   0  0  0  0  0  0  0  0  0  0  0  0
   17.8020  -11.5572  -15.0110 C   0  0  2  0  0  0  0  0  0  0  0  0
   16.8239  -11.8370  -16.0230 N   0  0  0  0  0  0  0  0  0  0  0  0
   17.9404  -10.0694  -14.8593 C   0  0  0  0  0  0  0  0  0  0  0  0
   18.0825   -9.3413  -15.8710 O   0  0  0  0  0  0  0  0  0  0  0  0
   18.0672   -8.3411  -11.0443 O   0  0  0  0  0  0  0  0  0  0  0  0
   17.4516   -7.6466  -12.1123 C   0  0  0  0  0  0  0  0  0  0  0  0
   18.1237   -8.0645  -13.3534 C   0  0  2  0  0  0  0  0  0  0  0  0
   17.9107   -9.4797  -13.5646 N   0  0  0  0  0  0  0  0  0  0  0  0
   19.5446   -7.7643  -13.4707 C   0  0  0  0  0  0  0  0  0  0  0  0
   20.3598   -8.4938  -12.8625 O   0  0  0  0  0  0  0  0  0  0  0  0
   21.4103   -7.9552  -17.6027 N   0  0  0  0  0  0  0  0  0  0  0  0
   21.9377   -7.8096  -16.2915 C   0  0  0  0  0  0  0  0  0  0  0  0
   22.3210   -8.8387  -15.6887 O   0  0  0  0  0  0  0  0  0  0  0  0
   22.0292   -6.4881  -15.6639 C   0  0  0  0  0  0  0  0  0  0  0  0
   21.5055   -6.4286  -14.2516 C   0  0  2  0  0  0  0  0  0  0  0  0
   20.0842   -6.6956  -14.2303 N   0  0  0  0  0  0  0  0  0  0  0  0
   21.7804   -5.1346  -13.5811 C   0  0  0  0  0  0  0  0  0  0  0  0
   22.9746   -4.8262  -13.3549 O   0  0  0  0  0  0  0  0  0  0  0  0
   20.7503   -4.2850  -13.2119 O   0  0  0  0  0  0  0  0  0  0  0  0
  1  2  1  0
  2  3  1  0
  3  4  1  6
  5  3  1  0
  5  6  2  0
  7  8  1  0
  9  8  1  1
  9 11  1  0
  9 10  1  0
 10  5  1  0
 11 18  1  0
 12 11  2  0
 13 14  1  0
 14 15  2  0
 16 14  1  0
 17 16  1  6
 17 19  1  0
 18 17  1  0
 19 20  2  0
 19 21  1  0
M  END
$$$$
