SSN.pdb
     RDKit          3D

 21 20  0  0  1  0  0  0  0  0999 V2000
   22.6059  -11.8120  -17.4384 O   0  0  0  0  0  0  0  0  0  0  0  0
   22.0307  -10.5389  -17.3089 C   0  0  0  0  0  0  0  0  0  0  0  0
   20.5558  -10.6931  -17.0156 C   0  0  2  0  0  0  0  0  0  0  0  0
   19.8449  -11.1114  -18.1899 N   0  0  0  0  0  0  0  0  0  0  0  0
   20.0273   -9.3596  -16.5702 C   0  0  0  0  0  0  0  0  0  0  0  0
   19.7835   -8.4627  -17.4130 O   0  0  0  0  0  0  0  0  0  0  0  0
   19.6544   -8.5990  -12.5171 O   0  0  0  0  0  0  0  0  0  0  0  0
   18.7415   -7.9597  -13.3887 C   0  0  0  0  0  0  0  0  0  0  0  0
   19.4105   -7.8075  -14.6910 C   0  0  2  0  0  0  0  0  0  0  0  0
   19.8010   -9.1087  -15.1880 N   0  0  0  0  0  0  0  0  0  0  0  0
   20.5515   -6.9033  -14.7479 C   0  0  0  0  0  0  0  0  0  0  0  0
   21.6963   -7.3767  -14.5690 O   0  0  0  0  0  0  0  0  0  0  0  0
   21.7781   -4.7309  -17.7593 N   0  0  0  0  0  0  0  0  0  0  0  0
   21.4207   -3.5007  -17.1449 C   0  0  0  0  0  0  0  0  0  0  0  0
   21.1365   -2.5295  -17.8834 O   0  0  0  0  0  0  0  0  0  0  0  0
   21.3866   -3.3752  -15.6849 C   0  0  0  0  0  0  0  0  0  0  0  0
   21.6366   -4.6618  -14.9403 C   0  0  2  0  0  0  0  0  0  0  0  0
   20.4660   -5.5095  -14.9933 N   0  0  0  0  0  0  0  0  0  0  0  0
   22.0365   -4.4506  -13.5278 C   0  0  0  0  0  0  0  0  0  0  0  0
   23.1559   -3.9336  -13.2996 O   0  0  0  0  0  0  0  0  0  0  0  0
   21.2005   -4.8125  -12.4839 O   0  0  0  0  0  0  0  0  0  0  0  0
  1  2  1  0
  2  3  1  0
  3  4  1  6
  5  3  1  0
  5  6  2  0
  7  8  1  0
  9  8  1  1
  9 11  1  0
  9 10  1  0
 10  5  1  0
 11 18  1  0
 12 11  2  0
 13 14  1  0
 14 15  2  0
 16 14  1  0
 17 16  1  1
 17 19  1  0
 18 17  1  0
 19 20  2  0
 19 21  1  0
M  END
$$$$
