SSN.pdb
     RDKit          3D

 21 20  0  0  1  0  0  0  0  0999 V2000
   15.2175  -10.0984  -11.8068 O   0  0  0  0  0  0  0  0  0  0  0  0
   15.6533  -10.2669  -10.4839 C   0  0  0  0  0  0  0  0  0  0  0  0
   15.1710   -9.0988   -9.6546 C   0  0  2  0  0  0  0  0  0  0  0  0
   13.7377   -9.0808   -9.5866 N   0  0  0  0  0  0  0  0  0  0  0  0
   15.6477   -7.8339  -10.3093 C   0  0  0  0  0  0  0  0  0  0  0  0
   15.0663   -7.3923  -11.3296 O   0  0  0  0  0  0  0  0  0  0  0  0
   18.1248   -5.2551   -8.3526 O   0  0  0  0  0  0  0  0  0  0  0  0
   17.3564   -4.8432   -9.4669 C   0  0  0  0  0  0  0  0  0  0  0  0
   17.3264   -5.9655  -10.4189 C   0  0  2  0  0  0  0  0  0  0  0  0
   16.7628   -7.1310   -9.7734 N   0  0  0  0  0  0  0  0  0  0  0  0
   18.5851   -6.3255  -11.0584 C   0  0  0  0  0  0  0  0  0  0  0  0
   19.3119   -7.1805  -10.5040 O   0  0  0  0  0  0  0  0  0  0  0  0
   22.6646   -6.9312  -14.2257 N   0  0  0  0  0  0  0  0  0  0  0  0
   21.4077   -7.3251  -14.7582 C   0  0  0  0  0  0  0  0  0  0  0  0
   21.3943   -7.9677  -15.8335 O   0  0  0  0  0  0  0  0  0  0  0  0
   20.1616   -6.9864  -14.0648 C   0  0  0  0  0  0  0  0  0  0  0  0
   20.3435   -6.1505  -12.8237 C   0  0  2  0  0  0  0  0  0  0  0  0
   19.0582   -5.7755  -12.2766 N   0  0  0  0  0  0  0  0  0  0  0  0
   21.1620   -4.9351  -13.0533 C   0  0  0  0  0  0  0  0  0  0  0  0
   22.3744   -5.0820  -13.3378 O   0  0  0  0  0  0  0  0  0  0  0  0
   20.6082   -3.6688  -12.9575 O   0  0  0  0  0  0  0  0  0  0  0  0
  1  2  1  0
  2  3  1  0
  3  4  1  6
  5  3  1  0
  5  6  2  0
  7  8  1  0
  9  8  1  1
  9 11  1  0
  9 10  1  0
 10  5  1  0
 11 18  1  0
 12 11  2  0
 13 14  1  0
 14 15  2  0
 16 14  1  0
 17 16  1  6
 17 19  1  0
 18 17  1  0
 19 20  2  0
 19 21  1  0
M  END
$$$$
