SSN.pdb
     RDKit          3D

 21 20  0  0  1  0  0  0  0  0999 V2000
   17.6691   -8.9365  -19.9500 O   0  0  0  0  0  0  0  0  0  0  0  0
   18.8251   -9.4592  -19.3512 C   0  0  0  0  0  0  0  0  0  0  0  0
   18.5355   -9.7545  -17.8972 C   0  0  2  0  0  0  0  0  0  0  0  0
   17.1246   -9.7068  -17.6400 N   0  0  0  0  0  0  0  0  0  0  0  0
   19.2224   -8.7107  -17.0639 C   0  0  0  0  0  0  0  0  0  0  0  0
   18.5588   -7.9901  -16.2801 O   0  0  0  0  0  0  0  0  0  0  0  0
   23.3596   -7.0216  -15.3622 O   0  0  0  0  0  0  0  0  0  0  0  0
   22.7567   -7.9143  -16.2795 C   0  0  0  0  0  0  0  0  0  0  0  0
   21.3407   -7.5304  -16.3999 C   0  0  2  0  0  0  0  0  0  0  0  0
   20.6312   -8.5356  -17.1609 N   0  0  0  0  0  0  0  0  0  0  0  0
   21.0563   -6.2125  -16.9522 C   0  0  0  0  0  0  0  0  0  0  0  0
   20.9437   -6.0983  -18.1935 O   0  0  0  0  0  0  0  0  0  0  0  0
   18.4836   -0.7472  -15.7998 N   0  0  0  0  0  0  0  0  0  0  0  0
   19.3454   -1.6290  -16.5057 C   0  0  0  0  0  0  0  0  0  0  0  0
   19.7629   -1.2745  -17.6324 O   0  0  0  0  0  0  0  0  0  0  0  0
   19.7334   -2.9188  -15.9276 C   0  0  0  0  0  0  0  0  0  0  0  0
   20.6247   -3.7565  -16.8085 C   0  0  2  0  0  0  0  0  0  0  0  0
   20.8949   -5.0323  -16.1832 N   0  0  0  0  0  0  0  0  0  0  0  0
   21.9035   -3.0873  -17.1500 C   0  0  0  0  0  0  0  0  0  0  0  0
   22.8557   -3.1794  -16.3393 O   0  0  0  0  0  0  0  0  0  0  0  0
   22.0487   -2.3778  -18.3311 O   0  0  0  0  0  0  0  0  0  0  0  0
  1  2  1  0
  2  3  1  0
  3  4  1  6
  5  3  1  0
  5  6  2  0
  7  8  1  0
  9  8  1  6
  9 11  1  0
  9 10  1  0
 10  5  1  0
 11 18  1  0
 12 11  2  0
 13 14  1  0
 14 15  2  0
 16 14  1  0
 17 16  1  1
 17 19  1  0
 18 17  1  0
 19 20  2  0
 19 21  1  0
M  END
$$$$
