SSN.pdb
     RDKit          3D

 21 20  0  0  1  0  0  0  0  0999 V2000
   16.4302  -10.9189  -18.0616 O   0  0  0  0  0  0  0  0  0  0  0  0
   17.0455  -10.3490  -16.9369 C   0  0  0  0  0  0  0  0  0  0  0  0
   18.2852  -11.1449  -16.5982 C   0  0  2  0  0  0  0  0  0  0  0  0
   17.9354  -12.4509  -16.1173 N   0  0  0  0  0  0  0  0  0  0  0  0
   19.0320  -10.4091  -15.5227 C   0  0  0  0  0  0  0  0  0  0  0  0
   18.6277  -10.4435  -14.3355 O   0  0  0  0  0  0  0  0  0  0  0  0
   22.9220   -9.4667  -15.9838 O   0  0  0  0  0  0  0  0  0  0  0  0
   22.2967   -9.5372  -14.7166 C   0  0  0  0  0  0  0  0  0  0  0  0
   20.9586   -8.9391  -14.8530 C   0  0  2  0  0  0  0  0  0  0  0  0
   20.2031   -9.6689  -15.8477 N   0  0  0  0  0  0  0  0  0  0  0  0
   20.8970   -7.5133  -15.1459 C   0  0  0  0  0  0  0  0  0  0  0  0
   20.8713   -7.1517  -16.3439 O   0  0  0  0  0  0  0  0  0  0  0  0
   20.5690   -2.3356  -15.0913 N   0  0  0  0  0  0  0  0  0  0  0  0
   19.6763   -2.9277  -14.1580 C   0  0  0  0  0  0  0  0  0  0  0  0
   18.8560   -2.1862  -13.5692 O   0  0  0  0  0  0  0  0  0  0  0  0
   19.7172   -4.3689  -13.8936 C   0  0  0  0  0  0  0  0  0  0  0  0
   20.8730   -5.0907  -14.5382 C   0  0  2  0  0  0  0  0  0  0  0  0
   20.8637   -6.4884  -14.1667 N   0  0  0  0  0  0  0  0  0  0  0  0
   22.1905   -4.4951  -14.2077 C   0  0  0  0  0  0  0  0  0  0  0  0
   22.7311   -4.8168  -13.1230 O   0  0  0  0  0  0  0  0  0  0  0  0
   22.8126   -3.6067  -15.0698 O   0  0  0  0  0  0  0  0  0  0  0  0
  1  2  1  0
  2  3  1  0
  3  4  1  1
  5  3  1  0
  5  6  2  0
  7  8  1  0
  9  8  1  6
  9 11  1  0
  9 10  1  0
 10  5  1  0
 11 18  1  0
 12 11  2  0
 13 14  1  0
 14 15  2  0
 16 14  1  0
 17 16  1  1
 17 19  1  0
 18 17  1  0
 19 20  2  0
 19 21  1  0
M  END
$$$$
