SSN.pdb
     RDKit          3D

 21 20  0  0  1  0  0  0  0  0999 V2000
   18.8503  -11.1483  -20.1629 O   0  0  0  0  0  0  0  0  0  0  0  0
   19.1339  -10.4947  -18.9544 C   0  0  0  0  0  0  0  0  0  0  0  0
   19.8474  -11.4558  -18.0311 C   0  0  2  0  0  0  0  0  0  0  0  0
   18.9987  -12.5632  -17.6955 N   0  0  0  0  0  0  0  0  0  0  0  0
   20.2080  -10.7149  -16.7754 C   0  0  0  0  0  0  0  0  0  0  0  0
   19.3311  -10.4690  -15.9125 O   0  0  0  0  0  0  0  0  0  0  0  0
   24.1787   -9.9017  -15.8425 O   0  0  0  0  0  0  0  0  0  0  0  0
   23.1790   -9.9993  -14.8461 C   0  0  0  0  0  0  0  0  0  0  0  0
   21.9299   -9.4777  -15.4244 C   0  0  2  0  0  0  0  0  0  0  0  0
   21.5484  -10.2885  -16.5600 N   0  0  0  0  0  0  0  0  0  0  0  0
   21.9124   -8.0711  -15.8040 C   0  0  0  0  0  0  0  0  0  0  0  0
   22.2696   -7.7624  -16.9632 O   0  0  0  0  0  0  0  0  0  0  0  0
   20.2033   -3.2251  -17.3030 N   0  0  0  0  0  0  0  0  0  0  0  0
   20.1089   -3.6825  -15.9612 C   0  0  0  0  0  0  0  0  0  0  0  0
   19.9669   -2.8314  -15.0530 O   0  0  0  0  0  0  0  0  0  0  0  0
   20.1765   -5.1137  -15.6516 C   0  0  0  0  0  0  0  0  0  0  0  0
   21.5675   -5.6322  -15.3900 C   0  0  2  0  0  0  0  0  0  0  0  0
   21.5170   -7.0094  -14.9515 N   0  0  0  0  0  0  0  0  0  0  0  0
   22.3166   -4.8203  -14.4003 C   0  0  0  0  0  0  0  0  0  0  0  0
   22.3774   -5.2346  -13.2183 O   0  0  0  0  0  0  0  0  0  0  0  0
   22.9348   -3.6354  -14.7653 O   0  0  0  0  0  0  0  0  0  0  0  0
  1  2  1  0
  2  3  1  0
  3  4  1  1
  5  3  1  0
  5  6  2  0
  7  8  1  0
  9  8  1  6
  9 11  1  0
  9 10  1  0
 10  5  1  0
 11 18  1  0
 12 11  2  0
 13 14  1  0
 14 15  2  0
 16 14  1  0
 17 16  1  1
 17 19  1  0
 18 17  1  0
 19 20  2  0
 19 21  1  0
M  END
$$$$
