SSN.pdb
     RDKit          3D

 21 20  0  0  1  0  0  0  0  0999 V2000
   14.2002  -10.3054  -12.3847 O   0  0  0  0  0  0  0  0  0  0  0  0
   15.2364  -10.5172  -13.3065 C   0  0  0  0  0  0  0  0  0  0  0  0
   16.4753  -10.9582  -12.5611 C   0  0  2  0  0  0  0  0  0  0  0  0
   16.3451  -12.3166  -12.1172 N   0  0  0  0  0  0  0  0  0  0  0  0
   16.6429  -10.0646  -11.3656 C   0  0  0  0  0  0  0  0  0  0  0  0
   16.1250  -10.3759  -10.2661 O   0  0  0  0  0  0  0  0  0  0  0  0
   18.9207   -6.2591   -9.4980 O   0  0  0  0  0  0  0  0  0  0  0  0
   18.7520   -7.0978  -10.6249 C   0  0  0  0  0  0  0  0  0  0  0  0
   17.5974   -7.9700  -10.3544 C   0  0  2  0  0  0  0  0  0  0  0  0
   17.3911   -8.8593  -11.4766 N   0  0  0  0  0  0  0  0  0  0  0  0
   16.3399   -7.3178  -10.0138 C   0  0  0  0  0  0  0  0  0  0  0  0
   15.5178   -7.0934  -10.9305 O   0  0  0  0  0  0  0  0  0  0  0  0
   12.2191   -5.1674   -7.6892 N   0  0  0  0  0  0  0  0  0  0  0  0
   12.9060   -5.9797   -6.7474 C   0  0  0  0  0  0  0  0  0  0  0  0
   12.3745   -6.1700   -5.6291 O   0  0  0  0  0  0  0  0  0  0  0  0
   14.2025   -6.5776   -7.0794 C   0  0  0  0  0  0  0  0  0  0  0  0
   14.7147   -6.2366   -8.4554 C   0  0  2  0  0  0  0  0  0  0  0  0
   15.9689   -6.9115   -8.7071 N   0  0  0  0  0  0  0  0  0  0  0  0
   14.8802   -4.7787   -8.6720 C   0  0  0  0  0  0  0  0  0  0  0  0
   13.8675   -4.0460   -8.5727 O   0  0  0  0  0  0  0  0  0  0  0  0
   16.1175   -4.2346   -8.9761 O   0  0  0  0  0  0  0  0  0  0  0  0
  1  2  1  0
  2  3  1  0
  3  4  1  1
  5  3  1  0
  5  6  2  0
  7  8  1  0
  9  8  1  6
  9 11  1  0
  9 10  1  0
 10  5  1  0
 11 18  1  0
 12 11  2  0
 13 14  1  0
 14 15  2  0
 16 14  1  0
 17 16  1  1
 17 19  1  0
 18 17  1  0
 19 20  2  0
 19 21  1  0
M  END
$$$$
