SSN.pdb
     RDKit          3D

 21 20  0  0  1  0  0  0  0  0999 V2000
   14.4954  -11.7885  -14.0866 O   0  0  0  0  0  0  0  0  0  0  0  0
   15.7141  -11.1343  -14.3212 C   0  0  0  0  0  0  0  0  0  0  0  0
   16.5141  -11.9304  -15.3269 C   0  0  2  0  0  0  0  0  0  0  0  0
   16.8644  -13.2162  -14.7947 N   0  0  0  0  0  0  0  0  0  0  0  0
   17.7705  -11.1664  -15.6329 C   0  0  0  0  0  0  0  0  0  0  0  0
   18.8012  -11.3409  -14.9392 O   0  0  0  0  0  0  0  0  0  0  0  0
   17.8672   -8.5611  -18.8922 O   0  0  0  0  0  0  0  0  0  0  0  0
   18.9641   -9.4115  -18.6177 C   0  0  0  0  0  0  0  0  0  0  0  0
   19.0161   -9.6046  -17.1593 C   0  0  2  0  0  0  0  0  0  0  0  0
   17.7957  -10.2402  -16.7128 N   0  0  0  0  0  0  0  0  0  0  0  0
   19.2760   -8.4255  -16.3439 C   0  0  0  0  0  0  0  0  0  0  0  0
   18.3063   -7.8540  -15.7965 O   0  0  0  0  0  0  0  0  0  0  0  0
   21.4082   -4.5575  -13.5741 N   0  0  0  0  0  0  0  0  0  0  0  0
   22.1401   -5.7677  -13.4386 C   0  0  0  0  0  0  0  0  0  0  0  0
   23.0578   -5.8137  -12.5872 O   0  0  0  0  0  0  0  0  0  0  0  0
   21.8266   -6.9298  -14.2752 C   0  0  0  0  0  0  0  0  0  0  0  0
   20.7358   -6.6950  -15.2888 C   0  0  2  0  0  0  0  0  0  0  0  0
   20.5594   -7.8664  -16.1186 N   0  0  0  0  0  0  0  0  0  0  0  0
   20.9801   -5.5089  -16.1451 C   0  0  0  0  0  0  0  0  0  0  0  0
   21.4738   -5.6912  -17.2833 O   0  0  0  0  0  0  0  0  0  0  0  0
   20.6734   -4.2314  -15.7054 O   0  0  0  0  0  0  0  0  0  0  0  0
  1  2  1  0
  2  3  1  0
  3  4  1  1
  5  3  1  0
  5  6  2  0
  7  8  1  0
  9  8  1  6
  9 11  1  0
  9 10  1  0
 10  5  1  0
 11 18  1  0
 12 11  2  0
 13 14  1  0
 14 15  2  0
 16 14  1  0
 17 16  1  1
 17 19  1  0
 18 17  1  0
 19 20  2  0
 19 21  1  0
M  END
$$$$
