SSN.pdb
     RDKit          3D

 21 20  0  0  1  0  0  0  0  0999 V2000
   14.4444  -12.7071  -17.4993 O   0  0  0  0  0  0  0  0  0  0  0  0
   15.2147  -11.9290  -16.6221 C   0  0  0  0  0  0  0  0  0  0  0  0
   16.4803  -12.6814  -16.2795 C   0  0  2  0  0  0  0  0  0  0  0  0
   16.2303  -13.6589  -15.2591 N   0  0  0  0  0  0  0  0  0  0  0  0
   17.4893  -11.6903  -15.7740 C   0  0  0  0  0  0  0  0  0  0  0  0
   17.2730  -11.0519  -14.7158 O   0  0  0  0  0  0  0  0  0  0  0  0
   21.9945  -10.0822  -16.0664 O   0  0  0  0  0  0  0  0  0  0  0  0
   21.0060  -10.9059  -16.6547 C   0  0  0  0  0  0  0  0  0  0  0  0
   19.7168  -10.5547  -16.0369 C   0  0  2  0  0  0  0  0  0  0  0  0
   18.6963  -11.4718  -16.4952 N   0  0  0  0  0  0  0  0  0  0  0  0
   19.2514   -9.1848  -16.2086 C   0  0  0  0  0  0  0  0  0  0  0  0
   18.6320   -8.8929  -17.2563 O   0  0  0  0  0  0  0  0  0  0  0  0
   18.1145   -4.1269  -15.7864 N   0  0  0  0  0  0  0  0  0  0  0  0
   17.5783   -4.9307  -14.7448 C   0  0  0  0  0  0  0  0  0  0  0  0
   16.7656   -4.4057  -13.9490 O   0  0  0  0  0  0  0  0  0  0  0  0
   17.9684   -6.3370  -14.6081 C   0  0  0  0  0  0  0  0  0  0  0  0
   19.0504   -6.7814  -15.5590 C   0  0  2  0  0  0  0  0  0  0  0  0
   19.4478   -8.1414  -15.2689 N   0  0  0  0  0  0  0  0  0  0  0  0
   20.2420   -5.8985  -15.5411 C   0  0  0  0  0  0  0  0  0  0  0  0
   20.0939   -4.6963  -15.8655 O   0  0  0  0  0  0  0  0  0  0  0  0
   21.4880   -6.3827  -15.1769 O   0  0  0  0  0  0  0  0  0  0  0  0
  1  2  1  0
  2  3  1  0
  3  4  1  1
  5  3  1  0
  5  6  2  0
  7  8  1  0
  9  8  1  6
  9 11  1  0
  9 10  1  0
 10  5  1  0
 11 18  1  0
 12 11  2  0
 13 14  1  0
 14 15  2  0
 16 14  1  0
 17 16  1  1
 17 19  1  0
 18 17  1  0
 19 20  2  0
 19 21  1  0
M  END
$$$$
