SSN.pdb
     RDKit          3D

 21 20  0  0  1  0  0  0  0  0999 V2000
   24.4244  -15.1664  -19.4125 O   0  0  0  0  0  0  0  0  0  0  0  0
   24.2583  -14.2252  -18.3855 C   0  0  0  0  0  0  0  0  0  0  0  0
   24.4510  -12.8378  -18.9540 C   0  0  2  0  0  0  0  0  0  0  0  0
   25.6689  -12.7623  -19.7090 N   0  0  0  0  0  0  0  0  0  0  0  0
   24.5228  -11.8702  -17.8075 C   0  0  0  0  0  0  0  0  0  0  0  0
   23.6284  -11.8650  -16.9277 O   0  0  0  0  0  0  0  0  0  0  0  0
   27.5272  -10.8452  -15.5329 O   0  0  0  0  0  0  0  0  0  0  0  0
   27.1101   -9.7433  -16.3164 C   0  0  0  0  0  0  0  0  0  0  0  0
   25.6971   -9.9626  -16.6660 C   0  0  2  0  0  0  0  0  0  0  0  0
   25.6079  -10.9543  -17.7154 N   0  0  0  0  0  0  0  0  0  0  0  0
   24.9171   -8.7898  -17.0384 C   0  0  0  0  0  0  0  0  0  0  0  0
   24.9467   -8.4084  -18.2302 O   0  0  0  0  0  0  0  0  0  0  0  0
   21.4616   -4.9426  -17.3728 N   0  0  0  0  0  0  0  0  0  0  0  0
   21.1598   -5.7256  -16.2263 C   0  0  0  0  0  0  0  0  0  0  0  0
   20.0903   -5.4955  -15.6158 O   0  0  0  0  0  0  0  0  0  0  0  0
   22.0782   -6.7740  -15.7728 C   0  0  0  0  0  0  0  0  0  0  0  0
   23.3293   -6.9115  -16.6023 C   0  0  2  0  0  0  0  0  0  0  0  0
   24.1159   -8.0355  -16.1443 N   0  0  0  0  0  0  0  0  0  0  0  0
   24.1649   -5.6861  -16.6062 C   0  0  0  0  0  0  0  0  0  0  0  0
   24.8594   -5.4391  -15.5917 O   0  0  0  0  0  0  0  0  0  0  0  0
   24.1820   -4.8331  -17.6977 O   0  0  0  0  0  0  0  0  0  0  0  0
  1  2  1  0
  2  3  1  0
  3  4  1  1
  5  3  1  0
  5  6  2  0
  7  8  1  0
  9  8  1  6
  9 11  1  0
  9 10  1  0
 10  5  1  0
 11 18  1  0
 12 11  2  0
 13 14  1  0
 14 15  2  0
 16 14  1  0
 17 16  1  1
 17 19  1  0
 18 17  1  0
 19 20  2  0
 19 21  1  0
M  END
$$$$
