SSN.pdb
     RDKit          3D

 21 20  0  0  1  0  0  0  0  0999 V2000
   15.6993  -11.9545  -16.5410 O   0  0  0  0  0  0  0  0  0  0  0  0
   15.9484  -11.6841  -15.1870 C   0  0  0  0  0  0  0  0  0  0  0  0
   17.3708  -11.1951  -15.0366 C   0  0  2  0  0  0  0  0  0  0  0  0
   18.3032  -12.2509  -15.3112 N   0  0  0  0  0  0  0  0  0  0  0  0
   17.5569  -10.7312  -13.6203 C   0  0  0  0  0  0  0  0  0  0  0  0
   17.7682  -11.5631  -12.7053 O   0  0  0  0  0  0  0  0  0  0  0  0
   18.6094   -6.8579  -12.9456 O   0  0  0  0  0  0  0  0  0  0  0  0
   18.9734   -7.9268  -12.0930 C   0  0  0  0  0  0  0  0  0  0  0  0
   17.8131   -8.8277  -11.9980 C   0  0  2  0  0  0  0  0  0  0  0  0
   17.4940   -9.3436  -13.3113 N   0  0  0  0  0  0  0  0  0  0  0  0
   16.6072   -8.2919  -11.3804 C   0  0  0  0  0  0  0  0  0  0  0  0
   15.8290   -7.6107  -12.0854 O   0  0  0  0  0  0  0  0  0  0  0  0
   12.6497   -7.0220   -8.2590 N   0  0  0  0  0  0  0  0  0  0  0  0
   13.0437   -8.3724   -8.0600 C   0  0  0  0  0  0  0  0  0  0  0  0
   12.2984   -9.1135   -7.3783 O   0  0  0  0  0  0  0  0  0  0  0  0
   14.2905   -8.8816   -8.6388 C   0  0  0  0  0  0  0  0  0  0  0  0
   15.0474   -7.8803   -9.4734 C   0  0  2  0  0  0  0  0  0  0  0  0
   16.2407   -8.4839  -10.0243 N   0  0  0  0  0  0  0  0  0  0  0  0
   15.4093   -6.6516   -8.7256 C   0  0  0  0  0  0  0  0  0  0  0  0
   16.4585   -6.6630   -8.0389 O   0  0  0  0  0  0  0  0  0  0  0  0
   14.6139   -5.5185   -8.7798 O   0  0  0  0  0  0  0  0  0  0  0  0
  1  2  1  0
  2  3  1  0
  3  4  1  1
  5  3  1  0
  5  6  2  0
  7  8  1  0
  9  8  1  6
  9 11  1  0
  9 10  1  0
 10  5  1  0
 11 18  1  0
 12 11  2  0
 13 14  1  0
 14 15  2  0
 16 14  1  0
 17 16  1  1
 17 19  1  0
 18 17  1  0
 19 20  2  0
 19 21  1  0
M  END
$$$$
