SSN.pdb
     RDKit          3D

 21 20  0  0  1  0  0  0  0  0999 V2000
   15.0577   -5.6373   -6.9568 O   0  0  0  0  0  0  0  0  0  0  0  0
   15.6787   -6.2010   -8.0814 C   0  0  0  0  0  0  0  0  0  0  0  0
   14.6216   -6.8134   -8.9717 C   0  0  2  0  0  0  0  0  0  0  0  0
   14.0074   -7.9406   -8.3304 N   0  0  0  0  0  0  0  0  0  0  0  0
   15.2869   -7.2709  -10.2382 C   0  0  0  0  0  0  0  0  0  0  0  0
   15.7104   -8.4475  -10.3404 O   0  0  0  0  0  0  0  0  0  0  0  0
   15.0080   -4.8698  -13.5441 O   0  0  0  0  0  0  0  0  0  0  0  0
   15.0510   -6.2776  -13.6783 C   0  0  0  0  0  0  0  0  0  0  0  0
   15.9348   -6.7930  -12.6199 C   0  0  2  0  0  0  0  0  0  0  0  0
   15.4392   -6.3694  -11.3285 N   0  0  0  0  0  0  0  0  0  0  0  0
   17.3520   -6.4716  -12.7255 C   0  0  0  0  0  0  0  0  0  0  0  0
   17.7954   -5.5075  -12.0618 O   0  0  0  0  0  0  0  0  0  0  0  0
   22.4119   -6.2339  -13.9801 N   0  0  0  0  0  0  0  0  0  0  0  0
   21.9200   -7.4997  -14.3974 C   0  0  0  0  0  0  0  0  0  0  0  0
   22.7334   -8.3242  -14.8749 O   0  0  0  0  0  0  0  0  0  0  0  0
   20.4972   -7.8286  -14.2710 C   0  0  0  0  0  0  0  0  0  0  0  0
   19.6568   -6.7426  -13.6493 C   0  0  2  0  0  0  0  0  0  0  0  0
   18.2816   -7.1750  -13.5327 N   0  0  0  0  0  0  0  0  0  0  0  0
   19.7157   -5.4609  -14.3932 C   0  0  0  0  0  0  0  0  0  0  0  0
   18.9117   -5.2875  -15.3398 O   0  0  0  0  0  0  0  0  0  0  0  0
   20.6318   -4.4776  -14.0566 O   0  0  0  0  0  0  0  0  0  0  0  0
  1  2  1  0
  2  3  1  0
  3  4  1  1
  5  3  1  0
  5  6  2  0
  7  8  1  0
  9  8  1  6
  9 11  1  0
  9 10  1  0
 10  5  1  0
 11 18  1  0
 12 11  2  0
 13 14  1  0
 14 15  2  0
 16 14  1  0
 17 16  1  6
 17 19  1  0
 18 17  1  0
 19 20  2  0
 19 21  1  0
M  END
$$$$
