SSN.pdb
     RDKit          3D

 21 20  0  0  1  0  0  0  0  0999 V2000
   16.7849  -12.4943  -11.4528 O   0  0  0  0  0  0  0  0  0  0  0  0
   16.4106  -12.2343  -10.1260 C   0  0  0  0  0  0  0  0  0  0  0  0
   15.0851  -11.5077  -10.1221 C   0  0  2  0  0  0  0  0  0  0  0  0
   14.1249  -12.1972  -10.9357 N   0  0  0  0  0  0  0  0  0  0  0  0
   15.3062  -10.1318  -10.6824 C   0  0  0  0  0  0  0  0  0  0  0  0
   15.0514   -9.8914  -11.8870 O   0  0  0  0  0  0  0  0  0  0  0  0
   16.1532   -7.1123   -8.1032 O   0  0  0  0  0  0  0  0  0  0  0  0
   15.5702   -6.7759   -9.3477 C   0  0  0  0  0  0  0  0  0  0  0  0
   16.0498   -7.7553  -10.3365 C   0  0  2  0  0  0  0  0  0  0  0  0
   15.8064   -9.0945   -9.8467 N   0  0  0  0  0  0  0  0  0  0  0  0
   17.4377   -7.6393  -10.7642 C   0  0  0  0  0  0  0  0  0  0  0  0
   18.3238   -8.1806  -10.0652 O   0  0  0  0  0  0  0  0  0  0  0  0
   21.5054   -8.2234  -14.9405 N   0  0  0  0  0  0  0  0  0  0  0  0
   21.0977   -7.7871  -13.6513 C   0  0  0  0  0  0  0  0  0  0  0  0
   21.9716   -7.3413  -12.8721 O   0  0  0  0  0  0  0  0  0  0  0  0
   19.6906   -7.8584  -13.2471 C   0  0  0  0  0  0  0  0  0  0  0  0
   19.2746   -6.8146  -12.2423 C   0  0  2  0  0  0  0  0  0  0  0  0
   17.8699   -6.9517  -11.9265 N   0  0  0  0  0  0  0  0  0  0  0  0
   19.5522   -5.4286  -12.6914 C   0  0  0  0  0  0  0  0  0  0  0  0
   18.5792   -4.6962  -12.9900 O   0  0  0  0  0  0  0  0  0  0  0  0
   20.8492   -4.9499  -12.7810 O   0  0  0  0  0  0  0  0  0  0  0  0
  1  2  1  0
  2  3  1  0
  3  4  1  6
  5  3  1  0
  5  6  2  0
  7  8  1  0
  9  8  1  1
  9 11  1  0
  9 10  1  0
 10  5  1  0
 11 18  1  0
 12 11  2  0
 13 14  1  0
 14 15  2  0
 16 14  1  0
 17 16  1  6
 17 19  1  0
 18 17  1  0
 19 20  2  0
 19 21  1  0
M  END
$$$$
