SWR.pdb
     RDKit          3D

 32 33  0  0  1  0  0  0  0  0999 V2000
   21.0576  -21.4138  -14.6377 O   0  0  0  0  0  0  0  0  0  0  0  0
   21.0790  -22.0184  -13.3854 C   0  0  0  0  0  0  0  0  0  0  0  0
   21.4696  -21.0039  -12.3030 C   0  0  2  0  0  0  0  0  0  0  0  0
   20.5279  -19.8887  -12.4952 N   0  0  0  0  0  0  0  0  0  0  0  0
   22.8625  -20.5350  -12.5781 C   0  0  0  0  0  0  0  0  0  0  0  0
   23.1023  -19.4470  -13.1269 O   0  0  0  0  0  0  0  0  0  0  0  0
   23.9400  -21.3507  -12.2038 N   0  0  0  0  0  0  0  0  0  0  0  0
   25.3263  -21.2322  -12.3803 C   0  0  1  0  0  0  0  0  0  0  0  0
   26.2468  -21.9165  -11.4021 C   0  0  0  0  0  0  0  0  0  0  0  0
   26.3439  -21.1792  -10.0942 C   0  0  0  0  0  0  0  0  0  0  0  0
   25.3396  -20.5288   -9.4205 C   0  0  0  0  0  0  0  0  0  0  0  0
   25.8821  -19.9935   -8.3213 N   0  0  0  0  0  0  0  0  0  0  0  0
   27.2152  -20.2870   -8.2744 C   0  0  0  0  0  0  0  0  0  0  0  0
   28.2089  -19.9864   -7.3814 C   0  0  0  0  0  0  0  0  0  0  0  0
   29.5102  -20.4350   -7.6028 C   0  0  0  0  0  0  0  0  0  0  0  0
   29.8316  -21.1853   -8.7138 C   0  0  0  0  0  0  0  0  0  0  0  0
   28.8269  -21.4832   -9.6058 C   0  0  0  0  0  0  0  0  0  0  0  0
   27.5170  -21.0342   -9.3872 C   0  0  0  0  0  0  0  0  0  0  0  0
   25.7322  -21.6058  -13.7376 C   0  0  0  0  0  0  0  0  0  0  0  0
   25.3373  -22.7402  -14.1698 O   0  0  0  0  0  0  0  0  0  0  0  0
   27.4087  -14.8533  -17.1220 N   0  0  0  0  0  0  0  0  0  0  0  0
   27.2384  -15.7518  -16.0443 C   0  0  0  0  0  0  0  0  0  0  0  0
   26.9077  -15.3650  -14.8290 N   0  0  0  0  0  0  0  0  0  0  0  0
   27.4004  -17.1742  -16.1592 N   0  0  0  0  0  0  0  0  0  0  0  0
   27.8300  -17.7722  -17.3680 C   0  0  0  0  0  0  0  0  0  0  0  0
   27.7224  -19.2544  -17.4936 C   0  0  0  0  0  0  0  0  0  0  0  0
   26.5787  -19.8796  -16.7721 C   0  0  0  0  0  0  0  0  0  0  0  0
   26.8469  -21.0254  -15.8871 C   0  0  2  0  0  0  0  0  0  0  0  0
   26.5183  -20.7236  -14.4900 N   0  0  0  0  0  0  0  0  0  0  0  0
   28.3061  -21.4240  -15.8630 C   0  0  0  0  0  0  0  0  0  0  0  0
   29.2866  -20.5895  -15.3547 O   0  0  0  0  0  0  0  0  0  0  0  0
   28.6947  -22.5247  -16.2961 O   0  0  0  0  0  0  0  0  0  0  0  0
  2  1  1  0
  3  2  1  0
  3  4  1  6
  5  6  2  0
  5  3  1  0
  7  5  1  0
  8  7  1  0
  9 10  1  0
  8  9  1  1
 10 11  2  0
 10 18  1  0
 11 12  1  0
 12 13  1  0
 13 14  2  0
 15 14  1  0
 16 15  2  0
 17 18  2  0
 17 16  1  0
 18 13  1  0
 19  8  1  0
 19 29  1  0
 20 19  2  0
 22 21  1  0
 23 22  2  0
 24 22  1  0
 25 26  1  0
 25 24  1  0
 26 27  1  0
 28 27  1  6
 28 29  1  0
 28 30  1  0
 30 31  1  0
 32 30  2  0
M  END
$$$$
