SWR.pdb
     RDKit          3D

 32 33  0  0  1  0  0  0  0  0999 V2000
   25.8807  -22.0161  -17.7325 O   0  0  0  0  0  0  0  0  0  0  0  0
   26.8897  -21.2070  -17.2211 C   0  0  0  0  0  0  0  0  0  0  0  0
   27.6674  -21.9436  -16.1229 C   0  0  2  0  0  0  0  0  0  0  0  0
   28.0360  -23.2285  -16.7399 N   0  0  0  0  0  0  0  0  0  0  0  0
   26.7421  -22.1880  -14.9740 C   0  0  0  0  0  0  0  0  0  0  0  0
   26.1805  -23.2807  -14.7926 O   0  0  0  0  0  0  0  0  0  0  0  0
   26.4973  -21.1478  -14.0660 N   0  0  0  0  0  0  0  0  0  0  0  0
   25.7064  -21.0626  -12.9110 C   0  0  1  0  0  0  0  0  0  0  0  0
   26.0571  -20.0392  -11.8612 C   0  0  0  0  0  0  0  0  0  0  0  0
   27.2409  -20.4531  -11.0299 C   0  0  0  0  0  0  0  0  0  0  0  0
   28.4373  -20.9644  -11.4687 C   0  0  0  0  0  0  0  0  0  0  0  0
   29.1818  -21.2149  -10.3861 N   0  0  0  0  0  0  0  0  0  0  0  0
   28.4883  -20.8745   -9.2598 C   0  0  0  0  0  0  0  0  0  0  0  0
   28.7870  -20.9291   -7.9245 C   0  0  0  0  0  0  0  0  0  0  0  0
   27.8559  -20.5004   -6.9794 C   0  0  0  0  0  0  0  0  0  0  0  0
   26.6219  -20.0148   -7.3564 C   0  0  0  0  0  0  0  0  0  0  0  0
   26.3302  -19.9630   -8.7003 C   0  0  0  0  0  0  0  0  0  0  0  0
   27.2634  -20.3930   -9.6540 C   0  0  0  0  0  0  0  0  0  0  0  0
   24.2852  -20.9223  -13.2382 C   0  0  0  0  0  0  0  0  0  0  0  0
   23.9888  -20.1702  -14.2262 O   0  0  0  0  0  0  0  0  0  0  0  0
   16.5226  -22.9209  -13.1137 N   0  0  0  0  0  0  0  0  0  0  0  0
   17.0564  -24.2145  -12.9154 C   0  0  0  0  0  0  0  0  0  0  0  0
   16.5803  -25.2895  -13.5100 N   0  0  0  0  0  0  0  0  0  0  0  0
   18.1721  -24.4930  -12.0549 N   0  0  0  0  0  0  0  0  0  0  0  0
   18.8675  -23.4552  -11.3896 C   0  0  0  0  0  0  0  0  0  0  0  0
   19.6208  -22.4718  -12.2200 C   0  0  0  0  0  0  0  0  0  0  0  0
   21.0979  -22.4645  -12.0262 C   0  0  0  0  0  0  0  0  0  0  0  0
   21.9047  -21.5086  -12.8030 C   0  0  2  0  0  0  0  0  0  0  0  0
   23.3304  -21.6039  -12.4726 N   0  0  0  0  0  0  0  0  0  0  0  0
   21.5401  -20.0666  -12.5265 C   0  0  0  0  0  0  0  0  0  0  0  0
   21.9572  -19.4107  -11.3811 O   0  0  0  0  0  0  0  0  0  0  0  0
   20.8496  -19.3990  -13.3188 O   0  0  0  0  0  0  0  0  0  0  0  0
  2  1  1  0
  3  2  1  0
  3  4  1  6
  5  6  2  0
  5  3  1  0
  7  5  1  0
  8  7  1  0
  9 10  1  0
  8  9  1  6
 10 11  2  0
 10 18  1  0
 11 12  1  0
 12 13  1  0
 13 14  2  0
 15 14  1  0
 16 15  2  0
 17 18  2  0
 17 16  1  0
 18 13  1  0
 19  8  1  0
 19 29  1  0
 20 19  2  0
 22 21  1  0
 23 22  2  0
 24 22  1  0
 25 26  1  0
 25 24  1  0
 26 27  1  0
 28 27  1  1
 28 29  1  0
 28 30  1  0
 30 31  1  0
 32 30  2  0
M  END
$$$$
