SWR.pdb
     RDKit          3D

 32 33  0  0  1  0  0  0  0  0999 V2000
   26.6416  -20.3192  -18.3838 O   0  0  0  0  0  0  0  0  0  0  0  0
   27.7104  -19.6282  -17.8231 C   0  0  0  0  0  0  0  0  0  0  0  0
   28.5999  -20.5776  -17.0103 C   0  0  2  0  0  0  0  0  0  0  0  0
   28.9815  -21.6268  -17.9699 N   0  0  0  0  0  0  0  0  0  0  0  0
   27.7738  -21.1763  -15.9172 C   0  0  0  0  0  0  0  0  0  0  0  0
   27.5990  -22.4012  -15.8099 O   0  0  0  0  0  0  0  0  0  0  0  0
   27.1733  -20.3270  -14.9768 N   0  0  0  0  0  0  0  0  0  0  0  0
   26.4730  -20.5727  -13.7868 C   0  0  1  0  0  0  0  0  0  0  0  0
   26.7122  -19.6729  -12.6012 C   0  0  0  0  0  0  0  0  0  0  0  0
   27.6049  -20.3082  -11.5701 C   0  0  0  0  0  0  0  0  0  0  0  0
   28.8440  -20.8676  -11.7626 C   0  0  0  0  0  0  0  0  0  0  0  0
   29.2563  -21.3339  -10.5786 N   0  0  0  0  0  0  0  0  0  0  0  0
   28.3072  -21.0852   -9.6285 C   0  0  0  0  0  0  0  0  0  0  0  0
   28.2340  -21.3500   -8.2869 C   0  0  0  0  0  0  0  0  0  0  0  0
   27.1100  -20.9668   -7.5567 C   0  0  0  0  0  0  0  0  0  0  0  0
   26.0514  -20.3179   -8.1560 C   0  0  0  0  0  0  0  0  0  0  0  0
   26.1334  -20.0553   -9.5044 C   0  0  0  0  0  0  0  0  0  0  0  0
   27.2618  -20.4389  -10.2425 C   0  0  0  0  0  0  0  0  0  0  0  0
   25.0289  -20.6606  -14.0177 C   0  0  0  0  0  0  0  0  0  0  0  0
   24.4993  -19.7471  -14.7353 O   0  0  0  0  0  0  0  0  0  0  0  0
   19.7211  -25.4820  -17.5305 N   0  0  0  0  0  0  0  0  0  0  0  0
   18.8252  -24.9430  -16.5794 C   0  0  0  0  0  0  0  0  0  0  0  0
   17.5155  -24.9924  -16.7142 N   0  0  0  0  0  0  0  0  0  0  0  0
   19.2437  -24.2933  -15.3688 N   0  0  0  0  0  0  0  0  0  0  0  0
   20.6121  -24.1902  -15.0223 C   0  0  0  0  0  0  0  0  0  0  0  0
   20.9597  -23.5428  -13.7245 C   0  0  0  0  0  0  0  0  0  0  0  0
   22.4044  -23.2400  -13.5235 C   0  0  0  0  0  0  0  0  0  0  0  0
   22.8654  -21.8541  -13.7098 C   0  0  2  0  0  0  0  0  0  0  0  0
   24.3036  -21.7193  -13.4562 N   0  0  0  0  0  0  0  0  0  0  0  0
   22.2119  -20.8808  -12.7535 C   0  0  0  0  0  0  0  0  0  0  0  0
   22.8892  -20.3509  -11.6688 O   0  0  0  0  0  0  0  0  0  0  0  0
   21.0334  -20.5066  -12.8989 O   0  0  0  0  0  0  0  0  0  0  0  0
  2  1  1  0
  3  2  1  0
  3  4  1  6
  5  6  2  0
  5  3  1  0
  7  5  1  0
  8  7  1  0
  9 10  1  0
  8  9  1  1
 10 11  2  0
 10 18  1  0
 11 12  1  0
 12 13  1  0
 13 14  2  0
 15 14  1  0
 16 15  2  0
 17 18  2  0
 17 16  1  0
 18 13  1  0
 19  8  1  0
 19 29  1  0
 20 19  2  0
 22 21  1  0
 23 22  2  0
 24 22  1  0
 25 26  1  0
 25 24  1  0
 26 27  1  0
 28 27  1  1
 28 29  1  0
 28 30  1  0
 30 31  1  0
 32 30  2  0
M  END
$$$$
