SWR.pdb
     RDKit          3D

 32 33  0  0  1  0  0  0  0  0999 V2000
   28.1287  -18.5422  -15.0243 O   0  0  0  0  0  0  0  0  0  0  0  0
   27.2569  -19.1695  -14.1408 C   0  0  0  0  0  0  0  0  0  0  0  0
   27.9938  -20.2376  -13.3226 C   0  0  2  0  0  0  0  0  0  0  0  0
   28.2685  -21.3108  -14.2921 N   0  0  0  0  0  0  0  0  0  0  0  0
   27.0655  -20.7443  -12.2656 C   0  0  0  0  0  0  0  0  0  0  0  0
   26.3075  -21.7101  -12.4528 O   0  0  0  0  0  0  0  0  0  0  0  0
   27.0476  -20.1086  -11.0158 N   0  0  0  0  0  0  0  0  0  0  0  0
   26.2170  -20.2439   -9.8939 C   0  0  1  0  0  0  0  0  0  0  0  0
   26.6107  -19.5611   -8.6089 C   0  0  0  0  0  0  0  0  0  0  0  0
   27.8021  -20.2088   -7.9571 C   0  0  0  0  0  0  0  0  0  0  0  0
   28.6212  -21.1787   -8.4803 C   0  0  0  0  0  0  0  0  0  0  0  0
   29.5299  -21.4765   -7.5451 N   0  0  0  0  0  0  0  0  0  0  0  0
   29.3117  -20.7172   -6.4310 C   0  0  0  0  0  0  0  0  0  0  0  0
   29.9416  -20.6326   -5.2179 C   0  0  0  0  0  0  0  0  0  0  0  0
   29.4819  -19.7411   -4.2496 C   0  0  0  0  0  0  0  0  0  0  0  0
   28.3928  -18.9283   -4.4814 C   0  0  0  0  0  0  0  0  0  0  0  0
   27.7661  -19.0194   -5.7032 C   0  0  0  0  0  0  0  0  0  0  0  0
   28.2249  -19.9143   -6.6797 C   0  0  0  0  0  0  0  0  0  0  0  0
   24.8299  -19.8869  -10.2020 C   0  0  0  0  0  0  0  0  0  0  0  0
   24.6454  -18.8735  -10.9562 O   0  0  0  0  0  0  0  0  0  0  0  0
   18.9119  -23.0656  -15.6785 N   0  0  0  0  0  0  0  0  0  0  0  0
   19.4241  -21.8173  -15.2574 C   0  0  0  0  0  0  0  0  0  0  0  0
   18.7580  -20.6871  -15.3789 N   0  0  0  0  0  0  0  0  0  0  0  0
   20.7147  -21.6492  -14.6501 N   0  0  0  0  0  0  0  0  0  0  0  0
   21.0583  -22.3181  -13.4510 C   0  0  0  0  0  0  0  0  0  0  0  0
   21.0521  -21.5322  -12.1835 C   0  0  0  0  0  0  0  0  0  0  0  0
   22.3773  -21.3658  -11.5237 C   0  0  0  0  0  0  0  0  0  0  0  0
   22.4462  -20.6037  -10.2657 C   0  0  2  0  0  0  0  0  0  0  0  0
   23.7856  -20.6544   -9.6704 N   0  0  0  0  0  0  0  0  0  0  0  0
   21.5269  -21.1479   -9.1945 C   0  0  0  0  0  0  0  0  0  0  0  0
   20.1700  -20.8743   -9.1834 O   0  0  0  0  0  0  0  0  0  0  0  0
   21.9468  -21.8720   -8.2729 O   0  0  0  0  0  0  0  0  0  0  0  0
  2  1  1  0
  3  2  1  0
  3  4  1  6
  5  6  2  0
  5  3  1  0
  7  5  1  0
  8  7  1  0
  9 10  1  0
  8  9  1  1
 10 11  2  0
 10 18  1  0
 11 12  1  0
 12 13  1  0
 13 14  2  0
 15 14  1  0
 16 15  2  0
 17 18  2  0
 17 16  1  0
 18 13  1  0
 19  8  1  0
 19 29  1  0
 20 19  2  0
 22 21  1  0
 23 22  2  0
 24 22  1  0
 25 26  1  0
 25 24  1  0
 26 27  1  0
 28 27  1  6
 28 29  1  0
 28 30  1  0
 30 31  1  0
 32 30  2  0
M  END
$$$$
