SWR.pdb
     RDKit          3D

 32 33  0  0  1  0  0  0  0  0999 V2000
   26.5282  -30.6438  -18.3961 O   0  0  0  0  0  0  0  0  0  0  0  0
   27.6415  -29.8204  -18.2666 C   0  0  0  0  0  0  0  0  0  0  0  0
   27.8993  -29.4896  -16.7910 C   0  0  2  0  0  0  0  0  0  0  0  0
   27.7824  -30.7861  -16.1035 N   0  0  0  0  0  0  0  0  0  0  0  0
   26.8165  -28.5734  -16.3180 C   0  0  0  0  0  0  0  0  0  0  0  0
   25.9377  -28.9381  -15.5197 O   0  0  0  0  0  0  0  0  0  0  0  0
   26.7892  -27.2534  -16.7903 N   0  0  0  0  0  0  0  0  0  0  0  0
   25.9570  -26.1608  -16.5066 C   0  0  1  0  0  0  0  0  0  0  0  0
   26.4666  -24.7675  -16.7740 C   0  0  0  0  0  0  0  0  0  0  0  0
   25.4541  -23.7101  -16.4270 C   0  0  0  0  0  0  0  0  0  0  0  0
   25.1051  -23.2599  -15.1776 C   0  0  0  0  0  0  0  0  0  0  0  0
   24.1487  -22.3393  -15.3413 N   0  0  0  0  0  0  0  0  0  0  0  0
   23.8759  -22.1881  -16.6710 C   0  0  0  0  0  0  0  0  0  0  0  0
   23.0016  -21.3927  -17.3626 C   0  0  0  0  0  0  0  0  0  0  0  0
   22.9447  -21.4576  -18.7541 C   0  0  0  0  0  0  0  0  0  0  0  0
   23.7567  -22.3141  -19.4666 C   0  0  0  0  0  0  0  0  0  0  0  0
   24.6327  -23.1095  -18.7638 C   0  0  0  0  0  0  0  0  0  0  0  0
   24.6933  -23.0474  -17.3646 C   0  0  0  0  0  0  0  0  0  0  0  0
   24.6435  -26.3030  -17.1396 C   0  0  0  0  0  0  0  0  0  0  0  0
   24.6263  -26.5332  -18.3953 O   0  0  0  0  0  0  0  0  0  0  0  0
   20.8786  -30.8377  -12.5930 N   0  0  0  0  0  0  0  0  0  0  0  0
   20.6741  -29.4478  -12.4374 C   0  0  0  0  0  0  0  0  0  0  0  0
   20.5155  -28.8696  -11.2643 N   0  0  0  0  0  0  0  0  0  0  0  0
   20.6240  -28.5219  -13.5342 N   0  0  0  0  0  0  0  0  0  0  0  0
   20.7820  -28.9546  -14.8725 C   0  0  0  0  0  0  0  0  0  0  0  0
   21.9080  -28.3827  -15.6658 C   0  0  0  0  0  0  0  0  0  0  0  0
   21.5124  -27.5326  -16.8234 C   0  0  0  0  0  0  0  0  0  0  0  0
   22.1596  -26.2200  -16.9861 C   0  0  2  0  0  0  0  0  0  0  0  0
   23.4855  -26.1848  -16.3603 N   0  0  0  0  0  0  0  0  0  0  0  0
   21.3911  -25.0967  -16.3256 C   0  0  0  0  0  0  0  0  0  0  0  0
   20.1852  -24.6382  -16.8273 O   0  0  0  0  0  0  0  0  0  0  0  0
   21.8053  -24.5329  -15.2957 O   0  0  0  0  0  0  0  0  0  0  0  0
  2  1  1  0
  3  2  1  0
  3  4  1  1
  5  6  2  0
  5  3  1  0
  7  5  1  0
  8  7  1  0
  9 10  1  0
  8  9  1  6
 10 11  2  0
 10 18  1  0
 11 12  1  0
 12 13  1  0
 13 14  2  0
 15 14  1  0
 16 15  2  0
 17 18  2  0
 17 16  1  0
 18 13  1  0
 19  8  1  0
 19 29  1  0
 20 19  2  0
 22 21  1  0
 23 22  2  0
 24 22  1  0
 25 26  1  0
 25 24  1  0
 26 27  1  0
 28 27  1  1
 28 29  1  0
 28 30  1  0
 30 31  1  0
 32 30  2  0
M  END
$$$$
