SWR.pdb
     RDKit          3D

 32 33  0  0  1  0  0  0  0  0999 V2000
   27.7208  -19.1748  -16.0019 O   0  0  0  0  0  0  0  0  0  0  0  0
   27.9170  -19.3057  -14.6312 C   0  0  0  0  0  0  0  0  0  0  0  0
   28.3123  -20.7452  -14.2777 C   0  0  2  0  0  0  0  0  0  0  0  0
   28.0015  -21.5150  -15.4935 N   0  0  0  0  0  0  0  0  0  0  0  0
   27.4411  -21.2103  -13.1551 C   0  0  0  0  0  0  0  0  0  0  0  0
   26.3456  -21.7628  -13.3478 O   0  0  0  0  0  0  0  0  0  0  0  0
   27.8736  -21.0178  -11.8352 N   0  0  0  0  0  0  0  0  0  0  0  0
   27.1872  -20.9217  -10.6159 C   0  0  1  0  0  0  0  0  0  0  0  0
   27.9270  -20.4247   -9.4001 C   0  0  0  0  0  0  0  0  0  0  0  0
   27.0911  -20.4963   -8.1512 C   0  0  0  0  0  0  0  0  0  0  0  0
   25.8005  -20.9490   -8.0297 C   0  0  0  0  0  0  0  0  0  0  0  0
   25.4493  -20.8047   -6.7472 N   0  0  0  0  0  0  0  0  0  0  0  0
   26.4884  -20.2686   -6.0414 C   0  0  0  0  0  0  0  0  0  0  0  0
   26.6485  -19.9282   -4.7246 C   0  0  0  0  0  0  0  0  0  0  0  0
   27.8545  -19.3868   -4.2818 C   0  0  0  0  0  0  0  0  0  0  0  0
   28.9089  -19.1803   -5.1457 C   0  0  0  0  0  0  0  0  0  0  0  0
   28.7396  -19.5256   -6.4671 C   0  0  0  0  0  0  0  0  0  0  0  0
   27.5287  -20.0703   -6.9166 C   0  0  0  0  0  0  0  0  0  0  0  0
   25.9489  -20.1507  -10.7520 C   0  0  0  0  0  0  0  0  0  0  0  0
   26.0644  -18.9168  -11.0588 O   0  0  0  0  0  0  0  0  0  0  0  0
   20.6545  -17.3968  -14.0402 N   0  0  0  0  0  0  0  0  0  0  0  0
   20.4489  -18.4309  -14.9815 C   0  0  0  0  0  0  0  0  0  0  0  0
   20.4280  -18.2271  -16.2829 N   0  0  0  0  0  0  0  0  0  0  0  0
   20.2482  -19.8070  -14.6225 N   0  0  0  0  0  0  0  0  0  0  0  0
   21.0294  -20.4291  -13.6195 C   0  0  0  0  0  0  0  0  0  0  0  0
   22.4402  -19.9768  -13.4488 C   0  0  0  0  0  0  0  0  0  0  0  0
   23.2612  -20.7767  -12.4973 C   0  0  0  0  0  0  0  0  0  0  0  0
   23.4918  -20.2416  -11.1450 C   0  0  2  0  0  0  0  0  0  0  0  0
   24.7161  -20.7832  -10.5460 N   0  0  0  0  0  0  0  0  0  0  0  0
   22.3925  -20.6044  -10.1710 C   0  0  0  0  0  0  0  0  0  0  0  0
   21.2802  -19.8013   -9.9873 O   0  0  0  0  0  0  0  0  0  0  0  0
   22.4341  -21.6460   -9.4902 O   0  0  0  0  0  0  0  0  0  0  0  0
  2  1  1  0
  3  2  1  0
  3  4  1  6
  5  6  2  0
  5  3  1  0
  7  5  1  0
  8  7  1  0
  9 10  1  0
  8  9  1  1
 10 11  2  0
 10 18  1  0
 11 12  1  0
 12 13  1  0
 13 14  2  0
 15 14  1  0
 16 15  2  0
 17 18  2  0
 17 16  1  0
 18 13  1  0
 19  8  1  0
 19 29  1  0
 20 19  2  0
 22 21  1  0
 23 22  2  0
 24 22  1  0
 25 26  1  0
 25 24  1  0
 26 27  1  0
 28 27  1  6
 28 29  1  0
 28 30  1  0
 30 31  1  0
 32 30  2  0
M  END
$$$$
