SWR.pdb
     RDKit          3D

 32 33  0  0  1  0  0  0  0  0999 V2000
   27.0744  -18.6751  -14.5472 O   0  0  0  0  0  0  0  0  0  0  0  0
   28.2118  -18.5619  -13.7550 C   0  0  0  0  0  0  0  0  0  0  0  0
   28.7076  -19.9474  -13.3216 C   0  0  2  0  0  0  0  0  0  0  0  0
   28.9605  -20.6540  -14.5881 N   0  0  0  0  0  0  0  0  0  0  0  0
   27.6043  -20.6311  -12.5793 C   0  0  0  0  0  0  0  0  0  0  0  0
   26.9701  -21.5847  -13.0597 O   0  0  0  0  0  0  0  0  0  0  0  0
   27.2710  -20.1823  -11.2933 N   0  0  0  0  0  0  0  0  0  0  0  0
   26.3257  -20.6154  -10.3522 C   0  0  1  0  0  0  0  0  0  0  0  0
   26.4595  -20.1594   -8.9216 C   0  0  0  0  0  0  0  0  0  0  0  0
   27.7455  -20.6200   -8.2909 C   0  0  0  0  0  0  0  0  0  0  0  0
   28.6874  -21.4642   -8.8253 C   0  0  0  0  0  0  0  0  0  0  0  0
   29.6481  -21.6175   -7.9074 N   0  0  0  0  0  0  0  0  0  0  0  0
   29.3431  -20.8884   -6.7935 C   0  0  0  0  0  0  0  0  0  0  0  0
   29.9776  -20.7017   -5.5943 C   0  0  0  0  0  0  0  0  0  0  0  0
   29.4115  -19.8785   -4.6219 C   0  0  0  0  0  0  0  0  0  0  0  0
   28.2107  -19.2358   -4.8358 C   0  0  0  0  0  0  0  0  0  0  0  0
   27.5801  -19.4285   -6.0438 C   0  0  0  0  0  0  0  0  0  0  0  0
   28.1458  -20.2554   -7.0244 C   0  0  0  0  0  0  0  0  0  0  0  0
   24.9564  -20.3461  -10.7980 C   0  0  0  0  0  0  0  0  0  0  0  0
   24.6139  -19.1216  -10.9134 O   0  0  0  0  0  0  0  0  0  0  0  0
   21.7106  -26.0619  -16.3905 N   0  0  0  0  0  0  0  0  0  0  0  0
   21.2880  -25.7444  -15.0797 C   0  0  0  0  0  0  0  0  0  0  0  0
   20.5810  -26.5666  -14.3315 N   0  0  0  0  0  0  0  0  0  0  0  0
   21.5877  -24.5019  -14.4246 N   0  0  0  0  0  0  0  0  0  0  0  0
   22.5437  -23.6016  -14.9526 C   0  0  0  0  0  0  0  0  0  0  0  0
   22.8072  -22.3397  -14.2026 C   0  0  0  0  0  0  0  0  0  0  0  0
   22.6157  -22.4165  -12.7273 C   0  0  0  0  0  0  0  0  0  0  0  0
   22.9120  -21.2238  -11.9163 C   0  0  2  0  0  0  0  0  0  0  0  0
   24.0975  -21.4176  -11.0748 N   0  0  0  0  0  0  0  0  0  0  0  0
   21.8030  -20.8784  -10.9470 C   0  0  0  0  0  0  0  0  0  0  0  0
   21.7635  -21.3938   -9.6629 O   0  0  0  0  0  0  0  0  0  0  0  0
   20.8738  -20.1100  -11.2572 O   0  0  0  0  0  0  0  0  0  0  0  0
  2  1  1  0
  3  2  1  0
  3  4  1  6
  5  6  2  0
  5  3  1  0
  7  5  1  0
  8  7  1  0
  9 10  1  0
  8  9  1  1
 10 11  2  0
 10 18  1  0
 11 12  1  0
 12 13  1  0
 13 14  2  0
 15 14  1  0
 16 15  2  0
 17 18  2  0
 17 16  1  0
 18 13  1  0
 19  8  1  0
 19 29  1  0
 20 19  2  0
 22 21  1  0
 23 22  2  0
 24 22  1  0
 25 26  1  0
 25 24  1  0
 26 27  1  0
 28 27  1  1
 28 29  1  0
 28 30  1  0
 30 31  1  0
 32 30  2  0
M  END
$$$$
