SWR.pdb
     RDKit          3D

 32 33  0  0  1  0  0  0  0  0999 V2000
   26.4777  -19.8530  -16.0085 O   0  0  0  0  0  0  0  0  0  0  0  0
   27.8219  -20.1883  -15.8861 C   0  0  0  0  0  0  0  0  0  0  0  0
   27.9763  -21.5737  -15.2458 C   0  0  2  0  0  0  0  0  0  0  0  0
   27.5865  -22.5110  -16.3120 N   0  0  0  0  0  0  0  0  0  0  0  0
   27.0090  -21.6779  -14.1103 C   0  0  0  0  0  0  0  0  0  0  0  0
   25.9184  -22.2625  -14.2166 O   0  0  0  0  0  0  0  0  0  0  0  0
   27.3421  -21.0959  -12.8788 N   0  0  0  0  0  0  0  0  0  0  0  0
   26.6392  -20.9581  -11.6730 C   0  0  1  0  0  0  0  0  0  0  0  0
   27.3378  -20.3406  -10.4885 C   0  0  0  0  0  0  0  0  0  0  0  0
   26.5027  -20.3944   -9.2382 C   0  0  0  0  0  0  0  0  0  0  0  0
   25.1433  -20.5635   -9.1433 C   0  0  0  0  0  0  0  0  0  0  0  0
   24.8286  -20.5201   -7.8440 N   0  0  0  0  0  0  0  0  0  0  0  0
   25.9585  -20.3270   -7.1014 C   0  0  0  0  0  0  0  0  0  0  0  0
   26.1858  -20.2115   -5.7559 C   0  0  0  0  0  0  0  0  0  0  0  0
   27.4804  -20.0143   -5.2777 C   0  0  0  0  0  0  0  0  0  0  0  0
   28.5573  -19.9305   -6.1345 C   0  0  0  0  0  0  0  0  0  0  0  0
   28.3199  -20.0480   -7.4849 C   0  0  0  0  0  0  0  0  0  0  0  0
   27.0198  -20.2464   -7.9702 C   0  0  0  0  0  0  0  0  0  0  0  0
   25.3611  -20.2690  -11.8681 C   0  0  0  0  0  0  0  0  0  0  0  0
   25.4105  -19.0324  -12.1811 O   0  0  0  0  0  0  0  0  0  0  0  0
   19.7798  -24.9460   -9.3675 N   0  0  0  0  0  0  0  0  0  0  0  0
   19.1461  -24.8624  -10.6280 C   0  0  0  0  0  0  0  0  0  0  0  0
   17.9622  -25.3848  -10.8755 N   0  0  0  0  0  0  0  0  0  0  0  0
   19.7184  -24.1977  -11.7654 N   0  0  0  0  0  0  0  0  0  0  0  0
   21.0061  -23.6132  -11.7071 C   0  0  0  0  0  0  0  0  0  0  0  0
   21.0980  -22.1274  -11.6178 C   0  0  0  0  0  0  0  0  0  0  0  0
   21.9686  -21.4746  -12.6352 C   0  0  0  0  0  0  0  0  0  0  0  0
   22.8973  -20.4204  -12.1944 C   0  0  2  0  0  0  0  0  0  0  0  0
   24.1636  -20.9780  -11.7082 N   0  0  0  0  0  0  0  0  0  0  0  0
   22.3623  -19.6092  -11.0349 C   0  0  0  0  0  0  0  0  0  0  0  0
   22.6307  -19.9443   -9.7189 O   0  0  0  0  0  0  0  0  0  0  0  0
   21.6573  -18.5979  -11.2093 O   0  0  0  0  0  0  0  0  0  0  0  0
  2  1  1  0
  3  2  1  0
  3  4  1  6
  5  6  2  0
  5  3  1  0
  7  5  1  0
  8  7  1  0
  9 10  1  0
  8  9  1  1
 10 11  2  0
 10 18  1  0
 11 12  1  0
 12 13  1  0
 13 14  2  0
 15 14  1  0
 16 15  2  0
 17 18  2  0
 17 16  1  0
 18 13  1  0
 19  8  1  0
 19 29  1  0
 20 19  2  0
 22 21  1  0
 23 22  2  0
 24 22  1  0
 25 26  1  0
 25 24  1  0
 26 27  1  0
 28 27  1  1
 28 29  1  0
 28 30  1  0
 30 31  1  0
 32 30  2  0
M  END
$$$$
