SWR.pdb
     RDKit          3D

 32 33  0  0  1  0  0  0  0  0999 V2000
   28.5382  -23.0806  -18.9571 O   0  0  0  0  0  0  0  0  0  0  0  0
   27.6164  -23.0101  -17.9182 C   0  0  0  0  0  0  0  0  0  0  0  0
   28.3262  -23.0900  -16.5606 C   0  0  2  0  0  0  0  0  0  0  0  0
   28.8954  -24.4473  -16.5289 N   0  0  0  0  0  0  0  0  0  0  0  0
   27.2983  -22.9537  -15.4833 C   0  0  0  0  0  0  0  0  0  0  0  0
   26.3006  -23.6905  -15.4183 O   0  0  0  0  0  0  0  0  0  0  0  0
   27.4637  -21.9591  -14.5087 N   0  0  0  0  0  0  0  0  0  0  0  0
   26.5762  -21.3624  -13.6014 C   0  0  1  0  0  0  0  0  0  0  0  0
   27.0601  -20.2092  -12.7598 C   0  0  0  0  0  0  0  0  0  0  0  0
   26.9394  -20.4848  -11.2857 C   0  0  0  0  0  0  0  0  0  0  0  0
   25.8333  -20.3209  -10.4887 C   0  0  0  0  0  0  0  0  0  0  0  0
   26.1878  -20.6603   -9.2445 N   0  0  0  0  0  0  0  0  0  0  0  0
   27.4997  -21.0397   -9.2253 C   0  0  0  0  0  0  0  0  0  0  0  0
   28.3351  -21.4700   -8.2292 C   0  0  0  0  0  0  0  0  0  0  0  0
   29.6602  -21.7947   -8.5165 C   0  0  0  0  0  0  0  0  0  0  0  0
   30.1629  -21.6933   -9.7962 C   0  0  0  0  0  0  0  0  0  0  0  0
   29.3164  -21.2605  -10.7913 C   0  0  0  0  0  0  0  0  0  0  0  0
   27.9834  -20.9330  -10.5069 C   0  0  0  0  0  0  0  0  0  0  0  0
   25.3232  -20.9685  -14.2505 C   0  0  0  0  0  0  0  0  0  0  0  0
   25.3440  -20.8366  -15.5202 O   0  0  0  0  0  0  0  0  0  0  0  0
   21.3665  -25.0525  -17.7152 N   0  0  0  0  0  0  0  0  0  0  0  0
   21.5444  -26.0776  -16.7585 C   0  0  0  0  0  0  0  0  0  0  0  0
   21.7593  -27.3364  -17.0826 N   0  0  0  0  0  0  0  0  0  0  0  0
   21.5163  -25.8571  -15.3396 N   0  0  0  0  0  0  0  0  0  0  0  0
   21.3995  -24.5548  -14.7977 C   0  0  0  0  0  0  0  0  0  0  0  0
   22.4910  -23.5782  -15.0790 C   0  0  0  0  0  0  0  0  0  0  0  0
   23.0412  -22.8687  -13.8902 C   0  0  0  0  0  0  0  0  0  0  0  0
   22.9094  -21.4038  -13.8217 C   0  0  2  0  0  0  0  0  0  0  0  0
   24.1786  -20.7582  -13.4708 N   0  0  0  0  0  0  0  0  0  0  0  0
   21.9368  -20.9475  -12.7565 C   0  0  0  0  0  0  0  0  0  0  0  0
   22.3625  -20.3696  -11.5729 O   0  0  0  0  0  0  0  0  0  0  0  0
   20.7053  -21.0668  -12.8955 O   0  0  0  0  0  0  0  0  0  0  0  0
  2  1  1  0
  3  2  1  0
  3  4  1  1
  5  6  2  0
  5  3  1  0
  7  5  1  0
  8  7  1  0
  9 10  1  0
  8  9  1  6
 10 11  2  0
 10 18  1  0
 11 12  1  0
 12 13  1  0
 13 14  2  0
 15 14  1  0
 16 15  2  0
 17 18  2  0
 17 16  1  0
 18 13  1  0
 19  8  1  0
 19 29  1  0
 20 19  2  0
 22 21  1  0
 23 22  2  0
 24 22  1  0
 25 26  1  0
 25 24  1  0
 26 27  1  0
 28 27  1  1
 28 29  1  0
 28 30  1  0
 30 31  1  0
 32 30  2  0
M  END
$$$$
