SWR.pdb
     RDKit          3D

 32 33  0  0  1  0  0  0  0  0999 V2000
   28.3118  -18.9023  -16.5841 O   0  0  0  0  0  0  0  0  0  0  0  0
   27.4588  -19.7257  -15.8571 C   0  0  0  0  0  0  0  0  0  0  0  0
   28.2251  -20.4437  -14.7388 C   0  0  2  0  0  0  0  0  0  0  0  0
   29.0749  -21.4146  -15.4478 N   0  0  0  0  0  0  0  0  0  0  0  0
   27.2378  -21.1732  -13.8850 C   0  0  0  0  0  0  0  0  0  0  0  0
   26.9123  -22.3517  -14.1029 O   0  0  0  0  0  0  0  0  0  0  0  0
   26.6565  -20.5057  -12.7975 N   0  0  0  0  0  0  0  0  0  0  0  0
   25.7168  -20.8999  -11.8339 C   0  0  1  0  0  0  0  0  0  0  0  0
   25.8176  -20.3308  -10.4417 C   0  0  0  0  0  0  0  0  0  0  0  0
   27.0784  -20.7549   -9.7388 C   0  0  0  0  0  0  0  0  0  0  0  0
   28.1227  -21.4825  -10.2540 C   0  0  0  0  0  0  0  0  0  0  0  0
   29.0132  -21.6487   -9.2699 N   0  0  0  0  0  0  0  0  0  0  0  0
   28.5628  -21.0420   -8.1322 C   0  0  0  0  0  0  0  0  0  0  0  0
   29.0801  -20.9173   -6.8704 C   0  0  0  0  0  0  0  0  0  0  0  0
   28.3746  -20.2227   -5.8887 C   0  0  0  0  0  0  0  0  0  0  0  0
   27.1502  -19.6481   -6.1555 C   0  0  0  0  0  0  0  0  0  0  0  0
   26.6380  -19.7778   -7.4263 C   0  0  0  0  0  0  0  0  0  0  0  0
   27.3439  -20.4753   -8.4164 C   0  0  0  0  0  0  0  0  0  0  0  0
   24.3439  -20.7165  -12.3111 C   0  0  0  0  0  0  0  0  0  0  0  0
   24.0631  -19.5956  -12.8538 O   0  0  0  0  0  0  0  0  0  0  0  0
   17.6336  -26.6122  -12.0391 N   0  0  0  0  0  0  0  0  0  0  0  0
   18.2170  -25.7720  -11.0637 C   0  0  0  0  0  0  0  0  0  0  0  0
   18.1252  -25.9988   -9.7692 N   0  0  0  0  0  0  0  0  0  0  0  0
   18.9731  -24.5919  -11.3776 N   0  0  0  0  0  0  0  0  0  0  0  0
   19.1108  -24.1372  -12.7108 C   0  0  0  0  0  0  0  0  0  0  0  0
   19.8474  -22.8614  -12.9437 C   0  0  0  0  0  0  0  0  0  0  0  0
   21.2501  -22.8282  -12.4432 C   0  0  0  0  0  0  0  0  0  0  0  0
   22.0433  -21.6055  -12.6531 C   0  0  2  0  0  0  0  0  0  0  0  0
   23.4156  -21.7543  -12.1576 N   0  0  0  0  0  0  0  0  0  0  0  0
   21.4920  -20.4091  -11.9092 C   0  0  0  0  0  0  0  0  0  0  0  0
   20.6258  -19.5092  -12.5059 O   0  0  0  0  0  0  0  0  0  0  0  0
   21.7885  -20.1787  -10.7221 O   0  0  0  0  0  0  0  0  0  0  0  0
  2  1  1  0
  3  2  1  0
  3  4  1  6
  5  6  2  0
  5  3  1  0
  7  5  1  0
  8  7  1  0
  9 10  1  0
  8  9  1  1
 10 11  2  0
 10 18  1  0
 11 12  1  0
 12 13  1  0
 13 14  2  0
 15 14  1  0
 16 15  2  0
 17 18  2  0
 17 16  1  0
 18 13  1  0
 19  8  1  0
 19 29  1  0
 20 19  2  0
 22 21  1  0
 23 22  2  0
 24 22  1  0
 25 26  1  0
 25 24  1  0
 26 27  1  0
 28 27  1  1
 28 29  1  0
 28 30  1  0
 30 31  1  0
 32 30  2  0
M  END
$$$$
