SWR.pdb
     RDKit          3D

 32 33  0  0  1  0  0  0  0  0999 V2000
   28.8743  -18.2947  -15.0687 O   0  0  0  0  0  0  0  0  0  0  0  0
   27.9217  -19.1164  -14.4758 C   0  0  0  0  0  0  0  0  0  0  0  0
   28.5978  -20.2048  -13.6321 C   0  0  2  0  0  0  0  0  0  0  0  0
   29.1232  -21.1576  -14.6238 N   0  0  0  0  0  0  0  0  0  0  0  0
   27.5505  -20.8746  -12.8012 C   0  0  0  0  0  0  0  0  0  0  0  0
   26.8859  -21.8375  -13.2177 O   0  0  0  0  0  0  0  0  0  0  0  0
   27.3075  -20.4013  -11.5038 N   0  0  0  0  0  0  0  0  0  0  0  0
   26.2749  -20.6383  -10.5850 C   0  0  1  0  0  0  0  0  0  0  0  0
   26.3827  -20.0525   -9.2002 C   0  0  0  0  0  0  0  0  0  0  0  0
   27.6703  -20.4267   -8.5179 C   0  0  0  0  0  0  0  0  0  0  0  0
   28.6907  -21.1989   -9.0160 C   0  0  0  0  0  0  0  0  0  0  0  0
   29.6206  -21.2915   -8.0591 N   0  0  0  0  0  0  0  0  0  0  0  0
   29.2190  -20.5939   -6.9557 C   0  0  0  0  0  0  0  0  0  0  0  0
   29.7882  -20.3723   -5.7300 C   0  0  0  0  0  0  0  0  0  0  0  0
   29.1255  -19.5981   -4.7786 C   0  0  0  0  0  0  0  0  0  0  0  0
   27.8926  -19.0394   -5.0400 C   0  0  0  0  0  0  0  0  0  0  0  0
   27.3281  -19.2666   -6.2744 C   0  0  0  0  0  0  0  0  0  0  0  0
   27.9908  -20.0445   -7.2340 C   0  0  0  0  0  0  0  0  0  0  0  0
   24.9662  -20.2811  -11.1385 C   0  0  0  0  0  0  0  0  0  0  0  0
   24.8117  -19.0764  -11.5315 O   0  0  0  0  0  0  0  0  0  0  0  0
   22.2341  -26.4240  -15.8962 N   0  0  0  0  0  0  0  0  0  0  0  0
   23.4601  -25.8996  -15.4277 C   0  0  0  0  0  0  0  0  0  0  0  0
   24.6305  -26.2585  -15.9146 N   0  0  0  0  0  0  0  0  0  0  0  0
   23.5603  -24.9206  -14.3816 N   0  0  0  0  0  0  0  0  0  0  0  0
   22.4492  -24.5943  -13.5679 C   0  0  0  0  0  0  0  0  0  0  0  0
   22.6268  -23.5387  -12.5295 C   0  0  0  0  0  0  0  0  0  0  0  0
   22.5981  -22.1351  -13.0279 C   0  0  0  0  0  0  0  0  0  0  0  0
   22.7813  -21.0408  -12.0598 C   0  0  2  0  0  0  0  0  0  0  0  0
   23.9604  -21.2532  -11.2139 N   0  0  0  0  0  0  0  0  0  0  0  0
   21.6280  -20.9119  -11.0891 C   0  0  0  0  0  0  0  0  0  0  0  0
   20.4304  -20.3174  -11.4471 O   0  0  0  0  0  0  0  0  0  0  0  0
   21.7000  -21.3385   -9.9216 O   0  0  0  0  0  0  0  0  0  0  0  0
  2  1  1  0
  3  2  1  0
  3  4  1  6
  5  6  2  0
  5  3  1  0
  7  5  1  0
  8  7  1  0
  9 10  1  0
  8  9  1  1
 10 11  2  0
 10 18  1  0
 11 12  1  0
 12 13  1  0
 13 14  2  0
 15 14  1  0
 16 15  2  0
 17 18  2  0
 17 16  1  0
 18 13  1  0
 19  8  1  0
 19 29  1  0
 20 19  2  0
 22 21  1  0
 23 22  2  0
 24 22  1  0
 25 26  1  0
 25 24  1  0
 26 27  1  0
 28 27  1  6
 28 29  1  0
 28 30  1  0
 30 31  1  0
 32 30  2  0
M  END
$$$$
