SWR.pdb
     RDKit          3D

 32 33  0  0  1  0  0  0  0  0999 V2000
   23.9502  -26.3522  -14.9020 O   0  0  0  0  0  0  0  0  0  0  0  0
   24.5862  -25.2826  -14.2809 C   0  0  0  0  0  0  0  0  0  0  0  0
   23.7327  -24.7444  -13.1254 C   0  0  2  0  0  0  0  0  0  0  0  0
   22.4590  -25.4727  -13.2462 N   0  0  0  0  0  0  0  0  0  0  0  0
   23.4979  -23.2854  -13.3535 C   0  0  0  0  0  0  0  0  0  0  0  0
   22.5915  -22.8645  -14.0909 O   0  0  0  0  0  0  0  0  0  0  0  0
   24.3292  -22.3555  -12.7128 N   0  0  0  0  0  0  0  0  0  0  0  0
   24.4249  -20.9583  -12.7876 C   0  0  1  0  0  0  0  0  0  0  0  0
   24.6775  -20.1762  -11.5239 C   0  0  0  0  0  0  0  0  0  0  0  0
   23.5864  -20.3646  -10.5052 C   0  0  0  0  0  0  0  0  0  0  0  0
   23.6724  -20.9989   -9.2904 C   0  0  0  0  0  0  0  0  0  0  0  0
   22.4576  -20.9528   -8.7327 N   0  0  0  0  0  0  0  0  0  0  0  0
   21.5921  -20.3011   -9.5643 C   0  0  0  0  0  0  0  0  0  0  0  0
   20.2619  -19.9887   -9.4722 C   0  0  0  0  0  0  0  0  0  0  0  0
   19.6305  -19.2982  -10.5058 C   0  0  0  0  0  0  0  0  0  0  0  0
   20.3178  -18.9141  -11.6375 C   0  0  0  0  0  0  0  0  0  0  0  0
   21.6542  -19.2316  -11.7215 C   0  0  0  0  0  0  0  0  0  0  0  0
   22.2931  -19.9258  -10.6847 C   0  0  0  0  0  0  0  0  0  0  0  0
   25.4002  -20.5365  -13.7962 C   0  0  0  0  0  0  0  0  0  0  0  0
   26.6175  -20.8676  -13.6004 O   0  0  0  0  0  0  0  0  0  0  0  0
   29.7789  -23.1269  -16.8231 N   0  0  0  0  0  0  0  0  0  0  0  0
   29.2407  -23.7013  -17.9970 C   0  0  0  0  0  0  0  0  0  0  0  0
   29.6242  -24.8703  -18.4685 N   0  0  0  0  0  0  0  0  0  0  0  0
   28.2199  -23.0792  -18.7931 N   0  0  0  0  0  0  0  0  0  0  0  0
   27.5196  -21.9381  -18.3340 C   0  0  0  0  0  0  0  0  0  0  0  0
   27.0811  -21.9113  -16.9088 C   0  0  0  0  0  0  0  0  0  0  0  0
   25.7411  -21.3100  -16.6596 C   0  0  0  0  0  0  0  0  0  0  0  0
   25.6716  -19.9154  -16.1922 C   0  0  2  0  0  0  0  0  0  0  0  0
   24.9684  -19.8047  -14.9099 N   0  0  0  0  0  0  0  0  0  0  0  0
   24.9023  -19.0148  -17.1333 C   0  0  0  0  0  0  0  0  0  0  0  0
   23.5203  -18.9393  -17.1112 O   0  0  0  0  0  0  0  0  0  0  0  0
   25.4765  -18.2948  -17.9712 O   0  0  0  0  0  0  0  0  0  0  0  0
  2  1  1  0
  3  2  1  0
  3  4  1  6
  5  6  2  0
  5  3  1  0
  7  5  1  0
  8  7  1  0
  9 10  1  0
  8  9  1  1
 10 11  2  0
 10 18  1  0
 11 12  1  0
 12 13  1  0
 13 14  2  0
 15 14  1  0
 16 15  2  0
 17 18  2  0
 17 16  1  0
 18 13  1  0
 19  8  1  0
 19 29  1  0
 20 19  2  0
 22 21  1  0
 23 22  2  0
 24 22  1  0
 25 26  1  0
 25 24  1  0
 26 27  1  0
 28 27  1  6
 28 29  1  0
 28 30  1  0
 30 31  1  0
 32 30  2  0
M  END
$$$$
