SWR.pdb
     RDKit          3D

 32 33  0  0  1  0  0  0  0  0999 V2000
   26.6321  -19.2083  -15.7987 O   0  0  0  0  0  0  0  0  0  0  0  0
   27.7525  -18.9915  -15.0037 C   0  0  0  0  0  0  0  0  0  0  0  0
   28.2192  -20.3034  -14.3599 C   0  0  2  0  0  0  0  0  0  0  0  0
   28.6370  -21.1373  -15.4989 N   0  0  0  0  0  0  0  0  0  0  0  0
   27.0479  -20.9367  -13.6797 C   0  0  0  0  0  0  0  0  0  0  0  0
   26.5291  -21.9881  -14.0891 O   0  0  0  0  0  0  0  0  0  0  0  0
   26.5132  -20.3241  -12.5372 N   0  0  0  0  0  0  0  0  0  0  0  0
   25.5145  -20.7114  -11.6320 C   0  0  1  0  0  0  0  0  0  0  0  0
   25.6381  -20.2954  -10.1883 C   0  0  0  0  0  0  0  0  0  0  0  0
   26.9747  -20.6570   -9.5998 C   0  0  0  0  0  0  0  0  0  0  0  0
   27.9133  -21.5173  -10.1140 C   0  0  0  0  0  0  0  0  0  0  0  0
   28.9312  -21.5569   -9.2472 N   0  0  0  0  0  0  0  0  0  0  0  0
   28.6663  -20.7388   -8.1861 C   0  0  0  0  0  0  0  0  0  0  0  0
   29.3631  -20.4243   -7.0499 C   0  0  0  0  0  0  0  0  0  0  0  0
   28.8259  -19.5334   -6.1217 C   0  0  0  0  0  0  0  0  0  0  0  0
   27.5922  -18.9499   -6.3174 C   0  0  0  0  0  0  0  0  0  0  0  0
   26.8990  -19.2712   -7.4621 C   0  0  0  0  0  0  0  0  0  0  0  0
   27.4354  -20.1664   -8.3980 C   0  0  0  0  0  0  0  0  0  0  0  0
   24.1797  -20.3403  -12.1084 C   0  0  0  0  0  0  0  0  0  0  0  0
   23.9702  -19.1028  -12.3418 O   0  0  0  0  0  0  0  0  0  0  0  0
   18.5832  -25.6432  -10.0807 N   0  0  0  0  0  0  0  0  0  0  0  0
   18.3118  -25.4912  -11.4594 C   0  0  0  0  0  0  0  0  0  0  0  0
   17.1226  -25.6991  -11.9869 N   0  0  0  0  0  0  0  0  0  0  0  0
   19.2956  -25.0904  -12.4260 N   0  0  0  0  0  0  0  0  0  0  0  0
   20.4799  -24.4195  -12.0382 C   0  0  0  0  0  0  0  0  0  0  0  0
   20.4377  -22.9332  -11.9224 C   0  0  0  0  0  0  0  0  0  0  0  0
   21.0592  -22.1825  -13.0492 C   0  0  0  0  0  0  0  0  0  0  0  0
   21.8594  -20.9856  -12.7407 C   0  0  2  0  0  0  0  0  0  0  0  0
   23.2092  -21.3348  -12.2858 N   0  0  0  0  0  0  0  0  0  0  0  0
   21.2753  -20.1584  -11.6167 C   0  0  0  0  0  0  0  0  0  0  0  0
   20.1642  -19.3532  -11.7988 O   0  0  0  0  0  0  0  0  0  0  0  0
   21.7645  -20.1655  -10.4718 O   0  0  0  0  0  0  0  0  0  0  0  0
  2  1  1  0
  3  2  1  0
  3  4  1  6
  5  6  2  0
  5  3  1  0
  7  5  1  0
  8  7  1  0
  9 10  1  0
  8  9  1  1
 10 11  2  0
 10 18  1  0
 11 12  1  0
 12 13  1  0
 13 14  2  0
 15 14  1  0
 16 15  2  0
 17 18  2  0
 17 16  1  0
 18 13  1  0
 19  8  1  0
 19 29  1  0
 20 19  2  0
 22 21  1  0
 23 22  2  0
 24 22  1  0
 25 26  1  0
 25 24  1  0
 26 27  1  0
 28 27  1  1
 28 29  1  0
 28 30  1  0
 30 31  1  0
 32 30  2  0
M  END
$$$$
