SWR.pdb
     RDKit          3D

 32 33  0  0  1  0  0  0  0  0999 V2000
   26.8817  -19.3446  -15.4862 O   0  0  0  0  0  0  0  0  0  0  0  0
   28.1658  -19.5091  -14.9781 C   0  0  0  0  0  0  0  0  0  0  0  0
   28.3497  -20.9281  -14.4250 C   0  0  2  0  0  0  0  0  0  0  0  0
   28.0029  -21.8052  -15.5554 N   0  0  0  0  0  0  0  0  0  0  0  0
   27.3685  -21.1313  -13.3151 C   0  0  0  0  0  0  0  0  0  0  0  0
   26.3317  -21.8000  -13.4576 O   0  0  0  0  0  0  0  0  0  0  0  0
   27.6253  -20.5476  -12.0662 N   0  0  0  0  0  0  0  0  0  0  0  0
   26.9253  -20.5595  -10.8510 C   0  0  1  0  0  0  0  0  0  0  0  0
   27.5254  -19.8615   -9.6573 C   0  0  0  0  0  0  0  0  0  0  0  0
   26.8536  -20.2500   -8.3683 C   0  0  0  0  0  0  0  0  0  0  0  0
   25.6712  -20.9299   -8.2096 C   0  0  0  0  0  0  0  0  0  0  0  0
   25.4451  -21.0294   -6.8950 N   0  0  0  0  0  0  0  0  0  0  0  0
   26.4586  -20.4276   -6.2052 C   0  0  0  0  0  0  0  0  0  0  0  0
   26.7073  -20.2531   -4.8699 C   0  0  0  0  0  0  0  0  0  0  0  0
   27.8548  -19.5804   -4.4522 C   0  0  0  0  0  0  0  0  0  0  0  0
   28.7622  -19.0769   -5.3599 C   0  0  0  0  0  0  0  0  0  0  0  0
   28.5048  -19.2572   -6.6997 C   0  0  0  0  0  0  0  0  0  0  0  0
   27.3522  -19.9329   -7.1241 C   0  0  0  0  0  0  0  0  0  0  0  0
   25.5469  -20.0917  -11.0166 C   0  0  0  0  0  0  0  0  0  0  0  0
   25.3860  -18.8905  -11.4180 O   0  0  0  0  0  0  0  0  0  0  0  0
   22.5908  -25.9832  -13.4942 N   0  0  0  0  0  0  0  0  0  0  0  0
   21.2361  -25.6205  -13.3181 C   0  0  0  0  0  0  0  0  0  0  0  0
   20.3218  -26.4503  -12.8586 N   0  0  0  0  0  0  0  0  0  0  0  0
   20.7158  -24.3148  -13.6133 N   0  0  0  0  0  0  0  0  0  0  0  0
   21.5652  -23.2552  -14.0119 C   0  0  0  0  0  0  0  0  0  0  0  0
   21.7041  -22.0859  -13.0966 C   0  0  0  0  0  0  0  0  0  0  0  0
   22.9898  -22.0040  -12.3486 C   0  0  0  0  0  0  0  0  0  0  0  0
   23.2173  -20.8482  -11.4651 C   0  0  2  0  0  0  0  0  0  0  0  0
   24.4848  -20.9609  -10.7358 N   0  0  0  0  0  0  0  0  0  0  0  0
   22.1634  -20.7116  -10.3883 C   0  0  0  0  0  0  0  0  0  0  0  0
   20.9660  -20.0544  -10.6126 O   0  0  0  0  0  0  0  0  0  0  0  0
   22.3215  -21.1878   -9.2488 O   0  0  0  0  0  0  0  0  0  0  0  0
  2  1  1  0
  3  2  1  0
  3  4  1  6
  5  6  2  0
  5  3  1  0
  7  5  1  0
  8  7  1  0
  9 10  1  0
  8  9  1  1
 10 11  2  0
 10 18  1  0
 11 12  1  0
 12 13  1  0
 13 14  2  0
 15 14  1  0
 16 15  2  0
 17 18  2  0
 17 16  1  0
 18 13  1  0
 19  8  1  0
 19 29  1  0
 20 19  2  0
 22 21  1  0
 23 22  2  0
 24 22  1  0
 25 26  1  0
 25 24  1  0
 26 27  1  0
 28 27  1  1
 28 29  1  0
 28 30  1  0
 30 31  1  0
 32 30  2  0
M  END
$$$$
