SWR.pdb
     RDKit          3D

 32 33  0  0  1  0  0  0  0  0999 V2000
   25.6718  -24.6136  -17.9904 O   0  0  0  0  0  0  0  0  0  0  0  0
   26.6312  -23.6149  -17.8628 C   0  0  0  0  0  0  0  0  0  0  0  0
   27.4878  -23.8463  -16.6113 C   0  0  2  0  0  0  0  0  0  0  0  0
   27.7640  -25.2923  -16.6238 N   0  0  0  0  0  0  0  0  0  0  0  0
   26.6668  -23.5044  -15.4093 C   0  0  0  0  0  0  0  0  0  0  0  0
   26.3648  -24.3469  -14.5482 O   0  0  0  0  0  0  0  0  0  0  0  0
   26.2204  -22.1854  -15.2445 N   0  0  0  0  0  0  0  0  0  0  0  0
   25.5416  -21.5362  -14.2031 C   0  0  1  0  0  0  0  0  0  0  0  0
   26.0590  -20.2082  -13.7119 C   0  0  0  0  0  0  0  0  0  0  0  0
   27.1581  -20.3614  -12.6959 C   0  0  0  0  0  0  0  0  0  0  0  0
   28.5069  -20.4712  -12.9284 C   0  0  0  0  0  0  0  0  0  0  0  0
   29.1031  -20.6167  -11.7400 N   0  0  0  0  0  0  0  0  0  0  0  0
   28.1647  -20.6022  -10.7477 C   0  0  0  0  0  0  0  0  0  0  0  0
   28.2419  -20.7110   -9.3848 C   0  0  0  0  0  0  0  0  0  0  0  0
   27.0838  -20.6593   -8.6103 C   0  0  0  0  0  0  0  0  0  0  0  0
   25.8416  -20.4992   -9.1863 C   0  0  0  0  0  0  0  0  0  0  0  0
   25.7731  -20.3901  -10.5565 C   0  0  0  0  0  0  0  0  0  0  0  0
   26.9350  -20.4416  -11.3391 C   0  0  0  0  0  0  0  0  0  0  0  0
   24.1122  -21.3978  -14.4931 C   0  0  0  0  0  0  0  0  0  0  0  0
   23.7946  -20.9567  -15.6483 O   0  0  0  0  0  0  0  0  0  0  0  0
   17.4623  -24.6299  -14.6771 N   0  0  0  0  0  0  0  0  0  0  0  0
   18.2210  -25.4202  -13.7841 C   0  0  0  0  0  0  0  0  0  0  0  0
   18.4709  -26.6978  -13.9867 N   0  0  0  0  0  0  0  0  0  0  0  0
   18.8025  -24.9169  -12.5712 N   0  0  0  0  0  0  0  0  0  0  0  0
   18.7423  -23.5423  -12.2395 C   0  0  0  0  0  0  0  0  0  0  0  0
   19.4690  -22.5776  -13.1145 C   0  0  0  0  0  0  0  0  0  0  0  0
   20.9396  -22.4906  -12.8933 C   0  0  0  0  0  0  0  0  0  0  0  0
   21.7360  -21.6333  -13.7871 C   0  0  2  0  0  0  0  0  0  0  0  0
   23.1726  -21.7479  -13.5149 N   0  0  0  0  0  0  0  0  0  0  0  0
   21.4282  -20.1613  -13.6222 C   0  0  0  0  0  0  0  0  0  0  0  0
   20.6834  -19.4583  -14.5534 O   0  0  0  0  0  0  0  0  0  0  0  0
   21.8274  -19.5120  -12.6376 O   0  0  0  0  0  0  0  0  0  0  0  0
  2  1  1  0
  3  2  1  0
  3  4  1  1
  5  6  2  0
  5  3  1  0
  7  5  1  0
  8  7  1  0
  9 10  1  0
  8  9  1  6
 10 11  2  0
 10 18  1  0
 11 12  1  0
 12 13  1  0
 13 14  2  0
 15 14  1  0
 16 15  2  0
 17 18  2  0
 17 16  1  0
 18 13  1  0
 19  8  1  0
 19 29  1  0
 20 19  2  0
 22 21  1  0
 23 22  2  0
 24 22  1  0
 25 26  1  0
 25 24  1  0
 26 27  1  0
 28 27  1  1
 28 29  1  0
 28 30  1  0
 30 31  1  0
 32 30  2  0
M  END
$$$$
