YKV.pdb
     RDKit          3D

 29 29  0  0  1  0  0  0  0  0999 V2000
    7.6237  -12.9346   15.6121 O   0  0  0  0  0  0  0  0  0  0  0  0
    7.6646  -13.3142   16.9326 C   0  0  0  0  0  0  0  0  0  0  0  0
    6.8343  -12.6583   17.8145 C   0  0  0  0  0  0  0  0  0  0  0  0
    6.8536  -13.0175   19.1444 C   0  0  0  0  0  0  0  0  0  0  0  0
    7.6715  -14.0095   19.6344 C   0  0  0  0  0  0  0  0  0  0  0  0
    7.6340  -14.3386   21.0791 C   0  0  0  0  0  0  0  0  0  0  0  0
    8.7062  -15.3418   21.4430 C   0  0  2  0  0  0  0  0  0  0  0  0
    8.6828  -16.4499   20.5061 N   0  0  0  0  0  0  0  0  0  0  0  0
    8.5246  -15.8584   22.8250 C   0  0  0  0  0  0  0  0  0  0  0  0
    8.3436  -15.0638   23.7926 O   0  0  0  0  0  0  0  0  0  0  0  0
    8.4950  -14.6505   18.7226 C   0  0  0  0  0  0  0  0  0  0  0  0
    8.4884  -14.3031   17.3856 C   0  0  0  0  0  0  0  0  0  0  0  0
    8.5439  -17.2429   23.1318 N   0  0  0  0  0  0  0  0  0  0  0  0
    8.4028  -17.7064   24.5367 C   0  0  1  0  0  0  0  0  0  0  0  0
    8.4093  -19.1957   24.5845 C   0  0  0  0  0  0  0  0  0  0  0  0
    8.5673  -19.7215   25.9755 C   0  0  0  0  0  0  0  0  0  0  0  0
    7.2190  -20.0399   26.6111 C   0  0  0  0  0  0  0  0  0  0  0  0
    7.5143  -20.5324   28.0196 C   0  0  0  0  0  0  0  0  0  0  0  0
    6.3021  -20.7800   28.7620 N   0  0  0  0  0  0  0  0  0  0  0  0
    9.4628  -17.0653   25.3424 C   0  0  0  0  0  0  0  0  0  0  0  0
   10.6747  -17.1359   25.0529 O   0  0  0  0  0  0  0  0  0  0  0  0
   10.8146  -13.6594   28.6502 C   0  0  0  0  0  0  0  0  0  0  0  0
    9.8712  -14.2491   27.6428 C   0  0  2  0  0  0  0  0  0  0  0  0
    8.4445  -14.0798   28.1769 C   0  0  0  0  0  0  0  0  0  0  0  0
   10.1558  -15.7094   27.3511 C   0  0  2  0  0  0  0  0  0  0  0  0
    9.1576  -16.3097   26.5273 N   0  0  0  0  0  0  0  0  0  0  0  0
   10.3213  -16.3884   28.6579 C   0  0  0  0  0  0  0  0  0  0  0  0
    9.4904  -17.2239   29.0931 O   0  0  0  0  0  0  0  0  0  0  0  0
   11.4171  -16.1128   29.4461 O   0  0  0  0  0  0  0  0  0  0  0  0
  2  1  1  0
  3  2  2  0
  4  3  1  0
  5  4  2  0
  5 11  1  0
  6  5  1  0
  6  7  1  0
  7  9  1  0
  7  8  1  6
  9 10  2  0
 11 12  2  0
 12  2  1  0
 13 14  1  0
 13  9  1  0
 14 15  1  6
 16 15  1  0
 17 16  1  0
 18 19  1  0
 18 17  1  0
 20 26  1  0
 20 14  1  0
 21 20  2  0
 23 22  1  1
 23 24  1  0
 25 26  1  1
 25 23  1  0
 27 29  1  0
 27 25  1  0
 28 27  2  0
M  END
$$$$
