YKV.pdb
     RDKit          3D

 29 29  0  0  1  0  0  0  0  0999 V2000
    4.3803   -9.9428   26.3473 O   0  0  0  0  0  0  0  0  0  0  0  0
    5.2079  -11.0073   26.0794 C   0  0  0  0  0  0  0  0  0  0  0  0
    5.6379  -11.7690   27.1435 C   0  0  0  0  0  0  0  0  0  0  0  0
    6.4682  -12.8422   26.9054 C   0  0  0  0  0  0  0  0  0  0  0  0
    6.8902  -13.1895   25.6427 C   0  0  0  0  0  0  0  0  0  0  0  0
    7.7834  -14.3593   25.4681 C   0  0  0  0  0  0  0  0  0  0  0  0
    7.1128  -15.4479   24.6596 C   0  0  2  0  0  0  0  0  0  0  0  0
    5.9334  -15.9250   25.3578 N   0  0  0  0  0  0  0  0  0  0  0  0
    8.0337  -16.5874   24.4079 C   0  0  0  0  0  0  0  0  0  0  0  0
    8.0164  -17.6085   25.1546 O   0  0  0  0  0  0  0  0  0  0  0  0
    6.4407  -12.4041   24.5933 C   0  0  0  0  0  0  0  0  0  0  0  0
    5.6078  -11.3243   24.8139 C   0  0  0  0  0  0  0  0  0  0  0  0
    8.9654  -16.5951   23.3386 N   0  0  0  0  0  0  0  0  0  0  0  0
   10.2531  -17.3258   23.4652 C   0  0  1  0  0  0  0  0  0  0  0  0
   10.9627  -17.3378   22.1550 C   0  0  0  0  0  0  0  0  0  0  0  0
   12.1685  -18.2221   22.1668 C   0  0  0  0  0  0  0  0  0  0  0  0
   12.8558  -18.2512   20.8066 C   0  0  0  0  0  0  0  0  0  0  0  0
   14.0335  -19.2044   20.9413 C   0  0  0  0  0  0  0  0  0  0  0  0
   14.7989  -19.2808   19.7205 N   0  0  0  0  0  0  0  0  0  0  0  0
   11.0223  -16.7167   24.5702 C   0  0  0  0  0  0  0  0  0  0  0  0
   11.7036  -15.6799   24.4350 O   0  0  0  0  0  0  0  0  0  0  0  0
   10.3841  -14.6550   27.3004 C   0  0  0  0  0  0  0  0  0  0  0  0
   10.8883  -15.9265   27.9181 C   0  0  2  0  0  0  0  0  0  0  0  0
   11.6642  -15.5588   29.1879 C   0  0  0  0  0  0  0  0  0  0  0  0
   11.7644  -16.7325   26.9791 C   0  0  2  0  0  0  0  0  0  0  0  0
   11.0328  -17.2906   25.8888 N   0  0  0  0  0  0  0  0  0  0  0  0
   12.4576  -17.7523   27.8010 C   0  0  0  0  0  0  0  0  0  0  0  0
   12.1712  -18.9739   27.7419 O   0  0  0  0  0  0  0  0  0  0  0  0
   13.4573  -17.3757   28.6710 O   0  0  0  0  0  0  0  0  0  0  0  0
  2  1  1  0
  3  2  2  0
  4  3  1  0
  5  4  2  0
  5 11  1  0
  6  5  1  0
  6  7  1  0
  7  9  1  0
  7  8  1  1
  9 10  2  0
 11 12  2  0
 12  2  1  0
 13 14  1  0
 13  9  1  0
 14 15  1  6
 16 15  1  0
 17 16  1  0
 18 19  1  0
 18 17  1  0
 20 26  1  0
 20 14  1  0
 21 20  2  0
 23 22  1  6
 23 24  1  0
 25 26  1  6
 25 23  1  0
 27 29  1  0
 27 25  1  0
 28 27  2  0
M  END
$$$$
