YKV.pdb
     RDKit          3D

 29 29  0  0  1  0  0  0  0  0999 V2000
    6.3297  -10.6531   27.9368 O   0  0  0  0  0  0  0  0  0  0  0  0
    6.7831  -11.7524   27.2472 C   0  0  0  0  0  0  0  0  0  0  0  0
    7.9134  -12.3835   27.7179 C   0  0  0  0  0  0  0  0  0  0  0  0
    8.3910  -13.4879   27.0471 C   0  0  0  0  0  0  0  0  0  0  0  0
    7.7848  -13.9924   25.9196 C   0  0  0  0  0  0  0  0  0  0  0  0
    8.3594  -15.1856   25.2544 C   0  0  0  0  0  0  0  0  0  0  0  0
    7.2778  -16.0506   24.6457 C   0  0  2  0  0  0  0  0  0  0  0  0
    7.1773  -17.3008   25.3758 N   0  0  0  0  0  0  0  0  0  0  0  0
    7.5482  -16.3352   23.2119 C   0  0  0  0  0  0  0  0  0  0  0  0
    7.9525  -17.4766   22.8454 O   0  0  0  0  0  0  0  0  0  0  0  0
    6.6500  -13.3357   25.4709 C   0  0  0  0  0  0  0  0  0  0  0  0
    6.1573  -12.2268   26.1312 C   0  0  0  0  0  0  0  0  0  0  0  0
    7.3725  -15.3637   22.1938 N   0  0  0  0  0  0  0  0  0  0  0  0
    7.6421  -15.7032   20.7724 C   0  0  1  0  0  0  0  0  0  0  0  0
    7.3778  -14.5192   19.9072 C   0  0  0  0  0  0  0  0  0  0  0  0
    7.4900  -14.8398   18.4509 C   0  0  0  0  0  0  0  0  0  0  0  0
    7.9906  -13.6433   17.6502 C   0  0  0  0  0  0  0  0  0  0  0  0
    8.0362  -14.0886   16.1965 C   0  0  0  0  0  0  0  0  0  0  0  0
    8.3038  -12.9827   15.3091 N   0  0  0  0  0  0  0  0  0  0  0  0
    9.0184  -16.2330   20.6779 C   0  0  0  0  0  0  0  0  0  0  0  0
    9.3033  -17.2824   20.0655 O   0  0  0  0  0  0  0  0  0  0  0  0
   11.7943  -13.7842   19.6212 C   0  0  0  0  0  0  0  0  0  0  0  0
   12.3258  -14.6264   20.7440 C   0  0  2  0  0  0  0  0  0  0  0  0
   13.7682  -15.0148   20.4004 C   0  0  0  0  0  0  0  0  0  0  0  0
   11.4915  -15.8666   20.9982 C   0  0  2  0  0  0  0  0  0  0  0  0
   10.1299  -15.5613   21.2953 N   0  0  0  0  0  0  0  0  0  0  0  0
   12.1672  -16.6310   22.0731 C   0  0  0  0  0  0  0  0  0  0  0  0
   11.6157  -16.8758   23.1748 O   0  0  0  0  0  0  0  0  0  0  0  0
   13.4479  -17.1030   21.8851 O   0  0  0  0  0  0  0  0  0  0  0  0
  2  1  1  0
  3  2  2  0
  4  3  1  0
  5  4  2  0
  5 11  1  0
  6  5  1  0
  6  7  1  0
  7  9  1  0
  7  8  1  1
  9 10  2  0
 11 12  2  0
 12  2  1  0
 13 14  1  0
 13  9  1  0
 14 15  1  6
 16 15  1  0
 17 16  1  0
 18 19  1  0
 18 17  1  0
 20 26  1  0
 20 14  1  0
 21 20  2  0
 23 22  1  6
 23 24  1  0
 25 26  1  1
 25 23  1  0
 27 29  1  0
 27 25  1  0
 28 27  2  0
M  END
$$$$
