YKV.pdb
     RDKit          3D

 29 29  0  0  1  0  0  0  0  0999 V2000
    9.1217  -13.8515   15.9237 O   0  0  0  0  0  0  0  0  0  0  0  0
    8.6206  -14.0263   17.1918 C   0  0  0  0  0  0  0  0  0  0  0  0
    9.0511  -15.1226   17.9061 C   0  0  0  0  0  0  0  0  0  0  0  0
    8.5659  -15.3236   19.1797 C   0  0  0  0  0  0  0  0  0  0  0  0
    7.6638  -14.4716   19.7743 C   0  0  0  0  0  0  0  0  0  0  0  0
    7.1890  -14.7559   21.1493 C   0  0  0  0  0  0  0  0  0  0  0  0
    6.7299  -16.1907   21.2872 C   0  0  2  0  0  0  0  0  0  0  0  0
    5.4833  -16.3806   20.5688 N   0  0  0  0  0  0  0  0  0  0  0  0
    6.5424  -16.5698   22.7123 C   0  0  0  0  0  0  0  0  0  0  0  0
    5.5247  -16.1808   23.3553 O   0  0  0  0  0  0  0  0  0  0  0  0
    7.2499  -13.3781   19.0304 C   0  0  0  0  0  0  0  0  0  0  0  0
    7.7262  -13.1614   17.7520 C   0  0  0  0  0  0  0  0  0  0  0  0
    7.4745  -17.3723   23.4184 N   0  0  0  0  0  0  0  0  0  0  0  0
    7.4715  -17.4018   24.9041 C   0  0  1  0  0  0  0  0  0  0  0  0
    7.9261  -18.7358   25.3878 C   0  0  0  0  0  0  0  0  0  0  0  0
    7.9969  -18.8084   26.8798 C   0  0  0  0  0  0  0  0  0  0  0  0
    8.5795  -20.1363   27.3495 C   0  0  0  0  0  0  0  0  0  0  0  0
    8.6210  -20.0732   28.8688 C   0  0  0  0  0  0  0  0  0  0  0  0
    8.9476  -21.3545   29.4461 N   0  0  0  0  0  0  0  0  0  0  0  0
    8.2845  -16.2671   25.3895 C   0  0  0  0  0  0  0  0  0  0  0  0
    9.4744  -16.0909   25.0573 O   0  0  0  0  0  0  0  0  0  0  0  0
    6.5198  -12.8718   27.5067 C   0  0  0  0  0  0  0  0  0  0  0  0
    7.8476  -12.8906   26.8074 C   0  0  2  0  0  0  0  0  0  0  0  0
    7.6187  -12.4769   25.3493 C   0  0  0  0  0  0  0  0  0  0  0  0
    8.5298  -14.2430   26.8715 C   0  0  2  0  0  0  0  0  0  0  0  0
    7.7454  -15.2821   26.2880 N   0  0  0  0  0  0  0  0  0  0  0  0
    8.8659  -14.4923   28.2931 C   0  0  0  0  0  0  0  0  0  0  0  0
    9.6360  -13.7437   28.9447 O   0  0  0  0  0  0  0  0  0  0  0  0
    8.3286  -15.5774   28.9503 O   0  0  0  0  0  0  0  0  0  0  0  0
  2  1  1  0
  3  2  2  0
  4  3  1  0
  5  4  2  0
  5 11  1  0
  6  5  1  0
  6  7  1  0
  7  9  1  0
  7  8  1  6
  9 10  2  0
 11 12  2  0
 12  2  1  0
 13 14  1  0
 13  9  1  0
 14 15  1  6
 16 15  1  0
 17 16  1  0
 18 19  1  0
 18 17  1  0
 20 26  1  0
 20 14  1  0
 21 20  2  0
 23 22  1  1
 23 24  1  0
 25 26  1  1
 25 23  1  0
 27 29  1  0
 27 25  1  0
 28 27  2  0
M  END
$$$$
