YKV.pdb
     RDKit          3D

 29 29  0  0  1  0  0  0  0  0999 V2000
    8.0159  -13.1750   16.4569 O   0  0  0  0  0  0  0  0  0  0  0  0
    8.0845  -13.5642   17.7735 C   0  0  0  0  0  0  0  0  0  0  0  0
    7.3827  -12.8234   18.6987 C   0  0  0  0  0  0  0  0  0  0  0  0
    7.4328  -13.1899   20.0257 C   0  0  0  0  0  0  0  0  0  0  0  0
    8.1580  -14.2710   20.4713 C   0  0  0  0  0  0  0  0  0  0  0  0
    8.1612  -14.6017   21.9160 C   0  0  0  0  0  0  0  0  0  0  0  0
    7.5008  -15.9376   22.1762 C   0  0  2  0  0  0  0  0  0  0  0  0
    6.0584  -15.7977   22.0990 N   0  0  0  0  0  0  0  0  0  0  0  0
    7.8746  -16.4818   23.5081 C   0  0  0  0  0  0  0  0  0  0  0  0
    7.2835  -16.0885   24.5552 O   0  0  0  0  0  0  0  0  0  0  0  0
    8.8531  -14.9960   19.5166 C   0  0  0  0  0  0  0  0  0  0  0  0
    8.8141  -14.6426   18.1818 C   0  0  0  0  0  0  0  0  0  0  0  0
    8.8945  -17.4525   23.6780 N   0  0  0  0  0  0  0  0  0  0  0  0
    9.2474  -17.9465   25.0343 C   0  0  1  0  0  0  0  0  0  0  0  0
    9.8076  -19.3244   24.9445 C   0  0  0  0  0  0  0  0  0  0  0  0
   10.2756  -19.8378   26.2687 C   0  0  0  0  0  0  0  0  0  0  0  0
    9.5458  -21.1162   26.6642 C   0  0  0  0  0  0  0  0  0  0  0  0
   10.1203  -21.5402   28.0074 C   0  0  0  0  0  0  0  0  0  0  0  0
    9.2076  -21.2598   29.0891 N   0  0  0  0  0  0  0  0  0  0  0  0
   10.1505  -16.9606   25.6638 C   0  0  0  0  0  0  0  0  0  0  0  0
   11.1696  -16.5132   25.0994 O   0  0  0  0  0  0  0  0  0  0  0  0
    9.0761  -14.5635   29.1616 C   0  0  0  0  0  0  0  0  0  0  0  0
   10.1745  -14.3207   28.1680 C   0  0  2  0  0  0  0  0  0  0  0  0
    9.5814  -13.5380   26.9910 C   0  0  0  0  0  0  0  0  0  0  0  0
   10.8212  -15.6014   27.6778 C   0  0  2  0  0  0  0  0  0  0  0  0
    9.9059  -16.4488   26.9853 N   0  0  0  0  0  0  0  0  0  0  0  0
   11.4433  -16.2513   28.8554 C   0  0  0  0  0  0  0  0  0  0  0  0
   11.0321  -17.3447   29.3171 O   0  0  0  0  0  0  0  0  0  0  0  0
   12.5138  -15.6573   29.4874 O   0  0  0  0  0  0  0  0  0  0  0  0
  2  1  1  0
  3  2  2  0
  4  3  1  0
  5  4  2  0
  5 11  1  0
  6  5  1  0
  6  7  1  0
  7  9  1  0
  7  8  1  1
  9 10  2  0
 11 12  2  0
 12  2  1  0
 13 14  1  0
 13  9  1  0
 14 15  1  6
 16 15  1  0
 17 16  1  0
 18 19  1  0
 18 17  1  0
 20 26  1  0
 20 14  1  0
 21 20  2  0
 23 22  1  1
 23 24  1  0
 25 26  1  1
 25 23  1  0
 27 29  1  0
 27 25  1  0
 28 27  2  0
M  END
$$$$
