YKV.pdb
     RDKit          3D

 29 29  0  0  1  0  0  0  0  0999 V2000
    4.3443   -9.9136   25.9005 O   0  0  0  0  0  0  0  0  0  0  0  0
    5.1493  -11.0207   25.7737 C   0  0  0  0  0  0  0  0  0  0  0  0
    5.3526  -11.7974   26.8929 C   0  0  0  0  0  0  0  0  0  0  0  0
    6.1547  -12.9132   26.7958 C   0  0  0  0  0  0  0  0  0  0  0  0
    6.7663  -13.2890   25.6219 C   0  0  0  0  0  0  0  0  0  0  0  0
    7.6145  -14.5042   25.5978 C   0  0  0  0  0  0  0  0  0  0  0  0
    7.0248  -15.5692   24.6998 C   0  0  2  0  0  0  0  0  0  0  0  0
    5.8371  -16.1312   25.3159 N   0  0  0  0  0  0  0  0  0  0  0  0
    8.0018  -16.6557   24.4265 C   0  0  0  0  0  0  0  0  0  0  0  0
    8.0967  -17.6492   25.2040 O   0  0  0  0  0  0  0  0  0  0  0  0
    6.5424  -12.4875   24.5139 C   0  0  0  0  0  0  0  0  0  0  0  0
    5.7410  -11.3651   24.5933 C   0  0  0  0  0  0  0  0  0  0  0  0
    8.8661  -16.6411   23.3020 N   0  0  0  0  0  0  0  0  0  0  0  0
   10.1619  -17.3677   23.3370 C   0  0  1  0  0  0  0  0  0  0  0  0
   10.7744  -17.3818   21.9787 C   0  0  0  0  0  0  0  0  0  0  0  0
   10.1833  -18.4349   21.0968 C   0  0  0  0  0  0  0  0  0  0  0  0
   10.7822  -18.3939   19.6956 C   0  0  0  0  0  0  0  0  0  0  0  0
   10.1987  -19.5812   18.9448 C   0  0  0  0  0  0  0  0  0  0  0  0
   10.5955  -19.5808   17.5575 N   0  0  0  0  0  0  0  0  0  0  0  0
   11.0074  -16.7527   24.3813 C   0  0  0  0  0  0  0  0  0  0  0  0
   11.6629  -15.7067   24.1980 O   0  0  0  0  0  0  0  0  0  0  0  0
   11.7631  -15.1513   28.7177 C   0  0  0  0  0  0  0  0  0  0  0  0
   10.9998  -15.8005   27.6003 C   0  0  2  0  0  0  0  0  0  0  0  0
    9.8329  -16.5802   28.2167 C   0  0  0  0  0  0  0  0  0  0  0  0
   11.8592  -16.7187   26.7534 C   0  0  2  0  0  0  0  0  0  0  0  0
   11.1282  -17.3312   25.6924 N   0  0  0  0  0  0  0  0  0  0  0  0
   12.4852  -17.6974   27.6733 C   0  0  0  0  0  0  0  0  0  0  0  0
   12.2138  -18.9234   27.6391 O   0  0  0  0  0  0  0  0  0  0  0  0
   13.4022  -17.2758   28.6112 O   0  0  0  0  0  0  0  0  0  0  0  0
  2  1  1  0
  3  2  2  0
  4  3  1  0
  5  4  2  0
  5 11  1  0
  6  5  1  0
  6  7  1  0
  7  9  1  0
  7  8  1  1
  9 10  2  0
 11 12  2  0
 12  2  1  0
 13 14  1  0
 13  9  1  0
 14 15  1  6
 16 15  1  0
 17 16  1  0
 18 19  1  0
 18 17  1  0
 20 26  1  0
 20 14  1  0
 21 20  2  0
 23 22  1  1
 23 24  1  0
 25 26  1  6
 25 23  1  0
 27 29  1  0
 27 25  1  0
 28 27  2  0
M  END
$$$$
