YKV.pdb
     RDKit          3D

 29 29  0  0  1  0  0  0  0  0999 V2000
    8.5372  -12.9287   16.3879 O   0  0  0  0  0  0  0  0  0  0  0  0
    8.2792  -13.3163   17.6813 C   0  0  0  0  0  0  0  0  0  0  0  0
    7.1069  -12.8817   18.2593 C   0  0  0  0  0  0  0  0  0  0  0  0
    6.8217  -13.2544   19.5546 C   0  0  0  0  0  0  0  0  0  0  0  0
    7.6619  -14.0474   20.3019 C   0  0  0  0  0  0  0  0  0  0  0  0
    7.2839  -14.4059   21.6895 C   0  0  0  0  0  0  0  0  0  0  0  0
    6.9001  -15.8653   21.7956 C   0  0  2  0  0  0  0  0  0  0  0  0
    5.5616  -16.0625   21.2705 N   0  0  0  0  0  0  0  0  0  0  0  0
    6.9553  -16.3438   23.2020 C   0  0  0  0  0  0  0  0  0  0  0  0
    6.0043  -16.1076   24.0021 O   0  0  0  0  0  0  0  0  0  0  0  0
    8.8331  -14.4684   19.6926 C   0  0  0  0  0  0  0  0  0  0  0  0
    9.1350  -14.1041   18.3948 C   0  0  0  0  0  0  0  0  0  0  0  0
    8.0547  -17.0771   23.7169 N   0  0  0  0  0  0  0  0  0  0  0  0
    8.0803  -17.4969   25.1422 C   0  0  1  0  0  0  0  0  0  0  0  0
    8.1824  -18.9806   25.2341 C   0  0  0  0  0  0  0  0  0  0  0  0
    6.9498  -19.6693   24.7416 C   0  0  0  0  0  0  0  0  0  0  0  0
    7.1221  -21.1837   24.7256 C   0  0  0  0  0  0  0  0  0  0  0  0
    5.8000  -21.7608   24.2431 C   0  0  0  0  0  0  0  0  0  0  0  0
    5.8451  -23.2008   24.1638 N   0  0  0  0  0  0  0  0  0  0  0  0
    9.1730  -16.7670   25.8183 C   0  0  0  0  0  0  0  0  0  0  0  0
   10.3368  -16.7160   25.3707 O   0  0  0  0  0  0  0  0  0  0  0  0
    8.4404  -14.1279   29.2995 C   0  0  0  0  0  0  0  0  0  0  0  0
    9.5131  -14.0012   28.2574 C   0  0  2  0  0  0  0  0  0  0  0  0
    8.9602  -13.1443   27.1131 C   0  0  0  0  0  0  0  0  0  0  0  0
    9.9869  -15.3420   27.7315 C   0  0  2  0  0  0  0  0  0  0  0  0
    8.9583  -16.0602   27.0522 N   0  0  0  0  0  0  0  0  0  0  0  0
   10.5552  -16.0829   28.8823 C   0  0  0  0  0  0  0  0  0  0  0  0
   11.5296  -15.6510   29.5469 O   0  0  0  0  0  0  0  0  0  0  0  0
   10.0151  -17.2928   29.2600 O   0  0  0  0  0  0  0  0  0  0  0  0
  2  1  1  0
  3  2  2  0
  4  3  1  0
  5  4  2  0
  5 11  1  0
  6  5  1  0
  6  7  1  0
  7  9  1  0
  7  8  1  1
  9 10  2  0
 11 12  2  0
 12  2  1  0
 13 14  1  0
 13  9  1  0
 14 15  1  6
 16 15  1  0
 17 16  1  0
 18 19  1  0
 18 17  1  0
 20 26  1  0
 20 14  1  0
 21 20  2  0
 23 22  1  1
 23 24  1  0
 25 26  1  1
 25 23  1  0
 27 29  1  0
 27 25  1  0
 28 27  2  0
M  END
$$$$
