YKV.pdb
     RDKit          3D

 29 29  0  0  1  0  0  0  0  0999 V2000
    8.5903  -13.2305   15.9287 O   0  0  0  0  0  0  0  0  0  0  0  0
    8.2391  -13.4905   17.2321 C   0  0  0  0  0  0  0  0  0  0  0  0
    8.8916  -14.5162   17.8797 C   0  0  0  0  0  0  0  0  0  0  0  0
    8.5604  -14.7997   19.1866 C   0  0  0  0  0  0  0  0  0  0  0  0
    7.5999  -14.0986   19.8787 C   0  0  0  0  0  0  0  0  0  0  0  0
    7.3008  -14.4639   21.2836 C   0  0  0  0  0  0  0  0  0  0  0  0
    6.9122  -15.9211   21.4025 C   0  0  2  0  0  0  0  0  0  0  0  0
    5.6025  -16.1316   20.8137 N   0  0  0  0  0  0  0  0  0  0  0  0
    6.8950  -16.3681   22.8201 C   0  0  0  0  0  0  0  0  0  0  0  0
    5.9821  -15.9838   23.6072 O   0  0  0  0  0  0  0  0  0  0  0  0
    6.9615  -13.0729   19.2001 C   0  0  0  0  0  0  0  0  0  0  0  0
    7.2810  -12.7750   17.8896 C   0  0  0  0  0  0  0  0  0  0  0  0
    7.8807  -17.2327   23.3606 N   0  0  0  0  0  0  0  0  0  0  0  0
    7.9604  -17.4630   24.8265 C   0  0  1  0  0  0  0  0  0  0  0  0
    8.3682  -18.8700   25.0994 C   0  0  0  0  0  0  0  0  0  0  0  0
    8.6407  -19.1144   26.5493 C   0  0  0  0  0  0  0  0  0  0  0  0
    7.4134  -19.6663   27.2652 C   0  0  0  0  0  0  0  0  0  0  0  0
    7.8215  -19.8780   28.7152 C   0  0  0  0  0  0  0  0  0  0  0  0
    9.2021  -20.2825   28.8260 N   0  0  0  0  0  0  0  0  0  0  0  0
    8.8602  -16.4437   25.4053 C   0  0  0  0  0  0  0  0  0  0  0  0
   10.0157  -16.2362   24.9819 O   0  0  0  0  0  0  0  0  0  0  0  0
    7.4037  -13.3872   28.1348 C   0  0  0  0  0  0  0  0  0  0  0  0
    8.6754  -13.3230   27.3402 C   0  0  2  0  0  0  0  0  0  0  0  0
    8.3520  -12.6884   25.9829 C   0  0  0  0  0  0  0  0  0  0  0  0
    9.3208  -14.6813   27.1476 C   0  0  2  0  0  0  0  0  0  0  0  0
    8.4529  -15.6161   26.5086 N   0  0  0  0  0  0  0  0  0  0  0  0
    9.7873  -15.1327   28.4798 C   0  0  0  0  0  0  0  0  0  0  0  0
    9.3003  -16.1345   29.0604 O   0  0  0  0  0  0  0  0  0  0  0  0
   10.7906  -14.4475   29.1294 O   0  0  0  0  0  0  0  0  0  0  0  0
  2  1  1  0
  3  2  2  0
  4  3  1  0
  5  4  2  0
  5 11  1  0
  6  5  1  0
  6  7  1  0
  7  9  1  0
  7  8  1  1
  9 10  2  0
 11 12  2  0
 12  2  1  0
 13 14  1  0
 13  9  1  0
 14 15  1  6
 16 15  1  0
 17 16  1  0
 18 19  1  0
 18 17  1  0
 20 26  1  0
 20 14  1  0
 21 20  2  0
 23 22  1  1
 23 24  1  0
 25 26  1  1
 25 23  1  0
 27 29  1  0
 27 25  1  0
 28 27  2  0
M  END
$$$$
