YKV.pdb
     RDKit          3D

 29 29  0  0  1  0  0  0  0  0999 V2000
   -1.8200  -21.5221   21.5326 O   0  0  0  0  0  0  0  0  0  0  0  0
   -0.6075  -20.9623   21.8585 C   0  0  0  0  0  0  0  0  0  0  0  0
   -0.0983  -19.9994   21.0154 C   0  0  0  0  0  0  0  0  0  0  0  0
    1.1151  -19.4207   21.3165 C   0  0  0  0  0  0  0  0  0  0  0  0
    1.8464  -19.7645   22.4302 C   0  0  0  0  0  0  0  0  0  0  0  0
    3.1440  -19.0955   22.6859 C   0  0  0  0  0  0  0  0  0  0  0  0
    4.1051  -19.3012   21.5360 C   0  0  2  0  0  0  0  0  0  0  0  0
    4.4591  -20.7050   21.4345 N   0  0  0  0  0  0  0  0  0  0  0  0
    5.3398  -18.4905   21.7041 C   0  0  0  0  0  0  0  0  0  0  0  0
    6.3645  -18.9825   22.2593 O   0  0  0  0  0  0  0  0  0  0  0  0
    1.3077  -20.7360   23.2586 C   0  0  0  0  0  0  0  0  0  0  0  0
    0.0923  -21.3267   22.9718 C   0  0  0  0  0  0  0  0  0  0  0  0
    5.4376  -17.1467   21.2613 N   0  0  0  0  0  0  0  0  0  0  0  0
    6.7283  -16.4155   21.3489 C   0  0  1  0  0  0  0  0  0  0  0  0
    6.6150  -15.0983   20.6615 C   0  0  0  0  0  0  0  0  0  0  0  0
    7.8938  -14.3240   20.6969 C   0  0  0  0  0  0  0  0  0  0  0  0
    7.7898  -13.0326   19.8938 C   0  0  0  0  0  0  0  0  0  0  0  0
    9.1812  -12.4181   19.8874 C   0  0  0  0  0  0  0  0  0  0  0  0
    9.2369  -11.2351   19.0632 N   0  0  0  0  0  0  0  0  0  0  0  0
    7.1139  -16.3296   22.7729 C   0  0  0  0  0  0  0  0  0  0  0  0
    6.4001  -15.7854   23.6399 O   0  0  0  0  0  0  0  0  0  0  0  0
    7.7135  -18.3192   26.2172 C   0  0  0  0  0  0  0  0  0  0  0  0
    8.8953  -18.0572   25.3300 C   0  0  2  0  0  0  0  0  0  0  0  0
   10.1569  -18.1011   26.1995 C   0  0  0  0  0  0  0  0  0  0  0  0
    8.8033  -16.7316   24.5998 C   0  0  2  0  0  0  0  0  0  0  0  0
    8.3543  -16.8762   23.2534 N   0  0  0  0  0  0  0  0  0  0  0  0
   10.1323  -16.0846   24.7066 C   0  0  0  0  0  0  0  0  0  0  0  0
   10.8708  -15.8934   23.7086 O   0  0  0  0  0  0  0  0  0  0  0  0
   10.6012  -15.6672   25.9331 O   0  0  0  0  0  0  0  0  0  0  0  0
  2  1  1  0
  3  2  2  0
  4  3  1  0
  5  4  2  0
  5 11  1  0
  6  5  1  0
  6  7  1  0
  7  9  1  0
  7  8  1  1
  9 10  2  0
 11 12  2  0
 12  2  1  0
 13 14  1  0
 13  9  1  0
 14 15  1  1
 16 15  1  0
 17 16  1  0
 18 19  1  0
 18 17  1  0
 20 26  1  0
 20 14  1  0
 21 20  2  0
 23 22  1  1
 23 24  1  0
 25 26  1  6
 25 23  1  0
 27 29  1  0
 27 25  1  0
 28 27  2  0
M  END
$$$$
