YKV.pdb
     RDKit          3D

 29 29  0  0  1  0  0  0  0  0999 V2000
    9.4254  -12.1477   19.5946 O   0  0  0  0  0  0  0  0  0  0  0  0
    8.5429  -13.0752   20.0952 C   0  0  0  0  0  0  0  0  0  0  0  0
    8.0932  -12.9014   21.3856 C   0  0  0  0  0  0  0  0  0  0  0  0
    7.2080  -13.8152   21.9140 C   0  0  0  0  0  0  0  0  0  0  0  0
    6.7498  -14.9018   21.2050 C   0  0  0  0  0  0  0  0  0  0  0  0
    5.7971  -15.8404   21.8437 C   0  0  0  0  0  0  0  0  0  0  0  0
    6.4086  -17.2134   22.0151 C   0  0  2  0  0  0  0  0  0  0  0  0
    5.3664  -18.1875   22.2815 N   0  0  0  0  0  0  0  0  0  0  0  0
    7.4009  -17.2352   23.1218 C   0  0  0  0  0  0  0  0  0  0  0  0
    7.0241  -17.1734   24.3279 O   0  0  0  0  0  0  0  0  0  0  0  0
    7.2204  -15.0490   19.9100 C   0  0  0  0  0  0  0  0  0  0  0  0
    8.1082  -14.1423   19.3643 C   0  0  0  0  0  0  0  0  0  0  0  0
    8.7979  -17.3242   22.8939 N   0  0  0  0  0  0  0  0  0  0  0  0
    9.7432  -17.4312   24.0354 C   0  0  1  0  0  0  0  0  0  0  0  0
   11.0062  -18.0851   23.5909 C   0  0  0  0  0  0  0  0  0  0  0  0
   11.9727  -18.2832   24.7147 C   0  0  0  0  0  0  0  0  0  0  0  0
   13.2717  -18.9179   24.2318 C   0  0  0  0  0  0  0  0  0  0  0  0
   14.1529  -19.0801   25.4610 C   0  0  0  0  0  0  0  0  0  0  0  0
   15.4049  -19.7201   25.1378 N   0  0  0  0  0  0  0  0  0  0  0  0
    9.9245  -16.0826   24.6120 C   0  0  0  0  0  0  0  0  0  0  0  0
   10.5378  -15.1680   24.0250 O   0  0  0  0  0  0  0  0  0  0  0  0
    7.5348  -13.9594   27.4262 C   0  0  0  0  0  0  0  0  0  0  0  0
    8.7899  -13.5139   26.7342 C   0  0  2  0  0  0  0  0  0  0  0  0
    8.4090  -13.0339   25.3292 C   0  0  0  0  0  0  0  0  0  0  0  0
    9.8388  -14.6056   26.6527 C   0  0  2  0  0  0  0  0  0  0  0  0
    9.3969  -15.7371   25.9044 N   0  0  0  0  0  0  0  0  0  0  0  0
   10.2262  -14.9395   28.0436 C   0  0  0  0  0  0  0  0  0  0  0  0
   10.0078  -16.0674   28.5516 O   0  0  0  0  0  0  0  0  0  0  0  0
   10.8503  -13.9979   28.8322 O   0  0  0  0  0  0  0  0  0  0  0  0
  2  1  1  0
  3  2  2  0
  4  3  1  0
  5  4  2  0
  5 11  1  0
  6  5  1  0
  6  7  1  0
  7  9  1  0
  7  8  1  1
  9 10  2  0
 11 12  2  0
 12  2  1  0
 13 14  1  0
 13  9  1  0
 14 15  1  6
 16 15  1  0
 17 16  1  0
 18 19  1  0
 18 17  1  0
 20 26  1  0
 20 14  1  0
 21 20  2  0
 23 22  1  6
 23 24  1  0
 25 26  1  1
 25 23  1  0
 27 29  1  0
 27 25  1  0
 28 27  2  0
M  END
$$$$
