YKV.pdb
     RDKit          3D

 29 29  0  0  1  0  0  0  0  0999 V2000
    7.8223  -10.8548   26.8307 O   0  0  0  0  0  0  0  0  0  0  0  0
    7.5585  -12.2034   26.7930 C   0  0  0  0  0  0  0  0  0  0  0  0
    8.6299  -13.0641   26.6993 C   0  0  0  0  0  0  0  0  0  0  0  0
    8.3960  -14.4211   26.6596 C   0  0  0  0  0  0  0  0  0  0  0  0
    7.1305  -14.9590   26.7096 C   0  0  0  0  0  0  0  0  0  0  0  0
    6.9610  -16.4306   26.6624 C   0  0  0  0  0  0  0  0  0  0  0  0
    6.3036  -16.8677   25.3720 C   0  0  2  0  0  0  0  0  0  0  0  0
    5.9506  -18.2732   25.4500 N   0  0  0  0  0  0  0  0  0  0  0  0
    7.1940  -16.6453   24.2025 C   0  0  0  0  0  0  0  0  0  0  0  0
    8.1338  -17.4519   23.9441 O   0  0  0  0  0  0  0  0  0  0  0  0
    6.0737  -14.0675   26.8036 C   0  0  0  0  0  0  0  0  0  0  0  0
    6.2900  -12.7038   26.8446 C   0  0  0  0  0  0  0  0  0  0  0  0
    7.0445  -15.5390   23.3278 N   0  0  0  0  0  0  0  0  0  0  0  0
    7.9706  -15.3539   22.1805 C   0  0  1  0  0  0  0  0  0  0  0  0
    7.5795  -14.1461   21.4003 C   0  0  0  0  0  0  0  0  0  0  0  0
    8.4851  -13.9006   20.2359 C   0  0  0  0  0  0  0  0  0  0  0  0
    7.7623  -14.1078   18.9100 C   0  0  0  0  0  0  0  0  0  0  0  0
    8.7938  -13.8710   17.8175 C   0  0  0  0  0  0  0  0  0  0  0  0
    8.2316  -14.0668   16.5031 N   0  0  0  0  0  0  0  0  0  0  0  0
    9.3523  -15.3214   22.7037 C   0  0  0  0  0  0  0  0  0  0  0  0
    9.7081  -14.5783   23.6410 O   0  0  0  0  0  0  0  0  0  0  0  0
   12.0458  -18.5512   22.1228 C   0  0  0  0  0  0  0  0  0  0  0  0
   12.2585  -17.4275   23.0948 C   0  0  2  0  0  0  0  0  0  0  0  0
   11.5553  -17.7979   24.4055 C   0  0  0  0  0  0  0  0  0  0  0  0
   11.7476  -16.0962   22.5796 C   0  0  2  0  0  0  0  0  0  0  0  0
   10.3867  -16.1569   22.1559 N   0  0  0  0  0  0  0  0  0  0  0  0
   12.6746  -15.6611   21.5084 C   0  0  0  0  0  0  0  0  0  0  0  0
   12.3242  -15.5834   20.3046 O   0  0  0  0  0  0  0  0  0  0  0  0
   13.9747  -15.3233   21.8145 O   0  0  0  0  0  0  0  0  0  0  0  0
  2  1  1  0
  3  2  2  0
  4  3  1  0
  5  4  2  0
  5 11  1  0
  6  5  1  0
  6  7  1  0
  7  9  1  0
  7  8  1  1
  9 10  2  0
 11 12  2  0
 12  2  1  0
 13 14  1  0
 13  9  1  0
 14 15  1  1
 16 15  1  0
 17 16  1  0
 18 19  1  0
 18 17  1  0
 20 26  1  0
 20 14  1  0
 21 20  2  0
 23 22  1  6
 23 24  1  0
 25 26  1  6
 25 23  1  0
 27 29  1  0
 27 25  1  0
 28 27  2  0
M  END
$$$$
