YKV.pdb
     RDKit          3D

 29 29  0  0  1  0  0  0  0  0999 V2000
    9.6879  -14.7021   31.0919 O   0  0  0  0  0  0  0  0  0  0  0  0
    9.5764  -14.8745   29.7327 C   0  0  0  0  0  0  0  0  0  0  0  0
    9.9924  -16.0758   29.2023 C   0  0  0  0  0  0  0  0  0  0  0  0
    9.8925  -16.2770   27.8431 C   0  0  0  0  0  0  0  0  0  0  0  0
    9.3920  -15.3245   26.9855 C   0  0  0  0  0  0  0  0  0  0  0  0
    9.3162  -15.6170   25.5345 C   0  0  0  0  0  0  0  0  0  0  0  0
    7.8859  -15.8291   25.0900 C   0  0  2  0  0  0  0  0  0  0  0  0
    7.3653  -17.0527   25.6714 N   0  0  0  0  0  0  0  0  0  0  0  0
    7.7788  -15.9004   23.6090 C   0  0  0  0  0  0  0  0  0  0  0  0
    7.8861  -17.0076   23.0066 O   0  0  0  0  0  0  0  0  0  0  0  0
    8.9819  -14.1269   27.5493 C   0  0  0  0  0  0  0  0  0  0  0  0
    9.0749  -13.9081   28.9101 C   0  0  0  0  0  0  0  0  0  0  0  0
    7.5554  -14.7549   22.8032 N   0  0  0  0  0  0  0  0  0  0  0  0
    7.9270  -14.7606   21.3644 C   0  0  1  0  0  0  0  0  0  0  0  0
    7.7410  -13.4004   20.7851 C   0  0  0  0  0  0  0  0  0  0  0  0
    8.3965  -13.2543   19.4490 C   0  0  0  0  0  0  0  0  0  0  0  0
    7.5296  -13.8267   18.3336 C   0  0  0  0  0  0  0  0  0  0  0  0
    8.2752  -13.5654   17.0337 C   0  0  0  0  0  0  0  0  0  0  0  0
    7.5654  -14.0989   15.8964 N   0  0  0  0  0  0  0  0  0  0  0  0
    9.3007  -15.2920   21.2449 C   0  0  0  0  0  0  0  0  0  0  0  0
   10.2681  -14.8278   21.8821 O   0  0  0  0  0  0  0  0  0  0  0  0
    9.9400  -19.0191   19.2256 C   0  0  0  0  0  0  0  0  0  0  0  0
   10.9263  -18.4527   20.2049 C   0  0  2  0  0  0  0  0  0  0  0  0
   10.5921  -19.0165   21.5905 C   0  0  0  0  0  0  0  0  0  0  0  0
   10.9229  -16.9369   20.2369 C   0  0  2  0  0  0  0  0  0  0  0  0
    9.6110  -16.3934   20.3738 N   0  0  0  0  0  0  0  0  0  0  0  0
   11.6222  -16.4758   19.0143 C   0  0  0  0  0  0  0  0  0  0  0  0
   11.0250  -15.8914   18.0764 O   0  0  0  0  0  0  0  0  0  0  0  0
   12.9771  -16.6821   18.8738 O   0  0  0  0  0  0  0  0  0  0  0  0
  2  1  1  0
  3  2  2  0
  4  3  1  0
  5  4  2  0
  5 11  1  0
  6  5  1  0
  6  7  1  0
  7  9  1  0
  7  8  1  1
  9 10  2  0
 11 12  2  0
 12  2  1  0
 13 14  1  0
 13  9  1  0
 14 15  1  1
 16 15  1  0
 17 16  1  0
 18 19  1  0
 18 17  1  0
 20 26  1  0
 20 14  1  0
 21 20  2  0
 23 22  1  6
 23 24  1  0
 25 26  1  6
 25 23  1  0
 27 29  1  0
 27 25  1  0
 28 27  2  0
M  END
$$$$
