YKV.pdb
     RDKit          3D

 29 29  0  0  1  0  0  0  0  0999 V2000
    7.8252  -12.5350   16.6343 O   0  0  0  0  0  0  0  0  0  0  0  0
    7.9205  -13.0896   17.8885 C   0  0  0  0  0  0  0  0  0  0  0  0
    6.9605  -12.7483   18.8154 C   0  0  0  0  0  0  0  0  0  0  0  0
    7.0305  -13.2887   20.0807 C   0  0  0  0  0  0  0  0  0  0  0  0
    8.0241  -14.1607   20.4625 C   0  0  0  0  0  0  0  0  0  0  0  0
    8.0304  -14.7001   21.8429 C   0  0  0  0  0  0  0  0  0  0  0  0
    8.3564  -16.1773   21.8550 C   0  0  2  0  0  0  0  0  0  0  0  0
    7.2419  -16.9326   21.3132 N   0  0  0  0  0  0  0  0  0  0  0  0
    8.6593  -16.6587   23.2285 C   0  0  0  0  0  0  0  0  0  0  0  0
    7.7691  -16.6481   24.1272 O   0  0  0  0  0  0  0  0  0  0  0  0
    8.9748  -14.4846   19.5078 C   0  0  0  0  0  0  0  0  0  0  0  0
    8.9199  -13.9520   18.2344 C   0  0  0  0  0  0  0  0  0  0  0  0
    9.9373  -17.1471   23.6024 N   0  0  0  0  0  0  0  0  0  0  0  0
   10.1646  -17.7022   24.9620 C   0  0  1  0  0  0  0  0  0  0  0  0
   11.0251  -18.9158   24.8791 C   0  0  0  0  0  0  0  0  0  0  0  0
   10.3445  -20.0519   24.1846 C   0  0  0  0  0  0  0  0  0  0  0  0
   11.2200  -21.2994   24.1599 C   0  0  0  0  0  0  0  0  0  0  0  0
   10.4676  -22.3354   23.3388 C   0  0  0  0  0  0  0  0  0  0  0  0
   11.2310  -23.5502   23.1858 N   0  0  0  0  0  0  0  0  0  0  0  0
   10.7091  -16.6251   25.8147 C   0  0  0  0  0  0  0  0  0  0  0  0
   11.7657  -16.0159   25.5504 O   0  0  0  0  0  0  0  0  0  0  0  0
    8.4068  -14.4687   28.7832 C   0  0  0  0  0  0  0  0  0  0  0  0
    9.7594  -14.1050   28.2440 C   0  0  2  0  0  0  0  0  0  0  0  0
    9.5528  -13.2911   26.9617 C   0  0  0  0  0  0  0  0  0  0  0  0
   10.6297  -15.3151   27.9667 C   0  0  2  0  0  0  0  0  0  0  0  0
   10.0444  -16.2071   27.0195 N   0  0  0  0  0  0  0  0  0  0  0  0
   10.9134  -15.9539   29.2735 C   0  0  0  0  0  0  0  0  0  0  0  0
   10.4853  -17.0964   29.5721 O   0  0  0  0  0  0  0  0  0  0  0  0
   11.6719  -15.2937   30.2152 O   0  0  0  0  0  0  0  0  0  0  0  0
  2  1  1  0
  3  2  2  0
  4  3  1  0
  5  4  2  0
  5 11  1  0
  6  5  1  0
  6  7  1  0
  7  9  1  0
  7  8  1  1
  9 10  2  0
 11 12  2  0
 12  2  1  0
 13 14  1  0
 13  9  1  0
 14 15  1  6
 16 15  1  0
 17 16  1  0
 18 19  1  0
 18 17  1  0
 20 26  1  0
 20 14  1  0
 21 20  2  0
 23 22  1  6
 23 24  1  0
 25 26  1  6
 25 23  1  0
 27 29  1  0
 27 25  1  0
 28 27  2  0
M  END
$$$$
