YKV.pdb
     RDKit          3D

 29 29  0  0  1  0  0  0  0  0999 V2000
    4.8055   -9.6870   26.1427 O   0  0  0  0  0  0  0  0  0  0  0  0
    5.4392  -10.9064   26.1097 C   0  0  0  0  0  0  0  0  0  0  0  0
    6.5414  -11.0346   25.2936 C   0  0  0  0  0  0  0  0  0  0  0  0
    7.1967  -12.2452   25.2402 C   0  0  0  0  0  0  0  0  0  0  0  0
    6.7963  -13.3400   25.9712 C   0  0  0  0  0  0  0  0  0  0  0  0
    7.5547  -14.6085   25.8599 C   0  0  0  0  0  0  0  0  0  0  0  0
    7.1357  -15.3946   24.6373 C   0  0  2  0  0  0  0  0  0  0  0  0
    5.8010  -15.9310   24.8297 N   0  0  0  0  0  0  0  0  0  0  0  0
    8.0798  -16.5072   24.3531 C   0  0  0  0  0  0  0  0  0  0  0  0
    8.0178  -17.5891   25.0058 O   0  0  0  0  0  0  0  0  0  0  0  0
    5.6845  -13.1794   26.7826 C   0  0  0  0  0  0  0  0  0  0  0  0
    5.0153  -11.9727   26.8482 C   0  0  0  0  0  0  0  0  0  0  0  0
    9.0836  -16.4212   23.3550 N   0  0  0  0  0  0  0  0  0  0  0  0
   10.3296  -17.2233   23.4670 C   0  0  1  0  0  0  0  0  0  0  0  0
   11.0942  -17.1572   22.1898 C   0  0  0  0  0  0  0  0  0  0  0  0
   10.6832  -18.2210   21.2226 C   0  0  0  0  0  0  0  0  0  0  0  0
   11.3476  -18.0307   19.8640 C   0  0  0  0  0  0  0  0  0  0  0  0
   10.8164  -19.1389   18.9676 C   0  0  0  0  0  0  0  0  0  0  0  0
   11.2753  -18.9896   17.6078 N   0  0  0  0  0  0  0  0  0  0  0  0
   11.0772  -16.7510   24.6510 C   0  0  0  0  0  0  0  0  0  0  0  0
   11.8622  -15.7814   24.6183 O   0  0  0  0  0  0  0  0  0  0  0  0
   10.2508  -14.9369   27.5653 C   0  0  0  0  0  0  0  0  0  0  0  0
   10.7722  -16.2428   28.0899 C   0  0  2  0  0  0  0  0  0  0  0  0
   11.5464  -15.9570   29.3817 C   0  0  0  0  0  0  0  0  0  0  0  0
   11.6560  -16.9687   27.0945 C   0  0  2  0  0  0  0  0  0  0  0  0
   10.9436  -17.3898   25.9324 N   0  0  0  0  0  0  0  0  0  0  0  0
   12.3010  -18.0870   27.8222 C   0  0  0  0  0  0  0  0  0  0  0  0
   12.0133  -19.2896   27.6011 O   0  0  0  0  0  0  0  0  0  0  0  0
   13.2548  -17.8282   28.7821 O   0  0  0  0  0  0  0  0  0  0  0  0
  2  1  1  0
  3  2  2  0
  4  3  1  0
  5  4  2  0
  5 11  1  0
  6  5  1  0
  6  7  1  0
  7  9  1  0
  7  8  1  1
  9 10  2  0
 11 12  2  0
 12  2  1  0
 13 14  1  0
 13  9  1  0
 14 15  1  6
 16 15  1  0
 17 16  1  0
 18 19  1  0
 18 17  1  0
 20 26  1  0
 20 14  1  0
 21 20  2  0
 23 22  1  6
 23 24  1  0
 25 26  1  6
 25 23  1  0
 27 29  1  0
 27 25  1  0
 28 27  2  0
M  END
$$$$
