TMT.pdb
     RDKit          3D

 23 22  0  0  1  0  0  0  0  0999 V2000
   20.9867   -9.6803  -19.2105 C   0  0  0  0  0  0  0  0  0  0  0  0
   20.2444  -10.8571  -18.6145 C   0  0  1  0  0  0  0  0  0  0  0  0
   19.6313  -11.5474  -19.6596 O   0  0  0  0  0  0  0  0  0  0  0  0
   21.2088  -11.7584  -17.8764 C   0  0  2  0  0  0  0  0  0  0  0  0
   20.5668  -12.9590  -17.4022 N   0  0  0  0  0  0  0  0  0  0  0  0
   21.9503  -11.0348  -16.8212 C   0  0  0  0  0  0  0  0  0  0  0  0
   21.4041  -10.8466  -15.7279 O   0  0  0  0  0  0  0  0  0  0  0  0
   27.9916  -13.1678  -14.8741 C   0  0  0  0  0  0  0  0  0  0  0  0
   27.6834  -11.4694  -15.4852 S   0  0  0  0  0  0  0  0  0  0  0  0
   25.9077  -11.2532  -15.5218 C   0  0  0  0  0  0  0  0  0  0  0  0
   25.4106   -9.9215  -15.8972 C   0  0  0  0  0  0  0  0  0  0  0  0
   23.9502   -9.7193  -16.0305 C   0  0  2  0  0  0  0  0  0  0  0  0
   23.2863  -10.5378  -17.0125 N   0  0  0  0  0  0  0  0  0  0  0  0
   23.6020   -8.2869  -16.2743 C   0  0  0  0  0  0  0  0  0  0  0  0
   23.9011   -7.6983  -17.3439 O   0  0  0  0  0  0  0  0  0  0  0  0
   20.1628   -6.9430  -15.4228 C   0  0  0  0  0  0  0  0  0  0  0  0
   21.1768   -6.1190  -16.1813 C   0  0  1  0  0  0  0  0  0  0  0  0
   20.7271   -4.8290  -16.3527 O   0  0  0  0  0  0  0  0  0  0  0  0
   22.5309   -6.1378  -15.5044 C   0  0  2  0  0  0  0  0  0  0  0  0
   22.9126   -7.5333  -15.2927 N   0  0  0  0  0  0  0  0  0  0  0  0
   22.4238   -5.5244  -14.1541 C   0  0  0  0  0  0  0  0  0  0  0  0
   22.2044   -4.1681  -13.9504 O   0  0  0  0  0  0  0  0  0  0  0  0
   22.5335   -6.2457  -13.1285 O   0  0  0  0  0  0  0  0  0  0  0  0
  2  1  1  6
  3  2  1  0
  4  2  1  0
  4  6  1  0
  4  5  1  1
  6  7  2  0
  9  8  1  0
  9 10  1  0
 10 11  1  0
 12 11  1  6
 13 12  1  0
 13  6  1  0
 14 12  1  0
 14 15  2  0
 17 16  1  1
 17 19  1  0
 18 17  1  0
 19 20  1  1
 19 21  1  0
 20 14  1  0
 21 22  1  0
 23 21  2  0
M  END
$$$$
