TMT.pdb
     RDKit          3D

 23 22  0  0  1  0  0  0  0  0999 V2000
   20.3037  -12.1779  -19.7437 C   0  0  0  0  0  0  0  0  0  0  0  0
   20.7609  -11.3155  -18.5870 C   0  0  1  0  0  0  0  0  0  0  0  0
   19.6260  -10.8989  -17.8918 O   0  0  0  0  0  0  0  0  0  0  0  0
   21.6779  -12.1066  -17.6812 C   0  0  2  0  0  0  0  0  0  0  0  0
   21.0421  -13.3008  -17.1830 N   0  0  0  0  0  0  0  0  0  0  0  0
   22.2662  -11.2678  -16.6149 C   0  0  0  0  0  0  0  0  0  0  0  0
   21.7940  -11.3323  -15.4739 O   0  0  0  0  0  0  0  0  0  0  0  0
   28.1579  -12.7549  -14.7848 C   0  0  0  0  0  0  0  0  0  0  0  0
   27.7389  -11.0345  -15.2512 S   0  0  0  0  0  0  0  0  0  0  0  0
   25.9550  -10.9555  -15.3656 C   0  0  0  0  0  0  0  0  0  0  0  0
   25.3640   -9.6272  -15.5841 C   0  0  0  0  0  0  0  0  0  0  0  0
   23.9051   -9.5274  -15.8147 C   0  0  2  0  0  0  0  0  0  0  0  0
   23.3697  -10.3755  -16.8487 N   0  0  0  0  0  0  0  0  0  0  0  0
   23.4718   -8.1198  -16.0661 C   0  0  0  0  0  0  0  0  0  0  0  0
   23.8217   -7.4853  -17.0932 O   0  0  0  0  0  0  0  0  0  0  0  0
   20.4663   -6.6794  -17.0798 C   0  0  0  0  0  0  0  0  0  0  0  0
   20.7045   -6.1203  -15.6966 C   0  0  1  0  0  0  0  0  0  0  0  0
   20.0044   -6.8381  -14.7530 O   0  0  0  0  0  0  0  0  0  0  0  0
   22.1798   -6.0727  -15.3596 C   0  0  2  0  0  0  0  0  0  0  0  0
   22.6393   -7.4434  -15.1407 N   0  0  0  0  0  0  0  0  0  0  0  0
   22.3761   -5.3555  -14.0720 C   0  0  0  0  0  0  0  0  0  0  0  0
   22.1379   -3.9962  -13.9149 O   0  0  0  0  0  0  0  0  0  0  0  0
   22.7768   -5.9861  -13.0591 O   0  0  0  0  0  0  0  0  0  0  0  0
  2  1  1  6
  3  2  1  0
  4  2  1  0
  4  6  1  0
  4  5  1  1
  6  7  2  0
  9  8  1  0
  9 10  1  0
 10 11  1  0
 12 11  1  6
 13 12  1  0
 13  6  1  0
 14 12  1  0
 14 15  2  0
 17 16  1  6
 17 19  1  0
 18 17  1  0
 19 20  1  1
 19 21  1  0
 20 14  1  0
 21 22  1  0
 23 21  2  0
M  END
$$$$
