TMT.pdb
     RDKit          3D

 23 22  0  0  1  0  0  0  0  0999 V2000
   25.5442   -7.7670  -18.8427 C   0  0  0  0  0  0  0  0  0  0  0  0
   25.0750   -9.0576  -19.4793 C   0  0  1  0  0  0  0  0  0  0  0  0
   26.1296   -9.5671  -20.2363 O   0  0  0  0  0  0  0  0  0  0  0  0
   24.6643  -10.0442  -18.4092 C   0  0  2  0  0  0  0  0  0  0  0  0
   24.3796  -11.3461  -18.9591 N   0  0  0  0  0  0  0  0  0  0  0  0
   23.5774   -9.5186  -17.5552 C   0  0  0  0  0  0  0  0  0  0  0  0
   22.4101   -9.6001  -17.9546 O   0  0  0  0  0  0  0  0  0  0  0  0
   22.2257  -10.6733  -11.7164 C   0  0  0  0  0  0  0  0  0  0  0  0
   21.2027   -9.1547  -11.7266 S   0  0  0  0  0  0  0  0  0  0  0  0
   21.4475   -8.3838  -13.3226 C   0  0  0  0  0  0  0  0  0  0  0  0
   22.5120   -8.9405  -14.1702 C   0  0  0  0  0  0  0  0  0  0  0  0
   22.7668   -8.3209  -15.4904 C   0  0  2  0  0  0  0  0  0  0  0  0
   23.8208   -8.9135  -16.2733 N   0  0  0  0  0  0  0  0  0  0  0  0
   23.0077   -6.8502  -15.3827 C   0  0  0  0  0  0  0  0  0  0  0  0
   24.0970   -6.3791  -14.9690 O   0  0  0  0  0  0  0  0  0  0  0  0
   23.0109   -4.2456  -18.0204 C   0  0  0  0  0  0  0  0  0  0  0  0
   21.9278   -3.8854  -17.0306 C   0  0  1  0  0  0  0  0  0  0  0  0
   20.6914   -4.2695  -17.4991 O   0  0  0  0  0  0  0  0  0  0  0  0
   22.2000   -4.4780  -15.6643 C   0  0  2  0  0  0  0  0  0  0  0  0
   22.0003   -5.9240  -15.7493 N   0  0  0  0  0  0  0  0  0  0  0  0
   21.1952   -3.9740  -14.6910 C   0  0  0  0  0  0  0  0  0  0  0  0
   21.1712   -2.6628  -14.2333 O   0  0  0  0  0  0  0  0  0  0  0  0
   20.3122   -4.7515  -14.2438 O   0  0  0  0  0  0  0  0  0  0  0  0
  2  1  1  1
  3  2  1  0
  4  2  1  0
  4  6  1  0
  4  5  1  6
  6  7  2  0
  9  8  1  0
  9 10  1  0
 10 11  1  0
 12 11  1  1
 13 12  1  0
 13  6  1  0
 14 12  1  0
 14 15  2  0
 17 16  1  6
 17 19  1  0
 18 17  1  0
 19 20  1  6
 19 21  1  0
 20 14  1  0
 21 22  1  0
 23 21  2  0
M  END
$$$$
