TMT.pdb
     RDKit          3D

 23 22  0  0  1  0  0  0  0  0999 V2000
   20.8216  -10.8519  -19.9123 C   0  0  0  0  0  0  0  0  0  0  0  0
   20.4459  -12.2253  -19.3988 C   0  0  1  0  0  0  0  0  0  0  0  0
   20.0253  -12.9871  -20.4885 O   0  0  0  0  0  0  0  0  0  0  0  0
   21.6370  -12.8714  -18.7272 C   0  0  2  0  0  0  0  0  0  0  0  0
   21.3786  -14.2471  -18.3821 N   0  0  0  0  0  0  0  0  0  0  0  0
   22.1399  -12.0675  -17.5925 C   0  0  0  0  0  0  0  0  0  0  0  0
   21.5210  -12.0899  -16.5224 O   0  0  0  0  0  0  0  0  0  0  0  0
   28.0771  -13.2759  -14.9433 C   0  0  0  0  0  0  0  0  0  0  0  0
   27.6097  -11.6270  -15.5879 S   0  0  0  0  0  0  0  0  0  0  0  0
   25.8409  -11.6647  -15.8548 C   0  0  0  0  0  0  0  0  0  0  0  0
   25.2144  -10.4172  -16.3164 C   0  0  0  0  0  0  0  0  0  0  0  0
   23.7609  -10.4131  -16.5970 C   0  0  2  0  0  0  0  0  0  0  0  0
   23.3244  -11.2563  -17.6803 N   0  0  0  0  0  0  0  0  0  0  0  0
   23.2350   -9.0313  -16.8126 C   0  0  0  0  0  0  0  0  0  0  0  0
   23.7439   -8.2450  -17.6509 O   0  0  0  0  0  0  0  0  0  0  0  0
   20.2427   -7.9859  -18.2939 C   0  0  0  0  0  0  0  0  0  0  0  0
   20.1680   -7.4239  -16.8935 C   0  0  1  0  0  0  0  0  0  0  0  0
   19.3844   -8.2205  -16.0893 O   0  0  0  0  0  0  0  0  0  0  0  0
   21.5451   -7.2329  -16.2940 C   0  0  2  0  0  0  0  0  0  0  0  0
   22.1283   -8.5546  -16.0678 N   0  0  0  0  0  0  0  0  0  0  0  0
   21.4244   -6.5950  -14.9563 C   0  0  0  0  0  0  0  0  0  0  0  0
   21.6607   -7.2722  -13.7669 O   0  0  0  0  0  0  0  0  0  0  0  0
   21.0937   -5.3837  -14.8681 O   0  0  0  0  0  0  0  0  0  0  0  0
  2  1  1  6
  3  2  1  0
  4  2  1  0
  4  6  1  0
  4  5  1  1
  6  7  2  0
  9  8  1  0
  9 10  1  0
 10 11  1  0
 12 11  1  6
 13 12  1  0
 13  6  1  0
 14 12  1  0
 14 15  2  0
 17 16  1  6
 17 19  1  0
 18 17  1  0
 19 20  1  1
 19 21  1  0
 20 14  1  0
 21 22  1  0
 23 21  2  0
M  END
$$$$
