TMT.pdb
     RDKit          3D

 23 22  0  0  1  0  0  0  0  0999 V2000
   21.5072   -6.9194  -21.1922 C   0  0  0  0  0  0  0  0  0  0  0  0
   21.0429   -8.3112  -21.5645 C   0  0  1  0  0  0  0  0  0  0  0  0
   21.6488   -8.6532  -22.7731 O   0  0  0  0  0  0  0  0  0  0  0  0
   21.4279   -9.2933  -20.4808 C   0  0  2  0  0  0  0  0  0  0  0  0
   21.1400  -10.6537  -20.8613 N   0  0  0  0  0  0  0  0  0  0  0  0
   20.8630   -8.9209  -19.1659 C   0  0  0  0  0  0  0  0  0  0  0  0
   19.7168   -9.2874  -18.8815 O   0  0  0  0  0  0  0  0  0  0  0  0
   22.3215  -10.1402  -13.4438 C   0  0  0  0  0  0  0  0  0  0  0  0
   21.7389   -8.4734  -12.9585 S   0  0  0  0  0  0  0  0  0  0  0  0
   21.0728   -7.7143  -14.4355 C   0  0  0  0  0  0  0  0  0  0  0  0
   21.5986   -8.1952  -15.7216 C   0  0  0  0  0  0  0  0  0  0  0  0
   20.9934   -7.6850  -16.9726 C   0  0  2  0  0  0  0  0  0  0  0  0
   21.5929   -8.1466  -18.1983 N   0  0  0  0  0  0  0  0  0  0  0  0
   20.9259   -6.1925  -16.9950 C   0  0  0  0  0  0  0  0  0  0  0  0
   21.9585   -5.4761  -17.0084 O   0  0  0  0  0  0  0  0  0  0  0  0
   19.2460   -4.0519  -19.5924 C   0  0  0  0  0  0  0  0  0  0  0  0
   18.6208   -3.7553  -18.2493 C   0  0  1  0  0  0  0  0  0  0  0  0
   17.4301   -4.4315  -18.1055 O   0  0  0  0  0  0  0  0  0  0  0  0
   19.5670   -4.0714  -17.1105 C   0  0  2  0  0  0  0  0  0  0  0  0
   19.6761   -5.5255  -17.0020 N   0  0  0  0  0  0  0  0  0  0  0  0
   18.9816   -3.5994  -15.8278 C   0  0  0  0  0  0  0  0  0  0  0  0
   18.4502   -4.4573  -14.8734 O   0  0  0  0  0  0  0  0  0  0  0  0
   18.9531   -2.3681  -15.5683 O   0  0  0  0  0  0  0  0  0  0  0  0
  2  1  1  1
  3  2  1  0
  4  2  1  0
  4  6  1  0
  4  5  1  6
  6  7  2  0
  9  8  1  0
  9 10  1  0
 10 11  1  0
 12 11  1  1
 13 12  1  0
 13  6  1  0
 14 12  1  0
 14 15  2  0
 17 16  1  6
 17 19  1  0
 18 17  1  0
 19 20  1  1
 19 21  1  0
 20 14  1  0
 21 22  1  0
 23 21  2  0
M  END
$$$$
