TMT.pdb
     RDKit          3D

 23 22  0  0  1  0  0  0  0  0999 V2000
   28.7829  -18.9732  -16.5149 C   0  0  0  0  0  0  0  0  0  0  0  0
   27.5718  -19.4907  -15.7688 C   0  0  1  0  0  0  0  0  0  0  0  0
   26.5172  -19.5775  -16.6771 O   0  0  0  0  0  0  0  0  0  0  0  0
   27.8716  -20.8475  -15.1718 C   0  0  2  0  0  0  0  0  0  0  0  0
   28.1346  -21.8358  -16.1880 N   0  0  0  0  0  0  0  0  0  0  0  0
   26.8400  -21.2678  -14.1992 C   0  0  0  0  0  0  0  0  0  0  0  0
   25.9608  -22.0574  -14.5631 O   0  0  0  0  0  0  0  0  0  0  0  0
   26.9087  -19.9876   -7.7771 C   0  0  0  0  0  0  0  0  0  0  0  0
   25.2608  -20.7845   -7.8246 S   0  0  0  0  0  0  0  0  0  0  0  0
   24.9036  -21.1184   -9.5457 C   0  0  0  0  0  0  0  0  0  0  0  0
   25.9621  -20.8004  -10.5152 C   0  0  0  0  0  0  0  0  0  0  0  0
   25.7192  -21.0765  -11.9492 C   0  0  2  0  0  0  0  0  0  0  0  0
   26.8149  -20.7953  -12.8410 N   0  0  0  0  0  0  0  0  0  0  0  0
   24.4921  -20.3887  -12.4529 C   0  0  0  0  0  0  0  0  0  0  0  0
   24.4277  -19.1394  -12.5749 O   0  0  0  0  0  0  0  0  0  0  0  0
   22.9324  -19.9799  -15.5192 C   0  0  0  0  0  0  0  0  0  0  0  0
   21.9031  -20.7260  -14.7028 C   0  0  1  0  0  0  0  0  0  0  0  0
   21.9256  -22.0702  -15.0001 O   0  0  0  0  0  0  0  0  0  0  0  0
   22.0918  -20.4938  -13.2187 C   0  0  2  0  0  0  0  0  0  0  0  0
   23.3430  -21.1338  -12.8152 N   0  0  0  0  0  0  0  0  0  0  0  0
   21.0096  -21.1786  -12.4634 C   0  0  0  0  0  0  0  0  0  0  0  0
   21.2199  -22.3198  -11.7001 O   0  0  0  0  0  0  0  0  0  0  0  0
   19.8365  -20.7238  -12.4997 O   0  0  0  0  0  0  0  0  0  0  0  0
  2  1  1  6
  3  2  1  0
  4  2  1  0
  4  6  1  0
  4  5  1  6
  6  7  2  0
  9  8  1  0
  9 10  1  0
 10 11  1  0
 12 11  1  1
 13 12  1  0
 13  6  1  0
 14 12  1  0
 14 15  2  0
 17 16  1  6
 17 19  1  0
 18 17  1  0
 19 20  1  1
 19 21  1  0
 20 14  1  0
 21 22  1  0
 23 21  2  0
M  END
$$$$
