TMT.pdb
     RDKit          3D

 23 22  0  0  1  0  0  0  0  0999 V2000
   27.6689  -23.0720  -16.3114 C   0  0  0  0  0  0  0  0  0  0  0  0
   28.3064  -21.7637  -15.8957 C   0  0  1  0  0  0  0  0  0  0  0  0
   29.0470  -21.2882  -16.9774 O   0  0  0  0  0  0  0  0  0  0  0  0
   27.2378  -20.7675  -15.5047 C   0  0  2  0  0  0  0  0  0  0  0  0
   27.7570  -19.4247  -15.4281 N   0  0  0  0  0  0  0  0  0  0  0  0
   26.5076  -21.1834  -14.2879 C   0  0  0  0  0  0  0  0  0  0  0  0
   25.8426  -22.2254  -14.3159 O   0  0  0  0  0  0  0  0  0  0  0  0
   25.0852  -20.9292   -6.5347 C   0  0  0  0  0  0  0  0  0  0  0  0
   26.2925  -20.4369   -7.8204 S   0  0  0  0  0  0  0  0  0  0  0  0
   25.5006  -20.7181   -9.4001 C   0  0  0  0  0  0  0  0  0  0  0  0
   26.3212  -20.4987  -10.6001 C   0  0  0  0  0  0  0  0  0  0  0  0
   25.7245  -20.7669  -11.9281 C   0  0  2  0  0  0  0  0  0  0  0  0
   26.5376  -20.4241  -13.0667 N   0  0  0  0  0  0  0  0  0  0  0  0
   24.3816  -20.1295  -12.0789 C   0  0  0  0  0  0  0  0  0  0  0  0
   24.2396  -18.8852  -12.1850 O   0  0  0  0  0  0  0  0  0  0  0  0
   22.0286  -22.3134  -14.2050 C   0  0  0  0  0  0  0  0  0  0  0  0
   21.7632  -20.8359  -14.0349 C   0  0  1  0  0  0  0  0  0  0  0  0
   20.5140  -20.5066  -14.5112 O   0  0  0  0  0  0  0  0  0  0  0  0
   21.9280  -20.4009  -12.5941 C   0  0  2  0  0  0  0  0  0  0  0  0
   23.2057  -20.9192  -12.1075 N   0  0  0  0  0  0  0  0  0  0  0  0
   20.8745  -21.0331  -11.7568 C   0  0  0  0  0  0  0  0  0  0  0  0
   19.5249  -20.7259  -11.8729 O   0  0  0  0  0  0  0  0  0  0  0  0
   21.1927  -21.8916  -10.8931 O   0  0  0  0  0  0  0  0  0  0  0  0
  2  1  1  6
  3  2  1  0
  4  2  1  0
  4  6  1  0
  4  5  1  1
  6  7  2  0
  9  8  1  0
  9 10  1  0
 10 11  1  0
 12 11  1  1
 13 12  1  0
 13  6  1  0
 14 12  1  0
 14 15  2  0
 17 16  1  1
 17 19  1  0
 18 17  1  0
 19 20  1  1
 19 21  1  0
 20 14  1  0
 21 22  1  0
 23 21  2  0
M  END
$$$$
