TMT.pdb
     RDKit          3D

 23 22  0  0  1  0  0  0  0  0999 V2000
   25.6090  -34.9857   -8.5223 C   0  0  0  0  0  0  0  0  0  0  0  0
   25.7217  -33.5430   -8.9661 C   0  0  1  0  0  0  0  0  0  0  0  0
   25.8993  -33.5356  -10.3492 O   0  0  0  0  0  0  0  0  0  0  0  0
   24.4692  -32.7848   -8.5874 C   0  0  2  0  0  0  0  0  0  0  0  0
   24.4873  -31.4328   -9.0879 N   0  0  0  0  0  0  0  0  0  0  0  0
   24.1839  -32.8693   -7.1389 C   0  0  0  0  0  0  0  0  0  0  0  0
   24.6698  -32.0201   -6.3828 O   0  0  0  0  0  0  0  0  0  0  0  0
   18.0672  -32.2457   -4.1873 C   0  0  0  0  0  0  0  0  0  0  0  0
   19.0867  -33.7665   -4.1615 S   0  0  0  0  0  0  0  0  0  0  0  0
   20.7475  -33.2767   -4.6123 C   0  0  0  0  0  0  0  0  0  0  0  0
   21.7404  -34.3523   -4.7501 C   0  0  0  0  0  0  0  0  0  0  0  0
   23.1207  -33.9985   -5.1514 C   0  0  2  0  0  0  0  0  0  0  0  0
   23.3614  -33.9021   -6.5684 N   0  0  0  0  0  0  0  0  0  0  0  0
   24.1333  -34.9155   -4.5464 C   0  0  0  0  0  0  0  0  0  0  0  0
   24.1193  -36.1557   -4.7503 O   0  0  0  0  0  0  0  0  0  0  0  0
   27.8359  -34.5458   -4.9922 C   0  0  0  0  0  0  0  0  0  0  0  0
   27.5538  -34.5688   -3.5082 C   0  0  1  0  0  0  0  0  0  0  0  0
   27.5832  -33.2950   -2.9862 O   0  0  0  0  0  0  0  0  0  0  0  0
   26.2387  -35.2527   -3.2000 C   0  0  2  0  0  0  0  0  0  0  0  0
   25.1586  -34.4093   -3.7100 N   0  0  0  0  0  0  0  0  0  0  0  0
   26.0482  -35.3307   -1.7274 C   0  0  0  0  0  0  0  0  0  0  0  0
   26.8205  -36.1383   -0.9026 O   0  0  0  0  0  0  0  0  0  0  0  0
   25.1509  -34.6422   -1.1750 O   0  0  0  0  0  0  0  0  0  0  0  0
  2  1  1  6
  3  2  1  0
  4  2  1  0
  4  6  1  0
  4  5  1  1
  6  7  2  0
  9  8  1  0
  9 10  1  0
 10 11  1  0
 12 11  1  6
 13 12  1  0
 13  6  1  0
 14 12  1  0
 14 15  2  0
 17 16  1  6
 17 19  1  0
 18 17  1  0
 19 20  1  6
 19 21  1  0
 20 14  1  0
 21 22  1  0
 23 21  2  0
M  END
$$$$
