TMT.pdb
     RDKit          3D

 23 22  0  0  1  0  0  0  0  0999 V2000
   20.8909  -23.1912  -10.0955 C   0  0  0  0  0  0  0  0  0  0  0  0
   20.3576  -22.5531   -8.8308 C   0  0  1  0  0  0  0  0  0  0  0  0
   19.5608  -23.4956   -8.1816 O   0  0  0  0  0  0  0  0  0  0  0  0
   21.5044  -22.1250   -7.9427 C   0  0  2  0  0  0  0  0  0  0  0  0
   21.0431  -21.6364   -6.6672 N   0  0  0  0  0  0  0  0  0  0  0  0
   22.4224  -21.1916   -8.6302 C   0  0  0  0  0  0  0  0  0  0  0  0
   21.9931  -20.0916   -8.9971 O   0  0  0  0  0  0  0  0  0  0  0  0
   28.1344  -18.8984   -5.8990 C   0  0  0  0  0  0  0  0  0  0  0  0
   28.0568  -19.9184   -7.4176 S   0  0  0  0  0  0  0  0  0  0  0  0
   26.3760  -19.8099   -8.0214 C   0  0  0  0  0  0  0  0  0  0  0  0
   26.0622  -20.5627   -9.2447 C   0  0  0  0  0  0  0  0  0  0  0  0
   24.6504  -20.6546   -9.6804 C   0  0  2  0  0  0  0  0  0  0  0  0
   23.8004  -21.5096   -8.8921 N   0  0  0  0  0  0  0  0  0  0  0  0
   24.5312  -21.0414  -11.1187 C   0  0  0  0  0  0  0  0  0  0  0  0
   24.8282  -22.1917  -11.5291 O   0  0  0  0  0  0  0  0  0  0  0  0
   21.5435  -21.2817  -13.3499 C   0  0  0  0  0  0  0  0  0  0  0  0
   22.4615  -20.2009  -13.8710 C   0  0  1  0  0  0  0  0  0  0  0  0
   22.0518  -18.9608  -13.4352 O   0  0  0  0  0  0  0  0  0  0  0  0
   23.9037  -20.4618  -13.4913 C   0  0  2  0  0  0  0  0  0  0  0  0
   24.0724  -20.1097  -12.0822 N   0  0  0  0  0  0  0  0  0  0  0  0
   24.7956  -19.5527  -14.2588 C   0  0  0  0  0  0  0  0  0  0  0  0
   24.9772  -19.6472  -15.6326 O   0  0  0  0  0  0  0  0  0  0  0  0
   25.4288  -18.6446  -13.6600 O   0  0  0  0  0  0  0  0  0  0  0  0
  2  1  1  6
  3  2  1  0
  4  2  1  0
  4  6  1  0
  4  5  1  1
  6  7  2  0
  9  8  1  0
  9 10  1  0
 10 11  1  0
 12 11  1  1
 13 12  1  0
 13  6  1  0
 14 12  1  0
 14 15  2  0
 17 16  1  1
 17 19  1  0
 18 17  1  0
 19 20  1  1
 19 21  1  0
 20 14  1  0
 21 22  1  0
 23 21  2  0
M  END
$$$$
