RME.pdb
     RDKit          3D

 29 28  0  0  1  0  0  0  0  0999 V2000
   19.9904  -27.0222   -9.9795 N   0  0  0  0  0  0  0  0  0  0  0  0
   19.0278  -26.1311  -10.5244 C   0  0  0  0  0  0  0  0  0  0  0  0
   18.6087  -26.3556  -11.7074 N   0  0  0  0  0  0  0  0  0  0  0  0
   18.5177  -25.0212   -9.8253 N   0  0  0  0  0  0  0  0  0  0  0  0
   18.9837  -24.7216   -8.5125 C   0  0  0  0  0  0  0  0  0  0  0  0
   17.9840  -25.3492   -7.5314 C   0  0  0  0  0  0  0  0  0  0  0  0
   18.3113  -24.9968   -6.1195 C   0  0  0  0  0  0  0  0  0  0  0  0
   17.2900  -25.4732   -5.1457 C   0  0  2  0  0  0  0  0  0  0  0  0
   17.3232  -26.9385   -5.0578 N   0  0  0  0  0  0  0  0  0  0  0  0
   15.9037  -25.0174   -5.4239 C   0  0  0  0  0  0  0  0  0  0  0  0
   15.0743  -25.8032   -5.8981 O   0  0  0  0  0  0  0  0  0  0  0  0
   17.9384  -25.8513  -12.2776 C   0  0  0  0  0  0  0  0  0  0  0  0
   12.5860  -22.7310   -0.1422 S   0  0  0  0  0  0  0  0  0  0  0  0
   12.9289  -21.8523   -1.7098 C   0  0  0  0  0  0  0  0  0  0  0  0
   13.5052  -23.0638   -2.9612 C   0  0  0  0  0  0  0  0  0  0  0  0
   13.6446  -22.2989   -4.2555 C   0  0  2  0  0  0  0  0  0  0  0  0
   14.1779  -23.1542   -5.3791 N   0  0  0  0  0  0  0  0  0  0  0  0
   15.4963  -23.6606   -5.1505 C   0  0  0  0  0  0  0  0  0  0  0  0
   14.1576  -22.4112   -6.6618 O   0  0  0  0  0  0  0  0  0  0  0  0
   15.0888  -21.6458   -6.9704 N   0  0  0  0  0  0  0  0  0  0  0  0
   13.0732  -22.5816   -7.5280 C   0  0  2  0  0  0  0  0  0  0  0  0
   12.8830  -21.8317   -8.7601 C   0  0  0  0  0  0  0  0  0  0  0  0
   11.7134  -22.4512   -9.4541 C   0  0  0  0  0  0  0  0  0  0  0  0
   11.2717  -21.7728  -10.7064 C   0  0  0  0  0  0  0  0  0  0  0  0
    9.8746  -22.1888  -11.0421 O   0  0  0  0  0  0  0  0  0  0  0  0
    8.8552  -21.7068  -10.4973 C   0  0  0  0  0  0  0  0  0  0  0  0
   12.6936  -20.4078   -8.3949 O   0  0  0  0  0  0  0  0  0  0  0  0
   11.9372  -20.0935   -7.4443 O   0  0  0  0  0  0  0  0  0  0  0  0
    9.7055  -23.1624  -12.0115 O   0  0  0  0  0  0  0  0  0  0  0  0
  2  3  2  0
  2  1  1  0
  4  2  1  0
  5  4  1  0
  6  5  1  0
  7  6  1  0
  8  7  1  0
  8  9  1  6
 10  8  1  0
 10 17  1  0
 11 10  2  0
 12 13  1  0
 13 14  1  0
 16 15  1  1
 15 14  1  0
 16 17  1  0
 18 16  1  0
 19 18  2  0
 20 18  1  0
 21 20  1  0
 21 26  1  0
 21 22  1  1
 23 22  1  0
 24 25  2  0
 24 23  1  0
 26 29  1  0
 27 26  2  0
 28 24  1  0
M  END
$$$$
