RME.pdb
     RDKit          3D

 29 28  0  0  1  0  0  0  0  0999 V2000
   26.7812  -20.7352   -8.1736 N   0  0  0  0  0  0  0  0  0  0  0  0
   25.3776  -20.8333   -8.3686 C   0  0  0  0  0  0  0  0  0  0  0  0
   24.6571  -21.1569   -7.3678 N   0  0  0  0  0  0  0  0  0  0  0  0
   24.7492  -20.5909   -9.6044 N   0  0  0  0  0  0  0  0  0  0  0  0
   24.9791  -21.4588  -10.7109 C   0  0  0  0  0  0  0  0  0  0  0  0
   26.4605  -21.3176  -11.0869 C   0  0  0  0  0  0  0  0  0  0  0  0
   26.6687  -20.2272  -12.0831 C   0  0  0  0  0  0  0  0  0  0  0  0
   25.7337  -20.3052  -13.2398 C   0  0  2  0  0  0  0  0  0  0  0  0
   26.3516  -21.0611  -14.3365 N   0  0  0  0  0  0  0  0  0  0  0  0
   25.2534  -18.9922  -13.7422 C   0  0  0  0  0  0  0  0  0  0  0  0
   24.6024  -18.2442  -13.0028 O   0  0  0  0  0  0  0  0  0  0  0  0
   23.6497  -21.2316   -7.2756 C   0  0  0  0  0  0  0  0  0  0  0  0
   27.7582  -13.6067  -15.8280 S   0  0  0  0  0  0  0  0  0  0  0  0
   26.8892  -14.1474  -17.3444 C   0  0  0  0  0  0  0  0  0  0  0  0
   25.4690  -15.2092  -16.8740 C   0  0  0  0  0  0  0  0  0  0  0  0
   26.0595  -16.4528  -16.2540 C   0  0  1  0  0  0  0  0  0  0  0  0
   25.0067  -17.3705  -15.6815 N   0  0  0  0  0  0  0  0  0  0  0  0
   25.5321  -18.5632  -15.0912 C   0  0  0  0  0  0  0  0  0  0  0  0
   24.0096  -17.7377  -16.7154 O   0  0  0  0  0  0  0  0  0  0  0  0
   24.2543  -18.6275  -17.5500 N   0  0  0  0  0  0  0  0  0  0  0  0
   22.7819  -17.0690  -16.7423 C   0  0  1  0  0  0  0  0  0  0  0  0
   21.5088  -17.7053  -17.0439 C   0  0  0  0  0  0  0  0  0  0  0  0
   21.3204  -18.7772  -16.0197 C   0  0  0  0  0  0  0  0  0  0  0  0
   20.2806  -18.5070  -14.9856 C   0  0  0  0  0  0  0  0  0  0  0  0
   19.5513  -19.7715  -14.6585 O   0  0  0  0  0  0  0  0  0  0  0  0
   19.8924  -20.9004  -15.0795 C   0  0  0  0  0  0  0  0  0  0  0  0
   20.4652  -16.6531  -17.0270 O   0  0  0  0  0  0  0  0  0  0  0  0
   20.6105  -15.6289  -16.3166 O   0  0  0  0  0  0  0  0  0  0  0  0
   18.4365  -19.6819  -13.8426 O   0  0  0  0  0  0  0  0  0  0  0  0
  2  3  2  0
  2  1  1  0
  4  2  1  0
  5  4  1  0
  6  5  1  0
  7  6  1  0
  8  7  1  0
  8  9  1  6
 10  8  1  0
 10 17  1  0
 11 10  2  0
 12 13  1  0
 13 14  1  0
 16 15  1  1
 15 14  1  0
 16 17  1  0
 18 16  1  0
 19 18  2  0
 20 18  1  0
 21 20  1  0
 21 26  1  0
 21 22  1  6
 23 22  1  0
 24 25  2  0
 24 23  1  0
 26 29  1  0
 27 26  2  0
 28 24  1  0
M  END
$$$$
