RME.pdb
     RDKit          3D

 29 28  0  0  1  0  0  0  0  0999 V2000
   14.4068  -21.7742   -1.1871 N   0  0  0  0  0  0  0  0  0  0  0  0
   14.7295  -21.6935    0.1939 C   0  0  0  0  0  0  0  0  0  0  0  0
   15.3170  -20.6409    0.6091 N   0  0  0  0  0  0  0  0  0  0  0  0
   14.4326  -22.7120    1.1187 N   0  0  0  0  0  0  0  0  0  0  0  0
   14.5973  -24.0809    0.7588 C   0  0  0  0  0  0  0  0  0  0  0  0
   14.1706  -24.9150    1.9745 C   0  0  0  0  0  0  0  0  0  0  0  0
   14.3198  -26.3759    1.7129 C   0  0  0  0  0  0  0  0  0  0  0  0
   15.7224  -26.7761    1.4117 C   0  0  2  0  0  0  0  0  0  0  0  0
   15.7754  -28.2013    1.0624 N   0  0  0  0  0  0  0  0  0  0  0  0
   16.6987  -26.4869    2.4933 C   0  0  0  0  0  0  0  0  0  0  0  0
   16.4340  -26.7824    3.6650 O   0  0  0  0  0  0  0  0  0  0  0  0
   15.7071  -20.4171    1.5183 C   0  0  0  0  0  0  0  0  0  0  0  0
   22.8980  -25.3682    1.3422 S   0  0  0  0  0  0  0  0  0  0  0  0
   21.8928  -23.9137    0.8718 C   0  0  0  0  0  0  0  0  0  0  0  0
   20.1868  -24.1338    1.5095 C   0  0  0  0  0  0  0  0  0  0  0  0
   20.2836  -25.1341    2.6363 C   0  0  1  0  0  0  0  0  0  0  0  0
   18.9330  -25.5057    3.1986 N   0  0  0  0  0  0  0  0  0  0  0  0
   17.9661  -25.8604    2.2054 C   0  0  0  0  0  0  0  0  0  0  0  0
   18.3910  -24.4087    4.0355 O   0  0  0  0  0  0  0  0  0  0  0  0
   17.7436  -23.4768    3.5248 N   0  0  0  0  0  0  0  0  0  0  0  0
   18.6160  -24.4328    5.4154 C   0  0  1  0  0  0  0  0  0  0  0  0
   18.1707  -23.3984    6.3363 C   0  0  0  0  0  0  0  0  0  0  0  0
   17.3256  -24.0825    7.3617 C   0  0  0  0  0  0  0  0  0  0  0  0
   16.8123  -23.2139    8.4597 C   0  0  0  0  0  0  0  0  0  0  0  0
   16.0451  -24.0405    9.4426 O   0  0  0  0  0  0  0  0  0  0  0  0
   15.9733  -25.2898    9.3949 C   0  0  0  0  0  0  0  0  0  0  0  0
   19.3772  -22.7335    6.8829 O   0  0  0  0  0  0  0  0  0  0  0  0
   20.4661  -23.3537    6.9500 O   0  0  0  0  0  0  0  0  0  0  0  0
   15.3791  -23.3807   10.4611 O   0  0  0  0  0  0  0  0  0  0  0  0
  2  3  2  0
  2  1  1  0
  4  2  1  0
  5  4  1  0
  6  5  1  0
  7  6  1  0
  8  7  1  0
  8  9  1  1
 10  8  1  0
 10 17  1  0
 11 10  2  0
 12 13  1  0
 13 14  1  0
 16 15  1  1
 15 14  1  0
 16 17  1  0
 18 16  1  0
 19 18  2  0
 20 18  1  0
 21 20  1  0
 21 26  1  0
 21 22  1  1
 23 22  1  0
 24 25  2  0
 24 23  1  0
 26 29  1  0
 27 26  2  0
 28 24  1  0
M  END
$$$$
