RME.pdb
     RDKit          3D

 29 28  0  0  1  0  0  0  0  0999 V2000
   18.7182  -25.1988  -15.7780 N   0  0  0  0  0  0  0  0  0  0  0  0
   18.2271  -24.7003  -14.5418 C   0  0  0  0  0  0  0  0  0  0  0  0
   17.2529  -25.3148  -13.9951 N   0  0  0  0  0  0  0  0  0  0  0  0
   18.7615  -23.5697  -13.8963 N   0  0  0  0  0  0  0  0  0  0  0  0
   19.8274  -22.8367  -14.4939 C   0  0  0  0  0  0  0  0  0  0  0  0
   20.2210  -21.7345  -13.5009 C   0  0  0  0  0  0  0  0  0  0  0  0
   20.8921  -22.3011  -12.2953 C   0  0  0  0  0  0  0  0  0  0  0  0
   21.1961  -21.2758  -11.2587 C   0  0  2  0  0  0  0  0  0  0  0  0
   20.0375  -20.3941  -11.0678 N   0  0  0  0  0  0  0  0  0  0  0  0
   22.4094  -20.4612  -11.5252 C   0  0  0  0  0  0  0  0  0  0  0  0
   22.3049  -19.2551  -11.7795 O   0  0  0  0  0  0  0  0  0  0  0  0
   16.7387  -25.1134  -13.1443 C   0  0  0  0  0  0  0  0  0  0  0  0
   27.7967  -20.1796   -7.1879 S   0  0  0  0  0  0  0  0  0  0  0  0
   27.8022  -20.4767   -8.9932 C   0  0  0  0  0  0  0  0  0  0  0  0
   26.0759  -20.7180   -9.5653 C   0  0  0  0  0  0  0  0  0  0  0  0
   26.1486  -20.8917  -11.0634 C   0  0  2  0  0  0  0  0  0  0  0  0
   24.9347  -20.3391  -11.7701 N   0  0  0  0  0  0  0  0  0  0  0  0
   23.7253  -21.0521  -11.4943 C   0  0  0  0  0  0  0  0  0  0  0  0
   25.1520  -20.2980  -13.2360 O   0  0  0  0  0  0  0  0  0  0  0  0
   25.0715  -21.3330  -13.9220 N   0  0  0  0  0  0  0  0  0  0  0  0
   25.4497  -19.0747  -13.8442 C   0  0  2  0  0  0  0  0  0  0  0  0
   25.5146  -18.8693  -15.2830 C   0  0  0  0  0  0  0  0  0  0  0  0
   26.7907  -19.4979  -15.7411 C   0  0  0  0  0  0  0  0  0  0  0  0
   28.0218  -18.6807  -15.5408 C   0  0  0  0  0  0  0  0  0  0  0  0
   28.8092  -18.6313  -16.8117 O   0  0  0  0  0  0  0  0  0  0  0  0
   28.4962  -19.2592  -17.8490 C   0  0  0  0  0  0  0  0  0  0  0  0
   24.2931  -19.4620  -15.8772 O   0  0  0  0  0  0  0  0  0  0  0  0
   24.1350  -20.7068  -15.8891 O   0  0  0  0  0  0  0  0  0  0  0  0
   29.9477  -17.8443  -16.8363 O   0  0  0  0  0  0  0  0  0  0  0  0
  2  3  2  0
  2  1  1  0
  4  2  1  0
  5  4  1  0
  6  5  1  0
  7  6  1  0
  8  7  1  0
  8  9  1  6
 10  8  1  0
 10 17  1  0
 11 10  2  0
 12 13  1  0
 13 14  1  0
 16 15  1  1
 15 14  1  0
 16 17  1  0
 18 16  1  0
 19 18  2  0
 20 18  1  0
 21 20  1  0
 21 26  1  0
 21 22  1  1
 23 22  1  0
 24 25  2  0
 24 23  1  0
 26 29  1  0
 27 26  2  0
 28 24  1  0
M  END
$$$$
