RME.pdb
     RDKit          3D

 29 28  0  0  1  0  0  0  0  0999 V2000
   31.0532  -24.7387  -15.4437 N   0  0  0  0  0  0  0  0  0  0  0  0
   31.3326  -24.5129  -16.8180 C   0  0  0  0  0  0  0  0  0  0  0  0
   32.3360  -25.1106  -17.3292 N   0  0  0  0  0  0  0  0  0  0  0  0
   30.5595  -23.6682  -17.6361 N   0  0  0  0  0  0  0  0  0  0  0  0
   29.9343  -22.5109  -17.0881 C   0  0  0  0  0  0  0  0  0  0  0  0
   29.3406  -22.9247  -15.7346 C   0  0  0  0  0  0  0  0  0  0  0  0
   27.8500  -22.9570  -15.7800 C   0  0  0  0  0  0  0  0  0  0  0  0
   27.2223  -21.6993  -15.2877 C   0  0  2  0  0  0  0  0  0  0  0  0
   28.2567  -20.6930  -15.0163 N   0  0  0  0  0  0  0  0  0  0  0  0
   26.3539  -21.8625  -14.0935 C   0  0  0  0  0  0  0  0  0  0  0  0
   25.4264  -22.6809  -14.1066 O   0  0  0  0  0  0  0  0  0  0  0  0
   32.6982  -25.1015  -18.2766 C   0  0  0  0  0  0  0  0  0  0  0  0
   28.2461  -20.2065   -8.3156 S   0  0  0  0  0  0  0  0  0  0  0  0
   26.4861  -20.2879   -7.8227 C   0  0  0  0  0  0  0  0  0  0  0  0
   25.4799  -20.7803   -9.2756 C   0  0  0  0  0  0  0  0  0  0  0  0
   26.3945  -20.6862  -10.4733 C   0  0  2  0  0  0  0  0  0  0  0  0
   25.7154  -21.1043  -11.7549 N   0  0  0  0  0  0  0  0  0  0  0  0
   26.5697  -21.0776  -12.9023 C   0  0  0  0  0  0  0  0  0  0  0  0
   24.5222  -20.2644  -12.0168 O   0  0  0  0  0  0  0  0  0  0  0  0
   24.6365  -19.0456  -12.2396 N   0  0  0  0  0  0  0  0  0  0  0  0
   23.2576  -20.8611  -12.0117 C   0  0  1  0  0  0  0  0  0  0  0  0
   22.0661  -20.2609  -12.5919 C   0  0  0  0  0  0  0  0  0  0  0  0
   22.3145  -20.1684  -14.0627 C   0  0  0  0  0  0  0  0  0  0  0  0
   21.1601  -19.7048  -14.8849 C   0  0  0  0  0  0  0  0  0  0  0  0
   21.5387  -19.6999  -16.3321 O   0  0  0  0  0  0  0  0  0  0  0  0
   22.7118  -19.8472  -16.7450 C   0  0  0  0  0  0  0  0  0  0  0  0
   20.9089  -21.1085  -12.2193 O   0  0  0  0  0  0  0  0  0  0  0  0
   21.0455  -22.3505  -12.1029 O   0  0  0  0  0  0  0  0  0  0  0  0
   20.5300  -19.5225  -17.2634 O   0  0  0  0  0  0  0  0  0  0  0  0
  2  3  2  0
  2  1  1  0
  4  2  1  0
  5  4  1  0
  6  5  1  0
  7  6  1  0
  8  7  1  0
  8  9  1  1
 10  8  1  0
 10 17  1  0
 11 10  2  0
 12 13  1  0
 13 14  1  0
 16 15  1  1
 15 14  1  0
 16 17  1  0
 18 16  1  0
 19 18  2  0
 20 18  1  0
 21 20  1  0
 21 26  1  0
 21 22  1  1
 23 22  1  0
 24 25  2  0
 24 23  1  0
 26 29  1  0
 27 26  2  0
 28 24  1  0
M  END
$$$$
