RME.pdb
     RDKit          3D

 29 28  0  0  1  0  0  0  0  0999 V2000
   23.4546  -17.1125  -17.3390 N   0  0  0  0  0  0  0  0  0  0  0  0
   23.3407  -18.4199  -17.8828 C   0  0  0  0  0  0  0  0  0  0  0  0
   23.5747  -18.5714  -19.1268 N   0  0  0  0  0  0  0  0  0  0  0  0
   22.9858  -19.5474  -17.1189 N   0  0  0  0  0  0  0  0  0  0  0  0
   22.5909  -19.3990  -15.7578 C   0  0  0  0  0  0  0  0  0  0  0  0
   23.8617  -19.5368  -14.9082 C   0  0  0  0  0  0  0  0  0  0  0  0
   23.6670  -20.5030  -13.7887 C   0  0  0  0  0  0  0  0  0  0  0  0
   22.9475  -19.9134  -12.6255 C   0  0  2  0  0  0  0  0  0  0  0  0
   23.5226  -18.6051  -12.2882 N   0  0  0  0  0  0  0  0  0  0  0  0
   22.9104  -20.7735  -11.4149 C   0  0  0  0  0  0  0  0  0  0  0  0
   22.5215  -21.9450  -11.4963 O   0  0  0  0  0  0  0  0  0  0  0  0
   23.5387  -19.4009  -19.7096 C   0  0  0  0  0  0  0  0  0  0  0  0
   28.2032  -19.6320   -7.0163 S   0  0  0  0  0  0  0  0  0  0  0  0
   26.4024  -19.6659   -6.6951 C   0  0  0  0  0  0  0  0  0  0  0  0
   25.5533  -20.4347   -8.1282 C   0  0  0  0  0  0  0  0  0  0  0  0
   24.0823  -20.4493   -7.7885 C   0  0  2  0  0  0  0  0  0  0  0  0
   23.2352  -21.0070   -8.9065 N   0  0  0  0  0  0  0  0  0  0  0  0
   23.3228  -20.2675  -10.1282 C   0  0  0  0  0  0  0  0  0  0  0  0
   21.8141  -21.0996   -8.4945 O   0  0  0  0  0  0  0  0  0  0  0  0
   21.0845  -20.0917   -8.4893 N   0  0  0  0  0  0  0  0  0  0  0  0
   21.2983  -22.3411   -8.1100 C   0  0  1  0  0  0  0  0  0  0  0  0
   19.9593  -22.5427   -7.5779 C   0  0  0  0  0  0  0  0  0  0  0  0
   19.1639  -23.1818   -8.6699 C   0  0  0  0  0  0  0  0  0  0  0  0
   18.7322  -22.2737   -9.7710 C   0  0  0  0  0  0  0  0  0  0  0  0
   17.9259  -23.0391  -10.7719 O   0  0  0  0  0  0  0  0  0  0  0  0
   17.6875  -24.2653  -10.6822 C   0  0  0  0  0  0  0  0  0  0  0  0
   20.0825  -23.3637   -6.3502 O   0  0  0  0  0  0  0  0  0  0  0  0
   21.1315  -24.0152   -6.1270 O   0  0  0  0  0  0  0  0  0  0  0  0
   17.4165  -22.3467  -11.8569 O   0  0  0  0  0  0  0  0  0  0  0  0
  2  3  2  0
  2  1  1  0
  4  2  1  0
  5  4  1  0
  6  5  1  0
  7  6  1  0
  8  7  1  0
  8  9  1  1
 10  8  1  0
 10 17  1  0
 11 10  2  0
 12 13  1  0
 13 14  1  0
 16 15  1  6
 15 14  1  0
 16 17  1  0
 18 16  1  0
 19 18  2  0
 20 18  1  0
 21 20  1  0
 21 26  1  0
 21 22  1  1
 23 22  1  0
 24 25  2  0
 24 23  1  0
 26 29  1  0
 27 26  2  0
 28 24  1  0
M  END
$$$$
