RME.pdb
     RDKit          3D

 29 28  0  0  1  0  0  0  0  0999 V2000
   30.2179  -23.6257  -17.6403 N   0  0  0  0  0  0  0  0  0  0  0  0
   29.9447  -22.4185  -18.3371 C   0  0  0  0  0  0  0  0  0  0  0  0
   30.5587  -22.2108  -19.4350 N   0  0  0  0  0  0  0  0  0  0  0  0
   29.0344  -21.4486  -17.8772 N   0  0  0  0  0  0  0  0  0  0  0  0
   28.2914  -21.6690  -16.6814 C   0  0  0  0  0  0  0  0  0  0  0  0
   27.3641  -22.8628  -16.9474 C   0  0  0  0  0  0  0  0  0  0  0  0
   26.2691  -22.9383  -15.9373 C   0  0  0  0  0  0  0  0  0  0  0  0
   25.8990  -21.6096  -15.3752 C   0  0  2  0  0  0  0  0  0  0  0  0
   27.0939  -20.7653  -15.2504 N   0  0  0  0  0  0  0  0  0  0  0  0
   25.1816  -21.6611  -14.0755 C   0  0  0  0  0  0  0  0  0  0  0  0
   24.0664  -22.1914  -14.0015 O   0  0  0  0  0  0  0  0  0  0  0  0
   30.5620  -21.4022  -20.0473 C   0  0  0  0  0  0  0  0  0  0  0  0
   25.7587  -20.1227   -6.2470 S   0  0  0  0  0  0  0  0  0  0  0  0
   26.4471  -19.9022   -7.9276 C   0  0  0  0  0  0  0  0  0  0  0  0
   25.2666  -20.5888   -9.1527 C   0  0  0  0  0  0  0  0  0  0  0  0
   25.9560  -20.5081  -10.4936 C   0  0  2  0  0  0  0  0  0  0  0  0
   25.0880  -21.0095  -11.6222 N   0  0  0  0  0  0  0  0  0  0  0  0
   25.7629  -21.0990  -12.8806 C   0  0  0  0  0  0  0  0  0  0  0  0
   23.8820  -20.1612  -11.7759 O   0  0  0  0  0  0  0  0  0  0  0  0
   23.9456  -19.0608  -12.3533 N   0  0  0  0  0  0  0  0  0  0  0  0
   22.6631  -20.6146  -11.2623 C   0  0  1  0  0  0  0  0  0  0  0  0
   21.3616  -20.2594  -11.8068 C   0  0  0  0  0  0  0  0  0  0  0  0
   21.3700  -20.6947  -13.2365 C   0  0  0  0  0  0  0  0  0  0  0  0
   20.8961  -19.6819  -14.2230 C   0  0  0  0  0  0  0  0  0  0  0  0
   20.4840  -20.3629  -15.4896 O   0  0  0  0  0  0  0  0  0  0  0  0
   19.4036  -20.9809  -15.6276 C   0  0  0  0  0  0  0  0  0  0  0  0
   20.3299  -20.9197  -10.9725 O   0  0  0  0  0  0  0  0  0  0  0  0
   20.5160  -22.0821  -10.5380 O   0  0  0  0  0  0  0  0  0  0  0  0
   21.3506  -20.3024  -16.5673 O   0  0  0  0  0  0  0  0  0  0  0  0
  2  3  2  0
  2  1  1  0
  4  2  1  0
  5  4  1  0
  6  5  1  0
  7  6  1  0
  8  7  1  0
  8  9  1  1
 10  8  1  0
 10 17  1  0
 11 10  2  0
 12 13  1  0
 13 14  1  0
 16 15  1  1
 15 14  1  0
 16 17  1  0
 18 16  1  0
 19 18  2  0
 20 18  1  0
 21 20  1  0
 21 26  1  0
 21 22  1  1
 23 22  1  0
 24 25  2  0
 24 23  1  0
 26 29  1  0
 27 26  2  0
 28 24  1  0
M  END
$$$$
