RME.pdb
     RDKit          3D

 29 28  0  0  1  0  0  0  0  0999 V2000
   31.7672  -21.5116  -10.7935 N   0  0  0  0  0  0  0  0  0  0  0  0
   32.4796  -22.0743  -11.8860 C   0  0  0  0  0  0  0  0  0  0  0  0
   33.3399  -22.9809  -11.6342 N   0  0  0  0  0  0  0  0  0  0  0  0
   32.2815  -21.6824  -13.2231 N   0  0  0  0  0  0  0  0  0  0  0  0
   31.0154  -21.1845  -13.6469 C   0  0  0  0  0  0  0  0  0  0  0  0
   30.1068  -22.4029  -13.8603 C   0  0  0  0  0  0  0  0  0  0  0  0
   28.7715  -22.0012  -14.3897 C   0  0  0  0  0  0  0  0  0  0  0  0
   28.1566  -20.8754  -13.6329 C   0  0  2  0  0  0  0  0  0  0  0  0
   29.0956  -20.3775  -12.6198 N   0  0  0  0  0  0  0  0  0  0  0  0
   26.8518  -21.1915  -12.9970 C   0  0  0  0  0  0  0  0  0  0  0  0
   26.0008  -21.8430  -13.6148 O   0  0  0  0  0  0  0  0  0  0  0  0
   33.9553  -23.4979  -12.2530 C   0  0  0  0  0  0  0  0  0  0  0  0
   27.8514  -20.1694   -6.2383 S   0  0  0  0  0  0  0  0  0  0  0  0
   26.2857  -19.9990   -7.1691 C   0  0  0  0  0  0  0  0  0  0  0  0
   26.5057  -20.7108   -8.8457 C   0  0  0  0  0  0  0  0  0  0  0  0
   25.2310  -20.4162   -9.5993 C   0  0  2  0  0  0  0  0  0  0  0  0
   25.2750  -20.9073  -11.0260 N   0  0  0  0  0  0  0  0  0  0  0  0
   26.5493  -20.7500  -11.6571 C   0  0  0  0  0  0  0  0  0  0  0  0
   24.2393  -20.2351  -11.8465 O   0  0  0  0  0  0  0  0  0  0  0  0
   24.3809  -19.0535  -12.2098 N   0  0  0  0  0  0  0  0  0  0  0  0
   23.0934  -20.9487  -12.2113 C   0  0  1  0  0  0  0  0  0  0  0  0
   22.0136  -20.4061  -13.0214 C   0  0  0  0  0  0  0  0  0  0  0  0
   21.7980  -21.3745  -14.1391 C   0  0  0  0  0  0  0  0  0  0  0  0
   21.1062  -22.6430  -13.7704 C   0  0  0  0  0  0  0  0  0  0  0  0
   20.8141  -23.4374  -15.0038 O   0  0  0  0  0  0  0  0  0  0  0  0
   21.0569  -23.0349  -16.1645 C   0  0  0  0  0  0  0  0  0  0  0  0
   20.8384  -20.2205  -12.1377 O   0  0  0  0  0  0  0  0  0  0  0  0
   20.8058  -20.7614  -11.0059 O   0  0  0  0  0  0  0  0  0  0  0  0
   20.2432  -24.6886  -14.8464 O   0  0  0  0  0  0  0  0  0  0  0  0
  2  3  2  0
  2  1  1  0
  4  2  1  0
  5  4  1  0
  6  5  1  0
  7  6  1  0
  8  7  1  0
  8  9  1  1
 10  8  1  0
 10 17  1  0
 11 10  2  0
 12 13  1  0
 13 14  1  0
 16 15  1  1
 15 14  1  0
 16 17  1  0
 18 16  1  0
 19 18  2  0
 20 18  1  0
 21 20  1  0
 21 26  1  0
 21 22  1  1
 23 22  1  0
 24 25  2  0
 24 23  1  0
 26 29  1  0
 27 26  2  0
 28 24  1  0
M  END
$$$$
