RME.pdb
     RDKit          3D

 29 28  0  0  1  0  0  0  0  0999 V2000
   20.9998  -29.3467  -12.1466 N   0  0  0  0  0  0  0  0  0  0  0  0
   20.1892  -28.4116  -11.4491 C   0  0  0  0  0  0  0  0  0  0  0  0
   19.3975  -28.8579  -10.5551 N   0  0  0  0  0  0  0  0  0  0  0  0
   20.2194  -27.0263  -11.6955 N   0  0  0  0  0  0  0  0  0  0  0  0
   20.6684  -26.5288  -12.9531 C   0  0  0  0  0  0  0  0  0  0  0  0
   22.1735  -26.2621  -12.8144 C   0  0  0  0  0  0  0  0  0  0  0  0
   22.5424  -24.9231  -13.3583 C   0  0  0  0  0  0  0  0  0  0  0  0
   22.5795  -24.8863  -14.8468 C   0  0  2  0  0  0  0  0  0  0  0  0
   23.2945  -26.0609  -15.3618 N   0  0  0  0  0  0  0  0  0  0  0  0
   23.1634  -23.6487  -15.4249 C   0  0  0  0  0  0  0  0  0  0  0  0
   22.7241  -22.5407  -15.0940 O   0  0  0  0  0  0  0  0  0  0  0  0
   18.6931  -28.3839  -10.0001 C   0  0  0  0  0  0  0  0  0  0  0  0
   29.2162  -22.1329  -18.2096 S   0  0  0  0  0  0  0  0  0  0  0  0
   28.8345  -23.4693  -17.0198 C   0  0  0  0  0  0  0  0  0  0  0  0
   27.1833  -23.1603  -16.2824 C   0  0  0  0  0  0  0  0  0  0  0  0
   26.2749  -22.7798  -17.4269 C   0  0  2  0  0  0  0  0  0  0  0  0
   24.8476  -22.5633  -16.9861 N   0  0  0  0  0  0  0  0  0  0  0  0
   24.2459  -23.7095  -16.3769 C   0  0  0  0  0  0  0  0  0  0  0  0
   24.0068  -22.1191  -18.1235 O   0  0  0  0  0  0  0  0  0  0  0  0
   23.2245  -22.9074  -18.6846 N   0  0  0  0  0  0  0  0  0  0  0  0
   24.1024  -20.7947  -18.5617 C   0  0  1  0  0  0  0  0  0  0  0  0
   23.2805  -20.2189  -19.6151 C   0  0  0  0  0  0  0  0  0  0  0  0
   21.8661  -20.3044  -19.1401 C   0  0  0  0  0  0  0  0  0  0  0  0
   21.5301  -19.4618  -17.9566 C   0  0  0  0  0  0  0  0  0  0  0  0
   20.0642  -19.5502  -17.6718 O   0  0  0  0  0  0  0  0  0  0  0  0
   19.5090  -20.5634  -17.1885 C   0  0  0  0  0  0  0  0  0  0  0  0
   23.7620  -18.8383  -19.8570 O   0  0  0  0  0  0  0  0  0  0  0  0
   24.6582  -18.3442  -19.1307 O   0  0  0  0  0  0  0  0  0  0  0  0
   19.2820  -18.4452  -17.9607 O   0  0  0  0  0  0  0  0  0  0  0  0
  2  3  2  0
  2  1  1  0
  4  2  1  0
  5  4  1  0
  6  5  1  0
  7  6  1  0
  8  7  1  0
  8  9  1  1
 10  8  1  0
 10 17  1  0
 11 10  2  0
 12 13  1  0
 13 14  1  0
 16 15  1  1
 15 14  1  0
 16 17  1  0
 18 16  1  0
 19 18  2  0
 20 18  1  0
 21 20  1  0
 21 26  1  0
 21 22  1  6
 23 22  1  0
 24 25  2  0
 24 23  1  0
 26 29  1  0
 27 26  2  0
 28 24  1  0
M  END
$$$$
