RME.pdb
     RDKit          3D

 29 28  0  0  1  0  0  0  0  0999 V2000
   27.1013  -16.2045  -17.1867 N   0  0  0  0  0  0  0  0  0  0  0  0
   27.1851  -17.3209  -18.0609 C   0  0  0  0  0  0  0  0  0  0  0  0
   27.7683  -17.1581  -19.1828 N   0  0  0  0  0  0  0  0  0  0  0  0
   26.6599  -18.5889  -17.7492 N   0  0  0  0  0  0  0  0  0  0  0  0
   26.1837  -18.8672  -16.4353 C   0  0  0  0  0  0  0  0  0  0  0  0
   27.3922  -18.7702  -15.4941 C   0  0  0  0  0  0  0  0  0  0  0  0
   26.9912  -18.9624  -14.0704 C   0  0  0  0  0  0  0  0  0  0  0  0
   27.3494  -20.3064  -13.5379 C   0  0  2  0  0  0  0  0  0  0  0  0
   27.5859  -21.2403  -14.6461 N   0  0  0  0  0  0  0  0  0  0  0  0
   26.3599  -20.8865  -12.5939 C   0  0  0  0  0  0  0  0  0  0  0  0
   25.5049  -21.6823  -13.0010 O   0  0  0  0  0  0  0  0  0  0  0  0
   27.8788  -17.7908  -19.9680 C   0  0  0  0  0  0  0  0  0  0  0  0
   28.6699  -20.4423   -6.0356 S   0  0  0  0  0  0  0  0  0  0  0  0
   27.1200  -19.8338   -6.7936 C   0  0  0  0  0  0  0  0  0  0  0  0
   26.7646  -20.8174   -8.3010 C   0  0  0  0  0  0  0  0  0  0  0  0
   25.5118  -20.2280   -8.9033 C   0  0  2  0  0  0  0  0  0  0  0  0
   25.2614  -20.7143  -10.3102 N   0  0  0  0  0  0  0  0  0  0  0  0
   26.3728  -20.5384  -11.1938 C   0  0  0  0  0  0  0  0  0  0  0  0
   24.0683  -20.0535  -10.8913 O   0  0  0  0  0  0  0  0  0  0  0  0
   24.1873  -19.0728  -11.6477 N   0  0  0  0  0  0  0  0  0  0  0  0
   22.7984  -20.5483  -10.5787 C   0  0  1  0  0  0  0  0  0  0  0  0
   21.5727  -20.1412  -11.2484 C   0  0  0  0  0  0  0  0  0  0  0  0
   21.7149  -20.5572  -12.6767 C   0  0  0  0  0  0  0  0  0  0  0  0
   20.5058  -20.3670  -13.5285 C   0  0  0  0  0  0  0  0  0  0  0  0
   20.7723  -20.8805  -14.9080 O   0  0  0  0  0  0  0  0  0  0  0  0
   21.4548  -21.9021  -15.1504 C   0  0  0  0  0  0  0  0  0  0  0  0
   20.4390  -20.7767  -10.5362 O   0  0  0  0  0  0  0  0  0  0  0  0
   20.6020  -21.8623   -9.9282 O   0  0  0  0  0  0  0  0  0  0  0  0
   20.2301  -20.1823  -15.9733 O   0  0  0  0  0  0  0  0  0  0  0  0
  2  3  2  0
  2  1  1  0
  4  2  1  0
  5  4  1  0
  6  5  1  0
  7  6  1  0
  8  7  1  0
  8  9  1  6
 10  8  1  0
 10 17  1  0
 11 10  2  0
 12 13  1  0
 13 14  1  0
 16 15  1  1
 15 14  1  0
 16 17  1  0
 18 16  1  0
 19 18  2  0
 20 18  1  0
 21 20  1  0
 21 26  1  0
 21 22  1  1
 23 22  1  0
 24 25  2  0
 24 23  1  0
 26 29  1  0
 27 26  2  0
 28 24  1  0
M  END
$$$$
