PFG.pdb
     RDKit          3D

 23 24  0  0  1  0  0  0  0  0999 V2000
   26.9065  -19.2948  -12.9195 N   0  0  0  0  0  0  0  0  0  0  0  0
   27.2666  -19.0026  -14.3009 C   0  0  0  0  0  0  0  0  0  0  0  0
   28.7364  -19.3673  -14.3639 C   0  0  0  0  0  0  0  0  0  0  0  0
   28.8760  -20.4954  -13.3641 C   0  0  0  0  0  0  0  0  0  0  0  0
   27.5435  -20.5765  -12.6877 C   0  0  1  0  0  0  0  0  0  0  0  0
   27.5958  -20.9123  -11.2584 C   0  0  0  0  0  0  0  0  0  0  0  0
   28.0329  -22.0037  -10.8198 O   0  0  0  0  0  0  0  0  0  0  0  0
   27.1350  -19.9745  -10.2976 N   0  0  0  0  0  0  0  0  0  0  0  0
   27.1373  -20.3173   -8.8847 C   0  0  1  0  0  0  0  0  0  0  0  0
   27.4261  -19.0469   -8.0860 C   0  0  0  0  0  0  0  0  0  0  0  0
   27.8575  -19.3843   -6.7045 C   0  0  0  0  0  0  0  0  0  0  0  0
   28.9673  -20.1794   -6.4789 C   0  0  0  0  0  0  0  0  0  0  0  0
   29.4046  -20.5182   -5.2323 C   0  0  0  0  0  0  0  0  0  0  0  0
   28.7075  -20.0461   -4.1295 C   0  0  0  0  0  0  0  0  0  0  0  0
   27.6098  -19.2606   -4.3095 C   0  0  0  0  0  0  0  0  0  0  0  0
   27.1879  -18.9321   -5.5871 C   0  0  0  0  0  0  0  0  0  0  0  0
   25.7960  -20.8071   -8.4530 C   0  0  0  0  0  0  0  0  0  0  0  0
   25.6157  -20.9963   -7.2280 O   0  0  0  0  0  0  0  0  0  0  0  0
   24.7534  -21.0562   -9.3615 N   0  0  0  0  0  0  0  0  0  0  0  0
   23.4436  -21.3933   -8.8864 C   0  0  0  0  0  0  0  0  0  0  0  0
   22.3902  -20.6548   -9.6695 C   0  0  0  0  0  0  0  0  0  0  0  0
   21.0603  -20.7388   -9.3197 O   0  0  0  0  0  0  0  0  0  0  0  0
   22.7305  -19.9536  -10.6542 O   0  0  0  0  0  0  0  0  0  0  0  0
  1  2  1  0
  3  2  1  0
  4  5  1  0
  4  3  1  0
  5  1  1  0
  6  8  1  0
  5  6  1  1
  7  6  2  0
  9  8  1  0
  9 10  1  1
 10 11  1  0
 11 12  2  0
 11 16  1  0
 12 13  1  0
 13 14  2  0
 15 14  1  0
 16 15  2  0
 17  9  1  0
 18 17  2  0
 19 17  1  0
 20 21  1  0
 20 19  1  0
 21 22  1  0
 23 21  2  0
M  END
$$$$
