PFG.pdb
     RDKit          3D

 23 24  0  0  1  0  0  0  0  0999 V2000
   27.2964  -19.3463  -16.0108 N   0  0  0  0  0  0  0  0  0  0  0  0
   28.3161  -19.0986  -17.0218 C   0  0  0  0  0  0  0  0  0  0  0  0
   29.3743  -20.1391  -16.7138 C   0  0  0  0  0  0  0  0  0  0  0  0
   28.5883  -21.3033  -16.1493 C   0  0  0  0  0  0  0  0  0  0  0  0
   27.1883  -20.7922  -16.0138 C   0  0  1  0  0  0  0  0  0  0  0  0
   26.4601  -21.2901  -14.8390 C   0  0  0  0  0  0  0  0  0  0  0  0
   26.3130  -22.5095  -14.5819 O   0  0  0  0  0  0  0  0  0  0  0  0
   25.8803  -20.3690  -13.9277 N   0  0  0  0  0  0  0  0  0  0  0  0
   25.1637  -20.8529  -12.7588 C   0  0  1  0  0  0  0  0  0  0  0  0
   25.7627  -20.1849  -11.5217 C   0  0  0  0  0  0  0  0  0  0  0  0
   27.1958  -20.5487  -11.3730 C   0  0  0  0  0  0  0  0  0  0  0  0
   27.6067  -21.4426  -10.3998 C   0  0  0  0  0  0  0  0  0  0  0  0
   28.9081  -21.8095  -10.2218 C   0  0  0  0  0  0  0  0  0  0  0  0
   29.8749  -21.2639  -11.0539 C   0  0  0  0  0  0  0  0  0  0  0  0
   29.5111  -20.3803  -12.0241 C   0  0  0  0  0  0  0  0  0  0  0  0
   28.1817  -20.0254  -12.1826 C   0  0  0  0  0  0  0  0  0  0  0  0
   23.7263  -20.4578  -12.8136 C   0  0  0  0  0  0  0  0  0  0  0  0
   23.4290  -19.3016  -12.4346 O   0  0  0  0  0  0  0  0  0  0  0  0
   22.7199  -21.3267  -13.2681 N   0  0  0  0  0  0  0  0  0  0  0  0
   21.3733  -20.8592  -13.4199 C   0  0  0  0  0  0  0  0  0  0  0  0
   20.4593  -21.5517  -12.4436 C   0  0  0  0  0  0  0  0  0  0  0  0
   19.2983  -20.9486  -12.0118 O   0  0  0  0  0  0  0  0  0  0  0  0
   20.7611  -22.6943  -12.0184 O   0  0  0  0  0  0  0  0  0  0  0  0
  1  2  1  0
  3  2  1  0
  4  5  1  0
  4  3  1  0
  5  1  1  0
  6  8  1  0
  5  6  1  1
  7  6  2  0
  9  8  1  0
  9 10  1  1
 10 11  1  0
 11 12  2  0
 11 16  1  0
 12 13  1  0
 13 14  2  0
 15 14  1  0
 16 15  2  0
 17  9  1  0
 18 17  2  0
 19 17  1  0
 20 21  1  0
 20 19  1  0
 21 22  1  0
 23 21  2  0
M  END
$$$$
