PFG.pdb
     RDKit          3D

 23 24  0  0  1  0  0  0  0  0999 V2000
   30.0680  -20.5436  -10.6294 N   0  0  0  0  0  0  0  0  0  0  0  0
   31.4825  -20.8274  -10.8344 C   0  0  0  0  0  0  0  0  0  0  0  0
   31.7860  -21.8727   -9.7797 C   0  0  0  0  0  0  0  0  0  0  0  0
   30.4826  -22.6276   -9.6278 C   0  0  0  0  0  0  0  0  0  0  0  0
   29.4984  -21.8660  -10.4590 C   0  0  1  0  0  0  0  0  0  0  0  0
   28.1375  -21.8102   -9.9083 C   0  0  0  0  0  0  0  0  0  0  0  0
   27.4521  -22.8298   -9.6531 O   0  0  0  0  0  0  0  0  0  0  0  0
   27.5379  -20.5518   -9.6398 N   0  0  0  0  0  0  0  0  0  0  0  0
   26.1902  -20.4870   -9.0982 C   0  0  1  0  0  0  0  0  0  0  0  0
   26.1443  -19.3608   -8.0663 C   0  0  0  0  0  0  0  0  0  0  0  0
   27.0093  -19.6829   -6.9016 C   0  0  0  0  0  0  0  0  0  0  0  0
   26.7125  -20.7454   -6.0661 C   0  0  0  0  0  0  0  0  0  0  0  0
   27.4728  -21.0828   -4.9853 C   0  0  0  0  0  0  0  0  0  0  0  0
   28.6021  -20.3282   -4.7022 C   0  0  0  0  0  0  0  0  0  0  0  0
   28.9284  -19.2744   -5.5005 C   0  0  0  0  0  0  0  0  0  0  0  0
   28.1381  -18.9541   -6.5920 C   0  0  0  0  0  0  0  0  0  0  0  0
   25.2040  -20.1420  -10.1629 C   0  0  0  0  0  0  0  0  0  0  0  0
   25.6316  -19.5408  -11.1751 O   0  0  0  0  0  0  0  0  0  0  0  0
   23.8401  -20.4654  -10.0640 N   0  0  0  0  0  0  0  0  0  0  0  0
   22.9990  -20.4207  -11.2240 C   0  0  0  0  0  0  0  0  0  0  0  0
   21.5861  -20.8024  -10.8685 C   0  0  0  0  0  0  0  0  0  0  0  0
   21.2641  -21.2132   -9.5936 O   0  0  0  0  0  0  0  0  0  0  0  0
   20.6910  -20.7447  -11.7475 O   0  0  0  0  0  0  0  0  0  0  0  0
  1  2  1  0
  3  2  1  0
  4  5  1  0
  4  3  1  0
  5  1  1  0
  6  8  1  0
  5  6  1  1
  7  6  2  0
  9  8  1  0
  9 10  1  1
 10 11  1  0
 11 12  2  0
 11 16  1  0
 12 13  1  0
 13 14  2  0
 15 14  1  0
 16 15  2  0
 17  9  1  0
 18 17  2  0
 19 17  1  0
 20 21  1  0
 20 19  1  0
 21 22  1  0
 23 21  2  0
M  END
$$$$
