PFG.pdb
     RDKit          3D

 23 24  0  0  1  0  0  0  0  0999 V2000
   27.2340  -20.5399  -12.5204 N   0  0  0  0  0  0  0  0  0  0  0  0
   27.7119  -19.7949  -13.6779 C   0  0  0  0  0  0  0  0  0  0  0  0
   28.7554  -18.8663  -13.0898 C   0  0  0  0  0  0  0  0  0  0  0  0
   29.3228  -19.6466  -11.9232 C   0  0  0  0  0  0  0  0  0  0  0  0
   28.4617  -20.8663  -11.8215 C   0  0  1  0  0  0  0  0  0  0  0  0
   28.2061  -21.3292  -10.4508 C   0  0  0  0  0  0  0  0  0  0  0  0
   29.1132  -21.5249   -9.6062 O   0  0  0  0  0  0  0  0  0  0  0  0
   26.8737  -21.5777  -10.0287 N   0  0  0  0  0  0  0  0  0  0  0  0
   26.3508  -20.9219   -8.8411 C   0  0  1  0  0  0  0  0  0  0  0  0
   27.1938  -19.6754   -8.5742 C   0  0  0  0  0  0  0  0  0  0  0  0
   27.7049  -19.6786   -7.1788 C   0  0  0  0  0  0  0  0  0  0  0  0
   28.7431  -20.5125   -6.8023 C   0  0  0  0  0  0  0  0  0  0  0  0
   29.2484  -20.5539   -5.5363 C   0  0  0  0  0  0  0  0  0  0  0  0
   28.6998  -19.7215   -4.5713 C   0  0  0  0  0  0  0  0  0  0  0  0
   27.6766  -18.8861   -4.9020 C   0  0  0  0  0  0  0  0  0  0  0  0
   27.1828  -18.8647   -6.1959 C   0  0  0  0  0  0  0  0  0  0  0  0
   24.9493  -20.4605   -9.0605 C   0  0  0  0  0  0  0  0  0  0  0  0
   24.2306  -20.2913   -8.0488 O   0  0  0  0  0  0  0  0  0  0  0  0
   24.4253  -20.2161  -10.3412 N   0  0  0  0  0  0  0  0  0  0  0  0
   23.0798  -19.7464  -10.4959 C   0  0  0  0  0  0  0  0  0  0  0  0
   22.2670  -20.7246  -11.3026 C   0  0  0  0  0  0  0  0  0  0  0  0
   20.9611  -20.4475  -11.6431 O   0  0  0  0  0  0  0  0  0  0  0  0
   22.7884  -21.8068  -11.6690 O   0  0  0  0  0  0  0  0  0  0  0  0
  1  2  1  0
  3  2  1  0
  4  5  1  0
  4  3  1  0
  5  1  1  0
  6  8  1  0
  5  6  1  1
  7  6  2  0
  9  8  1  0
  9 10  1  6
 10 11  1  0
 11 12  2  0
 11 16  1  0
 12 13  1  0
 13 14  2  0
 15 14  1  0
 16 15  2  0
 17  9  1  0
 18 17  2  0
 19 17  1  0
 20 21  1  0
 20 19  1  0
 21 22  1  0
 23 21  2  0
M  END
$$$$
