PFG.pdb
     RDKit          3D

 23 24  0  0  1  0  0  0  0  0999 V2000
   25.2039  -33.8826  -13.8018 N   0  0  0  0  0  0  0  0  0  0  0  0
   26.0965  -33.5600  -14.9075 C   0  0  0  0  0  0  0  0  0  0  0  0
   27.1879  -32.7404  -14.2485 C   0  0  0  0  0  0  0  0  0  0  0  0
   27.2690  -33.3017  -12.8448 C   0  0  0  0  0  0  0  0  0  0  0  0
   26.1249  -34.2614  -12.7480 C   0  0  1  0  0  0  0  0  0  0  0  0
   25.4670  -34.3076  -11.4352 C   0  0  0  0  0  0  0  0  0  0  0  0
   24.3549  -33.7762  -11.1995 O   0  0  0  0  0  0  0  0  0  0  0  0
   26.0967  -34.9807  -10.3556 N   0  0  0  0  0  0  0  0  0  0  0  0
   25.4734  -34.9949   -9.0421 C   0  0  1  0  0  0  0  0  0  0  0  0
   25.5732  -36.4132   -8.4819 C   0  0  0  0  0  0  0  0  0  0  0  0
   24.8330  -36.5216   -7.1979 C   0  0  0  0  0  0  0  0  0  0  0  0
   25.4895  -36.8387   -6.0217 C   0  0  0  0  0  0  0  0  0  0  0  0
   24.8575  -36.9504   -4.8184 C   0  0  0  0  0  0  0  0  0  0  0  0
   23.4877  -36.7371   -4.7618 C   0  0  0  0  0  0  0  0  0  0  0  0
   22.8052  -36.4230   -5.8975 C   0  0  0  0  0  0  0  0  0  0  0  0
   23.4726  -36.3160   -7.1064 C   0  0  0  0  0  0  0  0  0  0  0  0
   26.2029  -34.1012   -8.0964 C   0  0  0  0  0  0  0  0  0  0  0  0
   27.4449  -34.2393   -8.0110 O   0  0  0  0  0  0  0  0  0  0  0  0
   25.5505  -33.1311   -7.3168 N   0  0  0  0  0  0  0  0  0  0  0  0
   26.3084  -32.2208   -6.5094 C   0  0  0  0  0  0  0  0  0  0  0  0
   26.4436  -32.7460   -5.1043 C   0  0  0  0  0  0  0  0  0  0  0  0
   27.1655  -32.0536   -4.1570 O   0  0  0  0  0  0  0  0  0  0  0  0
   25.8900  -33.8298   -4.7940 O   0  0  0  0  0  0  0  0  0  0  0  0
  1  2  1  0
  3  2  1  0
  4  5  1  0
  4  3  1  0
  5  1  1  0
  6  8  1  0
  5  6  1  1
  7  6  2  0
  9  8  1  0
  9 10  1  1
 10 11  1  0
 11 12  2  0
 11 16  1  0
 12 13  1  0
 13 14  2  0
 15 14  1  0
 16 15  2  0
 17  9  1  0
 18 17  2  0
 19 17  1  0
 20 21  1  0
 20 19  1  0
 21 22  1  0
 23 21  2  0
M  END
$$$$
