PFG.pdb
     RDKit          3D

 23 24  0  0  1  0  0  0  0  0999 V2000
   22.5171   -7.5517  -19.3325 N   0  0  0  0  0  0  0  0  0  0  0  0
   22.9792   -8.4324  -20.3973 C   0  0  0  0  0  0  0  0  0  0  0  0
   23.0210   -9.7937  -19.7322 C   0  0  0  0  0  0  0  0  0  0  0  0
   21.9103   -9.7327  -18.7053 C   0  0  0  0  0  0  0  0  0  0  0  0
   21.4378   -8.3130  -18.7342 C   0  0  1  0  0  0  0  0  0  0  0  0
   21.0399   -7.7679  -17.4293 C   0  0  0  0  0  0  0  0  0  0  0  0
   20.1879   -8.3094  -16.6840 O   0  0  0  0  0  0  0  0  0  0  0  0
   21.6316   -6.5666  -16.9582 N   0  0  0  0  0  0  0  0  0  0  0  0
   21.2947   -6.0564  -15.6390 C   0  0  1  0  0  0  0  0  0  0  0  0
   22.5637   -6.0603  -14.7876 C   0  0  0  0  0  0  0  0  0  0  0  0
   22.9197   -7.4461  -14.3858 C   0  0  0  0  0  0  0  0  0  0  0  0
   22.2304   -8.0943  -13.3760 C   0  0  0  0  0  0  0  0  0  0  0  0
   22.5171   -9.3643  -12.9698 C   0  0  0  0  0  0  0  0  0  0  0  0
   23.5501  -10.0476  -13.5950 C   0  0  0  0  0  0  0  0  0  0  0  0
   24.2526   -9.4443  -14.5934 C   0  0  0  0  0  0  0  0  0  0  0  0
   23.9399   -8.1534  -14.9859 C   0  0  0  0  0  0  0  0  0  0  0  0
   20.8281   -4.6417  -15.7180 C   0  0  0  0  0  0  0  0  0  0  0  0
   21.4883   -3.8537  -16.4334 O   0  0  0  0  0  0  0  0  0  0  0  0
   19.6947   -4.1795  -15.0279 N   0  0  0  0  0  0  0  0  0  0  0  0
   19.2581   -2.8225  -15.1789 C   0  0  0  0  0  0  0  0  0  0  0  0
   17.9697   -2.7643  -15.9566 C   0  0  0  0  0  0  0  0  0  0  0  0
   17.3277   -1.5647  -16.1728 O   0  0  0  0  0  0  0  0  0  0  0  0
   17.4755   -3.8247  -16.4134 O   0  0  0  0  0  0  0  0  0  0  0  0
  1  2  1  0
  3  2  1  0
  4  5  1  0
  4  3  1  0
  5  1  1  0
  6  8  1  0
  5  6  1  1
  7  6  2  0
  9  8  1  0
  9 10  1  1
 10 11  1  0
 11 12  2  0
 11 16  1  0
 12 13  1  0
 13 14  2  0
 15 14  1  0
 16 15  2  0
 17  9  1  0
 18 17  2  0
 19 17  1  0
 20 21  1  0
 20 19  1  0
 21 22  1  0
 23 21  2  0
M  END
$$$$
