PFG.pdb
     RDKit          3D

 23 24  0  0  1  0  0  0  0  0999 V2000
   26.4543  -17.5528  -15.0860 N   0  0  0  0  0  0  0  0  0  0  0  0
   26.8099  -16.3890  -15.8874 C   0  0  0  0  0  0  0  0  0  0  0  0
   28.1988  -16.7238  -16.3935 C   0  0  0  0  0  0  0  0  0  0  0  0
   28.1885  -18.2326  -16.5171 C   0  0  0  0  0  0  0  0  0  0  0  0
   26.8841  -18.6582  -15.9200 C   0  0  1  0  0  0  0  0  0  0  0  0
   26.9299  -19.9228  -15.1735 C   0  0  0  0  0  0  0  0  0  0  0  0
   27.1902  -21.0300  -15.7036 O   0  0  0  0  0  0  0  0  0  0  0  0
   26.6706  -19.9262  -13.7778 N   0  0  0  0  0  0  0  0  0  0  0  0
   26.7192  -21.1723  -13.0303 C   0  0  1  0  0  0  0  0  0  0  0  0
   27.5651  -20.9447  -11.7781 C   0  0  0  0  0  0  0  0  0  0  0  0
   26.6964  -20.7055  -10.5963 C   0  0  0  0  0  0  0  0  0  0  0  0
   25.9874  -21.7404  -10.0123 C   0  0  0  0  0  0  0  0  0  0  0  0
   25.1773  -21.5743   -8.9278 C   0  0  0  0  0  0  0  0  0  0  0  0
   25.0520  -20.3073   -8.3764 C   0  0  0  0  0  0  0  0  0  0  0  0
   25.7334  -19.2623   -8.9222 C   0  0  0  0  0  0  0  0  0  0  0  0
   26.5494  -19.4598  -10.0238 C   0  0  0  0  0  0  0  0  0  0  0  0
   25.3576  -21.5705  -12.5690 C   0  0  0  0  0  0  0  0  0  0  0  0
   25.2643  -22.5996  -11.8611 O   0  0  0  0  0  0  0  0  0  0  0  0
   24.2035  -20.8399  -12.8991 N   0  0  0  0  0  0  0  0  0  0  0  0
   22.9061  -21.3367  -12.5460 C   0  0  0  0  0  0  0  0  0  0  0  0
   21.8347  -20.3660  -12.9681 C   0  0  0  0  0  0  0  0  0  0  0  0
   20.5215  -20.5572  -12.5978 O   0  0  0  0  0  0  0  0  0  0  0  0
   22.1444  -19.3696  -13.6670 O   0  0  0  0  0  0  0  0  0  0  0  0
  1  2  1  0
  3  2  1  0
  4  5  1  0
  4  3  1  0
  5  1  1  0
  6  8  1  0
  5  6  1  1
  7  6  2  0
  9  8  1  0
  9 10  1  1
 10 11  1  0
 11 12  2  0
 11 16  1  0
 12 13  1  0
 13 14  2  0
 15 14  1  0
 16 15  2  0
 17  9  1  0
 18 17  2  0
 19 17  1  0
 20 21  1  0
 20 19  1  0
 21 22  1  0
 23 21  2  0
M  END
$$$$
