PFG.pdb
     RDKit          3D

 23 24  0  0  1  0  0  0  0  0999 V2000
   30.8570  -21.0921   -9.8152 N   0  0  0  0  0  0  0  0  0  0  0  0
   32.2414  -21.5428   -9.8750 C   0  0  0  0  0  0  0  0  0  0  0  0
   32.3708  -22.4378   -8.6587 C   0  0  0  0  0  0  0  0  0  0  0  0
   30.9867  -23.0274   -8.4902 C   0  0  0  0  0  0  0  0  0  0  0  0
   30.1385  -22.3094   -9.4925 C   0  0  1  0  0  0  0  0  0  0  0  0
   28.7634  -22.0348   -9.0541 C   0  0  0  0  0  0  0  0  0  0  0  0
   27.9367  -22.9336   -8.7659 O   0  0  0  0  0  0  0  0  0  0  0  0
   28.3155  -20.6925   -8.9408 N   0  0  0  0  0  0  0  0  0  0  0  0
   26.9127  -20.4114   -8.6818 C   0  0  1  0  0  0  0  0  0  0  0  0
   26.8341  -19.3040   -7.6315 C   0  0  0  0  0  0  0  0  0  0  0  0
   27.6251  -19.6682   -6.4273 C   0  0  0  0  0  0  0  0  0  0  0  0
   28.8724  -19.1140   -6.1999 C   0  0  0  0  0  0  0  0  0  0  0  0
   29.6379  -19.4142   -5.1118 C   0  0  0  0  0  0  0  0  0  0  0  0
   29.1489  -20.3199   -4.1814 C   0  0  0  0  0  0  0  0  0  0  0  0
   27.9254  -20.8874   -4.3691 C   0  0  0  0  0  0  0  0  0  0  0  0
   27.1691  -20.5641   -5.4835 C   0  0  0  0  0  0  0  0  0  0  0  0
   26.2371  -19.8966   -9.9081 C   0  0  0  0  0  0  0  0  0  0  0  0
   26.9431  -19.2905  -10.7466 O   0  0  0  0  0  0  0  0  0  0  0  0
   24.8626  -20.0690  -10.1433 N   0  0  0  0  0  0  0  0  0  0  0  0
   24.1255  -21.0702   -9.4296 C   0  0  0  0  0  0  0  0  0  0  0  0
   22.7015  -21.1271   -9.9168 C   0  0  0  0  0  0  0  0  0  0  0  0
   21.7620  -21.8969   -9.2667 O   0  0  0  0  0  0  0  0  0  0  0  0
   22.3681  -20.4633  -10.9294 O   0  0  0  0  0  0  0  0  0  0  0  0
  1  2  1  0
  3  2  1  0
  4  5  1  0
  4  3  1  0
  5  1  1  0
  6  8  1  0
  5  6  1  1
  7  6  2  0
  9  8  1  0
  9 10  1  1
 10 11  1  0
 11 12  2  0
 11 16  1  0
 12 13  1  0
 13 14  2  0
 15 14  1  0
 16 15  2  0
 17  9  1  0
 18 17  2  0
 19 17  1  0
 20 21  1  0
 20 19  1  0
 21 22  1  0
 23 21  2  0
M  END
$$$$
