PFG.pdb
     RDKit          3D

 23 24  0  0  1  0  0  0  0  0999 V2000
   30.5350  -20.6828  -10.1206 N   0  0  0  0  0  0  0  0  0  0  0  0
   31.9565  -20.9859  -10.2243 C   0  0  0  0  0  0  0  0  0  0  0  0
   32.1536  -22.0918   -9.2068 C   0  0  0  0  0  0  0  0  0  0  0  0
   30.8293  -22.8253   -9.2036 C   0  0  0  0  0  0  0  0  0  0  0  0
   29.9306  -21.9998  -10.0698 C   0  0  1  0  0  0  0  0  0  0  0  0
   28.5299  -21.9437   -9.6301 C   0  0  0  0  0  0  0  0  0  0  0  0
   27.8172  -22.9622   -9.4592 O   0  0  0  0  0  0  0  0  0  0  0  0
   27.9213  -20.6864   -9.3771 N   0  0  0  0  0  0  0  0  0  0  0  0
   26.5396  -20.6222   -8.9290 C   0  0  1  0  0  0  0  0  0  0  0  0
   26.4138  -19.4690   -7.9342 C   0  0  0  0  0  0  0  0  0  0  0  0
   27.2740  -19.7071   -6.7460 C   0  0  0  0  0  0  0  0  0  0  0  0
   26.9912  -20.7271   -5.8547 C   0  0  0  0  0  0  0  0  0  0  0  0
   27.7478  -20.9873   -4.7503 C   0  0  0  0  0  0  0  0  0  0  0  0
   28.8586  -20.1943   -4.5005 C   0  0  0  0  0  0  0  0  0  0  0  0
   29.1706  -19.1801   -5.3539 C   0  0  0  0  0  0  0  0  0  0  0  0
   28.3844  -18.9382   -6.4683 C   0  0  0  0  0  0  0  0  0  0  0  0
   25.6242  -20.3172  -10.0667 C   0  0  0  0  0  0  0  0  0  0  0  0
   25.8491  -19.2775  -10.7279 O   0  0  0  0  0  0  0  0  0  0  0  0
   24.5415  -21.1450  -10.4091 N   0  0  0  0  0  0  0  0  0  0  0  0
   23.8150  -20.9217  -11.6245 C   0  0  0  0  0  0  0  0  0  0  0  0
   22.3761  -20.5900  -11.3278 C   0  0  0  0  0  0  0  0  0  0  0  0
   21.3692  -20.9829  -12.1821 O   0  0  0  0  0  0  0  0  0  0  0  0
   22.0924  -19.9467  -10.2872 O   0  0  0  0  0  0  0  0  0  0  0  0
  1  2  1  0
  3  2  1  0
  4  5  1  0
  4  3  1  0
  5  1  1  0
  6  8  1  0
  5  6  1  1
  7  6  2  0
  9  8  1  0
  9 10  1  1
 10 11  1  0
 11 12  2  0
 11 16  1  0
 12 13  1  0
 13 14  2  0
 15 14  1  0
 16 15  2  0
 17  9  1  0
 18 17  2  0
 19 17  1  0
 20 21  1  0
 20 19  1  0
 21 22  1  0
 23 21  2  0
M  END
$$$$
