PFG.pdb
     RDKit          3D

 23 24  0  0  1  0  0  0  0  0999 V2000
   27.3900  -18.7221  -14.4520 N   0  0  0  0  0  0  0  0  0  0  0  0
   28.5296  -18.2987  -15.2552 C   0  0  0  0  0  0  0  0  0  0  0  0
   29.5885  -19.3343  -14.9336 C   0  0  0  0  0  0  0  0  0  0  0  0
   28.7953  -20.5934  -14.6554 C   0  0  0  0  0  0  0  0  0  0  0  0
   27.3642  -20.1560  -14.6652 C   0  0  1  0  0  0  0  0  0  0  0  0
   26.5027  -20.8398  -13.6911 C   0  0  0  0  0  0  0  0  0  0  0  0
   26.2550  -22.0693  -13.7299 O   0  0  0  0  0  0  0  0  0  0  0  0
   25.9039  -20.0987  -12.6388 N   0  0  0  0  0  0  0  0  0  0  0  0
   25.0605  -20.7696  -11.6627 C   0  0  1  0  0  0  0  0  0  0  0  0
   25.3033  -20.1245  -10.2988 C   0  0  0  0  0  0  0  0  0  0  0  0
   26.6482  -20.4869   -9.7808 C   0  0  0  0  0  0  0  0  0  0  0  0
   27.0247  -20.1644   -8.4888 C   0  0  0  0  0  0  0  0  0  0  0  0
   28.2455  -20.4738   -7.9655 C   0  0  0  0  0  0  0  0  0  0  0  0
   29.1619  -21.1455   -8.7618 C   0  0  0  0  0  0  0  0  0  0  0  0
   28.8296  -21.4807  -10.0391 C   0  0  0  0  0  0  0  0  0  0  0  0
   27.5823  -21.1539  -10.5449 C   0  0  0  0  0  0  0  0  0  0  0  0
   23.6166  -20.5771  -11.9842 C   0  0  0  0  0  0  0  0  0  0  0  0
   23.2609  -19.4491  -12.3963 O   0  0  0  0  0  0  0  0  0  0  0  0
   22.6666  -21.6025  -11.8408 N   0  0  0  0  0  0  0  0  0  0  0  0
   21.2783  -21.3433  -12.0862 C   0  0  0  0  0  0  0  0  0  0  0  0
   20.9695  -21.4604  -13.5556 C   0  0  0  0  0  0  0  0  0  0  0  0
   20.0130  -20.6617  -14.1430 O   0  0  0  0  0  0  0  0  0  0  0  0
   21.5933  -22.2980  -14.2531 O   0  0  0  0  0  0  0  0  0  0  0  0
  1  2  1  0
  3  2  1  0
  4  5  1  0
  4  3  1  0
  5  1  1  0
  6  8  1  0
  5  6  1  1
  7  6  2  0
  9  8  1  0
  9 10  1  1
 10 11  1  0
 11 12  2  0
 11 16  1  0
 12 13  1  0
 13 14  2  0
 15 14  1  0
 16 15  2  0
 17  9  1  0
 18 17  2  0
 19 17  1  0
 20 21  1  0
 20 19  1  0
 21 22  1  0
 23 21  2  0
M  END
$$$$
