PFG.pdb
     RDKit          3D

 23 24  0  0  1  0  0  0  0  0999 V2000
   21.5170  -34.5865   -7.5851 N   0  0  0  0  0  0  0  0  0  0  0  0
   20.0642  -34.6661   -7.5070 C   0  0  0  0  0  0  0  0  0  0  0  0
   19.8185  -35.2252   -6.1198 C   0  0  0  0  0  0  0  0  0  0  0  0
   20.9762  -34.6941   -5.3017 C   0  0  0  0  0  0  0  0  0  0  0  0
   21.8760  -34.0293   -6.2955 C   0  0  1  0  0  0  0  0  0  0  0  0
   23.3121  -34.1687   -6.0185 C   0  0  0  0  0  0  0  0  0  0  0  0
   24.0727  -34.9229   -6.6721 O   0  0  0  0  0  0  0  0  0  0  0  0
   23.9007  -33.4249   -4.9623 N   0  0  0  0  0  0  0  0  0  0  0  0
   25.3156  -33.5765   -4.6641 C   0  0  1  0  0  0  0  0  0  0  0  0
   26.0331  -32.2968   -5.0918 C   0  0  0  0  0  0  0  0  0  0  0  0
   26.1072  -32.2089   -6.5734 C   0  0  0  0  0  0  0  0  0  0  0  0
   27.1254  -32.8313   -7.2740 C   0  0  0  0  0  0  0  0  0  0  0  0
   27.2387  -32.7814   -8.6321 C   0  0  0  0  0  0  0  0  0  0  0  0
   26.2897  -32.0732   -9.3553 C   0  0  0  0  0  0  0  0  0  0  0  0
   25.2720  -31.4466   -8.7028 C   0  0  0  0  0  0  0  0  0  0  0  0
   25.1812  -31.5139   -7.3223 C   0  0  0  0  0  0  0  0  0  0  0  0
   25.5375  -33.7302   -3.1970 C   0  0  0  0  0  0  0  0  0  0  0  0
   24.8802  -32.9882   -2.4314 O   0  0  0  0  0  0  0  0  0  0  0  0
   26.4426  -34.6628   -2.6625 N   0  0  0  0  0  0  0  0  0  0  0  0
   26.6034  -34.7850   -1.2434 C   0  0  0  0  0  0  0  0  0  0  0  0
   25.5465  -35.6898   -0.6667 C   0  0  0  0  0  0  0  0  0  0  0  0
   25.0070  -35.4440    0.5769 O   0  0  0  0  0  0  0  0  0  0  0  0
   25.1530  -36.6810   -1.3298 O   0  0  0  0  0  0  0  0  0  0  0  0
  1  2  1  0
  3  2  1  0
  4  5  1  0
  4  3  1  0
  5  1  1  0
  6  8  1  0
  5  6  1  1
  7  6  2  0
  9  8  1  0
  9 10  1  1
 10 11  1  0
 11 12  2  0
 11 16  1  0
 12 13  1  0
 13 14  2  0
 15 14  1  0
 16 15  2  0
 17  9  1  0
 18 17  2  0
 19 17  1  0
 20 21  1  0
 20 19  1  0
 21 22  1  0
 23 21  2  0
M  END
$$$$
