HFN.pdb
     RDKit          3D

 30 31  0  0  1  0  0  0  0  0999 V2000
   10.6375  -16.6963   20.2874 N   0  0  0  0  0  0  0  0  0  0  0  0
    9.3752  -16.8557   20.9799 C   0  0  1  0  0  0  0  0  0  0  0  0
    9.2506  -18.3397   21.3316 C   0  0  0  0  0  0  0  0  0  0  0  0
    8.8837  -19.1223   20.1197 C   0  0  0  0  0  0  0  0  0  0  0  0
    7.9721  -18.8229   19.1303 C   0  0  0  0  0  0  0  0  0  0  0  0
    7.9379  -19.7973   18.2047 N   0  0  0  0  0  0  0  0  0  0  0  0
    8.8332  -20.7265   18.6039 C   0  0  0  0  0  0  0  0  0  0  0  0
    9.4045  -20.3229   19.7568 N   0  0  0  0  0  0  0  0  0  0  0  0
    9.4333  -16.0768   22.2235 C   0  0  0  0  0  0  0  0  0  0  0  0
   10.5074  -15.8348   22.8132 O   0  0  0  0  0  0  0  0  0  0  0  0
    8.2420  -15.5725   22.7921 N   0  0  0  0  0  0  0  0  0  0  0  0
    8.2152  -14.8003   24.0198 C   0  0  1  0  0  0  0  0  0  0  0  0
    6.9338  -14.0337   24.0399 C   0  0  0  0  0  0  0  0  0  0  0  0
    6.8661  -13.2692   25.3111 C   0  0  0  0  0  0  0  0  0  0  0  0
    7.6561  -12.1454   25.4145 C   0  0  0  0  0  0  0  0  0  0  0  0
    7.6782  -11.3489   26.5550 C   0  0  0  0  0  0  0  0  0  0  0  0
    6.8926  -11.6862   27.6124 C   0  0  0  0  0  0  0  0  0  0  0  0
    6.0942  -12.8156   27.5172 C   0  0  0  0  0  0  0  0  0  0  0  0
    6.0746  -13.6067   26.3798 C   0  0  0  0  0  0  0  0  0  0  0  0
    8.4398  -15.6437   25.2052 C   0  0  0  0  0  0  0  0  0  0  0  0
    8.3285  -15.1020   26.3356 O   0  0  0  0  0  0  0  0  0  0  0  0
    6.2542  -18.7334   26.2900 N   0  0  0  0  0  0  0  0  0  0  0  0
    7.2383  -19.6272   25.7862 C   0  0  0  0  0  0  0  0  0  0  0  0
    6.8472  -20.6954   25.2877 O   0  0  0  0  0  0  0  0  0  0  0  0
    8.6302  -19.2501   25.8795 C   0  0  0  0  0  0  0  0  0  0  0  0
    8.9233  -17.8516   26.3658 C   0  0  2  0  0  0  0  0  0  0  0  0
    8.7699  -17.0116   25.1665 N   0  0  0  0  0  0  0  0  0  0  0  0
   10.2905  -17.6994   26.9053 C   0  0  0  0  0  0  0  0  0  0  0  0
   11.1693  -17.1852   26.1805 O   0  0  0  0  0  0  0  0  0  0  0  0
   10.6014  -18.1069   28.1691 O   0  0  0  0  0  0  0  0  0  0  0  0
  2  3  1  0
  2  1  1  1
  3  4  1  0
  4  8  1  0
  4  5  2  0
  5  6  1  0
  7  6  1  0
  8  7  2  0
  9 11  1  0
  9  2  1  0
 10  9  2  0
 12 13  1  1
 12 11  1  0
 13 14  1  0
 14 15  2  0
 14 19  1  0
 15 16  1  0
 16 17  2  0
 18 17  1  0
 19 18  2  0
 20 12  1  0
 20 21  2  0
 22 23  1  0
 23 24  2  0
 23 25  1  0
 26 25  1  6
 26 27  1  0
 27 20  1  0
 28 26  1  0
 28 30  1  0
 29 28  2  0
M  END
$$$$
