HFN.pdb
     RDKit          3D

 30 31  0  0  1  0  0  0  0  0999 V2000
   11.3108  -16.0363   19.7942 N   0  0  0  0  0  0  0  0  0  0  0  0
    9.9872  -16.1863   20.3633 C   0  0  1  0  0  0  0  0  0  0  0  0
    9.7793  -17.6829   20.6054 C   0  0  0  0  0  0  0  0  0  0  0  0
    9.5611  -18.3838   19.3104 C   0  0  0  0  0  0  0  0  0  0  0  0
    9.6563  -17.8936   18.0258 C   0  0  0  0  0  0  0  0  0  0  0  0
    9.3801  -18.8555   17.1282 N   0  0  0  0  0  0  0  0  0  0  0  0
    9.1063  -19.9688   17.8424 C   0  0  0  0  0  0  0  0  0  0  0  0
    9.2145  -19.6879   19.1569 N   0  0  0  0  0  0  0  0  0  0  0  0
    9.9622  -15.4890   21.6554 C   0  0  0  0  0  0  0  0  0  0  0  0
   10.9938  -15.2953   22.3325 O   0  0  0  0  0  0  0  0  0  0  0  0
    8.7367  -15.0107   22.1714 N   0  0  0  0  0  0  0  0  0  0  0  0
    8.6240  -14.3422   23.4539 C   0  0  1  0  0  0  0  0  0  0  0  0
    7.3265  -13.6032   23.4622 C   0  0  0  0  0  0  0  0  0  0  0  0
    7.1729  -12.9428   24.7834 C   0  0  0  0  0  0  0  0  0  0  0  0
    7.9147  -11.8045   25.0100 C   0  0  0  0  0  0  0  0  0  0  0  0
    7.8555  -11.0990   26.2077 C   0  0  0  0  0  0  0  0  0  0  0  0
    7.0361  -11.5442   27.1974 C   0  0  0  0  0  0  0  0  0  0  0  0
    6.2858  -12.6892   26.9782 C   0  0  0  0  0  0  0  0  0  0  0  0
    6.3472  -13.3893   25.7840 C   0  0  0  0  0  0  0  0  0  0  0  0
    8.8014  -15.2756   24.5782 C   0  0  0  0  0  0  0  0  0  0  0  0
    8.6858  -14.8137   25.7431 O   0  0  0  0  0  0  0  0  0  0  0  0
    8.0568  -18.5795   27.9640 N   0  0  0  0  0  0  0  0  0  0  0  0
    7.3075  -18.8011   26.7763 C   0  0  0  0  0  0  0  0  0  0  0  0
    6.2216  -19.3947   26.8808 O   0  0  0  0  0  0  0  0  0  0  0  0
    7.8433  -18.3284   25.5201 C   0  0  0  0  0  0  0  0  0  0  0  0
    9.1551  -17.5841   25.5790 C   0  0  2  0  0  0  0  0  0  0  0  0
    9.0908  -16.6469   24.4455 N   0  0  0  0  0  0  0  0  0  0  0  0
   10.3303  -18.4665   25.4259 C   0  0  0  0  0  0  0  0  0  0  0  0
   10.6693  -19.1890   26.3877 O   0  0  0  0  0  0  0  0  0  0  0  0
   11.0404  -18.5031   24.2621 O   0  0  0  0  0  0  0  0  0  0  0  0
  2  3  1  0
  2  1  1  1
  3  4  1  0
  4  8  1  0
  4  5  2  0
  5  6  1  0
  7  6  1  0
  8  7  2  0
  9 11  1  0
  9  2  1  0
 10  9  2  0
 12 13  1  1
 12 11  1  0
 13 14  1  0
 14 15  2  0
 14 19  1  0
 15 16  1  0
 16 17  2  0
 18 17  1  0
 19 18  2  0
 20 12  1  0
 20 21  2  0
 22 23  1  0
 23 24  2  0
 23 25  1  0
 26 25  1  6
 26 27  1  0
 27 20  1  0
 28 26  1  0
 28 30  1  0
 29 28  2  0
M  END
$$$$
