HFN.pdb
     RDKit          3D

 30 31  0  0  1  0  0  0  0  0999 V2000
   10.3448  -16.9992   19.5396 N   0  0  0  0  0  0  0  0  0  0  0  0
    9.1702  -17.1622   20.3714 C   0  0  1  0  0  0  0  0  0  0  0  0
    9.0560  -18.6558   20.6838 C   0  0  0  0  0  0  0  0  0  0  0  0
    8.4516  -19.3740   19.5285 C   0  0  0  0  0  0  0  0  0  0  0  0
    7.1782  -19.2776   19.0101 C   0  0  0  0  0  0  0  0  0  0  0  0
    7.0300  -20.1002   17.9572 N   0  0  0  0  0  0  0  0  0  0  0  0
    8.2160  -20.7273   17.8003 C   0  0  0  0  0  0  0  0  0  0  0  0
    9.0742  -20.2922   18.7450 N   0  0  0  0  0  0  0  0  0  0  0  0
    9.3917  -16.4309   21.6255 C   0  0  0  0  0  0  0  0  0  0  0  0
   10.4879  -16.4439   22.2242 O   0  0  0  0  0  0  0  0  0  0  0  0
    8.3398  -15.6780   22.1943 N   0  0  0  0  0  0  0  0  0  0  0  0
    8.4687  -14.9569   23.4464 C   0  0  1  0  0  0  0  0  0  0  0  0
    7.2983  -14.0361   23.5564 C   0  0  0  0  0  0  0  0  0  0  0  0
    7.3989  -13.3039   24.8444 C   0  0  0  0  0  0  0  0  0  0  0  0
    6.4480  -13.5786   25.8024 C   0  0  0  0  0  0  0  0  0  0  0  0
    6.4383  -12.9565   27.0468 C   0  0  0  0  0  0  0  0  0  0  0  0
    7.4013  -12.0409   27.3358 C   0  0  0  0  0  0  0  0  0  0  0  0
    8.3624  -11.7581   26.3776 C   0  0  0  0  0  0  0  0  0  0  0  0
    8.3691  -12.3796   25.1392 C   0  0  0  0  0  0  0  0  0  0  0  0
    8.6379  -15.8675   24.5906 C   0  0  0  0  0  0  0  0  0  0  0  0
    7.6630  -16.5998   24.9018 O   0  0  0  0  0  0  0  0  0  0  0  0
   10.2012  -18.8316   24.3851 N   0  0  0  0  0  0  0  0  0  0  0  0
   11.3906  -18.5362   25.1058 C   0  0  0  0  0  0  0  0  0  0  0  0
   12.4319  -19.1220   24.7667 O   0  0  0  0  0  0  0  0  0  0  0  0
   11.3270  -17.5784   26.1860 C   0  0  0  0  0  0  0  0  0  0  0  0
    9.9822  -16.9484   26.4561 C   0  0  2  0  0  0  0  0  0  0  0  0
    9.8103  -15.9787   25.3618 N   0  0  0  0  0  0  0  0  0  0  0  0
    9.9207  -16.2458   27.7545 C   0  0  0  0  0  0  0  0  0  0  0  0
   10.2397  -15.0382   27.8006 O   0  0  0  0  0  0  0  0  0  0  0  0
    9.5241  -16.8901   28.8892 O   0  0  0  0  0  0  0  0  0  0  0  0
  2  3  1  0
  2  1  1  6
  3  4  1  0
  4  8  1  0
  4  5  2  0
  5  6  1  0
  7  6  1  0
  8  7  2  0
  9 11  1  0
  9  2  1  0
 10  9  2  0
 12 13  1  1
 12 11  1  0
 13 14  1  0
 14 15  2  0
 14 19  1  0
 15 16  1  0
 16 17  2  0
 18 17  1  0
 19 18  2  0
 20 12  1  0
 20 21  2  0
 22 23  1  0
 23 24  2  0
 23 25  1  0
 26 25  1  6
 26 27  1  0
 27 20  1  0
 28 26  1  0
 28 30  1  0
 29 28  2  0
M  END
$$$$
