HFN.pdb
     RDKit          3D

 30 31  0  0  1  0  0  0  0  0999 V2000
   10.0392  -17.1469   19.8438 N   0  0  0  0  0  0  0  0  0  0  0  0
    8.7246  -16.7359   20.2922 C   0  0  1  0  0  0  0  0  0  0  0  0
    7.8599  -17.9977   20.3350 C   0  0  0  0  0  0  0  0  0  0  0  0
    7.4503  -18.3826   18.9567 C   0  0  0  0  0  0  0  0  0  0  0  0
    7.8234  -17.8322   17.7495 C   0  0  0  0  0  0  0  0  0  0  0  0
    7.2266  -18.4735   16.7298 N   0  0  0  0  0  0  0  0  0  0  0  0
    6.4665  -19.4408   17.2875 C   0  0  0  0  0  0  0  0  0  0  0  0
    6.5990  -19.3886   18.6284 N   0  0  0  0  0  0  0  0  0  0  0  0
    8.8513  -16.2014   21.6541 C   0  0  0  0  0  0  0  0  0  0  0  0
    9.8078  -16.4935   22.4024 O   0  0  0  0  0  0  0  0  0  0  0  0
    7.8662  -15.3222   22.1576 N   0  0  0  0  0  0  0  0  0  0  0  0
    7.9263  -14.7422   23.4859 C   0  0  1  0  0  0  0  0  0  0  0  0
    7.0777  -13.5136   23.4778 C   0  0  0  0  0  0  0  0  0  0  0  0
    7.0870  -12.9299   24.8432 C   0  0  0  0  0  0  0  0  0  0  0  0
    5.9455  -13.0767   25.6001 C   0  0  0  0  0  0  0  0  0  0  0  0
    5.8348  -12.5733   26.8924 C   0  0  0  0  0  0  0  0  0  0  0  0
    6.8898  -11.9096   27.4360 C   0  0  0  0  0  0  0  0  0  0  0  0
    8.0428  -11.7570   26.6815 C   0  0  0  0  0  0  0  0  0  0  0  0
    8.1496  -12.2597   25.3947 C   0  0  0  0  0  0  0  0  0  0  0  0
    7.5747  -15.7194   24.5292 C   0  0  0  0  0  0  0  0  0  0  0  0
    6.4586  -16.2935   24.4377 O   0  0  0  0  0  0  0  0  0  0  0  0
    7.2711  -20.0806   26.9688 N   0  0  0  0  0  0  0  0  0  0  0  0
    8.2664  -19.7388   26.0128 C   0  0  0  0  0  0  0  0  0  0  0  0
    9.0897  -20.6138   25.6982 O   0  0  0  0  0  0  0  0  0  0  0  0
    8.2685  -18.4029   25.4616 C   0  0  0  0  0  0  0  0  0  0  0  0
    8.2044  -17.2618   26.4475 C   0  0  2  0  0  0  0  0  0  0  0  0
    8.3956  -16.0583   25.6213 N   0  0  0  0  0  0  0  0  0  0  0  0
    9.2598  -17.3267   27.4797 C   0  0  0  0  0  0  0  0  0  0  0  0
   10.3627  -16.7869   27.2468 O   0  0  0  0  0  0  0  0  0  0  0  0
    9.0477  -17.9592   28.6691 O   0  0  0  0  0  0  0  0  0  0  0  0
  2  3  1  0
  2  1  1  1
  3  4  1  0
  4  8  1  0
  4  5  2  0
  5  6  1  0
  7  6  1  0
  8  7  2  0
  9 11  1  0
  9  2  1  0
 10  9  2  0
 12 13  1  6
 12 11  1  0
 13 14  1  0
 14 15  2  0
 14 19  1  0
 15 16  1  0
 16 17  2  0
 18 17  1  0
 19 18  2  0
 20 12  1  0
 20 21  2  0
 22 23  1  0
 23 24  2  0
 23 25  1  0
 26 25  1  6
 26 27  1  0
 27 20  1  0
 28 26  1  0
 28 30  1  0
 29 28  2  0
M  END
$$$$
