HFN.pdb
     RDKit          3D

 30 31  0  0  1  0  0  0  0  0999 V2000
   11.2499  -15.8641   20.3092 N   0  0  0  0  0  0  0  0  0  0  0  0
    9.8765  -15.4534   20.5183 C   0  0  1  0  0  0  0  0  0  0  0  0
    8.9961  -16.6341   20.1027 C   0  0  0  0  0  0  0  0  0  0  0  0
    8.6414  -16.5236   18.6612 C   0  0  0  0  0  0  0  0  0  0  0  0
    9.0144  -15.5674   17.7414 C   0  0  0  0  0  0  0  0  0  0  0  0
    8.4775  -15.8309   16.5374 N   0  0  0  0  0  0  0  0  0  0  0  0
    7.7561  -16.9629   16.6872 C   0  0  0  0  0  0  0  0  0  0  0  0
    7.8528  -17.3826   17.9650 N   0  0  0  0  0  0  0  0  0  0  0  0
    9.6867  -15.2020   21.9525 C   0  0  0  0  0  0  0  0  0  0  0  0
   10.5359  -15.5284   22.8084 O   0  0  0  0  0  0  0  0  0  0  0  0
    8.5069  -14.5686   22.4040 N   0  0  0  0  0  0  0  0  0  0  0  0
    8.2813  -14.2101   23.7914 C   0  0  1  0  0  0  0  0  0  0  0  0
    7.1704  -13.2128   23.8222 C   0  0  0  0  0  0  0  0  0  0  0  0
    6.9323  -12.8216   25.2349 C   0  0  0  0  0  0  0  0  0  0  0  0
    7.9281  -12.1125   25.8698 C   0  0  0  0  0  0  0  0  0  0  0  0
    7.8202  -11.6910   27.1913 C   0  0  0  0  0  0  0  0  0  0  0  0
    6.6913  -11.9865   27.8895 C   0  0  0  0  0  0  0  0  0  0  0  0
    5.6838  -12.6998   27.2585 C   0  0  0  0  0  0  0  0  0  0  0  0
    5.7946  -13.1181   25.9421 C   0  0  0  0  0  0  0  0  0  0  0  0
    8.0608  -15.3949   24.6368 C   0  0  0  0  0  0  0  0  0  0  0  0
    8.0263  -15.2235   25.8830 O   0  0  0  0  0  0  0  0  0  0  0  0
    5.8843  -18.2475   21.8886 N   0  0  0  0  0  0  0  0  0  0  0  0
    5.7593  -18.2034   23.3042 C   0  0  0  0  0  0  0  0  0  0  0  0
    4.7511  -17.6545   23.7781 O   0  0  0  0  0  0  0  0  0  0  0  0
    6.8026  -18.7941   24.1110 C   0  0  0  0  0  0  0  0  0  0  0  0
    7.5753  -17.8606   25.0109 C   0  0  2  0  0  0  0  0  0  0  0  0
    7.8858  -16.7052   24.1530 N   0  0  0  0  0  0  0  0  0  0  0  0
    8.8306  -18.4515   25.5193 C   0  0  0  0  0  0  0  0  0  0  0  0
    8.7645  -19.4367   26.2855 O   0  0  0  0  0  0  0  0  0  0  0  0
   10.0456  -17.9424   25.1664 O   0  0  0  0  0  0  0  0  0  0  0  0
  2  3  1  0
  2  1  1  1
  3  4  1  0
  4  8  1  0
  4  5  2  0
  5  6  1  0
  7  6  1  0
  8  7  2  0
  9 11  1  0
  9  2  1  0
 10  9  2  0
 12 13  1  6
 12 11  1  0
 13 14  1  0
 14 15  2  0
 14 19  1  0
 15 16  1  0
 16 17  2  0
 18 17  1  0
 19 18  2  0
 20 12  1  0
 20 21  2  0
 22 23  1  0
 23 24  2  0
 23 25  1  0
 26 25  1  6
 26 27  1  0
 27 20  1  0
 28 26  1  0
 28 30  1  0
 29 28  2  0
M  END
$$$$
