HFN.pdb
     RDKit          3D

 30 31  0  0  1  0  0  0  0  0999 V2000
    9.6682  -16.7469   19.4371 N   0  0  0  0  0  0  0  0  0  0  0  0
    8.4201  -16.5670   20.1501 C   0  0  1  0  0  0  0  0  0  0  0  0
    7.7792  -17.9513   20.2715 C   0  0  0  0  0  0  0  0  0  0  0  0
    7.3156  -18.4179   18.9362 C   0  0  0  0  0  0  0  0  0  0  0  0
    7.3876  -17.7815   17.7158 C   0  0  0  0  0  0  0  0  0  0  0  0
    6.8528  -18.5465   16.7484 N   0  0  0  0  0  0  0  0  0  0  0  0
    6.4356  -19.6800   17.3530 C   0  0  0  0  0  0  0  0  0  0  0  0
    6.7129  -19.6056   18.6705 N   0  0  0  0  0  0  0  0  0  0  0  0
    8.7290  -16.0677   21.4960 C   0  0  0  0  0  0  0  0  0  0  0  0
    9.7461  -16.4255   22.1266 O   0  0  0  0  0  0  0  0  0  0  0  0
    7.8572  -15.1474   22.1205 N   0  0  0  0  0  0  0  0  0  0  0  0
    8.0694  -14.6412   23.4633 C   0  0  1  0  0  0  0  0  0  0  0  0
    7.0438  -13.5847   23.7118 C   0  0  0  0  0  0  0  0  0  0  0  0
    7.2052  -13.0945   25.1042 C   0  0  0  0  0  0  0  0  0  0  0  0
    8.2755  -12.2665   25.3617 C   0  0  0  0  0  0  0  0  0  0  0  0
    8.5305  -11.7446   26.6259 C   0  0  0  0  0  0  0  0  0  0  0  0
    7.6954  -12.0594   27.6519 C   0  0  0  0  0  0  0  0  0  0  0  0
    6.6156  -12.8922   27.4020 C   0  0  0  0  0  0  0  0  0  0  0  0
    6.3646  -13.4102   26.1416 C   0  0  0  0  0  0  0  0  0  0  0  0
    8.0857  -15.7222   24.4624 C   0  0  0  0  0  0  0  0  0  0  0  0
    7.0362  -16.4025   24.6023 O   0  0  0  0  0  0  0  0  0  0  0  0
    9.9636  -20.7579   25.2096 N   0  0  0  0  0  0  0  0  0  0  0  0
   10.1585  -19.5619   25.9532 C   0  0  0  0  0  0  0  0  0  0  0  0
   10.5480  -19.6690   27.1276 O   0  0  0  0  0  0  0  0  0  0  0  0
    9.8955  -18.2948   25.3099 C   0  0  0  0  0  0  0  0  0  0  0  0
    9.2375  -17.2294   26.1527 C   0  0  2  0  0  0  0  0  0  0  0  0
    9.1891  -16.0502   25.2726 N   0  0  0  0  0  0  0  0  0  0  0  0
   10.0002  -16.9037   27.3756 C   0  0  0  0  0  0  0  0  0  0  0  0
   10.9741  -16.1253   27.2875 O   0  0  0  0  0  0  0  0  0  0  0  0
    9.6583  -17.4341   28.5846 O   0  0  0  0  0  0  0  0  0  0  0  0
  2  3  1  0
  2  1  1  6
  3  4  1  0
  4  8  1  0
  4  5  2  0
  5  6  1  0
  7  6  1  0
  8  7  2  0
  9 11  1  0
  9  2  1  0
 10  9  2  0
 12 13  1  1
 12 11  1  0
 13 14  1  0
 14 15  2  0
 14 19  1  0
 15 16  1  0
 16 17  2  0
 18 17  1  0
 19 18  2  0
 20 12  1  0
 20 21  2  0
 22 23  1  0
 23 24  2  0
 23 25  1  0
 26 25  1  6
 26 27  1  0
 27 20  1  0
 28 26  1  0
 28 30  1  0
 29 28  2  0
M  END
$$$$
