HFN.pdb
     RDKit          3D

 30 31  0  0  1  0  0  0  0  0999 V2000
   10.4047  -16.5786   19.2978 N   0  0  0  0  0  0  0  0  0  0  0  0
    9.1533  -16.5053   20.0238 C   0  0  1  0  0  0  0  0  0  0  0  0
    8.7828  -17.9394   20.4081 C   0  0  0  0  0  0  0  0  0  0  0  0
    8.1873  -18.6432   19.2394 C   0  0  0  0  0  0  0  0  0  0  0  0
    7.9403  -18.1701   17.9687 C   0  0  0  0  0  0  0  0  0  0  0  0
    7.3896  -19.1284   17.2033 N   0  0  0  0  0  0  0  0  0  0  0  0
    7.2832  -20.2220   17.9889 C   0  0  0  0  0  0  0  0  0  0  0  0
    7.7628  -19.9330   19.2157 N   0  0  0  0  0  0  0  0  0  0  0  0
    9.3796  -15.7292   21.2497 C   0  0  0  0  0  0  0  0  0  0  0  0
   10.5099  -15.6084   21.7675 O   0  0  0  0  0  0  0  0  0  0  0  0
    8.2927  -15.0866   21.8844 N   0  0  0  0  0  0  0  0  0  0  0  0
    8.4075  -14.4152   23.1651 C   0  0  1  0  0  0  0  0  0  0  0  0
    7.0462  -13.9300   23.5410 C   0  0  0  0  0  0  0  0  0  0  0  0
    7.1383  -13.2541   24.8600 C   0  0  0  0  0  0  0  0  0  0  0  0
    6.1726  -13.5584   25.7939 C   0  0  0  0  0  0  0  0  0  0  0  0
    6.1539  -12.9894   27.0634 C   0  0  0  0  0  0  0  0  0  0  0  0
    7.1228  -12.0977   27.4026 C   0  0  0  0  0  0  0  0  0  0  0  0
    8.0988  -11.7853   26.4689 C   0  0  0  0  0  0  0  0  0  0  0  0
    8.1145  -12.3539   25.2054 C   0  0  0  0  0  0  0  0  0  0  0  0
    9.0519  -15.2679   24.1773 C   0  0  0  0  0  0  0  0  0  0  0  0
    9.9509  -14.7495   24.8893 O   0  0  0  0  0  0  0  0  0  0  0  0
   10.0662  -18.7285   27.8407 N   0  0  0  0  0  0  0  0  0  0  0  0
    9.4782  -17.4381   27.9436 C   0  0  0  0  0  0  0  0  0  0  0  0
    9.3550  -16.9485   29.0783 O   0  0  0  0  0  0  0  0  0  0  0  0
    9.0581  -16.7691   26.7335 C   0  0  0  0  0  0  0  0  0  0  0  0
    9.3914  -17.4524   25.4295 C   0  0  2  0  0  0  0  0  0  0  0  0
    8.7362  -16.6203   24.4070 N   0  0  0  0  0  0  0  0  0  0  0  0
    8.8740  -18.8342   25.3497 C   0  0  0  0  0  0  0  0  0  0  0  0
    9.3446  -19.6981   26.1205 O   0  0  0  0  0  0  0  0  0  0  0  0
    7.9004  -19.1743   24.4573 O   0  0  0  0  0  0  0  0  0  0  0  0
  2  3  1  0
  2  1  1  6
  3  4  1  0
  4  8  1  0
  4  5  2  0
  5  6  1  0
  7  6  1  0
  8  7  2  0
  9 11  1  0
  9  2  1  0
 10  9  2  0
 12 13  1  1
 12 11  1  0
 13 14  1  0
 14 15  2  0
 14 19  1  0
 15 16  1  0
 16 17  2  0
 18 17  1  0
 19 18  2  0
 20 12  1  0
 20 21  2  0
 22 23  1  0
 23 24  2  0
 23 25  1  0
 26 25  1  1
 26 27  1  0
 27 20  1  0
 28 26  1  0
 28 30  1  0
 29 28  2  0
M  END
$$$$
