HFN.pdb
     RDKit          3D

 30 31  0  0  1  0  0  0  0  0999 V2000
    7.7828  -15.9137   19.9638 N   0  0  0  0  0  0  0  0  0  0  0  0
    9.0554  -15.2576   20.1838 C   0  0  1  0  0  0  0  0  0  0  0  0
    8.9742  -13.8960   19.4900 C   0  0  0  0  0  0  0  0  0  0  0  0
    8.4655  -14.0607   18.1008 C   0  0  0  0  0  0  0  0  0  0  0  0
    7.4764  -14.8952   17.6266 C   0  0  0  0  0  0  0  0  0  0  0  0
    7.3184  -14.7397   16.3007 N   0  0  0  0  0  0  0  0  0  0  0  0
    8.2119  -13.7997   15.9233 C   0  0  0  0  0  0  0  0  0  0  0  0
    8.9043  -13.3888   17.0051 N   0  0  0  0  0  0  0  0  0  0  0  0
    9.2179  -15.0452   21.6277 C   0  0  0  0  0  0  0  0  0  0  0  0
   10.2374  -14.5142   22.1165 O   0  0  0  0  0  0  0  0  0  0  0  0
    8.1957  -15.4488   22.5159 N   0  0  0  0  0  0  0  0  0  0  0  0
    8.2916  -15.2975   23.9555 C   0  0  1  0  0  0  0  0  0  0  0  0
    6.9114  -15.0633   24.4750 C   0  0  0  0  0  0  0  0  0  0  0  0
    6.9573  -13.9252   25.4279 C   0  0  0  0  0  0  0  0  0  0  0  0
    7.7732  -12.8636   25.1041 C   0  0  0  0  0  0  0  0  0  0  0  0
    7.8989  -11.7416   25.9172 C   0  0  0  0  0  0  0  0  0  0  0  0
    7.1924  -11.6834   27.0776 C   0  0  0  0  0  0  0  0  0  0  0  0
    6.3687  -12.7474   27.4115 C   0  0  0  0  0  0  0  0  0  0  0  0
    6.2458  -13.8634   26.5994 C   0  0  0  0  0  0  0  0  0  0  0  0
    8.9952  -16.4287   24.5818 C   0  0  0  0  0  0  0  0  0  0  0  0
    8.4134  -17.5446   24.5898 O   0  0  0  0  0  0  0  0  0  0  0  0
   12.0745  -17.6047   23.3473 N   0  0  0  0  0  0  0  0  0  0  0  0
   12.9399  -17.2824   24.4283 C   0  0  0  0  0  0  0  0  0  0  0  0
   14.1383  -17.0843   24.1694 O   0  0  0  0  0  0  0  0  0  0  0  0
   12.3853  -17.2029   25.7604 C   0  0  0  0  0  0  0  0  0  0  0  0
   10.9055  -17.4671   25.8963 C   0  0  2  0  0  0  0  0  0  0  0  0
   10.2709  -16.3534   25.1722 N   0  0  0  0  0  0  0  0  0  0  0  0
   10.4435  -17.4724   27.2998 C   0  0  0  0  0  0  0  0  0  0  0  0
    9.9530  -16.4258   27.7754 O   0  0  0  0  0  0  0  0  0  0  0  0
   10.5431  -18.5914   28.0729 O   0  0  0  0  0  0  0  0  0  0  0  0
  2  3  1  0
  2  1  1  1
  3  4  1  0
  4  8  1  0
  4  5  2  0
  5  6  1  0
  7  6  1  0
  8  7  2  0
  9 11  1  0
  9  2  1  0
 10  9  2  0
 12 13  1  1
 12 11  1  0
 13 14  1  0
 14 15  2  0
 14 19  1  0
 15 16  1  0
 16 17  2  0
 18 17  1  0
 19 18  2  0
 20 12  1  0
 20 21  2  0
 22 23  1  0
 23 24  2  0
 23 25  1  0
 26 25  1  1
 26 27  1  0
 27 20  1  0
 28 26  1  0
 28 30  1  0
 29 28  2  0
M  END
$$$$
