HFN.pdb
     RDKit          3D

 30 31  0  0  1  0  0  0  0  0999 V2000
    8.9120  -17.8213   19.1320 N   0  0  0  0  0  0  0  0  0  0  0  0
   10.1820  -17.1244   19.1341 C   0  0  1  0  0  0  0  0  0  0  0  0
   10.1097  -16.0746   18.0231 C   0  0  0  0  0  0  0  0  0  0  0  0
    9.9779  -16.7413   16.6987 C   0  0  0  0  0  0  0  0  0  0  0  0
    9.8765  -18.0838   16.4037 C   0  0  0  0  0  0  0  0  0  0  0  0
    9.7732  -18.2724   15.0766 N   0  0  0  0  0  0  0  0  0  0  0  0
    9.8087  -17.0430   14.5183 C   0  0  0  0  0  0  0  0  0  0  0  0
    9.9320  -16.1188   15.4926 N   0  0  0  0  0  0  0  0  0  0  0  0
   10.3267  -16.4396   20.4250 C   0  0  0  0  0  0  0  0  0  0  0  0
   11.3463  -15.7834   20.7250 O   0  0  0  0  0  0  0  0  0  0  0  0
    9.2864  -16.5123   21.3786 N   0  0  0  0  0  0  0  0  0  0  0  0
    9.3606  -15.8791   22.6817 C   0  0  1  0  0  0  0  0  0  0  0  0
    8.0509  -15.2056   22.9285 C   0  0  0  0  0  0  0  0  0  0  0  0
    7.8158  -14.2260   21.8374 C   0  0  0  0  0  0  0  0  0  0  0  0
    6.8839  -14.5599   20.8795 C   0  0  0  0  0  0  0  0  0  0  0  0
    6.5780  -13.7241   19.8101 C   0  0  0  0  0  0  0  0  0  0  0  0
    7.2193  -12.5302   19.6995 C   0  0  0  0  0  0  0  0  0  0  0  0
    8.1588  -12.1858   20.6591 C   0  0  0  0  0  0  0  0  0  0  0  0
    8.4611  -13.0207   21.7229 C   0  0  0  0  0  0  0  0  0  0  0  0
    9.7660  -16.8276   23.7318 C   0  0  0  0  0  0  0  0  0  0  0  0
    9.8182  -16.4005   24.9145 O   0  0  0  0  0  0  0  0  0  0  0  0
   12.5651  -21.1363   25.4700 N   0  0  0  0  0  0  0  0  0  0  0  0
   11.4690  -21.4378   24.6163 C   0  0  0  0  0  0  0  0  0  0  0  0
   11.0666  -22.6124   24.5860 O   0  0  0  0  0  0  0  0  0  0  0  0
   10.8850  -20.3716   23.8349 C   0  0  0  0  0  0  0  0  0  0  0  0
   10.5678  -19.0897   24.5659 C   0  0  2  0  0  0  0  0  0  0  0  0
   10.0994  -18.1771   23.5099 N   0  0  0  0  0  0  0  0  0  0  0  0
   11.7423  -18.5021   25.2431 C   0  0  0  0  0  0  0  0  0  0  0  0
   12.6896  -18.0795   24.5459 O   0  0  0  0  0  0  0  0  0  0  0  0
   11.8044  -18.4148   26.6027 O   0  0  0  0  0  0  0  0  0  0  0  0
  2  3  1  0
  2  1  1  1
  3  4  1  0
  4  8  1  0
  4  5  2  0
  5  6  1  0
  7  6  1  0
  8  7  2  0
  9 11  1  0
  9  2  1  0
 10  9  2  0
 12 13  1  1
 12 11  1  0
 13 14  1  0
 14 15  2  0
 14 19  1  0
 15 16  1  0
 16 17  2  0
 18 17  1  0
 19 18  2  0
 20 12  1  0
 20 21  2  0
 22 23  1  0
 23 24  2  0
 23 25  1  0
 26 25  1  6
 26 27  1  0
 27 20  1  0
 28 26  1  0
 28 30  1  0
 29 28  2  0
M  END
$$$$
