RIE.pdb
     RDKit          3D

 29 28  0  0  1  0  0  0  0  0999 V2000
   30.5080  -23.6308  -18.0413 N   0  0  0  0  0  0  0  0  0  0  0  0
   30.4896  -22.3629  -18.7022 C   0  0  0  0  0  0  0  0  0  0  0  0
   31.0820  -22.2323  -19.8400 N   0  0  0  0  0  0  0  0  0  0  0  0
   29.8129  -21.2845  -18.0765 N   0  0  0  0  0  0  0  0  0  0  0  0
   28.8156  -21.5946  -17.0735 C   0  0  0  0  0  0  0  0  0  0  0  0
   27.4936  -21.0046  -17.5069 C   0  0  0  0  0  0  0  0  0  0  0  0
   26.3773  -21.3052  -16.5364 C   0  0  0  0  0  0  0  0  0  0  0  0
   26.8741  -22.0893  -15.3201 C   0  0  2  0  0  0  0  0  0  0  0  0
   27.2208  -23.4378  -15.7350 N   0  0  0  0  0  0  0  0  0  0  0  0
   25.7551  -22.0893  -14.3427 C   0  0  0  0  0  0  0  0  0  0  0  0
   24.8621  -22.9613  -14.4624 O   0  0  0  0  0  0  0  0  0  0  0  0
   31.0819  -21.3174  -20.3296 C   0  0  0  0  0  0  0  0  0  0  0  0
   26.8915  -20.6624   -9.2585 C   0  0  0  0  0  0  0  0  0  0  0  0
   26.2835  -21.3216  -10.4457 C   0  0  2  0  0  0  0  0  0  0  0  0
   25.1113  -20.6631  -11.0565 C   0  0  0  0  0  0  0  0  0  0  0  0
   24.0868  -20.2111  -10.0192 C   0  0  2  0  0  0  0  0  0  0  0  0
   24.5391  -21.1849  -12.3095 N   0  0  0  0  0  0  0  0  0  0  0  0
   25.6710  -21.1408  -13.2906 C   0  0  0  0  0  0  0  0  0  0  0  0
   23.4389  -20.5206  -12.9567 O   0  0  0  0  0  0  0  0  0  0  0  0
   23.5275  -19.2992  -13.3342 N   0  0  0  0  0  0  0  0  0  0  0  0
   22.2136  -21.1735  -13.2183 C   0  0  1  0  0  0  0  0  0  0  0  0
   21.1261  -20.4224  -13.9051 C   0  0  0  0  0  0  0  0  0  0  0  0
   20.7737  -21.2775  -15.0891 C   0  0  0  0  0  0  0  0  0  0  0  0
   19.6601  -20.8786  -15.9521 C   0  0  0  0  0  0  0  0  0  0  0  0
   19.2868  -21.7523  -17.0670 O   0  0  0  0  0  0  0  0  0  0  0  0
   18.3321  -21.3979  -17.8382 C   0  0  0  0  0  0  0  0  0  0  0  0
   20.0732  -20.2076  -12.9294 O   0  0  0  0  0  0  0  0  0  0  0  0
   19.9580  -20.9380  -11.9231 O   0  0  0  0  0  0  0  0  0  0  0  0
   19.9115  -22.9652  -17.3558 O   0  0  0  0  0  0  0  0  0  0  0  0
  2  1  1  0
  3  2  2  0
  4  2  1  0
  5  4  1  0
  6  5  1  0
  7  6  1  0
  7  8  1  0
  8  9  1  6
 10 11  2  0
 10  8  1  0
 13 12  1  0
 13 14  1  0
 14 15  1  6
 16 14  1  0
 16 17  1  1
 17 10  1  0
 18 16  1  0
 19 18  2  0
 20 18  1  0
 21 20  1  0
 21 22  1  1
 22 23  1  0
 24 23  1  0
 24 25  2  0
 26 29  1  0
 26 21  1  0
 27 26  2  0
 28 24  1  0
M  END
$$$$
