RIE.pdb
     RDKit          3D

 29 28  0  0  1  0  0  0  0  0999 V2000
   24.4978  -18.4204  -19.0817 N   0  0  0  0  0  0  0  0  0  0  0  0
   25.3776  -17.4851  -18.4526 C   0  0  0  0  0  0  0  0  0  0  0  0
   26.1638  -16.7665  -19.1792 N   0  0  0  0  0  0  0  0  0  0  0  0
   25.3526  -17.3800  -17.0381 N   0  0  0  0  0  0  0  0  0  0  0  0
   24.2709  -18.0264  -16.3248 C   0  0  0  0  0  0  0  0  0  0  0  0
   24.3724  -19.5186  -16.5407 C   0  0  0  0  0  0  0  0  0  0  0  0
   24.2033  -20.3033  -15.2624 C   0  0  0  0  0  0  0  0  0  0  0  0
   25.5399  -20.5385  -14.5561 C   0  0  2  0  0  0  0  0  0  0  0  0
   26.3684  -21.3983  -15.3838 N   0  0  0  0  0  0  0  0  0  0  0  0
   25.2137  -21.1810  -13.2567 C   0  0  0  0  0  0  0  0  0  0  0  0
   24.9323  -22.4029  -13.2525 O   0  0  0  0  0  0  0  0  0  0  0  0
   26.8275  -16.1032  -18.7362 C   0  0  0  0  0  0  0  0  0  0  0  0
   26.3923  -20.4835   -7.3217 C   0  0  0  0  0  0  0  0  0  0  0  0
   25.4933  -21.0864   -8.3425 C   0  0  2  0  0  0  0  0  0  0  0  0
   25.5614  -20.5356   -9.7110 C   0  0  0  0  0  0  0  0  0  0  0  0
   25.7063  -19.0161   -9.7242 C   0  0  2  0  0  0  0  0  0  0  0  0
   24.7045  -21.0878  -10.7742 N   0  0  0  0  0  0  0  0  0  0  0  0
   25.2120  -20.4579  -12.0357 C   0  0  0  0  0  0  0  0  0  0  0  0
   23.2830  -20.8639  -10.7738 O   0  0  0  0  0  0  0  0  0  0  0  0
   22.7922  -19.7000  -10.9894 N   0  0  0  0  0  0  0  0  0  0  0  0
   22.3566  -21.9061  -10.5468 C   0  0  1  0  0  0  0  0  0  0  0  0
   20.8998  -21.5978  -10.5757 C   0  0  0  0  0  0  0  0  0  0  0  0
   20.4160  -22.2065  -11.8613 C   0  0  0  0  0  0  0  0  0  0  0  0
   18.9860  -22.1726  -12.1740 C   0  0  0  0  0  0  0  0  0  0  0  0
   18.5121  -22.8670  -13.3737 O   0  0  0  0  0  0  0  0  0  0  0  0
   19.3604  -23.4651  -14.1183 C   0  0  0  0  0  0  0  0  0  0  0  0
   20.3257  -22.1318   -9.3542 O   0  0  0  0  0  0  0  0  0  0  0  0
   20.9859  -22.8672   -8.5908 O   0  0  0  0  0  0  0  0  0  0  0  0
   17.1759  -22.9266  -13.7687 O   0  0  0  0  0  0  0  0  0  0  0  0
  2  1  1  0
  3  2  2  0
  4  2  1  0
  5  4  1  0
  6  5  1  0
  7  6  1  0
  7  8  1  0
  8  9  1  6
 10 11  2  0
 10  8  1  0
 13 12  1  0
 13 14  1  0
 14 15  1  6
 16 14  1  0
 16 17  1  1
 17 10  1  0
 18 16  1  0
 19 18  2  0
 20 18  1  0
 21 20  1  0
 21 22  1  1
 22 23  1  0
 24 23  1  0
 24 25  2  0
 26 29  1  0
 26 21  1  0
 27 26  2  0
 28 24  1  0
M  END
$$$$
