RIE.pdb
     RDKit          3D

 29 28  0  0  1  0  0  0  0  0999 V2000
   13.6617  -10.4003  -15.1185 N   0  0  0  0  0  0  0  0  0  0  0  0
   13.7925  -11.1695  -16.3167 C   0  0  0  0  0  0  0  0  0  0  0  0
   12.7711  -11.8099  -16.7738 N   0  0  0  0  0  0  0  0  0  0  0  0
   15.0535  -11.1997  -16.9659 N   0  0  0  0  0  0  0  0  0  0  0  0
   16.1825  -10.5928  -16.2924 C   0  0  0  0  0  0  0  0  0  0  0  0
   17.3849  -10.6618  -17.2052 C   0  0  0  0  0  0  0  0  0  0  0  0
   18.6262  -10.0776  -16.5760 C   0  0  0  0  0  0  0  0  0  0  0  0
   19.7959  -11.0636  -16.5988 C   0  0  2  0  0  0  0  0  0  0  0  0
   19.3102  -12.3834  -16.2340 N   0  0  0  0  0  0  0  0  0  0  0  0
   20.7854  -10.5545  -15.6143 C   0  0  0  0  0  0  0  0  0  0  0  0
   20.5051  -10.6349  -14.3948 O   0  0  0  0  0  0  0  0  0  0  0  0
   12.8477  -12.3655  -17.6468 C   0  0  0  0  0  0  0  0  0  0  0  0
   26.7003  -10.8788  -15.0128 C   0  0  0  0  0  0  0  0  0  0  0  0
   25.4866  -10.1538  -14.5489 C   0  0  2  0  0  0  0  0  0  0  0  0
   24.2647  -10.2919  -15.3665 C   0  0  0  0  0  0  0  0  0  0  0  0
   24.5618  -10.3220  -16.8634 C   0  0  2  0  0  0  0  0  0  0  0  0
   23.0373   -9.5695  -14.9904 N   0  0  0  0  0  0  0  0  0  0  0  0
   22.0236   -9.9868  -16.0121 C   0  0  0  0  0  0  0  0  0  0  0  0
   22.9987   -8.1311  -14.9710 O   0  0  0  0  0  0  0  0  0  0  0  0
   23.5898   -7.4615  -14.0522 N   0  0  0  0  0  0  0  0  0  0  0  0
   22.3210   -7.3826  -15.9591 C   0  0  2  0  0  0  0  0  0  0  0  0
   22.2018   -5.9072  -15.7936 C   0  0  0  0  0  0  0  0  0  0  0  0
   20.9617   -5.5457  -16.5611 C   0  0  0  0  0  0  0  0  0  0  0  0
   20.4543   -4.1739  -16.4934 C   0  0  0  0  0  0  0  0  0  0  0  0
   19.2153   -3.8468  -17.2032 O   0  0  0  0  0  0  0  0  0  0  0  0
   18.6717   -4.7363  -17.9414 C   0  0  0  0  0  0  0  0  0  0  0  0
   22.1781   -5.6377  -14.3676 O   0  0  0  0  0  0  0  0  0  0  0  0
   21.6408   -6.4278  -13.5636 O   0  0  0  0  0  0  0  0  0  0  0  0
   18.5713   -2.6121  -17.1281 O   0  0  0  0  0  0  0  0  0  0  0  0
  2  1  1  0
  3  2  2  0
  4  2  1  0
  5  4  1  0
  6  5  1  0
  7  6  1  0
  7  8  1  0
  8  9  1  1
 10 11  2  0
 10  8  1  0
 13 12  1  0
 13 14  1  0
 14 15  1  1
 16 14  1  0
 16 17  1  6
 17 10  1  0
 18 16  1  0
 19 18  2  0
 20 18  1  0
 21 20  1  0
 21 22  1  1
 22 23  1  0
 24 23  1  0
 24 25  2  0
 26 29  1  0
 26 21  1  0
 27 26  2  0
 28 24  1  0
M  END
$$$$
