RIE.pdb
     RDKit          3D

 29 28  0  0  1  0  0  0  0  0999 V2000
   29.9500  -26.7129  -16.0667 N   0  0  0  0  0  0  0  0  0  0  0  0
   28.6542  -27.0622  -16.5599 C   0  0  0  0  0  0  0  0  0  0  0  0
   28.0443  -28.0872  -16.0699 N   0  0  0  0  0  0  0  0  0  0  0  0
   28.0804  -26.2600  -17.5796 N   0  0  0  0  0  0  0  0  0  0  0  0
   28.7451  -25.0220  -17.9290 C   0  0  0  0  0  0  0  0  0  0  0  0
   28.9314  -24.2017  -16.6735 C   0  0  0  0  0  0  0  0  0  0  0  0
   27.6389  -23.6036  -16.1734 C   0  0  0  0  0  0  0  0  0  0  0  0
   27.5963  -22.0874  -16.3742 C   0  0  2  0  0  0  0  0  0  0  0  0
   28.8845  -21.5245  -16.0076 N   0  0  0  0  0  0  0  0  0  0  0  0
   26.5100  -21.5840  -15.4944 C   0  0  0  0  0  0  0  0  0  0  0  0
   26.7924  -21.2972  -14.3069 O   0  0  0  0  0  0  0  0  0  0  0  0
   27.1563  -28.4201  -16.4908 C   0  0  0  0  0  0  0  0  0  0  0  0
   22.1688  -17.7610  -15.6340 C   0  0  0  0  0  0  0  0  0  0  0  0
   23.2177  -18.4204  -14.8100 C   0  0  1  0  0  0  0  0  0  0  0  0
   24.1114  -19.3762  -15.4944 C   0  0  0  0  0  0  0  0  0  0  0  0
   24.1744  -19.1431  -17.0016 C   0  0  2  0  0  0  0  0  0  0  0  0
   24.1371  -20.7901  -15.0822 N   0  0  0  0  0  0  0  0  0  0  0  0
   25.1782  -21.4210  -15.9563 C   0  0  0  0  0  0  0  0  0  0  0  0
   22.9695  -21.6218  -15.2080 O   0  0  0  0  0  0  0  0  0  0  0  0
   22.5456  -22.0053  -16.3549 N   0  0  0  0  0  0  0  0  0  0  0  0
   22.2366  -22.0657  -14.0847 C   0  0  2  0  0  0  0  0  0  0  0  0
   20.9627  -22.8070  -14.2993 C   0  0  0  0  0  0  0  0  0  0  0  0
   19.9477  -22.0424  -13.4977 C   0  0  0  0  0  0  0  0  0  0  0  0
   18.9640  -22.7791  -12.7018 C   0  0  0  0  0  0  0  0  0  0  0  0
   17.9649  -22.0227  -11.9432 O   0  0  0  0  0  0  0  0  0  0  0  0
   17.0663  -22.6598  -11.2964 C   0  0  0  0  0  0  0  0  0  0  0  0
   20.7394  -22.8668  -15.7322 O   0  0  0  0  0  0  0  0  0  0  0  0
   20.4082  -23.9304  -16.2966 O   0  0  0  0  0  0  0  0  0  0  0  0
   17.9237  -20.6306  -11.8716 O   0  0  0  0  0  0  0  0  0  0  0  0
  2  1  1  0
  3  2  2  0
  4  2  1  0
  5  4  1  0
  6  5  1  0
  7  6  1  0
  7  8  1  0
  8  9  1  1
 10 11  2  0
 10  8  1  0
 13 12  1  0
 13 14  1  0
 14 15  1  6
 16 14  1  0
 16 17  1  6
 17 10  1  0
 18 16  1  0
 19 18  2  0
 20 18  1  0
 21 20  1  0
 21 22  1  1
 22 23  1  0
 24 23  1  0
 24 25  2  0
 26 29  1  0
 26 21  1  0
 27 26  2  0
 28 24  1  0
M  END
$$$$
