RIE.pdb
     RDKit          3D

 29 28  0  0  1  0  0  0  0  0999 V2000
   27.0447  -18.4032  -18.5473 N   0  0  0  0  0  0  0  0  0  0  0  0
   27.4784  -17.0785  -18.2288 C   0  0  0  0  0  0  0  0  0  0  0  0
   27.9704  -16.3319  -19.1577 N   0  0  0  0  0  0  0  0  0  0  0  0
   27.3497  -16.6291  -16.8895 N   0  0  0  0  0  0  0  0  0  0  0  0
   27.9072  -17.4523  -15.8368 C   0  0  0  0  0  0  0  0  0  0  0  0
   27.9832  -18.8796  -16.3276 C   0  0  0  0  0  0  0  0  0  0  0  0
   26.9804  -19.7812  -15.6494 C   0  0  0  0  0  0  0  0  0  0  0  0
   27.6159  -20.5932  -14.5191 C   0  0  2  0  0  0  0  0  0  0  0  0
   28.4528  -21.6321  -15.0945 N   0  0  0  0  0  0  0  0  0  0  0  0
   26.4896  -21.1687  -13.7394 C   0  0  0  0  0  0  0  0  0  0  0  0
   25.9892  -22.2504  -14.1289 O   0  0  0  0  0  0  0  0  0  0  0  0
   28.3345  -15.3864  -18.9334 C   0  0  0  0  0  0  0  0  0  0  0  0
   26.7590  -20.7709   -8.4423 C   0  0  0  0  0  0  0  0  0  0  0  0
   26.4289  -21.2890   -9.7974 C   0  0  2  0  0  0  0  0  0  0  0  0
   25.1541  -20.8460  -10.3968 C   0  0  0  0  0  0  0  0  0  0  0  0
   23.9755  -20.9868   -9.4372 C   0  0  2  0  0  0  0  0  0  0  0  0
   24.8508  -21.1573  -11.8042 N   0  0  0  0  0  0  0  0  0  0  0  0
   25.9715  -20.5349  -12.5803 C   0  0  0  0  0  0  0  0  0  0  0  0
   23.6410  -20.6863  -12.4249 O   0  0  0  0  0  0  0  0  0  0  0  0
   23.3829  -19.4345  -12.5158 N   0  0  0  0  0  0  0  0  0  0  0  0
   22.6826  -21.5684  -12.9721 C   0  0  1  0  0  0  0  0  0  0  0  0
   21.4051  -21.0123  -13.4984 C   0  0  0  0  0  0  0  0  0  0  0  0
   20.7520  -22.1734  -14.1931 C   0  0  0  0  0  0  0  0  0  0  0  0
   19.3960  -22.0178  -14.7232 C   0  0  0  0  0  0  0  0  0  0  0  0
   18.7484  -23.1739  -15.3478 O   0  0  0  0  0  0  0  0  0  0  0  0
   19.3739  -24.2870  -15.3875 C   0  0  0  0  0  0  0  0  0  0  0  0
   20.6866  -20.4502  -12.3695 O   0  0  0  0  0  0  0  0  0  0  0  0
   20.7022  -20.9992  -11.2480 O   0  0  0  0  0  0  0  0  0  0  0  0
   17.4728  -23.1486  -15.9107 O   0  0  0  0  0  0  0  0  0  0  0  0
  2  1  1  0
  3  2  2  0
  4  2  1  0
  5  4  1  0
  6  5  1  0
  7  6  1  0
  7  8  1  0
  8  9  1  6
 10 11  2  0
 10  8  1  0
 13 12  1  0
 13 14  1  0
 14 15  1  6
 16 14  1  0
 16 17  1  6
 17 10  1  0
 18 16  1  0
 19 18  2  0
 20 18  1  0
 21 20  1  0
 21 22  1  1
 22 23  1  0
 24 23  1  0
 24 25  2  0
 26 29  1  0
 26 21  1  0
 27 26  2  0
 28 24  1  0
M  END
$$$$
