RIE.pdb
     RDKit          3D

 29 28  0  0  1  0  0  0  0  0999 V2000
   27.6114  -20.8145  -19.2055 N   0  0  0  0  0  0  0  0  0  0  0  0
   27.4464  -19.3946  -19.2405 C   0  0  0  0  0  0  0  0  0  0  0  0
   26.7334  -18.8618  -20.1733 N   0  0  0  0  0  0  0  0  0  0  0  0
   28.0787  -18.6160  -18.2372 N   0  0  0  0  0  0  0  0  0  0  0  0
   28.6340  -19.3024  -17.0895 C   0  0  0  0  0  0  0  0  0  0  0  0
   28.2354  -18.5541  -15.8386 C   0  0  0  0  0  0  0  0  0  0  0  0
   27.1348  -19.2474  -15.0729 C   0  0  0  0  0  0  0  0  0  0  0  0
   27.6675  -20.4135  -14.2378 C   0  0  2  0  0  0  0  0  0  0  0  0
   28.1708  -21.4441  -15.1297 N   0  0  0  0  0  0  0  0  0  0  0  0
   26.5199  -20.9025  -13.4307 C   0  0  0  0  0  0  0  0  0  0  0  0
   25.8274  -21.8410  -13.8909 O   0  0  0  0  0  0  0  0  0  0  0  0
   26.5914  -17.8344  -20.2032 C   0  0  0  0  0  0  0  0  0  0  0  0
   27.0755  -20.5094   -8.1060 C   0  0  0  0  0  0  0  0  0  0  0  0
   26.6493  -21.0724   -9.4157 C   0  0  2  0  0  0  0  0  0  0  0  0
   25.3734  -20.5844   -9.9766 C   0  0  0  0  0  0  0  0  0  0  0  0
   24.2147  -20.7079   -8.9906 C   0  0  2  0  0  0  0  0  0  0  0  0
   25.0275  -20.8641  -11.3808 N   0  0  0  0  0  0  0  0  0  0  0  0
   26.1908  -20.3430  -12.1689 C   0  0  0  0  0  0  0  0  0  0  0  0
   23.8580  -20.2851  -11.9871 O   0  0  0  0  0  0  0  0  0  0  0  0
   23.7365  -19.0165  -12.1217 N   0  0  0  0  0  0  0  0  0  0  0  0
   22.7917  -21.0750  -12.4719 C   0  0  1  0  0  0  0  0  0  0  0  0
   21.6229  -20.4026  -13.1044 C   0  0  0  0  0  0  0  0  0  0  0  0
   21.2814  -21.2760  -14.2782 C   0  0  0  0  0  0  0  0  0  0  0  0
   20.1647  -22.2166  -14.1677 C   0  0  0  0  0  0  0  0  0  0  0  0
   19.9040  -23.1322  -15.2811 O   0  0  0  0  0  0  0  0  0  0  0  0
   20.7103  -23.1473  -16.2718 C   0  0  0  0  0  0  0  0  0  0  0  0
   20.6015  -20.2697  -12.0817 O   0  0  0  0  0  0  0  0  0  0  0  0
   19.6793  -19.4342  -12.1860 O   0  0  0  0  0  0  0  0  0  0  0  0
   18.8202  -24.0080  -15.3386 O   0  0  0  0  0  0  0  0  0  0  0  0
  2  1  1  0
  3  2  2  0
  4  2  1  0
  5  4  1  0
  6  5  1  0
  7  6  1  0
  7  8  1  0
  8  9  1  6
 10 11  2  0
 10  8  1  0
 13 12  1  0
 13 14  1  0
 14 15  1  6
 16 14  1  0
 16 17  1  6
 17 10  1  0
 18 16  1  0
 19 18  2  0
 20 18  1  0
 21 20  1  0
 21 22  1  1
 22 23  1  0
 24 23  1  0
 24 25  2  0
 26 29  1  0
 26 21  1  0
 27 26  2  0
 28 24  1  0
M  END
$$$$
