RIE.pdb
     RDKit          3D

 29 28  0  0  1  0  0  0  0  0999 V2000
   24.5988  -24.0029  -17.6823 N   0  0  0  0  0  0  0  0  0  0  0  0
   25.4896  -24.3631  -16.6234 C   0  0  0  0  0  0  0  0  0  0  0  0
   26.1438  -25.4718  -16.6947 N   0  0  0  0  0  0  0  0  0  0  0  0
   25.6233  -23.4784  -15.5225 N   0  0  0  0  0  0  0  0  0  0  0  0
   24.7902  -22.2944  -15.4934 C   0  0  0  0  0  0  0  0  0  0  0  0
   25.6316  -21.1215  -15.0463 C   0  0  0  0  0  0  0  0  0  0  0  0
   25.3002  -20.6697  -13.6447 C   0  0  0  0  0  0  0  0  0  0  0  0
   26.5095  -20.7679  -12.7125 C   0  0  2  0  0  0  0  0  0  0  0  0
   27.4348  -21.7564  -13.2392 N   0  0  0  0  0  0  0  0  0  0  0  0
   25.9769  -21.1710  -11.3852 C   0  0  0  0  0  0  0  0  0  0  0  0
   25.8406  -22.3944  -11.1467 O   0  0  0  0  0  0  0  0  0  0  0  0
   26.8056  -25.7400  -15.9419 C   0  0  0  0  0  0  0  0  0  0  0  0
   27.7626  -18.6629   -7.1145 C   0  0  0  0  0  0  0  0  0  0  0  0
   27.1785  -19.7384   -7.9605 C   0  0  2  0  0  0  0  0  0  0  0  0
   25.7075  -19.7748   -8.0849 C   0  0  0  0  0  0  0  0  0  0  0  0
   25.0034  -19.7043   -6.7323 C   0  0  2  0  0  0  0  0  0  0  0  0
   25.0702  -20.6630   -9.0721 N   0  0  0  0  0  0  0  0  0  0  0  0
   25.6231  -20.2205  -10.3928 C   0  0  0  0  0  0  0  0  0  0  0  0
   23.6410  -20.6850   -9.2379 O   0  0  0  0  0  0  0  0  0  0  0  0
   23.0661  -19.9968  -10.1532 N   0  0  0  0  0  0  0  0  0  0  0  0
   22.7994  -21.4660   -8.4146 C   0  0  1  0  0  0  0  0  0  0  0  0
   21.3407  -21.5156   -8.7117 C   0  0  0  0  0  0  0  0  0  0  0  0
   20.7893  -22.4876   -7.7075 C   0  0  0  0  0  0  0  0  0  0  0  0
   19.3597  -22.8033   -7.7294 C   0  0  0  0  0  0  0  0  0  0  0  0
   18.8437  -23.7931   -6.7808 O   0  0  0  0  0  0  0  0  0  0  0  0
   19.6296  -24.2675   -5.8926 C   0  0  0  0  0  0  0  0  0  0  0  0
   20.8420  -20.1548   -8.6321 O   0  0  0  0  0  0  0  0  0  0  0  0
   21.3703  -19.3099   -7.8796 O   0  0  0  0  0  0  0  0  0  0  0  0
   17.5305  -24.2625   -6.7742 O   0  0  0  0  0  0  0  0  0  0  0  0
  2  1  1  0
  3  2  2  0
  4  2  1  0
  5  4  1  0
  6  5  1  0
  7  6  1  0
  7  8  1  0
  8  9  1  6
 10 11  2  0
 10  8  1  0
 13 12  1  0
 13 14  1  0
 14 15  1  6
 16 14  1  0
 16 17  1  1
 17 10  1  0
 18 16  1  0
 19 18  2  0
 20 18  1  0
 21 20  1  0
 21 22  1  1
 22 23  1  0
 24 23  1  0
 24 25  2  0
 26 29  1  0
 26 21  1  0
 27 26  2  0
 28 24  1  0
M  END
$$$$
