RIE.pdb
     RDKit          3D

 29 28  0  0  1  0  0  0  0  0999 V2000
   28.7920  -29.5267  -17.4987 N   0  0  0  0  0  0  0  0  0  0  0  0
   27.5554  -28.9878  -17.9728 C   0  0  0  0  0  0  0  0  0  0  0  0
   26.5367  -29.7657  -18.1123 N   0  0  0  0  0  0  0  0  0  0  0  0
   27.4933  -27.6030  -18.2747 N   0  0  0  0  0  0  0  0  0  0  0  0
   28.7149  -26.8303  -18.1883 C   0  0  0  0  0  0  0  0  0  0  0  0
   28.9245  -26.4155  -16.7505 C   0  0  0  0  0  0  0  0  0  0  0  0
   28.3835  -25.0368  -16.4589 C   0  0  0  0  0  0  0  0  0  0  0  0
   29.4137  -23.9451  -16.7551 C   0  0  2  0  0  0  0  0  0  0  0  0
   30.6550  -24.2671  -16.0722 N   0  0  0  0  0  0  0  0  0  0  0  0
   28.8274  -22.6757  -16.2527 C   0  0  0  0  0  0  0  0  0  0  0  0
   28.7927  -22.4871  -15.0136 O   0  0  0  0  0  0  0  0  0  0  0  0
   25.6324  -29.3898  -18.4551 C   0  0  0  0  0  0  0  0  0  0  0  0
   28.8063  -16.9016  -17.7889 C   0  0  0  0  0  0  0  0  0  0  0  0
   27.9925  -17.9455  -17.1093 C   0  0  2  0  0  0  0  0  0  0  0  0
   28.4769  -19.3381  -17.1915 C   0  0  0  0  0  0  0  0  0  0  0  0
   29.0920  -19.6651  -18.5497 C   0  0  2  0  0  0  0  0  0  0  0  0
   27.6973  -20.4297  -16.5828 N   0  0  0  0  0  0  0  0  0  0  0  0
   28.3121  -21.6835  -17.1266 C   0  0  0  0  0  0  0  0  0  0  0  0
   26.2839  -20.5556  -16.8218 O   0  0  0  0  0  0  0  0  0  0  0  0
   25.8353  -21.1411  -17.8697 N   0  0  0  0  0  0  0  0  0  0  0  0
   25.3199  -20.0539  -15.9191 C   0  0  1  0  0  0  0  0  0  0  0  0
   23.8758  -20.2856  -16.2006 C   0  0  0  0  0  0  0  0  0  0  0  0
   23.2286  -20.2910  -14.8447 C   0  0  0  0  0  0  0  0  0  0  0  0
   21.7753  -20.4404  -14.7475 C   0  0  0  0  0  0  0  0  0  0  0  0
   21.1450  -20.3405  -13.4289 O   0  0  0  0  0  0  0  0  0  0  0  0
   19.8739  -20.4334  -13.3420 C   0  0  0  0  0  0  0  0  0  0  0  0
   23.4462  -19.2435  -17.1151 O   0  0  0  0  0  0  0  0  0  0  0  0
   23.9899  -18.1194  -17.1243 O   0  0  0  0  0  0  0  0  0  0  0  0
   21.8448  -20.1508  -12.2377 O   0  0  0  0  0  0  0  0  0  0  0  0
  2  1  1  0
  3  2  2  0
  4  2  1  0
  5  4  1  0
  6  5  1  0
  7  6  1  0
  7  8  1  0
  8  9  1  1
 10 11  2  0
 10  8  1  0
 13 12  1  0
 13 14  1  0
 14 15  1  1
 16 14  1  0
 16 17  1  6
 17 10  1  0
 18 16  1  0
 19 18  2  0
 20 18  1  0
 21 20  1  0
 21 22  1  6
 22 23  1  0
 24 23  1  0
 24 25  2  0
 26 29  1  0
 26 21  1  0
 27 26  2  0
 28 24  1  0
M  END
$$$$
