RIE.pdb
     RDKit          3D

 29 28  0  0  1  0  0  0  0  0999 V2000
   25.2721  -15.3285  -15.9254 N   0  0  0  0  0  0  0  0  0  0  0  0
   26.6764  -15.4465  -15.6835 C   0  0  0  0  0  0  0  0  0  0  0  0
   27.2523  -14.6224  -14.8762 N   0  0  0  0  0  0  0  0  0  0  0  0
   27.3921  -16.4765  -16.3464 N   0  0  0  0  0  0  0  0  0  0  0  0
   26.6406  -17.4327  -17.1323 C   0  0  0  0  0  0  0  0  0  0  0  0
   27.1717  -18.8182  -16.8461 C   0  0  0  0  0  0  0  0  0  0  0  0
   26.2876  -19.5955  -15.9014 C   0  0  0  0  0  0  0  0  0  0  0  0
   27.0848  -20.2104  -14.7494 C   0  0  2  0  0  0  0  0  0  0  0  0
   28.0513  -21.1505  -15.2907 N   0  0  0  0  0  0  0  0  0  0  0  0
   26.0928  -20.8892  -13.8759 C   0  0  0  0  0  0  0  0  0  0  0  0
   25.7033  -22.0363  -14.1996 O   0  0  0  0  0  0  0  0  0  0  0  0
   28.2750  -14.6784  -14.7104 C   0  0  0  0  0  0  0  0  0  0  0  0
   26.7835  -20.5955   -8.6413 C   0  0  0  0  0  0  0  0  0  0  0  0
   26.3774  -21.0588   -9.9956 C   0  0  2  0  0  0  0  0  0  0  0  0
   25.0209  -20.6973  -10.4537 C   0  0  0  0  0  0  0  0  0  0  0  0
   23.9583  -20.9371   -9.3844 C   0  0  2  0  0  0  0  0  0  0  0  0
   24.5983  -21.0058  -11.8306 N   0  0  0  0  0  0  0  0  0  0  0  0
   25.5810  -20.2819  -12.7000 C   0  0  0  0  0  0  0  0  0  0  0  0
   23.2978  -20.6214  -12.3121 O   0  0  0  0  0  0  0  0  0  0  0  0
   23.0144  -19.3962  -12.5583 N   0  0  0  0  0  0  0  0  0  0  0  0
   22.2727  -21.5647  -12.5470 C   0  0  1  0  0  0  0  0  0  0  0  0
   20.9517  -21.0885  -13.0437 C   0  0  0  0  0  0  0  0  0  0  0  0
   20.3356  -22.3006  -13.6829 C   0  0  0  0  0  0  0  0  0  0  0  0
   18.9683  -22.2183  -14.2002 C   0  0  0  0  0  0  0  0  0  0  0  0
   18.3951  -23.3926  -14.8621 O   0  0  0  0  0  0  0  0  0  0  0  0
   19.1057  -24.4483  -14.9741 C   0  0  0  0  0  0  0  0  0  0  0  0
   20.2437  -20.5301  -11.9063 O   0  0  0  0  0  0  0  0  0  0  0  0
   20.4657  -20.9245  -10.7425 O   0  0  0  0  0  0  0  0  0  0  0  0
   17.1040  -23.4448  -15.3867 O   0  0  0  0  0  0  0  0  0  0  0  0
  2  1  1  0
  3  2  2  0
  4  2  1  0
  5  4  1  0
  6  5  1  0
  7  6  1  0
  7  8  1  0
  8  9  1  6
 10 11  2  0
 10  8  1  0
 13 12  1  0
 13 14  1  0
 14 15  1  6
 16 14  1  0
 16 17  1  6
 17 10  1  0
 18 16  1  0
 19 18  2  0
 20 18  1  0
 21 20  1  0
 21 22  1  1
 22 23  1  0
 24 23  1  0
 24 25  2  0
 26 29  1  0
 26 21  1  0
 27 26  2  0
 28 24  1  0
M  END
$$$$
