RIE.pdb
     RDKit          3D

 29 28  0  0  1  0  0  0  0  0999 V2000
   29.7507  -22.9210  -16.7085 N   0  0  0  0  0  0  0  0  0  0  0  0
   29.3218  -22.6122  -18.0371 C   0  0  0  0  0  0  0  0  0  0  0  0
   29.1268  -23.5691  -18.8790 N   0  0  0  0  0  0  0  0  0  0  0  0
   29.1235  -21.2510  -18.3840 N   0  0  0  0  0  0  0  0  0  0  0  0
   28.5905  -20.3602  -17.3745 C   0  0  0  0  0  0  0  0  0  0  0  0
   27.1147  -20.6413  -17.2116 C   0  0  0  0  0  0  0  0  0  0  0  0
   26.6040  -20.2859  -15.8363 C   0  0  0  0  0  0  0  0  0  0  0  0
   27.0572  -21.2963  -14.7805 C   0  0  2  0  0  0  0  0  0  0  0  0
   27.3278  -22.5686  -15.4276 N   0  0  0  0  0  0  0  0  0  0  0  0
   25.9407  -21.4055  -13.8064 C   0  0  0  0  0  0  0  0  0  0  0  0
   25.0247  -22.2285  -14.0428 O   0  0  0  0  0  0  0  0  0  0  0  0
   28.9963  -23.3624  -19.8874 C   0  0  0  0  0  0  0  0  0  0  0  0
   27.3669  -20.4908   -8.7824 C   0  0  0  0  0  0  0  0  0  0  0  0
   26.6208  -21.1165   -9.9075 C   0  0  2  0  0  0  0  0  0  0  0  0
   25.3731  -20.4554  -10.3398 C   0  0  0  0  0  0  0  0  0  0  0  0
   24.3776  -20.2782   -9.1964 C   0  0  2  0  0  0  0  0  0  0  0  0
   24.7714  -20.7902  -11.6420 N   0  0  0  0  0  0  0  0  0  0  0  0
   25.8839  -20.6135  -12.6304 C   0  0  0  0  0  0  0  0  0  0  0  0
   23.6644  -20.0339  -12.1649 O   0  0  0  0  0  0  0  0  0  0  0  0
   23.8483  -19.0569  -12.9734 N   0  0  0  0  0  0  0  0  0  0  0  0
   22.3247  -20.3286  -11.8271 C   0  0  1  0  0  0  0  0  0  0  0  0
   21.2310  -19.8352  -12.7096 C   0  0  0  0  0  0  0  0  0  0  0  0
   21.4670  -20.5322  -14.0196 C   0  0  0  0  0  0  0  0  0  0  0  0
   20.5018  -20.3560  -15.1065 C   0  0  0  0  0  0  0  0  0  0  0  0
   20.6765  -21.1347  -16.3349 O   0  0  0  0  0  0  0  0  0  0  0  0
   20.2409  -22.3349  -16.3740 C   0  0  0  0  0  0  0  0  0  0  0  0
   19.9769  -20.1288  -12.0406 O   0  0  0  0  0  0  0  0  0  0  0  0
   18.9564  -19.4358  -12.2351 O   0  0  0  0  0  0  0  0  0  0  0  0
   21.2930  -20.6513  -17.4886 O   0  0  0  0  0  0  0  0  0  0  0  0
  2  1  1  0
  3  2  2  0
  4  2  1  0
  5  4  1  0
  6  5  1  0
  7  6  1  0
  7  8  1  0
  8  9  1  6
 10 11  2  0
 10  8  1  0
 13 12  1  0
 13 14  1  0
 14 15  1  6
 16 14  1  0
 16 17  1  6
 17 10  1  0
 18 16  1  0
 19 18  2  0
 20 18  1  0
 21 20  1  0
 21 22  1  6
 22 23  1  0
 24 23  1  0
 24 25  2  0
 26 29  1  0
 26 21  1  0
 27 26  2  0
 28 24  1  0
M  END
$$$$
