RIE.pdb
     RDKit          3D

 29 28  0  0  1  0  0  0  0  0999 V2000
   17.3372  -23.4679  -12.3179 N   0  0  0  0  0  0  0  0  0  0  0  0
   18.7162  -23.1387  -12.1318 C   0  0  0  0  0  0  0  0  0  0  0  0
   19.3224  -22.4234  -13.0168 N   0  0  0  0  0  0  0  0  0  0  0  0
   19.3735  -23.6150  -10.9684 N   0  0  0  0  0  0  0  0  0  0  0  0
   18.6469  -24.5099  -10.0921 C   0  0  0  0  0  0  0  0  0  0  0  0
   18.4708  -23.8365   -8.7508 C   0  0  0  0  0  0  0  0  0  0  0  0
   17.5675  -24.6141   -7.8246 C   0  0  0  0  0  0  0  0  0  0  0  0
   18.2077  -25.9285   -7.3736 C   0  0  2  0  0  0  0  0  0  0  0  0
   18.0607  -26.9143   -8.4306 N   0  0  0  0  0  0  0  0  0  0  0  0
   17.4867  -26.3381   -6.1407 C   0  0  0  0  0  0  0  0  0  0  0  0
   16.4469  -27.0283   -6.2624 O   0  0  0  0  0  0  0  0  0  0  0  0
   20.3329  -22.2100  -12.9167 C   0  0  0  0  0  0  0  0  0  0  0  0
   20.0494  -28.2213   -1.8687 C   0  0  0  0  0  0  0  0  0  0  0  0
   18.9719  -27.9420   -2.8560 C   0  0  2  0  0  0  0  0  0  0  0  0
   18.1462  -26.7385   -2.6310 C   0  0  0  0  0  0  0  0  0  0  0  0
   17.7057  -26.5940   -1.1767 C   0  0  2  0  0  0  0  0  0  0  0  0
   17.1407  -26.3341   -3.6285 N   0  0  0  0  0  0  0  0  0  0  0  0
   17.9375  -25.9737   -4.8455 C   0  0  0  0  0  0  0  0  0  0  0  0
   16.2676  -25.2151   -3.3914 O   0  0  0  0  0  0  0  0  0  0  0  0
   16.6638  -24.0105   -3.5762 N   0  0  0  0  0  0  0  0  0  0  0  0
   14.9343  -25.3797   -2.9544 C   0  0  1  0  0  0  0  0  0  0  0  0
   14.0871  -24.1724   -2.7465 C   0  0  0  0  0  0  0  0  0  0  0  0
   13.0708  -24.2364   -3.8512 C   0  0  0  0  0  0  0  0  0  0  0  0
   11.9523  -23.2915   -3.8484 C   0  0  0  0  0  0  0  0  0  0  0  0
   12.0604  -22.0717   -4.6524 O   0  0  0  0  0  0  0  0  0  0  0  0
   11.1785  -21.1583   -4.5128 C   0  0  0  0  0  0  0  0  0  0  0  0
   13.5709  -24.2408   -1.3917 O   0  0  0  0  0  0  0  0  0  0  0  0
   13.3250  -25.3348   -0.8422 O   0  0  0  0  0  0  0  0  0  0  0  0
   13.0774  -21.8286   -5.5752 O   0  0  0  0  0  0  0  0  0  0  0  0
  2  1  1  0
  3  2  2  0
  4  2  1  0
  5  4  1  0
  6  5  1  0
  7  6  1  0
  7  8  1  0
  8  9  1  6
 10 11  2  0
 10  8  1  0
 13 12  1  0
 13 14  1  0
 14 15  1  6
 16 14  1  0
 16 17  1  6
 17 10  1  0
 18 16  1  0
 19 18  2  0
 20 18  1  0
 21 20  1  0
 21 22  1  1
 22 23  1  0
 24 23  1  0
 24 25  2  0
 26 29  1  0
 26 21  1  0
 27 26  2  0
 28 24  1  0
M  END
$$$$
