RIE.pdb
     RDKit          3D

 29 28  0  0  1  0  0  0  0  0999 V2000
   19.2885  -23.4673   -7.4976 N   0  0  0  0  0  0  0  0  0  0  0  0
   18.1648  -23.6338   -8.3660 C   0  0  0  0  0  0  0  0  0  0  0  0
   16.9743  -23.6276   -7.8708 N   0  0  0  0  0  0  0  0  0  0  0  0
   18.4027  -23.8004   -9.7546 N   0  0  0  0  0  0  0  0  0  0  0  0
   19.7655  -23.6903  -10.2314 C   0  0  0  0  0  0  0  0  0  0  0  0
   19.7922  -22.7386  -11.4050 C   0  0  0  0  0  0  0  0  0  0  0  0
   20.3120  -21.3713  -11.0324 C   0  0  0  0  0  0  0  0  0  0  0  0
   21.7293  -21.4361  -10.4598 C   0  0  2  0  0  0  0  0  0  0  0  0
   21.7119  -20.9402   -9.0943 N   0  0  0  0  0  0  0  0  0  0  0  0
   22.5702  -20.5838  -11.3396 C   0  0  0  0  0  0  0  0  0  0  0  0
   22.4111  -19.3410  -11.2906 O   0  0  0  0  0  0  0  0  0  0  0  0
   16.1520  -23.8019   -8.4792 C   0  0  0  0  0  0  0  0  0  0  0  0
   26.5835  -21.7685  -10.4722 C   0  0  0  0  0  0  0  0  0  0  0  0
   26.4230  -20.5719  -11.3418 C   0  0  2  0  0  0  0  0  0  0  0  0
   25.8183  -20.7814  -12.6727 C   0  0  0  0  0  0  0  0  0  0  0  0
   26.8339  -20.6500  -13.8046 C   0  0  2  0  0  0  0  0  0  0  0  0
   24.4810  -20.2409  -12.9711 N   0  0  0  0  0  0  0  0  0  0  0  0
   23.5364  -21.1316  -12.2228 C   0  0  0  0  0  0  0  0  0  0  0  0
   23.9830  -20.1940  -14.3204 O   0  0  0  0  0  0  0  0  0  0  0  0
   23.7072  -21.2661  -14.9659 N   0  0  0  0  0  0  0  0  0  0  0  0
   23.7636  -18.9752  -15.0001 C   0  0  1  0  0  0  0  0  0  0  0  0
   23.2844  -19.0095  -16.4099 C   0  0  0  0  0  0  0  0  0  0  0  0
   22.6926  -17.6469  -16.6351 C   0  0  0  0  0  0  0  0  0  0  0  0
   22.2419  -17.2769  -17.9782 C   0  0  0  0  0  0  0  0  0  0  0  0
   21.6487  -15.9530  -18.1808 O   0  0  0  0  0  0  0  0  0  0  0  0
   21.1910  -15.3187  -17.1708 C   0  0  0  0  0  0  0  0  0  0  0  0
   24.4219  -19.3627  -17.2394 O   0  0  0  0  0  0  0  0  0  0  0  0
   25.5669  -18.9282  -16.9950 O   0  0  0  0  0  0  0  0  0  0  0  0
   21.5476  -15.3204  -19.4195 O   0  0  0  0  0  0  0  0  0  0  0  0
  2  1  1  0
  3  2  2  0
  4  2  1  0
  5  4  1  0
  6  5  1  0
  7  6  1  0
  7  8  1  0
  8  9  1  1
 10 11  2  0
 10  8  1  0
 13 12  1  0
 13 14  1  0
 14 15  1  6
 16 14  1  0
 16 17  1  6
 17 10  1  0
 18 16  1  0
 19 18  2  0
 20 18  1  0
 21 20  1  0
 21 22  1  6
 22 23  1  0
 24 23  1  0
 24 25  2  0
 26 29  1  0
 26 21  1  0
 27 26  2  0
 28 24  1  0
M  END
$$$$
