EDL.pdb
     RDKit          3D

 26 25  0  0  1  0  0  0  0  0999 V2000
   24.5176  -19.9501  -12.6015 N   0  0  0  0  0  0  0  0  0  0  0  0
   23.9600  -20.5115  -11.3772 C   0  0  1  0  0  0  0  0  0  0  0  0
   23.1051  -21.6860  -11.7886 C   0  0  0  0  0  0  0  0  0  0  0  0
   21.6859  -21.3104  -12.1104 C   0  0  0  0  0  0  0  0  0  0  0  0
   21.6498  -20.8428  -13.5338 C   0  0  0  0  0  0  0  0  0  0  0  0
   22.5831  -21.0937  -14.3354 O   0  0  0  0  0  0  0  0  0  0  0  0
   25.0345  -20.8522  -10.4355 C   0  0  0  0  0  0  0  0  0  0  0  0
   24.8480  -21.4023   -9.3246 O   0  0  0  0  0  0  0  0  0  0  0  0
   20.5697  -20.1205  -13.9785 O   0  0  0  0  0  0  0  0  0  0  0  0
   26.3818  -20.5493  -10.7819 N   0  0  0  0  0  0  0  0  0  0  0  0
   27.4926  -20.7482   -9.9107 C   0  0  1  0  0  0  0  0  0  0  0  0
   28.7614  -20.4000  -10.6435 C   0  0  0  0  0  0  0  0  0  0  0  0
   29.2307  -21.5325  -11.4588 C   0  0  0  0  0  0  0  0  0  0  0  0
   28.8433  -21.5751  -12.6672 O   0  0  0  0  0  0  0  0  0  0  0  0
   27.4364  -19.8505   -8.7071 C   0  0  0  0  0  0  0  0  0  0  0  0
   26.9442  -18.6991   -8.8299 O   0  0  0  0  0  0  0  0  0  0  0  0
   30.0482  -22.5564  -11.0480 O   0  0  0  0  0  0  0  0  0  0  0  0
   25.9862  -20.7174   -4.0589 C   0  0  0  0  0  0  0  0  0  0  0  0
   27.2358  -21.2261   -4.7102 C   0  0  2  0  0  0  0  0  0  0  0  0
   27.9396  -22.0927   -3.6348 C   0  0  0  0  0  0  0  0  0  0  0  0
   28.2284  -20.2421   -5.1438 C   0  0  0  0  0  0  0  0  0  0  0  0
   28.0019  -19.3282   -6.2881 C   0  0  2  0  0  0  0  0  0  0  0  0
   27.9112  -20.2474   -7.4525 N   0  0  0  0  0  0  0  0  0  0  0  0
   29.0565  -18.3540   -6.4958 C   0  0  0  0  0  0  0  0  0  0  0  0
   29.2587  -17.1522   -5.8606 O   0  0  0  0  0  0  0  0  0  0  0  0
   29.9321  -18.6244   -7.3983 O   0  0  0  0  0  0  0  0  0  0  0  0
  2  1  1  6
  2  7  1  0
  3  2  1  0
  3  4  1  0
  4  5  1  0
  5  6  2  0
  7  8  2  0
  9  5  1  0
 10 11  1  0
 10  7  1  0
 12 13  1  0
 11 12  1  6
 13 17  1  0
 14 13  2  0
 15 11  1  0
 15 16  2  0
 19 18  1  1
 19 21  1  0
 19 20  1  0
 22 21  1  1
 22 23  1  0
 22 24  1  0
 23 15  1  0
 24 26  2  0
 24 25  1  0
M  END
$$$$
