EDL.pdb
     RDKit          3D

 26 25  0  0  1  0  0  0  0  0999 V2000
   25.6297  -38.9094  -10.7766 N   0  0  0  0  0  0  0  0  0  0  0  0
   24.4467  -38.0938  -10.5315 C   0  0  1  0  0  0  0  0  0  0  0  0
   23.2598  -38.8977  -11.0055 C   0  0  0  0  0  0  0  0  0  0  0  0
   23.1325  -38.9526  -12.5020 C   0  0  0  0  0  0  0  0  0  0  0  0
   22.5523  -37.6483  -12.9581 C   0  0  0  0  0  0  0  0  0  0  0  0
   23.1104  -36.9488  -13.8388 O   0  0  0  0  0  0  0  0  0  0  0  0
   24.3799  -37.7022   -9.1175 C   0  0  0  0  0  0  0  0  0  0  0  0
   23.3874  -37.1504   -8.5865 O   0  0  0  0  0  0  0  0  0  0  0  0
   21.3789  -37.2016  -12.4014 O   0  0  0  0  0  0  0  0  0  0  0  0
   25.4995  -37.9539   -8.2748 N   0  0  0  0  0  0  0  0  0  0  0  0
   25.5420  -37.6278   -6.8875 C   0  0  1  0  0  0  0  0  0  0  0  0
   26.2409  -38.7348   -6.1430 C   0  0  0  0  0  0  0  0  0  0  0  0
   26.1693  -38.5227   -4.6879 C   0  0  0  0  0  0  0  0  0  0  0  0
   25.5122  -37.5150   -4.2817 O   0  0  0  0  0  0  0  0  0  0  0  0
   26.3287  -36.3751   -6.6238 C   0  0  0  0  0  0  0  0  0  0  0  0
   27.4697  -36.2537   -7.1400 O   0  0  0  0  0  0  0  0  0  0  0  0
   26.7432  -39.3040   -3.7154 O   0  0  0  0  0  0  0  0  0  0  0  0
   26.8731  -32.6104   -8.5813 C   0  0  0  0  0  0  0  0  0  0  0  0
   25.6058  -33.0089   -7.8889 C   0  0  2  0  0  0  0  0  0  0  0  0
   24.5792  -31.9001   -8.2346 C   0  0  0  0  0  0  0  0  0  0  0  0
   25.6246  -33.0956   -6.4282 C   0  0  0  0  0  0  0  0  0  0  0  0
   26.5187  -34.0210   -5.6932 C   0  0  2  0  0  0  0  0  0  0  0  0
   25.8392  -35.3363   -5.8249 N   0  0  0  0  0  0  0  0  0  0  0  0
   26.7069  -33.6886   -4.2938 C   0  0  0  0  0  0  0  0  0  0  0  0
   27.5943  -32.8047   -3.7283 O   0  0  0  0  0  0  0  0  0  0  0  0
   25.9575  -34.2962   -3.4432 O   0  0  0  0  0  0  0  0  0  0  0  0
  2  1  1  1
  2  7  1  0
  3  2  1  0
  3  4  1  0
  4  5  1  0
  5  6  2  0
  7  8  2  0
  9  5  1  0
 10 11  1  0
 10  7  1  0
 12 13  1  0
 11 12  1  1
 13 17  1  0
 14 13  2  0
 15 11  1  0
 15 16  2  0
 19 18  1  1
 19 21  1  0
 19 20  1  0
 22 21  1  1
 22 23  1  0
 22 24  1  0
 23 15  1  0
 24 26  2  0
 24 25  1  0
M  END
$$$$
