EDL.pdb
     RDKit          3D

 26 25  0  0  1  0  0  0  0  0999 V2000
   15.8754  -12.7176  -16.7836 N   0  0  0  0  0  0  0  0  0  0  0  0
   17.2553  -12.9395  -17.1980 C   0  0  1  0  0  0  0  0  0  0  0  0
   17.2005  -13.7332  -18.4812 C   0  0  0  0  0  0  0  0  0  0  0  0
   15.9359  -14.5297  -18.6395 C   0  0  0  0  0  0  0  0  0  0  0  0
   15.9802  -15.1928  -19.9828 C   0  0  0  0  0  0  0  0  0  0  0  0
   16.9470  -15.9135  -20.3322 O   0  0  0  0  0  0  0  0  0  0  0  0
   17.9662  -11.6594  -17.3141 C   0  0  0  0  0  0  0  0  0  0  0  0
   19.1166  -11.5350  -17.7962 O   0  0  0  0  0  0  0  0  0  0  0  0
   14.9380  -15.0107  -20.8587 O   0  0  0  0  0  0  0  0  0  0  0  0
   17.3311  -10.4698  -16.8577 N   0  0  0  0  0  0  0  0  0  0  0  0
   17.9277   -9.1761  -16.9136 C   0  0  1  0  0  0  0  0  0  0  0  0
   16.8664   -8.1341  -16.6774 C   0  0  0  0  0  0  0  0  0  0  0  0
   15.8732   -8.1329  -17.7642 C   0  0  0  0  0  0  0  0  0  0  0  0
   16.2743   -7.7737  -18.9141 O   0  0  0  0  0  0  0  0  0  0  0  0
   18.9610   -8.9820  -15.8401 C   0  0  0  0  0  0  0  0  0  0  0  0
   18.6686   -9.2818  -14.6535 O   0  0  0  0  0  0  0  0  0  0  0  0
   14.5484   -8.4803  -17.6656 O   0  0  0  0  0  0  0  0  0  0  0  0
   24.3534  -10.8188  -15.1123 C   0  0  0  0  0  0  0  0  0  0  0  0
   23.4249   -9.7543  -14.6132 C   0  0  2  0  0  0  0  0  0  0  0  0
   22.9103  -10.2636  -13.2426 C   0  0  0  0  0  0  0  0  0  0  0  0
   22.2300   -9.4642  -15.4067 C   0  0  0  0  0  0  0  0  0  0  0  0
   21.3006   -8.3578  -15.0781 C   0  0  2  0  0  0  0  0  0  0  0  0
   20.2383   -8.4800  -16.1105 N   0  0  0  0  0  0  0  0  0  0  0  0
   21.8993   -7.0373  -15.1246 C   0  0  0  0  0  0  0  0  0  0  0  0
   22.4306   -6.2939  -14.0980 O   0  0  0  0  0  0  0  0  0  0  0  0
   21.9452   -6.4567  -16.2713 O   0  0  0  0  0  0  0  0  0  0  0  0
  2  1  1  6
  2  7  1  0
  3  2  1  0
  3  4  1  0
  4  5  1  0
  5  6  2  0
  7  8  2  0
  9  5  1  0
 10 11  1  0
 10  7  1  0
 12 13  1  0
 11 12  1  1
 13 17  1  0
 14 13  2  0
 15 11  1  0
 15 16  2  0
 19 18  1  6
 19 21  1  0
 19 20  1  0
 22 21  1  6
 22 23  1  0
 22 24  1  0
 23 15  1  0
 24 26  2  0
 24 25  1  0
M  END
$$$$
