EDL.pdb
     RDKit          3D

 26 25  0  0  1  0  0  0  0  0999 V2000
   16.7555  -13.4736  -17.1826 N   0  0  0  0  0  0  0  0  0  0  0  0
   18.0419  -13.4587  -17.8681 C   0  0  1  0  0  0  0  0  0  0  0  0
   17.8055  -14.0279  -19.2464 C   0  0  0  0  0  0  0  0  0  0  0  0
   19.0328  -14.0262  -20.1139 C   0  0  0  0  0  0  0  0  0  0  0  0
   18.6486  -14.5907  -21.4480 C   0  0  0  0  0  0  0  0  0  0  0  0
   19.0822  -15.6998  -21.8457 O   0  0  0  0  0  0  0  0  0  0  0  0
   18.6056  -12.1024  -17.8676 C   0  0  0  0  0  0  0  0  0  0  0  0
   19.7416  -11.8126  -18.3115 O   0  0  0  0  0  0  0  0  0  0  0  0
   17.7998  -13.8801  -22.2610 O   0  0  0  0  0  0  0  0  0  0  0  0
   17.8338  -11.0311  -17.3351 N   0  0  0  0  0  0  0  0  0  0  0  0
   18.2802   -9.6782  -17.2794 C   0  0  1  0  0  0  0  0  0  0  0  0
   17.0845   -8.7699  -17.1632 C   0  0  0  0  0  0  0  0  0  0  0  0
   17.4757   -7.3577  -17.3055 C   0  0  0  0  0  0  0  0  0  0  0  0
   18.6182   -7.1215  -17.8065 O   0  0  0  0  0  0  0  0  0  0  0  0
   19.1349   -9.4129  -16.0724 C   0  0  0  0  0  0  0  0  0  0  0  0
   18.6691   -9.6632  -14.9307 O   0  0  0  0  0  0  0  0  0  0  0  0
   16.7311   -6.2600  -16.9501 O   0  0  0  0  0  0  0  0  0  0  0  0
   23.1391  -11.2626  -14.1753 C   0  0  0  0  0  0  0  0  0  0  0  0
   23.0089  -10.5434  -15.4831 C   0  0  2  0  0  0  0  0  0  0  0  0
   24.4184  -10.5949  -16.1258 C   0  0  0  0  0  0  0  0  0  0  0  0
   22.6357   -9.1288  -15.4495 C   0  0  0  0  0  0  0  0  0  0  0  0
   21.3057   -8.6628  -14.9912 C   0  0  2  0  0  0  0  0  0  0  0  0
   20.4316   -8.8976  -16.1703 N   0  0  0  0  0  0  0  0  0  0  0  0
   21.2609   -7.2666  -14.6004 C   0  0  0  0  0  0  0  0  0  0  0  0
   21.4367   -6.7129  -13.3549 O   0  0  0  0  0  0  0  0  0  0  0  0
   21.0175   -6.4082  -15.5267 O   0  0  0  0  0  0  0  0  0  0  0  0
  2  1  1  6
  2  7  1  0
  3  2  1  0
  3  4  1  0
  4  5  1  0
  5  6  2  0
  7  8  2  0
  9  5  1  0
 10 11  1  0
 10  7  1  0
 12 13  1  0
 11 12  1  1
 13 17  1  0
 14 13  2  0
 15 11  1  0
 15 16  2  0
 19 18  1  1
 19 21  1  0
 19 20  1  0
 22 21  1  6
 22 23  1  0
 22 24  1  0
 23 15  1  0
 24 26  2  0
 24 25  1  0
M  END
$$$$
