EDL.pdb
     RDKit          3D

 26 25  0  0  1  0  0  0  0  0999 V2000
   20.8614  -12.1432  -15.9096 N   0  0  0  0  0  0  0  0  0  0  0  0
   20.6799  -11.4284  -17.1670 C   0  0  1  0  0  0  0  0  0  0  0  0
   20.1541  -12.4324  -18.1647 C   0  0  0  0  0  0  0  0  0  0  0  0
   19.3601  -13.5427  -17.5357 C   0  0  0  0  0  0  0  0  0  0  0  0
   18.8119  -14.3935  -18.6409 C   0  0  0  0  0  0  0  0  0  0  0  0
   19.2072  -15.5707  -18.8266 O   0  0  0  0  0  0  0  0  0  0  0  0
   19.8070  -10.2635  -16.9713 C   0  0  0  0  0  0  0  0  0  0  0  0
   19.6196   -9.3723  -17.8329 O   0  0  0  0  0  0  0  0  0  0  0  0
   17.8513  -13.8770  -19.4756 O   0  0  0  0  0  0  0  0  0  0  0  0
   19.1185  -10.1130  -15.7343 N   0  0  0  0  0  0  0  0  0  0  0  0
   18.2795   -9.0044  -15.4189 C   0  0  1  0  0  0  0  0  0  0  0  0
   17.1418   -9.4786  -14.5536 C   0  0  0  0  0  0  0  0  0  0  0  0
   16.2512  -10.3843  -15.2981 C   0  0  0  0  0  0  0  0  0  0  0  0
   15.8040   -9.9695  -16.4117 O   0  0  0  0  0  0  0  0  0  0  0  0
   19.0046   -7.9518  -14.6290 C   0  0  0  0  0  0  0  0  0  0  0  0
   19.8150   -8.3120  -13.7364 O   0  0  0  0  0  0  0  0  0  0  0  0
   15.8483  -11.6391  -14.9126 O   0  0  0  0  0  0  0  0  0  0  0  0
   23.3853   -5.4736  -15.9426 C   0  0  0  0  0  0  0  0  0  0  0  0
   22.2338   -5.0816  -15.0681 C   0  0  2  0  0  0  0  0  0  0  0  0
   22.7613   -5.1925  -13.6148 C   0  0  0  0  0  0  0  0  0  0  0  0
   21.0263   -5.9067  -15.1196 C   0  0  0  0  0  0  0  0  0  0  0  0
   19.7788   -5.5445  -14.4064 C   0  0  2  0  0  0  0  0  0  0  0  0
   18.8128   -6.5838  -14.8491 N   0  0  0  0  0  0  0  0  0  0  0  0
   19.2728   -4.2209  -14.7167 C   0  0  0  0  0  0  0  0  0  0  0  0
   19.3390   -3.0731  -13.9638 O   0  0  0  0  0  0  0  0  0  0  0  0
   18.6680   -4.0758  -15.8425 O   0  0  0  0  0  0  0  0  0  0  0  0
  2  1  1  1
  2  7  1  0
  3  2  1  0
  3  4  1  0
  4  5  1  0
  5  6  2  0
  7  8  2  0
  9  5  1  0
 10 11  1  0
 10  7  1  0
 12 13  1  0
 11 12  1  1
 13 17  1  0
 14 13  2  0
 15 11  1  0
 15 16  2  0
 19 18  1  6
 19 21  1  0
 19 20  1  0
 22 21  1  6
 22 23  1  0
 22 24  1  0
 23 15  1  0
 24 26  2  0
 24 25  1  0
M  END
$$$$
