EDL.pdb
     RDKit          3D

 26 25  0  0  1  0  0  0  0  0999 V2000
   16.3210  -11.6252  -16.5848 N   0  0  0  0  0  0  0  0  0  0  0  0
   17.7413  -11.5699  -16.9085 C   0  0  1  0  0  0  0  0  0  0  0  0
   17.8904  -12.1288  -18.3032 C   0  0  0  0  0  0  0  0  0  0  0  0
   17.3636  -13.5290  -18.4470 C   0  0  0  0  0  0  0  0  0  0  0  0
   17.5605  -13.9456  -19.8730 C   0  0  0  0  0  0  0  0  0  0  0  0
   16.5891  -14.1881  -20.6306 O   0  0  0  0  0  0  0  0  0  0  0  0
   18.2478  -10.2000  -16.7537 C   0  0  0  0  0  0  0  0  0  0  0  0
   19.4288   -9.8553  -16.9947 O   0  0  0  0  0  0  0  0  0  0  0  0
   18.8353  -14.0668  -20.3696 O   0  0  0  0  0  0  0  0  0  0  0  0
   17.3624   -9.1802  -16.3031 N   0  0  0  0  0  0  0  0  0  0  0  0
   17.7530   -7.8275  -16.0793 C   0  0  1  0  0  0  0  0  0  0  0  0
   16.5412   -7.0236  -15.6877 C   0  0  0  0  0  0  0  0  0  0  0  0
   16.8519   -5.5853  -15.6393 C   0  0  0  0  0  0  0  0  0  0  0  0
   16.0504   -4.8417  -14.9935 O   0  0  0  0  0  0  0  0  0  0  0  0
   18.7319   -7.7005  -14.9464 C   0  0  0  0  0  0  0  0  0  0  0  0
   18.5850   -8.4295  -13.9314 O   0  0  0  0  0  0  0  0  0  0  0  0
   17.9238   -4.9572  -16.2239 O   0  0  0  0  0  0  0  0  0  0  0  0
   23.5464   -9.8037  -14.4852 C   0  0  0  0  0  0  0  0  0  0  0  0
   22.8604   -8.6372  -13.8425 C   0  0  2  0  0  0  0  0  0  0  0  0
   22.5146   -9.1015  -12.4046 C   0  0  0  0  0  0  0  0  0  0  0  0
   21.6006   -8.1786  -14.4289 C   0  0  0  0  0  0  0  0  0  0  0  0
   20.9682   -6.8904  -14.0595 C   0  0  2  0  0  0  0  0  0  0  0  0
   19.8028   -6.8011  -14.9777 N   0  0  0  0  0  0  0  0  0  0  0  0
   21.8269   -5.7324  -14.2207 C   0  0  0  0  0  0  0  0  0  0  0  0
   22.5914   -5.0870  -13.2785 O   0  0  0  0  0  0  0  0  0  0  0  0
   21.8944   -5.2142  -15.3959 O   0  0  0  0  0  0  0  0  0  0  0  0
  2  1  1  6
  2  7  1  0
  3  2  1  0
  3  4  1  0
  4  5  1  0
  5  6  2  0
  7  8  2  0
  9  5  1  0
 10 11  1  0
 10  7  1  0
 12 13  1  0
 11 12  1  1
 13 17  1  0
 14 13  2  0
 15 11  1  0
 15 16  2  0
 19 18  1  6
 19 21  1  0
 19 20  1  0
 22 21  1  6
 22 23  1  0
 22 24  1  0
 23 15  1  0
 24 26  2  0
 24 25  1  0
M  END
$$$$
