EDL.pdb
     RDKit          3D

 26 25  0  0  1  0  0  0  0  0999 V2000
   24.0729  -19.2998  -16.7265 N   0  0  0  0  0  0  0  0  0  0  0  0
   23.2816  -20.4162  -16.2243 C   0  0  1  0  0  0  0  0  0  0  0  0
   22.9046  -21.2542  -17.4224 C   0  0  0  0  0  0  0  0  0  0  0  0
   23.0304  -20.5223  -18.7289 C   0  0  0  0  0  0  0  0  0  0  0  0
   21.9323  -19.5041  -18.7884 C   0  0  0  0  0  0  0  0  0  0  0  0
   20.8638  -19.7205  -19.4112 O   0  0  0  0  0  0  0  0  0  0  0  0
   24.0271  -21.1474  -15.1914 C   0  0  0  0  0  0  0  0  0  0  0  0
   23.6308  -22.2101  -14.6574 O   0  0  0  0  0  0  0  0  0  0  0  0
   22.0936  -18.3009  -18.1462 O   0  0  0  0  0  0  0  0  0  0  0  0
   25.2818  -20.6386  -14.7509 N   0  0  0  0  0  0  0  0  0  0  0  0
   26.0459  -21.2100  -13.6917 C   0  0  1  0  0  0  0  0  0  0  0  0
   27.4774  -20.7597  -13.8190 C   0  0  0  0  0  0  0  0  0  0  0  0
   28.0207  -21.0890  -15.1472 C   0  0  0  0  0  0  0  0  0  0  0  0
   28.2332  -22.3156  -15.3975 O   0  0  0  0  0  0  0  0  0  0  0  0
   25.5740  -20.7508  -12.3411 C   0  0  0  0  0  0  0  0  0  0  0  0
   25.4184  -19.5188  -12.1380 O   0  0  0  0  0  0  0  0  0  0  0  0
   28.3258  -20.2038  -16.1516 O   0  0  0  0  0  0  0  0  0  0  0  0
   26.5358  -21.2788   -7.4701 C   0  0  0  0  0  0  0  0  0  0  0  0
   26.6981  -20.4552   -8.7109 C   0  0  2  0  0  0  0  0  0  0  0  0
   27.2233  -19.0790   -8.2284 C   0  0  0  0  0  0  0  0  0  0  0  0
   25.5008  -20.1715   -9.5030 C   0  0  0  0  0  0  0  0  0  0  0  0
   24.6240  -21.2395  -10.0383 C   0  0  2  0  0  0  0  0  0  0  0  0
   25.3002  -21.6429  -11.2990 N   0  0  0  0  0  0  0  0  0  0  0  0
   23.2624  -20.8187  -10.3089 C   0  0  0  0  0  0  0  0  0  0  0  0
   22.1782  -20.8084   -9.4643 O   0  0  0  0  0  0  0  0  0  0  0  0
   23.0056  -20.3999  -11.4975 O   0  0  0  0  0  0  0  0  0  0  0  0
  2  1  1  6
  2  7  1  0
  3  2  1  0
  3  4  1  0
  4  5  1  0
  5  6  2  0
  7  8  2  0
  9  5  1  0
 10 11  1  0
 10  7  1  0
 12 13  1  0
 11 12  1  6
 13 17  1  0
 14 13  2  0
 15 11  1  0
 15 16  2  0
 19 18  1  1
 19 21  1  0
 19 20  1  0
 22 21  1  6
 22 23  1  0
 22 24  1  0
 23 15  1  0
 24 26  2  0
 24 25  1  0
M  END
$$$$
