EDL.pdb
     RDKit          3D

 26 25  0  0  1  0  0  0  0  0999 V2000
   16.8239  -11.8201  -15.7026 N   0  0  0  0  0  0  0  0  0  0  0  0
   18.1374  -11.8385  -16.3347 C   0  0  1  0  0  0  0  0  0  0  0  0
   17.9587  -12.4844  -17.6877 C   0  0  0  0  0  0  0  0  0  0  0  0
   16.8409  -11.8857  -18.4944 C   0  0  0  0  0  0  0  0  0  0  0  0
   16.2240  -12.9853  -19.3045 C   0  0  0  0  0  0  0  0  0  0  0  0
   16.8073  -13.4790  -20.3008 O   0  0  0  0  0  0  0  0  0  0  0  0
   18.6984  -10.4821  -16.3868 C   0  0  0  0  0  0  0  0  0  0  0  0
   19.8494  -10.2125  -16.8043 O   0  0  0  0  0  0  0  0  0  0  0  0
   14.9881  -13.4698  -18.9521 O   0  0  0  0  0  0  0  0  0  0  0  0
   17.9061   -9.3864  -15.9411 N   0  0  0  0  0  0  0  0  0  0  0  0
   18.3370   -8.0277  -15.9694 C   0  0  1  0  0  0  0  0  0  0  0  0
   17.1703   -7.1344  -15.6396 C   0  0  0  0  0  0  0  0  0  0  0  0
   16.1566   -7.1705  -16.7067 C   0  0  0  0  0  0  0  0  0  0  0  0
   16.5682   -7.0381  -17.9005 O   0  0  0  0  0  0  0  0  0  0  0  0
   19.3929   -7.7467  -14.9380 C   0  0  0  0  0  0  0  0  0  0  0  0
   19.4450   -8.4688  -13.9089 O   0  0  0  0  0  0  0  0  0  0  0  0
   14.8024   -7.3321  -16.5470 O   0  0  0  0  0  0  0  0  0  0  0  0
   22.9460   -9.2898  -13.0379 C   0  0  0  0  0  0  0  0  0  0  0  0
   22.4458   -9.1303  -14.4410 C   0  0  2  0  0  0  0  0  0  0  0  0
   23.4459   -9.9143  -15.3285 C   0  0  0  0  0  0  0  0  0  0  0  0
   22.3927   -7.7776  -14.9967 C   0  0  0  0  0  0  0  0  0  0  0  0
   21.6238   -6.6813  -14.3618 C   0  0  2  0  0  0  0  0  0  0  0  0
   20.3224   -6.7109  -15.0791 N   0  0  0  0  0  0  0  0  0  0  0  0
   22.2358   -5.3716  -14.4814 C   0  0  0  0  0  0  0  0  0  0  0  0
   23.0276   -4.7033  -13.5786 O   0  0  0  0  0  0  0  0  0  0  0  0
   22.0172   -4.7218  -15.5696 O   0  0  0  0  0  0  0  0  0  0  0  0
  2  1  1  6
  2  7  1  0
  3  2  1  0
  3  4  1  0
  4  5  1  0
  5  6  2  0
  7  8  2  0
  9  5  1  0
 10 11  1  0
 10  7  1  0
 12 13  1  0
 11 12  1  1
 13 17  1  0
 14 13  2  0
 15 11  1  0
 15 16  2  0
 19 18  1  1
 19 21  1  0
 19 20  1  0
 22 21  1  6
 22 23  1  0
 22 24  1  0
 23 15  1  0
 24 26  2  0
 24 25  1  0
M  END
$$$$
