EDL.pdb
     RDKit          3D

 26 25  0  0  1  0  0  0  0  0999 V2000
   13.5774  -15.2329  -13.8565 N   0  0  0  0  0  0  0  0  0  0  0  0
   13.2123  -13.8272  -13.9812 C   0  0  1  0  0  0  0  0  0  0  0  0
   12.5653  -13.4297  -12.6762 C   0  0  0  0  0  0  0  0  0  0  0  0
   11.2358  -14.0900  -12.4411 C   0  0  0  0  0  0  0  0  0  0  0  0
   10.3649  -13.1133  -11.7107 C   0  0  0  0  0  0  0  0  0  0  0  0
   10.2383  -13.1464  -10.4619 O   0  0  0  0  0  0  0  0  0  0  0  0
   14.3889  -13.0232  -14.3370 C   0  0  0  0  0  0  0  0  0  0  0  0
   15.5292  -13.1883  -13.8428 O   0  0  0  0  0  0  0  0  0  0  0  0
    9.6851  -12.1544  -12.4211 O   0  0  0  0  0  0  0  0  0  0  0  0
   14.2532  -11.9845  -15.3011 N   0  0  0  0  0  0  0  0  0  0  0  0
   15.3043  -11.0928  -15.6653 C   0  0  1  0  0  0  0  0  0  0  0  0
   15.0873  -10.6284  -17.0814 C   0  0  0  0  0  0  0  0  0  0  0  0
   16.2307   -9.8341  -17.5600 C   0  0  0  0  0  0  0  0  0  0  0  0
   17.3917  -10.2921  -17.3263 O   0  0  0  0  0  0  0  0  0  0  0  0
   15.3209   -9.8574  -14.8102 C   0  0  0  0  0  0  0  0  0  0  0  0
   14.2311   -9.2878  -14.5437 O   0  0  0  0  0  0  0  0  0  0  0  0
   16.1750   -8.6404  -18.2365 O   0  0  0  0  0  0  0  0  0  0  0  0
   15.6278   -8.5606  -10.3638 C   0  0  0  0  0  0  0  0  0  0  0  0
   16.6962   -9.2479  -11.1580 C   0  0  2  0  0  0  0  0  0  0  0  0
   17.8422   -9.5296  -10.1530 C   0  0  0  0  0  0  0  0  0  0  0  0
   17.3063   -8.5089  -12.2639 C   0  0  0  0  0  0  0  0  0  0  0  0
   16.5429   -8.0873  -13.4620 C   0  0  2  0  0  0  0  0  0  0  0  0
   16.5045   -9.3158  -14.2978 N   0  0  0  0  0  0  0  0  0  0  0  0
   17.1427   -6.9929  -14.2014 C   0  0  0  0  0  0  0  0  0  0  0  0
   17.1317   -5.6490  -13.9145 O   0  0  0  0  0  0  0  0  0  0  0  0
   17.7713   -7.2936  -15.2825 O   0  0  0  0  0  0  0  0  0  0  0  0
  2  1  1  1
  2  7  1  0
  3  2  1  0
  3  4  1  0
  4  5  1  0
  5  6  2  0
  7  8  2  0
  9  5  1  0
 10 11  1  0
 10  7  1  0
 12 13  1  0
 11 12  1  6
 13 17  1  0
 14 13  2  0
 15 11  1  0
 15 16  2  0
 19 18  1  1
 19 21  1  0
 19 20  1  0
 22 21  1  1
 22 23  1  0
 22 24  1  0
 23 15  1  0
 24 26  2  0
 24 25  1  0
M  END
$$$$
