EDL.pdb
     RDKit          3D

 26 25  0  0  1  0  0  0  0  0999 V2000
   24.4435  -19.0718  -17.9809 N   0  0  0  0  0  0  0  0  0  0  0  0
   23.5408  -17.9779  -17.6438 C   0  0  1  0  0  0  0  0  0  0  0  0
   23.7467  -16.9078  -18.6889 C   0  0  0  0  0  0  0  0  0  0  0  0
   24.9240  -17.1660  -19.5868 C   0  0  0  0  0  0  0  0  0  0  0  0
   24.9418  -16.0943  -20.6343 C   0  0  0  0  0  0  0  0  0  0  0  0
   24.7219  -16.3492  -21.8439 O   0  0  0  0  0  0  0  0  0  0  0  0
   22.1588  -18.4664  -17.5495 C   0  0  0  0  0  0  0  0  0  0  0  0
   21.1637  -17.7288  -17.3565 O   0  0  0  0  0  0  0  0  0  0  0  0
   25.2048  -14.7974  -20.2668 O   0  0  0  0  0  0  0  0  0  0  0  0
   21.9059  -19.8612  -17.6821 N   0  0  0  0  0  0  0  0  0  0  0  0
   20.6401  -20.4686  -17.4343 C   0  0  1  0  0  0  0  0  0  0  0  0
   20.7510  -21.9516  -17.6720 C   0  0  0  0  0  0  0  0  0  0  0  0
   19.8527  -22.3835  -18.7556 C   0  0  0  0  0  0  0  0  0  0  0  0
   19.0527  -21.5160  -19.2243 O   0  0  0  0  0  0  0  0  0  0  0  0
   20.1996  -20.2983  -16.0079 C   0  0  0  0  0  0  0  0  0  0  0  0
   21.0510  -20.4214  -15.0898 O   0  0  0  0  0  0  0  0  0  0  0  0
   19.7864  -23.6349  -19.3169 O   0  0  0  0  0  0  0  0  0  0  0  0
   19.6881  -17.6687  -11.9177 C   0  0  0  0  0  0  0  0  0  0  0  0
   20.0768  -17.6699  -13.3646 C   0  0  2  0  0  0  0  0  0  0  0  0
   20.3995  -16.1931  -13.7075 C   0  0  0  0  0  0  0  0  0  0  0  0
   19.0734  -18.0972  -14.3403 C   0  0  0  0  0  0  0  0  0  0  0  0
   18.4831  -19.4565  -14.3378 C   0  0  2  0  0  0  0  0  0  0  0  0
   18.8760  -20.0068  -15.6614 N   0  0  0  0  0  0  0  0  0  0  0  0
   17.0404  -19.4840  -14.1885 C   0  0  0  0  0  0  0  0  0  0  0  0
   16.2928  -19.5383  -13.0366 O   0  0  0  0  0  0  0  0  0  0  0  0
   16.3409  -19.4628  -15.2676 O   0  0  0  0  0  0  0  0  0  0  0  0
  2  1  1  6
  2  7  1  0
  3  2  1  0
  3  4  1  0
  4  5  1  0
  5  6  2  0
  7  8  2  0
  9  5  1  0
 10 11  1  0
 10  7  1  0
 12 13  1  0
 11 12  1  1
 13 17  1  0
 14 13  2  0
 15 11  1  0
 15 16  2  0
 19 18  1  1
 19 21  1  0
 19 20  1  0
 22 21  1  6
 22 23  1  0
 22 24  1  0
 23 15  1  0
 24 26  2  0
 24 25  1  0
M  END
$$$$
