EDL.pdb
     RDKit          3D

 26 25  0  0  1  0  0  0  0  0999 V2000
   18.1328  -11.9368  -15.2239 N   0  0  0  0  0  0  0  0  0  0  0  0
   18.7156  -10.8855  -16.0486 C   0  0  1  0  0  0  0  0  0  0  0  0
   17.9253  -10.8550  -17.3348 C   0  0  0  0  0  0  0  0  0  0  0  0
   16.5370  -11.4142  -17.1983 C   0  0  0  0  0  0  0  0  0  0  0  0
   15.8832  -11.3441  -18.5451 C   0  0  0  0  0  0  0  0  0  0  0  0
   15.8550  -12.3331  -19.3180 O   0  0  0  0  0  0  0  0  0  0  0  0
   18.7250   -9.6104  -15.3198 C   0  0  0  0  0  0  0  0  0  0  0  0
   17.8100   -9.2332  -14.5503 O   0  0  0  0  0  0  0  0  0  0  0  0
   15.2977  -10.1693  -18.9494 O   0  0  0  0  0  0  0  0  0  0  0  0
   19.8313   -8.7286  -15.4796 N   0  0  0  0  0  0  0  0  0  0  0  0
   19.9288   -7.4510  -14.8545 C   0  0  1  0  0  0  0  0  0  0  0  0
   21.3735   -7.0266  -14.8248 C   0  0  0  0  0  0  0  0  0  0  0  0
   21.5391   -5.7598  -14.0931 C   0  0  0  0  0  0  0  0  0  0  0  0
   20.5025   -5.2638  -13.5530 O   0  0  0  0  0  0  0  0  0  0  0  0
   19.1890   -6.3889  -15.6176 C   0  0  0  0  0  0  0  0  0  0  0  0
   19.3172   -6.3382  -16.8683 O   0  0  0  0  0  0  0  0  0  0  0  0
   22.7042   -5.0512  -13.9325 O   0  0  0  0  0  0  0  0  0  0  0  0
   15.0344   -2.4065  -15.2816 C   0  0  0  0  0  0  0  0  0  0  0  0
   15.2321   -3.6856  -16.0360 C   0  0  2  0  0  0  0  0  0  0  0  0
   13.8918   -4.4535  -15.9071 C   0  0  0  0  0  0  0  0  0  0  0  0
   16.2672   -4.6047  -15.5614 C   0  0  0  0  0  0  0  0  0  0  0  0
   17.7149   -4.3243  -15.7087 C   0  0  2  0  0  0  0  0  0  0  0  0
   18.3610   -5.4529  -14.9891 N   0  0  0  0  0  0  0  0  0  0  0  0
   18.1411   -3.0572  -15.1456 C   0  0  0  0  0  0  0  0  0  0  0  0
   18.6276   -2.7917  -13.8880 O   0  0  0  0  0  0  0  0  0  0  0  0
   18.0553   -2.0223  -15.9043 O   0  0  0  0  0  0  0  0  0  0  0  0
  2  1  1  1
  2  7  1  0
  3  2  1  0
  3  4  1  0
  4  5  1  0
  5  6  2  0
  7  8  2  0
  9  5  1  0
 10 11  1  0
 10  7  1  0
 12 13  1  0
 11 12  1  6
 13 17  1  0
 14 13  2  0
 15 11  1  0
 15 16  2  0
 19 18  1  1
 19 21  1  0
 19 20  1  0
 22 21  1  1
 22 23  1  0
 22 24  1  0
 23 15  1  0
 24 26  2  0
 24 25  1  0
M  END
$$$$
