EDL.pdb
     RDKit          3D

 26 25  0  0  1  0  0  0  0  0999 V2000
   16.2130  -13.4536  -18.2216 N   0  0  0  0  0  0  0  0  0  0  0  0
   16.0341  -12.0635  -17.8208 C   0  0  1  0  0  0  0  0  0  0  0  0
   15.4601  -12.0852  -16.4244 C   0  0  0  0  0  0  0  0  0  0  0  0
   14.7439  -13.3637  -16.0909 C   0  0  0  0  0  0  0  0  0  0  0  0
   14.3588  -13.3060  -14.6437 C   0  0  0  0  0  0  0  0  0  0  0  0
   15.1674  -13.6092  -13.7323 O   0  0  0  0  0  0  0  0  0  0  0  0
   17.3018  -11.3309  -17.9371 C   0  0  0  0  0  0  0  0  0  0  0  0
   18.4317  -11.8510  -17.7810 O   0  0  0  0  0  0  0  0  0  0  0  0
   13.0890  -12.9114  -14.2996 O   0  0  0  0  0  0  0  0  0  0  0  0
   17.2736   -9.9413  -18.2458 N   0  0  0  0  0  0  0  0  0  0  0  0
   18.4357   -9.1196  -18.3281 C   0  0  1  0  0  0  0  0  0  0  0  0
   18.0516   -7.7796  -18.8981 C   0  0  0  0  0  0  0  0  0  0  0  0
   19.2362   -6.9277  -19.0947 C   0  0  0  0  0  0  0  0  0  0  0  0
   19.0928   -5.6821  -18.8941 O   0  0  0  0  0  0  0  0  0  0  0  0
   19.0364   -8.8509  -16.9773 C   0  0  0  0  0  0  0  0  0  0  0  0
   18.2701   -8.6242  -16.0054 O   0  0  0  0  0  0  0  0  0  0  0  0
   20.4892   -7.3398  -19.4762 O   0  0  0  0  0  0  0  0  0  0  0  0
   24.4356  -10.3622  -14.5442 C   0  0  0  0  0  0  0  0  0  0  0  0
   23.1730   -9.5839  -14.3337 C   0  0  2  0  0  0  0  0  0  0  0  0
   22.4272  -10.3082  -13.1839 C   0  0  0  0  0  0  0  0  0  0  0  0
   22.2228   -9.5117  -15.4442 C   0  0  0  0  0  0  0  0  0  0  0  0
   21.0297   -8.6330  -15.4206 C   0  0  2  0  0  0  0  0  0  0  0  0
   20.4181   -8.8439  -16.7587 N   0  0  0  0  0  0  0  0  0  0  0  0
   21.3238   -7.2272  -15.2165 C   0  0  0  0  0  0  0  0  0  0  0  0
   21.3585   -6.5144  -14.0421 O   0  0  0  0  0  0  0  0  0  0  0  0
   21.5842   -6.5269  -16.2634 O   0  0  0  0  0  0  0  0  0  0  0  0
  2  1  1  1
  2  7  1  0
  3  2  1  0
  3  4  1  0
  4  5  1  0
  5  6  2  0
  7  8  2  0
  9  5  1  0
 10 11  1  0
 10  7  1  0
 12 13  1  0
 11 12  1  1
 13 17  1  0
 14 13  2  0
 15 11  1  0
 15 16  2  0
 19 18  1  6
 19 21  1  0
 19 20  1  0
 22 21  1  6
 22 23  1  0
 22 24  1  0
 23 15  1  0
 24 26  2  0
 24 25  1  0
M  END
$$$$
