EDL.pdb
     RDKit          3D

 26 25  0  0  1  0  0  0  0  0999 V2000
   18.2271  -13.4809  -19.1523 N   0  0  0  0  0  0  0  0  0  0  0  0
   19.6394  -13.7099  -18.8732 C   0  0  1  0  0  0  0  0  0  0  0  0
   20.1651  -14.5846  -19.9860 C   0  0  0  0  0  0  0  0  0  0  0  0
   19.6155  -15.9832  -19.9591 C   0  0  0  0  0  0  0  0  0  0  0  0
   20.2115  -16.7291  -21.1142 C   0  0  0  0  0  0  0  0  0  0  0  0
   21.0127  -16.1821  -21.9113 O   0  0  0  0  0  0  0  0  0  0  0  0
   20.3463  -12.4303  -18.7310 C   0  0  0  0  0  0  0  0  0  0  0  0
   21.5852  -12.3251  -18.5706 O   0  0  0  0  0  0  0  0  0  0  0  0
   19.8761  -18.0464  -21.3107 O   0  0  0  0  0  0  0  0  0  0  0  0
   19.6011  -11.2179  -18.7745 N   0  0  0  0  0  0  0  0  0  0  0  0
   20.1801   -9.9215  -18.6453 C   0  0  1  0  0  0  0  0  0  0  0  0
   19.1964   -8.8921  -19.1358 C   0  0  0  0  0  0  0  0  0  0  0  0
   19.2659   -8.7473  -20.5993 C   0  0  0  0  0  0  0  0  0  0  0  0
   20.4221   -8.7112  -21.1228 O   0  0  0  0  0  0  0  0  0  0  0  0
   20.4802   -9.5752  -17.2143 C   0  0  0  0  0  0  0  0  0  0  0  0
   19.6137   -9.8191  -16.3352 O   0  0  0  0  0  0  0  0  0  0  0  0
   18.2051   -8.6449  -21.4652 O   0  0  0  0  0  0  0  0  0  0  0  0
   23.1669  -11.2953  -14.0310 C   0  0  0  0  0  0  0  0  0  0  0  0
   23.6984  -10.4698  -15.1626 C   0  0  2  0  0  0  0  0  0  0  0  0
   25.2416  -10.5286  -15.0285 C   0  0  0  0  0  0  0  0  0  0  0  0
   23.3530   -9.0480  -15.1909 C   0  0  0  0  0  0  0  0  0  0  0  0
   21.9720   -8.5647  -15.4262 C   0  0  2  0  0  0  0  0  0  0  0  0
   21.6891   -8.9913  -16.8216 N   0  0  0  0  0  0  0  0  0  0  0  0
   21.8080   -7.1294  -15.2946 C   0  0  0  0  0  0  0  0  0  0  0  0
   21.6130   -6.1893  -16.2779 O   0  0  0  0  0  0  0  0  0  0  0  0
   21.8545   -6.6427  -14.1050 O   0  0  0  0  0  0  0  0  0  0  0  0
  2  1  1  6
  2  7  1  0
  3  2  1  0
  3  4  1  0
  4  5  1  0
  5  6  2  0
  7  8  2  0
  9  5  1  0
 10 11  1  0
 10  7  1  0
 12 13  1  0
 11 12  1  1
 13 17  1  0
 14 13  2  0
 15 11  1  0
 15 16  2  0
 19 18  1  1
 19 21  1  0
 19 20  1  0
 22 21  1  6
 22 23  1  0
 22 24  1  0
 23 15  1  0
 24 26  2  0
 24 25  1  0
M  END
$$$$
