EDL.pdb
     RDKit          3D

 26 25  0  0  1  0  0  0  0  0999 V2000
   18.5033  -13.6736  -17.0938 N   0  0  0  0  0  0  0  0  0  0  0  0
   19.6947  -13.2781  -17.8349 C   0  0  1  0  0  0  0  0  0  0  0  0
   19.5187  -13.7904  -19.2443 C   0  0  0  0  0  0  0  0  0  0  0  0
   20.6571  -13.4332  -20.1581 C   0  0  0  0  0  0  0  0  0  0  0  0
   20.3253  -13.9529  -21.5240 C   0  0  0  0  0  0  0  0  0  0  0  0
   19.2899  -14.6296  -21.7399 O   0  0  0  0  0  0  0  0  0  0  0  0
   19.8938  -11.8257  -17.7450 C   0  0  0  0  0  0  0  0  0  0  0  0
   20.8811  -11.2200  -18.2245 O   0  0  0  0  0  0  0  0  0  0  0  0
   21.1726  -13.6848  -22.5711 O   0  0  0  0  0  0  0  0  0  0  0  0
   18.9189  -11.0323  -17.0764 N   0  0  0  0  0  0  0  0  0  0  0  0
   19.0270   -9.6223  -16.8948 C   0  0  1  0  0  0  0  0  0  0  0  0
   17.6883   -9.0764  -16.4730 C   0  0  0  0  0  0  0  0  0  0  0  0
   16.6794   -9.2730  -17.5271 C   0  0  0  0  0  0  0  0  0  0  0  0
   16.9948   -8.9150  -18.7038 O   0  0  0  0  0  0  0  0  0  0  0  0
   19.9955   -9.2643  -15.8033 C   0  0  0  0  0  0  0  0  0  0  0  0
   20.0494   -9.9893  -14.7764 O   0  0  0  0  0  0  0  0  0  0  0  0
   15.4232   -9.8053  -17.3717 O   0  0  0  0  0  0  0  0  0  0  0  0
   25.2983   -8.6987  -15.1090 C   0  0  0  0  0  0  0  0  0  0  0  0
   24.1002   -9.3327  -14.4711 C   0  0  2  0  0  0  0  0  0  0  0  0
   24.3797  -10.8573  -14.4897 C   0  0  0  0  0  0  0  0  0  0  0  0
   22.8040   -9.1554  -15.1269 C   0  0  0  0  0  0  0  0  0  0  0  0
   21.9857   -7.9308  -14.9636 C   0  0  2  0  0  0  0  0  0  0  0  0
   20.8417   -8.1535  -15.8861 N   0  0  0  0  0  0  0  0  0  0  0  0
   22.6739   -6.6995  -15.3020 C   0  0  0  0  0  0  0  0  0  0  0  0
   23.3173   -5.8139  -14.4710 O   0  0  0  0  0  0  0  0  0  0  0  0
   22.6933   -6.3632  -16.5433 O   0  0  0  0  0  0  0  0  0  0  0  0
  2  1  1  1
  2  7  1  0
  3  2  1  0
  3  4  1  0
  4  5  1  0
  5  6  2  0
  7  8  2  0
  9  5  1  0
 10 11  1  0
 10  7  1  0
 12 13  1  0
 11 12  1  1
 13 17  1  0
 14 13  2  0
 15 11  1  0
 15 16  2  0
 19 18  1  6
 19 21  1  0
 19 20  1  0
 22 21  1  6
 22 23  1  0
 22 24  1  0
 23 15  1  0
 24 26  2  0
 24 25  1  0
M  END
$$$$
