EDL.pdb
     RDKit          3D

 26 25  0  0  1  0  0  0  0  0999 V2000
   16.4833  -12.3971  -17.7659 N   0  0  0  0  0  0  0  0  0  0  0  0
   17.5481  -12.5298  -16.7792 C   0  0  1  0  0  0  0  0  0  0  0  0
   18.0861  -13.9347  -16.9080 C   0  0  0  0  0  0  0  0  0  0  0  0
   17.0175  -14.9910  -16.8740 C   0  0  0  0  0  0  0  0  0  0  0  0
   17.6956  -16.3267  -16.9195 C   0  0  0  0  0  0  0  0  0  0  0  0
   17.0457  -17.3997  -16.8664 O   0  0  0  0  0  0  0  0  0  0  0  0
   18.5576  -11.4807  -16.9723 C   0  0  0  0  0  0  0  0  0  0  0  0
   19.6882  -11.4841  -16.4306 O   0  0  0  0  0  0  0  0  0  0  0  0
   19.0640  -16.3845  -17.0223 O   0  0  0  0  0  0  0  0  0  0  0  0
   18.2588  -10.3792  -17.8235 N   0  0  0  0  0  0  0  0  0  0  0  0
   19.1286   -9.2674  -18.0231 C   0  0  1  0  0  0  0  0  0  0  0  0
   18.4804   -8.3008  -18.9789 C   0  0  0  0  0  0  0  0  0  0  0  0
   19.3846   -7.1834  -19.2976 C   0  0  0  0  0  0  0  0  0  0  0  0
   18.9009   -6.0112  -19.2329 O   0  0  0  0  0  0  0  0  0  0  0  0
   19.3764   -8.5065  -16.7514 C   0  0  0  0  0  0  0  0  0  0  0  0
   18.4000   -8.2332  -16.0063 O   0  0  0  0  0  0  0  0  0  0  0  0
   20.7055   -7.2748  -19.6616 O   0  0  0  0  0  0  0  0  0  0  0  0
   21.0736   -9.2938  -12.4378 C   0  0  0  0  0  0  0  0  0  0  0  0
   21.8191   -9.3884  -13.7337 C   0  0  2  0  0  0  0  0  0  0  0  0
   23.2300   -9.9118  -13.3622 C   0  0  0  0  0  0  0  0  0  0  0  0
   22.0361   -8.1532  -14.4878 C   0  0  0  0  0  0  0  0  0  0  0  0
   20.9258   -7.3767  -15.0880 C   0  0  2  0  0  0  0  0  0  0  0  0
   20.6542   -8.0902  -16.3633 N   0  0  0  0  0  0  0  0  0  0  0  0
   21.2385   -5.9839  -15.3462 C   0  0  0  0  0  0  0  0  0  0  0  0
   21.4037   -5.3456  -16.5520 O   0  0  0  0  0  0  0  0  0  0  0  0
   21.3951   -5.2208  -14.3227 O   0  0  0  0  0  0  0  0  0  0  0  0
  2  1  1  6
  2  7  1  0
  3  2  1  0
  3  4  1  0
  4  5  1  0
  5  6  2  0
  7  8  2  0
  9  5  1  0
 10 11  1  0
 10  7  1  0
 12 13  1  0
 11 12  1  6
 13 17  1  0
 14 13  2  0
 15 11  1  0
 15 16  2  0
 19 18  1  1
 19 21  1  0
 19 20  1  0
 22 21  1  6
 22 23  1  0
 22 24  1  0
 23 15  1  0
 24 26  2  0
 24 25  1  0
M  END
$$$$
