EDL.pdb
     RDKit          3D

 26 25  0  0  1  0  0  0  0  0999 V2000
   20.3328  -12.5382  -16.0146 N   0  0  0  0  0  0  0  0  0  0  0  0
   20.2886  -11.7258  -17.2241 C   0  0  1  0  0  0  0  0  0  0  0  0
   19.2930  -12.3814  -18.1508 C   0  0  0  0  0  0  0  0  0  0  0  0
   19.5118  -13.8590  -18.3166 C   0  0  0  0  0  0  0  0  0  0  0  0
   18.4287  -14.3825  -19.2105 C   0  0  0  0  0  0  0  0  0  0  0  0
   17.3982  -13.7110  -19.4627 O   0  0  0  0  0  0  0  0  0  0  0  0
   19.9705  -10.3310  -16.8916 C   0  0  0  0  0  0  0  0  0  0  0  0
   20.0346   -9.3812  -17.7073 O   0  0  0  0  0  0  0  0  0  0  0  0
   18.5619  -15.6291  -19.7714 O   0  0  0  0  0  0  0  0  0  0  0  0
   19.5609  -10.0102  -15.5663 N   0  0  0  0  0  0  0  0  0  0  0  0
   19.2288   -8.6937  -15.1315 C   0  0  1  0  0  0  0  0  0  0  0  0
   18.2567   -8.7848  -13.9848 C   0  0  0  0  0  0  0  0  0  0  0  0
   16.9403   -9.2596  -14.4421 C   0  0  0  0  0  0  0  0  0  0  0  0
   16.3659   -8.5853  -15.3518 O   0  0  0  0  0  0  0  0  0  0  0  0
   20.4270   -7.9485  -14.6152 C   0  0  0  0  0  0  0  0  0  0  0  0
   21.4007   -8.6031  -14.1606 O   0  0  0  0  0  0  0  0  0  0  0  0
   16.2614  -10.3622  -13.9849 O   0  0  0  0  0  0  0  0  0  0  0  0
   24.5866   -5.0545  -15.3152 C   0  0  0  0  0  0  0  0  0  0  0  0
   23.7694   -5.8315  -16.3016 C   0  0  2  0  0  0  0  0  0  0  0  0
   23.5236   -4.8647  -17.4880 C   0  0  0  0  0  0  0  0  0  0  0  0
   22.4459   -6.2914  -15.8791 C   0  0  0  0  0  0  0  0  0  0  0  0
   21.7862   -5.8047  -14.6447 C   0  0  2  0  0  0  0  0  0  0  0  0
   20.5014   -6.5516  -14.6214 N   0  0  0  0  0  0  0  0  0  0  0  0
   21.5390   -4.3755  -14.6198 C   0  0  0  0  0  0  0  0  0  0  0  0
   22.2548   -3.3867  -13.9884 O   0  0  0  0  0  0  0  0  0  0  0  0
   20.5104   -3.9493  -15.2635 O   0  0  0  0  0  0  0  0  0  0  0  0
  2  1  1  1
  2  7  1  0
  3  2  1  0
  3  4  1  0
  4  5  1  0
  5  6  2  0
  7  8  2  0
  9  5  1  0
 10 11  1  0
 10  7  1  0
 12 13  1  0
 11 12  1  1
 13 17  1  0
 14 13  2  0
 15 11  1  0
 15 16  2  0
 19 18  1  1
 19 21  1  0
 19 20  1  0
 22 21  1  6
 22 23  1  0
 22 24  1  0
 23 15  1  0
 24 26  2  0
 24 25  1  0
M  END
$$$$
