KEM.pdb
     RDKit          3D

 27 26  0  0  1  0  0  0  0  0999 V2000
   26.7933  -20.6987  -17.8836 N   0  0  0  0  0  0  0  0  0  0  0  0
   27.1202  -21.3090  -16.6278 C   0  0  1  0  0  0  0  0  0  0  0  0
   28.5568  -21.2430  -16.2358 C   0  0  0  0  0  0  0  0  0  0  0  0
   29.3982  -22.4077  -16.5877 C   0  0  0  0  0  0  0  0  0  0  0  0
   28.7037  -23.5868  -17.1673 C   0  0  0  0  0  0  0  0  0  0  0  0
   29.6289  -24.7415  -17.4786 C   0  0  0  0  0  0  0  0  0  0  0  0
   28.8834  -25.9299  -17.8610 N   0  0  0  0  0  0  0  0  0  0  0  0
   26.3189  -20.6501  -15.5268 C   0  0  0  0  0  0  0  0  0  0  0  0
   26.9644  -19.9462  -14.6867 O   0  0  0  0  0  0  0  0  0  0  0  0
   24.9249  -20.8091  -15.4364 N   0  0  0  0  0  0  0  0  0  0  0  0
   24.1348  -20.2822  -14.3869 C   0  0  1  0  0  0  0  0  0  0  0  0
   22.7129  -20.1456  -14.8230 C   0  0  0  0  0  0  0  0  0  0  0  0
   22.4062  -18.6548  -14.9155 C   0  0  0  0  0  0  0  0  0  0  0  0
   21.0075  -18.4446  -15.3692 C   0  0  0  0  0  0  0  0  0  0  0  0
   20.6503  -18.7888  -16.5223 O   0  0  0  0  0  0  0  0  0  0  0  0
   24.2600  -20.9899  -13.0736 C   0  0  0  0  0  0  0  0  0  0  0  0
   24.2114  -22.2236  -12.9082 O   0  0  0  0  0  0  0  0  0  0  0  0
   20.0654  -17.8660  -14.5360 O   0  0  0  0  0  0  0  0  0  0  0  0
   27.2034  -20.1801   -5.8438 C   0  0  0  0  0  0  0  0  0  0  0  0
   27.0259  -19.5993   -7.5339 S   0  0  0  0  0  0  0  0  0  0  0  0
   25.7474  -20.5226   -8.4006 C   0  0  0  0  0  0  0  0  0  0  0  0
   25.5879  -20.1303   -9.8174 C   0  0  0  0  0  0  0  0  0  0  0  0
   24.5331  -20.8184  -10.6023 C   0  0  2  0  0  0  0  0  0  0  0  0
   24.4488  -20.1548  -11.9458 N   0  0  0  0  0  0  0  0  0  0  0  0
   23.1772  -20.8558  -10.0726 C   0  0  0  0  0  0  0  0  0  0  0  0
   22.1725  -20.0754  -10.6824 O   0  0  0  0  0  0  0  0  0  0  0  0
   22.7874  -21.5270   -9.1010 O   0  0  0  0  0  0  0  0  0  0  0  0
  2  1  1  6
  3  2  1  0
  4  3  1  0
  4  5  1  0
  5  6  1  0
  7  6  1  0
  8  2  1  0
  8  9  2  0
 10  8  1  0
 11 10  1  0
 11 12  1  6
 12 13  1  0
 13 14  1  0
 14 18  1  0
 15 14  2  0
 16 11  1  0
 17 16  2  0
 20 19  1  0
 20 21  1  0
 21 22  1  0
 23 22  1  1
 23 24  1  0
 24 16  1  0
 25 23  1  0
 25 26  1  0
 27 25  2  0
M  END
$$$$
