KEM.pdb
     RDKit          3D

 27 26  0  0  1  0  0  0  0  0999 V2000
   22.2856  -27.0642  -14.9358 N   0  0  0  0  0  0  0  0  0  0  0  0
   21.5953  -25.8449  -15.2412 C   0  0  1  0  0  0  0  0  0  0  0  0
   20.5634  -25.9414  -16.3124 C   0  0  0  0  0  0  0  0  0  0  0  0
   19.6579  -27.1101  -16.2628 C   0  0  0  0  0  0  0  0  0  0  0  0
   18.7656  -27.3179  -17.4329 C   0  0  0  0  0  0  0  0  0  0  0  0
   17.8220  -28.4886  -17.2740 C   0  0  0  0  0  0  0  0  0  0  0  0
   16.8756  -28.5600  -18.3756 N   0  0  0  0  0  0  0  0  0  0  0  0
   20.9086  -25.3321  -13.9947 C   0  0  0  0  0  0  0  0  0  0  0  0
   20.8480  -26.1257  -13.0025 O   0  0  0  0  0  0  0  0  0  0  0  0
   20.3621  -24.0381  -13.9362 N   0  0  0  0  0  0  0  0  0  0  0  0
   19.7968  -23.4699  -12.7697 C   0  0  1  0  0  0  0  0  0  0  0  0
   19.5504  -22.0101  -12.9678 C   0  0  0  0  0  0  0  0  0  0  0  0
   18.3200  -21.8728  -13.8578 C   0  0  0  0  0  0  0  0  0  0  0  0
   18.0860  -20.4453  -14.1952 C   0  0  0  0  0  0  0  0  0  0  0  0
   18.8974  -19.5600  -13.8294 O   0  0  0  0  0  0  0  0  0  0  0  0
   18.5947  -24.1800  -12.2292 C   0  0  0  0  0  0  0  0  0  0  0  0
   17.7067  -24.7240  -12.9128 O   0  0  0  0  0  0  0  0  0  0  0  0
   16.9719  -20.0554  -14.9185 O   0  0  0  0  0  0  0  0  0  0  0  0
   17.8225  -25.2021   -5.4982 C   0  0  0  0  0  0  0  0  0  0  0  0
   17.2866  -26.6313   -6.4446 S   0  0  0  0  0  0  0  0  0  0  0  0
   16.7080  -26.1420   -8.0769 C   0  0  0  0  0  0  0  0  0  0  0  0
   17.7403  -25.4730   -8.8975 C   0  0  0  0  0  0  0  0  0  0  0  0
   17.3302  -24.9652  -10.2302 C   0  0  2  0  0  0  0  0  0  0  0  0
   18.4910  -24.2167  -10.8175 N   0  0  0  0  0  0  0  0  0  0  0  0
   16.1782  -24.0788  -10.3186 C   0  0  0  0  0  0  0  0  0  0  0  0
   14.9060  -24.6206  -10.5984 O   0  0  0  0  0  0  0  0  0  0  0  0
   16.1892  -22.8443  -10.1690 O   0  0  0  0  0  0  0  0  0  0  0  0
  2  1  1  1
  3  2  1  0
  4  3  1  0
  4  5  1  0
  5  6  1  0
  7  6  1  0
  8  2  1  0
  8  9  2  0
 10  8  1  0
 11 10  1  0
 11 12  1  6
 12 13  1  0
 13 14  1  0
 14 18  1  0
 15 14  2  0
 16 11  1  0
 17 16  2  0
 20 19  1  0
 20 21  1  0
 21 22  1  0
 23 22  1  1
 23 24  1  0
 24 16  1  0
 25 23  1  0
 25 26  1  0
 27 25  2  0
M  END
$$$$
