KEM.pdb
     RDKit          3D

 27 26  0  0  1  0  0  0  0  0999 V2000
   26.6996  -18.1179  -16.6195 N   0  0  0  0  0  0  0  0  0  0  0  0
   26.8650  -19.2780  -15.7930 C   0  0  1  0  0  0  0  0  0  0  0  0
   28.2331  -19.4814  -15.2374 C   0  0  0  0  0  0  0  0  0  0  0  0
   29.2780  -19.9283  -16.1845 C   0  0  0  0  0  0  0  0  0  0  0  0
   28.9374  -21.0737  -17.0680 C   0  0  0  0  0  0  0  0  0  0  0  0
   30.0607  -21.4765  -17.9966 C   0  0  0  0  0  0  0  0  0  0  0  0
   29.6967  -22.6339  -18.7980 N   0  0  0  0  0  0  0  0  0  0  0  0
   25.9076  -19.2013  -14.6244 C   0  0  0  0  0  0  0  0  0  0  0  0
   25.9765  -18.1650  -13.8901 O   0  0  0  0  0  0  0  0  0  0  0  0
   24.9845  -20.2287  -14.3620 N   0  0  0  0  0  0  0  0  0  0  0  0
   24.1906  -20.2996  -13.1923 C   0  0  1  0  0  0  0  0  0  0  0  0
   22.9249  -21.0439  -13.4657 C   0  0  0  0  0  0  0  0  0  0  0  0
   21.7680  -20.0848  -13.2080 C   0  0  0  0  0  0  0  0  0  0  0  0
   20.4708  -20.7672  -13.4487 C   0  0  0  0  0  0  0  0  0  0  0  0
   20.1508  -21.7851  -12.7874 O   0  0  0  0  0  0  0  0  0  0  0  0
   24.8936  -20.8049  -11.9709 C   0  0  0  0  0  0  0  0  0  0  0  0
   26.0359  -21.3009  -11.9458 O   0  0  0  0  0  0  0  0  0  0  0  0
   19.5845  -20.3006  -14.4044 O   0  0  0  0  0  0  0  0  0  0  0  0
   29.1500  -19.6804   -6.4088 C   0  0  0  0  0  0  0  0  0  0  0  0
   28.2552  -19.3838   -7.9374 S   0  0  0  0  0  0  0  0  0  0  0  0
   26.7984  -20.4348   -8.0445 C   0  0  0  0  0  0  0  0  0  0  0  0
   26.0822  -20.3283   -9.3338 C   0  0  0  0  0  0  0  0  0  0  0  0
   24.8534  -21.1431   -9.5020 C   0  0  2  0  0  0  0  0  0  0  0  0
   24.1686  -20.6937  -10.7596 N   0  0  0  0  0  0  0  0  0  0  0  0
   23.8464  -21.1184   -8.4503 C   0  0  0  0  0  0  0  0  0  0  0  0
   24.0587  -21.8599   -7.2690 O   0  0  0  0  0  0  0  0  0  0  0  0
   22.7734  -20.4904   -8.4768 O   0  0  0  0  0  0  0  0  0  0  0  0
  2  1  1  1
  3  2  1  0
  4  3  1  0
  4  5  1  0
  5  6  1  0
  7  6  1  0
  8  2  1  0
  8  9  2  0
 10  8  1  0
 11 10  1  0
 11 12  1  6
 12 13  1  0
 13 14  1  0
 14 18  1  0
 15 14  2  0
 16 11  1  0
 17 16  2  0
 20 19  1  0
 20 21  1  0
 21 22  1  0
 23 22  1  1
 23 24  1  0
 24 16  1  0
 25 23  1  0
 25 26  1  0
 27 25  2  0
M  END
$$$$
