KEM.pdb
     RDKit          3D

 27 26  0  0  1  0  0  0  0  0999 V2000
   25.3843  -22.4536  -14.7730 N   0  0  0  0  0  0  0  0  0  0  0  0
   24.1320  -22.4629  -15.4716 C   0  0  1  0  0  0  0  0  0  0  0  0
   23.9743  -23.5360  -16.4940 C   0  0  0  0  0  0  0  0  0  0  0  0
   25.2021  -23.9798  -17.1898 C   0  0  0  0  0  0  0  0  0  0  0  0
   25.9220  -25.1412  -16.6056 C   0  0  0  0  0  0  0  0  0  0  0  0
   27.0889  -25.6135  -17.4432 C   0  0  0  0  0  0  0  0  0  0  0  0
   27.7751  -26.7306  -16.8142 N   0  0  0  0  0  0  0  0  0  0  0  0
   23.0037  -22.6160  -14.4757 C   0  0  0  0  0  0  0  0  0  0  0  0
   23.1563  -23.4875  -13.5618 O   0  0  0  0  0  0  0  0  0  0  0  0
   21.8400  -21.8314  -14.5571 N   0  0  0  0  0  0  0  0  0  0  0  0
   20.7469  -21.9423  -13.6649 C   0  0  1  0  0  0  0  0  0  0  0  0
   19.9202  -20.6987  -13.6963 C   0  0  0  0  0  0  0  0  0  0  0  0
   20.8442  -19.5295  -13.3737 C   0  0  0  0  0  0  0  0  0  0  0  0
   20.0857  -18.2526  -13.3977 C   0  0  0  0  0  0  0  0  0  0  0  0
   19.2100  -18.0122  -12.5310 O   0  0  0  0  0  0  0  0  0  0  0  0
   19.9174  -23.1791  -13.8190 C   0  0  0  0  0  0  0  0  0  0  0  0
   19.5793  -23.6942  -14.9016 O   0  0  0  0  0  0  0  0  0  0  0  0
   20.3235  -17.2985  -14.3722 O   0  0  0  0  0  0  0  0  0  0  0  0
   21.1584  -27.8296  -10.0888 C   0  0  0  0  0  0  0  0  0  0  0  0
   19.7161  -28.6059  -10.8253 S   0  0  0  0  0  0  0  0  0  0  0  0
   18.7477  -27.4101  -11.7583 C   0  0  0  0  0  0  0  0  0  0  0  0
   19.3781  -26.0756  -11.8485 C   0  0  0  0  0  0  0  0  0  0  0  0
   18.7209  -25.0669  -12.7162 C   0  0  2  0  0  0  0  0  0  0  0  0
   19.4995  -23.7881  -12.6109 N   0  0  0  0  0  0  0  0  0  0  0  0
   17.3279  -24.7259  -12.4637 C   0  0  0  0  0  0  0  0  0  0  0  0
   17.0013  -23.9199  -11.3529 O   0  0  0  0  0  0  0  0  0  0  0  0
   16.3506  -25.0805  -13.1462 O   0  0  0  0  0  0  0  0  0  0  0  0
  2  1  1  1
  3  2  1  0
  4  3  1  0
  4  5  1  0
  5  6  1  0
  7  6  1  0
  8  2  1  0
  8  9  2  0
 10  8  1  0
 11 10  1  0
 11 12  1  6
 12 13  1  0
 13 14  1  0
 14 18  1  0
 15 14  2  0
 16 11  1  0
 17 16  2  0
 20 19  1  0
 20 21  1  0
 21 22  1  0
 23 22  1  1
 23 24  1  0
 24 16  1  0
 25 23  1  0
 25 26  1  0
 27 25  2  0
M  END
$$$$
