KEM.pdb
     RDKit          3D

 27 26  0  0  1  0  0  0  0  0999 V2000
   24.6425  -26.3935  -19.6991 N   0  0  0  0  0  0  0  0  0  0  0  0
   24.0737  -27.2208  -18.6752 C   0  0  1  0  0  0  0  0  0  0  0  0
   25.0148  -28.1758  -18.0239 C   0  0  0  0  0  0  0  0  0  0  0  0
   26.2211  -27.5974  -17.3924 C   0  0  0  0  0  0  0  0  0  0  0  0
   27.5094  -27.7859  -18.1088 C   0  0  0  0  0  0  0  0  0  0  0  0
   28.6735  -27.0734  -17.4580 C   0  0  0  0  0  0  0  0  0  0  0  0
   29.8888  -27.2166  -18.2435 N   0  0  0  0  0  0  0  0  0  0  0  0
   23.4924  -26.3442  -17.5880 C   0  0  0  0  0  0  0  0  0  0  0  0
   22.8385  -26.9273  -16.6659 O   0  0  0  0  0  0  0  0  0  0  0  0
   23.6666  -24.9492  -17.5970 N   0  0  0  0  0  0  0  0  0  0  0  0
   23.1263  -24.0779  -16.6212 C   0  0  1  0  0  0  0  0  0  0  0  0
   23.9877  -22.8672  -16.4692 C   0  0  0  0  0  0  0  0  0  0  0  0
   25.4389  -23.3339  -16.5031 C   0  0  0  0  0  0  0  0  0  0  0  0
   26.3494  -22.2067  -16.1764 C   0  0  0  0  0  0  0  0  0  0  0  0
   25.8960  -21.0508  -15.9914 O   0  0  0  0  0  0  0  0  0  0  0  0
   21.6824  -23.7275  -16.8046 C   0  0  0  0  0  0  0  0  0  0  0  0
   21.1018  -23.5986  -17.8991 O   0  0  0  0  0  0  0  0  0  0  0  0
   27.7159  -22.4003  -16.0678 O   0  0  0  0  0  0  0  0  0  0  0  0
   14.4646  -25.1474  -15.6882 C   0  0  0  0  0  0  0  0  0  0  0  0
   16.1740  -25.4042  -15.2013 S   0  0  0  0  0  0  0  0  0  0  0  0
   17.1724  -23.9524  -15.5674 C   0  0  0  0  0  0  0  0  0  0  0  0
   18.6284  -24.2081  -15.5322 C   0  0  0  0  0  0  0  0  0  0  0  0
   19.5308  -23.0494  -15.7453 C   0  0  2  0  0  0  0  0  0  0  0  0
   20.9451  -23.5335  -15.6114 N   0  0  0  0  0  0  0  0  0  0  0  0
   19.4043  -21.8922  -14.8705 C   0  0  0  0  0  0  0  0  0  0  0  0
   18.2835  -21.0450  -14.9984 O   0  0  0  0  0  0  0  0  0  0  0  0
   20.2077  -21.5509  -13.9847 O   0  0  0  0  0  0  0  0  0  0  0  0
  2  1  1  6
  3  2  1  0
  4  3  1  0
  4  5  1  0
  5  6  1  0
  7  6  1  0
  8  2  1  0
  8  9  2  0
 10  8  1  0
 11 10  1  0
 11 12  1  6
 12 13  1  0
 13 14  1  0
 14 18  1  0
 15 14  2  0
 16 11  1  0
 17 16  2  0
 20 19  1  0
 20 21  1  0
 21 22  1  0
 23 22  1  1
 23 24  1  0
 24 16  1  0
 25 23  1  0
 25 26  1  0
 27 25  2  0
M  END
$$$$
