KEM.pdb
     RDKit          3D

 27 26  0  0  1  0  0  0  0  0999 V2000
   19.4079  -14.7756  -16.0723 N   0  0  0  0  0  0  0  0  0  0  0  0
   20.5311  -14.5017  -16.9206 C   0  0  1  0  0  0  0  0  0  0  0  0
   20.4734  -15.1103  -18.2800 C   0  0  0  0  0  0  0  0  0  0  0  0
   20.3836  -16.5853  -18.3471 C   0  0  0  0  0  0  0  0  0  0  0  0
   19.1952  -17.2148  -17.7147 C   0  0  0  0  0  0  0  0  0  0  0  0
   19.2139  -18.7260  -17.7615 C   0  0  0  0  0  0  0  0  0  0  0  0
   18.0331  -19.2906  -17.1283 N   0  0  0  0  0  0  0  0  0  0  0  0
   20.6716  -13.0061  -17.0987 C   0  0  0  0  0  0  0  0  0  0  0  0
   21.6483  -12.5992  -17.8047 O   0  0  0  0  0  0  0  0  0  0  0  0
   19.7644  -12.1075  -16.5105 N   0  0  0  0  0  0  0  0  0  0  0  0
   19.8722  -10.6993  -16.6042 C   0  0  1  0  0  0  0  0  0  0  0  0
   18.5503  -10.0566  -16.3392 C   0  0  0  0  0  0  0  0  0  0  0  0
   17.5109  -10.7896  -17.1803 C   0  0  0  0  0  0  0  0  0  0  0  0
   16.1451  -10.3185  -16.8355 C   0  0  0  0  0  0  0  0  0  0  0  0
   15.2476  -10.2618  -17.7114 O   0  0  0  0  0  0  0  0  0  0  0  0
   20.9734  -10.0862  -15.7962 C   0  0  0  0  0  0  0  0  0  0  0  0
   21.0810  -10.1446  -14.5566 O   0  0  0  0  0  0  0  0  0  0  0  0
   15.8274   -9.9313  -15.5449 O   0  0  0  0  0  0  0  0  0  0  0  0
   26.9924  -11.6787  -14.8663 C   0  0  0  0  0  0  0  0  0  0  0  0
   26.9950  -10.2013  -15.8873 S   0  0  0  0  0  0  0  0  0  0  0  0
   25.5978   -9.1401  -15.4871 C   0  0  0  0  0  0  0  0  0  0  0  0
   24.3240   -9.5798  -16.0959 C   0  0  0  0  0  0  0  0  0  0  0  0
   23.1059   -8.7965  -15.7722 C   0  0  2  0  0  0  0  0  0  0  0  0
   21.9581   -9.3885  -16.5369 N   0  0  0  0  0  0  0  0  0  0  0  0
   23.0966   -7.3673  -16.0513 C   0  0  0  0  0  0  0  0  0  0  0  0
   22.6541   -6.9092  -17.3101 O   0  0  0  0  0  0  0  0  0  0  0  0
   23.4503   -6.4653  -15.2717 O   0  0  0  0  0  0  0  0  0  0  0  0
  2  1  1  1
  3  2  1  0
  4  3  1  0
  4  5  1  0
  5  6  1  0
  7  6  1  0
  8  2  1  0
  8  9  2  0
 10  8  1  0
 11 10  1  0
 11 12  1  1
 12 13  1  0
 13 14  1  0
 14 18  1  0
 15 14  2  0
 16 11  1  0
 17 16  2  0
 20 19  1  0
 20 21  1  0
 21 22  1  0
 23 22  1  6
 23 24  1  0
 24 16  1  0
 25 23  1  0
 25 26  1  0
 27 25  2  0
M  END
$$$$
