KEM.pdb
     RDKit          3D

 27 26  0  0  1  0  0  0  0  0999 V2000
   28.1970  -21.8597  -18.4725 N   0  0  0  0  0  0  0  0  0  0  0  0
   28.0787  -22.4623  -17.1767 C   0  0  1  0  0  0  0  0  0  0  0  0
   29.3657  -22.7547  -16.4839 C   0  0  0  0  0  0  0  0  0  0  0  0
   30.1508  -23.9013  -16.9914 C   0  0  0  0  0  0  0  0  0  0  0  0
   29.4194  -25.1795  -17.1910 C   0  0  0  0  0  0  0  0  0  0  0  0
   30.3207  -26.3464  -17.5260 C   0  0  0  0  0  0  0  0  0  0  0  0
   29.5680  -27.5867  -17.6236 N   0  0  0  0  0  0  0  0  0  0  0  0
   27.2735  -21.5544  -16.2735 C   0  0  0  0  0  0  0  0  0  0  0  0
   27.8018  -21.2313  -15.1624 O   0  0  0  0  0  0  0  0  0  0  0  0
   25.9998  -21.0898  -16.6452 N   0  0  0  0  0  0  0  0  0  0  0  0
   25.1823  -20.2784  -15.8226 C   0  0  1  0  0  0  0  0  0  0  0  0
   24.0523  -19.7056  -16.6137 C   0  0  0  0  0  0  0  0  0  0  0  0
   23.2857  -18.7612  -15.6943 C   0  0  0  0  0  0  0  0  0  0  0  0
   22.0701  -18.2511  -16.3789 C   0  0  0  0  0  0  0  0  0  0  0  0
   21.6809  -18.7624  -17.4572 O   0  0  0  0  0  0  0  0  0  0  0  0
   24.7180  -20.9180  -14.5511 C   0  0  0  0  0  0  0  0  0  0  0  0
   24.1718  -22.0338  -14.4591 O   0  0  0  0  0  0  0  0  0  0  0  0
   21.3378  -17.2031  -15.8479 O   0  0  0  0  0  0  0  0  0  0  0  0
   25.9592  -20.6171   -6.7758 C   0  0  0  0  0  0  0  0  0  0  0  0
   26.3714  -20.0921   -8.4431 S   0  0  0  0  0  0  0  0  0  0  0  0
   25.1950  -20.7515   -9.6347 C   0  0  0  0  0  0  0  0  0  0  0  0
   25.4885  -20.3703  -11.0329 C   0  0  0  0  0  0  0  0  0  0  0  0
   24.5097  -20.7769  -12.0716 C   0  0  2  0  0  0  0  0  0  0  0  0
   24.9341  -20.1622  -13.3734 N   0  0  0  0  0  0  0  0  0  0  0  0
   23.1073  -20.4305  -11.8874 C   0  0  0  0  0  0  0  0  0  0  0  0
   22.2581  -21.3198  -11.1958 O   0  0  0  0  0  0  0  0  0  0  0  0
   22.5490  -19.3942  -12.2884 O   0  0  0  0  0  0  0  0  0  0  0  0
  2  1  1  6
  3  2  1  0
  4  3  1  0
  4  5  1  0
  5  6  1  0
  7  6  1  0
  8  2  1  0
  8  9  2  0
 10  8  1  0
 11 10  1  0
 11 12  1  6
 12 13  1  0
 13 14  1  0
 14 18  1  0
 15 14  2  0
 16 11  1  0
 17 16  2  0
 20 19  1  0
 20 21  1  0
 21 22  1  0
 23 22  1  1
 23 24  1  0
 24 16  1  0
 25 23  1  0
 25 26  1  0
 27 25  2  0
M  END
$$$$
