KEM.pdb
     RDKit          3D

 27 26  0  0  1  0  0  0  0  0999 V2000
   15.4234  -13.2859  -12.3338 N   0  0  0  0  0  0  0  0  0  0  0  0
   14.7247  -12.0526  -12.5507 C   0  0  1  0  0  0  0  0  0  0  0  0
   13.3114  -12.0229  -12.0780 C   0  0  0  0  0  0  0  0  0  0  0  0
   12.6818  -13.3270  -11.7756 C   0  0  0  0  0  0  0  0  0  0  0  0
   11.2509  -13.3045  -11.3750 C   0  0  0  0  0  0  0  0  0  0  0  0
   10.6492  -14.6808  -11.2017 C   0  0  0  0  0  0  0  0  0  0  0  0
    9.2527  -14.6028  -10.8045 N   0  0  0  0  0  0  0  0  0  0  0  0
   15.4602  -10.9303  -11.8521 C   0  0  0  0  0  0  0  0  0  0  0  0
   15.2503  -10.7923  -10.6052 O   0  0  0  0  0  0  0  0  0  0  0  0
   16.3351  -10.0790  -12.5495 N   0  0  0  0  0  0  0  0  0  0  0  0
   17.0382   -9.0056  -11.9523 C   0  0  1  0  0  0  0  0  0  0  0  0
   18.1371   -8.5388  -12.8497 C   0  0  0  0  0  0  0  0  0  0  0  0
   18.9477   -7.5043  -12.0767 C   0  0  0  0  0  0  0  0  0  0  0  0
   20.0089   -6.9303  -12.9431 C   0  0  0  0  0  0  0  0  0  0  0  0
   20.1231   -5.6874  -13.0768 O   0  0  0  0  0  0  0  0  0  0  0  0
   16.1866   -7.8756  -11.4631 C   0  0  0  0  0  0  0  0  0  0  0  0
   15.2452   -7.3539  -12.0902 O   0  0  0  0  0  0  0  0  0  0  0  0
   20.8960   -7.7474  -13.6228 O   0  0  0  0  0  0  0  0  0  0  0  0
   12.6717   -5.1797   -5.1478 C   0  0  0  0  0  0  0  0  0  0  0  0
   13.5679   -6.4397   -6.0612 S   0  0  0  0  0  0  0  0  0  0  0  0
   14.2898   -5.7561   -7.5612 C   0  0  0  0  0  0  0  0  0  0  0  0
   15.0640   -6.7388   -8.3496 C   0  0  0  0  0  0  0  0  0  0  0  0
   15.6561   -6.2742   -9.6285 C   0  0  2  0  0  0  0  0  0  0  0  0
   16.5069   -7.3835  -10.1746 N   0  0  0  0  0  0  0  0  0  0  0  0
   16.4875   -5.0786   -9.6227 C   0  0  0  0  0  0  0  0  0  0  0  0
   15.8817   -3.8132   -9.4744 O   0  0  0  0  0  0  0  0  0  0  0  0
   17.7252   -5.0453   -9.7391 O   0  0  0  0  0  0  0  0  0  0  0  0
  2  1  1  1
  3  2  1  0
  4  3  1  0
  4  5  1  0
  5  6  1  0
  7  6  1  0
  8  2  1  0
  8  9  2  0
 10  8  1  0
 11 10  1  0
 11 12  1  6
 12 13  1  0
 13 14  1  0
 14 18  1  0
 15 14  2  0
 16 11  1  0
 17 16  2  0
 20 19  1  0
 20 21  1  0
 21 22  1  0
 23 22  1  1
 23 24  1  0
 24 16  1  0
 25 23  1  0
 25 26  1  0
 27 25  2  0
M  END
$$$$
