KEM.pdb
     RDKit          3D

 27 26  0  0  1  0  0  0  0  0999 V2000
   25.4045  -18.6789  -18.5615 N   0  0  0  0  0  0  0  0  0  0  0  0
   24.7263  -19.7800  -17.9419 C   0  0  1  0  0  0  0  0  0  0  0  0
   25.6041  -20.7784  -17.2678 C   0  0  0  0  0  0  0  0  0  0  0  0
   26.5263  -21.5469  -18.1322 C   0  0  0  0  0  0  0  0  0  0  0  0
   27.9086  -21.0201  -18.2742 C   0  0  0  0  0  0  0  0  0  0  0  0
   28.7925  -21.8706  -19.1585 C   0  0  0  0  0  0  0  0  0  0  0  0
   30.1288  -21.3083  -19.2700 N   0  0  0  0  0  0  0  0  0  0  0  0
   23.7588  -19.2533  -16.9050 C   0  0  0  0  0  0  0  0  0  0  0  0
   24.1867  -18.3411  -16.1287 O   0  0  0  0  0  0  0  0  0  0  0  0
   22.4474  -19.7499  -16.8042 N   0  0  0  0  0  0  0  0  0  0  0  0
   21.5430  -19.3928  -15.7757 C   0  0  1  0  0  0  0  0  0  0  0  0
   20.1652  -19.2265  -16.3278 C   0  0  0  0  0  0  0  0  0  0  0  0
   20.1984  -18.0402  -17.2851 C   0  0  0  0  0  0  0  0  0  0  0  0
   18.8281  -17.7298  -17.7672 C   0  0  0  0  0  0  0  0  0  0  0  0
   17.8502  -18.4319  -17.4114 O   0  0  0  0  0  0  0  0  0  0  0  0
   21.5672  -20.2754  -14.5667 C   0  0  0  0  0  0  0  0  0  0  0  0
   21.7207  -21.5115  -14.5753 O   0  0  0  0  0  0  0  0  0  0  0  0
   18.5945  -16.6627  -18.6177 O   0  0  0  0  0  0  0  0  0  0  0  0
   25.3707  -20.9608   -8.2945 C   0  0  0  0  0  0  0  0  0  0  0  0
   24.3603  -19.7302   -9.1252 S   0  0  0  0  0  0  0  0  0  0  0  0
   22.9896  -20.5049   -9.9966 C   0  0  0  0  0  0  0  0  0  0  0  0
   22.7005  -19.8945  -11.3120 C   0  0  0  0  0  0  0  0  0  0  0  0
   21.5525  -20.4377  -12.0797 C   0  0  2  0  0  0  0  0  0  0  0  0
   21.3981  -19.6150  -13.3255 N   0  0  0  0  0  0  0  0  0  0  0  0
   20.2422  -20.4797  -11.4458 C   0  0  0  0  0  0  0  0  0  0  0  0
   19.8455  -21.6405  -10.7490 O   0  0  0  0  0  0  0  0  0  0  0  0
   19.3960  -19.5683  -11.4493 O   0  0  0  0  0  0  0  0  0  0  0  0
  2  1  1  1
  3  2  1  0
  4  3  1  0
  4  5  1  0
  5  6  1  0
  7  6  1  0
  8  2  1  0
  8  9  2  0
 10  8  1  0
 11 10  1  0
 11 12  1  6
 12 13  1  0
 13 14  1  0
 14 18  1  0
 15 14  2  0
 16 11  1  0
 17 16  2  0
 20 19  1  0
 20 21  1  0
 21 22  1  0
 23 22  1  1
 23 24  1  0
 24 16  1  0
 25 23  1  0
 25 26  1  0
 27 25  2  0
M  END
$$$$
