KEM.pdb
     RDKit          3D

 27 26  0  0  1  0  0  0  0  0999 V2000
   24.3472  -18.1749  -18.4376 N   0  0  0  0  0  0  0  0  0  0  0  0
   23.5289  -17.8006  -17.3210 C   0  0  1  0  0  0  0  0  0  0  0  0
   22.1957  -17.2293  -17.6641 C   0  0  0  0  0  0  0  0  0  0  0  0
   22.1876  -15.9098  -18.3330 C   0  0  0  0  0  0  0  0  0  0  0  0
   22.5378  -14.7318  -17.4976 C   0  0  0  0  0  0  0  0  0  0  0  0
   22.5939  -13.4350  -18.2732 C   0  0  0  0  0  0  0  0  0  0  0  0
   22.8241  -12.3006  -17.3934 N   0  0  0  0  0  0  0  0  0  0  0  0
   23.2920  -19.0111  -16.4453 C   0  0  0  0  0  0  0  0  0  0  0  0
   22.5884  -19.9494  -16.9376 O   0  0  0  0  0  0  0  0  0  0  0  0
   23.8247  -19.0945  -15.1469 N   0  0  0  0  0  0  0  0  0  0  0  0
   23.5712  -20.1637  -14.2548 C   0  0  1  0  0  0  0  0  0  0  0  0
   24.6807  -20.2888  -13.2626 C   0  0  0  0  0  0  0  0  0  0  0  0
   24.4405  -21.5692  -12.4703 C   0  0  0  0  0  0  0  0  0  0  0  0
   25.5276  -21.7721  -11.4787 C   0  0  0  0  0  0  0  0  0  0  0  0
   25.4510  -22.6878  -10.6235 O   0  0  0  0  0  0  0  0  0  0  0  0
   22.2245  -20.1465  -13.6009 C   0  0  0  0  0  0  0  0  0  0  0  0
   21.7480  -19.1981  -12.9489 O   0  0  0  0  0  0  0  0  0  0  0  0
   26.6489  -20.9602  -11.4716 O   0  0  0  0  0  0  0  0  0  0  0  0
   17.3900  -22.5701  -16.6333 C   0  0  0  0  0  0  0  0  0  0  0  0
   16.6954  -22.8278  -14.9973 S   0  0  0  0  0  0  0  0  0  0  0  0
   17.7348  -22.0813  -13.7321 C   0  0  0  0  0  0  0  0  0  0  0  0
   19.1514  -21.9421  -14.1327 C   0  0  0  0  0  0  0  0  0  0  0  0
   20.0837  -21.3394  -13.1479 C   0  0  2  0  0  0  0  0  0  0  0  0
   21.4550  -21.3248  -13.7576 N   0  0  0  0  0  0  0  0  0  0  0  0
   20.2189  -21.9620  -11.8385 C   0  0  0  0  0  0  0  0  0  0  0  0
   21.3203  -22.8053  -11.5818 O   0  0  0  0  0  0  0  0  0  0  0  0
   19.4392  -21.8289  -10.8788 O   0  0  0  0  0  0  0  0  0  0  0  0
  2  1  1  6
  3  2  1  0
  4  3  1  0
  4  5  1  0
  5  6  1  0
  7  6  1  0
  8  2  1  0
  8  9  2  0
 10  8  1  0
 11 10  1  0
 11 12  1  1
 12 13  1  0
 13 14  1  0
 14 18  1  0
 15 14  2  0
 16 11  1  0
 17 16  2  0
 20 19  1  0
 20 21  1  0
 21 22  1  0
 23 22  1  6
 23 24  1  0
 24 16  1  0
 25 23  1  0
 25 26  1  0
 27 25  2  0
M  END
$$$$
