FHV.pdb
     RDKit          3D

 29 30  0  0  1  0  0  0  0  0999 V2000
   26.4438  -21.5887  -13.8002 N   0  0  0  0  0  0  0  0  0  0  0  0
   25.6747  -21.4479  -12.6075 C   0  0  1  0  0  0  0  0  0  0  0  0
   26.3139  -20.4332  -11.6628 C   0  0  0  0  0  0  0  0  0  0  0  0
   27.7306  -20.7508  -11.3780 C   0  0  0  0  0  0  0  0  0  0  0  0
   28.0184  -21.5117  -10.2691 C   0  0  0  0  0  0  0  0  0  0  0  0
   29.3237  -21.8526   -9.9325 C   0  0  0  0  0  0  0  0  0  0  0  0
   30.3279  -21.3961  -10.7582 C   0  0  0  0  0  0  0  0  0  0  0  0
   30.0521  -20.6316  -11.8742 C   0  0  0  0  0  0  0  0  0  0  0  0
   28.7378  -20.3037  -12.1898 C   0  0  0  0  0  0  0  0  0  0  0  0
   24.2793  -21.0263  -12.8485 C   0  0  0  0  0  0  0  0  0  0  0  0
   23.9805  -19.7986  -12.7276 O   0  0  0  0  0  0  0  0  0  0  0  0
   23.2337  -21.8952  -13.2088 N   0  0  0  0  0  0  0  0  0  0  0  0
   21.8883  -21.3885  -13.6174 C   0  0  1  0  0  0  0  0  0  0  0  0
   21.7640  -21.4811  -15.0944 C   0  0  0  0  0  0  0  0  0  0  0  0
   22.5634  -20.4974  -15.8350 C   0  0  0  0  0  0  0  0  0  0  0  0
   22.6728  -19.1376  -15.4960 C   0  0  0  0  0  0  0  0  0  0  0  0
   23.4736  -18.5033  -16.3639 N   0  0  0  0  0  0  0  0  0  0  0  0
   23.8818  -19.4225  -17.2531 C   0  0  0  0  0  0  0  0  0  0  0  0
   23.3379  -20.5949  -16.9302 N   0  0  0  0  0  0  0  0  0  0  0  0
   20.9068  -22.0682  -12.7936 C   0  0  0  0  0  0  0  0  0  0  0  0
   21.0359  -23.3328  -12.6111 O   0  0  0  0  0  0  0  0  0  0  0  0
   17.1129  -22.5496   -9.7139 C   0  0  0  0  0  0  0  0  0  0  0  0
   18.0955  -21.5769  -10.3356 C   0  0  2  0  0  0  0  0  0  0  0  0
   17.2967  -20.4124  -10.8717 C   0  0  0  0  0  0  0  0  0  0  0  0
   18.8401  -22.3147  -11.4124 C   0  0  2  0  0  0  0  0  0  0  0  0
   19.7847  -21.5329  -12.1265 N   0  0  0  0  0  0  0  0  0  0  0  0
   17.9214  -22.9938  -12.3250 C   0  0  0  0  0  0  0  0  0  0  0  0
   17.4056  -24.2679  -12.1010 O   0  0  0  0  0  0  0  0  0  0  0  0
   17.5468  -22.4385  -13.3834 O   0  0  0  0  0  0  0  0  0  0  0  0
  2  1  1  6
  2  3  1  0
  2 10  1  0
  3  4  1  0
  4  9  1  0
  5  4  2  0
  5  6  1  0
  6  7  2  0
  7  8  1  0
  9  8  2  0
 10 12  1  0
 10 11  2  0
 12 13  1  0
 13 20  1  0
 13 14  1  6
 14 15  1  0
 15 19  1  0
 15 16  2  0
 16 17  1  0
 18 17  1  0
 19 18  2  0
 20 21  2  0
 23 22  1  6
 23 24  1  0
 23 25  1  0
 25 27  1  0
 26 20  1  0
 25 26  1  6
 27 28  1  0
 29 27  2  0
M  END
$$$$
