FHV.pdb
     RDKit          3D

 29 30  0  0  1  0  0  0  0  0999 V2000
   21.6828   -9.9922  -20.0956 N   0  0  0  0  0  0  0  0  0  0  0  0
   21.8729   -8.6055  -19.8220 C   0  0  1  0  0  0  0  0  0  0  0  0
   21.4112   -7.7490  -20.9984 C   0  0  0  0  0  0  0  0  0  0  0  0
   22.2960   -7.8935  -22.1754 C   0  0  0  0  0  0  0  0  0  0  0  0
   21.8283   -8.5972  -23.2605 C   0  0  0  0  0  0  0  0  0  0  0  0
   22.5982   -8.7782  -24.4041 C   0  0  0  0  0  0  0  0  0  0  0  0
   23.8586   -8.2218  -24.4108 C   0  0  0  0  0  0  0  0  0  0  0  0
   24.3397   -7.5133  -23.3279 C   0  0  0  0  0  0  0  0  0  0  0  0
   23.5502   -7.3459  -22.1951 C   0  0  0  0  0  0  0  0  0  0  0  0
   21.1628   -8.1371  -18.6141 C   0  0  0  0  0  0  0  0  0  0  0  0
   20.0394   -8.6525  -18.3251 O   0  0  0  0  0  0  0  0  0  0  0  0
   21.6424   -7.1447  -17.7405 N   0  0  0  0  0  0  0  0  0  0  0  0
   20.9543   -6.8231  -16.4532 C   0  0  1  0  0  0  0  0  0  0  0  0
   21.9142   -7.0000  -15.3338 C   0  0  0  0  0  0  0  0  0  0  0  0
   22.1975   -8.3990  -14.9907 C   0  0  0  0  0  0  0  0  0  0  0  0
   21.5667   -9.5098  -15.5774 C   0  0  0  0  0  0  0  0  0  0  0  0
   22.0424  -10.6477  -15.0523 N   0  0  0  0  0  0  0  0  0  0  0  0
   22.9639  -10.2954  -14.1419 C   0  0  0  0  0  0  0  0  0  0  0  0
   23.0462   -8.9662  -14.1149 N   0  0  0  0  0  0  0  0  0  0  0  0
   20.3133   -5.5329  -16.6213 C   0  0  0  0  0  0  0  0  0  0  0  0
   21.0150   -4.5593  -17.0786 O   0  0  0  0  0  0  0  0  0  0  0  0
   16.7268   -2.4638  -17.6312 C   0  0  0  0  0  0  0  0  0  0  0  0
   17.2043   -3.8966  -17.4992 C   0  0  2  0  0  0  0  0  0  0  0  0
   16.0752   -4.6917  -16.8872 C   0  0  0  0  0  0  0  0  0  0  0  0
   18.4372   -3.8837  -16.6403 C   0  0  2  0  0  0  0  0  0  0  0  0
   18.9778   -5.1642  -16.3546 N   0  0  0  0  0  0  0  0  0  0  0  0
   18.2234   -3.1168  -15.4139 C   0  0  0  0  0  0  0  0  0  0  0  0
   18.2965   -1.7278  -15.3446 O   0  0  0  0  0  0  0  0  0  0  0  0
   17.9563   -3.6974  -14.3366 O   0  0  0  0  0  0  0  0  0  0  0  0
  2  1  1  6
  2  3  1  0
  2 10  1  0
  3  4  1  0
  4  9  1  0
  5  4  2  0
  5  6  1  0
  6  7  2  0
  7  8  1  0
  9  8  2  0
 10 12  1  0
 10 11  2  0
 12 13  1  0
 13 20  1  0
 13 14  1  1
 14 15  1  0
 15 19  1  0
 15 16  2  0
 16 17  1  0
 18 17  1  0
 19 18  2  0
 20 21  2  0
 23 22  1  1
 23 24  1  0
 23 25  1  0
 25 27  1  0
 26 20  1  0
 25 26  1  1
 27 28  1  0
 29 27  2  0
M  END
$$$$
