FHV.pdb
     RDKit          3D

 29 30  0  0  1  0  0  0  0  0999 V2000
   20.2491  -15.6887  -19.6582 N   0  0  0  0  0  0  0  0  0  0  0  0
   20.8852  -14.9395  -18.6248 C   0  0  1  0  0  0  0  0  0  0  0  0
   22.4041  -15.0596  -18.7199 C   0  0  0  0  0  0  0  0  0  0  0  0
   22.8512  -16.4693  -18.7628 C   0  0  0  0  0  0  0  0  0  0  0  0
   23.1517  -17.0214  -19.9860 C   0  0  0  0  0  0  0  0  0  0  0  0
   23.5777  -18.3391  -20.1109 C   0  0  0  0  0  0  0  0  0  0  0  0
   23.6889  -19.0786  -18.9536 C   0  0  0  0  0  0  0  0  0  0  0  0
   23.3903  -18.5360  -17.7197 C   0  0  0  0  0  0  0  0  0  0  0  0
   22.9660  -17.2151  -17.6209 C   0  0  0  0  0  0  0  0  0  0  0  0
   20.5425  -13.5024  -18.6379 C   0  0  0  0  0  0  0  0  0  0  0  0
   20.2665  -12.9483  -19.7459 O   0  0  0  0  0  0  0  0  0  0  0  0
   20.4965  -12.6823  -17.4962 N   0  0  0  0  0  0  0  0  0  0  0  0
   20.1571  -11.2290  -17.5784 C   0  0  1  0  0  0  0  0  0  0  0  0
   18.8404  -11.0766  -18.2482 C   0  0  0  0  0  0  0  0  0  0  0  0
   17.7567  -11.8626  -17.6457 C   0  0  0  0  0  0  0  0  0  0  0  0
   17.9251  -12.7871  -16.6003 C   0  0  0  0  0  0  0  0  0  0  0  0
   16.7489  -13.3403  -16.2726 N   0  0  0  0  0  0  0  0  0  0  0  0
   15.8280  -12.7936  -17.0822 C   0  0  0  0  0  0  0  0  0  0  0  0
   16.4350  -11.9235  -17.8876 N   0  0  0  0  0  0  0  0  0  0  0  0
   20.3290  -10.6736  -16.2495 C   0  0  0  0  0  0  0  0  0  0  0  0
   20.0044  -11.3982  -15.2400 O   0  0  0  0  0  0  0  0  0  0  0  0
   23.2572   -7.9838  -15.2525 C   0  0  0  0  0  0  0  0  0  0  0  0
   22.6717   -9.0049  -14.2971 C   0  0  2  0  0  0  0  0  0  0  0  0
   23.3596  -10.3217  -14.5700 C   0  0  0  0  0  0  0  0  0  0  0  0
   21.1913   -9.0605  -14.5483 C   0  0  2  0  0  0  0  0  0  0  0  0
   20.8245   -9.4069  -15.8745 N   0  0  0  0  0  0  0  0  0  0  0  0
   20.5330   -7.8252  -14.1256 C   0  0  0  0  0  0  0  0  0  0  0  0
   20.4124   -7.4256  -12.7969 O   0  0  0  0  0  0  0  0  0  0  0  0
   20.0325   -7.0475  -14.9704 O   0  0  0  0  0  0  0  0  0  0  0  0
  2  1  1  6
  2  3  1  0
  2 10  1  0
  3  4  1  0
  4  9  1  0
  5  4  2  0
  5  6  1  0
  6  7  2  0
  7  8  1  0
  9  8  2  0
 10 12  1  0
 10 11  2  0
 12 13  1  0
 13 20  1  0
 13 14  1  1
 14 15  1  0
 15 19  1  0
 15 16  2  0
 16 17  1  0
 18 17  1  0
 19 18  2  0
 20 21  2  0
 23 22  1  6
 23 24  1  0
 23 25  1  0
 25 27  1  0
 26 20  1  0
 25 26  1  6
 27 28  1  0
 29 27  2  0
M  END
$$$$
