FHV.pdb
     RDKit          3D

 29 30  0  0  1  0  0  0  0  0999 V2000
   28.3408  -21.3892  -11.4184 N   0  0  0  0  0  0  0  0  0  0  0  0
   26.9849  -21.2339  -11.0042 C   0  0  1  0  0  0  0  0  0  0  0  0
   26.8057  -19.9532  -10.1928 C   0  0  0  0  0  0  0  0  0  0  0  0
   27.4130  -20.0549   -8.8475 C   0  0  0  0  0  0  0  0  0  0  0  0
   26.5978  -20.3705   -7.7859 C   0  0  0  0  0  0  0  0  0  0  0  0
   27.0913  -20.4843   -6.4910 C   0  0  0  0  0  0  0  0  0  0  0  0
   28.4396  -20.2672   -6.3083 C   0  0  0  0  0  0  0  0  0  0  0  0
   29.2685  -19.9497   -7.3657 C   0  0  0  0  0  0  0  0  0  0  0  0
   28.7509  -19.8417   -8.6521 C   0  0  0  0  0  0  0  0  0  0  0  0
   26.0232  -21.1986  -12.1252 C   0  0  0  0  0  0  0  0  0  0  0  0
   26.3084  -20.5151  -13.1559 O   0  0  0  0  0  0  0  0  0  0  0  0
   24.7910  -21.8764  -12.1415 N   0  0  0  0  0  0  0  0  0  0  0  0
   23.9549  -21.9697  -13.3769 C   0  0  1  0  0  0  0  0  0  0  0  0
   23.8078  -23.3983  -13.7552 C   0  0  0  0  0  0  0  0  0  0  0  0
   24.8762  -23.9113  -14.6215 C   0  0  0  0  0  0  0  0  0  0  0  0
   25.8536  -23.1148  -15.2431 C   0  0  0  0  0  0  0  0  0  0  0  0
   26.6857  -23.8770  -15.9666 N   0  0  0  0  0  0  0  0  0  0  0  0
   26.2670  -25.1447  -15.8252 C   0  0  0  0  0  0  0  0  0  0  0  0
   25.1989  -25.1517  -15.0294 N   0  0  0  0  0  0  0  0  0  0  0  0
   22.7569  -21.1861  -13.1431 C   0  0  0  0  0  0  0  0  0  0  0  0
   22.2676  -21.1612  -11.9559 O   0  0  0  0  0  0  0  0  0  0  0  0
   20.2929  -18.7479  -15.8872 C   0  0  0  0  0  0  0  0  0  0  0  0
   20.6770  -18.3811  -14.4673 C   0  0  2  0  0  0  0  0  0  0  0  0
   21.9440  -17.5621  -14.5420 C   0  0  0  0  0  0  0  0  0  0  0  0
   20.8584  -19.6626  -13.7039 C   0  0  2  0  0  0  0  0  0  0  0  0
   22.0142  -20.4070  -14.0553 N   0  0  0  0  0  0  0  0  0  0  0  0
   19.6573  -20.4941  -13.7667 C   0  0  0  0  0  0  0  0  0  0  0  0
   18.4749  -20.2018  -13.0914 O   0  0  0  0  0  0  0  0  0  0  0  0
   19.6411  -21.5407  -14.4546 O   0  0  0  0  0  0  0  0  0  0  0  0
  2  1  1  6
  2  3  1  0
  2 10  1  0
  3  4  1  0
  4  9  1  0
  5  4  2  0
  5  6  1  0
  6  7  2  0
  7  8  1  0
  9  8  2  0
 10 12  1  0
 10 11  2  0
 12 13  1  0
 13 20  1  0
 13 14  1  1
 14 15  1  0
 15 19  1  0
 15 16  2  0
 16 17  1  0
 18 17  1  0
 19 18  2  0
 20 21  2  0
 23 22  1  6
 23 24  1  0
 23 25  1  0
 25 27  1  0
 26 20  1  0
 25 26  1  6
 27 28  1  0
 29 27  2  0
M  END
$$$$
