FHV.pdb
     RDKit          3D

 29 30  0  0  1  0  0  0  0  0999 V2000
   22.5477   -2.5011  -16.1489 N   0  0  0  0  0  0  0  0  0  0  0  0
   22.9012   -3.8521  -16.4379 C   0  0  1  0  0  0  0  0  0  0  0  0
   23.9026   -4.3845  -15.4159 C   0  0  0  0  0  0  0  0  0  0  0  0
   24.3847   -5.7402  -15.7604 C   0  0  0  0  0  0  0  0  0  0  0  0
   25.3780   -5.8590  -16.7041 C   0  0  0  0  0  0  0  0  0  0  0  0
   25.8846   -7.0970  -17.0835 C   0  0  0  0  0  0  0  0  0  0  0  0
   25.3504   -8.2111  -16.4737 C   0  0  0  0  0  0  0  0  0  0  0  0
   24.3530   -8.1052  -15.5249 C   0  0  0  0  0  0  0  0  0  0  0  0
   23.8627   -6.8552  -15.1623 C   0  0  0  0  0  0  0  0  0  0  0  0
   21.7470   -4.7740  -16.4643 C   0  0  0  0  0  0  0  0  0  0  0  0
   20.8817   -4.6992  -15.5388 O   0  0  0  0  0  0  0  0  0  0  0  0
   21.5262   -5.7484  -17.4542 N   0  0  0  0  0  0  0  0  0  0  0  0
   20.2626   -6.5446  -17.5136 C   0  0  1  0  0  0  0  0  0  0  0  0
   19.8636   -6.7144  -18.9340 C   0  0  0  0  0  0  0  0  0  0  0  0
   18.6000   -7.4359  -19.1289 C   0  0  0  0  0  0  0  0  0  0  0  0
   17.8117   -7.9629  -18.0912 C   0  0  0  0  0  0  0  0  0  0  0  0
   16.7223   -8.5627  -18.5914 N   0  0  0  0  0  0  0  0  0  0  0  0
   16.7910   -8.4341  -19.9259 C   0  0  0  0  0  0  0  0  0  0  0  0
   17.9033   -7.7676  -20.2305 N   0  0  0  0  0  0  0  0  0  0  0  0
   20.4652   -7.7299  -16.7024 C   0  0  0  0  0  0  0  0  0  0  0  0
   21.4988   -8.4563  -16.9332 O   0  0  0  0  0  0  0  0  0  0  0  0
   19.0237   -8.6883  -12.7922 C   0  0  0  0  0  0  0  0  0  0  0  0
   20.2940   -9.1749  -13.4613 C   0  0  2  0  0  0  0  0  0  0  0  0
   21.3470   -8.1123  -13.2528 C   0  0  0  0  0  0  0  0  0  0  0  0
   19.9798   -9.4037  -14.9129 C   0  0  2  0  0  0  0  0  0  0  0  0
   19.6719   -8.2299  -15.6481 N   0  0  0  0  0  0  0  0  0  0  0  0
   18.9388  -10.4171  -15.0787 C   0  0  0  0  0  0  0  0  0  0  0  0
   19.1427  -11.7796  -14.8748 O   0  0  0  0  0  0  0  0  0  0  0  0
   17.7797  -10.0907  -15.4233 O   0  0  0  0  0  0  0  0  0  0  0  0
  2  1  1  1
  2  3  1  0
  2 10  1  0
  3  4  1  0
  4  9  1  0
  5  4  2  0
  5  6  1  0
  6  7  2  0
  7  8  1  0
  9  8  2  0
 10 12  1  0
 10 11  2  0
 12 13  1  0
 13 20  1  0
 13 14  1  6
 14 15  1  0
 15 19  1  0
 15 16  2  0
 16 17  1  0
 18 17  1  0
 19 18  2  0
 20 21  2  0
 23 22  1  1
 23 24  1  0
 23 25  1  0
 25 27  1  0
 26 20  1  0
 25 26  1  1
 27 28  1  0
 29 27  2  0
M  END
$$$$
