FHV.pdb
     RDKit          3D

 29 30  0  0  1  0  0  0  0  0999 V2000
   27.9924  -21.0557  -17.3101 N   0  0  0  0  0  0  0  0  0  0  0  0
   26.8829  -21.6332  -16.6249 C   0  0  1  0  0  0  0  0  0  0  0  0
   27.3249  -22.2676  -15.3085 C   0  0  0  0  0  0  0  0  0  0  0  0
   28.1165  -23.4994  -15.5205 C   0  0  0  0  0  0  0  0  0  0  0  0
   27.4436  -24.6889  -15.6745 C   0  0  0  0  0  0  0  0  0  0  0  0
   28.1144  -25.8899  -15.8768 C   0  0  0  0  0  0  0  0  0  0  0  0
   29.4908  -25.8446  -15.9178 C   0  0  0  0  0  0  0  0  0  0  0  0
   30.1781  -24.6571  -15.7645 C   0  0  0  0  0  0  0  0  0  0  0  0
   29.4842  -23.4686  -15.5633 C   0  0  0  0  0  0  0  0  0  0  0  0
   25.8051  -20.6686  -16.3238 C   0  0  0  0  0  0  0  0  0  0  0  0
   26.1052  -19.5693  -15.7647 O   0  0  0  0  0  0  0  0  0  0  0  0
   24.4445  -20.8757  -16.6134 N   0  0  0  0  0  0  0  0  0  0  0  0
   23.3897  -19.9005  -16.2006 C   0  0  1  0  0  0  0  0  0  0  0  0
   22.6973  -19.3943  -17.4130 C   0  0  0  0  0  0  0  0  0  0  0  0
   21.5571  -18.5113  -17.1384 C   0  0  0  0  0  0  0  0  0  0  0  0
   21.6567  -17.1328  -16.8817 C   0  0  0  0  0  0  0  0  0  0  0  0
   20.4413  -16.6087  -16.6696 N   0  0  0  0  0  0  0  0  0  0  0  0
   19.5624  -17.6170  -16.7838 C   0  0  0  0  0  0  0  0  0  0  0  0
   20.2330  -18.7342  -17.0605 N   0  0  0  0  0  0  0  0  0  0  0  0
   22.5996  -20.5378  -15.1645 C   0  0  0  0  0  0  0  0  0  0  0  0
   22.2551  -21.7640  -15.3289 O   0  0  0  0  0  0  0  0  0  0  0  0
   21.0410  -18.8340  -11.5036 C   0  0  0  0  0  0  0  0  0  0  0  0
   21.5012  -20.2763  -11.5831 C   0  0  2  0  0  0  0  0  0  0  0  0
   22.9351  -20.3170  -11.1101 C   0  0  0  0  0  0  0  0  0  0  0  0
   21.3480  -20.7205  -13.0104 C   0  0  2  0  0  0  0  0  0  0  0  0
   22.1336  -19.9993  -13.9465 N   0  0  0  0  0  0  0  0  0  0  0  0
   19.9423  -20.7462  -13.4118 C   0  0  0  0  0  0  0  0  0  0  0  0
   19.0327  -21.7132  -12.9910 O   0  0  0  0  0  0  0  0  0  0  0  0
   19.4812  -19.8689  -14.1778 O   0  0  0  0  0  0  0  0  0  0  0  0
  2  1  1  1
  2  3  1  0
  2 10  1  0
  3  4  1  0
  4  9  1  0
  5  4  2  0
  5  6  1  0
  6  7  2  0
  7  8  1  0
  9  8  2  0
 10 12  1  0
 10 11  2  0
 12 13  1  0
 13 20  1  0
 13 14  1  6
 14 15  1  0
 15 19  1  0
 15 16  2  0
 16 17  1  0
 18 17  1  0
 19 18  2  0
 20 21  2  0
 23 22  1  6
 23 24  1  0
 23 25  1  0
 25 27  1  0
 26 20  1  0
 25 26  1  6
 27 28  1  0
 29 27  2  0
M  END
$$$$
