FHV.pdb
     RDKit          3D

 29 30  0  0  1  0  0  0  0  0999 V2000
   28.5403  -21.0465   -8.9960 N   0  0  0  0  0  0  0  0  0  0  0  0
   27.1327  -20.8530   -8.8730 C   0  0  1  0  0  0  0  0  0  0  0  0
   26.8234  -19.6125   -8.0387 C   0  0  0  0  0  0  0  0  0  0  0  0
   27.4521  -19.6684   -6.7006 C   0  0  0  0  0  0  0  0  0  0  0  0
   26.9297  -20.5360   -5.7702 C   0  0  0  0  0  0  0  0  0  0  0  0
   27.4628  -20.6472   -4.4908 C   0  0  0  0  0  0  0  0  0  0  0  0
   28.5439  -19.8491   -4.1862 C   0  0  0  0  0  0  0  0  0  0  0  0
   29.0776  -18.9742   -5.1113 C   0  0  0  0  0  0  0  0  0  0  0  0
   28.5264  -18.8812   -6.3849 C   0  0  0  0  0  0  0  0  0  0  0  0
   26.4384  -20.7120  -10.1694 C   0  0  0  0  0  0  0  0  0  0  0  0
   26.9123  -19.9133  -11.0347 O   0  0  0  0  0  0  0  0  0  0  0  0
   25.2696  -21.4068  -10.5288 N   0  0  0  0  0  0  0  0  0  0  0  0
   24.6906  -21.3243  -11.9044 C   0  0  1  0  0  0  0  0  0  0  0  0
   24.8624  -22.6349  -12.5814 C   0  0  0  0  0  0  0  0  0  0  0  0
   25.8088  -22.6205  -13.7036 C   0  0  0  0  0  0  0  0  0  0  0  0
   26.4350  -21.4671  -14.2069 C   0  0  0  0  0  0  0  0  0  0  0  0
   27.2408  -21.7827  -15.2306 N   0  0  0  0  0  0  0  0  0  0  0  0
   27.1479  -23.1115  -15.3977 C   0  0  0  0  0  0  0  0  0  0  0  0
   26.3001  -23.5942  -14.4908 N   0  0  0  0  0  0  0  0  0  0  0  0
   23.3525  -20.7799  -11.7735 C   0  0  0  0  0  0  0  0  0  0  0  0
   22.7080  -21.0034  -10.6853 O   0  0  0  0  0  0  0  0  0  0  0  0
   19.3917  -18.1297  -12.9822 C   0  0  0  0  0  0  0  0  0  0  0  0
   20.8392  -18.4214  -13.3258 C   0  0  2  0  0  0  0  0  0  0  0  0
   20.8991  -18.7147  -14.8063 C   0  0  0  0  0  0  0  0  0  0  0  0
   21.2760  -19.5877  -12.4850 C   0  0  2  0  0  0  0  0  0  0  0  0
   22.6165  -20.0036  -12.6934 N   0  0  0  0  0  0  0  0  0  0  0  0
   20.3500  -20.7120  -12.6124 C   0  0  0  0  0  0  0  0  0  0  0  0
   19.1919  -20.8536  -11.8519 O   0  0  0  0  0  0  0  0  0  0  0  0
   20.5673  -21.6270  -13.4397 O   0  0  0  0  0  0  0  0  0  0  0  0
  2  1  1  6
  2  3  1  0
  2 10  1  0
  3  4  1  0
  4  9  1  0
  5  4  2  0
  5  6  1  0
  6  7  2  0
  7  8  1  0
  9  8  2  0
 10 12  1  0
 10 11  2  0
 12 13  1  0
 13 20  1  0
 13 14  1  1
 14 15  1  0
 15 19  1  0
 15 16  2  0
 16 17  1  0
 18 17  1  0
 19 18  2  0
 20 21  2  0
 23 22  1  1
 23 24  1  0
 23 25  1  0
 25 27  1  0
 26 20  1  0
 25 26  1  6
 27 28  1  0
 29 27  2  0
M  END
$$$$
