FHV.pdb
     RDKit          3D

 29 30  0  0  1  0  0  0  0  0999 V2000
   28.4963  -25.3243  -16.5188 N   0  0  0  0  0  0  0  0  0  0  0  0
   27.0879  -25.1529  -16.6638 C   0  0  1  0  0  0  0  0  0  0  0  0
   26.3252  -26.2204  -15.8832 C   0  0  0  0  0  0  0  0  0  0  0  0
   26.3910  -27.5452  -16.5385 C   0  0  0  0  0  0  0  0  0  0  0  0
   25.5404  -27.7959  -17.5897 C   0  0  0  0  0  0  0  0  0  0  0  0
   25.5399  -29.0155  -18.2576 C   0  0  0  0  0  0  0  0  0  0  0  0
   26.4310  -29.9727  -17.8238 C   0  0  0  0  0  0  0  0  0  0  0  0
   27.2899  -29.7334  -16.7698 C   0  0  0  0  0  0  0  0  0  0  0  0
   27.2714  -28.5050  -16.1177 C   0  0  0  0  0  0  0  0  0  0  0  0
   26.6028  -23.8310  -16.2166 C   0  0  0  0  0  0  0  0  0  0  0  0
   27.2966  -23.1741  -15.3811 O   0  0  0  0  0  0  0  0  0  0  0  0
   25.4082  -23.2298  -16.6521 N   0  0  0  0  0  0  0  0  0  0  0  0
   25.0352  -21.8360  -16.2622 C   0  0  1  0  0  0  0  0  0  0  0  0
   24.2228  -21.2305  -17.3481 C   0  0  0  0  0  0  0  0  0  0  0  0
   23.6204  -19.9357  -17.0075 C   0  0  0  0  0  0  0  0  0  0  0  0
   23.7564  -19.2926  -15.7650 C   0  0  0  0  0  0  0  0  0  0  0  0
   23.0905  -18.1291  -15.7665 N   0  0  0  0  0  0  0  0  0  0  0  0
   22.5296  -18.0086  -16.9802 C   0  0  0  0  0  0  0  0  0  0  0  0
   22.8496  -19.0808  -17.7031 N   0  0  0  0  0  0  0  0  0  0  0  0
   24.4721  -21.9013  -14.9271 C   0  0  0  0  0  0  0  0  0  0  0  0
   23.5873  -22.7995  -14.6827 O   0  0  0  0  0  0  0  0  0  0  0  0
   25.2343  -19.4669  -11.3065 C   0  0  0  0  0  0  0  0  0  0  0  0
   25.0777  -20.9737  -11.3637 C   0  0  2  0  0  0  0  0  0  0  0  0
   26.4594  -21.5632  -11.5217 C   0  0  0  0  0  0  0  0  0  0  0  0
   24.1758  -21.2896  -12.5234 C   0  0  2  0  0  0  0  0  0  0  0  0
   24.7609  -21.1002  -13.8021 N   0  0  0  0  0  0  0  0  0  0  0  0
   22.9026  -20.5787  -12.4164 C   0  0  0  0  0  0  0  0  0  0  0  0
   21.9278  -20.8716  -11.4658 O   0  0  0  0  0  0  0  0  0  0  0  0
   22.6256  -19.6440  -13.2028 O   0  0  0  0  0  0  0  0  0  0  0  0
  2  1  1  1
  2  3  1  0
  2 10  1  0
  3  4  1  0
  4  9  1  0
  5  4  2  0
  5  6  1  0
  6  7  2  0
  7  8  1  0
  9  8  2  0
 10 12  1  0
 10 11  2  0
 12 13  1  0
 13 20  1  0
 13 14  1  6
 14 15  1  0
 15 19  1  0
 15 16  2  0
 16 17  1  0
 18 17  1  0
 19 18  2  0
 20 21  2  0
 23 22  1  6
 23 24  1  0
 23 25  1  0
 25 27  1  0
 26 20  1  0
 25 26  1  6
 27 28  1  0
 29 27  2  0
M  END
$$$$
