FHV.pdb
     RDKit          3D

 29 30  0  0  1  0  0  0  0  0999 V2000
   23.3156  -14.9538  -18.0349 N   0  0  0  0  0  0  0  0  0  0  0  0
   23.4033  -14.1291  -16.8746 C   0  0  1  0  0  0  0  0  0  0  0  0
   24.7531  -13.4188  -16.8110 C   0  0  0  0  0  0  0  0  0  0  0  0
   25.8833  -14.3716  -16.7519 C   0  0  0  0  0  0  0  0  0  0  0  0
   26.1101  -15.0423  -15.5728 C   0  0  0  0  0  0  0  0  0  0  0  0
   27.1517  -15.9533  -15.4362 C   0  0  0  0  0  0  0  0  0  0  0  0
   27.9560  -16.1615  -16.5353 C   0  0  0  0  0  0  0  0  0  0  0  0
   27.7389  -15.4945  -17.7244 C   0  0  0  0  0  0  0  0  0  0  0  0
   26.6901  -14.5879  -17.8362 C   0  0  0  0  0  0  0  0  0  0  0  0
   22.3456  -13.1005  -16.7975 C   0  0  0  0  0  0  0  0  0  0  0  0
   21.9398  -12.5572  -17.8704 O   0  0  0  0  0  0  0  0  0  0  0  0
   21.7399  -12.6661  -15.6048 N   0  0  0  0  0  0  0  0  0  0  0  0
   20.5984  -11.7012  -15.6022 C   0  0  1  0  0  0  0  0  0  0  0  0
   19.5509  -12.1931  -14.6715 C   0  0  0  0  0  0  0  0  0  0  0  0
   18.6600  -13.2113  -15.2416 C   0  0  0  0  0  0  0  0  0  0  0  0
   18.6260  -13.5745  -16.5991 C   0  0  0  0  0  0  0  0  0  0  0  0
   17.7087  -14.5303  -16.8035 N   0  0  0  0  0  0  0  0  0  0  0  0
   17.1519  -14.7906  -15.6100 C   0  0  0  0  0  0  0  0  0  0  0  0
   17.7217  -14.0060  -14.6967 N   0  0  0  0  0  0  0  0  0  0  0  0
   21.1557  -10.3797  -15.3852 C   0  0  0  0  0  0  0  0  0  0  0  0
   22.0465  -10.2371  -14.4711 O   0  0  0  0  0  0  0  0  0  0  0  0
   22.2732   -5.8026  -16.6477 C   0  0  0  0  0  0  0  0  0  0  0  0
   22.1723   -7.2860  -16.9435 C   0  0  2  0  0  0  0  0  0  0  0  0
   21.3870   -7.4362  -18.2250 C   0  0  0  0  0  0  0  0  0  0  0  0
   21.4961   -7.9350  -15.7690 C   0  0  2  0  0  0  0  0  0  0  0  0
   20.8636   -9.1726  -16.0547 N   0  0  0  0  0  0  0  0  0  0  0  0
   20.5736   -7.0121  -15.1093 C   0  0  0  0  0  0  0  0  0  0  0  0
   20.9777   -5.8712  -14.4204 O   0  0  0  0  0  0  0  0  0  0  0  0
   19.3381   -7.2163  -15.1372 O   0  0  0  0  0  0  0  0  0  0  0  0
  2  1  1  6
  2  3  1  0
  2 10  1  0
  3  4  1  0
  4  9  1  0
  5  4  2  0
  5  6  1  0
  6  7  2  0
  7  8  1  0
  9  8  2  0
 10 12  1  0
 10 11  2  0
 12 13  1  0
 13 20  1  0
 13 14  1  1
 14 15  1  0
 15 19  1  0
 15 16  2  0
 16 17  1  0
 18 17  1  0
 19 18  2  0
 20 21  2  0
 23 22  1  1
 23 24  1  0
 23 25  1  0
 25 27  1  0
 26 20  1  0
 25 26  1  6
 27 28  1  0
 29 27  2  0
M  END
$$$$
