FHV.pdb
     RDKit          3D

 29 30  0  0  1  0  0  0  0  0999 V2000
   28.4328  -21.5292  -12.2238 N   0  0  0  0  0  0  0  0  0  0  0  0
   27.1148  -21.1834  -11.8029 C   0  0  1  0  0  0  0  0  0  0  0  0
   27.1031  -19.8243  -11.1075 C   0  0  0  0  0  0  0  0  0  0  0  0
   27.2495  -19.9465   -9.6404 C   0  0  0  0  0  0  0  0  0  0  0  0
   26.1429  -20.2932   -8.9011 C   0  0  0  0  0  0  0  0  0  0  0  0
   26.1978  -20.4277   -7.5182 C   0  0  0  0  0  0  0  0  0  0  0  0
   27.4126  -20.1988   -6.9097 C   0  0  0  0  0  0  0  0  0  0  0  0
   28.5308  -19.8501   -7.6406 C   0  0  0  0  0  0  0  0  0  0  0  0
   28.4504  -19.7218   -9.0232 C   0  0  0  0  0  0  0  0  0  0  0  0
   26.1335  -21.1364  -12.9064 C   0  0  0  0  0  0  0  0  0  0  0  0
   26.4718  -20.5975  -14.0046 O   0  0  0  0  0  0  0  0  0  0  0  0
   24.8269  -21.6520  -12.8353 N   0  0  0  0  0  0  0  0  0  0  0  0
   23.9754  -21.8216  -14.0519 C   0  0  1  0  0  0  0  0  0  0  0  0
   23.5955  -23.2515  -14.1815 C   0  0  0  0  0  0  0  0  0  0  0  0
   24.5633  -24.0737  -14.9181 C   0  0  0  0  0  0  0  0  0  0  0  0
   25.7284  -23.5810  -15.5312 C   0  0  0  0  0  0  0  0  0  0  0  0
   26.4020  -24.5779  -16.1221 N   0  0  0  0  0  0  0  0  0  0  0  0
   25.6981  -25.7000  -15.9038 C   0  0  0  0  0  0  0  0  0  0  0  0
   24.6156  -25.3893  -15.1924 N   0  0  0  0  0  0  0  0  0  0  0  0
   22.9222  -20.8269  -13.9791 C   0  0  0  0  0  0  0  0  0  0  0  0
   22.4087  -20.5667  -12.8311 O   0  0  0  0  0  0  0  0  0  0  0  0
   21.2703  -18.3379  -17.1323 C   0  0  0  0  0  0  0  0  0  0  0  0
   21.4206  -17.8845  -15.6935 C   0  0  2  0  0  0  0  0  0  0  0  0
   22.7585  -17.1930  -15.5779 C   0  0  0  0  0  0  0  0  0  0  0  0
   21.3211  -19.1054  -14.8232 C   0  0  2  0  0  0  0  0  0  0  0  0
   22.3514  -20.0614  -15.0178 N   0  0  0  0  0  0  0  0  0  0  0  0
   20.0010  -19.7257  -14.9255 C   0  0  0  0  0  0  0  0  0  0  0  0
   18.8356  -19.1588  -14.4154 O   0  0  0  0  0  0  0  0  0  0  0  0
   19.8581  -20.8315  -15.4961 O   0  0  0  0  0  0  0  0  0  0  0  0
  2  1  1  6
  2  3  1  0
  2 10  1  0
  3  4  1  0
  4  9  1  0
  5  4  2  0
  5  6  1  0
  6  7  2  0
  7  8  1  0
  9  8  2  0
 10 12  1  0
 10 11  2  0
 12 13  1  0
 13 20  1  0
 13 14  1  1
 14 15  1  0
 15 19  1  0
 15 16  2  0
 16 17  1  0
 18 17  1  0
 19 18  2  0
 20 21  2  0
 23 22  1  6
 23 24  1  0
 23 25  1  0
 25 27  1  0
 26 20  1  0
 25 26  1  6
 27 28  1  0
 29 27  2  0
M  END
$$$$
