FHV.pdb
     RDKit          3D

 29 30  0  0  1  0  0  0  0  0999 V2000
   24.6151  -17.7912  -15.6180 N   0  0  0  0  0  0  0  0  0  0  0  0
   25.6599  -18.5216  -14.9787 C   0  0  1  0  0  0  0  0  0  0  0  0
   26.7476  -17.5815  -14.4652 C   0  0  0  0  0  0  0  0  0  0  0  0
   27.5331  -16.9820  -15.5664 C   0  0  0  0  0  0  0  0  0  0  0  0
   28.3957  -17.7912  -16.2680 C   0  0  0  0  0  0  0  0  0  0  0  0
   29.1693  -17.3041  -17.3158 C   0  0  0  0  0  0  0  0  0  0  0  0
   29.0390  -15.9686  -17.6284 C   0  0  0  0  0  0  0  0  0  0  0  0
   28.1766  -15.1458  -16.9316 C   0  0  0  0  0  0  0  0  0  0  0  0
   27.4133  -15.6568  -15.8873 C   0  0  0  0  0  0  0  0  0  0  0  0
   25.1980  -19.3442  -13.8417 C   0  0  0  0  0  0  0  0  0  0  0  0
   24.3286  -18.8641  -13.0514 O   0  0  0  0  0  0  0  0  0  0  0  0
   25.6544  -20.6442  -13.5595 N   0  0  0  0  0  0  0  0  0  0  0  0
   25.0803  -21.4609  -12.4471 C   0  0  1  0  0  0  0  0  0  0  0  0
   24.9930  -22.8782  -12.8822 C   0  0  0  0  0  0  0  0  0  0  0  0
   23.9104  -23.1567  -13.8339 C   0  0  0  0  0  0  0  0  0  0  0  0
   22.9105  -22.2386  -14.1988 C   0  0  0  0  0  0  0  0  0  0  0  0
   22.0703  -22.7915  -15.0850 N   0  0  0  0  0  0  0  0  0  0  0  0
   22.5059  -24.0432  -15.2988 C   0  0  0  0  0  0  0  0  0  0  0  0
   23.5920  -24.2466  -14.5549 N   0  0  0  0  0  0  0  0  0  0  0  0
   25.8379  -21.1470  -11.2506 C   0  0  0  0  0  0  0  0  0  0  0  0
   27.1052  -21.3551  -11.2602 O   0  0  0  0  0  0  0  0  0  0  0  0
   27.5371  -19.8812   -7.0574 C   0  0  0  0  0  0  0  0  0  0  0  0
   26.8588  -19.5480   -8.3717 C   0  0  2  0  0  0  0  0  0  0  0  0
   25.9830  -18.3410   -8.1318 C   0  0  0  0  0  0  0  0  0  0  0  0
   26.0756  -20.7587   -8.7945 C   0  0  2  0  0  0  0  0  0  0  0  0
   25.3813  -20.6196  -10.0242 N   0  0  0  0  0  0  0  0  0  0  0  0
   25.1787  -21.2102   -7.7316 C   0  0  0  0  0  0  0  0  0  0  0  0
   25.5935  -21.4856   -6.4311 O   0  0  0  0  0  0  0  0  0  0  0  0
   23.9570  -21.3738   -7.9543 O   0  0  0  0  0  0  0  0  0  0  0  0
  2  1  1  1
  2  3  1  0
  2 10  1  0
  3  4  1  0
  4  9  1  0
  5  4  2  0
  5  6  1  0
  6  7  2  0
  7  8  1  0
  9  8  2  0
 10 12  1  0
 10 11  2  0
 12 13  1  0
 13 20  1  0
 13 14  1  6
 14 15  1  0
 15 19  1  0
 15 16  2  0
 16 17  1  0
 18 17  1  0
 19 18  2  0
 20 21  2  0
 23 22  1  1
 23 24  1  0
 23 25  1  0
 25 27  1  0
 26 20  1  0
 25 26  1  6
 27 28  1  0
 29 27  2  0
M  END
$$$$
