FHV.pdb
     RDKit          3D

 29 30  0  0  1  0  0  0  0  0999 V2000
   28.3684  -20.8184  -15.7431 N   0  0  0  0  0  0  0  0  0  0  0  0
   27.4091  -20.9890  -14.7017 C   0  0  1  0  0  0  0  0  0  0  0  0
   27.6457  -19.9890  -13.5728 C   0  0  0  0  0  0  0  0  0  0  0  0
   26.7645  -20.2396  -12.4110 C   0  0  0  0  0  0  0  0  0  0  0  0
   25.6171  -19.4913  -12.2892 C   0  0  0  0  0  0  0  0  0  0  0  0
   24.7374  -19.6655  -11.2265 C   0  0  0  0  0  0  0  0  0  0  0  0
   25.0602  -20.6242  -10.2911 C   0  0  0  0  0  0  0  0  0  0  0  0
   26.2090  -21.3819  -10.4020 C   0  0  0  0  0  0  0  0  0  0  0  0
   27.0733  -21.1888  -11.4745 C   0  0  0  0  0  0  0  0  0  0  0  0
   26.0106  -20.8393  -15.1541 C   0  0  0  0  0  0  0  0  0  0  0  0
   25.6791  -19.7878  -15.7828 O   0  0  0  0  0  0  0  0  0  0  0  0
   24.9960  -21.7893  -14.9389 N   0  0  0  0  0  0  0  0  0  0  0  0
   23.5962  -21.5749  -15.4171 C   0  0  1  0  0  0  0  0  0  0  0  0
   23.3532  -22.4338  -16.6041 C   0  0  0  0  0  0  0  0  0  0  0  0
   24.1149  -22.0498  -17.7990 C   0  0  0  0  0  0  0  0  0  0  0  0
   25.3469  -22.6114  -18.1767 C   0  0  0  0  0  0  0  0  0  0  0  0
   25.7865  -22.0510  -19.3123 N   0  0  0  0  0  0  0  0  0  0  0  0
   24.8668  -21.1424  -19.6740 C   0  0  0  0  0  0  0  0  0  0  0  0
   23.8856  -21.1512  -18.7731 N   0  0  0  0  0  0  0  0  0  0  0  0
   22.7244  -21.7171  -14.2666 C   0  0  0  0  0  0  0  0  0  0  0  0
   22.9399  -22.6895  -13.4558 O   0  0  0  0  0  0  0  0  0  0  0  0
   19.6280  -19.0572  -12.9309 C   0  0  0  0  0  0  0  0  0  0  0  0
   20.4275  -19.9196  -11.9741 C   0  0  2  0  0  0  0  0  0  0  0  0
   21.6042  -19.0972  -11.5043 C   0  0  0  0  0  0  0  0  0  0  0  0
   20.8441  -21.1549  -12.7212 C   0  0  2  0  0  0  0  0  0  0  0  0
   21.6307  -20.9151  -13.8776 N   0  0  0  0  0  0  0  0  0  0  0  0
   19.6935  -22.0015  -13.0334 C   0  0  0  0  0  0  0  0  0  0  0  0
   19.3175  -22.3536  -14.3273 O   0  0  0  0  0  0  0  0  0  0  0  0
   18.9727  -22.4614  -12.1181 O   0  0  0  0  0  0  0  0  0  0  0  0
  2  1  1  6
  2  3  1  0
  2 10  1  0
  3  4  1  0
  4  9  1  0
  5  4  2  0
  5  6  1  0
  6  7  2  0
  7  8  1  0
  9  8  2  0
 10 12  1  0
 10 11  2  0
 12 13  1  0
 13 20  1  0
 13 14  1  6
 14 15  1  0
 15 19  1  0
 15 16  2  0
 16 17  1  0
 18 17  1  0
 19 18  2  0
 20 21  2  0
 23 22  1  6
 23 24  1  0
 23 25  1  0
 25 27  1  0
 26 20  1  0
 25 26  1  6
 27 28  1  0
 29 27  2  0
M  END
$$$$
