HFY.pdb
     RDKit          3D

 34 36  0  0  1  0  0  0  0  0999 V2000
   10.5245  -16.6511   18.9783 N   0  0  0  0  0  0  0  0  0  0  0  0
    9.8002  -17.2012   20.1050 C   0  0  1  0  0  0  0  0  0  0  0  0
   10.4270  -18.4985   20.4957 C   0  0  0  0  0  0  0  0  0  0  0  0
    9.7751  -19.5655   19.6779 C   0  0  0  0  0  0  0  0  0  0  0  0
    9.8654  -19.7005   18.3034 C   0  0  0  0  0  0  0  0  0  0  0  0
    9.1404  -20.7885   17.9200 N   0  0  0  0  0  0  0  0  0  0  0  0
    8.6066  -21.3237   19.0351 C   0  0  0  0  0  0  0  0  0  0  0  0
    8.9949  -20.5820   20.0765 N   0  0  0  0  0  0  0  0  0  0  0  0
    9.7181  -16.2141   21.2088 C   0  0  0  0  0  0  0  0  0  0  0  0
   10.7262  -15.5222   21.4646 O   0  0  0  0  0  0  0  0  0  0  0  0
    8.5506  -16.0219   21.9834 N   0  0  0  0  0  0  0  0  0  0  0  0
    8.5595  -15.0298   23.0299 C   0  0  1  0  0  0  0  0  0  0  0  0
    7.1254  -14.6473   23.3611 C   0  0  0  0  0  0  0  0  0  0  0  0
    7.0251  -13.6323   24.4193 C   0  0  0  0  0  0  0  0  0  0  0  0
    7.4701  -12.3438   24.2393 C   0  0  0  0  0  0  0  0  0  0  0  0
    7.3492  -11.4389   25.2652 C   0  0  0  0  0  0  0  0  0  0  0  0
    6.7967  -11.7669   26.4785 C   0  0  0  0  0  0  0  0  0  0  0  0
    6.3530  -13.0664   26.6465 C   0  0  0  0  0  0  0  0  0  0  0  0
    6.4709  -13.9731   25.6272 C   0  0  0  0  0  0  0  0  0  0  0  0
    9.0947  -15.6979   24.2529 C   0  0  0  0  0  0  0  0  0  0  0  0
    8.8784  -16.9292   24.4015 O   0  0  0  0  0  0  0  0  0  0  0  0
   12.6630  -17.6860   32.0380 O   0  0  0  0  0  0  0  0  0  0  0  0
   12.2808  -16.9903   30.8763 C   0  0  0  0  0  0  0  0  0  0  0  0
   11.1953  -16.1406   30.8866 C   0  0  0  0  0  0  0  0  0  0  0  0
   10.8241  -15.4595   29.7424 C   0  0  0  0  0  0  0  0  0  0  0  0
   11.5014  -15.5833   28.5408 C   0  0  0  0  0  0  0  0  0  0  0  0
   11.1142  -14.8726   27.3068 C   0  0  0  0  0  0  0  0  0  0  0  0
   10.3378  -15.7466   26.3852 C   0  0  2  0  0  0  0  0  0  0  0  0
    9.8273  -15.0144   25.2430 N   0  0  0  0  0  0  0  0  0  0  0  0
    9.1819  -16.3289   27.0863 C   0  0  0  0  0  0  0  0  0  0  0  0
    9.2438  -17.4849   27.5904 O   0  0  0  0  0  0  0  0  0  0  0  0
   12.6005  -16.4531   28.5590 C   0  0  0  0  0  0  0  0  0  0  0  0
   12.9716  -17.1316   29.6961 C   0  0  0  0  0  0  0  0  0  0  0  0
    7.9790  -15.6631   27.2393 O   0  0  0  0  0  0  0  0  0  0  0  0
  2  9  1  0
  2  1  1  6
  3  2  1  0
  4  8  1  0
  4  3  1  0
  5  4  2  0
  6  5  1  0
  6  7  1  0
  7  8  2  0
  9 10  2  0
 11  9  1  0
 11 12  1  0
 12 13  1  1
 13 14  1  0
 14 19  1  0
 15 14  2  0
 15 16  1  0
 16 17  2  0
 17 18  1  0
 19 18  2  0
 20 21  2  0
 20 12  1  0
 22 23  1  0
 23 24  2  0
 24 25  1  0
 26 25  2  0
 26 27  1  0
 28 27  1  1
 28 29  1  0
 29 20  1  0
 30 28  1  0
 31 30  2  0
 32 26  1  0
 33 23  1  0
 33 32  2  0
 34 30  1  0
M  END
$$$$
