HFY.pdb
     RDKit          3D

 34 36  0  0  1  0  0  0  0  0999 V2000
   10.3211  -16.7043   19.4626 N   0  0  0  0  0  0  0  0  0  0  0  0
    9.0966  -16.8504   20.2214 C   0  0  1  0  0  0  0  0  0  0  0  0
    8.7927  -18.3041   20.3734 C   0  0  0  0  0  0  0  0  0  0  0  0
    7.9161  -18.6919   19.2274 C   0  0  0  0  0  0  0  0  0  0  0  0
    7.2914  -17.8183   18.3543 C   0  0  0  0  0  0  0  0  0  0  0  0
    6.5806  -18.5403   17.4436 N   0  0  0  0  0  0  0  0  0  0  0  0
    6.7578  -19.8419   17.7422 C   0  0  0  0  0  0  0  0  0  0  0  0
    7.5578  -19.9159   18.8099 N   0  0  0  0  0  0  0  0  0  0  0  0
    9.1842  -16.1147   21.5062 C   0  0  0  0  0  0  0  0  0  0  0  0
   10.2511  -16.1723   22.1535 O   0  0  0  0  0  0  0  0  0  0  0  0
    8.1148  -15.3518   22.0300 N   0  0  0  0  0  0  0  0  0  0  0  0
    8.2977  -14.6540   23.2786 C   0  0  1  0  0  0  0  0  0  0  0  0
    7.0758  -13.7888   23.5453 C   0  0  0  0  0  0  0  0  0  0  0  0
    7.1038  -13.1346   24.8611 C   0  0  0  0  0  0  0  0  0  0  0  0
    8.0378  -12.1773   25.1805 C   0  0  0  0  0  0  0  0  0  0  0  0
    8.0138  -11.6007   26.4266 C   0  0  0  0  0  0  0  0  0  0  0  0
    7.0871  -11.9414   27.3807 C   0  0  0  0  0  0  0  0  0  0  0  0
    6.1532  -12.9057   27.0466 C   0  0  0  0  0  0  0  0  0  0  0  0
    6.1722  -13.4842   25.8056 C   0  0  0  0  0  0  0  0  0  0  0  0
    8.3052  -15.6891   24.3542 C   0  0  0  0  0  0  0  0  0  0  0  0
    7.3967  -16.5606   24.3479 O   0  0  0  0  0  0  0  0  0  0  0  0
   14.2709  -18.6862   22.8847 O   0  0  0  0  0  0  0  0  0  0  0  0
   13.0682  -18.5465   23.6013 C   0  0  0  0  0  0  0  0  0  0  0  0
   13.0778  -18.2203   24.9407 C   0  0  0  0  0  0  0  0  0  0  0  0
   11.8931  -18.0842   25.6402 C   0  0  0  0  0  0  0  0  0  0  0  0
   10.6504  -18.2625   25.0557 C   0  0  0  0  0  0  0  0  0  0  0  0
    9.3759  -18.1316   25.7880 C   0  0  0  0  0  0  0  0  0  0  0  0
    9.2131  -16.7743   26.3772 C   0  0  2  0  0  0  0  0  0  0  0  0
    9.2794  -15.7333   25.3707 N   0  0  0  0  0  0  0  0  0  0  0  0
   10.2820  -16.5099   27.3541 C   0  0  0  0  0  0  0  0  0  0  0  0
   10.4989  -17.3059   28.3098 O   0  0  0  0  0  0  0  0  0  0  0  0
   10.6704  -18.5932   23.6935 C   0  0  0  0  0  0  0  0  0  0  0  0
   11.8476  -18.7289   22.9959 C   0  0  0  0  0  0  0  0  0  0  0  0
   11.1039  -15.3990   27.2903 O   0  0  0  0  0  0  0  0  0  0  0  0
  2  9  1  0
  2  1  1  1
  3  2  1  0
  4  8  1  0
  4  3  1  0
  5  4  2  0
  6  5  1  0
  6  7  1  0
  7  8  2  0
  9 10  2  0
 11  9  1  0
 11 12  1  0
 12 13  1  1
 13 14  1  0
 14 19  1  0
 15 14  2  0
 15 16  1  0
 16 17  2  0
 17 18  1  0
 19 18  2  0
 20 21  2  0
 20 12  1  0
 22 23  1  0
 23 24  2  0
 24 25  1  0
 26 25  2  0
 26 27  1  0
 28 27  1  6
 28 29  1  0
 29 20  1  0
 30 28  1  0
 31 30  2  0
 32 26  1  0
 33 23  1  0
 33 32  2  0
 34 30  1  0
M  END
$$$$
