HFY.pdb
     RDKit          3D

 34 36  0  0  1  0  0  0  0  0999 V2000
   10.1507  -16.9313   18.3869 N   0  0  0  0  0  0  0  0  0  0  0  0
    9.0552  -17.2299   19.2855 C   0  0  1  0  0  0  0  0  0  0  0  0
    8.9454  -18.7109   19.4382 C   0  0  0  0  0  0  0  0  0  0  0  0
    8.3101  -19.2353   18.1917 C   0  0  0  0  0  0  0  0  0  0  0  0
    6.9866  -19.0649   17.8244 C   0  0  0  0  0  0  0  0  0  0  0  0
    6.7795  -19.6825   16.6279 N   0  0  0  0  0  0  0  0  0  0  0  0
    7.9526  -20.2291   16.2542 C   0  0  0  0  0  0  0  0  0  0  0  0
    8.8567  -19.9533   17.1986 N   0  0  0  0  0  0  0  0  0  0  0  0
    9.2141  -16.5013   20.5674 C   0  0  0  0  0  0  0  0  0  0  0  0
   10.3494  -16.4498   21.0860 O   0  0  0  0  0  0  0  0  0  0  0  0
    8.1386  -15.8630   21.2276 N   0  0  0  0  0  0  0  0  0  0  0  0
    8.3952  -15.1432   22.4505 C   0  0  1  0  0  0  0  0  0  0  0  0
    7.1192  -14.4413   22.8884 C   0  0  0  0  0  0  0  0  0  0  0  0
    7.2423  -13.7729   24.1916 C   0  0  0  0  0  0  0  0  0  0  0  0
    7.9684  -12.6164   24.3530 C   0  0  0  0  0  0  0  0  0  0  0  0
    8.0469  -12.0371   25.5956 C   0  0  0  0  0  0  0  0  0  0  0  0
    7.4249  -12.5674   26.6987 C   0  0  0  0  0  0  0  0  0  0  0  0
    6.6978  -13.7311   26.5227 C   0  0  0  0  0  0  0  0  0  0  0  0
    6.6159  -14.3133   25.2860 C   0  0  0  0  0  0  0  0  0  0  0  0
    8.6779  -16.1651   23.5013 C   0  0  0  0  0  0  0  0  0  0  0  0
    8.0368  -17.2481   23.4661 O   0  0  0  0  0  0  0  0  0  0  0  0
   10.2405  -13.5159   30.5791 O   0  0  0  0  0  0  0  0  0  0  0  0
   10.5172  -14.3199   29.4581 C   0  0  0  0  0  0  0  0  0  0  0  0
   10.6369  -13.7640   28.2022 C   0  0  0  0  0  0  0  0  0  0  0  0
   10.9089  -14.5587   27.1042 C   0  0  0  0  0  0  0  0  0  0  0  0
   11.0746  -15.9307   27.1919 C   0  0  0  0  0  0  0  0  0  0  0  0
   11.3553  -16.7964   26.0301 C   0  0  0  0  0  0  0  0  0  0  0  0
   10.1181  -17.1162   25.2665 C   0  0  2  0  0  0  0  0  0  0  0  0
    9.6258  -15.9719   24.5253 N   0  0  0  0  0  0  0  0  0  0  0  0
    9.0472  -17.5398   26.1833 C   0  0  0  0  0  0  0  0  0  0  0  0
    7.9570  -16.9059   26.2445 O   0  0  0  0  0  0  0  0  0  0  0  0
   10.9480  -16.4689   28.4801 C   0  0  0  0  0  0  0  0  0  0  0  0
   10.6775  -15.6804   29.5737 C   0  0  0  0  0  0  0  0  0  0  0  0
    9.1593  -18.6374   27.0179 O   0  0  0  0  0  0  0  0  0  0  0  0
  2  9  1  0
  2  1  1  6
  3  2  1  0
  4  8  1  0
  4  3  1  0
  5  4  2  0
  6  5  1  0
  6  7  1  0
  7  8  2  0
  9 10  2  0
 11  9  1  0
 11 12  1  0
 12 13  1  1
 13 14  1  0
 14 19  1  0
 15 14  2  0
 15 16  1  0
 16 17  2  0
 17 18  1  0
 19 18  2  0
 20 21  2  0
 20 12  1  0
 22 23  1  0
 23 24  2  0
 24 25  1  0
 26 25  2  0
 26 27  1  0
 28 27  1  1
 28 29  1  0
 29 20  1  0
 30 28  1  0
 31 30  2  0
 32 26  1  0
 33 23  1  0
 33 32  2  0
 34 30  1  0
M  END
$$$$
