HFY.pdb
     RDKit          3D

 34 36  0  0  1  0  0  0  0  0999 V2000
   10.2789  -17.6528   20.4049 N   0  0  0  0  0  0  0  0  0  0  0  0
    9.1750  -17.8018   21.3301 C   0  0  1  0  0  0  0  0  0  0  0  0
    9.1943  -19.1870   21.8864 C   0  0  0  0  0  0  0  0  0  0  0  0
    8.6217  -20.0883   20.8414 C   0  0  0  0  0  0  0  0  0  0  0  0
    8.2211  -19.7051   19.5732 C   0  0  0  0  0  0  0  0  0  0  0  0
    7.7544  -20.7999   18.9101 N   0  0  0  0  0  0  0  0  0  0  0  0
    7.8615  -21.8485   19.7489 C   0  0  0  0  0  0  0  0  0  0  0  0
    8.3811  -21.4072   20.8982 N   0  0  0  0  0  0  0  0  0  0  0  0
    9.2071  -16.7367   22.3616 C   0  0  0  0  0  0  0  0  0  0  0  0
   10.3170  -16.2929   22.7246 O   0  0  0  0  0  0  0  0  0  0  0  0
    8.0383  -16.2021   22.9517 N   0  0  0  0  0  0  0  0  0  0  0  0
    8.1684  -15.2069   23.9870 C   0  0  1  0  0  0  0  0  0  0  0  0
    6.8686  -14.4237   24.0865 C   0  0  0  0  0  0  0  0  0  0  0  0
    6.8737  -13.4253   25.1650 C   0  0  0  0  0  0  0  0  0  0  0  0
    7.8411  -12.4521   25.2542 C   0  0  0  0  0  0  0  0  0  0  0  0
    7.7932  -11.5458   26.2848 C   0  0  0  0  0  0  0  0  0  0  0  0
    6.8101  -11.5677   27.2429 C   0  0  0  0  0  0  0  0  0  0  0  0
    5.8431  -12.5518   27.1417 C   0  0  0  0  0  0  0  0  0  0  0  0
    5.8856  -13.4583   26.1162 C   0  0  0  0  0  0  0  0  0  0  0  0
    8.2991  -15.9431   25.2791 C   0  0  0  0  0  0  0  0  0  0  0  0
    7.2974  -16.5728   25.7092 O   0  0  0  0  0  0  0  0  0  0  0  0
    5.7736  -21.3765   25.1663 O   0  0  0  0  0  0  0  0  0  0  0  0
    6.7968  -20.5575   25.6782 C   0  0  0  0  0  0  0  0  0  0  0  0
    6.8135  -20.1961   27.0085 C   0  0  0  0  0  0  0  0  0  0  0  0
    7.8212  -19.3912   27.5062 C   0  0  0  0  0  0  0  0  0  0  0  0
    8.8538  -18.9072   26.7205 C   0  0  0  0  0  0  0  0  0  0  0  0
    9.9322  -18.0389   27.2314 C   0  0  0  0  0  0  0  0  0  0  0  0
    9.4997  -16.6178   27.3279 C   0  0  2  0  0  0  0  0  0  0  0  0
    9.4880  -15.9642   26.0341 N   0  0  0  0  0  0  0  0  0  0  0  0
   10.4189  -15.8618   28.1940 C   0  0  0  0  0  0  0  0  0  0  0  0
   10.6619  -16.2442   29.3725 O   0  0  0  0  0  0  0  0  0  0  0  0
    8.8120  -19.2903   25.3727 C   0  0  0  0  0  0  0  0  0  0  0  0
    7.8107  -20.0909   24.8755 C   0  0  0  0  0  0  0  0  0  0  0  0
   11.0659  -14.7100   27.7835 O   0  0  0  0  0  0  0  0  0  0  0  0
  2  9  1  0
  2  1  1  6
  3  2  1  0
  4  8  1  0
  4  3  1  0
  5  4  2  0
  6  5  1  0
  6  7  1  0
  7  8  2  0
  9 10  2  0
 11  9  1  0
 11 12  1  0
 12 13  1  1
 13 14  1  0
 14 19  1  0
 15 14  2  0
 15 16  1  0
 16 17  2  0
 17 18  1  0
 19 18  2  0
 20 21  2  0
 20 12  1  0
 22 23  1  0
 23 24  2  0
 24 25  1  0
 26 25  2  0
 26 27  1  0
 28 27  1  6
 28 29  1  0
 29 20  1  0
 30 28  1  0
 31 30  2  0
 32 26  1  0
 33 23  1  0
 33 32  2  0
 34 30  1  0
M  END
$$$$
