HFY.pdb
     RDKit          3D

 34 36  0  0  1  0  0  0  0  0999 V2000
    8.8025  -17.5761   18.9851 N   0  0  0  0  0  0  0  0  0  0  0  0
    9.9952  -16.7925   19.2302 C   0  0  1  0  0  0  0  0  0  0  0  0
   10.2947  -15.9757   18.0170 C   0  0  0  0  0  0  0  0  0  0  0  0
   10.3595  -16.9169   16.8585 C   0  0  0  0  0  0  0  0  0  0  0  0
   10.4650  -18.2945   16.9399 C   0  0  0  0  0  0  0  0  0  0  0  0
   10.4958  -18.8083   15.6784 N   0  0  0  0  0  0  0  0  0  0  0  0
   10.4111  -17.7703   14.8241 C   0  0  0  0  0  0  0  0  0  0  0  0
   10.3303  -16.6476   15.5442 N   0  0  0  0  0  0  0  0  0  0  0  0
    9.8543  -15.9967   20.4737 C   0  0  0  0  0  0  0  0  0  0  0  0
   10.8448  -15.3573   20.8866 O   0  0  0  0  0  0  0  0  0  0  0  0
    8.6497  -15.9300   21.2117 N   0  0  0  0  0  0  0  0  0  0  0  0
    8.6541  -15.2892   22.5035 C   0  0  1  0  0  0  0  0  0  0  0  0
    7.2189  -15.0121   22.9230 C   0  0  0  0  0  0  0  0  0  0  0  0
    7.1118  -14.3920   24.2513 C   0  0  0  0  0  0  0  0  0  0  0  0
    6.5866  -15.0636   25.3301 C   0  0  0  0  0  0  0  0  0  0  0  0
    6.5127  -14.4318   26.5472 C   0  0  0  0  0  0  0  0  0  0  0  0
    6.9452  -13.1428   26.7380 C   0  0  0  0  0  0  0  0  0  0  0  0
    7.4714  -12.4785   25.6446 C   0  0  0  0  0  0  0  0  0  0  0  0
    7.5477  -13.1033   24.4285 C   0  0  0  0  0  0  0  0  0  0  0  0
    9.1767  -16.2903   23.4798 C   0  0  0  0  0  0  0  0  0  0  0  0
    8.8433  -17.4953   23.3327 O   0  0  0  0  0  0  0  0  0  0  0  0
   10.1264  -13.7901   30.7405 O   0  0  0  0  0  0  0  0  0  0  0  0
   10.5717  -14.4346   29.5718 C   0  0  0  0  0  0  0  0  0  0  0  0
   10.7306  -13.7338   28.3953 C   0  0  0  0  0  0  0  0  0  0  0  0
   11.1685  -14.3720   27.2499 C   0  0  0  0  0  0  0  0  0  0  0  0
   11.4684  -15.7234   27.2103 C   0  0  0  0  0  0  0  0  0  0  0  0
   11.9271  -16.4241   25.9952 C   0  0  0  0  0  0  0  0  0  0  0  0
   10.7888  -16.9837   25.2160 C   0  0  2  0  0  0  0  0  0  0  0  0
   10.0223  -15.9474   24.5529 N   0  0  0  0  0  0  0  0  0  0  0  0
    9.8684  -17.7096   26.1063 C   0  0  0  0  0  0  0  0  0  0  0  0
   10.2627  -18.7055   26.7748 O   0  0  0  0  0  0  0  0  0  0  0  0
   11.2982  -16.4110   28.4200 C   0  0  0  0  0  0  0  0  0  0  0  0
   10.8629  -15.7782   29.5606 C   0  0  0  0  0  0  0  0  0  0  0  0
    8.5410  -17.3558   26.2693 O   0  0  0  0  0  0  0  0  0  0  0  0
  2  9  1  0
  2  1  1  6
  3  2  1  0
  4  8  1  0
  4  3  1  0
  5  4  2  0
  6  5  1  0
  6  7  1  0
  7  8  2  0
  9 10  2  0
 11  9  1  0
 11 12  1  0
 12 13  1  1
 13 14  1  0
 14 19  1  0
 15 14  2  0
 15 16  1  0
 16 17  2  0
 17 18  1  0
 19 18  2  0
 20 21  2  0
 20 12  1  0
 22 23  1  0
 23 24  2  0
 24 25  1  0
 26 25  2  0
 26 27  1  0
 28 27  1  1
 28 29  1  0
 29 20  1  0
 30 28  1  0
 31 30  2  0
 32 26  1  0
 33 23  1  0
 33 32  2  0
 34 30  1  0
M  END
$$$$
