HFY.pdb
     RDKit          3D

 34 36  0  0  1  0  0  0  0  0999 V2000
    8.4675  -17.9904   19.3933 N   0  0  0  0  0  0  0  0  0  0  0  0
    9.3337  -16.8511   19.1735 C   0  0  1  0  0  0  0  0  0  0  0  0
    8.8530  -16.1027   17.9745 C   0  0  0  0  0  0  0  0  0  0  0  0
    8.8719  -17.0563   16.8245 C   0  0  0  0  0  0  0  0  0  0  0  0
    9.9811  -17.7407   16.3588 C   0  0  0  0  0  0  0  0  0  0  0  0
    9.6083  -18.5136   15.3006 N   0  0  0  0  0  0  0  0  0  0  0  0
    8.2898  -18.3157   15.1085 C   0  0  0  0  0  0  0  0  0  0  0  0
    7.8647  -17.4427   16.0265 N   0  0  0  0  0  0  0  0  0  0  0  0
    9.4350  -16.0241   20.4004 C   0  0  0  0  0  0  0  0  0  0  0  0
   10.4125  -15.2557   20.5212 O   0  0  0  0  0  0  0  0  0  0  0  0
    8.4752  -16.0670   21.4382 N   0  0  0  0  0  0  0  0  0  0  0  0
    8.6596  -15.2303   22.5980 C   0  0  1  0  0  0  0  0  0  0  0  0
    7.2985  -14.8958   23.1881 C   0  0  0  0  0  0  0  0  0  0  0  0
    7.3766  -14.0324   24.3750 C   0  0  0  0  0  0  0  0  0  0  0  0
    8.0542  -12.8359   24.3638 C   0  0  0  0  0  0  0  0  0  0  0  0
    8.0922  -12.0715   25.5039 C   0  0  0  0  0  0  0  0  0  0  0  0
    7.4760  -12.4529   26.6701 C   0  0  0  0  0  0  0  0  0  0  0  0
    6.7978  -13.6587   26.6679 C   0  0  0  0  0  0  0  0  0  0  0  0
    6.7565  -14.4252   25.5340 C   0  0  0  0  0  0  0  0  0  0  0  0
    9.3539  -16.0627   23.6244 C   0  0  0  0  0  0  0  0  0  0  0  0
    8.8922  -17.2070   23.8743 O   0  0  0  0  0  0  0  0  0  0  0  0
    9.6849  -13.4189   30.4689 O   0  0  0  0  0  0  0  0  0  0  0  0
    9.8631  -14.3421   29.4223 C   0  0  0  0  0  0  0  0  0  0  0  0
    9.4661  -15.6548   29.5628 C   0  0  0  0  0  0  0  0  0  0  0  0
    9.6435  -16.5578   28.5312 C   0  0  0  0  0  0  0  0  0  0  0  0
   10.2176  -16.2114   27.3195 C   0  0  0  0  0  0  0  0  0  0  0  0
   10.4245  -17.1633   26.2109 C   0  0  0  0  0  0  0  0  0  0  0  0
   11.2495  -16.5730   25.1214 C   0  0  2  0  0  0  0  0  0  0  0  0
   10.4972  -15.6263   24.3220 N   0  0  0  0  0  0  0  0  0  0  0  0
   11.7302  -17.6290   24.2155 C   0  0  0  0  0  0  0  0  0  0  0  0
   11.4216  -17.6236   22.9912 O   0  0  0  0  0  0  0  0  0  0  0  0
   10.6116  -14.8711   27.2040 C   0  0  0  0  0  0  0  0  0  0  0  0
   10.4359  -13.9711   28.2288 C   0  0  0  0  0  0  0  0  0  0  0  0
   12.5364  -18.6723   24.6341 O   0  0  0  0  0  0  0  0  0  0  0  0
  2  9  1  0
  2  1  1  1
  3  2  1  0
  4  8  1  0
  4  3  1  0
  5  4  2  0
  6  5  1  0
  6  7  1  0
  7  8  2  0
  9 10  2  0
 11  9  1  0
 11 12  1  0
 12 13  1  1
 13 14  1  0
 14 19  1  0
 15 14  2  0
 15 16  1  0
 16 17  2  0
 17 18  1  0
 19 18  2  0
 20 21  2  0
 20 12  1  0
 22 23  1  0
 23 24  2  0
 24 25  1  0
 26 25  2  0
 26 27  1  0
 28 27  1  1
 28 29  1  0
 29 20  1  0
 30 28  1  0
 31 30  2  0
 32 26  1  0
 33 23  1  0
 33 32  2  0
 34 30  1  0
M  END
$$$$
