HFY.pdb
     RDKit          3D

 34 36  0  0  1  0  0  0  0  0999 V2000
   10.1484  -16.8922   18.3138 N   0  0  0  0  0  0  0  0  0  0  0  0
    9.6147  -17.4434   19.5418 C   0  0  1  0  0  0  0  0  0  0  0  0
   10.4209  -18.6401   19.9248 C   0  0  0  0  0  0  0  0  0  0  0  0
    9.8663  -19.8038   19.1694 C   0  0  0  0  0  0  0  0  0  0  0  0
    8.8913  -19.7419   18.1890 C   0  0  0  0  0  0  0  0  0  0  0  0
    8.6469  -21.0018   17.7319 N   0  0  0  0  0  0  0  0  0  0  0  0
    9.4547  -21.8362   18.4146 C   0  0  0  0  0  0  0  0  0  0  0  0
   10.1766  -21.1055   19.2692 N   0  0  0  0  0  0  0  0  0  0  0  0
    9.5411  -16.4029   20.5960 C   0  0  0  0  0  0  0  0  0  0  0  0
   10.5666  -15.7345   20.8451 O   0  0  0  0  0  0  0  0  0  0  0  0
    8.3628  -16.1343   21.3305 N   0  0  0  0  0  0  0  0  0  0  0  0
    8.3830  -15.0976   22.3326 C   0  0  1  0  0  0  0  0  0  0  0  0
    6.9522  -14.7472   22.7106 C   0  0  0  0  0  0  0  0  0  0  0  0
    6.8618  -13.6608   23.6964 C   0  0  0  0  0  0  0  0  0  0  0  0
    7.2784  -12.3814   23.4128 C   0  0  0  0  0  0  0  0  0  0  0  0
    7.1686  -11.4075   24.3747 C   0  0  0  0  0  0  0  0  0  0  0  0
    6.6548  -11.6567   25.6233 C   0  0  0  0  0  0  0  0  0  0  0  0
    6.2393  -12.9479   25.8956 C   0  0  0  0  0  0  0  0  0  0  0  0
    6.3464  -13.9232   24.9404 C   0  0  0  0  0  0  0  0  0  0  0  0
    8.9924  -15.6940   23.5580 C   0  0  0  0  0  0  0  0  0  0  0  0
    8.9875  -16.9474   23.6755 O   0  0  0  0  0  0  0  0  0  0  0  0
   11.9100  -17.3930   31.6134 O   0  0  0  0  0  0  0  0  0  0  0  0
   11.5670  -16.7076   30.4335 C   0  0  0  0  0  0  0  0  0  0  0  0
   10.9086  -15.4975   30.4854 C   0  0  0  0  0  0  0  0  0  0  0  0
   10.5739  -14.8283   29.3229 C   0  0  0  0  0  0  0  0  0  0  0  0
   10.8705  -15.3177   28.0619 C   0  0  0  0  0  0  0  0  0  0  0  0
   10.5125  -14.6230   26.8101 C   0  0  0  0  0  0  0  0  0  0  0  0
   10.1743  -15.5815   25.7224 C   0  0  2  0  0  0  0  0  0  0  0  0
    9.5700  -14.9196   24.5832 N   0  0  0  0  0  0  0  0  0  0  0  0
    9.2140  -16.5862   26.2074 C   0  0  0  0  0  0  0  0  0  0  0  0
    9.5304  -17.8066   26.2749 O   0  0  0  0  0  0  0  0  0  0  0  0
   11.5400  -16.5491   28.0388 C   0  0  0  0  0  0  0  0  0  0  0  0
   11.8740  -17.2164   29.1938 C   0  0  0  0  0  0  0  0  0  0  0  0
    7.9311  -16.2679   26.6154 O   0  0  0  0  0  0  0  0  0  0  0  0
  2  9  1  0
  2  1  1  6
  3  2  1  0
  4  8  1  0
  4  3  1  0
  5  4  2  0
  6  5  1  0
  6  7  1  0
  7  8  2  0
  9 10  2  0
 11  9  1  0
 11 12  1  0
 12 13  1  1
 13 14  1  0
 14 19  1  0
 15 14  2  0
 15 16  1  0
 16 17  2  0
 17 18  1  0
 19 18  2  0
 20 21  2  0
 20 12  1  0
 22 23  1  0
 23 24  2  0
 24 25  1  0
 26 25  2  0
 26 27  1  0
 28 27  1  1
 28 29  1  0
 29 20  1  0
 30 28  1  0
 31 30  2  0
 32 26  1  0
 33 23  1  0
 33 32  2  0
 34 30  1  0
M  END
$$$$
