HFY.pdb
     RDKit          3D

 34 36  0  0  1  0  0  0  0  0999 V2000
    8.7389  -17.7104   18.9164 N   0  0  0  0  0  0  0  0  0  0  0  0
    9.4769  -16.4651   18.8824 C   0  0  1  0  0  0  0  0  0  0  0  0
    8.9498  -15.6212   17.7694 C   0  0  0  0  0  0  0  0  0  0  0  0
    8.9426  -16.4700   16.5398 C   0  0  0  0  0  0  0  0  0  0  0  0
    9.9897  -16.6075   15.6452 C   0  0  0  0  0  0  0  0  0  0  0  0
    9.6117  -17.4625   14.6541 N   0  0  0  0  0  0  0  0  0  0  0  0
    8.3509  -17.8522   14.9245 C   0  0  0  0  0  0  0  0  0  0  0  0
    7.9655  -17.2508   16.0539 N   0  0  0  0  0  0  0  0  0  0  0  0
    9.4483  -15.8015   20.2084 C   0  0  0  0  0  0  0  0  0  0  0  0
   10.4941  -15.2608   20.6260 O   0  0  0  0  0  0  0  0  0  0  0  0
    8.2909  -15.7539   21.0198 N   0  0  0  0  0  0  0  0  0  0  0  0
    8.3778  -15.1577   22.3298 C   0  0  1  0  0  0  0  0  0  0  0  0
    6.9890  -15.1175   22.9481 C   0  0  0  0  0  0  0  0  0  0  0  0
    6.8805  -14.1754   24.0709 C   0  0  0  0  0  0  0  0  0  0  0  0
    6.2866  -14.5237   25.2612 C   0  0  0  0  0  0  0  0  0  0  0  0
    6.2150  -13.6002   26.2750 C   0  0  0  0  0  0  0  0  0  0  0  0
    6.7163  -12.3279   26.1523 C   0  0  0  0  0  0  0  0  0  0  0  0
    7.3111  -11.9903   24.9498 C   0  0  0  0  0  0  0  0  0  0  0  0
    7.3854  -12.9070   23.9353 C   0  0  0  0  0  0  0  0  0  0  0  0
    9.1732  -16.0940   23.1780 C   0  0  0  0  0  0  0  0  0  0  0  0
   10.4004  -16.2250   22.9299 O   0  0  0  0  0  0  0  0  0  0  0  0
   11.8983  -15.3328   31.1837 O   0  0  0  0  0  0  0  0  0  0  0  0
   11.2736  -15.3448   29.9231 C   0  0  0  0  0  0  0  0  0  0  0  0
   10.5275  -14.2680   29.4940 C   0  0  0  0  0  0  0  0  0  0  0  0
    9.9159  -14.2850   28.2543 C   0  0  0  0  0  0  0  0  0  0  0  0
   10.0101  -15.3583   27.3844 C   0  0  0  0  0  0  0  0  0  0  0  0
    9.3562  -15.3990   26.0620 C   0  0  0  0  0  0  0  0  0  0  0  0
    9.2382  -16.7902   25.5455 C   0  0  2  0  0  0  0  0  0  0  0  0
    8.6135  -16.8334   24.2382 N   0  0  0  0  0  0  0  0  0  0  0  0
    8.4138  -17.6039   26.4537 C   0  0  0  0  0  0  0  0  0  0  0  0
    8.9476  -18.3567   27.3154 O   0  0  0  0  0  0  0  0  0  0  0  0
   10.7746  -16.4389   27.8459 C   0  0  0  0  0  0  0  0  0  0  0  0
   11.3839  -16.4240   29.0786 C   0  0  0  0  0  0  0  0  0  0  0  0
    7.0307  -17.5964   26.4272 O   0  0  0  0  0  0  0  0  0  0  0  0
  2  9  1  0
  2  1  1  1
  3  2  1  0
  4  8  1  0
  4  3  1  0
  5  4  2  0
  6  5  1  0
  6  7  1  0
  7  8  2  0
  9 10  2  0
 11  9  1  0
 11 12  1  0
 12 13  1  1
 13 14  1  0
 14 19  1  0
 15 14  2  0
 15 16  1  0
 16 17  2  0
 17 18  1  0
 19 18  2  0
 20 21  2  0
 20 12  1  0
 22 23  1  0
 23 24  2  0
 24 25  1  0
 26 25  2  0
 26 27  1  0
 28 27  1  1
 28 29  1  0
 29 20  1  0
 30 28  1  0
 31 30  2  0
 32 26  1  0
 33 23  1  0
 33 32  2  0
 34 30  1  0
M  END
$$$$
