HFY.pdb
     RDKit          3D

 34 36  0  0  1  0  0  0  0  0999 V2000
   10.3237  -16.7542   19.9256 N   0  0  0  0  0  0  0  0  0  0  0  0
    9.8915  -17.2970   21.1965 C   0  0  1  0  0  0  0  0  0  0  0  0
   10.8018  -18.4171   21.5781 C   0  0  0  0  0  0  0  0  0  0  0  0
   10.5627  -19.5278   20.6079 C   0  0  0  0  0  0  0  0  0  0  0  0
    9.3569  -20.1743   20.3988 C   0  0  0  0  0  0  0  0  0  0  0  0
    9.5292  -21.1266   19.4399 N   0  0  0  0  0  0  0  0  0  0  0  0
   10.8196  -21.0761   19.0567 C   0  0  0  0  0  0  0  0  0  0  0  0
   11.4236  -20.1163   19.7634 N   0  0  0  0  0  0  0  0  0  0  0  0
    9.7910  -16.2264   22.2178 C   0  0  0  0  0  0  0  0  0  0  0  0
   10.8081  -15.5457   22.4686 O   0  0  0  0  0  0  0  0  0  0  0  0
    8.5964  -15.9425   22.9193 N   0  0  0  0  0  0  0  0  0  0  0  0
    8.6096  -14.9272   23.9433 C   0  0  1  0  0  0  0  0  0  0  0  0
    7.1796  -14.4981   24.2329 C   0  0  0  0  0  0  0  0  0  0  0  0
    7.0810  -13.4853   25.2933 C   0  0  0  0  0  0  0  0  0  0  0  0
    7.6331  -12.2330   25.1602 C   0  0  0  0  0  0  0  0  0  0  0  0
    7.5081  -11.3281   26.1856 C   0  0  0  0  0  0  0  0  0  0  0  0
    6.8481  -11.6212   27.3532 C   0  0  0  0  0  0  0  0  0  0  0  0
    6.2973  -12.8845   27.4744 C   0  0  0  0  0  0  0  0  0  0  0  0
    6.4188  -13.7909   26.4553 C   0  0  0  0  0  0  0  0  0  0  0  0
    9.0985  -15.5813   25.1930 C   0  0  0  0  0  0  0  0  0  0  0  0
    8.6748  -16.7350   25.4658 O   0  0  0  0  0  0  0  0  0  0  0  0
   13.9414  -19.5348   23.6285 O   0  0  0  0  0  0  0  0  0  0  0  0
   13.4323  -18.6162   24.5648 C   0  0  0  0  0  0  0  0  0  0  0  0
   12.9944  -19.0378   25.8021 C   0  0  0  0  0  0  0  0  0  0  0  0
   12.4952  -18.1309   26.7183 C   0  0  0  0  0  0  0  0  0  0  0  0
   12.4043  -16.7735   26.4593 C   0  0  0  0  0  0  0  0  0  0  0  0
   11.8650  -15.7920   27.4204 C   0  0  0  0  0  0  0  0  0  0  0  0
   10.3884  -15.6500   27.2967 C   0  0  2  0  0  0  0  0  0  0  0  0
   10.0084  -14.9674   26.0757 N   0  0  0  0  0  0  0  0  0  0  0  0
    9.8545  -14.8666   28.4227 C   0  0  0  0  0  0  0  0  0  0  0  0
    9.2933  -13.7522   28.2294 O   0  0  0  0  0  0  0  0  0  0  0  0
   12.8565  -16.3728   25.1944 C   0  0  0  0  0  0  0  0  0  0  0  0
   13.3536  -17.2732   24.2816 C   0  0  0  0  0  0  0  0  0  0  0  0
    9.9270  -15.2903   29.7376 O   0  0  0  0  0  0  0  0  0  0  0  0
  2  9  1  0
  2  1  1  6
  3  2  1  0
  4  8  1  0
  4  3  1  0
  5  4  2  0
  6  5  1  0
  6  7  1  0
  7  8  2  0
  9 10  2  0
 11  9  1  0
 11 12  1  0
 12 13  1  1
 13 14  1  0
 14 19  1  0
 15 14  2  0
 15 16  1  0
 16 17  2  0
 17 18  1  0
 19 18  2  0
 20 21  2  0
 20 12  1  0
 22 23  1  0
 23 24  2  0
 24 25  1  0
 26 25  2  0
 26 27  1  0
 28 27  1  1
 28 29  1  0
 29 20  1  0
 30 28  1  0
 31 30  2  0
 32 26  1  0
 33 23  1  0
 33 32  2  0
 34 30  1  0
M  END
$$$$
