HFY.pdb
     RDKit          3D

 34 36  0  0  1  0  0  0  0  0999 V2000
   10.1339  -17.0730   18.5784 N   0  0  0  0  0  0  0  0  0  0  0  0
    8.9464  -17.2641   19.3846 C   0  0  1  0  0  0  0  0  0  0  0  0
    8.6873  -18.7277   19.5240 C   0  0  0  0  0  0  0  0  0  0  0  0
    7.9776  -19.1684   18.2852 C   0  0  0  0  0  0  0  0  0  0  0  0
    6.6124  -19.3571   18.1583 C   0  0  0  0  0  0  0  0  0  0  0  0
    6.3406  -19.7583   16.8850 N   0  0  0  0  0  0  0  0  0  0  0  0
    7.5151  -19.8193   16.2280 C   0  0  0  0  0  0  0  0  0  0  0  0
    8.4832  -19.4641   17.0779 N   0  0  0  0  0  0  0  0  0  0  0  0
    9.0682  -16.5471   20.6771 C   0  0  0  0  0  0  0  0  0  0  0  0
   10.1501  -16.6183   21.2975 O   0  0  0  0  0  0  0  0  0  0  0  0
    8.0152  -15.7873   21.2373 N   0  0  0  0  0  0  0  0  0  0  0  0
    8.2185  -15.1394   22.5094 C   0  0  1  0  0  0  0  0  0  0  0  0
    6.9838  -14.3194   22.8498 C   0  0  0  0  0  0  0  0  0  0  0  0
    7.0811  -13.6349   24.1468 C   0  0  0  0  0  0  0  0  0  0  0  0
    6.4413  -14.1045   25.2697 C   0  0  0  0  0  0  0  0  0  0  0  0
    6.5697  -13.4220   26.4544 C   0  0  0  0  0  0  0  0  0  0  0  0
    7.3180  -12.2767   26.5699 C   0  0  0  0  0  0  0  0  0  0  0  0
    7.9565  -11.8150   25.4328 C   0  0  0  0  0  0  0  0  0  0  0  0
    7.8321  -12.4913   24.2487 C   0  0  0  0  0  0  0  0  0  0  0  0
    8.2852  -16.2194   23.5378 C   0  0  0  0  0  0  0  0  0  0  0  0
    7.2154  -16.5737   24.0990 O   0  0  0  0  0  0  0  0  0  0  0  0
   11.3667  -14.9550   31.2940 O   0  0  0  0  0  0  0  0  0  0  0  0
   11.0147  -15.0575   29.9356 C   0  0  0  0  0  0  0  0  0  0  0  0
   11.0110  -16.2792   29.2970 C   0  0  0  0  0  0  0  0  0  0  0  0
   10.6641  -16.3742   27.9621 C   0  0  0  0  0  0  0  0  0  0  0  0
   10.3070  -15.2757   27.1983 C   0  0  0  0  0  0  0  0  0  0  0  0
    9.9438  -15.3559   25.7702 C   0  0  0  0  0  0  0  0  0  0  0  0
    9.9546  -16.7595   25.2744 C   0  0  2  0  0  0  0  0  0  0  0  0
    9.4865  -16.8562   23.9059 N   0  0  0  0  0  0  0  0  0  0  0  0
    9.0729  -17.5999   26.1009 C   0  0  0  0  0  0  0  0  0  0  0  0
    9.5516  -18.4316   26.9214 O   0  0  0  0  0  0  0  0  0  0  0  0
   10.3192  -14.0468   27.8728 C   0  0  0  0  0  0  0  0  0  0  0  0
   10.6637  -13.9500   29.2005 C   0  0  0  0  0  0  0  0  0  0  0  0
    7.6925  -17.5342   26.0381 O   0  0  0  0  0  0  0  0  0  0  0  0
  2  9  1  0
  2  1  1  1
  3  2  1  0
  4  8  1  0
  4  3  1  0
  5  4  2  0
  6  5  1  0
  6  7  1  0
  7  8  2  0
  9 10  2  0
 11  9  1  0
 11 12  1  0
 12 13  1  1
 13 14  1  0
 14 19  1  0
 15 14  2  0
 15 16  1  0
 16 17  2  0
 17 18  1  0
 19 18  2  0
 20 21  2  0
 20 12  1  0
 22 23  1  0
 23 24  2  0
 24 25  1  0
 26 25  2  0
 26 27  1  0
 28 27  1  1
 28 29  1  0
 29 20  1  0
 30 28  1  0
 31 30  2  0
 32 26  1  0
 33 23  1  0
 33 32  2  0
 34 30  1  0
M  END
$$$$
