HFY.pdb
     RDKit          3D

 34 36  0  0  1  0  0  0  0  0999 V2000
    9.7291  -16.7132   19.1487 N   0  0  0  0  0  0  0  0  0  0  0  0
    8.9526  -17.2220   20.2600 C   0  0  1  0  0  0  0  0  0  0  0  0
    9.3169  -18.6514   20.4897 C   0  0  0  0  0  0  0  0  0  0  0  0
    8.4816  -19.4724   19.5620 C   0  0  0  0  0  0  0  0  0  0  0  0
    7.1041  -19.5979   19.6099 C   0  0  0  0  0  0  0  0  0  0  0  0
    6.7030  -20.4263   18.6053 N   0  0  0  0  0  0  0  0  0  0  0  0
    7.8101  -20.8115   17.9417 C   0  0  0  0  0  0  0  0  0  0  0  0
    8.8642  -20.2334   18.5251 N   0  0  0  0  0  0  0  0  0  0  0  0
    9.1165  -16.3581   21.4542 C   0  0  0  0  0  0  0  0  0  0  0  0
   10.2739  -16.0885   21.8394 O   0  0  0  0  0  0  0  0  0  0  0  0
    8.0220  -15.8267   22.1751 N   0  0  0  0  0  0  0  0  0  0  0  0
    8.2779  -14.9731   23.3088 C   0  0  1  0  0  0  0  0  0  0  0  0
    6.9742  -14.3198   23.7403 C   0  0  0  0  0  0  0  0  0  0  0  0
    7.1232  -13.4450   24.9119 C   0  0  0  0  0  0  0  0  0  0  0  0
    7.8558  -12.2822   24.8661 C   0  0  0  0  0  0  0  0  0  0  0  0
    7.9588  -11.5050   25.9936 C   0  0  0  0  0  0  0  0  0  0  0  0
    7.3555  -11.8410   27.1802 C   0  0  0  0  0  0  0  0  0  0  0  0
    6.6216  -13.0132   27.2128 C   0  0  0  0  0  0  0  0  0  0  0  0
    6.5152  -13.7922   26.0917 C   0  0  0  0  0  0  0  0  0  0  0  0
    8.6789  -15.8639   24.4376 C   0  0  0  0  0  0  0  0  0  0  0  0
    7.9817  -16.8872   24.6649 O   0  0  0  0  0  0  0  0  0  0  0  0
   12.2873  -20.2818   21.6076 O   0  0  0  0  0  0  0  0  0  0  0  0
   12.0957  -19.4864   22.7522 C   0  0  0  0  0  0  0  0  0  0  0  0
   11.4196  -19.9774   23.8488 C   0  0  0  0  0  0  0  0  0  0  0  0
   11.2343  -19.1915   24.9709 C   0  0  0  0  0  0  0  0  0  0  0  0
   11.7036  -17.8920   25.0643 C   0  0  0  0  0  0  0  0  0  0  0  0
   11.5067  -17.0347   26.2493 C   0  0  0  0  0  0  0  0  0  0  0  0
   10.1113  -16.5237   26.3369 C   0  0  2  0  0  0  0  0  0  0  0  0
    9.7976  -15.6110   25.2553 N   0  0  0  0  0  0  0  0  0  0  0  0
    9.9131  -15.7935   27.5996 C   0  0  0  0  0  0  0  0  0  0  0  0
   10.0845  -16.3640   28.7128 O   0  0  0  0  0  0  0  0  0  0  0  0
   12.3871  -17.4187   23.9357 C   0  0  0  0  0  0  0  0  0  0  0  0
   12.5728  -18.1987   22.8185 C   0  0  0  0  0  0  0  0  0  0  0  0
    9.5377  -14.4630   27.6503 O   0  0  0  0  0  0  0  0  0  0  0  0
  2  9  1  0
  2  1  1  6
  3  2  1  0
  4  8  1  0
  4  3  1  0
  5  4  2  0
  6  5  1  0
  6  7  1  0
  7  8  2  0
  9 10  2  0
 11  9  1  0
 11 12  1  0
 12 13  1  1
 13 14  1  0
 14 19  1  0
 15 14  2  0
 15 16  1  0
 16 17  2  0
 17 18  1  0
 19 18  2  0
 20 21  2  0
 20 12  1  0
 22 23  1  0
 23 24  2  0
 24 25  1  0
 26 25  2  0
 26 27  1  0
 28 27  1  6
 28 29  1  0
 29 20  1  0
 30 28  1  0
 31 30  2  0
 32 26  1  0
 33 23  1  0
 33 32  2  0
 34 30  1  0
M  END
$$$$
