HFY.pdb
     RDKit          3D

 34 36  0  0  1  0  0  0  0  0999 V2000
    9.5538  -17.5345   18.0294 N   0  0  0  0  0  0  0  0  0  0  0  0
    9.4063  -18.1070   19.3511 C   0  0  1  0  0  0  0  0  0  0  0  0
   10.4418  -19.1662   19.5373 C   0  0  0  0  0  0  0  0  0  0  0  0
   10.0266  -20.3374   18.7078 C   0  0  0  0  0  0  0  0  0  0  0  0
    8.9696  -21.1883   18.9804 C   0  0  0  0  0  0  0  0  0  0  0  0
    8.9015  -22.1327   18.0008 N   0  0  0  0  0  0  0  0  0  0  0  0
    9.8983  -21.8765   17.1316 C   0  0  0  0  0  0  0  0  0  0  0  0
   10.5611  -20.8013   17.5677 N   0  0  0  0  0  0  0  0  0  0  0  0
    9.4337  -17.0474   20.3884 C   0  0  0  0  0  0  0  0  0  0  0  0
   10.3729  -16.2239   20.3732 O   0  0  0  0  0  0  0  0  0  0  0  0
    8.4449  -16.9282   21.3924 N   0  0  0  0  0  0  0  0  0  0  0  0
    8.4717  -15.7843   22.2699 C   0  0  1  0  0  0  0  0  0  0  0  0
    7.0690  -15.5364   22.8025 C   0  0  0  0  0  0  0  0  0  0  0  0
    6.9893  -14.3870   23.7149 C   0  0  0  0  0  0  0  0  0  0  0  0
    7.3020  -13.1106   23.3100 C   0  0  0  0  0  0  0  0  0  0  0  0
    7.2081  -12.0760   24.2081 C   0  0  0  0  0  0  0  0  0  0  0  0
    6.8108  -12.2608   25.5093 C   0  0  0  0  0  0  0  0  0  0  0  0
    6.4991  -13.5496   25.9037 C   0  0  0  0  0  0  0  0  0  0  0  0
    6.5909  -14.5853   25.0127 C   0  0  0  0  0  0  0  0  0  0  0  0
    9.2941  -16.1689   23.4549 C   0  0  0  0  0  0  0  0  0  0  0  0
    9.3394  -17.3846   23.7787 O   0  0  0  0  0  0  0  0  0  0  0  0
   10.3971  -16.2608   31.6863 O   0  0  0  0  0  0  0  0  0  0  0  0
   10.5904  -15.8492   30.3548 C   0  0  0  0  0  0  0  0  0  0  0  0
   10.2124  -14.5890   29.9429 C   0  0  0  0  0  0  0  0  0  0  0  0
   10.4047  -14.1898   28.6334 C   0  0  0  0  0  0  0  0  0  0  0  0
   10.9752  -15.0092   27.6738 C   0  0  0  0  0  0  0  0  0  0  0  0
   11.1791  -14.6045   26.2693 C   0  0  0  0  0  0  0  0  0  0  0  0
   10.8397  -15.7017   25.3223 C   0  0  2  0  0  0  0  0  0  0  0  0
   10.0181  -15.2359   24.2227 N   0  0  0  0  0  0  0  0  0  0  0  0
   10.0875  -16.7602   26.0154 C   0  0  0  0  0  0  0  0  0  0  0  0
   10.6544  -17.8289   26.3765 O   0  0  0  0  0  0  0  0  0  0  0  0
   11.3500  -16.2841   28.1200 C   0  0  0  0  0  0  0  0  0  0  0  0
   11.1598  -16.6834   29.4221 C   0  0  0  0  0  0  0  0  0  0  0  0
    8.7406  -16.6563   26.3137 O   0  0  0  0  0  0  0  0  0  0  0  0
  2  9  1  0
  2  1  1  6
  3  2  1  0
  4  8  1  0
  4  3  1  0
  5  4  2  0
  6  5  1  0
  6  7  1  0
  7  8  2  0
  9 10  2  0
 11  9  1  0
 11 12  1  0
 12 13  1  1
 13 14  1  0
 14 19  1  0
 15 14  2  0
 15 16  1  0
 16 17  2  0
 17 18  1  0
 19 18  2  0
 20 21  2  0
 20 12  1  0
 22 23  1  0
 23 24  2  0
 24 25  1  0
 26 25  2  0
 26 27  1  0
 28 27  1  1
 28 29  1  0
 29 20  1  0
 30 28  1  0
 31 30  2  0
 32 26  1  0
 33 23  1  0
 33 32  2  0
 34 30  1  0
M  END
$$$$
