NTD.pdb
     RDKit          3D

 24 23  0  0  1  0  0  0  0  0999 V2000
   17.5120  -12.1708  -18.7948 N   0  0  0  0  0  0  0  0  0  0  0  0
   16.9665  -11.3994  -17.7639 C   0  0  0  0  0  0  0  0  0  0  0  0
   15.7078  -11.1888  -17.7768 O   0  0  0  0  0  0  0  0  0  0  0  0
   17.6976  -10.7838  -16.6338 C   0  0  0  0  0  0  0  0  0  0  0  0
   19.1489  -11.1630  -16.5867 C   0  0  2  0  0  0  0  0  0  0  0  0
   19.3256  -12.5381  -16.2553 N   0  0  0  0  0  0  0  0  0  0  0  0
   19.9138  -10.3274  -15.6135 C   0  0  0  0  0  0  0  0  0  0  0  0
   19.7021  -10.3536  -14.3838 O   0  0  0  0  0  0  0  0  0  0  0  0
   23.4320  -10.4901  -14.8917 C   0  0  0  0  0  0  0  0  0  0  0  0
   23.1844   -9.0776  -15.3227 C   0  0  1  0  0  0  0  0  0  0  0  0
   23.5313   -9.0048  -16.6915 O   0  0  0  0  0  0  0  0  0  0  0  0
   21.7273   -8.6621  -15.1518 C   0  0  2  0  0  0  0  0  0  0  0  0
   20.9169   -9.4681  -16.1018 N   0  0  0  0  0  0  0  0  0  0  0  0
   21.4721   -7.2464  -15.3474 C   0  0  0  0  0  0  0  0  0  0  0  0
   21.0504   -6.8513  -16.4746 O   0  0  0  0  0  0  0  0  0  0  0  0
   21.6480   -6.2273  -14.3783 N   0  0  0  0  0  0  0  0  0  0  0  0
   21.4003   -4.8257  -14.6937 C   0  0  1  0  0  0  0  0  0  0  0  0
   20.7274   -4.1034  -13.5205 C   0  0  0  0  0  0  0  0  0  0  0  0
   20.4331   -2.7165  -13.9268 C   0  0  0  0  0  0  0  0  0  0  0  0
   19.6893   -2.3990  -14.8336 O   0  0  0  0  0  0  0  0  0  0  0  0
   22.6660   -4.1387  -14.9430 C   0  0  0  0  0  0  0  0  0  0  0  0
   22.6862   -3.1255  -15.9246 O   0  0  0  0  0  0  0  0  0  0  0  0
   21.0681   -1.6630  -13.1940 O   0  0  0  0  0  0  0  0  0  0  0  0
   23.7415   -4.3742  -14.3589 O   0  0  0  0  0  0  0  0  0  0  0  0
  2  3  2  0
  2  1  1  0
  4  5  1  0
  4  2  1  0
  5  7  1  0
  5  6  1  1
  7  8  2  0
 10  9  1  6
 10 12  1  0
 11 10  1  0
 12 14  1  0
 12 13  1  6
 13  7  1  0
 14 15  2  0
 16 14  1  0
 16 17  1  0
 17 21  1  0
 17 18  1  1
 19 20  2  0
 19 18  1  0
 21 24  2  0
 21 22  1  0
 23 19  1  0
M  END
$$$$
