NTD.pdb
     RDKit          3D

 24 23  0  0  1  0  0  0  0  0999 V2000
   23.5772  -17.2469  -16.0621 N   0  0  0  0  0  0  0  0  0  0  0  0
   22.8423  -16.2510  -15.4113 C   0  0  0  0  0  0  0  0  0  0  0  0
   21.8614  -16.6137  -14.6797 O   0  0  0  0  0  0  0  0  0  0  0  0
   23.0755  -14.7908  -15.4752 C   0  0  0  0  0  0  0  0  0  0  0  0
   24.1711  -14.4042  -16.4251 C   0  0  2  0  0  0  0  0  0  0  0  0
   25.4615  -14.6581  -15.8754 N   0  0  0  0  0  0  0  0  0  0  0  0
   24.0868  -12.9665  -16.8206 C   0  0  0  0  0  0  0  0  0  0  0  0
   24.7987  -12.0791  -16.3076 O   0  0  0  0  0  0  0  0  0  0  0  0
   21.2895  -11.7537  -19.9158 C   0  0  0  0  0  0  0  0  0  0  0  0
   22.6488  -11.1606  -19.7087 C   0  0  1  0  0  0  0  0  0  0  0  0
   22.5811   -9.8234  -20.1632 O   0  0  0  0  0  0  0  0  0  0  0  0
   23.0734  -11.1716  -18.2442 C   0  0  2  0  0  0  0  0  0  0  0  0
   23.1616  -12.5914  -17.8138 N   0  0  0  0  0  0  0  0  0  0  0  0
   22.2013  -10.4284  -17.3530 C   0  0  0  0  0  0  0  0  0  0  0  0
   21.3245  -11.0580  -16.6901 O   0  0  0  0  0  0  0  0  0  0  0  0
   22.2298   -9.0279  -17.1372 N   0  0  0  0  0  0  0  0  0  0  0  0
   21.3117   -8.3819  -16.2072 C   0  0  1  0  0  0  0  0  0  0  0  0
   22.0045   -8.0587  -14.8780 C   0  0  0  0  0  0  0  0  0  0  0  0
   21.0378   -7.3792  -13.9954 C   0  0  0  0  0  0  0  0  0  0  0  0
   20.9264   -6.1748  -13.8804 O   0  0  0  0  0  0  0  0  0  0  0  0
   20.8498   -7.1115  -16.7628 C   0  0  0  0  0  0  0  0  0  0  0  0
   19.7277   -6.4982  -16.1668 O   0  0  0  0  0  0  0  0  0  0  0  0
   20.1597   -8.2008  -13.2181 O   0  0  0  0  0  0  0  0  0  0  0  0
   21.3654   -6.5172  -17.7294 O   0  0  0  0  0  0  0  0  0  0  0  0
  2  3  2  0
  2  1  1  0
  4  5  1  0
  4  2  1  0
  5  7  1  0
  5  6  1  1
  7  8  2  0
 10  9  1  1
 10 12  1  0
 11 10  1  0
 12 14  1  0
 12 13  1  1
 13  7  1  0
 14 15  2  0
 16 14  1  0
 16 17  1  0
 17 21  1  0
 17 18  1  1
 19 20  2  0
 19 18  1  0
 21 24  2  0
 21 22  1  0
 23 19  1  0
M  END
$$$$
