NTD.pdb
     RDKit          3D

 24 23  0  0  1  0  0  0  0  0999 V2000
   12.1338  -10.0842  -10.3761 N   0  0  0  0  0  0  0  0  0  0  0  0
   12.8902   -9.3105   -9.4903 C   0  0  0  0  0  0  0  0  0  0  0  0
   12.2770   -8.7180   -8.5406 O   0  0  0  0  0  0  0  0  0  0  0  0
   14.3538   -9.0936   -9.5283 C   0  0  0  0  0  0  0  0  0  0  0  0
   15.0499   -9.9141  -10.5745 C   0  0  2  0  0  0  0  0  0  0  0  0
   14.9530  -11.3100  -10.3026 N   0  0  0  0  0  0  0  0  0  0  0  0
   16.4909   -9.5448  -10.7072 C   0  0  0  0  0  0  0  0  0  0  0  0
   17.3357   -9.7788   -9.8190 O   0  0  0  0  0  0  0  0  0  0  0  0
   18.6829  -10.9846  -13.0746 C   0  0  0  0  0  0  0  0  0  0  0  0
   18.7676   -9.5126  -13.3360 C   0  0  1  0  0  0  0  0  0  0  0  0
   17.8784   -9.2381  -14.4005 O   0  0  0  0  0  0  0  0  0  0  0  0
   18.3688   -8.6804  -12.1221 C   0  0  2  0  0  0  0  0  0  0  0  0
   16.9183   -8.9008  -11.8844 N   0  0  0  0  0  0  0  0  0  0  0  0
   18.6500   -7.2611  -12.2394 C   0  0  0  0  0  0  0  0  0  0  0  0
   17.9485   -6.5621  -13.0293 O   0  0  0  0  0  0  0  0  0  0  0  0
   19.6571   -6.5513  -11.5388 N   0  0  0  0  0  0  0  0  0  0  0  0
   19.8669   -5.1237  -11.7463 C   0  0  1  0  0  0  0  0  0  0  0  0
   19.7748   -4.3515  -10.4248 C   0  0  0  0  0  0  0  0  0  0  0  0
   19.9648   -2.9157  -10.7035 C   0  0  0  0  0  0  0  0  0  0  0  0
   19.9244   -2.4088  -11.8070 O   0  0  0  0  0  0  0  0  0  0  0  0
   21.2067   -4.8884  -12.2807 C   0  0  0  0  0  0  0  0  0  0  0  0
   22.1202   -5.9636  -12.2723 O   0  0  0  0  0  0  0  0  0  0  0  0
   20.2106   -2.0517   -9.5885 O   0  0  0  0  0  0  0  0  0  0  0  0
   21.6178   -3.8079  -12.7465 O   0  0  0  0  0  0  0  0  0  0  0  0
  2  3  2  0
  2  1  1  0
  4  5  1  0
  4  2  1  0
  5  7  1  0
  5  6  1  1
  7  8  2  0
 10  9  1  1
 10 12  1  0
 11 10  1  0
 12 14  1  0
 12 13  1  6
 13  7  1  0
 14 15  2  0
 16 14  1  0
 16 17  1  0
 17 21  1  0
 17 18  1  1
 19 20  2  0
 19 18  1  0
 21 24  2  0
 21 22  1  0
 23 19  1  0
M  END
$$$$
