NTD.pdb
     RDKit          3D

 24 23  0  0  1  0  0  0  0  0999 V2000
   17.5701  -14.9403  -14.6158 N   0  0  0  0  0  0  0  0  0  0  0  0
   17.6039  -14.6198  -15.9766 C   0  0  0  0  0  0  0  0  0  0  0  0
   17.6381  -15.5803  -16.8162 O   0  0  0  0  0  0  0  0  0  0  0  0
   17.6055  -13.2635  -16.5691 C   0  0  0  0  0  0  0  0  0  0  0  0
   17.5946  -12.1667  -15.5450 C   0  0  2  0  0  0  0  0  0  0  0  0
   16.4548  -12.2500  -14.6931 N   0  0  0  0  0  0  0  0  0  0  0  0
   17.6311  -10.8131  -16.1751 C   0  0  0  0  0  0  0  0  0  0  0  0
   18.1299  -10.6015  -17.2994 O   0  0  0  0  0  0  0  0  0  0  0  0
   14.8151   -8.6838  -17.0437 C   0  0  0  0  0  0  0  0  0  0  0  0
   15.6729   -7.8599  -16.1339 C   0  0  1  0  0  0  0  0  0  0  0  0
   15.0944   -7.9425  -14.8465 O   0  0  0  0  0  0  0  0  0  0  0  0
   17.1103   -8.3649  -16.0712 C   0  0  2  0  0  0  0  0  0  0  0  0
   17.0821   -9.7242  -15.4708 N   0  0  0  0  0  0  0  0  0  0  0  0
   18.0238   -7.5087  -15.3365 C   0  0  0  0  0  0  0  0  0  0  0  0
   18.3967   -7.8633  -14.1790 O   0  0  0  0  0  0  0  0  0  0  0  0
   18.5619   -6.2796  -15.7933 N   0  0  0  0  0  0  0  0  0  0  0  0
   19.5211   -5.5252  -14.9958 C   0  0  1  0  0  0  0  0  0  0  0  0
   20.8109   -6.3248  -14.7764 C   0  0  0  0  0  0  0  0  0  0  0  0
   21.7395   -5.5101  -13.9707 C   0  0  0  0  0  0  0  0  0  0  0  0
   21.4062   -4.6385  -13.1925 O   0  0  0  0  0  0  0  0  0  0  0  0
   19.8980   -4.2991  -15.6962 C   0  0  0  0  0  0  0  0  0  0  0  0
   20.4008   -3.2272  -14.9289 O   0  0  0  0  0  0  0  0  0  0  0  0
   23.1406   -5.7687  -14.1118 O   0  0  0  0  0  0  0  0  0  0  0  0
   19.8108   -4.1151  -16.9259 O   0  0  0  0  0  0  0  0  0  0  0  0
  2  3  2  0
  2  1  1  0
  4  5  1  0
  4  2  1  0
  5  7  1  0
  5  6  1  6
  7  8  2  0
 10  9  1  6
 10 12  1  0
 11 10  1  0
 12 14  1  0
 12 13  1  1
 13  7  1  0
 14 15  2  0
 16 14  1  0
 16 17  1  0
 17 21  1  0
 17 18  1  6
 19 20  2  0
 19 18  1  0
 21 24  2  0
 21 22  1  0
 23 19  1  0
M  END
$$$$
