NTD.pdb
     RDKit          3D

 24 23  0  0  1  0  0  0  0  0999 V2000
   16.2995  -12.6170  -17.7780 N   0  0  0  0  0  0  0  0  0  0  0  0
   16.1975  -12.0994  -16.4830 C   0  0  0  0  0  0  0  0  0  0  0  0
   15.1936  -12.4494  -15.7768 O   0  0  0  0  0  0  0  0  0  0  0  0
   17.1408  -11.1702  -15.8217 C   0  0  0  0  0  0  0  0  0  0  0  0
   18.5758  -11.5917  -15.9446 C   0  0  2  0  0  0  0  0  0  0  0  0
   18.7664  -12.9441  -15.5363 N   0  0  0  0  0  0  0  0  0  0  0  0
   19.4865  -10.7128  -15.1517 C   0  0  0  0  0  0  0  0  0  0  0  0
   19.4489  -10.6450  -13.9061 O   0  0  0  0  0  0  0  0  0  0  0  0
   23.1652  -10.8964  -15.3185 C   0  0  0  0  0  0  0  0  0  0  0  0
   22.8021   -9.4686  -15.5871 C   0  0  1  0  0  0  0  0  0  0  0  0
   22.8343   -9.2993  -16.9904 O   0  0  0  0  0  0  0  0  0  0  0  0
   21.4123   -9.1127  -15.0707 C   0  0  2  0  0  0  0  0  0  0  0  0
   20.4286   -9.9217  -15.8369 N   0  0  0  0  0  0  0  0  0  0  0  0
   21.0766   -7.7027  -15.1514 C   0  0  0  0  0  0  0  0  0  0  0  0
   20.3178   -7.3075  -16.0856 O   0  0  0  0  0  0  0  0  0  0  0  0
   21.5202   -6.6894  -14.2654 N   0  0  0  0  0  0  0  0  0  0  0  0
   21.1760   -5.2887  -14.4770 C   0  0  1  0  0  0  0  0  0  0  0  0
   19.7879   -4.9667  -13.9108 C   0  0  0  0  0  0  0  0  0  0  0  0
   19.4728   -3.5570  -14.2081 C   0  0  0  0  0  0  0  0  0  0  0  0
   19.4998   -2.6512  -13.3987 O   0  0  0  0  0  0  0  0  0  0  0  0
   22.1280   -4.4292  -13.7762 C   0  0  0  0  0  0  0  0  0  0  0  0
   22.1972   -3.0721  -14.1558 O   0  0  0  0  0  0  0  0  0  0  0  0
   19.1122   -3.2288  -15.5544 O   0  0  0  0  0  0  0  0  0  0  0  0
   22.8940   -4.7953  -12.8638 O   0  0  0  0  0  0  0  0  0  0  0  0
  2  3  2  0
  2  1  1  0
  4  5  1  0
  4  2  1  0
  5  7  1  0
  5  6  1  1
  7  8  2  0
 10  9  1  6
 10 12  1  0
 11 10  1  0
 12 14  1  0
 12 13  1  6
 13  7  1  0
 14 15  2  0
 16 14  1  0
 16 17  1  0
 17 21  1  0
 17 18  1  1
 19 20  2  0
 19 18  1  0
 21 24  2  0
 21 22  1  0
 23 19  1  0
M  END
$$$$
