NTD.pdb
     RDKit          3D

 24 23  0  0  1  0  0  0  0  0999 V2000
   15.7090  -11.9990  -18.0935 N   0  0  0  0  0  0  0  0  0  0  0  0
   15.4019  -11.3744  -16.8806 C   0  0  0  0  0  0  0  0  0  0  0  0
   14.1711  -11.1867  -16.5998 O   0  0  0  0  0  0  0  0  0  0  0  0
   16.3618  -10.8940  -15.8616 C   0  0  0  0  0  0  0  0  0  0  0  0
   17.7958  -11.1216  -16.2408 C   0  0  2  0  0  0  0  0  0  0  0  0
   18.1528  -12.4990  -16.1565 N   0  0  0  0  0  0  0  0  0  0  0  0
   18.7318  -10.3253  -15.3920 C   0  0  0  0  0  0  0  0  0  0  0  0
   18.6238  -10.2491  -14.1510 O   0  0  0  0  0  0  0  0  0  0  0  0
   22.5008   -9.5029  -17.0040 C   0  0  0  0  0  0  0  0  0  0  0  0
   22.1662   -9.6459  -15.5514 C   0  0  1  0  0  0  0  0  0  0  0  0
   23.2087   -9.0179  -14.8317 O   0  0  0  0  0  0  0  0  0  0  0  0
   20.8395   -8.9866  -15.1905 C   0  0  2  0  0  0  0  0  0  0  0  0
   19.7820   -9.6255  -16.0166 N   0  0  0  0  0  0  0  0  0  0  0  0
   20.8107   -7.5454  -15.3619 C   0  0  0  0  0  0  0  0  0  0  0  0
   20.6442   -7.0713  -16.5247 O   0  0  0  0  0  0  0  0  0  0  0  0
   20.9508   -6.5817  -14.3322 N   0  0  0  0  0  0  0  0  0  0  0  0
   20.9547   -5.1530  -14.6218 C   0  0  1  0  0  0  0  0  0  0  0  0
   19.6753   -4.4797  -14.1108 C   0  0  0  0  0  0  0  0  0  0  0  0
   19.7186   -3.0502  -14.4711 C   0  0  0  0  0  0  0  0  0  0  0  0
   19.9309   -2.6189  -15.5870 O   0  0  0  0  0  0  0  0  0  0  0  0
   22.0738   -4.5078  -13.9381 C   0  0  0  0  0  0  0  0  0  0  0  0
   22.8292   -5.2812  -13.0316 O   0  0  0  0  0  0  0  0  0  0  0  0
   19.4879   -2.0971  -13.4277 O   0  0  0  0  0  0  0  0  0  0  0  0
   22.4213   -3.3201  -14.0862 O   0  0  0  0  0  0  0  0  0  0  0  0
  2  3  2  0
  2  1  1  0
  4  5  1  0
  4  2  1  0
  5  7  1  0
  5  6  1  1
  7  8  2  0
 10  9  1  6
 10 12  1  0
 11 10  1  0
 12 14  1  0
 12 13  1  6
 13  7  1  0
 14 15  2  0
 16 14  1  0
 16 17  1  0
 17 21  1  0
 17 18  1  1
 19 20  2  0
 19 18  1  0
 21 24  2  0
 21 22  1  0
 23 19  1  0
M  END
$$$$
