NTD.pdb
     RDKit          3D

 24 23  0  0  1  0  0  0  0  0999 V2000
   16.6770  -12.8870  -17.5926 N   0  0  0  0  0  0  0  0  0  0  0  0
   16.3925  -11.5991  -17.1279 C   0  0  0  0  0  0  0  0  0  0  0  0
   15.2514  -11.1010  -17.4082 O   0  0  0  0  0  0  0  0  0  0  0  0
   17.2832  -10.7263  -16.3307 C   0  0  0  0  0  0  0  0  0  0  0  0
   18.6365  -11.3254  -16.0819 C   0  0  2  0  0  0  0  0  0  0  0  0
   18.5434  -12.5885  -15.4278 N   0  0  0  0  0  0  0  0  0  0  0  0
   19.5072  -10.4225  -15.2713 C   0  0  0  0  0  0  0  0  0  0  0  0
   19.4217  -10.3331  -14.0295 O   0  0  0  0  0  0  0  0  0  0  0  0
   23.1673  -10.6227  -15.2751 C   0  0  0  0  0  0  0  0  0  0  0  0
   22.8318   -9.1985  -15.5938 C   0  0  1  0  0  0  0  0  0  0  0  0
   22.9256   -9.0646  -16.9982 O   0  0  0  0  0  0  0  0  0  0  0  0
   21.4252   -8.8160  -15.1463 C   0  0  2  0  0  0  0  0  0  0  0  0
   20.4662   -9.6331  -15.9347 N   0  0  0  0  0  0  0  0  0  0  0  0
   21.1093   -7.4050  -15.2749 C   0  0  0  0  0  0  0  0  0  0  0  0
   20.3429   -7.0331  -16.2123 O   0  0  0  0  0  0  0  0  0  0  0  0
   21.5807   -6.3664  -14.4335 N   0  0  0  0  0  0  0  0  0  0  0  0
   21.2514   -4.9697  -14.6903 C   0  0  1  0  0  0  0  0  0  0  0  0
   19.8843   -4.6044  -14.0999 C   0  0  0  0  0  0  0  0  0  0  0  0
   19.6422   -3.1671  -14.3251 C   0  0  0  0  0  0  0  0  0  0  0  0
   20.2247   -2.4821  -15.1423 O   0  0  0  0  0  0  0  0  0  0  0  0
   22.2348   -4.0988  -14.0497 C   0  0  0  0  0  0  0  0  0  0  0  0
   22.3419   -2.7702  -14.5121 O   0  0  0  0  0  0  0  0  0  0  0  0
   18.6411   -2.5306  -13.5234 O   0  0  0  0  0  0  0  0  0  0  0  0
   22.9970   -4.4320  -13.1216 O   0  0  0  0  0  0  0  0  0  0  0  0
  2  3  2  0
  2  1  1  0
  4  5  1  0
  4  2  1  0
  5  7  1  0
  5  6  1  1
  7  8  2  0
 10  9  1  6
 10 12  1  0
 11 10  1  0
 12 14  1  0
 12 13  1  6
 13  7  1  0
 14 15  2  0
 16 14  1  0
 16 17  1  0
 17 21  1  0
 17 18  1  1
 19 20  2  0
 19 18  1  0
 21 24  2  0
 21 22  1  0
 23 19  1  0
M  END
$$$$
