NTD.pdb
     RDKit          3D

 24 23  0  0  1  0  0  0  0  0999 V2000
   24.5446  -21.0623   -8.6114 N   0  0  0  0  0  0  0  0  0  0  0  0
   25.8585  -20.6150   -8.7821 C   0  0  0  0  0  0  0  0  0  0  0  0
   26.6308  -20.6272   -7.7661 O   0  0  0  0  0  0  0  0  0  0  0  0
   26.4709  -20.1167  -10.0340 C   0  0  0  0  0  0  0  0  0  0  0  0
   25.5518  -20.1941  -11.2179 C   0  0  2  0  0  0  0  0  0  0  0  0
   25.1263  -21.5310  -11.4703 N   0  0  0  0  0  0  0  0  0  0  0  0
   26.1851  -19.6452  -12.4541 C   0  0  0  0  0  0  0  0  0  0  0  0
   26.6395  -18.4851  -12.5256 O   0  0  0  0  0  0  0  0  0  0  0  0
   28.9286  -21.2227  -14.2163 C   0  0  0  0  0  0  0  0  0  0  0  0
   27.9412  -20.9167  -15.2998 C   0  0  1  0  0  0  0  0  0  0  0  0
   27.3350  -22.1439  -15.6543 O   0  0  0  0  0  0  0  0  0  0  0  0
   26.8637  -19.9371  -14.8478 C   0  0  2  0  0  0  0  0  0  0  0  0
   26.2719  -20.4694  -13.5926 N   0  0  0  0  0  0  0  0  0  0  0  0
   25.8228  -19.6840  -15.8275 C   0  0  0  0  0  0  0  0  0  0  0  0
   26.1364  -19.1331  -16.9242 O   0  0  0  0  0  0  0  0  0  0  0  0
   24.4490  -20.0010  -15.6832 N   0  0  0  0  0  0  0  0  0  0  0  0
   23.4622  -19.5777  -16.6691 C   0  0  1  0  0  0  0  0  0  0  0  0
   23.1083  -20.7219  -17.6267 C   0  0  0  0  0  0  0  0  0  0  0  0
   22.1761  -20.2102  -18.6486 C   0  0  0  0  0  0  0  0  0  0  0  0
   21.7523  -19.0726  -18.6981 O   0  0  0  0  0  0  0  0  0  0  0  0
   22.2227  -19.1883  -15.9998 C   0  0  0  0  0  0  0  0  0  0  0  0
   22.1842  -19.2511  -14.5908 O   0  0  0  0  0  0  0  0  0  0  0  0
   21.7407  -21.1217  -19.6634 O   0  0  0  0  0  0  0  0  0  0  0  0
   21.1844  -18.8034  -16.5718 O   0  0  0  0  0  0  0  0  0  0  0  0
  2  3  2  0
  2  1  1  0
  4  5  1  0
  4  2  1  0
  5  7  1  0
  5  6  1  6
  7  8  2  0
 10  9  1  1
 10 12  1  0
 11 10  1  0
 12 14  1  0
 12 13  1  1
 13  7  1  0
 14 15  2  0
 16 14  1  0
 16 17  1  0
 17 21  1  0
 17 18  1  6
 19 20  2  0
 19 18  1  0
 21 24  2  0
 21 22  1  0
 23 19  1  0
M  END
$$$$
