NTD.pdb
     RDKit          3D

 24 23  0  0  1  0  0  0  0  0999 V2000
   17.2502  -13.6185  -18.2925 N   0  0  0  0  0  0  0  0  0  0  0  0
   16.3306  -12.7168  -17.7477 C   0  0  0  0  0  0  0  0  0  0  0  0
   15.1249  -12.7688  -18.1628 O   0  0  0  0  0  0  0  0  0  0  0  0
   16.6007  -11.6846  -16.7220 C   0  0  0  0  0  0  0  0  0  0  0  0
   18.0368  -11.6376  -16.2888 C   0  0  2  0  0  0  0  0  0  0  0  0
   18.4258  -12.8333  -15.6174 N   0  0  0  0  0  0  0  0  0  0  0  0
   18.3147  -10.4699  -15.4000 C   0  0  0  0  0  0  0  0  0  0  0  0
   17.7843  -10.3293  -14.2791 O   0  0  0  0  0  0  0  0  0  0  0  0
   21.3835   -9.5188  -13.7766 C   0  0  0  0  0  0  0  0  0  0  0  0
   21.0181   -8.3670  -14.6611 C   0  0  1  0  0  0  0  0  0  0  0  0
   21.7379   -8.5370  -15.8661 O   0  0  0  0  0  0  0  0  0  0  0  0
   19.5258   -8.3195  -14.9708 C   0  0  2  0  0  0  0  0  0  0  0  0
   19.2121   -9.4801  -15.8447 N   0  0  0  0  0  0  0  0  0  0  0  0
   19.0724   -7.0867  -15.5887 C   0  0  0  0  0  0  0  0  0  0  0  0
   19.0427   -7.0113  -16.8528 O   0  0  0  0  0  0  0  0  0  0  0  0
   18.6429   -5.9218  -14.9050 N   0  0  0  0  0  0  0  0  0  0  0  0
   18.1831   -4.7414  -15.6264 C   0  0  1  0  0  0  0  0  0  0  0  0
   17.1717   -3.9424  -14.7958 C   0  0  0  0  0  0  0  0  0  0  0  0
   16.6973   -2.8014  -15.6007 C   0  0  0  0  0  0  0  0  0  0  0  0
   16.4466   -2.8431  -16.7889 O   0  0  0  0  0  0  0  0  0  0  0  0
   19.3094   -3.8492  -15.8933 C   0  0  0  0  0  0  0  0  0  0  0  0
   19.2440   -3.0260  -17.0373 O   0  0  0  0  0  0  0  0  0  0  0  0
   16.5127   -1.5495  -14.9306 O   0  0  0  0  0  0  0  0  0  0  0  0
   20.3350   -3.7527  -15.1917 O   0  0  0  0  0  0  0  0  0  0  0  0
  2  3  2  0
  2  1  1  0
  4  5  1  0
  4  2  1  0
  5  7  1  0
  5  6  1  1
  7  8  2  0
 10  9  1  1
 10 12  1  0
 11 10  1  0
 12 14  1  0
 12 13  1  6
 13  7  1  0
 14 15  2  0
 16 14  1  0
 16 17  1  0
 17 21  1  0
 17 18  1  1
 19 20  2  0
 19 18  1  0
 21 24  2  0
 21 22  1  0
 23 19  1  0
M  END
$$$$
