NTD.pdb
     RDKit          3D

 24 23  0  0  1  0  0  0  0  0999 V2000
   16.8579  -14.7039  -16.2738 N   0  0  0  0  0  0  0  0  0  0  0  0
   17.3583  -13.8570  -15.2799 C   0  0  0  0  0  0  0  0  0  0  0  0
   16.7669  -13.8478  -14.1490 O   0  0  0  0  0  0  0  0  0  0  0  0
   18.5212  -12.9482  -15.3911 C   0  0  0  0  0  0  0  0  0  0  0  0
   19.1346  -12.9314  -16.7606 C   0  0  2  0  0  0  0  0  0  0  0  0
   19.8455  -14.1358  -17.0362 N   0  0  0  0  0  0  0  0  0  0  0  0
   20.0564  -11.7710  -16.9462 C   0  0  0  0  0  0  0  0  0  0  0  0
   21.2721  -11.8193  -16.6686 O   0  0  0  0  0  0  0  0  0  0  0  0
   20.2516   -9.7123  -20.1776 C   0  0  0  0  0  0  0  0  0  0  0  0
   20.0411   -8.7825  -19.0227 C   0  0  1  0  0  0  0  0  0  0  0  0
   18.6623   -8.4702  -19.0000 O   0  0  0  0  0  0  0  0  0  0  0  0
   20.4355   -9.4091  -17.6897 C   0  0  2  0  0  0  0  0  0  0  0  0
   19.5331  -10.5662  -17.4537 N   0  0  0  0  0  0  0  0  0  0  0  0
   20.3978   -8.5018  -16.5571 C   0  0  0  0  0  0  0  0  0  0  0  0
   19.4130   -8.5566  -15.7624 O   0  0  0  0  0  0  0  0  0  0  0  0
   21.3796   -7.5318  -16.2345 N   0  0  0  0  0  0  0  0  0  0  0  0
   21.2858   -6.7272  -15.0226 C   0  0  1  0  0  0  0  0  0  0  0  0
   22.6695   -6.2527  -14.5629 C   0  0  0  0  0  0  0  0  0  0  0  0
   22.5048   -5.4106  -13.3634 C   0  0  0  0  0  0  0  0  0  0  0  0
   22.2499   -5.8256  -12.2502 O   0  0  0  0  0  0  0  0  0  0  0  0
   20.4917   -5.5275  -15.2799 C   0  0  0  0  0  0  0  0  0  0  0  0
   19.8645   -4.9017  -14.1819 O   0  0  0  0  0  0  0  0  0  0  0  0
   22.6622   -3.9962  -13.5207 O   0  0  0  0  0  0  0  0  0  0  0  0
   20.3165   -5.0047  -16.3976 O   0  0  0  0  0  0  0  0  0  0  0  0
  2  3  2  0
  2  1  1  0
  4  5  1  0
  4  2  1  0
  5  7  1  0
  5  6  1  1
  7  8  2  0
 10  9  1  6
 10 12  1  0
 11 10  1  0
 12 14  1  0
 12 13  1  1
 13  7  1  0
 14 15  2  0
 16 14  1  0
 16 17  1  0
 17 21  1  0
 17 18  1  6
 19 20  2  0
 19 18  1  0
 21 24  2  0
 21 22  1  0
 23 19  1  0
M  END
$$$$
