NTD.pdb
     RDKit          3D

 24 23  0  0  1  0  0  0  0  0999 V2000
   20.1279  -11.9015  -21.5339 N   0  0  0  0  0  0  0  0  0  0  0  0
   19.8820  -12.3317  -20.2263 C   0  0  0  0  0  0  0  0  0  0  0  0
   19.3596  -13.4848  -20.0647 O   0  0  0  0  0  0  0  0  0  0  0  0
   20.1634  -11.5863  -18.9790 C   0  0  0  0  0  0  0  0  0  0  0  0
   21.4714  -11.9595  -18.3449 C   0  0  2  0  0  0  0  0  0  0  0  0
   21.5034  -13.3340  -17.9687 N   0  0  0  0  0  0  0  0  0  0  0  0
   21.7706  -11.1213  -17.1456 C   0  0  0  0  0  0  0  0  0  0  0  0
   21.1383  -11.2201  -16.0742 O   0  0  0  0  0  0  0  0  0  0  0  0
   24.8891  -11.1006  -15.3739 C   0  0  0  0  0  0  0  0  0  0  0  0
   24.6443   -9.6635  -15.7166 C   0  0  1  0  0  0  0  0  0  0  0  0
   25.4235   -9.3815  -16.8621 O   0  0  0  0  0  0  0  0  0  0  0  0
   23.1783   -9.3786  -16.0245 C   0  0  2  0  0  0  0  0  0  0  0  0
   22.8095  -10.1740  -17.2247 N   0  0  0  0  0  0  0  0  0  0  0  0
   22.8624   -7.9771  -16.2326 C   0  0  0  0  0  0  0  0  0  0  0  0
   22.6026   -7.5766  -17.4059 O   0  0  0  0  0  0  0  0  0  0  0  0
   22.8095   -6.9778  -15.2289 N   0  0  0  0  0  0  0  0  0  0  0  0
   22.3700   -5.6205  -15.5282 C   0  0  1  0  0  0  0  0  0  0  0  0
   20.9333   -5.6077  -16.0636 C   0  0  0  0  0  0  0  0  0  0  0  0
   20.5713   -4.2204  -16.4094 C   0  0  0  0  0  0  0  0  0  0  0  0
   19.8733   -3.4927  -15.7314 O   0  0  0  0  0  0  0  0  0  0  0  0
   22.3739   -4.8141  -14.3092 C   0  0  0  0  0  0  0  0  0  0  0  0
   22.5479   -3.4201  -14.4392 O   0  0  0  0  0  0  0  0  0  0  0  0
   21.0852   -3.6879  -17.6351 O   0  0  0  0  0  0  0  0  0  0  0  0
   22.2375   -5.2560  -13.1518 O   0  0  0  0  0  0  0  0  0  0  0  0
  2  3  2  0
  2  1  1  0
  4  5  1  0
  4  2  1  0
  5  7  1  0
  5  6  1  1
  7  8  2  0
 10  9  1  6
 10 12  1  0
 11 10  1  0
 12 14  1  0
 12 13  1  6
 13  7  1  0
 14 15  2  0
 16 14  1  0
 16 17  1  0
 17 21  1  0
 17 18  1  1
 19 20  2  0
 19 18  1  0
 21 24  2  0
 21 22  1  0
 23 19  1  0
M  END
$$$$
