NTD.pdb
     RDKit          3D

 24 23  0  0  1  0  0  0  0  0999 V2000
   15.3989  -14.2538  -15.1599 N   0  0  0  0  0  0  0  0  0  0  0  0
   16.0827  -13.4316  -14.2588 C   0  0  0  0  0  0  0  0  0  0  0  0
   15.6912  -13.4206  -13.0441 O   0  0  0  0  0  0  0  0  0  0  0  0
   17.2344  -12.5515  -14.5583 C   0  0  0  0  0  0  0  0  0  0  0  0
   17.6328  -12.5646  -16.0051 C   0  0  2  0  0  0  0  0  0  0  0  0
   18.2490  -13.7962  -16.3727 N   0  0  0  0  0  0  0  0  0  0  0  0
   18.5574  -11.4406  -16.3406 C   0  0  0  0  0  0  0  0  0  0  0  0
   19.7999  -11.5474  -16.2937 O   0  0  0  0  0  0  0  0  0  0  0  0
   17.9790   -9.2867  -19.5165 C   0  0  0  0  0  0  0  0  0  0  0  0
   18.1943   -8.3935  -18.3340 C   0  0  1  0  0  0  0  0  0  0  0  0
   16.9144   -7.9718  -17.9061 O   0  0  0  0  0  0  0  0  0  0  0  0
   18.8978   -9.1066  -17.1844 C   0  0  2  0  0  0  0  0  0  0  0  0
   18.0060  -10.2029  -16.7241 N   0  0  0  0  0  0  0  0  0  0  0  0
   19.2604   -8.2507  -16.0694 C   0  0  0  0  0  0  0  0  0  0  0  0
   18.5437   -8.2705  -15.0251 O   0  0  0  0  0  0  0  0  0  0  0  0
   20.3690   -7.3688  -16.0231 N   0  0  0  0  0  0  0  0  0  0  0  0
   20.6388   -6.5456  -14.8507 C   0  0  1  0  0  0  0  0  0  0  0  0
   22.1337   -6.2272  -14.7282 C   0  0  0  0  0  0  0  0  0  0  0  0
   22.3405   -5.3866  -13.5342 C   0  0  0  0  0  0  0  0  0  0  0  0
   22.2570   -5.7746  -12.3858 O   0  0  0  0  0  0  0  0  0  0  0  0
   19.9423   -5.2661  -14.9679 C   0  0  0  0  0  0  0  0  0  0  0  0
   19.5815   -4.5984  -13.7786 O   0  0  0  0  0  0  0  0  0  0  0  0
   22.6699   -4.0089  -13.7433 O   0  0  0  0  0  0  0  0  0  0  0  0
   19.6342   -4.7083  -16.0390 O   0  0  0  0  0  0  0  0  0  0  0  0
  2  3  2  0
  2  1  1  0
  4  5  1  0
  4  2  1  0
  5  7  1  0
  5  6  1  1
  7  8  2  0
 10  9  1  6
 10 12  1  0
 11 10  1  0
 12 14  1  0
 12 13  1  1
 13  7  1  0
 14 15  2  0
 16 14  1  0
 16 17  1  0
 17 21  1  0
 17 18  1  6
 19 20  2  0
 19 18  1  0
 21 24  2  0
 21 22  1  0
 23 19  1  0
M  END
$$$$
