NTD.pdb
     RDKit          3D

 24 23  0  0  1  0  0  0  0  0999 V2000
   27.3098  -21.8259   -9.8358 N   0  0  0  0  0  0  0  0  0  0  0  0
   26.1689  -21.0385   -9.6520 C   0  0  0  0  0  0  0  0  0  0  0  0
   25.8644  -20.6963   -8.4608 O   0  0  0  0  0  0  0  0  0  0  0  0
   25.2519  -20.5455  -10.7040 C   0  0  0  0  0  0  0  0  0  0  0  0
   25.6005  -21.0405  -12.0771 C   0  0  2  0  0  0  0  0  0  0  0  0
   26.9406  -20.7105  -12.4337 N   0  0  0  0  0  0  0  0  0  0  0  0
   24.6749  -20.5009  -13.1176 C   0  0  0  0  0  0  0  0  0  0  0  0
   24.6024  -19.2868  -13.3970 O   0  0  0  0  0  0  0  0  0  0  0  0
   23.2305  -23.1133  -16.0473 C   0  0  0  0  0  0  0  0  0  0  0  0
   23.3356  -21.6253  -16.1789 C   0  0  1  0  0  0  0  0  0  0  0  0
   22.4461  -21.2458  -17.2103 O   0  0  0  0  0  0  0  0  0  0  0  0
   22.9542  -20.8974  -14.8945 C   0  0  2  0  0  0  0  0  0  0  0  0
   23.8433  -21.3988  -13.8142 N   0  0  0  0  0  0  0  0  0  0  0  0
   21.5623  -21.0377  -14.5070 C   0  0  0  0  0  0  0  0  0  0  0  0
   21.2778  -21.1435  -13.2772 O   0  0  0  0  0  0  0  0  0  0  0  0
   20.4520  -21.0668  -15.3874 N   0  0  0  0  0  0  0  0  0  0  0  0
   19.0858  -21.1583  -14.8873 C   0  0  1  0  0  0  0  0  0  0  0  0
   18.6983  -19.9017  -14.0986 C   0  0  0  0  0  0  0  0  0  0  0  0
   17.3159  -20.0595  -13.6096 C   0  0  0  0  0  0  0  0  0  0  0  0
   16.8967  -21.0266  -13.0051 O   0  0  0  0  0  0  0  0  0  0  0  0
   18.1504  -21.2605  -16.0056 C   0  0  0  0  0  0  0  0  0  0  0  0
   16.9180  -21.9092  -15.7795 O   0  0  0  0  0  0  0  0  0  0  0  0
   16.3982  -18.9897  -13.8615 O   0  0  0  0  0  0  0  0  0  0  0  0
   18.3497  -20.8215  -17.1549 O   0  0  0  0  0  0  0  0  0  0  0  0
  2  3  2  0
  2  1  1  0
  4  5  1  0
  4  2  1  0
  5  7  1  0
  5  6  1  6
  7  8  2  0
 10  9  1  1
 10 12  1  0
 11 10  1  0
 12 14  1  0
 12 13  1  1
 13  7  1  0
 14 15  2  0
 16 14  1  0
 16 17  1  0
 17 21  1  0
 17 18  1  6
 19 20  2  0
 19 18  1  0
 21 24  2  0
 21 22  1  0
 23 19  1  0
M  END
$$$$
