DRE.pdb
     RDKit          3D

 29 28  0  0  1  0  0  0  0  0999 V2000
    9.1637  -19.0011   18.5935 N   0  0  0  0  0  0  0  0  0  0  0  0
    8.2681  -18.7697   19.7060 C   0  0  1  0  0  0  0  0  0  0  0  0
    7.9012  -20.0574   20.4253 C   0  0  0  0  0  0  0  0  0  0  0  0
    7.1135  -20.9793   19.5684 C   0  0  0  0  0  0  0  0  0  0  0  0
    7.2438  -20.9620   18.2974 O   0  0  0  0  0  0  0  0  0  0  0  0
    8.7953  -17.7565   20.6413 C   0  0  0  0  0  0  0  0  0  0  0  0
   10.0242  -17.8063   20.9083 O   0  0  0  0  0  0  0  0  0  0  0  0
    6.2170  -21.8872   20.0619 O   0  0  0  0  0  0  0  0  0  0  0  0
    8.1565  -12.7024   16.6797 N   0  0  0  0  0  0  0  0  0  0  0  0
    7.8473  -13.3787   17.9065 C   0  0  0  0  0  0  0  0  0  0  0  0
    7.6368  -14.6482   17.8649 N   0  0  0  0  0  0  0  0  0  0  0  0
    7.7712  -12.6928   19.1346 N   0  0  0  0  0  0  0  0  0  0  0  0
    8.2766  -13.2387   20.3818 C   0  0  0  0  0  0  0  0  0  0  0  0
    7.2026  -13.9740   21.1438 C   0  0  0  0  0  0  0  0  0  0  0  0
    7.7447  -14.6049   22.3970 C   0  0  0  0  0  0  0  0  0  0  0  0
    8.6208  -15.7942   22.1247 C   0  0  2  0  0  0  0  0  0  0  0  0
    7.9977  -16.7508   21.2411 N   0  0  0  0  0  0  0  0  0  0  0  0
    9.0492  -16.4816   23.3707 C   0  0  0  0  0  0  0  0  0  0  0  0
    8.1896  -16.8299   24.2155 O   0  0  0  0  0  0  0  0  0  0  0  0
    7.4787  -15.1826   18.7319 N   0  0  0  0  0  0  0  0  0  0  0  0
   10.4073  -16.7547   23.6298 C   0  0  1  0  0  0  0  0  0  0  0  0
   10.8619  -17.4490   24.8581 C   0  0  0  0  0  0  0  0  0  0  0  0
   11.8328  -18.5083   24.4047 C   0  0  0  0  0  0  0  0  0  0  0  0
   11.2658  -19.5729   23.5384 C   0  0  0  0  0  0  0  0  0  0  0  0
   12.3357  -20.5566   23.1655 O   0  0  0  0  0  0  0  0  0  0  0  0
   13.4890  -20.3549   23.6072 C   0  0  0  0  0  0  0  0  0  0  0  0
   11.5423  -16.4868   25.7471 O   0  0  0  0  0  0  0  0  0  0  0  0
   11.8513  -15.3464   25.3428 O   0  0  0  0  0  0  0  0  0  0  0  0
   12.0935  -21.6591   22.3640 O   0  0  0  0  0  0  0  0  0  0  0  0
  2  1  1  6
  2  3  1  0
  3  4  1  0
  4  8  1  0
  5  4  2  0
  6  2  1  0
  7  6  2  0
 10  9  1  0
 10 12  1  0
 11 10  2  0
 12 13  1  0
 13 14  1  0
 16 15  1  1
 15 14  1  0
 16 17  1  0
 17  6  1  0
 18 20  1  0
 18 16  1  0
 19 18  2  0
 21 26  1  0
 21 20  1  0
 21 22  1  1
 23 22  1  0
 23 24  1  0
 24 25  2  0
 26 29  1  0
 27 26  2  0
 28 24  1  0
M  END
$$$$
