DRE.pdb
     RDKit          3D

 29 28  0  0  1  0  0  0  0  0999 V2000
   14.2247  -16.6776   15.7737 N   0  0  0  0  0  0  0  0  0  0  0  0
   14.7746  -15.4037   16.1837 C   0  0  1  0  0  0  0  0  0  0  0  0
   14.5986  -14.3330   15.1195 C   0  0  0  0  0  0  0  0  0  0  0  0
   15.2179  -14.7148   13.8251 C   0  0  0  0  0  0  0  0  0  0  0  0
   16.2017  -15.5292   13.7863 O   0  0  0  0  0  0  0  0  0  0  0  0
   14.2433  -14.9644   17.4892 C   0  0  0  0  0  0  0  0  0  0  0  0
   14.8151  -13.9894   18.0427 O   0  0  0  0  0  0  0  0  0  0  0  0
   14.7938  -14.2365   12.6156 O   0  0  0  0  0  0  0  0  0  0  0  0
    6.3083  -13.8119   19.3201 N   0  0  0  0  0  0  0  0  0  0  0  0
    7.5406  -13.2412   18.8577 C   0  0  0  0  0  0  0  0  0  0  0  0
    7.4823  -12.2224   18.0726 N   0  0  0  0  0  0  0  0  0  0  0  0
    8.7915  -13.7645   19.2396 N   0  0  0  0  0  0  0  0  0  0  0  0
    9.2754  -13.7460   20.6088 C   0  0  0  0  0  0  0  0  0  0  0  0
   10.6803  -14.2854   20.7103 C   0  0  0  0  0  0  0  0  0  0  0  0
   11.2086  -14.7130   19.3685 C   0  0  0  0  0  0  0  0  0  0  0  0
   12.6747  -15.0386   19.3905 C   0  0  2  0  0  0  0  0  0  0  0  0
   13.1417  -15.5776   18.1355 N   0  0  0  0  0  0  0  0  0  0  0  0
   13.0332  -15.9713   20.4906 C   0  0  0  0  0  0  0  0  0  0  0  0
   12.6698  -17.1706   20.4317 O   0  0  0  0  0  0  0  0  0  0  0  0
    8.3417  -11.8199   17.6705 N   0  0  0  0  0  0  0  0  0  0  0  0
   13.7772  -15.5399   21.6070 C   0  0  2  0  0  0  0  0  0  0  0  0
   14.1107  -16.4368   22.7392 C   0  0  0  0  0  0  0  0  0  0  0  0
   15.4227  -15.9428   23.2916 C   0  0  0  0  0  0  0  0  0  0  0  0
   16.5996  -16.1095   22.4014 C   0  0  0  0  0  0  0  0  0  0  0  0
   17.8333  -15.5867   23.0768 O   0  0  0  0  0  0  0  0  0  0  0  0
   17.8540  -15.5862   24.3280 C   0  0  0  0  0  0  0  0  0  0  0  0
   13.0598  -16.3421   23.7715 O   0  0  0  0  0  0  0  0  0  0  0  0
   12.1643  -15.4747   23.6987 O   0  0  0  0  0  0  0  0  0  0  0  0
   18.9286  -15.1138   22.3745 O   0  0  0  0  0  0  0  0  0  0  0  0
  2  1  1  6
  2  3  1  0
  3  4  1  0
  4  8  1  0
  5  4  2  0
  6  2  1  0
  7  6  2  0
 10  9  1  0
 10 12  1  0
 11 10  2  0
 12 13  1  0
 13 14  1  0
 16 15  1  6
 15 14  1  0
 16 17  1  0
 17  6  1  0
 18 20  1  0
 18 16  1  0
 19 18  2  0
 21 26  1  0
 21 20  1  0
 21 22  1  6
 23 22  1  0
 23 24  1  0
 24 25  2  0
 26 29  1  0
 27 26  2  0
 28 24  1  0
M  END
$$$$
