DRE.pdb
     RDKit          3D

 29 28  0  0  1  0  0  0  0  0999 V2000
   13.9407  -15.8603   17.3305 N   0  0  0  0  0  0  0  0  0  0  0  0
   14.6828  -15.1514   18.3502 C   0  0  1  0  0  0  0  0  0  0  0  0
   15.3227  -13.8806   17.8157 C   0  0  0  0  0  0  0  0  0  0  0  0
   16.3086  -14.1531   16.7394 C   0  0  0  0  0  0  0  0  0  0  0  0
   15.9978  -14.8830   15.7378 O   0  0  0  0  0  0  0  0  0  0  0  0
   13.8629  -14.8841   19.5484 C   0  0  0  0  0  0  0  0  0  0  0  0
   14.4547  -14.4170   20.5561 O   0  0  0  0  0  0  0  0  0  0  0  0
   17.5839  -13.6581   16.7414 O   0  0  0  0  0  0  0  0  0  0  0  0
    6.2209  -12.8688   17.8097 N   0  0  0  0  0  0  0  0  0  0  0  0
    7.4576  -13.2526   17.1921 C   0  0  0  0  0  0  0  0  0  0  0  0
    7.4532  -13.5114   15.9310 N   0  0  0  0  0  0  0  0  0  0  0  0
    8.6561  -13.3497   17.9261 N   0  0  0  0  0  0  0  0  0  0  0  0
    8.7284  -13.1350   19.3606 C   0  0  0  0  0  0  0  0  0  0  0  0
   10.1408  -13.2672   19.8730 C   0  0  0  0  0  0  0  0  0  0  0  0
   10.3297  -14.5368   20.6573 C   0  0  0  0  0  0  0  0  0  0  0  0
   11.7747  -14.8928   20.8601 C   0  0  2  0  0  0  0  0  0  0  0  0
   12.4683  -15.1248   19.6156 N   0  0  0  0  0  0  0  0  0  0  0  0
   11.9504  -16.0712   21.7485 C   0  0  0  0  0  0  0  0  0  0  0  0
   11.8527  -17.2280   21.2731 O   0  0  0  0  0  0  0  0  0  0  0  0
    8.3113  -13.8308   15.4577 N   0  0  0  0  0  0  0  0  0  0  0  0
   12.2263  -15.9214   23.1224 C   0  0  1  0  0  0  0  0  0  0  0  0
   12.5937  -17.0641   23.9922 C   0  0  0  0  0  0  0  0  0  0  0  0
   14.0537  -16.8875   24.3203 C   0  0  0  0  0  0  0  0  0  0  0  0
   14.9987  -17.6913   23.5041 C   0  0  0  0  0  0  0  0  0  0  0  0
   16.4110  -17.4068   23.9237 O   0  0  0  0  0  0  0  0  0  0  0  0
   16.5850  -16.6139   24.8760 C   0  0  0  0  0  0  0  0  0  0  0  0
   11.7890  -17.0231   25.2291 O   0  0  0  0  0  0  0  0  0  0  0  0
   11.9265  -17.8935   26.1140 O   0  0  0  0  0  0  0  0  0  0  0  0
   17.5071  -17.9818   23.3035 O   0  0  0  0  0  0  0  0  0  0  0  0
  2  1  1  6
  2  3  1  0
  3  4  1  0
  4  8  1  0
  5  4  2  0
  6  2  1  0
  7  6  2  0
 10  9  1  0
 10 12  1  0
 11 10  2  0
 12 13  1  0
 13 14  1  0
 16 15  1  6
 15 14  1  0
 16 17  1  0
 17  6  1  0
 18 20  1  0
 18 16  1  0
 19 18  2  0
 21 26  1  0
 21 20  1  0
 21 22  1  6
 23 22  1  0
 23 24  1  0
 24 25  2  0
 26 29  1  0
 27 26  2  0
 28 24  1  0
M  END
$$$$
