DRE.pdb
     RDKit          3D

 29 28  0  0  1  0  0  0  0  0999 V2000
    9.4798  -14.0075   16.9916 N   0  0  0  0  0  0  0  0  0  0  0  0
    9.7471  -15.4294   16.9857 C   0  0  1  0  0  0  0  0  0  0  0  0
    9.6232  -16.0312   15.5956 C   0  0  0  0  0  0  0  0  0  0  0  0
    8.3319  -15.6925   14.9455 C   0  0  0  0  0  0  0  0  0  0  0  0
    8.2186  -14.6443   14.2237 O   0  0  0  0  0  0  0  0  0  0  0  0
   11.0487  -15.7518   17.6031 C   0  0  0  0  0  0  0  0  0  0  0  0
   11.3246  -16.9701   17.7573 O   0  0  0  0  0  0  0  0  0  0  0  0
    7.2026  -16.4547   15.0684 O   0  0  0  0  0  0  0  0  0  0  0  0
   17.7555  -12.3901   15.6610 N   0  0  0  0  0  0  0  0  0  0  0  0
   17.7323  -12.2012   17.0829 C   0  0  0  0  0  0  0  0  0  0  0  0
   18.3474  -11.1810   17.5712 N   0  0  0  0  0  0  0  0  0  0  0  0
   17.0607  -13.0946   17.9404 N   0  0  0  0  0  0  0  0  0  0  0  0
   16.9006  -14.5080   17.6471 C   0  0  0  0  0  0  0  0  0  0  0  0
   15.7393  -15.1053   18.4017 C   0  0  0  0  0  0  0  0  0  0  0  0
   14.4227  -14.5746   17.9042 C   0  0  0  0  0  0  0  0  0  0  0  0
   13.2407  -15.1995   18.5886 C   0  0  2  0  0  0  0  0  0  0  0  0
   11.9832  -14.7730   18.0225 N   0  0  0  0  0  0  0  0  0  0  0  0
   13.2324  -14.9460   20.0529 C   0  0  0  0  0  0  0  0  0  0  0  0
   13.1264  -13.7710   20.4797 O   0  0  0  0  0  0  0  0  0  0  0  0
   18.3739  -11.0220   18.5892 N   0  0  0  0  0  0  0  0  0  0  0  0
   13.3411  -16.0000   20.9821 C   0  0  2  0  0  0  0  0  0  0  0  0
   13.3563  -15.7745   22.4471 C   0  0  0  0  0  0  0  0  0  0  0  0
   12.7043  -16.9851   23.0634 C   0  0  0  0  0  0  0  0  0  0  0  0
   12.8070  -17.0894   24.5412 C   0  0  0  0  0  0  0  0  0  0  0  0
   12.0441  -18.2870   25.0263 O   0  0  0  0  0  0  0  0  0  0  0  0
   12.1155  -19.3351   24.3464 C   0  0  0  0  0  0  0  0  0  0  0  0
   14.7514  -15.6583   22.9154 O   0  0  0  0  0  0  0  0  0  0  0  0
   15.6949  -16.1286   22.2458 O   0  0  0  0  0  0  0  0  0  0  0  0
   11.2784  -18.2707   26.1796 O   0  0  0  0  0  0  0  0  0  0  0  0
  2  1  1  6
  2  3  1  0
  3  4  1  0
  4  8  1  0
  5  4  2  0
  6  2  1  0
  7  6  2  0
 10  9  1  0
 10 12  1  0
 11 10  2  0
 12 13  1  0
 13 14  1  0
 16 15  1  6
 15 14  1  0
 16 17  1  0
 17  6  1  0
 18 20  1  0
 18 16  1  0
 19 18  2  0
 21 26  1  0
 21 20  1  0
 21 22  1  6
 23 22  1  0
 23 24  1  0
 24 25  2  0
 26 29  1  0
 27 26  2  0
 28 24  1  0
M  END
$$$$
