DRE.pdb
     RDKit          3D

 29 28  0  0  1  0  0  0  0  0999 V2000
    8.0469  -17.6421   26.4625 N   0  0  0  0  0  0  0  0  0  0  0  0
    9.3962  -18.1409   26.3082 C   0  0  1  0  0  0  0  0  0  0  0  0
    9.5043  -19.6188   26.6461 C   0  0  0  0  0  0  0  0  0  0  0  0
    9.0802  -19.9133   28.0383 C   0  0  0  0  0  0  0  0  0  0  0  0
    8.4471  -19.0427   28.7266 O   0  0  0  0  0  0  0  0  0  0  0  0
    9.9463  -17.8482   24.9698 C   0  0  0  0  0  0  0  0  0  0  0  0
   11.0274  -18.4120   24.6579 O   0  0  0  0  0  0  0  0  0  0  0  0
    9.3290  -21.1023   28.6673 O   0  0  0  0  0  0  0  0  0  0  0  0
    6.3042  -12.8356   19.3070 N   0  0  0  0  0  0  0  0  0  0  0  0
    7.6183  -13.1724   18.8405 C   0  0  0  0  0  0  0  0  0  0  0  0
    7.9927  -12.7174   17.6958 N   0  0  0  0  0  0  0  0  0  0  0  0
    8.4921  -13.9772   19.5976 N   0  0  0  0  0  0  0  0  0  0  0  0
    8.6052  -15.4139   19.4177 C   0  0  0  0  0  0  0  0  0  0  0  0
    9.5906  -16.0205   20.3850 C   0  0  0  0  0  0  0  0  0  0  0  0
    9.0404  -16.0621   21.7843 C   0  0  0  0  0  0  0  0  0  0  0  0
    9.9441  -16.7735   22.7503 C   0  0  2  0  0  0  0  0  0  0  0  0
    9.3264  -16.9786   24.0388 N   0  0  0  0  0  0  0  0  0  0  0  0
   11.2432  -16.0753   22.9329 C   0  0  0  0  0  0  0  0  0  0  0  0
   11.3102  -15.0741   23.6860 O   0  0  0  0  0  0  0  0  0  0  0  0
    8.8913  -13.0087   17.2836 N   0  0  0  0  0  0  0  0  0  0  0  0
   12.4113  -16.5124   22.2768 C   0  0  2  0  0  0  0  0  0  0  0  0
   13.7001  -15.7862   22.3725 C   0  0  0  0  0  0  0  0  0  0  0  0
   14.6752  -16.7462   23.0033 C   0  0  0  0  0  0  0  0  0  0  0  0
   16.0820  -16.2767   23.0809 C   0  0  0  0  0  0  0  0  0  0  0  0
   16.9357  -17.3178   23.7433 O   0  0  0  0  0  0  0  0  0  0  0  0
   16.4071  -18.4216   24.0044 C   0  0  0  0  0  0  0  0  0  0  0  0
   14.1599  -15.4143   21.0200 O   0  0  0  0  0  0  0  0  0  0  0  0
   13.6603  -15.9417   20.0041 O   0  0  0  0  0  0  0  0  0  0  0  0
   18.2638  -17.1014   24.0690 O   0  0  0  0  0  0  0  0  0  0  0  0
  2  1  1  6
  2  3  1  0
  3  4  1  0
  4  8  1  0
  5  4  2  0
  6  2  1  0
  7  6  2  0
 10  9  1  0
 10 12  1  0
 11 10  2  0
 12 13  1  0
 13 14  1  0
 16 15  1  6
 15 14  1  0
 16 17  1  0
 17  6  1  0
 18 20  1  0
 18 16  1  0
 19 18  2  0
 21 26  1  0
 21 20  1  0
 21 22  1  6
 23 22  1  0
 23 24  1  0
 24 25  2  0
 26 29  1  0
 27 26  2  0
 28 24  1  0
M  END
$$$$
