DRE.pdb
     RDKit          3D

 29 28  0  0  1  0  0  0  0  0999 V2000
   13.4224  -16.9051   18.9529 N   0  0  0  0  0  0  0  0  0  0  0  0
   13.2276  -15.7724   19.8316 C   0  0  1  0  0  0  0  0  0  0  0  0
   13.0182  -14.4783   19.0626 C   0  0  0  0  0  0  0  0  0  0  0  0
   14.1644  -14.1556   18.1754 C   0  0  0  0  0  0  0  0  0  0  0  0
   14.1809  -13.0733   17.4966 O   0  0  0  0  0  0  0  0  0  0  0  0
   12.1439  -16.0062   20.8064 C   0  0  0  0  0  0  0  0  0  0  0  0
   11.6109  -14.9915   21.3264 O   0  0  0  0  0  0  0  0  0  0  0  0
   15.2537  -14.9692   18.0240 O   0  0  0  0  0  0  0  0  0  0  0  0
    5.2888  -18.9324   23.6455 N   0  0  0  0  0  0  0  0  0  0  0  0
    6.0667  -19.8214   24.4594 C   0  0  0  0  0  0  0  0  0  0  0  0
    5.7020  -20.0043   25.6805 N   0  0  0  0  0  0  0  0  0  0  0  0
    7.2021  -20.4870   23.9570 N   0  0  0  0  0  0  0  0  0  0  0  0
    7.9257  -20.0439   22.7784 C   0  0  0  0  0  0  0  0  0  0  0  0
    8.8747  -18.9162   23.0988 C   0  0  0  0  0  0  0  0  0  0  0  0
    9.6884  -18.5180   21.8980 C   0  0  0  0  0  0  0  0  0  0  0  0
   10.6618  -17.4115   22.1883 C   0  0  2  0  0  0  0  0  0  0  0  0
   11.6853  -17.2945   21.1772 N   0  0  0  0  0  0  0  0  0  0  0  0
   11.3016  -17.5529   23.5222 C   0  0  0  0  0  0  0  0  0  0  0  0
   12.1734  -18.4367   23.7028 O   0  0  0  0  0  0  0  0  0  0  0  0
    6.2084  -20.6672   26.2858 N   0  0  0  0  0  0  0  0  0  0  0  0
   10.9515  -16.7127   24.5981 C   0  0  2  0  0  0  0  0  0  0  0  0
   11.6223  -16.7842   25.9181 C   0  0  0  0  0  0  0  0  0  0  0  0
   11.0833  -15.6310   26.7243 C   0  0  0  0  0  0  0  0  0  0  0  0
   11.6494  -15.4791   28.0887 C   0  0  0  0  0  0  0  0  0  0  0  0
   11.1326  -14.2211   28.7227 O   0  0  0  0  0  0  0  0  0  0  0  0
   10.3324  -13.5236   28.0600 C   0  0  0  0  0  0  0  0  0  0  0  0
   11.2852  -18.0621   26.5757 O   0  0  0  0  0  0  0  0  0  0  0  0
   10.1744  -18.6038   26.3953 O   0  0  0  0  0  0  0  0  0  0  0  0
   11.5048  -13.8145   29.9926 O   0  0  0  0  0  0  0  0  0  0  0  0
  2  1  1  6
  2  3  1  0
  3  4  1  0
  4  8  1  0
  5  4  2  0
  6  2  1  0
  7  6  2  0
 10  9  1  0
 10 12  1  0
 11 10  2  0
 12 13  1  0
 13 14  1  0
 16 15  1  6
 15 14  1  0
 16 17  1  0
 17  6  1  0
 18 20  1  0
 18 16  1  0
 19 18  2  0
 21 26  1  0
 21 20  1  0
 21 22  1  6
 23 22  1  0
 23 24  1  0
 24 25  2  0
 26 29  1  0
 27 26  2  0
 28 24  1  0
M  END
$$$$
