DRE.pdb
     RDKit          3D

 29 28  0  0  1  0  0  0  0  0999 V2000
   13.0500  -14.6486   16.6680 N   0  0  0  0  0  0  0  0  0  0  0  0
   13.9417  -15.1722   17.6798 C   0  0  1  0  0  0  0  0  0  0  0  0
   15.3732  -14.7007   17.4833 C   0  0  0  0  0  0  0  0  0  0  0  0
   15.8795  -14.9839   16.1164 C   0  0  0  0  0  0  0  0  0  0  0  0
   16.4295  -14.0649   15.4198 O   0  0  0  0  0  0  0  0  0  0  0  0
   13.4591  -14.8880   19.0457 C   0  0  0  0  0  0  0  0  0  0  0  0
   14.0543  -13.9841   19.6882 O   0  0  0  0  0  0  0  0  0  0  0  0
   15.7962  -16.2125   15.5205 O   0  0  0  0  0  0  0  0  0  0  0  0
    8.0620  -13.6279   17.6399 N   0  0  0  0  0  0  0  0  0  0  0  0
    8.0441  -12.9734   18.9164 C   0  0  0  0  0  0  0  0  0  0  0  0
    7.9837  -11.6876   18.9399 N   0  0  0  0  0  0  0  0  0  0  0  0
    8.0900  -13.6979   20.1237 N   0  0  0  0  0  0  0  0  0  0  0  0
    8.1234  -15.1487   20.1785 C   0  0  0  0  0  0  0  0  0  0  0  0
    9.5353  -15.6701   20.2758 C   0  0  0  0  0  0  0  0  0  0  0  0
   10.4637  -14.6490   20.8740 C   0  0  0  0  0  0  0  0  0  0  0  0
   11.8901  -15.1156   20.9345 C   0  0  2  0  0  0  0  0  0  0  0  0
   12.3786  -15.5723   19.6553 N   0  0  0  0  0  0  0  0  0  0  0  0
   12.0968  -16.1815   21.9493 C   0  0  0  0  0  0  0  0  0  0  0  0
   11.8890  -17.3801   21.6428 O   0  0  0  0  0  0  0  0  0  0  0  0
    8.0061  -11.1774   19.8352 N   0  0  0  0  0  0  0  0  0  0  0  0
   12.5239  -15.8780   23.2576 C   0  0  2  0  0  0  0  0  0  0  0  0
   12.6903  -16.9149   24.3039 C   0  0  0  0  0  0  0  0  0  0  0  0
   14.0830  -16.7375   24.8508 C   0  0  0  0  0  0  0  0  0  0  0  0
   15.1876  -16.9574   23.8827 C   0  0  0  0  0  0  0  0  0  0  0  0
   16.5117  -16.7565   24.5593 O   0  0  0  0  0  0  0  0  0  0  0  0
   17.1885  -17.7752   24.8244 C   0  0  0  0  0  0  0  0  0  0  0  0
   11.6960  -16.7018   25.3739 O   0  0  0  0  0  0  0  0  0  0  0  0
   10.9429  -15.7056   25.3618 O   0  0  0  0  0  0  0  0  0  0  0  0
   17.0002  -15.5050   24.8935 O   0  0  0  0  0  0  0  0  0  0  0  0
  2  1  1  6
  2  3  1  0
  3  4  1  0
  4  8  1  0
  5  4  2  0
  6  2  1  0
  7  6  2  0
 10  9  1  0
 10 12  1  0
 11 10  2  0
 12 13  1  0
 13 14  1  0
 16 15  1  6
 15 14  1  0
 16 17  1  0
 17  6  1  0
 18 20  1  0
 18 16  1  0
 19 18  2  0
 21 26  1  0
 21 20  1  0
 21 22  1  6
 23 22  1  0
 23 24  1  0
 24 25  2  0
 26 29  1  0
 27 26  2  0
 28 24  1  0
M  END
$$$$
