DRE.pdb
     RDKit          3D

 29 28  0  0  1  0  0  0  0  0999 V2000
   11.7381  -16.1556   18.2251 N   0  0  0  0  0  0  0  0  0  0  0  0
   12.6117  -15.5991   19.2352 C   0  0  1  0  0  0  0  0  0  0  0  0
   13.2657  -14.3051   18.7793 C   0  0  0  0  0  0  0  0  0  0  0  0
   14.1104  -14.4927   17.5726 C   0  0  0  0  0  0  0  0  0  0  0  0
   14.0574  -15.5777   16.8999 O   0  0  0  0  0  0  0  0  0  0  0  0
   11.9257  -15.4333   20.5319 C   0  0  0  0  0  0  0  0  0  0  0  0
   12.5935  -14.9340   21.4746 O   0  0  0  0  0  0  0  0  0  0  0  0
   14.9816  -13.5463   17.1069 O   0  0  0  0  0  0  0  0  0  0  0  0
    8.2431  -13.7574   17.2174 N   0  0  0  0  0  0  0  0  0  0  0  0
    8.4666  -12.8082   18.2695 C   0  0  0  0  0  0  0  0  0  0  0  0
    8.7599  -11.5974   17.9443 N   0  0  0  0  0  0  0  0  0  0  0  0
    8.3726  -13.1687   19.6281 N   0  0  0  0  0  0  0  0  0  0  0  0
    8.0381  -14.5102   20.0724 C   0  0  0  0  0  0  0  0  0  0  0  0
    7.8925  -14.5802   21.5719 C   0  0  0  0  0  0  0  0  0  0  0  0
    8.5498  -15.8099   22.1362 C   0  0  0  0  0  0  0  0  0  0  0  0
   10.0499  -15.7424   22.1025 C   0  0  2  0  0  0  0  0  0  0  0  0
   10.5774  -15.8036   20.7602 N   0  0  0  0  0  0  0  0  0  0  0  0
   10.6851  -16.8012   22.9297 C   0  0  0  0  0  0  0  0  0  0  0  0
   10.6427  -17.9960   22.5496 O   0  0  0  0  0  0  0  0  0  0  0  0
    8.9567  -10.8922   18.6697 N   0  0  0  0  0  0  0  0  0  0  0  0
   11.3394  -16.4951   24.1397 C   0  0  1  0  0  0  0  0  0  0  0  0
   11.9791  -17.5307   24.9857 C   0  0  0  0  0  0  0  0  0  0  0  0
   13.4434  -17.1798   25.0409 C   0  0  0  0  0  0  0  0  0  0  0  0
   14.1391  -17.1127   23.7306 C   0  0  0  0  0  0  0  0  0  0  0  0
   15.5923  -16.8001   23.9354 O   0  0  0  0  0  0  0  0  0  0  0  0
   15.9843  -16.6046   25.1076 C   0  0  0  0  0  0  0  0  0  0  0  0
   11.3980  -17.4898   26.3421 O   0  0  0  0  0  0  0  0  0  0  0  0
   10.5759  -16.6058   26.6621 O   0  0  0  0  0  0  0  0  0  0  0  0
   16.4966  -16.7225   22.8900 O   0  0  0  0  0  0  0  0  0  0  0  0
  2  1  1  6
  2  3  1  0
  3  4  1  0
  4  8  1  0
  5  4  2  0
  6  2  1  0
  7  6  2  0
 10  9  1  0
 10 12  1  0
 11 10  2  0
 12 13  1  0
 13 14  1  0
 16 15  1  6
 15 14  1  0
 16 17  1  0
 17  6  1  0
 18 20  1  0
 18 16  1  0
 19 18  2  0
 21 26  1  0
 21 20  1  0
 21 22  1  6
 23 22  1  0
 23 24  1  0
 24 25  2  0
 26 29  1  0
 27 26  2  0
 28 24  1  0
M  END
$$$$
