DRE.pdb
     RDKit          3D

 29 28  0  0  1  0  0  0  0  0999 V2000
   11.7490  -18.2428   16.7259 N   0  0  0  0  0  0  0  0  0  0  0  0
   11.8489  -18.6536   18.1095 C   0  0  1  0  0  0  0  0  0  0  0  0
   12.6842  -19.9123   18.2760 C   0  0  0  0  0  0  0  0  0  0  0  0
   12.2434  -21.0071   17.3749 C   0  0  0  0  0  0  0  0  0  0  0  0
   11.4879  -20.7650   16.3733 O   0  0  0  0  0  0  0  0  0  0  0  0
   12.3319  -17.5624   18.9788 C   0  0  0  0  0  0  0  0  0  0  0  0
   13.5304  -17.6192   19.3587 O   0  0  0  0  0  0  0  0  0  0  0  0
   12.6025  -22.3160   17.5461 O   0  0  0  0  0  0  0  0  0  0  0  0
    7.8120  -11.8264   20.5112 N   0  0  0  0  0  0  0  0  0  0  0  0
    7.6559  -13.0654   19.8052 C   0  0  0  0  0  0  0  0  0  0  0  0
    6.4678  -13.4262   19.4649 N   0  0  0  0  0  0  0  0  0  0  0  0
    8.7584  -13.8807   19.4823 N   0  0  0  0  0  0  0  0  0  0  0  0
    9.7689  -13.5016   18.5106 C   0  0  0  0  0  0  0  0  0  0  0  0
   11.1432  -13.4450   19.1293 C   0  0  0  0  0  0  0  0  0  0  0  0
   11.2167  -14.2580   20.3926 C   0  0  0  0  0  0  0  0  0  0  0  0
   12.0945  -15.4698   20.2615 C   0  0  2  0  0  0  0  0  0  0  0  0
   11.5246  -16.4760   19.3976 N   0  0  0  0  0  0  0  0  0  0  0  0
   12.4226  -16.0788   21.5768 C   0  0  0  0  0  0  0  0  0  0  0  0
   11.5054  -16.5585   22.2857 O   0  0  0  0  0  0  0  0  0  0  0  0
    6.3094  -14.3243   18.9847 N   0  0  0  0  0  0  0  0  0  0  0  0
   13.7482  -16.1320   22.0520 C   0  0  1  0  0  0  0  0  0  0  0  0
   14.0946  -16.6554   23.3950 C   0  0  0  0  0  0  0  0  0  0  0  0
   14.4063  -18.1174   23.2065 C   0  0  0  0  0  0  0  0  0  0  0  0
   14.9452  -18.8197   24.3989 C   0  0  0  0  0  0  0  0  0  0  0  0
   15.1730  -20.2687   24.0829 O   0  0  0  0  0  0  0  0  0  0  0  0
   15.8493  -20.5416   23.0660 C   0  0  0  0  0  0  0  0  0  0  0  0
   15.2830  -15.9474   23.9105 O   0  0  0  0  0  0  0  0  0  0  0  0
   16.0058  -15.2687   23.1511 O   0  0  0  0  0  0  0  0  0  0  0  0
   14.6691  -21.2943   24.8646 O   0  0  0  0  0  0  0  0  0  0  0  0
  2  1  1  6
  2  3  1  0
  3  4  1  0
  4  8  1  0
  5  4  2  0
  6  2  1  0
  7  6  2  0
 10  9  1  0
 10 12  1  0
 11 10  2  0
 12 13  1  0
 13 14  1  0
 16 15  1  1
 15 14  1  0
 16 17  1  0
 17  6  1  0
 18 20  1  0
 18 16  1  0
 19 18  2  0
 21 26  1  0
 21 20  1  0
 21 22  1  1
 23 22  1  0
 23 24  1  0
 24 25  2  0
 26 29  1  0
 27 26  2  0
 28 24  1  0
M  END
$$$$
