DRE.pdb
     RDKit          3D

 29 28  0  0  1  0  0  0  0  0999 V2000
    9.6300  -18.5065   17.6806 N   0  0  0  0  0  0  0  0  0  0  0  0
   10.8846  -17.8274   17.9214 C   0  0  1  0  0  0  0  0  0  0  0  0
   11.3486  -17.0323   16.7121 C   0  0  0  0  0  0  0  0  0  0  0  0
   11.5977  -17.8949   15.5295 C   0  0  0  0  0  0  0  0  0  0  0  0
   11.2178  -19.1149   15.5188 O   0  0  0  0  0  0  0  0  0  0  0  0
   10.8382  -16.9903   19.1365 C   0  0  0  0  0  0  0  0  0  0  0  0
   11.9252  -16.4968   19.5353 O   0  0  0  0  0  0  0  0  0  0  0  0
   12.2335  -17.4602   14.3990 O   0  0  0  0  0  0  0  0  0  0  0  0
    6.4637  -13.0528   17.2865 N   0  0  0  0  0  0  0  0  0  0  0  0
    7.6261  -12.6785   18.0392 C   0  0  0  0  0  0  0  0  0  0  0  0
    8.7546  -12.6125   17.4232 N   0  0  0  0  0  0  0  0  0  0  0  0
    7.5578  -12.3863   19.4157 N   0  0  0  0  0  0  0  0  0  0  0  0
    8.2270  -13.1810   20.4303 C   0  0  0  0  0  0  0  0  0  0  0  0
    7.7230  -14.6024   20.4467 C   0  0  0  0  0  0  0  0  0  0  0  0
    8.3982  -15.4182   21.5149 C   0  0  0  0  0  0  0  0  0  0  0  0
    9.7308  -15.9617   21.0851 C   0  0  2  0  0  0  0  0  0  0  0  0
    9.6504  -16.7223   19.8609 N   0  0  0  0  0  0  0  0  0  0  0  0
   10.3729  -16.7907   22.1382 C   0  0  0  0  0  0  0  0  0  0  0  0
    9.8433  -17.8735   22.4859 O   0  0  0  0  0  0  0  0  0  0  0  0
    9.6276  -12.4413   17.9437 N   0  0  0  0  0  0  0  0  0  0  0  0
   11.5713  -16.3886   22.7614 C   0  0  2  0  0  0  0  0  0  0  0  0
   12.2283  -17.1905   23.8210 C   0  0  0  0  0  0  0  0  0  0  0  0
   13.6323  -16.6564   23.9397 C   0  0  0  0  0  0  0  0  0  0  0  0
   14.4653  -16.7578   22.7145 C   0  0  0  0  0  0  0  0  0  0  0  0
   15.7669  -16.0391   22.9169 O   0  0  0  0  0  0  0  0  0  0  0  0
   16.3976  -15.6824   21.8967 C   0  0  0  0  0  0  0  0  0  0  0  0
   11.5086  -17.0086   25.0969 O   0  0  0  0  0  0  0  0  0  0  0  0
   10.6210  -16.1380   25.2152 O   0  0  0  0  0  0  0  0  0  0  0  0
   16.2831  -15.7629   24.1714 O   0  0  0  0  0  0  0  0  0  0  0  0
  2  1  1  6
  2  3  1  0
  3  4  1  0
  4  8  1  0
  5  4  2  0
  6  2  1  0
  7  6  2  0
 10  9  1  0
 10 12  1  0
 11 10  2  0
 12 13  1  0
 13 14  1  0
 16 15  1  1
 15 14  1  0
 16 17  1  0
 17  6  1  0
 18 20  1  0
 18 16  1  0
 19 18  2  0
 21 26  1  0
 21 20  1  0
 21 22  1  6
 23 22  1  0
 23 24  1  0
 24 25  2  0
 26 29  1  0
 27 26  2  0
 28 24  1  0
M  END
$$$$
