DRE.pdb
     RDKit          3D

 29 28  0  0  1  0  0  0  0  0999 V2000
    8.8563  -19.5243   18.4025 N   0  0  0  0  0  0  0  0  0  0  0  0
    9.6704  -18.3900   18.0231 C   0  0  1  0  0  0  0  0  0  0  0  0
    9.1133  -17.6635   16.8099 C   0  0  0  0  0  0  0  0  0  0  0  0
   10.0109  -17.7605   15.6310 C   0  0  0  0  0  0  0  0  0  0  0  0
   11.0822  -18.4550   15.6806 O   0  0  0  0  0  0  0  0  0  0  0  0
    9.8965  -17.4667   19.1526 C   0  0  0  0  0  0  0  0  0  0  0  0
   10.9832  -16.8321   19.1662 O   0  0  0  0  0  0  0  0  0  0  0  0
    9.7643  -17.1318   14.4413 O   0  0  0  0  0  0  0  0  0  0  0  0
    7.9345  -10.9289   20.4021 N   0  0  0  0  0  0  0  0  0  0  0  0
    8.7014  -12.0241   19.8824 C   0  0  0  0  0  0  0  0  0  0  0  0
    9.6771  -11.7594   19.0852 N   0  0  0  0  0  0  0  0  0  0  0  0
    8.4130  -13.3606   20.2218 N   0  0  0  0  0  0  0  0  0  0  0  0
    7.1758  -13.7674   20.8643 C   0  0  0  0  0  0  0  0  0  0  0  0
    7.0845  -15.2670   20.9978 C   0  0  0  0  0  0  0  0  0  0  0  0
    8.1039  -15.8007   21.9665 C   0  0  0  0  0  0  0  0  0  0  0  0
    9.3118  -16.3811   21.2881 C   0  0  2  0  0  0  0  0  0  0  0  0
    8.9656  -17.2661   20.2016 N   0  0  0  0  0  0  0  0  0  0  0  0
   10.2088  -17.0925   22.2357 C   0  0  0  0  0  0  0  0  0  0  0  0
    9.8918  -18.2315   22.6553 O   0  0  0  0  0  0  0  0  0  0  0  0
   10.2468  -12.5182   18.6828 N   0  0  0  0  0  0  0  0  0  0  0  0
   11.4162  -16.5161   22.6785 C   0  0  1  0  0  0  0  0  0  0  0  0
   12.3575  -17.2259   23.5771 C   0  0  0  0  0  0  0  0  0  0  0  0
   13.6920  -16.5481   23.4046 C   0  0  0  0  0  0  0  0  0  0  0  0
   14.7964  -17.0777   24.2444 C   0  0  0  0  0  0  0  0  0  0  0  0
   16.0746  -16.3590   23.9259 O   0  0  0  0  0  0  0  0  0  0  0  0
   16.0054  -15.3519   23.1865 C   0  0  0  0  0  0  0  0  0  0  0  0
   11.9008  -17.0950   24.9748 O   0  0  0  0  0  0  0  0  0  0  0  0
   11.1158  -16.1839   25.3113 O   0  0  0  0  0  0  0  0  0  0  0  0
   17.3045  -16.7660   24.4140 O   0  0  0  0  0  0  0  0  0  0  0  0
  2  1  1  1
  2  3  1  0
  3  4  1  0
  4  8  1  0
  5  4  2  0
  6  2  1  0
  7  6  2  0
 10  9  1  0
 10 12  1  0
 11 10  2  0
 12 13  1  0
 13 14  1  0
 16 15  1  1
 15 14  1  0
 16 17  1  0
 17  6  1  0
 18 20  1  0
 18 16  1  0
 19 18  2  0
 21 26  1  0
 21 20  1  0
 21 22  1  6
 23 22  1  0
 23 24  1  0
 24 25  2  0
 26 29  1  0
 27 26  2  0
 28 24  1  0
M  END
$$$$
