IMW.pdb
     RDKit          3D

 31 32  0  0  1  0  0  0  0  0999 V2000
    7.9510  -11.9430   19.9165 C   0  0  0  0  0  0  0  0  0  0  0  0
    7.5124  -13.3810   19.7418 C   0  0  0  0  0  0  0  0  0  0  0  0
    8.7241  -14.1747   19.3125 C   0  0  2  0  0  0  0  0  0  0  0  0
    9.3271  -13.5836   18.0829 C   0  0  0  0  0  0  0  0  0  0  0  0
    8.4783  -15.6427   19.2615 C   0  0  2  0  0  0  0  0  0  0  0  0
    7.6115  -15.9310   18.1380 N   0  0  0  0  0  0  0  0  0  0  0  0
    7.8431  -16.1812   20.5049 C   0  0  0  0  0  0  0  0  0  0  0  0
    6.6303  -15.9821   20.6980 O   0  0  0  0  0  0  0  0  0  0  0  0
    7.3411  -21.7669   23.6505 C   0  0  0  0  0  0  0  0  0  0  0  0
    6.6508  -21.1396   22.1156 S   0  0  0  0  0  0  0  0  0  0  0  0
    6.9281  -19.3691   21.8561 C   0  0  0  0  0  0  0  0  0  0  0  0
    7.8396  -18.7810   22.8561 C   0  0  0  0  0  0  0  0  0  0  0  0
    8.2153  -17.3407   22.7218 C   0  0  2  0  0  0  0  0  0  0  0  0
    8.5946  -16.8908   21.4270 N   0  0  0  0  0  0  0  0  0  0  0  0
    9.2723  -17.0150   23.6973 C   0  0  0  0  0  0  0  0  0  0  0  0
   10.4717  -17.1719   23.3579 O   0  0  0  0  0  0  0  0  0  0  0  0
    8.9587  -16.5380   24.9810 N   0  0  0  0  0  0  0  0  0  0  0  0
   10.0217  -16.3252   25.9414 C   0  0  1  0  0  0  0  0  0  0  0  0
    9.7586  -15.0257   26.6742 C   0  0  0  0  0  0  0  0  0  0  0  0
    8.3316  -14.6792   26.4832 C   0  0  0  0  0  0  0  0  0  0  0  0
    7.2667  -15.5377   26.3518 C   0  0  0  0  0  0  0  0  0  0  0  0
    6.1442  -14.8078   26.1970 N   0  0  0  0  0  0  0  0  0  0  0  0
    6.4691  -13.5027   26.2269 C   0  0  0  0  0  0  0  0  0  0  0  0
    5.6696  -12.3635   26.1112 C   0  0  0  0  0  0  0  0  0  0  0  0
    6.2457  -11.1254   26.1752 C   0  0  0  0  0  0  0  0  0  0  0  0
    7.6067  -10.9946   26.3528 C   0  0  0  0  0  0  0  0  0  0  0  0
    8.3722  -12.1272   26.4640 C   0  0  0  0  0  0  0  0  0  0  0  0
    7.8388  -13.3995   26.4059 C   0  0  0  0  0  0  0  0  0  0  0  0
   10.0507  -17.4392   26.9439 C   0  0  0  0  0  0  0  0  0  0  0  0
    9.1473  -18.2856   26.9994 O   0  0  0  0  0  0  0  0  0  0  0  0
   11.1219  -17.5128   27.8265 O   0  0  0  0  0  0  0  0  0  0  0  0
  1  2  1  0
  2  3  1  0
  3  4  1  6
  5  3  1  0
  5  6  1  6
  7  8  2  0
  7  5  1  0
  9 10  1  0
 11 10  1  0
 12 11  1  0
 13 12  1  6
 13 14  1  0
 14  7  1  0
 15 16  2  0
 15 13  1  0
 17 15  1  0
 18 17  1  0
 18 19  1  1
 19 20  1  0
 20 28  1  0
 20 21  2  0
 21 22  1  0
 23 22  1  0
 23 24  2  0
 25 24  1  0
 26 25  2  0
 27 28  2  0
 27 26  1  0
 28 23  1  0
 29 18  1  0
 30 29  2  0
 31 29  1  0
M  END
$$$$
