IMW.pdb
     RDKit          3D

 31 32  0  0  1  0  0  0  0  0999 V2000
    7.4490  -19.4594   16.8823 C   0  0  0  0  0  0  0  0  0  0  0  0
    7.4783  -19.3705   18.3929 C   0  0  0  0  0  0  0  0  0  0  0  0
    8.7645  -18.6793   18.7807 C   0  0  2  0  0  0  0  0  0  0  0  0
    9.9090  -19.2273   17.9967 C   0  0  0  0  0  0  0  0  0  0  0  0
    8.9741  -18.6091   20.2535 C   0  0  2  0  0  0  0  0  0  0  0  0
    7.6989  -18.7920   20.9147 N   0  0  0  0  0  0  0  0  0  0  0  0
    9.5652  -17.3114   20.7072 C   0  0  0  0  0  0  0  0  0  0  0  0
   10.7397  -17.0420   20.3974 O   0  0  0  0  0  0  0  0  0  0  0  0
    6.6711  -12.2487   18.0788 C   0  0  0  0  0  0  0  0  0  0  0  0
    7.7451  -12.4404   19.5055 S   0  0  0  0  0  0  0  0  0  0  0  0
    7.4871  -13.9846   20.4155 C   0  0  0  0  0  0  0  0  0  0  0  0
    8.2168  -14.0211   21.6972 C   0  0  0  0  0  0  0  0  0  0  0  0
    9.1836  -15.1351   21.9384 C   0  0  2  0  0  0  0  0  0  0  0  0
    8.8158  -16.4233   21.4610 N   0  0  0  0  0  0  0  0  0  0  0  0
    9.5058  -15.2043   23.3759 C   0  0  0  0  0  0  0  0  0  0  0  0
    9.0960  -14.2852   24.1281 O   0  0  0  0  0  0  0  0  0  0  0  0
   10.2531  -16.2694   23.9058 N   0  0  0  0  0  0  0  0  0  0  0  0
   10.4628  -16.3503   25.3365 C   0  0  1  0  0  0  0  0  0  0  0  0
    9.1148  -16.4717   26.0170 C   0  0  0  0  0  0  0  0  0  0  0  0
    8.8834  -15.2289   26.7881 C   0  0  0  0  0  0  0  0  0  0  0  0
    9.5319  -14.8099   27.9248 C   0  0  0  0  0  0  0  0  0  0  0  0
    9.0137  -13.6241   28.3016 N   0  0  0  0  0  0  0  0  0  0  0  0
    8.0489  -13.2770   27.4306 C   0  0  0  0  0  0  0  0  0  0  0  0
    7.2250  -12.1504   27.3875 C   0  0  0  0  0  0  0  0  0  0  0  0
    6.3057  -12.0247   26.3834 C   0  0  0  0  0  0  0  0  0  0  0  0
    6.1873  -13.0001   25.4162 C   0  0  0  0  0  0  0  0  0  0  0  0
    7.0071  -14.0980   25.4785 C   0  0  0  0  0  0  0  0  0  0  0  0
    7.9507  -14.2717   26.4715 C   0  0  0  0  0  0  0  0  0  0  0  0
   11.2786  -17.5607   25.6773 C   0  0  0  0  0  0  0  0  0  0  0  0
   11.2099  -18.5995   25.0051 O   0  0  0  0  0  0  0  0  0  0  0  0
   12.1280  -17.5034   26.7760 O   0  0  0  0  0  0  0  0  0  0  0  0
  1  2  1  0
  2  3  1  0
  3  4  1  6
  5  3  1  0
  5  6  1  1
  7  8  2  0
  7  5  1  0
  9 10  1  0
 11 10  1  0
 12 11  1  0
 13 12  1  1
 13 14  1  0
 14  7  1  0
 15 16  2  0
 15 13  1  0
 17 15  1  0
 18 17  1  0
 18 19  1  1
 19 20  1  0
 20 28  1  0
 20 21  2  0
 21 22  1  0
 23 22  1  0
 23 24  2  0
 25 24  1  0
 26 25  2  0
 27 28  2  0
 27 26  1  0
 28 23  1  0
 29 18  1  0
 30 29  2  0
 31 29  1  0
M  END
$$$$
