IMW.pdb
     RDKit          3D

 31 32  0  0  1  0  0  0  0  0999 V2000
    7.6459  -22.6343   24.0211 C   0  0  0  0  0  0  0  0  0  0  0  0
    6.5024  -21.6527   24.1617 C   0  0  0  0  0  0  0  0  0  0  0  0
    7.0747  -20.2645   23.9945 C   0  0  2  0  0  0  0  0  0  0  0  0
    8.2649  -20.0805   24.8746 C   0  0  0  0  0  0  0  0  0  0  0  0
    6.0465  -19.1902   24.0771 C   0  0  2  0  0  0  0  0  0  0  0  0
    4.9851  -19.4882   23.1384 N   0  0  0  0  0  0  0  0  0  0  0  0
    6.5860  -17.8283   23.7711 C   0  0  0  0  0  0  0  0  0  0  0  0
    6.9993  -17.5867   22.6227 O   0  0  0  0  0  0  0  0  0  0  0  0
    5.1367  -10.8722   25.7637 C   0  0  0  0  0  0  0  0  0  0  0  0
    6.2646  -11.9863   26.6077 S   0  0  0  0  0  0  0  0  0  0  0  0
    7.1297  -13.1303   25.5024 C   0  0  0  0  0  0  0  0  0  0  0  0
    6.6133  -14.5095   25.5897 C   0  0  0  0  0  0  0  0  0  0  0  0
    7.1915  -15.5485   24.6843 C   0  0  2  0  0  0  0  0  0  0  0  0
    6.6246  -16.8511   24.7521 N   0  0  0  0  0  0  0  0  0  0  0  0
    8.6500  -15.6232   24.8893 C   0  0  0  0  0  0  0  0  0  0  0  0
    9.1491  -15.0256   25.8753 O   0  0  0  0  0  0  0  0  0  0  0  0
    9.4746  -16.3441   24.0096 N   0  0  0  0  0  0  0  0  0  0  0  0
   10.8807  -16.0101   23.9159 C   0  0  1  0  0  0  0  0  0  0  0  0
   11.5540  -16.3807   25.2214 C   0  0  0  0  0  0  0  0  0  0  0  0
   11.0629  -15.4508   26.2639 C   0  0  0  0  0  0  0  0  0  0  0  0
   10.5902  -14.1714   26.0965 C   0  0  0  0  0  0  0  0  0  0  0  0
   10.2474  -13.6796   27.3037 N   0  0  0  0  0  0  0  0  0  0  0  0
   10.4906  -14.6167   28.2377 C   0  0  0  0  0  0  0  0  0  0  0  0
   10.3048  -14.5913   29.6215 C   0  0  0  0  0  0  0  0  0  0  0  0
   10.6334  -15.6892   30.3669 C   0  0  0  0  0  0  0  0  0  0  0  0
   11.1456  -16.8178   29.7629 C   0  0  0  0  0  0  0  0  0  0  0  0
   11.3197  -16.8203   28.4024 C   0  0  0  0  0  0  0  0  0  0  0  0
   11.0035  -15.7377   27.6058 C   0  0  0  0  0  0  0  0  0  0  0  0
   11.5293  -16.7854   22.8092 C   0  0  0  0  0  0  0  0  0  0  0  0
   10.9059  -17.6406   22.1644 O   0  0  0  0  0  0  0  0  0  0  0  0
   12.8622  -16.5296   22.5093 O   0  0  0  0  0  0  0  0  0  0  0  0
  1  2  1  0
  2  3  1  0
  3  4  1  1
  5  3  1  0
  5  6  1  6
  7  8  2  0
  7  5  1  0
  9 10  1  0
 11 10  1  0
 12 11  1  0
 13 12  1  1
 13 14  1  0
 14  7  1  0
 15 16  2  0
 15 13  1  0
 17 15  1  0
 18 17  1  0
 18 19  1  1
 19 20  1  0
 20 28  1  0
 20 21  2  0
 21 22  1  0
 23 22  1  0
 23 24  2  0
 25 24  1  0
 26 25  2  0
 27 28  2  0
 27 26  1  0
 28 23  1  0
 29 18  1  0
 30 29  2  0
 31 29  1  0
M  END
$$$$
