IMW.pdb
     RDKit          3D

 31 32  0  0  1  0  0  0  0  0999 V2000
    8.0780  -12.1109   21.0998 C   0  0  0  0  0  0  0  0  0  0  0  0
    7.8470  -13.5411   20.6617 C   0  0  0  0  0  0  0  0  0  0  0  0
    9.0551  -13.9702   19.8624 C   0  0  2  0  0  0  0  0  0  0  0  0
    9.2641  -13.0579   18.7010 C   0  0  0  0  0  0  0  0  0  0  0  0
    9.0625  -15.4247   19.5421 C   0  0  2  0  0  0  0  0  0  0  0  0
    8.0055  -15.6974   18.5907 N   0  0  0  0  0  0  0  0  0  0  0  0
    8.8622  -16.2971   20.7412 C   0  0  0  0  0  0  0  0  0  0  0  0
    7.7479  -16.8176   20.9297 O   0  0  0  0  0  0  0  0  0  0  0  0
   12.9173  -20.9339   22.8078 C   0  0  0  0  0  0  0  0  0  0  0  0
   11.7616  -20.9183   21.4330 S   0  0  0  0  0  0  0  0  0  0  0  0
   10.5524  -19.5724   21.5064 C   0  0  0  0  0  0  0  0  0  0  0  0
   10.8259  -18.6176   22.5973 C   0  0  0  0  0  0  0  0  0  0  0  0
    9.9474  -17.4161   22.7332 C   0  0  2  0  0  0  0  0  0  0  0  0
    9.9020  -16.5217   21.6283 N   0  0  0  0  0  0  0  0  0  0  0  0
   10.3052  -16.6814   23.9609 C   0  0  0  0  0  0  0  0  0  0  0  0
   11.2491  -15.8537   23.9118 O   0  0  0  0  0  0  0  0  0  0  0  0
    9.6134  -16.8923   25.1652 N   0  0  0  0  0  0  0  0  0  0  0  0
   10.0758  -16.2447   26.3754 C   0  0  1  0  0  0  0  0  0  0  0  0
    8.9344  -16.2081   27.3708 C   0  0  0  0  0  0  0  0  0  0  0  0
    7.7683  -15.5895   26.6999 C   0  0  0  0  0  0  0  0  0  0  0  0
    6.6818  -16.2225   26.1457 C   0  0  0  0  0  0  0  0  0  0  0  0
    5.8529  -15.2877   25.6399 N   0  0  0  0  0  0  0  0  0  0  0  0
    6.3862  -14.0723   25.8591 C   0  0  0  0  0  0  0  0  0  0  0  0
    5.9155  -12.7996   25.5292 C   0  0  0  0  0  0  0  0  0  0  0  0
    6.6528  -11.6989   25.8667 C   0  0  0  0  0  0  0  0  0  0  0  0
    7.8542  -11.8369   26.5287 C   0  0  0  0  0  0  0  0  0  0  0  0
    8.2969  -13.0965   26.8427 C   0  0  0  0  0  0  0  0  0  0  0  0
    7.5900  -14.2390   26.5240 C   0  0  0  0  0  0  0  0  0  0  0  0
   11.2099  -17.0159   26.9800 C   0  0  0  0  0  0  0  0  0  0  0  0
   11.5272  -18.1383   26.5613 O   0  0  0  0  0  0  0  0  0  0  0  0
   11.9141  -16.4474   28.0349 O   0  0  0  0  0  0  0  0  0  0  0  0
  1  2  1  0
  2  3  1  0
  3  4  1  6
  5  3  1  0
  5  6  1  6
  7  8  2  0
  7  5  1  0
  9 10  1  0
 11 10  1  0
 12 11  1  0
 13 12  1  6
 13 14  1  0
 14  7  1  0
 15 16  2  0
 15 13  1  0
 17 15  1  0
 18 17  1  0
 18 19  1  1
 19 20  1  0
 20 28  1  0
 20 21  2  0
 21 22  1  0
 23 22  1  0
 23 24  2  0
 25 24  1  0
 26 25  2  0
 27 28  2  0
 27 26  1  0
 28 23  1  0
 29 18  1  0
 30 29  2  0
 31 29  1  0
M  END
$$$$
