IMW.pdb
     RDKit          3D

 31 32  0  0  1  0  0  0  0  0999 V2000
    8.1853  -21.2666   16.8804 C   0  0  0  0  0  0  0  0  0  0  0  0
    8.3386  -21.1257   18.3795 C   0  0  0  0  0  0  0  0  0  0  0  0
    9.0687  -19.8289   18.6399 C   0  0  2  0  0  0  0  0  0  0  0  0
   10.3229  -19.7648   17.8350 C   0  0  0  0  0  0  0  0  0  0  0  0
    9.2227  -19.5208   20.0889 C   0  0  2  0  0  0  0  0  0  0  0  0
    7.9234  -19.6015   20.7228 N   0  0  0  0  0  0  0  0  0  0  0  0
    9.7973  -18.1637   20.3487 C   0  0  0  0  0  0  0  0  0  0  0  0
   10.9181  -17.8841   19.8866 O   0  0  0  0  0  0  0  0  0  0  0  0
    6.6428  -12.5405   19.6354 C   0  0  0  0  0  0  0  0  0  0  0  0
    7.5089  -12.2590   21.1834 S   0  0  0  0  0  0  0  0  0  0  0  0
    8.8511  -13.4332   21.4971 C   0  0  0  0  0  0  0  0  0  0  0  0
    8.4607  -14.8311   21.2328 C   0  0  0  0  0  0  0  0  0  0  0  0
    9.4725  -15.9096   21.4494 C   0  0  2  0  0  0  0  0  0  0  0  0
    9.0915  -17.2327   21.0929 N   0  0  0  0  0  0  0  0  0  0  0  0
    9.9325  -15.8786   22.8502 C   0  0  0  0  0  0  0  0  0  0  0  0
   10.7579  -14.9951   23.1917 O   0  0  0  0  0  0  0  0  0  0  0  0
    9.4654  -16.8100   23.7924 N   0  0  0  0  0  0  0  0  0  0  0  0
   10.0407  -16.8289   25.1214 C   0  0  1  0  0  0  0  0  0  0  0  0
    9.8562  -15.4620   25.7479 C   0  0  0  0  0  0  0  0  0  0  0  0
    8.4021  -15.1950   25.8316 C   0  0  0  0  0  0  0  0  0  0  0  0
    7.3700  -16.0720   25.5995 C   0  0  0  0  0  0  0  0  0  0  0  0
    6.2044  -15.4213   25.7860 N   0  0  0  0  0  0  0  0  0  0  0  0
    6.4697  -14.1487   26.1320 C   0  0  0  0  0  0  0  0  0  0  0  0
    5.6103  -13.0888   26.4287 C   0  0  0  0  0  0  0  0  0  0  0  0
    6.1320  -11.8690   26.7589 C   0  0  0  0  0  0  0  0  0  0  0  0
    7.4970  -11.6793   26.8007 C   0  0  0  0  0  0  0  0  0  0  0  0
    8.3220  -12.7345   26.5056 C   0  0  0  0  0  0  0  0  0  0  0  0
    7.8449  -13.9851   26.1666 C   0  0  0  0  0  0  0  0  0  0  0  0
    9.3442  -17.8428   25.9778 C   0  0  0  0  0  0  0  0  0  0  0  0
    8.2903  -18.3844   25.6149 O   0  0  0  0  0  0  0  0  0  0  0  0
    9.9040  -18.1742   27.2061 O   0  0  0  0  0  0  0  0  0  0  0  0
  1  2  1  0
  2  3  1  0
  3  4  1  1
  5  3  1  0
  5  6  1  1
  7  8  2  0
  7  5  1  0
  9 10  1  0
 11 10  1  0
 12 11  1  0
 13 12  1  1
 13 14  1  0
 14  7  1  0
 15 16  2  0
 15 13  1  0
 17 15  1  0
 18 17  1  0
 18 19  1  1
 19 20  1  0
 20 28  1  0
 20 21  2  0
 21 22  1  0
 23 22  1  0
 23 24  2  0
 25 24  1  0
 26 25  2  0
 27 28  2  0
 27 26  1  0
 28 23  1  0
 29 18  1  0
 30 29  2  0
 31 29  1  0
M  END
$$$$
