IMW.pdb
     RDKit          3D

 31 32  0  0  1  0  0  0  0  0999 V2000
    7.2156  -13.3605   16.3177 C   0  0  0  0  0  0  0  0  0  0  0  0
    7.9797  -14.4380   17.0565 C   0  0  0  0  0  0  0  0  0  0  0  0
    8.0677  -14.0180   18.5051 C   0  0  2  0  0  0  0  0  0  0  0  0
    8.6923  -12.6684   18.6207 C   0  0  0  0  0  0  0  0  0  0  0  0
    8.6468  -15.0681   19.3883 C   0  0  2  0  0  0  0  0  0  0  0  0
    7.7653  -16.2169   19.3857 N   0  0  0  0  0  0  0  0  0  0  0  0
    8.8369  -14.6154   20.8019 C   0  0  0  0  0  0  0  0  0  0  0  0
    9.6953  -13.7491   21.0480 O   0  0  0  0  0  0  0  0  0  0  0  0
    6.9313  -12.2092   27.3482 C   0  0  0  0  0  0  0  0  0  0  0  0
    7.0051  -12.7049   25.6234 S   0  0  0  0  0  0  0  0  0  0  0  0
    6.7686  -14.4807   25.3597 C   0  0  0  0  0  0  0  0  0  0  0  0
    6.7888  -14.8540   23.9326 C   0  0  0  0  0  0  0  0  0  0  0  0
    8.0968  -14.8459   23.2095 C   0  0  2  0  0  0  0  0  0  0  0  0
    8.0684  -15.1530   21.8211 N   0  0  0  0  0  0  0  0  0  0  0  0
    9.0474  -15.7354   23.9023 C   0  0  0  0  0  0  0  0  0  0  0  0
    8.7569  -16.9523   24.0167 O   0  0  0  0  0  0  0  0  0  0  0  0
   10.2553  -15.2459   24.4267 N   0  0  0  0  0  0  0  0  0  0  0  0
   11.1968  -16.1679   25.0275 C   0  0  1  0  0  0  0  0  0  0  0  0
   10.4318  -17.3618   25.5606 C   0  0  0  0  0  0  0  0  0  0  0  0
    9.6633  -16.9149   26.7449 C   0  0  0  0  0  0  0  0  0  0  0  0
    8.4561  -17.3927   27.1950 C   0  0  0  0  0  0  0  0  0  0  0  0
    8.1110  -16.7090   28.3041 N   0  0  0  0  0  0  0  0  0  0  0  0
    9.0712  -15.8056   28.5718 C   0  0  0  0  0  0  0  0  0  0  0  0
    9.1771  -14.8693   29.6025 C   0  0  0  0  0  0  0  0  0  0  0  0
   10.2695  -14.0493   29.6597 C   0  0  0  0  0  0  0  0  0  0  0  0
   11.2641  -14.1405   28.7093 C   0  0  0  0  0  0  0  0  0  0  0  0
   11.1390  -15.0675   27.7061 C   0  0  0  0  0  0  0  0  0  0  0  0
   10.0561  -15.9181   27.6042 C   0  0  0  0  0  0  0  0  0  0  0  0
   12.1800  -16.6511   24.0045 C   0  0  0  0  0  0  0  0  0  0  0  0
   13.1055  -17.4181   24.3057 O   0  0  0  0  0  0  0  0  0  0  0  0
   12.0391  -16.2209   22.6903 O   0  0  0  0  0  0  0  0  0  0  0  0
  1  2  1  0
  2  3  1  0
  3  4  1  6
  5  3  1  0
  5  6  1  1
  7  8  2  0
  7  5  1  0
  9 10  1  0
 11 10  1  0
 12 11  1  0
 13 12  1  1
 13 14  1  0
 14  7  1  0
 15 16  2  0
 15 13  1  0
 17 15  1  0
 18 17  1  0
 18 19  1  6
 19 20  1  0
 20 28  1  0
 20 21  2  0
 21 22  1  0
 23 22  1  0
 23 24  2  0
 25 24  1  0
 26 25  2  0
 27 28  2  0
 27 26  1  0
 28 23  1  0
 29 18  1  0
 30 29  2  0
 31 29  1  0
M  END
$$$$
