IMW.pdb
     RDKit          3D

 31 32  0  0  1  0  0  0  0  0999 V2000
    6.3873  -12.6135   19.2664 C   0  0  0  0  0  0  0  0  0  0  0  0
    7.3285  -13.7966   19.3368 C   0  0  0  0  0  0  0  0  0  0  0  0
    8.6922  -13.2680   19.7157 C   0  0  2  0  0  0  0  0  0  0  0  0
    9.1654  -12.2741   18.7090 C   0  0  0  0  0  0  0  0  0  0  0  0
    9.6651  -14.3420   20.0597 C   0  0  2  0  0  0  0  0  0  0  0  0
    9.7995  -15.2298   18.9237 N   0  0  0  0  0  0  0  0  0  0  0  0
    9.2591  -15.1502   21.2518 C   0  0  0  0  0  0  0  0  0  0  0  0
    8.9028  -14.5607   22.2879 O   0  0  0  0  0  0  0  0  0  0  0  0
    9.9858  -21.3689   19.0026 C   0  0  0  0  0  0  0  0  0  0  0  0
    8.9040  -21.1947   20.4257 S   0  0  0  0  0  0  0  0  0  0  0  0
    8.4320  -19.4834   20.7833 C   0  0  0  0  0  0  0  0  0  0  0  0
    9.1744  -18.9123   21.9230 C   0  0  0  0  0  0  0  0  0  0  0  0
    8.9934  -17.4631   22.2407 C   0  0  2  0  0  0  0  0  0  0  0  0
    9.2797  -16.5343   21.2023 N   0  0  0  0  0  0  0  0  0  0  0  0
    9.7694  -17.1234   23.4478 C   0  0  0  0  0  0  0  0  0  0  0  0
   10.9240  -16.6489   23.3056 O   0  0  0  0  0  0  0  0  0  0  0  0
    9.2408  -17.3200   24.7345 N   0  0  0  0  0  0  0  0  0  0  0  0
   10.0104  -16.9110   25.8912 C   0  0  1  0  0  0  0  0  0  0  0  0
    9.8214  -15.4219   26.0961 C   0  0  0  0  0  0  0  0  0  0  0  0
    8.3689  -15.1386   26.0438 C   0  0  0  0  0  0  0  0  0  0  0  0
    7.3536  -16.0027   25.7108 C   0  0  0  0  0  0  0  0  0  0  0  0
    6.1829  -15.3395   25.7901 N   0  0  0  0  0  0  0  0  0  0  0  0
    6.4284  -14.0715   26.1664 C   0  0  0  0  0  0  0  0  0  0  0  0
    5.5566  -13.0030   26.3865 C   0  0  0  0  0  0  0  0  0  0  0  0
    6.0583  -11.7908   26.7710 C   0  0  0  0  0  0  0  0  0  0  0  0
    7.4152  -11.6169   26.9423 C   0  0  0  0  0  0  0  0  0  0  0  0
    8.2527  -12.6803   26.7205 C   0  0  0  0  0  0  0  0  0  0  0  0
    7.7959  -13.9238   26.3313 C   0  0  0  0  0  0  0  0  0  0  0  0
    9.5290  -17.6249   27.1180 C   0  0  0  0  0  0  0  0  0  0  0  0
    8.5238  -18.3493   27.0946 O   0  0  0  0  0  0  0  0  0  0  0  0
   10.2358  -17.4619   28.3037 O   0  0  0  0  0  0  0  0  0  0  0  0
  1  2  1  0
  2  3  1  0
  3  4  1  6
  5  3  1  0
  5  6  1  6
  7  8  2  0
  7  5  1  0
  9 10  1  0
 11 10  1  0
 12 11  1  0
 13 12  1  6
 13 14  1  0
 14  7  1  0
 15 16  2  0
 15 13  1  0
 17 15  1  0
 18 17  1  0
 18 19  1  1
 19 20  1  0
 20 28  1  0
 20 21  2  0
 21 22  1  0
 23 22  1  0
 23 24  2  0
 25 24  1  0
 26 25  2  0
 27 28  2  0
 27 26  1  0
 28 23  1  0
 29 18  1  0
 30 29  2  0
 31 29  1  0
M  END
$$$$
