IMW.pdb
     RDKit          3D

 31 32  0  0  1  0  0  0  0  0999 V2000
    8.2649  -22.1432   20.5576 C   0  0  0  0  0  0  0  0  0  0  0  0
    7.3763  -20.9248   20.4279 C   0  0  0  0  0  0  0  0  0  0  0  0
    8.1545  -19.7397   20.9498 C   0  0  2  0  0  0  0  0  0  0  0  0
    8.6800  -20.0208   22.3173 C   0  0  0  0  0  0  0  0  0  0  0  0
    7.4312  -18.4468   20.7964 C   0  0  2  0  0  0  0  0  0  0  0  0
    7.0644  -18.2806   19.4055 N   0  0  0  0  0  0  0  0  0  0  0  0
    8.2389  -17.2613   21.2221 C   0  0  0  0  0  0  0  0  0  0  0  0
    9.2803  -16.9853   20.5997 O   0  0  0  0  0  0  0  0  0  0  0  0
    6.6489  -13.6639   26.9857 C   0  0  0  0  0  0  0  0  0  0  0  0
    7.2493  -12.5668   25.6966 S   0  0  0  0  0  0  0  0  0  0  0  0
    8.3204  -13.3784   24.4828 C   0  0  0  0  0  0  0  0  0  0  0  0
    7.7071  -14.5851   23.8962 C   0  0  0  0  0  0  0  0  0  0  0  0
    8.4530  -15.3204   22.8300 C   0  0  2  0  0  0  0  0  0  0  0  0
    7.8331  -16.4826   22.2934 N   0  0  0  0  0  0  0  0  0  0  0  0
    9.8063  -15.6502   23.3145 C   0  0  0  0  0  0  0  0  0  0  0  0
   10.7407  -14.8435   23.0812 O   0  0  0  0  0  0  0  0  0  0  0  0
   10.0586  -16.8365   24.0234 N   0  0  0  0  0  0  0  0  0  0  0  0
   11.4185  -17.1700   24.3935 C   0  0  1  0  0  0  0  0  0  0  0  0
   11.9245  -16.1262   25.3679 C   0  0  0  0  0  0  0  0  0  0  0  0
   11.2764  -16.3759   26.6757 C   0  0  0  0  0  0  0  0  0  0  0  0
   11.2056  -17.5608   27.3680 C   0  0  0  0  0  0  0  0  0  0  0  0
   10.5268  -17.3485   28.5129 N   0  0  0  0  0  0  0  0  0  0  0  0
   10.1630  -16.0544   28.5667 C   0  0  0  0  0  0  0  0  0  0  0  0
    9.4513  -15.3495   29.5396 C   0  0  0  0  0  0  0  0  0  0  0  0
    9.2042  -14.0167   29.3618 C   0  0  0  0  0  0  0  0  0  0  0  0
    9.6519  -13.3662   28.2316 C   0  0  0  0  0  0  0  0  0  0  0  0
   10.3489  -14.0786   27.2893 C   0  0  0  0  0  0  0  0  0  0  0  0
   10.6240  -15.4252   27.4220 C   0  0  0  0  0  0  0  0  0  0  0  0
   11.4638  -18.5093   25.0650 C   0  0  0  0  0  0  0  0  0  0  0  0
   12.5342  -19.0170   25.4282 O   0  0  0  0  0  0  0  0  0  0  0  0
   10.2695  -19.1874   25.2790 O   0  0  0  0  0  0  0  0  0  0  0  0
  1  2  1  0
  2  3  1  0
  3  4  1  1
  5  3  1  0
  5  6  1  6
  7  8  2  0
  7  5  1  0
  9 10  1  0
 11 10  1  0
 12 11  1  0
 13 12  1  1
 13 14  1  0
 14  7  1  0
 15 16  2  0
 15 13  1  0
 17 15  1  0
 18 17  1  0
 18 19  1  1
 19 20  1  0
 20 28  1  0
 20 21  2  0
 21 22  1  0
 23 22  1  0
 23 24  2  0
 25 24  1  0
 26 25  2  0
 27 28  2  0
 27 26  1  0
 28 23  1  0
 29 18  1  0
 30 29  2  0
 31 29  1  0
M  END
$$$$
