IMW.pdb
     RDKit          3D

 31 32  0  0  1  0  0  0  0  0999 V2000
    9.7741  -21.3978   18.3661 C   0  0  0  0  0  0  0  0  0  0  0  0
    8.6862  -20.3524   18.2462 C   0  0  0  0  0  0  0  0  0  0  0  0
    9.2258  -19.0686   18.8321 C   0  0  2  0  0  0  0  0  0  0  0  0
   10.4254  -18.6114   18.0726 C   0  0  0  0  0  0  0  0  0  0  0  0
    9.3872  -19.1190   20.3118 C   0  0  2  0  0  0  0  0  0  0  0  0
    8.1150  -19.4708   20.9073 N   0  0  0  0  0  0  0  0  0  0  0  0
    9.8488  -17.8238   20.9024 C   0  0  0  0  0  0  0  0  0  0  0  0
   10.9503  -17.3607   20.5555 O   0  0  0  0  0  0  0  0  0  0  0  0
    7.1249  -11.7878   25.5050 C   0  0  0  0  0  0  0  0  0  0  0  0
    6.8540  -13.2845   24.5499 S   0  0  0  0  0  0  0  0  0  0  0  0
    8.3402  -13.9058   23.7226 C   0  0  0  0  0  0  0  0  0  0  0  0
    8.1441  -15.2383   23.1206 C   0  0  0  0  0  0  0  0  0  0  0  0
    9.3052  -15.8978   22.4492 C   0  0  2  0  0  0  0  0  0  0  0  0
    9.0613  -17.1506   21.8218 N   0  0  0  0  0  0  0  0  0  0  0  0
   10.4206  -16.0228   23.4059 C   0  0  0  0  0  0  0  0  0  0  0  0
   11.2451  -15.0789   23.4936 O   0  0  0  0  0  0  0  0  0  0  0  0
   10.5692  -17.1664   24.2081 N   0  0  0  0  0  0  0  0  0  0  0  0
   11.8133  -17.3825   24.9175 C   0  0  1  0  0  0  0  0  0  0  0  0
   11.9373  -16.3364   26.0062 C   0  0  0  0  0  0  0  0  0  0  0  0
   10.6065  -16.1788   26.6362 C   0  0  0  0  0  0  0  0  0  0  0  0
    9.5502  -17.0572   26.6045 C   0  0  0  0  0  0  0  0  0  0  0  0
    8.5292  -16.5255   27.3056 N   0  0  0  0  0  0  0  0  0  0  0  0
    8.9105  -15.3274   27.7841 C   0  0  0  0  0  0  0  0  0  0  0  0
    8.2187  -14.3968   28.5622 C   0  0  0  0  0  0  0  0  0  0  0  0
    8.8342  -13.2320   28.9276 C   0  0  0  0  0  0  0  0  0  0  0  0
   10.1295  -12.9711   28.5340 C   0  0  0  0  0  0  0  0  0  0  0  0
   10.7896  -13.8995   27.7701 C   0  0  0  0  0  0  0  0  0  0  0  0
   10.2126  -15.0901   27.3752 C   0  0  0  0  0  0  0  0  0  0  0  0
   11.8213  -18.7381   25.5570 C   0  0  0  0  0  0  0  0  0  0  0  0
   10.8037  -19.4443   25.5933 O   0  0  0  0  0  0  0  0  0  0  0  0
   13.0049  -19.2020   26.1192 O   0  0  0  0  0  0  0  0  0  0  0  0
  1  2  1  0
  2  3  1  0
  3  4  1  6
  5  3  1  0
  5  6  1  1
  7  8  2  0
  7  5  1  0
  9 10  1  0
 11 10  1  0
 12 11  1  0
 13 12  1  1
 13 14  1  0
 14  7  1  0
 15 16  2  0
 15 13  1  0
 17 15  1  0
 18 17  1  0
 18 19  1  1
 19 20  1  0
 20 28  1  0
 20 21  2  0
 21 22  1  0
 23 22  1  0
 23 24  2  0
 25 24  1  0
 26 25  2  0
 27 28  2  0
 27 26  1  0
 28 23  1  0
 29 18  1  0
 30 29  2  0
 31 29  1  0
M  END
$$$$
