IMW.pdb
     RDKit          3D

 31 32  0  0  1  0  0  0  0  0999 V2000
    7.3854  -11.8302   19.8666 C   0  0  0  0  0  0  0  0  0  0  0  0
    7.7985  -13.2020   19.3785 C   0  0  0  0  0  0  0  0  0  0  0  0
    8.0762  -14.0511   20.5968 C   0  0  2  0  0  0  0  0  0  0  0  0
    8.9534  -13.3185   21.5554 C   0  0  0  0  0  0  0  0  0  0  0  0
    8.5113  -15.4358   20.2626 C   0  0  2  0  0  0  0  0  0  0  0  0
    7.5333  -16.0297   19.3751 N   0  0  0  0  0  0  0  0  0  0  0  0
    8.6629  -16.3158   21.4633 C   0  0  0  0  0  0  0  0  0  0  0  0
    7.6539  -16.8668   21.9392 O   0  0  0  0  0  0  0  0  0  0  0  0
   13.9911  -21.0053   25.0917 C   0  0  0  0  0  0  0  0  0  0  0  0
   13.5230  -19.8359   23.8114 S   0  0  0  0  0  0  0  0  0  0  0  0
   11.8975  -19.0800   24.0671 C   0  0  0  0  0  0  0  0  0  0  0  0
   11.5202  -18.1553   22.9813 C   0  0  0  0  0  0  0  0  0  0  0  0
   10.2600  -17.3641   23.1211 C   0  0  2  0  0  0  0  0  0  0  0  0
    9.9082  -16.5141   22.0364 N   0  0  0  0  0  0  0  0  0  0  0  0
   10.3025  -16.5886   24.3748 C   0  0  0  0  0  0  0  0  0  0  0  0
   10.8660  -15.4658   24.3675 O   0  0  0  0  0  0  0  0  0  0  0  0
    9.7286  -17.0825   25.5581 N   0  0  0  0  0  0  0  0  0  0  0  0
    9.9963  -16.4122   26.8137 C   0  0  1  0  0  0  0  0  0  0  0  0
    8.7151  -16.3672   27.6209 C   0  0  0  0  0  0  0  0  0  0  0  0
    7.7199  -15.5899   26.8475 C   0  0  0  0  0  0  0  0  0  0  0  0
    6.7140  -16.0718   26.0449 C   0  0  0  0  0  0  0  0  0  0  0  0
    6.0389  -15.0256   25.5289 N   0  0  0  0  0  0  0  0  0  0  0  0
    6.5914  -13.8868   25.9845 C   0  0  0  0  0  0  0  0  0  0  0  0
    6.2561  -12.5529   25.7427 C   0  0  0  0  0  0  0  0  0  0  0  0
    6.9822  -11.5567   26.3337 C   0  0  0  0  0  0  0  0  0  0  0  0
    8.0401  -11.8595   27.1644 C   0  0  0  0  0  0  0  0  0  0  0  0
    8.3513  -13.1766   27.3876 C   0  0  0  0  0  0  0  0  0  0  0  0
    7.6494  -14.2186   26.8149 C   0  0  0  0  0  0  0  0  0  0  0  0
   11.0271  -17.1657   27.5988 C   0  0  0  0  0  0  0  0  0  0  0  0
   11.4383  -18.2756   27.2320 O   0  0  0  0  0  0  0  0  0  0  0  0
   11.5251  -16.5947   28.7641 O   0  0  0  0  0  0  0  0  0  0  0  0
  1  2  1  0
  2  3  1  0
  3  4  1  6
  5  3  1  0
  5  6  1  6
  7  8  2  0
  7  5  1  0
  9 10  1  0
 11 10  1  0
 12 11  1  0
 13 12  1  6
 13 14  1  0
 14  7  1  0
 15 16  2  0
 15 13  1  0
 17 15  1  0
 18 17  1  0
 18 19  1  1
 19 20  1  0
 20 28  1  0
 20 21  2  0
 21 22  1  0
 23 22  1  0
 23 24  2  0
 25 24  1  0
 26 25  2  0
 27 28  2  0
 27 26  1  0
 28 23  1  0
 29 18  1  0
 30 29  2  0
 31 29  1  0
M  END
$$$$
