IMW.pdb
     RDKit          3D

 31 32  0  0  1  0  0  0  0  0999 V2000
    8.6906  -18.6905   16.9872 C   0  0  0  0  0  0  0  0  0  0  0  0
    8.7552  -18.4150   18.4740 C   0  0  0  0  0  0  0  0  0  0  0  0
   10.1205  -18.8472   18.9554 C   0  0  2  0  0  0  0  0  0  0  0  0
   10.4153  -20.2396   18.5089 C   0  0  0  0  0  0  0  0  0  0  0  0
   10.3464  -18.5789   20.4028 C   0  0  2  0  0  0  0  0  0  0  0  0
    9.3159  -19.2500   21.1673 N   0  0  0  0  0  0  0  0  0  0  0  0
   10.3237  -17.1226   20.7466 C   0  0  0  0  0  0  0  0  0  0  0  0
   11.1704  -16.3683   20.2346 O   0  0  0  0  0  0  0  0  0  0  0  0
    8.1010  -11.7040   19.5597 C   0  0  0  0  0  0  0  0  0  0  0  0
    6.8194  -12.8587   20.0597 S   0  0  0  0  0  0  0  0  0  0  0  0
    7.4384  -14.5118   20.4636 C   0  0  0  0  0  0  0  0  0  0  0  0
    7.9204  -14.6175   21.8539 C   0  0  0  0  0  0  0  0  0  0  0  0
    9.2290  -15.2933   22.1079 C   0  0  2  0  0  0  0  0  0  0  0  0
    9.3740  -16.6220   21.6219 N   0  0  0  0  0  0  0  0  0  0  0  0
    9.5339  -15.2489   23.5501 C   0  0  0  0  0  0  0  0  0  0  0  0
    9.6702  -14.1280   24.1008 O   0  0  0  0  0  0  0  0  0  0  0  0
    9.6707  -16.4267   24.3035 N   0  0  0  0  0  0  0  0  0  0  0  0
   10.0618  -16.3408   25.6954 C   0  0  1  0  0  0  0  0  0  0  0  0
    8.8920  -16.7751   26.5543 C   0  0  0  0  0  0  0  0  0  0  0  0
    7.7579  -15.8672   26.2671 C   0  0  0  0  0  0  0  0  0  0  0  0
    6.5414  -16.1879   25.7144 C   0  0  0  0  0  0  0  0  0  0  0  0
    5.8008  -15.0651   25.6270 N   0  0  0  0  0  0  0  0  0  0  0  0
    6.5177  -14.0351   26.1117 C   0  0  0  0  0  0  0  0  0  0  0  0
    6.1954  -12.6822   26.2375 C   0  0  0  0  0  0  0  0  0  0  0  0
    7.1098  -11.8174   26.7715 C   0  0  0  0  0  0  0  0  0  0  0  0
    8.3442  -12.2711   27.1851 C   0  0  0  0  0  0  0  0  0  0  0  0
    8.6391  -13.6040   27.0519 C   0  0  0  0  0  0  0  0  0  0  0  0
    7.7507  -14.5171   26.5194 C   0  0  0  0  0  0  0  0  0  0  0  0
   11.2186  -17.2536   25.9703 C   0  0  0  0  0  0  0  0  0  0  0  0
   11.7315  -17.3298   27.0957 O   0  0  0  0  0  0  0  0  0  0  0  0
   11.7183  -18.0272   24.9292 O   0  0  0  0  0  0  0  0  0  0  0  0
  1  2  1  0
  2  3  1  0
  3  4  1  1
  5  3  1  0
  5  6  1  1
  7  8  2  0
  7  5  1  0
  9 10  1  0
 11 10  1  0
 12 11  1  0
 13 12  1  1
 13 14  1  0
 14  7  1  0
 15 16  2  0
 15 13  1  0
 17 15  1  0
 18 17  1  0
 18 19  1  1
 19 20  1  0
 20 28  1  0
 20 21  2  0
 21 22  1  0
 23 22  1  0
 23 24  2  0
 25 24  1  0
 26 25  2  0
 27 28  2  0
 27 26  1  0
 28 23  1  0
 29 18  1  0
 30 29  2  0
 31 29  1  0
M  END
$$$$
