IMW.pdb
     RDKit          3D

 31 32  0  0  1  0  0  0  0  0999 V2000
    8.5345  -12.1851   20.4392 C   0  0  0  0  0  0  0  0  0  0  0  0
    7.6885  -13.4297   20.2775 C   0  0  0  0  0  0  0  0  0  0  0  0
    8.4260  -14.3598   19.3429 C   0  0  2  0  0  0  0  0  0  0  0  0
    8.7251  -13.6743   18.0522 C   0  0  0  0  0  0  0  0  0  0  0  0
    7.7879  -15.7001   19.2218 C   0  0  2  0  0  0  0  0  0  0  0  0
    6.5219  -15.5528   18.5347 N   0  0  0  0  0  0  0  0  0  0  0  0
    7.5408  -16.3606   20.5416 C   0  0  0  0  0  0  0  0  0  0  0  0
    6.4407  -16.2001   21.1003 O   0  0  0  0  0  0  0  0  0  0  0  0
    5.8136  -19.6804   23.9040 C   0  0  0  0  0  0  0  0  0  0  0  0
    7.2397  -20.7445   24.1487 S   0  0  0  0  0  0  0  0  0  0  0  0
    8.8136  -19.9805   23.6819 C   0  0  0  0  0  0  0  0  0  0  0  0
    8.7444  -19.2740   22.3887 C   0  0  0  0  0  0  0  0  0  0  0  0
    8.4911  -17.8011   22.3909 C   0  0  2  0  0  0  0  0  0  0  0  0
    8.5223  -17.1392   21.1324 N   0  0  0  0  0  0  0  0  0  0  0  0
    9.4202  -17.1435   23.3284 C   0  0  0  0  0  0  0  0  0  0  0  0
   10.5321  -16.7504   22.8953 O   0  0  0  0  0  0  0  0  0  0  0  0
    9.0817  -16.9536   24.6786 N   0  0  0  0  0  0  0  0  0  0  0  0
   10.0456  -16.3529   25.5773 C   0  0  1  0  0  0  0  0  0  0  0  0
    9.8173  -14.8555   25.6009 C   0  0  0  0  0  0  0  0  0  0  0  0
    8.3715  -14.6214   25.8188 C   0  0  0  0  0  0  0  0  0  0  0  0
    7.3616  -15.5530   25.8427 C   0  0  0  0  0  0  0  0  0  0  0  0
    6.1959  -14.9159   26.0710 N   0  0  0  0  0  0  0  0  0  0  0  0
    6.4396  -13.5985   26.1935 C   0  0  0  0  0  0  0  0  0  0  0  0
    5.5712  -12.5315   26.4336 C   0  0  0  0  0  0  0  0  0  0  0  0
    6.0699  -11.2613   26.5174 C   0  0  0  0  0  0  0  0  0  0  0  0
    7.4203  -11.0278   26.3668 C   0  0  0  0  0  0  0  0  0  0  0  0
    8.2544  -12.0910   26.1317 C   0  0  0  0  0  0  0  0  0  0  0  0
    7.8005  -13.3916   26.0384 C   0  0  0  0  0  0  0  0  0  0  0  0
    9.8652  -16.8837   26.9674 C   0  0  0  0  0  0  0  0  0  0  0  0
   10.4985  -16.4197   27.9262 O   0  0  0  0  0  0  0  0  0  0  0  0
    8.9631  -17.9212   27.1721 O   0  0  0  0  0  0  0  0  0  0  0  0
  1  2  1  0
  2  3  1  0
  3  4  1  6
  5  3  1  0
  5  6  1  1
  7  8  2  0
  7  5  1  0
  9 10  1  0
 11 10  1  0
 12 11  1  0
 13 12  1  6
 13 14  1  0
 14  7  1  0
 15 16  2  0
 15 13  1  0
 17 15  1  0
 18 17  1  0
 18 19  1  1
 19 20  1  0
 20 28  1  0
 20 21  2  0
 21 22  1  0
 23 22  1  0
 23 24  2  0
 25 24  1  0
 26 25  2  0
 27 28  2  0
 27 26  1  0
 28 23  1  0
 29 18  1  0
 30 29  2  0
 31 29  1  0
M  END
$$$$
