IMW.pdb
     RDKit          3D

 31 32  0  0  1  0  0  0  0  0999 V2000
    9.6876  -23.1369   21.2677 C   0  0  0  0  0  0  0  0  0  0  0  0
    8.8984  -21.9740   20.7060 C   0  0  0  0  0  0  0  0  0  0  0  0
    9.5859  -20.7041   21.1502 C   0  0  2  0  0  0  0  0  0  0  0  0
    9.8169  -20.7230   22.6237 C   0  0  0  0  0  0  0  0  0  0  0  0
    8.9424  -19.4700   20.6200 C   0  0  2  0  0  0  0  0  0  0  0  0
    8.7948  -19.6012   19.1855 N   0  0  0  0  0  0  0  0  0  0  0  0
    9.7207  -18.2248   20.9078 C   0  0  0  0  0  0  0  0  0  0  0  0
   10.8610  -18.1006   20.4257 O   0  0  0  0  0  0  0  0  0  0  0  0
    7.7294  -11.9504   20.6658 C   0  0  0  0  0  0  0  0  0  0  0  0
    6.7018  -13.4219   20.7341 S   0  0  0  0  0  0  0  0  0  0  0  0
    7.4766  -14.8188   21.5868 C   0  0  0  0  0  0  0  0  0  0  0  0
    8.9503  -14.7521   21.5702 C   0  0  0  0  0  0  0  0  0  0  0  0
    9.7256  -15.9502   22.0142 C   0  0  2  0  0  0  0  0  0  0  0  0
    9.1796  -17.2251   21.6993 N   0  0  0  0  0  0  0  0  0  0  0  0
    9.9864  -15.8583   23.4628 C   0  0  0  0  0  0  0  0  0  0  0  0
   10.6420  -14.8772   23.8939 O   0  0  0  0  0  0  0  0  0  0  0  0
    9.5168  -16.8391   24.3524 N   0  0  0  0  0  0  0  0  0  0  0  0
    9.8746  -16.7602   25.7536 C   0  0  1  0  0  0  0  0  0  0  0  0
    8.6200  -16.9373   26.5839 C   0  0  0  0  0  0  0  0  0  0  0  0
    7.6243  -15.9458   26.1169 C   0  0  0  0  0  0  0  0  0  0  0  0
    6.4402  -16.1854   25.4621 C   0  0  0  0  0  0  0  0  0  0  0  0
    5.8374  -15.0044   25.2201 N   0  0  0  0  0  0  0  0  0  0  0  0
    6.6105  -14.0164   25.7060 C   0  0  0  0  0  0  0  0  0  0  0  0
    6.4255  -12.6323   25.7040 C   0  0  0  0  0  0  0  0  0  0  0  0
    7.3713  -11.8242   26.2710 C   0  0  0  0  0  0  0  0  0  0  0  0
    8.5031  -12.3654   26.8429 C   0  0  0  0  0  0  0  0  0  0  0  0
    8.6638  -13.7275   26.8333 C   0  0  0  0  0  0  0  0  0  0  0  0
    7.7384  -14.5860   26.2738 C   0  0  0  0  0  0  0  0  0  0  0  0
   10.8384  -17.8517   26.1089 C   0  0  0  0  0  0  0  0  0  0  0  0
   11.2201  -18.6789   25.2689 O   0  0  0  0  0  0  0  0  0  0  0  0
   11.3072  -17.9268   27.4153 O   0  0  0  0  0  0  0  0  0  0  0  0
  1  2  1  0
  2  3  1  0
  3  4  1  1
  5  3  1  0
  5  6  1  6
  7  8  2  0
  7  5  1  0
  9 10  1  0
 11 10  1  0
 12 11  1  0
 13 12  1  1
 13 14  1  0
 14  7  1  0
 15 16  2  0
 15 13  1  0
 17 15  1  0
 18 17  1  0
 18 19  1  1
 19 20  1  0
 20 28  1  0
 20 21  2  0
 21 22  1  0
 23 22  1  0
 23 24  2  0
 25 24  1  0
 26 25  2  0
 27 28  2  0
 27 26  1  0
 28 23  1  0
 29 18  1  0
 30 29  2  0
 31 29  1  0
M  END
$$$$
