AIH.pdb
     RDKit          3D

 24 24  0  0  1  0  0  0  0  0999 V2000
   17.4611  -13.4149  -14.8521 C   0  0  0  0  0  0  0  0  0  0  0  0
   16.8054  -12.0641  -14.7205 C   0  0  2  0  0  0  0  0  0  0  0  0
   16.8128  -11.4259  -15.9999 N   0  0  0  0  0  0  0  0  0  0  0  0
   17.5604  -11.2474  -13.6975 C   0  0  0  0  0  0  0  0  0  0  0  0
   17.7575  -11.7021  -12.5442 O   0  0  0  0  0  0  0  0  0  0  0  0
   22.3464   -9.0247  -14.8237 C   0  0  0  0  0  0  0  0  0  0  0  0
   21.0785   -9.5911  -14.2038 C   0  0  0  0  0  0  0  0  0  0  0  0
   20.0687   -8.5622  -13.8883 C   0  0  2  0  0  0  0  0  0  0  0  0
   20.7375   -7.5243  -12.9691 C   0  0  0  0  0  0  0  0  0  0  0  0
   18.7912   -9.0604  -13.2614 C   0  0  2  0  0  0  0  0  0  0  0  0
   18.0346   -9.9685  -14.0711 N   0  0  0  0  0  0  0  0  0  0  0  0
   17.9273   -7.9637  -12.7904 C   0  0  0  0  0  0  0  0  0  0  0  0
   17.1554   -7.3469  -13.5669 O   0  0  0  0  0  0  0  0  0  0  0  0
   17.9675   -7.5943  -11.4260 N   0  0  0  0  0  0  0  0  0  0  0  0
   17.1161   -6.4982  -10.9747 C   0  0  1  0  0  0  0  0  0  0  0  0
   16.7423   -6.7227   -9.5218 C   0  0  0  0  0  0  0  0  0  0  0  0
   15.6226   -7.6821   -9.4178 C   0  0  0  0  0  0  0  0  0  0  0  0
   14.9043   -8.3519  -10.3763 C   0  0  0  0  0  0  0  0  0  0  0  0
   13.9616   -9.1156   -9.7832 N   0  0  0  0  0  0  0  0  0  0  0  0
   14.0744   -8.9364   -8.4503 C   0  0  0  0  0  0  0  0  0  0  0  0
   15.0715   -8.0763   -8.2383 N   0  0  0  0  0  0  0  0  0  0  0  0
   17.7704   -5.1989  -11.2154 C   0  0  0  0  0  0  0  0  0  0  0  0
   19.0416   -5.1137  -11.1248 O   0  0  0  0  0  0  0  0  0  0  0  0
   17.0855   -4.0479  -11.5393 O   0  0  0  0  0  0  0  0  0  0  0  0
  2  4  1  0
  2  1  1  6
  2  3  1  0
  4  5  2  0
  6  7  1  0
  7  8  1  0
  8 10  1  0
  8  9  1  1
 10 12  1  0
 10 11  1  6
 11  4  1  0
 12 13  2  0
 12 14  1  0
 14 15  1  0
 15 22  1  0
 15 16  1  1
 17 16  1  0
 17 18  2  0
 19 18  1  0
 20 19  1  0
 21 20  2  0
 21 17  1  0
 22 23  2  0
 22 24  1  0
M  END
$$$$
