AIH.pdb
     RDKit          3D

 24 24  0  0  1  0  0  0  0  0999 V2000
   16.8462  -10.9838  -17.4639 C   0  0  0  0  0  0  0  0  0  0  0  0
   17.7898  -11.8731  -16.6952 C   0  0  2  0  0  0  0  0  0  0  0  0
   17.0203  -12.8215  -15.9518 N   0  0  0  0  0  0  0  0  0  0  0  0
   18.6369  -11.0190  -15.7807 C   0  0  0  0  0  0  0  0  0  0  0  0
   18.1803  -10.6236  -14.6803 O   0  0  0  0  0  0  0  0  0  0  0  0
   23.8190  -12.5338  -15.0671 C   0  0  0  0  0  0  0  0  0  0  0  0
   22.4106  -11.9663  -14.9839 C   0  0  0  0  0  0  0  0  0  0  0  0
   22.3106  -10.5715  -15.4552 C   0  0  2  0  0  0  0  0  0  0  0  0
   23.2699   -9.7244  -14.5997 C   0  0  0  0  0  0  0  0  0  0  0  0
   20.9303   -9.9652  -15.4372 C   0  0  2  0  0  0  0  0  0  0  0  0
   19.9462  -10.6802  -16.1942 N   0  0  0  0  0  0  0  0  0  0  0  0
   20.9318   -8.5440  -15.8257 C   0  0  0  0  0  0  0  0  0  0  0  0
   21.2416   -8.1736  -16.9858 O   0  0  0  0  0  0  0  0  0  0  0  0
   20.5748   -7.5685  -14.8661 N   0  0  0  0  0  0  0  0  0  0  0  0
   20.6714   -6.1596  -15.2343 C   0  0  1  0  0  0  0  0  0  0  0  0
   19.3130   -5.5058  -15.0660 C   0  0  0  0  0  0  0  0  0  0  0  0
   18.3727   -5.9933  -16.0972 C   0  0  0  0  0  0  0  0  0  0  0  0
   17.6850   -7.1748  -16.2180 C   0  0  0  0  0  0  0  0  0  0  0  0
   16.9522   -7.1572  -17.3522 N   0  0  0  0  0  0  0  0  0  0  0  0
   17.1688   -5.9699  -17.9563 C   0  0  0  0  0  0  0  0  0  0  0  0
   18.0209   -5.2774  -17.1990 N   0  0  0  0  0  0  0  0  0  0  0  0
   21.7393   -5.4937  -14.4660 C   0  0  0  0  0  0  0  0  0  0  0  0
   22.0490   -4.2862  -14.7449 O   0  0  0  0  0  0  0  0  0  0  0  0
   22.4380   -6.1014  -13.4456 O   0  0  0  0  0  0  0  0  0  0  0  0
  2  4  1  0
  2  1  1  1
  2  3  1  0
  4  5  2  0
  6  7  1  0
  7  8  1  0
  8 10  1  0
  8  9  1  1
 10 12  1  0
 10 11  1  6
 11  4  1  0
 12 13  2  0
 12 14  1  0
 14 15  1  0
 15 22  1  0
 15 16  1  1
 17 16  1  0
 17 18  2  0
 19 18  1  0
 20 19  1  0
 21 20  2  0
 21 17  1  0
 22 23  2  0
 22 24  1  0
M  END
$$$$
