AIH.pdb
     RDKit          3D

 24 24  0  0  1  0  0  0  0  0999 V2000
   23.8210  -17.0227  -18.0556 C   0  0  0  0  0  0  0  0  0  0  0  0
   24.4701  -17.7937  -16.9348 C   0  0  2  0  0  0  0  0  0  0  0  0
   25.7374  -18.2772  -17.3868 N   0  0  0  0  0  0  0  0  0  0  0  0
   23.5629  -18.9324  -16.5301 C   0  0  0  0  0  0  0  0  0  0  0  0
   23.1572  -19.7546  -17.3875 O   0  0  0  0  0  0  0  0  0  0  0  0
   24.8820  -22.1569  -12.4372 C   0  0  0  0  0  0  0  0  0  0  0  0
   24.3259  -21.4286  -13.6510 C   0  0  0  0  0  0  0  0  0  0  0  0
   23.0286  -20.7720  -13.3985 C   0  0  2  0  0  0  0  0  0  0  0  0
   22.0726  -21.8385  -12.8344 C   0  0  0  0  0  0  0  0  0  0  0  0
   22.3951  -20.0839  -14.5811 C   0  0  2  0  0  0  0  0  0  0  0  0
   23.1865  -19.0458  -15.1716 N   0  0  0  0  0  0  0  0  0  0  0  0
   21.0423  -19.5812  -14.2847 C   0  0  0  0  0  0  0  0  0  0  0  0
   20.8261  -18.7697  -13.3498 O   0  0  0  0  0  0  0  0  0  0  0  0
   19.9560  -20.0239  -15.0743 N   0  0  0  0  0  0  0  0  0  0  0  0
   18.6176  -19.5371  -14.7552 C   0  0  1  0  0  0  0  0  0  0  0  0
   17.8584  -19.2845  -16.0440 C   0  0  0  0  0  0  0  0  0  0  0  0
   18.2365  -17.9764  -16.6194 C   0  0  0  0  0  0  0  0  0  0  0  0
   19.0200  -16.9594  -16.1342 C   0  0  0  0  0  0  0  0  0  0  0  0
   19.0575  -15.9506  -17.0311 N   0  0  0  0  0  0  0  0  0  0  0  0
   18.3016  -16.3185  -18.0868 C   0  0  0  0  0  0  0  0  0  0  0  0
   17.8126  -17.5333  -17.8336 N   0  0  0  0  0  0  0  0  0  0  0  0
   17.9285  -20.4701  -13.8448 C   0  0  0  0  0  0  0  0  0  0  0  0
   16.8184  -20.1221  -13.3173 O   0  0  0  0  0  0  0  0  0  0  0  0
   18.4137  -21.7184  -13.5205 O   0  0  0  0  0  0  0  0  0  0  0  0
  2  4  1  0
  2  1  1  6
  2  3  1  0
  4  5  2  0
  6  7  1  0
  7  8  1  0
  8 10  1  0
  8  9  1  6
 10 12  1  0
 10 11  1  1
 11  4  1  0
 12 13  2  0
 12 14  1  0
 14 15  1  0
 15 22  1  0
 15 16  1  6
 17 16  1  0
 17 18  2  0
 19 18  1  0
 20 19  1  0
 21 20  2  0
 21 17  1  0
 22 23  2  0
 22 24  1  0
M  END
$$$$
