AIH.pdb
     RDKit          3D

 24 24  0  0  1  0  0  0  0  0999 V2000
   19.6421  -13.6378  -18.0288 C   0  0  0  0  0  0  0  0  0  0  0  0
   20.7563  -14.2144  -17.1932 C   0  0  2  0  0  0  0  0  0  0  0  0
   20.2485  -15.3351  -16.4650 N   0  0  0  0  0  0  0  0  0  0  0  0
   21.2760  -13.1456  -16.2599 C   0  0  0  0  0  0  0  0  0  0  0  0
   20.6013  -12.7937  -15.2616 O   0  0  0  0  0  0  0  0  0  0  0  0
   26.8144  -12.6820  -15.4147 C   0  0  0  0  0  0  0  0  0  0  0  0
   25.2999  -12.6826  -15.2761 C   0  0  0  0  0  0  0  0  0  0  0  0
   24.6573  -11.4837  -15.8484 C   0  0  2  0  0  0  0  0  0  0  0  0
   25.1997  -10.2605  -15.0876 C   0  0  0  0  0  0  0  0  0  0  0  0
   23.1496  -11.4728  -15.8364 C   0  0  2  0  0  0  0  0  0  0  0  0
   22.5317  -12.5578  -16.5388 N   0  0  0  0  0  0  0  0  0  0  0  0
   22.5899  -10.1897  -16.2957 C   0  0  0  0  0  0  0  0  0  0  0  0
   22.7595   -9.7739  -17.4693 O   0  0  0  0  0  0  0  0  0  0  0  0
   21.8403   -9.4032  -15.3905 N   0  0  0  0  0  0  0  0  0  0  0  0
   21.2985   -8.1302  -15.8553 C   0  0  1  0  0  0  0  0  0  0  0  0
   19.7895   -8.2404  -15.9644 C   0  0  0  0  0  0  0  0  0  0  0  0
   19.2032   -6.9427  -16.3610 C   0  0  0  0  0  0  0  0  0  0  0  0
   18.8442   -5.8417  -15.6246 C   0  0  0  0  0  0  0  0  0  0  0  0
   18.3346   -4.8967  -16.4438 N   0  0  0  0  0  0  0  0  0  0  0  0
   18.3665   -5.3892  -17.6999 C   0  0  0  0  0  0  0  0  0  0  0  0
   18.8881   -6.6155  -17.6431 N   0  0  0  0  0  0  0  0  0  0  0  0
   21.7421   -7.0271  -14.9833 C   0  0  0  0  0  0  0  0  0  0  0  0
   21.9967   -7.2662  -13.7546 O   0  0  0  0  0  0  0  0  0  0  0  0
   21.9040   -5.7292  -15.4169 O   0  0  0  0  0  0  0  0  0  0  0  0
  2  4  1  0
  2  1  1  1
  2  3  1  0
  4  5  2  0
  6  7  1  0
  7  8  1  0
  8 10  1  0
  8  9  1  1
 10 12  1  0
 10 11  1  6
 11  4  1  0
 12 13  2  0
 12 14  1  0
 14 15  1  0
 15 22  1  0
 15 16  1  1
 17 16  1  0
 17 18  2  0
 19 18  1  0
 20 19  1  0
 21 20  2  0
 21 17  1  0
 22 23  2  0
 22 24  1  0
M  END
$$$$
