AIH.pdb
     RDKit          3D

 24 24  0  0  1  0  0  0  0  0999 V2000
   23.3153  -38.5789   -8.0949 C   0  0  0  0  0  0  0  0  0  0  0  0
   23.9761  -37.5790   -9.0090 C   0  0  2  0  0  0  0  0  0  0  0  0
   24.6590  -38.2888  -10.0453 N   0  0  0  0  0  0  0  0  0  0  0  0
   24.9338  -36.7323   -8.2031 C   0  0  0  0  0  0  0  0  0  0  0  0
   26.1586  -37.0062   -8.1831 O   0  0  0  0  0  0  0  0  0  0  0  0
   24.7486  -31.4227   -8.9773 C   0  0  0  0  0  0  0  0  0  0  0  0
   25.0915  -32.8631   -8.6299 C   0  0  0  0  0  0  0  0  0  0  0  0
   24.8366  -33.2031   -7.2167 C   0  0  2  0  0  0  0  0  0  0  0  0
   25.6241  -32.2029   -6.3512 C   0  0  0  0  0  0  0  0  0  0  0  0
   25.1694  -34.6153   -6.8064 C   0  0  2  0  0  0  0  0  0  0  0  0
   24.4176  -35.6330   -7.4785 N   0  0  0  0  0  0  0  0  0  0  0  0
   25.0956  -34.8126   -5.3482 C   0  0  0  0  0  0  0  0  0  0  0  0
   24.0125  -34.7124   -4.7190 O   0  0  0  0  0  0  0  0  0  0  0  0
   26.2770  -35.1237   -4.6359 N   0  0  0  0  0  0  0  0  0  0  0  0
   26.1870  -35.3371   -3.1950 C   0  0  1  0  0  0  0  0  0  0  0  0
   26.9516  -36.5949   -2.8283 C   0  0  0  0  0  0  0  0  0  0  0  0
   26.2212  -37.7962   -3.2851 C   0  0  0  0  0  0  0  0  0  0  0  0
   26.4200  -38.6314   -4.3558 C   0  0  0  0  0  0  0  0  0  0  0  0
   25.4730  -39.5942   -4.3597 N   0  0  0  0  0  0  0  0  0  0  0  0
   24.6704  -39.3776   -3.2966 C   0  0  0  0  0  0  0  0  0  0  0  0
   25.1243  -38.2988   -2.6571 N   0  0  0  0  0  0  0  0  0  0  0  0
   26.6440  -34.1416   -2.4629 C   0  0  0  0  0  0  0  0  0  0  0  0
   27.5202  -33.3802   -2.9958 O   0  0  0  0  0  0  0  0  0  0  0  0
   26.1768  -33.7848   -1.2166 O   0  0  0  0  0  0  0  0  0  0  0  0
  2  4  1  0
  2  1  1  1
  2  3  1  0
  4  5  2  0
  6  7  1  0
  7  8  1  0
  8 10  1  0
  8  9  1  1
 10 12  1  0
 10 11  1  6
 11  4  1  0
 12 13  2  0
 12 14  1  0
 14 15  1  0
 15 22  1  0
 15 16  1  1
 17 16  1  0
 17 18  2  0
 19 18  1  0
 20 19  1  0
 21 20  2  0
 21 17  1  0
 22 23  2  0
 22 24  1  0
M  END
$$$$
