AIH.pdb
     RDKit          3D

 24 24  0  0  1  0  0  0  0  0999 V2000
   20.7122  -13.2910  -17.1295 C   0  0  0  0  0  0  0  0  0  0  0  0
   21.0093  -11.8733  -17.5461 C   0  0  2  0  0  0  0  0  0  0  0  0
   21.6363  -11.8963  -18.8308 N   0  0  0  0  0  0  0  0  0  0  0  0
   21.9055  -11.2331  -16.5115 C   0  0  0  0  0  0  0  0  0  0  0  0
   21.5175  -11.1145  -15.3236 O   0  0  0  0  0  0  0  0  0  0  0  0
   28.0000  -10.3016  -15.7286 C   0  0  0  0  0  0  0  0  0  0  0  0
   26.5719   -9.8669  -15.4380 C   0  0  0  0  0  0  0  0  0  0  0  0
   25.5731  -10.5062  -16.3163 C   0  0  2  0  0  0  0  0  0  0  0  0
   25.9963  -10.2358  -17.7714 C   0  0  0  0  0  0  0  0  0  0  0  0
   24.1415  -10.0819  -16.1073 C   0  0  2  0  0  0  0  0  0  0  0  0
   23.1816  -10.7754  -16.9138 N   0  0  0  0  0  0  0  0  0  0  0  0
   23.9576   -8.6264  -16.2427 C   0  0  0  0  0  0  0  0  0  0  0  0
   24.6399   -7.8068  -15.5780 O   0  0  0  0  0  0  0  0  0  0  0  0
   22.9859   -8.1372  -17.1461 N   0  0  0  0  0  0  0  0  0  0  0  0
   22.7825   -6.6950  -17.2382 C   0  0  1  0  0  0  0  0  0  0  0  0
   23.0644   -6.2412  -18.6580 C   0  0  0  0  0  0  0  0  0  0  0  0
   22.9419   -4.7720  -18.7657 C   0  0  0  0  0  0  0  0  0  0  0  0
   22.8512   -3.7924  -17.8089 C   0  0  0  0  0  0  0  0  0  0  0  0
   22.7420   -2.5861  -18.4060 N   0  0  0  0  0  0  0  0  0  0  0  0
   22.7626   -2.7909  -19.7398 C   0  0  0  0  0  0  0  0  0  0  0  0
   22.8825   -4.1028  -19.9484 N   0  0  0  0  0  0  0  0  0  0  0  0
   21.4349   -6.3288  -16.7648 C   0  0  0  0  0  0  0  0  0  0  0  0
   20.4546   -7.1117  -17.0051 O   0  0  0  0  0  0  0  0  0  0  0  0
   21.1593   -5.1741  -16.0651 O   0  0  0  0  0  0  0  0  0  0  0  0
  2  4  1  0
  2  1  1  1
  2  3  1  0
  4  5  2  0
  6  7  1  0
  7  8  1  0
  8 10  1  0
  8  9  1  6
 10 12  1  0
 10 11  1  6
 11  4  1  0
 12 13  2  0
 12 14  1  0
 14 15  1  0
 15 22  1  0
 15 16  1  6
 17 16  1  0
 17 18  2  0
 19 18  1  0
 20 19  1  0
 21 20  2  0
 21 17  1  0
 22 23  2  0
 22 24  1  0
M  END
$$$$
