AIH.pdb
     RDKit          3D

 24 24  0  0  1  0  0  0  0  0999 V2000
   26.3546  -16.1862  -15.4648 C   0  0  0  0  0  0  0  0  0  0  0  0
   27.3075  -17.3540  -15.4542 C   0  0  2  0  0  0  0  0  0  0  0  0
   27.7898  -17.5623  -16.7839 N   0  0  0  0  0  0  0  0  0  0  0  0
   26.5840  -18.5757  -14.9370 C   0  0  0  0  0  0  0  0  0  0  0  0
   25.7540  -19.1750  -15.6633 O   0  0  0  0  0  0  0  0  0  0  0  0
   29.4729  -21.2787  -10.9825 C   0  0  0  0  0  0  0  0  0  0  0  0
   28.6127  -20.9673  -12.1974 C   0  0  0  0  0  0  0  0  0  0  0  0
   27.1919  -20.7416  -11.8688 C   0  0  2  0  0  0  0  0  0  0  0  0
   26.6130  -22.0800  -11.3756 C   0  0  0  0  0  0  0  0  0  0  0  0
   26.3367  -20.1869  -12.9797 C   0  0  2  0  0  0  0  0  0  0  0  0
   26.8648  -19.0216  -13.6247 N   0  0  0  0  0  0  0  0  0  0  0  0
   24.9469  -19.9435  -12.5557 C   0  0  0  0  0  0  0  0  0  0  0  0
   24.6481  -19.0160  -11.7622 O   0  0  0  0  0  0  0  0  0  0  0  0
   23.9196  -20.7768  -13.0555 N   0  0  0  0  0  0  0  0  0  0  0  0
   22.5396  -20.3090  -12.9728 C   0  0  1  0  0  0  0  0  0  0  0  0
   22.4166  -18.9865  -13.7055 C   0  0  0  0  0  0  0  0  0  0  0  0
   21.0195  -18.5044  -13.6721 C   0  0  0  0  0  0  0  0  0  0  0  0
   19.9014  -18.9934  -13.0444 C   0  0  0  0  0  0  0  0  0  0  0  0
   18.8429  -18.2038  -13.3267 N   0  0  0  0  0  0  0  0  0  0  0  0
   19.2799  -17.2129  -14.1321 C   0  0  0  0  0  0  0  0  0  0  0  0
   20.5849  -17.3990  -14.3351 N   0  0  0  0  0  0  0  0  0  0  0  0
   21.6104  -21.3406  -13.4695 C   0  0  0  0  0  0  0  0  0  0  0  0
   20.5529  -21.6016  -12.8024 O   0  0  0  0  0  0  0  0  0  0  0  0
   21.8126  -22.0546  -14.6305 O   0  0  0  0  0  0  0  0  0  0  0  0
  2  4  1  0
  2  1  1  6
  2  3  1  0
  4  5  2  0
  6  7  1  0
  7  8  1  0
  8 10  1  0
  8  9  1  6
 10 12  1  0
 10 11  1  1
 11  4  1  0
 12 13  2  0
 12 14  1  0
 14 15  1  0
 15 22  1  0
 15 16  1  6
 17 16  1  0
 17 18  2  0
 19 18  1  0
 20 19  1  0
 21 20  2  0
 21 17  1  0
 22 23  2  0
 22 24  1  0
M  END
$$$$
