AIH.pdb
     RDKit          3D

 24 24  0  0  1  0  0  0  0  0999 V2000
   14.3657  -14.3445  -14.5356 C   0  0  0  0  0  0  0  0  0  0  0  0
   15.2564  -14.5275  -15.7377 C   0  0  2  0  0  0  0  0  0  0  0  0
   15.6103  -15.9091  -15.8382 N   0  0  0  0  0  0  0  0  0  0  0  0
   16.4828  -13.6589  -15.5791 C   0  0  0  0  0  0  0  0  0  0  0  0
   17.4225  -14.0205  -14.8296 O   0  0  0  0  0  0  0  0  0  0  0  0
   20.4314  -10.7676  -18.9243 C   0  0  0  0  0  0  0  0  0  0  0  0
   19.6219  -10.6502  -17.6422 C   0  0  0  0  0  0  0  0  0  0  0  0
   18.4908  -11.5956  -17.5731 C   0  0  2  0  0  0  0  0  0  0  0  0
   17.6218  -11.3692  -18.8233 C   0  0  0  0  0  0  0  0  0  0  0  0
   17.6394  -11.5177  -16.3312 C   0  0  2  0  0  0  0  0  0  0  0  0
   16.5427  -12.4387  -16.2915 N   0  0  0  0  0  0  0  0  0  0  0  0
   17.1616  -10.1510  -16.0581 C   0  0  0  0  0  0  0  0  0  0  0  0
   16.0399   -9.7483  -16.4566 O   0  0  0  0  0  0  0  0  0  0  0  0
   17.9881   -9.2670  -15.3267 N   0  0  0  0  0  0  0  0  0  0  0  0
   17.4704   -7.9441  -14.9919 C   0  0  1  0  0  0  0  0  0  0  0  0
   16.2692   -8.0953  -14.0780 C   0  0  0  0  0  0  0  0  0  0  0  0
   16.6861   -8.6088  -12.7560 C   0  0  0  0  0  0  0  0  0  0  0  0
   17.7248   -8.2610  -11.9293 C   0  0  0  0  0  0  0  0  0  0  0  0
   17.6990   -9.0331  -10.8217 N   0  0  0  0  0  0  0  0  0  0  0  0
   16.6486   -9.8725  -10.9372 C   0  0  0  0  0  0  0  0  0  0  0  0
   16.0460   -9.6130  -12.0985 N   0  0  0  0  0  0  0  0  0  0  0  0
   18.5352   -7.0982  -14.4219 C   0  0  0  0  0  0  0  0  0  0  0  0
   19.7049   -7.5871  -14.2663 O   0  0  0  0  0  0  0  0  0  0  0  0
   18.3464   -5.7879  -14.0395 O   0  0  0  0  0  0  0  0  0  0  0  0
  2  4  1  0
  2  1  1  1
  2  3  1  0
  4  5  2  0
  6  7  1  0
  7  8  1  0
  8 10  1  0
  8  9  1  6
 10 12  1  0
 10 11  1  6
 11  4  1  0
 12 13  2  0
 12 14  1  0
 14 15  1  0
 15 22  1  0
 15 16  1  1
 17 16  1  0
 17 18  2  0
 19 18  1  0
 20 19  1  0
 21 20  2  0
 21 17  1  0
 22 23  2  0
 22 24  1  0
M  END
$$$$
