AIH.pdb
     RDKit          3D

 24 24  0  0  1  0  0  0  0  0999 V2000
   26.6641  -17.7453  -15.9048 C   0  0  0  0  0  0  0  0  0  0  0  0
   27.4069  -18.8653  -15.2224 C   0  0  2  0  0  0  0  0  0  0  0  0
   28.3113  -19.4526  -16.1612 N   0  0  0  0  0  0  0  0  0  0  0  0
   26.4095  -19.8808  -14.7150 C   0  0  0  0  0  0  0  0  0  0  0  0
   25.9034  -20.7189  -15.5006 O   0  0  0  0  0  0  0  0  0  0  0  0
   25.6841  -20.3939   -8.8492 C   0  0  0  0  0  0  0  0  0  0  0  0
   25.4102  -19.9613  -10.2812 C   0  0  0  0  0  0  0  0  0  0  0  0
   25.4902  -21.0676  -11.2545 C   0  0  2  0  0  0  0  0  0  0  0  0
   26.9195  -21.6357  -11.1926 C   0  0  0  0  0  0  0  0  0  0  0  0
   25.1326  -20.7225  -12.6780 C   0  0  2  0  0  0  0  0  0  0  0  0
   26.0647  -19.8617  -13.3436 N   0  0  0  0  0  0  0  0  0  0  0  0
   23.7677  -20.1821  -12.8031 C   0  0  0  0  0  0  0  0  0  0  0  0
   23.5145  -18.9672  -12.6058 O   0  0  0  0  0  0  0  0  0  0  0  0
   22.7123  -21.0549  -13.1551 N   0  0  0  0  0  0  0  0  0  0  0  0
   21.4660  -20.4786  -13.6496 C   0  0  1  0  0  0  0  0  0  0  0  0
   21.7618  -19.6160  -14.8619 C   0  0  0  0  0  0  0  0  0  0  0  0
   20.5293  -18.9540  -15.3392 C   0  0  0  0  0  0  0  0  0  0  0  0
   19.4272  -18.4868  -14.6680 C   0  0  0  0  0  0  0  0  0  0  0  0
   18.5471  -17.9671  -15.5507 N   0  0  0  0  0  0  0  0  0  0  0  0
   19.0821  -18.1005  -16.7826 C   0  0  0  0  0  0  0  0  0  0  0  0
   20.2698  -18.6926  -16.6486 N   0  0  0  0  0  0  0  0  0  0  0  0
   20.4730  -21.5361  -13.9136 C   0  0  0  0  0  0  0  0  0  0  0  0
   19.2976  -21.2086  -14.2918 O   0  0  0  0  0  0  0  0  0  0  0  0
   20.7364  -22.8818  -13.7771 O   0  0  0  0  0  0  0  0  0  0  0  0
  2  4  1  0
  2  1  1  6
  2  3  1  0
  4  5  2  0
  6  7  1  0
  7  8  1  0
  8 10  1  0
  8  9  1  6
 10 12  1  0
 10 11  1  1
 11  4  1  0
 12 13  2  0
 12 14  1  0
 14 15  1  0
 15 22  1  0
 15 16  1  6
 17 16  1  0
 17 18  2  0
 19 18  1  0
 20 19  1  0
 21 20  2  0
 21 17  1  0
 22 23  2  0
 22 24  1  0
M  END
$$$$
