AIH.pdb
     RDKit          3D

 24 24  0  0  1  0  0  0  0  0999 V2000
   17.0629  -12.9487  -17.4894 C   0  0  0  0  0  0  0  0  0  0  0  0
   18.2026  -13.5951  -16.7443 C   0  0  2  0  0  0  0  0  0  0  0  0
   17.6950  -14.7154  -16.0154 N   0  0  0  0  0  0  0  0  0  0  0  0
   18.8262  -12.5770  -15.8180 C   0  0  0  0  0  0  0  0  0  0  0  0
   18.2342  -12.2307  -14.7667 O   0  0  0  0  0  0  0  0  0  0  0  0
   24.2960  -12.7058  -14.8738 C   0  0  0  0  0  0  0  0  0  0  0  0
   22.7841  -12.5436  -14.8456 C   0  0  0  0  0  0  0  0  0  0  0  0
   22.3200  -11.2642  -15.4160 C   0  0  2  0  0  0  0  0  0  0  0  0
   23.0079  -10.1318  -14.6324 C   0  0  0  0  0  0  0  0  0  0  0  0
   20.8276  -11.0498  -15.4304 C   0  0  2  0  0  0  0  0  0  0  0  0
   20.0834  -12.0297  -16.1644 N   0  0  0  0  0  0  0  0  0  0  0  0
   20.4552   -9.6954  -15.8749 C   0  0  0  0  0  0  0  0  0  0  0  0
   20.6612   -9.3029  -17.0508 O   0  0  0  0  0  0  0  0  0  0  0  0
   19.8488   -8.8115  -14.9526 N   0  0  0  0  0  0  0  0  0  0  0  0
   19.5282   -7.4572  -15.3918 C   0  0  1  0  0  0  0  0  0  0  0  0
   18.0731   -7.1630  -15.0797 C   0  0  0  0  0  0  0  0  0  0  0  0
   17.7166   -5.7961  -15.5153 C   0  0  0  0  0  0  0  0  0  0  0  0
   18.4480   -4.8201  -16.1444 C   0  0  0  0  0  0  0  0  0  0  0  0
   17.6797   -3.7241  -16.3233 N   0  0  0  0  0  0  0  0  0  0  0  0
   16.4609   -3.9956  -15.8112 C   0  0  0  0  0  0  0  0  0  0  0  0
   16.4899   -5.2387  -15.3287 N   0  0  0  0  0  0  0  0  0  0  0  0
   20.4616   -6.4831  -14.7968 C   0  0  0  0  0  0  0  0  0  0  0  0
   20.9454   -6.7103  -13.6366 O   0  0  0  0  0  0  0  0  0  0  0  0
   20.8545   -5.3209  -15.4242 O   0  0  0  0  0  0  0  0  0  0  0  0
  2  4  1  0
  2  1  1  1
  2  3  1  0
  4  5  2  0
  6  7  1  0
  7  8  1  0
  8 10  1  0
  8  9  1  1
 10 12  1  0
 10 11  1  6
 11  4  1  0
 12 13  2  0
 12 14  1  0
 14 15  1  0
 15 22  1  0
 15 16  1  1
 17 16  1  0
 17 18  2  0
 19 18  1  0
 20 19  1  0
 21 20  2  0
 21 17  1  0
 22 23  2  0
 22 24  1  0
M  END
$$$$
