MMA.pdb
     RDKit          3D

 22 21  0  0  1  0  0  0  0  0999 V2000
    7.9625  -12.0021   26.9336 C   0  0  0  0  0  0  0  0  0  0  0  0
    6.4319  -12.9907   26.8142 S   0  0  0  0  0  0  0  0  0  0  0  0
    6.8269  -14.7350   27.2068 C   0  0  0  0  0  0  0  0  0  0  0  0
    7.6687  -15.3138   26.0858 C   0  0  0  0  0  0  0  0  0  0  0  0
    6.8495  -16.3934   25.4132 C   0  0  2  0  0  0  0  0  0  0  0  0
    6.9436  -17.6483   26.1138 N   0  0  0  0  0  0  0  0  0  0  0  0
    7.3829  -16.5704   24.0372 C   0  0  0  0  0  0  0  0  0  0  0  0
    7.7002  -17.6773   23.5517 O   0  0  0  0  0  0  0  0  0  0  0  0
    7.9290  -11.4291   19.6168 C   0  0  0  0  0  0  0  0  0  0  0  0
    7.7910  -12.9682   18.7062 S   0  0  0  0  0  0  0  0  0  0  0  0
    8.1255  -14.4213   19.7131 C   0  0  0  0  0  0  0  0  0  0  0  0
    7.6829  -14.2485   21.1542 C   0  0  0  0  0  0  0  0  0  0  0  0
    8.0362  -15.5653   21.8393 C   0  0  2  0  0  0  0  0  0  0  0  0
    7.5451  -15.4211   23.2190 N   0  0  0  0  0  0  0  0  0  0  0  0
    9.4629  -15.8583   21.8212 C   0  0  0  0  0  0  0  0  0  0  0  0
   10.0396  -16.1272   20.7425 O   0  0  0  0  0  0  0  0  0  0  0  0
   12.2638  -15.6749   24.3124 C   0  0  0  0  0  0  0  0  0  0  0  0
   11.6209  -16.2490   23.0658 C   0  0  2  0  0  0  0  0  0  0  0  0
   10.2287  -15.8473   23.0097 N   0  0  0  0  0  0  0  0  0  0  0  0
   11.7332  -17.7076   23.1234 C   0  0  0  0  0  0  0  0  0  0  0  0
   12.9713  -18.3550   23.1059 O   0  0  0  0  0  0  0  0  0  0  0  0
   10.6843  -18.4043   23.1911 O   0  0  0  0  0  0  0  0  0  0  0  0
  1  2  1  0
  3  2  1  0
  4  3  1  0
  5  4  1  0
  5  6  1  1
  7  5  1  0
  8  7  2  0
  9 10  1  0
 11 10  1  0
 12 11  1  0
 13 12  1  6
 13 14  1  0
 14  7  1  0
 15 13  1  0
 15 19  1  0
 16 15  2  0
 18 17  1  1
 18 19  1  0
 18 20  1  0
 20 21  1  0
 22 20  2  0
M  END
$$$$
