MMA.pdb
     RDKit          3D

 22 21  0  0  1  0  0  0  0  0999 V2000
    7.5969  -11.7058   19.2775 C   0  0  0  0  0  0  0  0  0  0  0  0
    7.6793  -13.0960   18.0966 S   0  0  0  0  0  0  0  0  0  0  0  0
    7.9466  -14.6470   19.0324 C   0  0  0  0  0  0  0  0  0  0  0  0
    8.8253  -14.3525   20.2332 C   0  0  0  0  0  0  0  0  0  0  0  0
    8.9615  -15.6362   21.0224 C   0  0  2  0  0  0  0  0  0  0  0  0
    7.8004  -16.4762   20.8783 N   0  0  0  0  0  0  0  0  0  0  0  0
    9.1139  -15.2689   22.4545 C   0  0  0  0  0  0  0  0  0  0  0  0
   10.1321  -14.7195   22.9268 O   0  0  0  0  0  0  0  0  0  0  0  0
    7.2442  -11.6181   27.9060 C   0  0  0  0  0  0  0  0  0  0  0  0
    7.3368  -12.5397   26.3700 S   0  0  0  0  0  0  0  0  0  0  0  0
    6.7228  -14.2247   26.5149 C   0  0  0  0  0  0  0  0  0  0  0  0
    6.6599  -14.9410   25.1788 C   0  0  0  0  0  0  0  0  0  0  0  0
    8.1138  -15.0987   24.7433 C   0  0  2  0  0  0  0  0  0  0  0  0
    8.0459  -15.5549   23.3459 N   0  0  0  0  0  0  0  0  0  0  0  0
    8.8610  -16.0415   25.5644 C   0  0  0  0  0  0  0  0  0  0  0  0
    9.0635  -15.8021   26.7769 O   0  0  0  0  0  0  0  0  0  0  0  0
   10.1872  -19.5234   25.0094 C   0  0  0  0  0  0  0  0  0  0  0  0
   10.0737  -18.2393   25.8061 C   0  0  2  0  0  0  0  0  0  0  0  0
    9.3735  -17.2417   25.0203 N   0  0  0  0  0  0  0  0  0  0  0  0
   11.4258  -17.7814   26.1311 C   0  0  0  0  0  0  0  0  0  0  0  0
   12.2732  -18.5134   26.9667 O   0  0  0  0  0  0  0  0  0  0  0  0
   11.8422  -16.6951   25.6447 O   0  0  0  0  0  0  0  0  0  0  0  0
  1  2  1  0
  3  2  1  0
  4  3  1  0
  5  4  1  0
  5  6  1  1
  7  5  1  0
  8  7  2  0
  9 10  1  0
 11 10  1  0
 12 11  1  0
 13 12  1  1
 13 14  1  0
 14  7  1  0
 15 13  1  0
 15 19  1  0
 16 15  2  0
 18 17  1  6
 18 19  1  0
 18 20  1  0
 20 21  1  0
 22 20  2  0
M  END
$$$$
