MMA.pdb
     RDKit          3D

 22 21  0  0  1  0  0  0  0  0999 V2000
   10.1214  -13.8885   28.8205 C   0  0  0  0  0  0  0  0  0  0  0  0
   10.8620  -15.1556   29.9067 S   0  0  0  0  0  0  0  0  0  0  0  0
   10.9668  -16.7331   28.9830 C   0  0  0  0  0  0  0  0  0  0  0  0
    9.6068  -17.0479   28.3898 C   0  0  0  0  0  0  0  0  0  0  0  0
    9.8209  -17.4380   26.9438 C   0  0  2  0  0  0  0  0  0  0  0  0
   11.0066  -16.8296   26.3976 N   0  0  0  0  0  0  0  0  0  0  0  0
    8.6408  -16.9677   26.1723 C   0  0  0  0  0  0  0  0  0  0  0  0
    7.5073  -17.4883   26.2494 O   0  0  0  0  0  0  0  0  0  0  0  0
    7.2114  -11.2500   26.0966 C   0  0  0  0  0  0  0  0  0  0  0  0
    6.0478  -12.5679   26.4527 S   0  0  0  0  0  0  0  0  0  0  0  0
    6.6169  -14.1846   25.9052 C   0  0  0  0  0  0  0  0  0  0  0  0
    7.3407  -14.1292   24.5728 C   0  0  0  0  0  0  0  0  0  0  0  0
    7.7650  -15.5675   24.2907 C   0  0  2  0  0  0  0  0  0  0  0  0
    8.8003  -15.8633   25.2937 N   0  0  0  0  0  0  0  0  0  0  0  0
    8.2757  -15.7621   22.9406 C   0  0  0  0  0  0  0  0  0  0  0  0
    7.5371  -15.5597   21.9497 O   0  0  0  0  0  0  0  0  0  0  0  0
   10.8579  -15.2932   20.8387 C   0  0  0  0  0  0  0  0  0  0  0  0
   10.1307  -16.4989   21.3993 C   0  0  2  0  0  0  0  0  0  0  0  0
    9.6070  -16.1810   22.7137 N   0  0  0  0  0  0  0  0  0  0  0  0
   11.0808  -17.6099   21.4795 C   0  0  0  0  0  0  0  0  0  0  0  0
   11.6588  -18.1720   20.3383 O   0  0  0  0  0  0  0  0  0  0  0  0
   11.3899  -18.0763   22.6095 O   0  0  0  0  0  0  0  0  0  0  0  0
  1  2  1  0
  3  2  1  0
  4  3  1  0
  5  4  1  0
  5  6  1  6
  7  5  1  0
  8  7  2  0
  9 10  1  0
 11 10  1  0
 12 11  1  0
 13 12  1  6
 13 14  1  0
 14  7  1  0
 15 13  1  0
 15 19  1  0
 16 15  2  0
 18 17  1  1
 18 19  1  0
 18 20  1  0
 20 21  1  0
 22 20  2  0
M  END
$$$$
