MMA.pdb
     RDKit          3D

 22 21  0  0  1  0  0  0  0  0999 V2000
    6.5556  -11.6013   26.6360 C   0  0  0  0  0  0  0  0  0  0  0  0
    7.7601  -12.6187   27.5570 S   0  0  0  0  0  0  0  0  0  0  0  0
    7.4164  -14.3854   27.2198 C   0  0  0  0  0  0  0  0  0  0  0  0
    7.4328  -14.6129   25.7203 C   0  0  0  0  0  0  0  0  0  0  0  0
    7.0573  -16.0581   25.4758 C   0  0  2  0  0  0  0  0  0  0  0  0
    7.6104  -16.9297   26.4802 N   0  0  0  0  0  0  0  0  0  0  0  0
    7.6041  -16.4459   24.1493 C   0  0  0  0  0  0  0  0  0  0  0  0
    7.5905  -17.6144   23.7064 O   0  0  0  0  0  0  0  0  0  0  0  0
    8.2574  -11.8060   19.6753 C   0  0  0  0  0  0  0  0  0  0  0  0
    6.8192  -12.8609   19.8654 S   0  0  0  0  0  0  0  0  0  0  0  0
    7.1543  -14.3543   20.8113 C   0  0  0  0  0  0  0  0  0  0  0  0
    8.6165  -14.4884   21.1938 C   0  0  0  0  0  0  0  0  0  0  0  0
    8.7000  -15.7822   21.9984 C   0  0  2  0  0  0  0  0  0  0  0  0
    8.1774  -15.4374   23.3301 N   0  0  0  0  0  0  0  0  0  0  0  0
   10.0521  -16.3158   22.0905 C   0  0  0  0  0  0  0  0  0  0  0  0
   10.6019  -16.8222   21.0856 O   0  0  0  0  0  0  0  0  0  0  0  0
   13.0911  -15.6107   23.5446 C   0  0  0  0  0  0  0  0  0  0  0  0
   12.1284  -16.7770   23.4452 C   0  0  2  0  0  0  0  0  0  0  0  0
   10.7743  -16.2772   23.3054 N   0  0  0  0  0  0  0  0  0  0  0  0
   12.2564  -17.5809   24.6621 C   0  0  0  0  0  0  0  0  0  0  0  0
   13.4694  -18.1630   25.0393 O   0  0  0  0  0  0  0  0  0  0  0  0
   11.2450  -17.7557   25.3946 O   0  0  0  0  0  0  0  0  0  0  0  0
  1  2  1  0
  3  2  1  0
  4  3  1  0
  5  4  1  0
  5  6  1  1
  7  5  1  0
  8  7  2  0
  9 10  1  0
 11 10  1  0
 12 11  1  0
 13 12  1  6
 13 14  1  0
 14  7  1  0
 15 13  1  0
 15 19  1  0
 16 15  2  0
 18 17  1  1
 18 19  1  0
 18 20  1  0
 20 21  1  0
 22 20  2  0
M  END
$$$$
