MMA.pdb
     RDKit          3D

 22 21  0  0  1  0  0  0  0  0999 V2000
    6.9994  -11.5510   25.6977 C   0  0  0  0  0  0  0  0  0  0  0  0
    6.7267  -12.1330   27.4067 S   0  0  0  0  0  0  0  0  0  0  0  0
    7.1769  -13.9053   27.5028 C   0  0  0  0  0  0  0  0  0  0  0  0
    6.4541  -14.6575   26.4018 C   0  0  0  0  0  0  0  0  0  0  0  0
    7.3876  -15.7377   25.9008 C   0  0  2  0  0  0  0  0  0  0  0  0
    8.7610  -15.4464   26.2223 N   0  0  0  0  0  0  0  0  0  0  0  0
    7.2442  -15.8053   24.4230 C   0  0  0  0  0  0  0  0  0  0  0  0
    6.2143  -16.2098   23.8422 O   0  0  0  0  0  0  0  0  0  0  0  0
    8.3787  -11.1948   20.3124 C   0  0  0  0  0  0  0  0  0  0  0  0
    7.7622  -12.5777   19.3507 S   0  0  0  0  0  0  0  0  0  0  0  0
    8.0322  -14.1702   20.1433 C   0  0  0  0  0  0  0  0  0  0  0  0
    8.1604  -14.0585   21.6511 C   0  0  0  0  0  0  0  0  0  0  0  0
    8.2485  -15.4977   22.1504 C   0  0  2  0  0  0  0  0  0  0  0  0
    8.3354  -15.3884   23.6153 N   0  0  0  0  0  0  0  0  0  0  0  0
    9.3907  -16.2241   21.6126 C   0  0  0  0  0  0  0  0  0  0  0  0
    9.3942  -16.6029   20.4188 O   0  0  0  0  0  0  0  0  0  0  0  0
   12.7550  -16.2578   21.5278 C   0  0  0  0  0  0  0  0  0  0  0  0
   11.6756  -17.2424   21.9308 C   0  0  2  0  0  0  0  0  0  0  0  0
   10.5163  -16.5188   22.4159 N   0  0  0  0  0  0  0  0  0  0  0  0
   12.2159  -18.1098   22.9792 C   0  0  0  0  0  0  0  0  0  0  0  0
   13.3436  -18.9078   22.7701 O   0  0  0  0  0  0  0  0  0  0  0  0
   11.6502  -18.1408   24.1057 O   0  0  0  0  0  0  0  0  0  0  0  0
  1  2  1  0
  3  2  1  0
  4  3  1  0
  5  4  1  0
  5  6  1  6
  7  5  1  0
  8  7  2  0
  9 10  1  0
 11 10  1  0
 12 11  1  0
 13 12  1  6
 13 14  1  0
 14  7  1  0
 15 13  1  0
 15 19  1  0
 16 15  2  0
 18 17  1  1
 18 19  1  0
 18 20  1  0
 20 21  1  0
 22 20  2  0
M  END
$$$$
