MMA.pdb
     RDKit          3D

 22 21  0  0  1  0  0  0  0  0999 V2000
    8.8833  -11.7691   19.5099 C   0  0  0  0  0  0  0  0  0  0  0  0
    7.2967  -12.6386   19.2634 S   0  0  0  0  0  0  0  0  0  0  0  0
    7.3613  -14.2411   20.1470 C   0  0  0  0  0  0  0  0  0  0  0  0
    8.6722  -14.9308   19.8209 C   0  0  0  0  0  0  0  0  0  0  0  0
    8.7425  -16.1911   20.6550 C   0  0  2  0  0  0  0  0  0  0  0  0
    7.4751  -16.8742   20.6964 N   0  0  0  0  0  0  0  0  0  0  0  0
    9.1198  -15.7948   22.0369 C   0  0  0  0  0  0  0  0  0  0  0  0
   10.2848  -15.5039   22.3831 O   0  0  0  0  0  0  0  0  0  0  0  0
    7.3982  -11.6770   28.1250 C   0  0  0  0  0  0  0  0  0  0  0  0
    6.8998  -12.3619   26.5439 S   0  0  0  0  0  0  0  0  0  0  0  0
    7.5632  -14.0069   26.2420 C   0  0  0  0  0  0  0  0  0  0  0  0
    7.1944  -14.5436   24.8715 C   0  0  0  0  0  0  0  0  0  0  0  0
    8.4332  -15.2943   24.3919 C   0  0  2  0  0  0  0  0  0  0  0  0
    8.1047  -15.7404   23.0286 N   0  0  0  0  0  0  0  0  0  0  0  0
    8.7850  -16.4247   25.2403 C   0  0  0  0  0  0  0  0  0  0  0  0
    7.9093  -17.2482   25.5919 O   0  0  0  0  0  0  0  0  0  0  0  0
   11.9543  -18.1484   26.0662 C   0  0  0  0  0  0  0  0  0  0  0  0
   10.5345  -17.7809   26.4482 C   0  0  2  0  0  0  0  0  0  0  0  0
   10.1122  -16.6217   25.6862 N   0  0  0  0  0  0  0  0  0  0  0  0
   10.5073  -17.4905   27.8830 C   0  0  0  0  0  0  0  0  0  0  0  0
   10.7231  -18.4833   28.8423 O   0  0  0  0  0  0  0  0  0  0  0  0
   10.2832  -16.3113   28.2691 O   0  0  0  0  0  0  0  0  0  0  0  0
  1  2  1  0
  3  2  1  0
  4  3  1  0
  5  4  1  0
  5  6  1  1
  7  5  1  0
  8  7  2  0
  9 10  1  0
 11 10  1  0
 12 11  1  0
 13 12  1  1
 13 14  1  0
 14  7  1  0
 15 13  1  0
 15 19  1  0
 16 15  2  0
 18 17  1  6
 18 19  1  0
 18 20  1  0
 20 21  1  0
 22 20  2  0
M  END
$$$$
