MMA.pdb
     RDKit          3D

 22 21  0  0  1  0  0  0  0  0999 V2000
   10.5887  -14.5834   28.8563 C   0  0  0  0  0  0  0  0  0  0  0  0
   10.0889  -15.8902   30.0296 S   0  0  0  0  0  0  0  0  0  0  0  0
   10.0122  -17.4857   29.1344 C   0  0  0  0  0  0  0  0  0  0  0  0
    8.6302  -17.6457   28.5304 C   0  0  0  0  0  0  0  0  0  0  0  0
    8.8066  -17.8676   27.0442 C   0  0  2  0  0  0  0  0  0  0  0  0
   10.1110  -17.4541   26.5947 N   0  0  0  0  0  0  0  0  0  0  0  0
    7.7775  -17.0558   26.3436 C   0  0  0  0  0  0  0  0  0  0  0  0
    6.5482  -17.2598   26.4381 O   0  0  0  0  0  0  0  0  0  0  0  0
    7.2933  -11.1380   26.0353 C   0  0  0  0  0  0  0  0  0  0  0  0
    6.0574  -12.2956   26.6266 S   0  0  0  0  0  0  0  0  0  0  0  0
    6.2960  -13.9675   26.0058 C   0  0  0  0  0  0  0  0  0  0  0  0
    7.1333  -14.0075   24.7411 C   0  0  0  0  0  0  0  0  0  0  0  0
    7.3303  -15.4907   24.4414 C   0  0  2  0  0  0  0  0  0  0  0  0
    8.2059  -15.9839   25.5164 N   0  0  0  0  0  0  0  0  0  0  0  0
    7.9194  -15.7397   23.1329 C   0  0  0  0  0  0  0  0  0  0  0  0
    7.3141  -15.3975   22.0912 O   0  0  0  0  0  0  0  0  0  0  0  0
   10.3341  -15.3703   21.1228 C   0  0  0  0  0  0  0  0  0  0  0  0
    9.8012  -16.6547   21.7254 C   0  0  2  0  0  0  0  0  0  0  0  0
    9.1791  -16.3687   23.0037 N   0  0  0  0  0  0  0  0  0  0  0  0
   10.9228  -17.5803   21.8952 C   0  0  0  0  0  0  0  0  0  0  0  0
   11.6827  -18.0275   20.8113 O   0  0  0  0  0  0  0  0  0  0  0  0
   11.2155  -17.9883   23.0519 O   0  0  0  0  0  0  0  0  0  0  0  0
  1  2  1  0
  3  2  1  0
  4  3  1  0
  5  4  1  0
  5  6  1  6
  7  5  1  0
  8  7  2  0
  9 10  1  0
 11 10  1  0
 12 11  1  0
 13 12  1  1
 13 14  1  0
 14  7  1  0
 15 13  1  0
 15 19  1  0
 16 15  2  0
 18 17  1  1
 18 19  1  0
 18 20  1  0
 20 21  1  0
 22 20  2  0
M  END
$$$$
