MMA.pdb
     RDKit          3D

 22 21  0  0  1  0  0  0  0  0999 V2000
    8.1079  -11.7904   19.2871 C   0  0  0  0  0  0  0  0  0  0  0  0
    7.9855  -13.3379   18.3258 S   0  0  0  0  0  0  0  0  0  0  0  0
    7.6950  -14.7270   19.4829 C   0  0  0  0  0  0  0  0  0  0  0  0
    8.0395  -14.2766   20.8897 C   0  0  0  0  0  0  0  0  0  0  0  0
    8.7232  -15.4346   21.5830 C   0  0  2  0  0  0  0  0  0  0  0  0
    7.8401  -16.5624   21.7332 N   0  0  0  0  0  0  0  0  0  0  0  0
    9.1401  -14.9681   22.9312 C   0  0  0  0  0  0  0  0  0  0  0  0
   10.0857  -14.1759   23.1311 O   0  0  0  0  0  0  0  0  0  0  0  0
    6.5108  -11.5417   27.7510 C   0  0  0  0  0  0  0  0  0  0  0  0
    5.8578  -12.3447   26.2860 S   0  0  0  0  0  0  0  0  0  0  0  0
    7.0990  -13.2733   25.3725 C   0  0  0  0  0  0  0  0  0  0  0  0
    7.4889  -14.5660   26.0648 C   0  0  0  0  0  0  0  0  0  0  0  0
    8.8024  -14.9862   25.4118 C   0  0  2  0  0  0  0  0  0  0  0  0
    8.4288  -15.4446   24.0643 N   0  0  0  0  0  0  0  0  0  0  0  0
    9.4996  -16.0341   26.1449 C   0  0  0  0  0  0  0  0  0  0  0  0
    9.3704  -17.2338   25.8095 O   0  0  0  0  0  0  0  0  0  0  0  0
   11.7143  -16.0763   29.2049 C   0  0  0  0  0  0  0  0  0  0  0  0
   11.0196  -16.7360   28.0307 C   0  0  2  0  0  0  0  0  0  0  0  0
   10.3337  -15.7285   27.2450 N   0  0  0  0  0  0  0  0  0  0  0  0
   10.0664  -17.7161   28.5546 C   0  0  0  0  0  0  0  0  0  0  0  0
   10.4715  -18.9785   28.9957 O   0  0  0  0  0  0  0  0  0  0  0  0
    8.8429  -17.4164   28.6117 O   0  0  0  0  0  0  0  0  0  0  0  0
  1  2  1  0
  3  2  1  0
  4  3  1  0
  5  4  1  0
  5  6  1  1
  7  5  1  0
  8  7  2  0
  9 10  1  0
 11 10  1  0
 12 11  1  0
 13 12  1  1
 13 14  1  0
 14  7  1  0
 15 13  1  0
 15 19  1  0
 16 15  2  0
 18 17  1  1
 18 19  1  0
 18 20  1  0
 20 21  1  0
 22 20  2  0
M  END
$$$$
