MMA.pdb
     RDKit          3D

 22 21  0  0  1  0  0  0  0  0999 V2000
    6.2827  -11.9412   19.2114 C   0  0  0  0  0  0  0  0  0  0  0  0
    7.9816  -12.4475   19.6488 S   0  0  0  0  0  0  0  0  0  0  0  0
    7.9668  -14.2202   20.1072 C   0  0  0  0  0  0  0  0  0  0  0  0
    9.3205  -14.5918   20.6815 C   0  0  0  0  0  0  0  0  0  0  0  0
    9.1256  -15.8156   21.5496 C   0  0  2  0  0  0  0  0  0  0  0  0
    7.7475  -16.2332   21.5804 N   0  0  0  0  0  0  0  0  0  0  0  0
    9.5508  -15.4603   22.9287 C   0  0  0  0  0  0  0  0  0  0  0  0
   10.7025  -15.0751   23.2237 O   0  0  0  0  0  0  0  0  0  0  0  0
    6.6508  -11.6790   27.4547 C   0  0  0  0  0  0  0  0  0  0  0  0
    6.2251  -12.2868   25.8217 S   0  0  0  0  0  0  0  0  0  0  0  0
    7.4815  -13.3637   25.1152 C   0  0  0  0  0  0  0  0  0  0  0  0
    7.7594  -14.5814   25.9768 C   0  0  0  0  0  0  0  0  0  0  0  0
    8.9932  -15.2325   25.3588 C   0  0  2  0  0  0  0  0  0  0  0  0
    8.6004  -15.5611   23.9792 N   0  0  0  0  0  0  0  0  0  0  0  0
    9.4342  -16.4227   26.0733 C   0  0  0  0  0  0  0  0  0  0  0  0
    9.6966  -16.3650   27.2966 O   0  0  0  0  0  0  0  0  0  0  0  0
    9.5794  -20.0777   25.2031 C   0  0  0  0  0  0  0  0  0  0  0  0
    9.9131  -18.8984   26.0947 C   0  0  2  0  0  0  0  0  0  0  0  0
    9.5768  -17.6642   25.4118 N   0  0  0  0  0  0  0  0  0  0  0  0
   11.3447  -18.9446   26.3977 C   0  0  0  0  0  0  0  0  0  0  0  0
   11.9037  -19.9637   27.1731 O   0  0  0  0  0  0  0  0  0  0  0  0
   12.0995  -18.0404   25.9475 O   0  0  0  0  0  0  0  0  0  0  0  0
  1  2  1  0
  3  2  1  0
  4  3  1  0
  5  4  1  0
  5  6  1  1
  7  5  1  0
  8  7  2  0
  9 10  1  0
 11 10  1  0
 12 11  1  0
 13 12  1  1
 13 14  1  0
 14  7  1  0
 15 13  1  0
 15 19  1  0
 16 15  2  0
 18 17  1  6
 18 19  1  0
 18 20  1  0
 20 21  1  0
 22 20  2  0
M  END
$$$$
