MMA.pdb
     RDKit          3D

 22 21  0  0  1  0  0  0  0  0999 V2000
    7.5969  -11.2213   19.6135 C   0  0  0  0  0  0  0  0  0  0  0  0
    7.3139  -12.5953   18.4448 S   0  0  0  0  0  0  0  0  0  0  0  0
    7.8288  -14.1610   19.2425 C   0  0  0  0  0  0  0  0  0  0  0  0
    7.6978  -14.0138   20.7464 C   0  0  0  0  0  0  0  0  0  0  0  0
    8.1573  -15.3126   21.3719 C   0  0  2  0  0  0  0  0  0  0  0  0
    7.6595  -16.4564   20.6519 N   0  0  0  0  0  0  0  0  0  0  0  0
    7.6306  -15.3531   22.7612 C   0  0  0  0  0  0  0  0  0  0  0  0
    6.5357  -14.8581   23.1043 O   0  0  0  0  0  0  0  0  0  0  0  0
    5.8469  -11.7492   26.1600 C   0  0  0  0  0  0  0  0  0  0  0  0
    7.5086  -12.2847   26.5714 S   0  0  0  0  0  0  0  0  0  0  0  0
    7.6413  -14.0621   26.8176 C   0  0  0  0  0  0  0  0  0  0  0  0
    7.3386  -14.8510   25.5574 C   0  0  0  0  0  0  0  0  0  0  0  0
    8.7004  -15.2858   25.0237 C   0  0  2  0  0  0  0  0  0  0  0  0
    8.4096  -15.9889   23.7641 N   0  0  0  0  0  0  0  0  0  0  0  0
    9.4311  -16.1457   25.9447 C   0  0  0  0  0  0  0  0  0  0  0  0
   10.3169  -15.6668   26.6893 O   0  0  0  0  0  0  0  0  0  0  0  0
   11.1216  -18.3373   24.8465 C   0  0  0  0  0  0  0  0  0  0  0  0
   10.1994  -18.5460   26.0308 C   0  0  2  0  0  0  0  0  0  0  0  0
    9.1630  -17.5318   26.0227 N   0  0  0  0  0  0  0  0  0  0  0  0
   10.9982  -18.4548   27.2544 C   0  0  0  0  0  0  0  0  0  0  0  0
   12.0034  -19.3787   27.5515 O   0  0  0  0  0  0  0  0  0  0  0  0
   10.7762  -17.5164   28.0669 O   0  0  0  0  0  0  0  0  0  0  0  0
  1  2  1  0
  3  2  1  0
  4  3  1  0
  5  4  1  0
  5  6  1  6
  7  5  1  0
  8  7  2  0
  9 10  1  0
 11 10  1  0
 12 11  1  0
 13 12  1  1
 13 14  1  0
 14  7  1  0
 15 13  1  0
 15 19  1  0
 16 15  2  0
 18 17  1  6
 18 19  1  0
 18 20  1  0
 20 21  1  0
 22 20  2  0
M  END
$$$$
