MMA.pdb
     RDKit          3D

 22 21  0  0  1  0  0  0  0  0999 V2000
    8.8305  -11.5610   19.3133 C   0  0  0  0  0  0  0  0  0  0  0  0
    7.2470  -12.4632   19.2016 S   0  0  0  0  0  0  0  0  0  0  0  0
    7.3625  -13.9813   20.2188 C   0  0  0  0  0  0  0  0  0  0  0  0
    8.5428  -14.8055   19.7413 C   0  0  0  0  0  0  0  0  0  0  0  0
    8.5846  -16.0661   20.5770 C   0  0  2  0  0  0  0  0  0  0  0  0
    7.2923  -16.6972   20.6545 N   0  0  0  0  0  0  0  0  0  0  0  0
    9.0149  -15.6827   21.9470 C   0  0  0  0  0  0  0  0  0  0  0  0
   10.1395  -15.2085   22.2153 O   0  0  0  0  0  0  0  0  0  0  0  0
    7.1080  -11.2096   26.6803 C   0  0  0  0  0  0  0  0  0  0  0  0
    6.4841  -12.8814   26.8629 S   0  0  0  0  0  0  0  0  0  0  0  0
    7.6192  -14.1340   26.2468 C   0  0  0  0  0  0  0  0  0  0  0  0
    7.2350  -14.6451   24.8708 C   0  0  0  0  0  0  0  0  0  0  0  0
    8.4603  -15.4058   24.3726 C   0  0  2  0  0  0  0  0  0  0  0  0
    8.1022  -15.8620   23.0202 N   0  0  0  0  0  0  0  0  0  0  0  0
    8.8241  -16.5306   25.2235 C   0  0  0  0  0  0  0  0  0  0  0  0
    7.9357  -17.2503   25.7345 O   0  0  0  0  0  0  0  0  0  0  0  0
   12.0736  -18.2669   25.9746 C   0  0  0  0  0  0  0  0  0  0  0  0
   10.5981  -18.0215   26.2181 C   0  0  2  0  0  0  0  0  0  0  0  0
   10.1776  -16.8379   25.4934 N   0  0  0  0  0  0  0  0  0  0  0  0
   10.3954  -17.8423   27.6570 C   0  0  0  0  0  0  0  0  0  0  0  0
   10.4537  -18.9145   28.5509 O   0  0  0  0  0  0  0  0  0  0  0  0
   10.1613  -16.6880   28.1073 O   0  0  0  0  0  0  0  0  0  0  0  0
  1  2  1  0
  3  2  1  0
  4  3  1  0
  5  4  1  0
  5  6  1  1
  7  5  1  0
  8  7  2  0
  9 10  1  0
 11 10  1  0
 12 11  1  0
 13 12  1  1
 13 14  1  0
 14  7  1  0
 15 13  1  0
 15 19  1  0
 16 15  2  0
 18 17  1  1
 18 19  1  0
 18 20  1  0
 20 21  1  0
 22 20  2  0
M  END
$$$$
