MMA.pdb
     RDKit          3D

 22 21  0  0  1  0  0  0  0  0999 V2000
    8.5827  -12.1430   18.7360 C   0  0  0  0  0  0  0  0  0  0  0  0
    7.8666  -13.5851   17.8749 S   0  0  0  0  0  0  0  0  0  0  0  0
    7.9132  -15.0262   19.0036 C   0  0  0  0  0  0  0  0  0  0  0  0
    8.6440  -14.6339   20.2734 C   0  0  0  0  0  0  0  0  0  0  0  0
    8.6375  -15.8365   21.1915 C   0  0  2  0  0  0  0  0  0  0  0  0
    7.3542  -16.4903   21.2043 N   0  0  0  0  0  0  0  0  0  0  0  0
    8.9452  -15.3555   22.5638 C   0  0  0  0  0  0  0  0  0  0  0  0
   10.0723  -14.9525   22.9228 O   0  0  0  0  0  0  0  0  0  0  0  0
    6.2041  -10.9890   28.2585 C   0  0  0  0  0  0  0  0  0  0  0  0
    5.8363  -11.9534   26.7915 S   0  0  0  0  0  0  0  0  0  0  0  0
    7.1178  -13.1505   26.3891 C   0  0  0  0  0  0  0  0  0  0  0  0
    6.9298  -13.7691   25.0164 C   0  0  0  0  0  0  0  0  0  0  0  0
    8.1195  -14.7074   24.8367 C   0  0  2  0  0  0  0  0  0  0  0  0
    7.9046  -15.3498   23.5303 N   0  0  0  0  0  0  0  0  0  0  0  0
    8.2325  -15.7019   25.8949 C   0  0  0  0  0  0  0  0  0  0  0  0
    8.2708  -15.3466   27.0952 O   0  0  0  0  0  0  0  0  0  0  0  0
    7.4762  -19.2500   26.2991 C   0  0  0  0  0  0  0  0  0  0  0  0
    8.4256  -18.1114   26.6134 C   0  0  2  0  0  0  0  0  0  0  0  0
    8.3015  -17.0828   25.5988 N   0  0  0  0  0  0  0  0  0  0  0  0
    9.7884  -18.6459   26.6395 C   0  0  0  0  0  0  0  0  0  0  0  0
   10.2081  -19.5531   27.6158 O   0  0  0  0  0  0  0  0  0  0  0  0
   10.6111  -18.2797   25.7568 O   0  0  0  0  0  0  0  0  0  0  0  0
  1  2  1  0
  3  2  1  0
  4  3  1  0
  5  4  1  0
  5  6  1  1
  7  5  1  0
  8  7  2  0
  9 10  1  0
 11 10  1  0
 12 11  1  0
 13 12  1  1
 13 14  1  0
 14  7  1  0
 15 13  1  0
 15 19  1  0
 16 15  2  0
 18 17  1  6
 18 19  1  0
 18 20  1  0
 20 21  1  0
 22 20  2  0
M  END
$$$$
