MMA.pdb
     RDKit          3D

 22 21  0  0  1  0  0  0  0  0999 V2000
    8.4928  -11.4712   19.7598 C   0  0  0  0  0  0  0  0  0  0  0  0
    7.5182  -12.7105   18.8387 S   0  0  0  0  0  0  0  0  0  0  0  0
    7.4932  -14.2699   19.7981 C   0  0  0  0  0  0  0  0  0  0  0  0
    8.8765  -14.5198   20.3678 C   0  0  0  0  0  0  0  0  0  0  0  0
    8.7932  -15.7545   21.2383 C   0  0  2  0  0  0  0  0  0  0  0  0
    7.4799  -16.3448   21.2018 N   0  0  0  0  0  0  0  0  0  0  0  0
    9.0955  -15.3415   22.6337 C   0  0  0  0  0  0  0  0  0  0  0  0
   10.2090  -14.9139   23.0064 O   0  0  0  0  0  0  0  0  0  0  0  0
    6.0028  -10.8938   26.1251 C   0  0  0  0  0  0  0  0  0  0  0  0
    6.1467  -12.3129   27.2127 S   0  0  0  0  0  0  0  0  0  0  0  0
    7.3917  -13.4956   26.6757 C   0  0  0  0  0  0  0  0  0  0  0  0
    7.1182  -14.0423   25.2869 C   0  0  0  0  0  0  0  0  0  0  0  0
    8.3041  -14.9509   24.9766 C   0  0  2  0  0  0  0  0  0  0  0  0
    8.0658  -15.4345   23.6073 N   0  0  0  0  0  0  0  0  0  0  0  0
    8.4354  -16.0633   25.9075 C   0  0  0  0  0  0  0  0  0  0  0  0
    8.5805  -15.8488   27.1329 O   0  0  0  0  0  0  0  0  0  0  0  0
    7.6981  -19.7034   25.7434 C   0  0  0  0  0  0  0  0  0  0  0  0
    8.4671  -18.5460   26.3484 C   0  0  2  0  0  0  0  0  0  0  0  0
    8.4030  -17.4034   25.4578 N   0  0  0  0  0  0  0  0  0  0  0  0
    9.8550  -18.9699   26.5415 C   0  0  0  0  0  0  0  0  0  0  0  0
   10.9044  -18.4273   25.7954 O   0  0  0  0  0  0  0  0  0  0  0  0
   10.1160  -19.8503   27.4058 O   0  0  0  0  0  0  0  0  0  0  0  0
  1  2  1  0
  3  2  1  0
  4  3  1  0
  5  4  1  0
  5  6  1  1
  7  5  1  0
  8  7  2  0
  9 10  1  0
 11 10  1  0
 12 11  1  0
 13 12  1  1
 13 14  1  0
 14  7  1  0
 15 13  1  0
 15 19  1  0
 16 15  2  0
 18 17  1  6
 18 19  1  0
 18 20  1  0
 20 21  1  0
 22 20  2  0
M  END
$$$$
