MMA.pdb
     RDKit          3D

 22 21  0  0  1  0  0  0  0  0999 V2000
    7.9078  -11.5350   19.6357 C   0  0  0  0  0  0  0  0  0  0  0  0
    8.3363  -12.8426   18.4355 S   0  0  0  0  0  0  0  0  0  0  0  0
    7.4859  -14.3893   18.9230 C   0  0  0  0  0  0  0  0  0  0  0  0
    7.3310  -14.4117   20.4316 C   0  0  0  0  0  0  0  0  0  0  0  0
    8.1313  -15.5849   20.9534 C   0  0  2  0  0  0  0  0  0  0  0  0
    7.3552  -16.7982   20.9612 N   0  0  0  0  0  0  0  0  0  0  0  0
    8.5389  -15.2665   22.3468 C   0  0  0  0  0  0  0  0  0  0  0  0
    9.4674  -14.4822   22.6376 O   0  0  0  0  0  0  0  0  0  0  0  0
    8.4185  -12.6297   28.6648 C   0  0  0  0  0  0  0  0  0  0  0  0
    8.0332  -13.1059   26.9789 S   0  0  0  0  0  0  0  0  0  0  0  0
    7.2215  -14.7073   26.8614 C   0  0  0  0  0  0  0  0  0  0  0  0
    6.8677  -15.0801   25.4338 C   0  0  0  0  0  0  0  0  0  0  0  0
    8.1787  -15.5474   24.8083 C   0  0  2  0  0  0  0  0  0  0  0  0
    7.8386  -15.8842   23.4168 N   0  0  0  0  0  0  0  0  0  0  0  0
    8.7673  -16.6903   25.4930 C   0  0  0  0  0  0  0  0  0  0  0  0
    8.0438  -17.6352   25.8831 O   0  0  0  0  0  0  0  0  0  0  0  0
   12.2521  -17.9732   25.8868 C   0  0  0  0  0  0  0  0  0  0  0  0
   10.8052  -17.9148   26.3338 C   0  0  2  0  0  0  0  0  0  0  0  0
   10.1587  -16.7638   25.7337 N   0  0  0  0  0  0  0  0  0  0  0  0
   10.7811  -17.8146   27.7942 C   0  0  0  0  0  0  0  0  0  0  0  0
   11.2100  -18.8615   28.6142 O   0  0  0  0  0  0  0  0  0  0  0  0
   10.3619  -16.7541   28.3324 O   0  0  0  0  0  0  0  0  0  0  0  0
  1  2  1  0
  3  2  1  0
  4  3  1  0
  5  4  1  0
  5  6  1  1
  7  5  1  0
  8  7  2  0
  9 10  1  0
 11 10  1  0
 12 11  1  0
 13 12  1  1
 13 14  1  0
 14  7  1  0
 15 13  1  0
 15 19  1  0
 16 15  2  0
 18 17  1  6
 18 19  1  0
 18 20  1  0
 20 21  1  0
 22 20  2  0
M  END
$$$$
