KPY.pdb
     RDKit          3D

 29 30  0  0  1  0  0  0  0  0999 V2000
    6.7437  -18.8330   19.8373 N   0  0  0  0  0  0  0  0  0  0  0  0
    6.3572  -17.5199   20.3042 C   0  0  1  0  0  0  0  0  0  0  0  0
    5.4674  -17.6605   21.4929 C   0  0  0  0  0  0  0  0  0  0  0  0
    4.9707  -19.0009   21.8424 C   0  0  0  0  0  0  0  0  0  0  0  0
    5.8109  -19.7655   22.8113 C   0  0  0  0  0  0  0  0  0  0  0  0
    5.0931  -21.0497   23.2597 C   0  0  0  0  0  0  0  0  0  0  0  0
    6.0786  -21.8104   24.0028 N   0  0  0  0  0  0  0  0  0  0  0  0
    7.5893  -16.7746   20.6874 C   0  0  0  0  0  0  0  0  0  0  0  0
    8.6210  -17.4338   20.9462 O   0  0  0  0  0  0  0  0  0  0  0  0
    7.6634  -15.3582   20.7766 N   0  0  0  0  0  0  0  0  0  0  0  0
    6.6347  -14.3807   20.4651 C   0  0  0  0  0  0  0  0  0  0  0  0
    7.4812  -13.2975   19.7873 C   0  0  0  0  0  0  0  0  0  0  0  0
    8.5944  -13.1686   20.8150 C   0  0  0  0  0  0  0  0  0  0  0  0
    8.8257  -14.6115   21.2013 C   0  0  1  0  0  0  0  0  0  0  0  0
    8.9836  -14.6502   22.6865 C   0  0  0  0  0  0  0  0  0  0  0  0
    8.1291  -14.0447   23.3811 O   0  0  0  0  0  0  0  0  0  0  0  0
    5.5027  -11.5109   26.6089 O   0  0  0  0  0  0  0  0  0  0  0  0
    6.3253  -12.5827   26.3211 C   0  0  0  0  0  0  0  0  0  0  0  0
    7.6694  -12.4966   26.5677 C   0  0  0  0  0  0  0  0  0  0  0  0
    8.5092  -13.5426   26.2927 C   0  0  0  0  0  0  0  0  0  0  0  0
    7.9968  -14.7175   25.7532 C   0  0  0  0  0  0  0  0  0  0  0  0
    8.9366  -15.8209   25.4626 C   0  0  0  0  0  0  0  0  0  0  0  0
   10.2079  -15.3382   24.7872 C   0  0  2  0  0  0  0  0  0  0  0  0
   10.0282  -15.3226   23.3330 N   0  0  0  0  0  0  0  0  0  0  0  0
   11.3754  -16.2016   25.0726 C   0  0  0  0  0  0  0  0  0  0  0  0
   11.9925  -16.9363   24.0683 O   0  0  0  0  0  0  0  0  0  0  0  0
    6.6434  -14.8024   25.5053 C   0  0  0  0  0  0  0  0  0  0  0  0
    5.7995  -13.7316   25.7894 C   0  0  0  0  0  0  0  0  0  0  0  0
   11.8694  -16.3175   26.2292 O   0  0  0  0  0  0  0  0  0  0  0  0
  2  1  1  1
  3  4  1  0
  3  2  1  0
  5  4  1  0
  6  5  1  0
  7  6  1  0
  8  2  1  0
  8 10  1  0
  9  8  2  0
 10 14  1  0
 11 12  1  0
 11 10  1  0
 12 13  1  0
 14 13  1  0
 14 15  1  1
 15 16  2  0
 17 18  1  0
 18 28  2  0
 19 18  1  0
 19 20  2  0
 20 21  1  0
 21 27  2  0
 21 22  1  0
 23 22  1  1
 23 25  1  0
 24 15  1  0
 24 23  1  0
 25 26  1  0
 28 27  1  0
 29 25  2  0
M  END
$$$$
