KPY.pdb
     RDKit          3D

 29 30  0  0  1  0  0  0  0  0999 V2000
    7.2443  -12.7396   19.0750 N   0  0  0  0  0  0  0  0  0  0  0  0
    8.2408  -13.7240   19.4346 C   0  0  1  0  0  0  0  0  0  0  0  0
    9.5427  -13.0405   19.6845 C   0  0  0  0  0  0  0  0  0  0  0  0
   10.6769  -13.8461   20.1642 C   0  0  0  0  0  0  0  0  0  0  0  0
   11.8721  -13.8705   19.2696 C   0  0  0  0  0  0  0  0  0  0  0  0
   12.9081  -14.8899   19.7725 C   0  0  0  0  0  0  0  0  0  0  0  0
   14.0602  -14.7378   18.9057 N   0  0  0  0  0  0  0  0  0  0  0  0
    7.7931  -14.4158   20.6762 C   0  0  0  0  0  0  0  0  0  0  0  0
    7.2908  -13.7228   21.5892 O   0  0  0  0  0  0  0  0  0  0  0  0
    7.9023  -15.8170   20.8862 N   0  0  0  0  0  0  0  0  0  0  0  0
    8.4444  -16.8231   19.9891 C   0  0  0  0  0  0  0  0  0  0  0  0
    7.4458  -17.9629   20.2189 C   0  0  0  0  0  0  0  0  0  0  0  0
    7.4408  -17.9901   21.7392 C   0  0  0  0  0  0  0  0  0  0  0  0
    7.4667  -16.5163   22.0737 C   0  0  1  0  0  0  0  0  0  0  0  0
    8.4358  -16.3362   23.1966 C   0  0  0  0  0  0  0  0  0  0  0  0
    9.6477  -16.1790   22.9031 O   0  0  0  0  0  0  0  0  0  0  0  0
    5.7679  -10.7201   26.0782 O   0  0  0  0  0  0  0  0  0  0  0  0
    6.3585  -11.9512   26.2877 C   0  0  0  0  0  0  0  0  0  0  0  0
    7.7034  -12.1065   26.0823 C   0  0  0  0  0  0  0  0  0  0  0  0
    8.3162  -13.3146   26.2818 C   0  0  0  0  0  0  0  0  0  0  0  0
    7.5675  -14.4092   26.7006 C   0  0  0  0  0  0  0  0  0  0  0  0
    8.2640  -15.6982   26.8969 C   0  0  0  0  0  0  0  0  0  0  0  0
    9.0041  -16.1538   25.6519 C   0  0  2  0  0  0  0  0  0  0  0  0
    8.0603  -16.3347   24.5457 N   0  0  0  0  0  0  0  0  0  0  0  0
    9.7078  -17.4422   25.8392 C   0  0  0  0  0  0  0  0  0  0  0  0
    9.2722  -18.6007   25.2091 O   0  0  0  0  0  0  0  0  0  0  0  0
    6.2136  -14.2510   26.9066 C   0  0  0  0  0  0  0  0  0  0  0  0
    5.6019  -13.0171   26.7004 C   0  0  0  0  0  0  0  0  0  0  0  0
   10.7297  -17.5591   26.5723 O   0  0  0  0  0  0  0  0  0  0  0  0
  2  1  1  1
  3  4  1  0
  3  2  1  0
  5  4  1  0
  6  5  1  0
  7  6  1  0
  8  2  1  0
  8 10  1  0
  9  8  2  0
 10 14  1  0
 11 12  1  0
 11 10  1  0
 12 13  1  0
 14 13  1  0
 14 15  1  1
 15 16  2  0
 17 18  1  0
 18 28  2  0
 19 18  1  0
 19 20  2  0
 20 21  1  0
 21 27  2  0
 21 22  1  0
 23 22  1  1
 23 25  1  0
 24 15  1  0
 24 23  1  0
 25 26  1  0
 28 27  1  0
 29 25  2  0
M  END
$$$$
