KPY.pdb
     RDKit          3D

 29 30  0  0  1  0  0  0  0  0999 V2000
    7.4322  -17.8557   17.0419 N   0  0  0  0  0  0  0  0  0  0  0  0
    6.8941  -16.9640   18.0452 C   0  0  1  0  0  0  0  0  0  0  0  0
    6.0995  -17.7519   19.0313 C   0  0  0  0  0  0  0  0  0  0  0  0
    5.0667  -18.6703   18.5258 C   0  0  0  0  0  0  0  0  0  0  0  0
    4.9616  -19.9763   19.2418 C   0  0  0  0  0  0  0  0  0  0  0  0
    3.9351  -20.8929   18.5549 C   0  0  0  0  0  0  0  0  0  0  0  0
    3.9710  -22.1418   19.2904 N   0  0  0  0  0  0  0  0  0  0  0  0
    8.0304  -16.2951   18.7394 C   0  0  0  0  0  0  0  0  0  0  0  0
    9.1168  -16.9109   18.8207 O   0  0  0  0  0  0  0  0  0  0  0  0
    7.9547  -14.9981   19.3151 N   0  0  0  0  0  0  0  0  0  0  0  0
    6.8236  -14.0864   19.3367 C   0  0  0  0  0  0  0  0  0  0  0  0
    7.5406  -12.7532   19.0964 C   0  0  0  0  0  0  0  0  0  0  0  0
    8.6478  -12.8731   20.1316 C   0  0  0  0  0  0  0  0  0  0  0  0
    9.0366  -14.3278   19.9998 C   0  0  1  0  0  0  0  0  0  0  0  0
    9.2183  -14.8624   21.3831 C   0  0  0  0  0  0  0  0  0  0  0  0
    8.1852  -15.1380   22.0436 O   0  0  0  0  0  0  0  0  0  0  0  0
   11.0442  -19.6845   28.2128 O   0  0  0  0  0  0  0  0  0  0  0  0
   10.8219  -19.0505   27.0057 C   0  0  0  0  0  0  0  0  0  0  0  0
    9.8360  -18.1059   26.9027 C   0  0  0  0  0  0  0  0  0  0  0  0
    9.5928  -17.4611   25.7194 C   0  0  0  0  0  0  0  0  0  0  0  0
   10.3556  -17.7646   24.5969 C   0  0  0  0  0  0  0  0  0  0  0  0
   10.0569  -17.0529   23.3360 C   0  0  0  0  0  0  0  0  0  0  0  0
   10.6608  -15.6604   23.2981 C   0  0  2  0  0  0  0  0  0  0  0  0
   10.4725  -15.0682   21.9711 N   0  0  0  0  0  0  0  0  0  0  0  0
   12.1146  -15.6552   23.5752 C   0  0  0  0  0  0  0  0  0  0  0  0
   12.6014  -15.6593   24.8760 O   0  0  0  0  0  0  0  0  0  0  0  0
   11.3475  -18.7160   24.7024 C   0  0  0  0  0  0  0  0  0  0  0  0
   11.5854  -19.3648   25.9114 C   0  0  0  0  0  0  0  0  0  0  0  0
   12.9822  -15.6469   22.6573 O   0  0  0  0  0  0  0  0  0  0  0  0
  2  1  1  6
  3  4  1  0
  3  2  1  0
  5  4  1  0
  6  5  1  0
  7  6  1  0
  8  2  1  0
  8 10  1  0
  9  8  2  0
 10 14  1  0
 11 12  1  0
 11 10  1  0
 12 13  1  0
 14 13  1  0
 14 15  1  1
 15 16  2  0
 17 18  1  0
 18 28  2  0
 19 18  1  0
 19 20  2  0
 20 21  1  0
 21 27  2  0
 21 22  1  0
 23 22  1  6
 23 25  1  0
 24 15  1  0
 24 23  1  0
 25 26  1  0
 28 27  1  0
 29 25  2  0
M  END
$$$$
