KPY.pdb
     RDKit          3D

 29 30  0  0  1  0  0  0  0  0999 V2000
   10.0519  -18.0394   19.9186 N   0  0  0  0  0  0  0  0  0  0  0  0
    8.9400  -17.1208   19.8130 C   0  0  1  0  0  0  0  0  0  0  0  0
    7.6604  -17.8831   19.8906 C   0  0  0  0  0  0  0  0  0  0  0  0
    7.3794  -18.8887   18.8535 C   0  0  0  0  0  0  0  0  0  0  0  0
    6.1165  -19.6642   19.0355 C   0  0  0  0  0  0  0  0  0  0  0  0
    5.8904  -20.6219   17.8534 C   0  0  0  0  0  0  0  0  0  0  0  0
    4.6489  -21.3132   18.1411 N   0  0  0  0  0  0  0  0  0  0  0  0
    9.0165  -16.1561   20.9461 C   0  0  0  0  0  0  0  0  0  0  0  0
    9.6196  -16.5113   21.9835 O   0  0  0  0  0  0  0  0  0  0  0  0
    8.4454  -14.8551   20.9196 N   0  0  0  0  0  0  0  0  0  0  0  0
    7.7311  -14.2066   19.8332 C   0  0  0  0  0  0  0  0  0  0  0  0
    8.2817  -12.7814   19.9545 C   0  0  0  0  0  0  0  0  0  0  0  0
    8.0864  -12.5625   21.4464 C   0  0  0  0  0  0  0  0  0  0  0  0
    8.4848  -13.9073   22.0099 C   0  0  1  0  0  0  0  0  0  0  0  0
    7.4886  -14.2543   23.0680 C   0  0  0  0  0  0  0  0  0  0  0  0
    6.4099  -14.7859   22.7032 O   0  0  0  0  0  0  0  0  0  0  0  0
   11.7876  -14.3087   29.2505 O   0  0  0  0  0  0  0  0  0  0  0  0
   10.6156  -14.5556   28.5622 C   0  0  0  0  0  0  0  0  0  0  0  0
   10.6412  -15.3108   27.4203 C   0  0  0  0  0  0  0  0  0  0  0  0
    9.4956  -15.5721   26.7172 C   0  0  0  0  0  0  0  0  0  0  0  0
    8.2797  -15.0656   27.1633 C   0  0  0  0  0  0  0  0  0  0  0  0
    7.0667  -15.3628   26.3722 C   0  0  0  0  0  0  0  0  0  0  0  0
    6.6732  -14.2152   25.4593 C   0  0  2  0  0  0  0  0  0  0  0  0
    7.6992  -14.0173   24.4320 N   0  0  0  0  0  0  0  0  0  0  0  0
    6.5247  -12.9309   26.1797 C   0  0  0  0  0  0  0  0  0  0  0  0
    7.4194  -11.8866   25.9852 O   0  0  0  0  0  0  0  0  0  0  0  0
    8.2558  -14.3053   28.3129 C   0  0  0  0  0  0  0  0  0  0  0  0
    9.4278  -14.0466   29.0193 C   0  0  0  0  0  0  0  0  0  0  0  0
    5.5891  -12.7153   27.0003 O   0  0  0  0  0  0  0  0  0  0  0  0
  2  1  1  1
  3  4  1  0
  3  2  1  0
  5  4  1  0
  6  5  1  0
  7  6  1  0
  8  2  1  0
  8 10  1  0
  9  8  2  0
 10 14  1  0
 11 12  1  0
 11 10  1  0
 12 13  1  0
 14 13  1  0
 14 15  1  1
 15 16  2  0
 17 18  1  0
 18 28  2  0
 19 18  1  0
 19 20  2  0
 20 21  1  0
 21 27  2  0
 21 22  1  0
 23 22  1  1
 23 25  1  0
 24 15  1  0
 24 23  1  0
 25 26  1  0
 28 27  1  0
 29 25  2  0
M  END
$$$$
