KPY.pdb
     RDKit          3D

 29 30  0  0  1  0  0  0  0  0999 V2000
   11.9554  -15.5158   18.3883 N   0  0  0  0  0  0  0  0  0  0  0  0
   10.6384  -16.0312   18.6905 C   0  0  1  0  0  0  0  0  0  0  0  0
   10.7099  -17.5139   18.8365 C   0  0  0  0  0  0  0  0  0  0  0  0
   11.7040  -18.0802   19.7620 C   0  0  0  0  0  0  0  0  0  0  0  0
   11.7506  -19.5714   19.8216 C   0  0  0  0  0  0  0  0  0  0  0  0
   12.7452  -20.0427   20.8960 C   0  0  0  0  0  0  0  0  0  0  0  0
   12.6766  -21.4908   20.8853 N   0  0  0  0  0  0  0  0  0  0  0  0
   10.1775  -15.4246   19.9712 C   0  0  0  0  0  0  0  0  0  0  0  0
   11.0439  -15.0020   20.7693 O   0  0  0  0  0  0  0  0  0  0  0  0
    8.8114  -15.2965   20.3412 N   0  0  0  0  0  0  0  0  0  0  0  0
    7.6357  -15.7500   19.6179 C   0  0  0  0  0  0  0  0  0  0  0  0
    6.6887  -14.5706   19.8661 C   0  0  0  0  0  0  0  0  0  0  0  0
    6.8483  -14.4325   21.3719 C   0  0  0  0  0  0  0  0  0  0  0  0
    8.3326  -14.6586   21.5464 C   0  0  1  0  0  0  0  0  0  0  0  0
    8.5065  -15.5451   22.7364 C   0  0  0  0  0  0  0  0  0  0  0  0
    8.5794  -16.7837   22.5368 O   0  0  0  0  0  0  0  0  0  0  0  0
    5.1893  -10.9273   26.8276 O   0  0  0  0  0  0  0  0  0  0  0  0
    6.1017  -11.9614   26.7480 C   0  0  0  0  0  0  0  0  0  0  0  0
    7.3838  -11.7099   26.3380 C   0  0  0  0  0  0  0  0  0  0  0  0
    8.3098  -12.7147   26.2494 C   0  0  0  0  0  0  0  0  0  0  0  0
    7.9509  -14.0172   26.5795 C   0  0  0  0  0  0  0  0  0  0  0  0
    8.9766  -15.0753   26.4629 C   0  0  0  0  0  0  0  0  0  0  0  0
    8.7952  -15.9251   25.2178 C   0  0  2  0  0  0  0  0  0  0  0  0
    8.5909  -15.0649   24.0492 N   0  0  0  0  0  0  0  0  0  0  0  0
    7.6269  -16.8295   25.3027 C   0  0  0  0  0  0  0  0  0  0  0  0
    7.6582  -17.9777   26.0834 O   0  0  0  0  0  0  0  0  0  0  0  0
    6.6597  -14.2685   26.9918 C   0  0  0  0  0  0  0  0  0  0  0  0
    5.7270  -13.2380   27.0780 C   0  0  0  0  0  0  0  0  0  0  0  0
    6.5506  -16.6111   24.6788 O   0  0  0  0  0  0  0  0  0  0  0  0
  2  1  1  1
  3  4  1  0
  3  2  1  0
  5  4  1  0
  6  5  1  0
  7  6  1  0
  8  2  1  0
  8 10  1  0
  9  8  2  0
 10 14  1  0
 11 12  1  0
 11 10  1  0
 12 13  1  0
 14 13  1  0
 14 15  1  1
 15 16  2  0
 17 18  1  0
 18 28  2  0
 19 18  1  0
 19 20  2  0
 20 21  1  0
 21 27  2  0
 21 22  1  0
 23 22  1  1
 23 25  1  0
 24 15  1  0
 24 23  1  0
 25 26  1  0
 28 27  1  0
 29 25  2  0
M  END
$$$$
