KPY.pdb
     RDKit          3D

 29 30  0  0  1  0  0  0  0  0999 V2000
    8.1703  -18.5245   18.9106 N   0  0  0  0  0  0  0  0  0  0  0  0
    7.3046  -17.4858   19.4236 C   0  0  1  0  0  0  0  0  0  0  0  0
    6.2520  -18.1001   20.2834 C   0  0  0  0  0  0  0  0  0  0  0  0
    6.3956  -19.5140   20.6653 C   0  0  0  0  0  0  0  0  0  0  0  0
    5.9903  -19.8467   22.0633 C   0  0  0  0  0  0  0  0  0  0  0  0
    4.9752  -21.0021   22.0758 C   0  0  0  0  0  0  0  0  0  0  0  0
    5.6301  -22.0915   22.7731 N   0  0  0  0  0  0  0  0  0  0  0  0
    8.1271  -16.5452   20.2355 C   0  0  0  0  0  0  0  0  0  0  0  0
    9.1735  -16.9825   20.7646 O   0  0  0  0  0  0  0  0  0  0  0  0
    7.7946  -15.1796   20.4452 N   0  0  0  0  0  0  0  0  0  0  0  0
    6.6906  -14.4238   19.8787 C   0  0  0  0  0  0  0  0  0  0  0  0
    7.3866  -13.0866   19.6017 C   0  0  0  0  0  0  0  0  0  0  0  0
    8.0578  -12.8688   20.9486 C   0  0  0  0  0  0  0  0  0  0  0  0
    8.5318  -14.2639   21.2858 C   0  0  1  0  0  0  0  0  0  0  0  0
    8.2335  -14.4932   22.7317 C   0  0  0  0  0  0  0  0  0  0  0  0
    7.0927  -14.1733   23.1509 O   0  0  0  0  0  0  0  0  0  0  0  0
    6.4714  -20.5266   23.4849 O   0  0  0  0  0  0  0  0  0  0  0  0
    6.7910  -19.2882   24.0070 C   0  0  0  0  0  0  0  0  0  0  0  0
    6.0400  -18.1928   23.6736 C   0  0  0  0  0  0  0  0  0  0  0  0
    6.3329  -16.9530   24.1755 C   0  0  0  0  0  0  0  0  0  0  0  0
    7.4106  -16.7937   25.0400 C   0  0  0  0  0  0  0  0  0  0  0  0
    7.6995  -15.4380   25.5540 C   0  0  0  0  0  0  0  0  0  0  0  0
    9.0461  -14.9148   25.0869 C   0  0  2  0  0  0  0  0  0  0  0  0
    9.1559  -15.0420   23.6312 N   0  0  0  0  0  0  0  0  0  0  0  0
   10.1863  -15.6519   25.6758 C   0  0  0  0  0  0  0  0  0  0  0  0
   11.1061  -16.3174   24.8757 O   0  0  0  0  0  0  0  0  0  0  0  0
    8.1657  -17.8975   25.3744 C   0  0  0  0  0  0  0  0  0  0  0  0
    7.8576  -19.1534   24.8574 C   0  0  0  0  0  0  0  0  0  0  0  0
   10.3843  -15.7164   26.9215 O   0  0  0  0  0  0  0  0  0  0  0  0
  2  1  1  1
  3  4  1  0
  3  2  1  0
  5  4  1  0
  6  5  1  0
  7  6  1  0
  8  2  1  0
  8 10  1  0
  9  8  2  0
 10 14  1  0
 11 12  1  0
 11 10  1  0
 12 13  1  0
 14 13  1  0
 14 15  1  1
 15 16  2  0
 17 18  1  0
 18 28  2  0
 19 18  1  0
 19 20  2  0
 20 21  1  0
 21 27  2  0
 21 22  1  0
 23 22  1  1
 23 25  1  0
 24 15  1  0
 24 23  1  0
 25 26  1  0
 28 27  1  0
 29 25  2  0
M  END
$$$$
