KPY.pdb
     RDKit          3D

 29 30  0  0  1  0  0  0  0  0999 V2000
    7.8855  -12.6709   18.1400 N   0  0  0  0  0  0  0  0  0  0  0  0
    8.6513  -13.8554   18.4591 C   0  0  1  0  0  0  0  0  0  0  0  0
   10.1062  -13.5299   18.4139 C   0  0  0  0  0  0  0  0  0  0  0  0
   11.0717  -14.5839   18.7640 C   0  0  0  0  0  0  0  0  0  0  0  0
   12.5103  -14.1962   18.6661 C   0  0  0  0  0  0  0  0  0  0  0  0
   13.4196  -15.4153   18.8952 C   0  0  0  0  0  0  0  0  0  0  0  0
   14.7747  -14.9331   18.7133 N   0  0  0  0  0  0  0  0  0  0  0  0
    8.2811  -14.3001   19.8323 C   0  0  0  0  0  0  0  0  0  0  0  0
    8.0083  -13.4235   20.6827 O   0  0  0  0  0  0  0  0  0  0  0  0
    8.2188  -15.6615   20.2348 N   0  0  0  0  0  0  0  0  0  0  0  0
    8.6899  -16.8351   19.5194 C   0  0  0  0  0  0  0  0  0  0  0  0
    7.5573  -17.8198   19.8308 C   0  0  0  0  0  0  0  0  0  0  0  0
    7.4683  -17.6324   21.3371 C   0  0  0  0  0  0  0  0  0  0  0  0
    7.6439  -16.1373   21.4725 C   0  0  1  0  0  0  0  0  0  0  0  0
    8.5661  -15.9044   22.6248 C   0  0  0  0  0  0  0  0  0  0  0  0
    9.7983  -16.0517   22.4262 O   0  0  0  0  0  0  0  0  0  0  0  0
   11.1271  -15.0352   31.0403 O   0  0  0  0  0  0  0  0  0  0  0  0
   10.4334  -14.9333   29.8500 C   0  0  0  0  0  0  0  0  0  0  0  0
    9.6529  -15.9745   29.4240 C   0  0  0  0  0  0  0  0  0  0  0  0
    8.9540  -15.9021   28.2487 C   0  0  0  0  0  0  0  0  0  0  0  0
    9.0323  -14.7545   27.4671 C   0  0  0  0  0  0  0  0  0  0  0  0
    8.2697  -14.7181   26.2012 C   0  0  0  0  0  0  0  0  0  0  0  0
    9.0162  -15.3764   25.0545 C   0  0  2  0  0  0  0  0  0  0  0  0
    8.1257  -15.5339   23.9015 N   0  0  0  0  0  0  0  0  0  0  0  0
    9.5274  -16.7222   25.3972 C   0  0  0  0  0  0  0  0  0  0  0  0
    8.7144  -17.8453   25.3161 O   0  0  0  0  0  0  0  0  0  0  0  0
    9.8187  -13.7074   27.8974 C   0  0  0  0  0  0  0  0  0  0  0  0
   10.5247  -13.7930   29.0948 C   0  0  0  0  0  0  0  0  0  0  0  0
   10.7151  -16.9225   25.7773 O   0  0  0  0  0  0  0  0  0  0  0  0
  2  1  1  1
  3  4  1  0
  3  2  1  0
  5  4  1  0
  6  5  1  0
  7  6  1  0
  8  2  1  0
  8 10  1  0
  9  8  2  0
 10 14  1  0
 11 12  1  0
 11 10  1  0
 12 13  1  0
 14 13  1  0
 14 15  1  1
 15 16  2  0
 17 18  1  0
 18 28  2  0
 19 18  1  0
 19 20  2  0
 20 21  1  0
 21 27  2  0
 21 22  1  0
 23 22  1  1
 23 25  1  0
 24 15  1  0
 24 23  1  0
 25 26  1  0
 28 27  1  0
 29 25  2  0
M  END
$$$$
