KPY.pdb
     RDKit          3D

 29 30  0  0  1  0  0  0  0  0999 V2000
   12.0423  -15.8432   18.2886 N   0  0  0  0  0  0  0  0  0  0  0  0
   10.6043  -15.9035   18.4298 C   0  0  1  0  0  0  0  0  0  0  0  0
   10.1677  -17.3296   18.4336 C   0  0  0  0  0  0  0  0  0  0  0  0
   11.1839  -18.3746   18.2317 C   0  0  0  0  0  0  0  0  0  0  0  0
   10.8743  -19.6997   18.8461 C   0  0  0  0  0  0  0  0  0  0  0  0
   12.0581  -20.6674   18.6792 C   0  0  0  0  0  0  0  0  0  0  0  0
   12.4850  -21.0000   20.0242 N   0  0  0  0  0  0  0  0  0  0  0  0
   10.2306  -15.2629   19.7223 C   0  0  0  0  0  0  0  0  0  0  0  0
   11.1344  -15.0622   20.5642 O   0  0  0  0  0  0  0  0  0  0  0  0
    8.9078  -14.8654   20.0567 N   0  0  0  0  0  0  0  0  0  0  0  0
    7.7151  -14.9161   19.2285 C   0  0  0  0  0  0  0  0  0  0  0  0
    7.0509  -13.5920   19.6219 C   0  0  0  0  0  0  0  0  0  0  0  0
    7.1278  -13.7122   21.1358 C   0  0  0  0  0  0  0  0  0  0  0  0
    8.5028  -14.3098   21.3279 C   0  0  1  0  0  0  0  0  0  0  0  0
    8.3797  -15.3725   22.3709 C   0  0  0  0  0  0  0  0  0  0  0  0
    8.2199  -16.5569   21.9825 O   0  0  0  0  0  0  0  0  0  0  0  0
    5.9097  -10.8194   27.1487 O   0  0  0  0  0  0  0  0  0  0  0  0
    6.5919  -11.9957   26.9051 C   0  0  0  0  0  0  0  0  0  0  0  0
    7.9053  -11.9554   26.5202 C   0  0  0  0  0  0  0  0  0  0  0  0
    8.6070  -13.1048   26.2719 C   0  0  0  0  0  0  0  0  0  0  0  0
    7.9827  -14.3398   26.4107 C   0  0  0  0  0  0  0  0  0  0  0  0
    8.7715  -15.5572   26.1256 C   0  0  0  0  0  0  0  0  0  0  0  0
    8.4412  -16.1591   24.7714 C   0  0  2  0  0  0  0  0  0  0  0  0
    8.4334  -15.1125   23.7459 N   0  0  0  0  0  0  0  0  0  0  0  0
    7.1127  -16.8105   24.7391 C   0  0  0  0  0  0  0  0  0  0  0  0
    6.8930  -18.0330   25.3606 O   0  0  0  0  0  0  0  0  0  0  0  0
    6.6604  -14.3784   26.7981 C   0  0  0  0  0  0  0  0  0  0  0  0
    5.9574  -13.2024   27.0478 C   0  0  0  0  0  0  0  0  0  0  0  0
    6.1179  -16.2986   24.1528 O   0  0  0  0  0  0  0  0  0  0  0  0
  2  1  1  1
  3  4  1  0
  3  2  1  0
  5  4  1  0
  6  5  1  0
  7  6  1  0
  8  2  1  0
  8 10  1  0
  9  8  2  0
 10 14  1  0
 11 12  1  0
 11 10  1  0
 12 13  1  0
 14 13  1  0
 14 15  1  1
 15 16  2  0
 17 18  1  0
 18 28  2  0
 19 18  1  0
 19 20  2  0
 20 21  1  0
 21 27  2  0
 21 22  1  0
 23 22  1  1
 23 25  1  0
 24 15  1  0
 24 23  1  0
 25 26  1  0
 28 27  1  0
 29 25  2  0
M  END
$$$$
