KPY.pdb
     RDKit          3D

 29 30  0  0  1  0  0  0  0  0999 V2000
    8.9532  -17.7118   17.6736 N   0  0  0  0  0  0  0  0  0  0  0  0
    7.9800  -16.9780   18.4519 C   0  0  1  0  0  0  0  0  0  0  0  0
    7.0321  -17.9373   19.0888 C   0  0  0  0  0  0  0  0  0  0  0  0
    7.5681  -19.1942   19.6352 C   0  0  0  0  0  0  0  0  0  0  0  0
    6.5880  -20.0428   20.3760 C   0  0  0  0  0  0  0  0  0  0  0  0
    7.2774  -21.2875   20.9601 C   0  0  0  0  0  0  0  0  0  0  0  0
    6.2540  -21.9847   21.7140 N   0  0  0  0  0  0  0  0  0  0  0  0
    8.7012  -16.2127   19.5076 C   0  0  0  0  0  0  0  0  0  0  0  0
    9.8125  -16.6412   19.8917 O   0  0  0  0  0  0  0  0  0  0  0  0
    8.2026  -15.0237   20.1053 N   0  0  0  0  0  0  0  0  0  0  0  0
    6.9101  -14.3899   19.9085 C   0  0  0  0  0  0  0  0  0  0  0  0
    7.3268  -12.9150   19.8930 C   0  0  0  0  0  0  0  0  0  0  0  0
    8.1876  -12.8838   21.1461 C   0  0  0  0  0  0  0  0  0  0  0  0
    8.9270  -14.1982   21.0447 C   0  0  1  0  0  0  0  0  0  0  0  0
    8.9341  -14.8062   22.4095 C   0  0  0  0  0  0  0  0  0  0  0  0
    7.9645  -15.5397   22.7276 O   0  0  0  0  0  0  0  0  0  0  0  0
    5.4809  -11.0603   26.9323 O   0  0  0  0  0  0  0  0  0  0  0  0
    6.2423  -12.1257   26.4922 C   0  0  0  0  0  0  0  0  0  0  0  0
    5.6506  -13.1456   25.7960 C   0  0  0  0  0  0  0  0  0  0  0  0
    6.3797  -14.2142   25.3474 C   0  0  0  0  0  0  0  0  0  0  0  0
    7.7463  -14.2735   25.5986 C   0  0  0  0  0  0  0  0  0  0  0  0
    8.4971  -15.4474   25.1051 C   0  0  0  0  0  0  0  0  0  0  0  0
    9.9235  -15.1026   24.7156 C   0  0  2  0  0  0  0  0  0  0  0  0
    9.9597  -14.5986   23.3402 N   0  0  0  0  0  0  0  0  0  0  0  0
   10.8349  -16.2670   24.7771 C   0  0  0  0  0  0  0  0  0  0  0  0
   11.2494  -16.7957   25.9927 O   0  0  0  0  0  0  0  0  0  0  0  0
    8.3402  -13.2460   26.2999 C   0  0  0  0  0  0  0  0  0  0  0  0
    7.5879  -12.1643   26.7508 C   0  0  0  0  0  0  0  0  0  0  0  0
   11.2808  -16.8375   23.7422 O   0  0  0  0  0  0  0  0  0  0  0  0
  2  1  1  1
  3  4  1  0
  3  2  1  0
  5  4  1  0
  6  5  1  0
  7  6  1  0
  8  2  1  0
  8 10  1  0
  9  8  2  0
 10 14  1  0
 11 12  1  0
 11 10  1  0
 12 13  1  0
 14 13  1  0
 14 15  1  1
 15 16  2  0
 17 18  1  0
 18 28  2  0
 19 18  1  0
 19 20  2  0
 20 21  1  0
 21 27  2  0
 21 22  1  0
 23 22  1  6
 23 25  1  0
 24 15  1  0
 24 23  1  0
 25 26  1  0
 28 27  1  0
 29 25  2  0
M  END
$$$$
