KPY.pdb
     RDKit          3D

 29 30  0  0  1  0  0  0  0  0999 V2000
    8.8582  -18.1158   16.0227 N   0  0  0  0  0  0  0  0  0  0  0  0
    9.9016  -18.1069   17.0240 C   0  0  1  0  0  0  0  0  0  0  0  0
   10.8612  -17.0043   16.7277 C   0  0  0  0  0  0  0  0  0  0  0  0
   12.2955  -17.3246   16.6518 C   0  0  0  0  0  0  0  0  0  0  0  0
   12.8623  -17.4134   15.2733 C   0  0  0  0  0  0  0  0  0  0  0  0
   14.3842  -17.6303   15.3231 C   0  0  0  0  0  0  0  0  0  0  0  0
   14.5999  -18.9955   14.8855 N   0  0  0  0  0  0  0  0  0  0  0  0
    9.2741  -17.8789   18.3562 C   0  0  0  0  0  0  0  0  0  0  0  0
    8.6468  -16.8114   18.5379 O   0  0  0  0  0  0  0  0  0  0  0  0
    9.3449  -18.8020   19.4343 N   0  0  0  0  0  0  0  0  0  0  0  0
   10.0848  -20.0506   19.5044 C   0  0  0  0  0  0  0  0  0  0  0  0
    9.0700  -20.9302   20.2430 C   0  0  0  0  0  0  0  0  0  0  0  0
    8.7212  -19.9995   21.3938 C   0  0  0  0  0  0  0  0  0  0  0  0
    8.6580  -18.6593   20.6978 C   0  0  1  0  0  0  0  0  0  0  0  0
    9.3462  -17.6708   21.5819 C   0  0  0  0  0  0  0  0  0  0  0  0
   10.6023  -17.6383   21.5555 O   0  0  0  0  0  0  0  0  0  0  0  0
    7.8111  -12.5652   17.9467 O   0  0  0  0  0  0  0  0  0  0  0  0
    7.9563  -13.0380   19.2366 C   0  0  0  0  0  0  0  0  0  0  0  0
    9.1780  -12.9773   19.8519 C   0  0  0  0  0  0  0  0  0  0  0  0
    9.3521  -13.4381   21.1295 C   0  0  0  0  0  0  0  0  0  0  0  0
    8.2745  -13.9792   21.8224 C   0  0  0  0  0  0  0  0  0  0  0  0
    8.5046  -14.4734   23.1965 C   0  0  0  0  0  0  0  0  0  0  0  0
    9.3250  -15.7507   23.2244 C   0  0  2  0  0  0  0  0  0  0  0  0
    8.6639  -16.7887   22.4290 N   0  0  0  0  0  0  0  0  0  0  0  0
    9.4996  -16.2935   24.5901 C   0  0  0  0  0  0  0  0  0  0  0  0
   10.4328  -15.7554   25.4668 O   0  0  0  0  0  0  0  0  0  0  0  0
    7.0453  -14.0398   21.2013 C   0  0  0  0  0  0  0  0  0  0  0  0
    6.8809  -13.5676   19.9015 C   0  0  0  0  0  0  0  0  0  0  0  0
    8.8194  -17.2630   25.0291 O   0  0  0  0  0  0  0  0  0  0  0  0
  2  1  1  6
  3  4  1  0
  3  2  1  0
  5  4  1  0
  6  5  1  0
  7  6  1  0
  8  2  1  0
  8 10  1  0
  9  8  2  0
 10 14  1  0
 11 12  1  0
 11 10  1  0
 12 13  1  0
 14 13  1  0
 14 15  1  1
 15 16  2  0
 17 18  1  0
 18 28  2  0
 19 18  1  0
 19 20  2  0
 20 21  1  0
 21 27  2  0
 21 22  1  0
 23 22  1  1
 23 25  1  0
 24 15  1  0
 24 23  1  0
 25 26  1  0
 28 27  1  0
 29 25  2  0
M  END
$$$$
