KPY.pdb
     RDKit          3D

 29 30  0  0  1  0  0  0  0  0999 V2000
    9.9757  -17.0623   17.5241 N   0  0  0  0  0  0  0  0  0  0  0  0
    8.8405  -17.0061   18.4184 C   0  0  1  0  0  0  0  0  0  0  0  0
    8.3376  -18.3883   18.6657 C   0  0  0  0  0  0  0  0  0  0  0  0
    9.2993  -19.5016   18.6278 C   0  0  0  0  0  0  0  0  0  0  0  0
    9.0509  -20.5993   19.6089 C   0  0  0  0  0  0  0  0  0  0  0  0
   10.1916  -21.6304   19.5730 C   0  0  0  0  0  0  0  0  0  0  0  0
   10.6764  -21.7262   20.9360 N   0  0  0  0  0  0  0  0  0  0  0  0
    9.2836  -16.3979   19.7045 C   0  0  0  0  0  0  0  0  0  0  0  0
   10.5090  -16.2123   19.8781 O   0  0  0  0  0  0  0  0  0  0  0  0
    8.3972  -16.0151   20.7473 N   0  0  0  0  0  0  0  0  0  0  0  0
    6.9529  -16.1636   20.8021 C   0  0  0  0  0  0  0  0  0  0  0  0
    6.5647  -14.8335   21.4573 C   0  0  0  0  0  0  0  0  0  0  0  0
    7.5366  -14.8360   22.6266 C   0  0  0  0  0  0  0  0  0  0  0  0
    8.7925  -15.3767   21.9821 C   0  0  1  0  0  0  0  0  0  0  0  0
    9.3888  -16.3601   22.9358 C   0  0  0  0  0  0  0  0  0  0  0  0
    9.1208  -17.5761   22.7650 O   0  0  0  0  0  0  0  0  0  0  0  0
    8.8013  -14.2705   30.0995 O   0  0  0  0  0  0  0  0  0  0  0  0
    9.5460  -14.7266   29.0291 C   0  0  0  0  0  0  0  0  0  0  0  0
   10.2007  -15.9262   29.1154 C   0  0  0  0  0  0  0  0  0  0  0  0
   10.9462  -16.4037   28.0708 C   0  0  0  0  0  0  0  0  0  0  0  0
   11.0460  -15.6641   26.8973 C   0  0  0  0  0  0  0  0  0  0  0  0
   11.8669  -16.2095   25.7954 C   0  0  0  0  0  0  0  0  0  0  0  0
   11.0346  -16.9466   24.7612 C   0  0  2  0  0  0  0  0  0  0  0  0
   10.2233  -15.9937   23.9991 N   0  0  0  0  0  0  0  0  0  0  0  0
   10.1041  -17.9273   25.3633 C   0  0  0  0  0  0  0  0  0  0  0  0
    8.7278  -17.7575   25.2868 O   0  0  0  0  0  0  0  0  0  0  0  0
   10.3864  -14.4566   26.8123 C   0  0  0  0  0  0  0  0  0  0  0  0
    9.6311  -13.9817   27.8816 C   0  0  0  0  0  0  0  0  0  0  0  0
   10.5036  -18.9593   25.9721 O   0  0  0  0  0  0  0  0  0  0  0  0
  2  1  1  6
  3  4  1  0
  3  2  1  0
  5  4  1  0
  6  5  1  0
  7  6  1  0
  8  2  1  0
  8 10  1  0
  9  8  2  0
 10 14  1  0
 11 12  1  0
 11 10  1  0
 12 13  1  0
 14 13  1  0
 14 15  1  1
 15 16  2  0
 17 18  1  0
 18 28  2  0
 19 18  1  0
 19 20  2  0
 20 21  1  0
 21 27  2  0
 21 22  1  0
 23 22  1  1
 23 25  1  0
 24 15  1  0
 24 23  1  0
 25 26  1  0
 28 27  1  0
 29 25  2  0
M  END
$$$$
