KPY.pdb
     RDKit          3D

 29 30  0  0  1  0  0  0  0  0999 V2000
    7.3195  -18.4086   18.1809 N   0  0  0  0  0  0  0  0  0  0  0  0
    6.6855  -17.3296   18.9055 C   0  0  1  0  0  0  0  0  0  0  0  0
    5.7223  -17.8966   19.8931 C   0  0  0  0  0  0  0  0  0  0  0  0
    6.1653  -19.0138   20.7425 C   0  0  0  0  0  0  0  0  0  0  0  0
    5.1410  -19.5471   21.6889 C   0  0  0  0  0  0  0  0  0  0  0  0
    5.6707  -20.7926   22.4195 C   0  0  0  0  0  0  0  0  0  0  0  0
    4.5875  -21.2351   23.2755 N   0  0  0  0  0  0  0  0  0  0  0  0
    7.7408  -16.5593   19.6221 C   0  0  0  0  0  0  0  0  0  0  0  0
    8.8165  -17.1404   19.8891 O   0  0  0  0  0  0  0  0  0  0  0  0
    7.5991  -15.2027   20.0210 N   0  0  0  0  0  0  0  0  0  0  0  0
    6.4328  -14.3448   19.8992 C   0  0  0  0  0  0  0  0  0  0  0  0
    7.1029  -13.0252   19.5009 C   0  0  0  0  0  0  0  0  0  0  0  0
    8.1866  -12.9620   20.5656 C   0  0  0  0  0  0  0  0  0  0  0  0
    8.6356  -14.4037   20.6341 C   0  0  1  0  0  0  0  0  0  0  0  0
    8.8020  -14.7453   22.0790 C   0  0  0  0  0  0  0  0  0  0  0  0
    7.7748  -14.7393   22.8030 O   0  0  0  0  0  0  0  0  0  0  0  0
   10.4552  -15.2462   30.4200 O   0  0  0  0  0  0  0  0  0  0  0  0
   10.1459  -15.2747   29.0739 C   0  0  0  0  0  0  0  0  0  0  0  0
    9.8874  -14.1063   28.4085 C   0  0  0  0  0  0  0  0  0  0  0  0
    9.5781  -14.1035   27.0746 C   0  0  0  0  0  0  0  0  0  0  0  0
    9.5233  -15.3041   26.3748 C   0  0  0  0  0  0  0  0  0  0  0  0
    9.1780  -15.2602   24.9381 C   0  0  0  0  0  0  0  0  0  0  0  0
   10.3538  -14.8475   24.0706 C   0  0  2  0  0  0  0  0  0  0  0  0
   10.0359  -15.0681   22.6573 N   0  0  0  0  0  0  0  0  0  0  0  0
   11.5844  -15.6149   24.3653 C   0  0  0  0  0  0  0  0  0  0  0  0
   11.9680  -16.6935   23.5789 O   0  0  0  0  0  0  0  0  0  0  0  0
    9.7837  -16.4795   27.0464 C   0  0  0  0  0  0  0  0  0  0  0  0
   10.0972  -16.4692   28.4033 C   0  0  0  0  0  0  0  0  0  0  0  0
   12.3443  -15.3362   25.3349 O   0  0  0  0  0  0  0  0  0  0  0  0
  2  1  1  1
  3  4  1  0
  3  2  1  0
  5  4  1  0
  6  5  1  0
  7  6  1  0
  8  2  1  0
  8 10  1  0
  9  8  2  0
 10 14  1  0
 11 12  1  0
 11 10  1  0
 12 13  1  0
 14 13  1  0
 14 15  1  1
 15 16  2  0
 17 18  1  0
 18 28  2  0
 19 18  1  0
 19 20  2  0
 20 21  1  0
 21 27  2  0
 21 22  1  0
 23 22  1  1
 23 25  1  0
 24 15  1  0
 24 23  1  0
 25 26  1  0
 28 27  1  0
 29 25  2  0
M  END
$$$$
