KPY.pdb
     RDKit          3D

 29 30  0  0  1  0  0  0  0  0999 V2000
   10.2454  -17.0715   16.7460 N   0  0  0  0  0  0  0  0  0  0  0  0
    9.0369  -16.6184   17.3985 C   0  0  1  0  0  0  0  0  0  0  0  0
    8.1290  -17.7810   17.6192 C   0  0  0  0  0  0  0  0  0  0  0  0
    8.5578  -19.1057   17.1428 C   0  0  0  0  0  0  0  0  0  0  0  0
    7.6161  -20.2281   17.4305 C   0  0  0  0  0  0  0  0  0  0  0  0
    8.1042  -21.5305   16.7739 C   0  0  0  0  0  0  0  0  0  0  0  0
    7.1187  -22.5364   17.1186 N   0  0  0  0  0  0  0  0  0  0  0  0
    9.4070  -16.0171   18.7107 C   0  0  0  0  0  0  0  0  0  0  0  0
   10.4904  -16.3623   19.2332 O   0  0  0  0  0  0  0  0  0  0  0  0
    8.6027  -15.0736   19.4053 N   0  0  0  0  0  0  0  0  0  0  0  0
    7.3305  -14.5015   18.9988 C   0  0  0  0  0  0  0  0  0  0  0  0
    7.5199  -13.0530   19.4627 C   0  0  0  0  0  0  0  0  0  0  0  0
    8.0061  -13.3048   20.8812 C   0  0  0  0  0  0  0  0  0  0  0  0
    8.9272  -14.4872   20.6858 C   0  0  1  0  0  0  0  0  0  0  0  0
    8.6616  -15.4422   21.8038 C   0  0  0  0  0  0  0  0  0  0  0  0
    7.7131  -16.2549   21.6653 O   0  0  0  0  0  0  0  0  0  0  0  0
    6.0323  -11.6806   28.9079 O   0  0  0  0  0  0  0  0  0  0  0  0
    6.6164  -12.1582   27.7507 C   0  0  0  0  0  0  0  0  0  0  0  0
    5.8898  -12.2111   26.5914 C   0  0  0  0  0  0  0  0  0  0  0  0
    6.4420  -12.6795   25.4292 C   0  0  0  0  0  0  0  0  0  0  0  0
    7.7639  -13.1115   25.4166 C   0  0  0  0  0  0  0  0  0  0  0  0
    8.3212  -13.6180   24.1445 C   0  0  0  0  0  0  0  0  0  0  0  0
    8.9076  -15.0118   24.2815 C   0  0  2  0  0  0  0  0  0  0  0  0
    9.4124  -15.4730   22.9856 N   0  0  0  0  0  0  0  0  0  0  0  0
    7.9178  -16.0102   24.7438 C   0  0  0  0  0  0  0  0  0  0  0  0
    6.9687  -16.5396   23.8790 O   0  0  0  0  0  0  0  0  0  0  0  0
    8.4939  -13.0577   26.5847 C   0  0  0  0  0  0  0  0  0  0  0  0
    7.9210  -12.5791   27.7603 C   0  0  0  0  0  0  0  0  0  0  0  0
    7.8809  -16.4311   25.9341 O   0  0  0  0  0  0  0  0  0  0  0  0
  2  1  1  1
  3  4  1  0
  3  2  1  0
  5  4  1  0
  6  5  1  0
  7  6  1  0
  8  2  1  0
  8 10  1  0
  9  8  2  0
 10 14  1  0
 11 12  1  0
 11 10  1  0
 12 13  1  0
 14 13  1  0
 14 15  1  1
 15 16  2  0
 17 18  1  0
 18 28  2  0
 19 18  1  0
 19 20  2  0
 20 21  1  0
 21 27  2  0
 21 22  1  0
 23 22  1  6
 23 25  1  0
 24 15  1  0
 24 23  1  0
 25 26  1  0
 28 27  1  0
 29 25  2  0
M  END
$$$$
