KPY.pdb
     RDKit          3D

 29 30  0  0  1  0  0  0  0  0999 V2000
    5.8546  -17.7768   22.5488 N   0  0  0  0  0  0  0  0  0  0  0  0
    7.1165  -17.1303   22.2642 C   0  0  1  0  0  0  0  0  0  0  0  0
    6.8754  -15.6916   21.9535 C   0  0  0  0  0  0  0  0  0  0  0  0
    7.9962  -14.8876   21.4406 C   0  0  0  0  0  0  0  0  0  0  0  0
    7.6698  -13.4698   21.1051 C   0  0  0  0  0  0  0  0  0  0  0  0
    8.9256  -12.7195   20.6302 C   0  0  0  0  0  0  0  0  0  0  0  0
    8.4613  -11.4196   20.1870 N   0  0  0  0  0  0  0  0  0  0  0  0
    7.9858  -17.2426   23.4692 C   0  0  0  0  0  0  0  0  0  0  0  0
    7.4337  -17.3671   24.5853 O   0  0  0  0  0  0  0  0  0  0  0  0
    9.4061  -17.2170   23.4273 N   0  0  0  0  0  0  0  0  0  0  0  0
   10.2691  -16.9320   22.2937 C   0  0  0  0  0  0  0  0  0  0  0  0
   11.3764  -17.9663   22.5246 C   0  0  0  0  0  0  0  0  0  0  0  0
   11.6662  -17.7007   23.9935 C   0  0  0  0  0  0  0  0  0  0  0  0
   10.2761  -17.4901   24.5485 C   0  0  1  0  0  0  0  0  0  0  0  0
   10.3454  -16.3235   25.4794 C   0  0  0  0  0  0  0  0  0  0  0  0
   10.6556  -15.2064   24.9943 O   0  0  0  0  0  0  0  0  0  0  0  0
    5.4802  -12.7274   24.7378 O   0  0  0  0  0  0  0  0  0  0  0  0
    6.3536  -13.2745   25.6577 C   0  0  0  0  0  0  0  0  0  0  0  0
    7.4569  -12.5676   26.0551 C   0  0  0  0  0  0  0  0  0  0  0  0
    8.3399  -13.0842   26.9652 C   0  0  0  0  0  0  0  0  0  0  0  0
    8.1205  -14.3486   27.5011 C   0  0  0  0  0  0  0  0  0  0  0  0
    9.1009  -14.8747   28.4744 C   0  0  0  0  0  0  0  0  0  0  0  0
   10.3814  -15.3486   27.8103 C   0  0  2  0  0  0  0  0  0  0  0  0
   10.0837  -16.4163   26.8520 N   0  0  0  0  0  0  0  0  0  0  0  0
   11.3642  -15.8906   28.7750 C   0  0  0  0  0  0  0  0  0  0  0  0
   11.7650  -17.2195   28.7272 O   0  0  0  0  0  0  0  0  0  0  0  0
    7.0093  -15.0589   27.0997 C   0  0  0  0  0  0  0  0  0  0  0  0
    6.1184  -14.5227   26.1733 C   0  0  0  0  0  0  0  0  0  0  0  0
   11.8863  -15.1852   29.6833 O   0  0  0  0  0  0  0  0  0  0  0  0
  2  1  1  1
  3  4  1  0
  3  2  1  0
  5  4  1  0
  6  5  1  0
  7  6  1  0
  8  2  1  0
  8 10  1  0
  9  8  2  0
 10 14  1  0
 11 12  1  0
 11 10  1  0
 12 13  1  0
 14 13  1  0
 14 15  1  1
 15 16  2  0
 17 18  1  0
 18 28  2  0
 19 18  1  0
 19 20  2  0
 20 21  1  0
 21 27  2  0
 21 22  1  0
 23 22  1  1
 23 25  1  0
 24 15  1  0
 24 23  1  0
 25 26  1  0
 28 27  1  0
 29 25  2  0
M  END
$$$$
