SYI.pdb
     RDKit          3D

 27 27  0  0  1  0  0  0  0  0999 V2000
    6.9764  -16.1309   19.9985 O   0  0  0  0  0  0  0  0  0  0  0  0
    7.5116  -15.1903   19.1064 C   0  0  0  0  0  0  0  0  0  0  0  0
    7.4522  -13.8402   19.7900 C   0  0  2  0  0  0  0  0  0  0  0  0
    7.9807  -12.8661   18.8841 N   0  0  0  0  0  0  0  0  0  0  0  0
    8.1975  -13.8319   21.0561 C   0  0  0  0  0  0  0  0  0  0  0  0
    9.4525  -13.7947   21.0341 O   0  0  0  0  0  0  0  0  0  0  0  0
    9.8693  -14.0346   29.6562 O   0  0  0  0  0  0  0  0  0  0  0  0
    9.2104  -13.8821   28.4455 C   0  0  0  0  0  0  0  0  0  0  0  0
    7.8742  -13.4847   28.3796 C   0  0  0  0  0  0  0  0  0  0  0  0
    7.2260  -13.3354   27.1688 C   0  0  0  0  0  0  0  0  0  0  0  0
    7.9021  -13.5811   25.9916 C   0  0  0  0  0  0  0  0  0  0  0  0
    7.2613  -13.4362   24.6664 C   0  0  0  0  0  0  0  0  0  0  0  0
    8.1295  -13.9634   23.5748 C   0  0  2  0  0  0  0  0  0  0  0  0
    7.4783  -13.8663   22.2960 N   0  0  0  0  0  0  0  0  0  0  0  0
    8.5353  -15.3818   23.8026 C   0  0  0  0  0  0  0  0  0  0  0  0
    7.6661  -16.2863   23.7879 O   0  0  0  0  0  0  0  0  0  0  0  0
    9.2200  -13.9733   26.0478 C   0  0  0  0  0  0  0  0  0  0  0  0
    9.8597  -14.1196   27.2704 C   0  0  0  0  0  0  0  0  0  0  0  0
   11.8572  -17.8468   20.8463 C   0  0  0  0  0  0  0  0  0  0  0  0
   10.7872  -17.3930   21.8361 C   0  0  0  0  0  0  0  0  0  0  0  0
   11.2281  -17.6287   23.2551 C   0  0  2  0  0  0  0  0  0  0  0  0
   11.6450  -19.0749   23.3846 C   0  0  0  0  0  0  0  0  0  0  0  0
   10.1746  -17.1878   24.2046 C   0  0  2  0  0  0  0  0  0  0  0  0
    9.8681  -15.7663   24.0376 N   0  0  0  0  0  0  0  0  0  0  0  0
   10.5453  -17.4302   25.6144 C   0  0  0  0  0  0  0  0  0  0  0  0
   10.6504  -18.6334   26.0581 O   0  0  0  0  0  0  0  0  0  0  0  0
   10.8089  -16.4595   26.5593 O   0  0  0  0  0  0  0  0  0  0  0  0
  2  1  1  0
  3  4  1  6
  3  2  1  0
  5  3  1  0
  6  5  2  0
  7  8  1  0
  8 18  2  0
  8  9  1  0
  9 10  2  0
 10 11  1  0
 11 12  1  0
 13 12  1  1
 13 14  1  0
 14  5  1  0
 15 24  1  0
 15 13  1  0
 16 15  2  0
 17 11  2  0
 18 17  1  0
 20 19  1  0
 21 20  1  0
 21 22  1  6
 23 21  1  0
 23 24  1  1
 25 23  1  0
 25 27  1  0
 26 25  2  0
M  END
$$$$
