SYI.pdb
     RDKit          3D

 27 27  0  0  1  0  0  0  0  0999 V2000
    7.6382  -16.9223   20.7626 O   0  0  0  0  0  0  0  0  0  0  0  0
    6.3580  -17.4359   20.5091 C   0  0  0  0  0  0  0  0  0  0  0  0
    6.1274  -18.5679   21.4883 C   0  0  2  0  0  0  0  0  0  0  0  0
    4.8815  -19.1890   21.1554 N   0  0  0  0  0  0  0  0  0  0  0  0
    6.1190  -18.0976   22.8801 C   0  0  0  0  0  0  0  0  0  0  0  0
    5.0717  -17.5936   23.3557 O   0  0  0  0  0  0  0  0  0  0  0  0
    4.7248  -23.1542   27.2460 O   0  0  0  0  0  0  0  0  0  0  0  0
    5.5562  -22.1021   26.8925 C   0  0  0  0  0  0  0  0  0  0  0  0
    6.3100  -22.1221   25.7181 C   0  0  0  0  0  0  0  0  0  0  0  0
    7.1356  -21.0692   25.3742 C   0  0  0  0  0  0  0  0  0  0  0  0
    7.2266  -19.9681   26.2002 C   0  0  0  0  0  0  0  0  0  0  0  0
    8.0917  -18.8108   25.8834 C   0  0  0  0  0  0  0  0  0  0  0  0
    7.3787  -17.8037   25.0464 C   0  0  2  0  0  0  0  0  0  0  0  0
    7.3076  -18.2223   23.6721 N   0  0  0  0  0  0  0  0  0  0  0  0
    8.0172  -16.4558   25.1071 C   0  0  0  0  0  0  0  0  0  0  0  0
    8.9993  -16.2001   24.3695 O   0  0  0  0  0  0  0  0  0  0  0  0
    6.4865  -19.9404   27.3602 C   0  0  0  0  0  0  0  0  0  0  0  0
    5.6609  -21.0044   27.6943 C   0  0  0  0  0  0  0  0  0  0  0  0
    5.3420  -11.9073   26.6285 C   0  0  0  0  0  0  0  0  0  0  0  0
    6.2989  -12.8203   25.8659 C   0  0  0  0  0  0  0  0  0  0  0  0
    7.5341  -13.1066   26.6757 C   0  0  2  0  0  0  0  0  0  0  0  0
    8.2721  -11.8052   26.8850 C   0  0  0  0  0  0  0  0  0  0  0  0
    8.3297  -14.1887   26.0417 C   0  0  2  0  0  0  0  0  0  0  0  0
    7.5670  -15.4357   25.9651 N   0  0  0  0  0  0  0  0  0  0  0  0
    9.5974  -14.4515   26.7540 C   0  0  0  0  0  0  0  0  0  0  0  0
    9.6532  -15.3621   27.6613 O   0  0  0  0  0  0  0  0  0  0  0  0
   10.7941  -13.7974   26.5424 O   0  0  0  0  0  0  0  0  0  0  0  0
  2  1  1  0
  3  4  1  6
  3  2  1  0
  5  3  1  0
  6  5  2  0
  7  8  1  0
  8 18  2  0
  8  9  1  0
  9 10  2  0
 10 11  1  0
 11 12  1  0
 13 12  1  1
 13 14  1  0
 14  5  1  0
 15 24  1  0
 15 13  1  0
 16 15  2  0
 17 11  2  0
 18 17  1  0
 20 19  1  0
 21 20  1  0
 21 22  1  6
 23 21  1  0
 23 24  1  1
 25 23  1  0
 25 27  1  0
 26 25  2  0
M  END
$$$$
