SYI.pdb
     RDKit          3D

 27 27  0  0  1  0  0  0  0  0999 V2000
    8.3163  -14.9421   20.2762 O   0  0  0  0  0  0  0  0  0  0  0  0
    7.0504  -15.2533   19.7588 C   0  0  0  0  0  0  0  0  0  0  0  0
    6.7188  -16.6625   20.2033 C   0  0  2  0  0  0  0  0  0  0  0  0
    5.4793  -17.0352   19.5921 N   0  0  0  0  0  0  0  0  0  0  0  0
    6.6314  -16.7714   21.6659 C   0  0  0  0  0  0  0  0  0  0  0  0
    5.5964  -16.3721   22.2543 O   0  0  0  0  0  0  0  0  0  0  0  0
    8.0421  -19.5106   29.8449 O   0  0  0  0  0  0  0  0  0  0  0  0
    8.1467  -19.3171   28.4757 C   0  0  0  0  0  0  0  0  0  0  0  0
    9.3191  -18.8414   27.8868 C   0  0  0  0  0  0  0  0  0  0  0  0
    9.4138  -18.6517   26.5217 C   0  0  0  0  0  0  0  0  0  0  0  0
    8.3339  -18.9346   25.7112 C   0  0  0  0  0  0  0  0  0  0  0  0
    8.3771  -18.7532   24.2438 C   0  0  0  0  0  0  0  0  0  0  0  0
    7.7233  -17.4796   23.8273 C   0  0  2  0  0  0  0  0  0  0  0  0
    7.7302  -17.3321   22.3966 N   0  0  0  0  0  0  0  0  0  0  0  0
    8.3682  -16.2801   24.4386 C   0  0  0  0  0  0  0  0  0  0  0  0
    9.4362  -15.8346   23.9540 O   0  0  0  0  0  0  0  0  0  0  0  0
    7.1740  -19.4042   26.2840 C   0  0  0  0  0  0  0  0  0  0  0  0
    7.0916  -19.5903   27.6565 C   0  0  0  0  0  0  0  0  0  0  0  0
    5.7351  -11.8768   25.6962 C   0  0  0  0  0  0  0  0  0  0  0  0
    6.8341  -12.8514   25.2802 C   0  0  0  0  0  0  0  0  0  0  0  0
    7.5785  -13.3712   26.4798 C   0  0  2  0  0  0  0  0  0  0  0  0
    8.1959  -12.1939   27.1974 C   0  0  0  0  0  0  0  0  0  0  0  0
    8.5324  -14.4355   26.0760 C   0  0  2  0  0  0  0  0  0  0  0  0
    7.8311  -15.6087   25.5522 N   0  0  0  0  0  0  0  0  0  0  0  0
    9.4073  -14.8634   27.1873 C   0  0  0  0  0  0  0  0  0  0  0  0
    9.0642  -15.8507   27.9378 O   0  0  0  0  0  0  0  0  0  0  0  0
   10.6180  -14.2951   27.5279 O   0  0  0  0  0  0  0  0  0  0  0  0
  2  1  1  0
  3  4  1  6
  3  2  1  0
  5  3  1  0
  6  5  2  0
  7  8  1  0
  8 18  2  0
  8  9  1  0
  9 10  2  0
 10 11  1  0
 11 12  1  0
 13 12  1  6
 13 14  1  0
 14  5  1  0
 15 24  1  0
 15 13  1  0
 16 15  2  0
 17 11  2  0
 18 17  1  0
 20 19  1  0
 21 20  1  0
 21 22  1  6
 23 21  1  0
 23 24  1  1
 25 23  1  0
 25 27  1  0
 26 25  2  0
M  END
$$$$
