SYI.pdb
     RDKit          3D

 27 27  0  0  1  0  0  0  0  0999 V2000
    8.8180  -15.1483   21.7211 O   0  0  0  0  0  0  0  0  0  0  0  0
    9.2786  -16.1952   20.9091 C   0  0  0  0  0  0  0  0  0  0  0  0
   10.6601  -16.5706   21.4031 C   0  0  2  0  0  0  0  0  0  0  0  0
   11.1367  -17.6509   20.5940 N   0  0  0  0  0  0  0  0  0  0  0  0
   10.6525  -16.9479   22.8230 C   0  0  0  0  0  0  0  0  0  0  0  0
   10.3118  -18.1110   23.1515 O   0  0  0  0  0  0  0  0  0  0  0  0
   11.5389  -16.2793   31.5714 O   0  0  0  0  0  0  0  0  0  0  0  0
   11.6275  -16.0727   30.2029 C   0  0  0  0  0  0  0  0  0  0  0  0
   12.1890  -17.0236   29.3496 C   0  0  0  0  0  0  0  0  0  0  0  0
   12.2729  -16.8088   27.9875 C   0  0  0  0  0  0  0  0  0  0  0  0
   11.7954  -15.6335   27.4457 C   0  0  0  0  0  0  0  0  0  0  0  0
   11.8563  -15.3488   25.9954 C   0  0  0  0  0  0  0  0  0  0  0  0
   10.9258  -16.2216   25.2238 C   0  0  2  0  0  0  0  0  0  0  0  0
   11.0346  -15.9806   23.8099 N   0  0  0  0  0  0  0  0  0  0  0  0
    9.5020  -16.0428   25.6350 C   0  0  0  0  0  0  0  0  0  0  0  0
    9.1104  -16.5045   26.7337 O   0  0  0  0  0  0  0  0  0  0  0  0
   11.2401  -14.6905   28.2803 C   0  0  0  0  0  0  0  0  0  0  0  0
   11.1617  -14.9183   29.6467 C   0  0  0  0  0  0  0  0  0  0  0  0
    7.2382  -11.4542   24.2392 C   0  0  0  0  0  0  0  0  0  0  0  0
    7.6956  -12.7027   24.9895 C   0  0  0  0  0  0  0  0  0  0  0  0
    6.6860  -13.8107   24.8619 C   0  0  2  0  0  0  0  0  0  0  0  0
    5.3961  -13.3479   25.4975 C   0  0  0  0  0  0  0  0  0  0  0  0
    7.2375  -15.0787   25.4039 C   0  0  2  0  0  0  0  0  0  0  0  0
    8.5563  -15.3701   24.8396 N   0  0  0  0  0  0  0  0  0  0  0  0
    6.3502  -16.2340   25.1561 C   0  0  0  0  0  0  0  0  0  0  0  0
    6.4933  -16.9435   24.0922 O   0  0  0  0  0  0  0  0  0  0  0  0
    5.3322  -16.6634   25.9831 O   0  0  0  0  0  0  0  0  0  0  0  0
  2  1  1  0
  3  4  1  6
  3  2  1  0
  5  3  1  0
  6  5  2  0
  7  8  1  0
  8 18  2  0
  8  9  1  0
  9 10  2  0
 10 11  1  0
 11 12  1  0
 13 12  1  1
 13 14  1  0
 14  5  1  0
 15 24  1  0
 15 13  1  0
 16 15  2  0
 17 11  2  0
 18 17  1  0
 20 19  1  0
 21 20  1  0
 21 22  1  1
 23 21  1  0
 23 24  1  6
 25 23  1  0
 25 27  1  0
 26 25  2  0
M  END
$$$$
