SYI.pdb
     RDKit          3D

 27 27  0  0  1  0  0  0  0  0999 V2000
   11.3971  -19.5411   20.7414 O   0  0  0  0  0  0  0  0  0  0  0  0
   12.1666  -18.3709   20.6664 C   0  0  0  0  0  0  0  0  0  0  0  0
   11.2318  -17.2441   20.2793 C   0  0  2  0  0  0  0  0  0  0  0  0
   11.8779  -16.4665   19.2660 N   0  0  0  0  0  0  0  0  0  0  0  0
   10.8758  -16.4049   21.4315 C   0  0  0  0  0  0  0  0  0  0  0  0
   11.6743  -15.5165   21.8190 O   0  0  0  0  0  0  0  0  0  0  0  0
    5.6732  -11.6492   26.5621 O   0  0  0  0  0  0  0  0  0  0  0  0
    6.1437  -12.6378   25.7109 C   0  0  0  0  0  0  0  0  0  0  0  0
    5.9949  -13.9940   26.0045 C   0  0  0  0  0  0  0  0  0  0  0  0
    6.4670  -14.9719   25.1504 C   0  0  0  0  0  0  0  0  0  0  0  0
    7.1010  -14.6141   23.9786 C   0  0  0  0  0  0  0  0  0  0  0  0
    7.6251  -15.6162   23.0250 C   0  0  0  0  0  0  0  0  0  0  0  0
    9.1104  -15.7232   23.1002 C   0  0  2  0  0  0  0  0  0  0  0  0
    9.6218  -16.6149   22.0941 N   0  0  0  0  0  0  0  0  0  0  0  0
    9.5826  -16.1853   24.4387 C   0  0  0  0  0  0  0  0  0  0  0  0
    9.8814  -17.3917   24.6092 O   0  0  0  0  0  0  0  0  0  0  0  0
    7.2518  -13.2788   23.6815 C   0  0  0  0  0  0  0  0  0  0  0  0
    6.7732  -12.3063   24.5478 C   0  0  0  0  0  0  0  0  0  0  0  0
   11.1050  -14.2726   30.1538 C   0  0  0  0  0  0  0  0  0  0  0  0
   11.1927  -15.2696   29.0009 C   0  0  0  0  0  0  0  0  0  0  0  0
   10.4800  -14.7508   27.7817 C   0  0  2  0  0  0  0  0  0  0  0  0
    9.1599  -14.1633   28.2224 C   0  0  0  0  0  0  0  0  0  0  0  0
   10.3850  -15.8118   26.7468 C   0  0  2  0  0  0  0  0  0  0  0  0
    9.7132  -15.3222   25.5421 N   0  0  0  0  0  0  0  0  0  0  0  0
    9.6737  -17.0132   27.2310 C   0  0  0  0  0  0  0  0  0  0  0  0
    8.4555  -17.2302   26.8780 O   0  0  0  0  0  0  0  0  0  0  0  0
   10.1976  -17.9829   28.0614 O   0  0  0  0  0  0  0  0  0  0  0  0
  2  1  1  0
  3  4  1  6
  3  2  1  0
  5  3  1  0
  6  5  2  0
  7  8  1  0
  8 18  2  0
  8  9  1  0
  9 10  2  0
 10 11  1  0
 11 12  1  0
 13 12  1  1
 13 14  1  0
 14  5  1  0
 15 24  1  0
 15 13  1  0
 16 15  2  0
 17 11  2  0
 18 17  1  0
 20 19  1  0
 21 20  1  0
 21 22  1  1
 23 21  1  0
 23 24  1  6
 25 23  1  0
 25 27  1  0
 26 25  2  0
M  END
$$$$
