SYI.pdb
     RDKit          3D

 27 27  0  0  1  0  0  0  0  0999 V2000
   10.1907  -15.1215   18.8766 O   0  0  0  0  0  0  0  0  0  0  0  0
    9.2236  -14.5853   19.7394 C   0  0  0  0  0  0  0  0  0  0  0  0
    8.0937  -15.5900   19.8254 C   0  0  2  0  0  0  0  0  0  0  0  0
    7.0279  -15.1239   18.9913 N   0  0  0  0  0  0  0  0  0  0  0  0
    7.6294  -15.7782   21.2066 C   0  0  0  0  0  0  0  0  0  0  0  0
    6.7473  -15.0148   21.6713 O   0  0  0  0  0  0  0  0  0  0  0  0
    7.5882  -19.7814   29.1257 O   0  0  0  0  0  0  0  0  0  0  0  0
    7.6179  -19.4916   27.7698 C   0  0  0  0  0  0  0  0  0  0  0  0
    6.4652  -19.1375   27.0673 C   0  0  0  0  0  0  0  0  0  0  0  0
    6.5046  -18.8506   25.7165 C   0  0  0  0  0  0  0  0  0  0  0  0
    7.7024  -18.9115   25.0349 C   0  0  0  0  0  0  0  0  0  0  0  0
    7.8063  -18.6133   23.5898 C   0  0  0  0  0  0  0  0  0  0  0  0
    7.7236  -17.1487   23.3229 C   0  0  2  0  0  0  0  0  0  0  0  0
    8.1921  -16.8311   22.0005 N   0  0  0  0  0  0  0  0  0  0  0  0
    8.4959  -16.3430   24.3142 C   0  0  0  0  0  0  0  0  0  0  0  0
    9.7231  -16.1515   24.1375 O   0  0  0  0  0  0  0  0  0  0  0  0
    8.8439  -19.2598   25.7203 C   0  0  0  0  0  0  0  0  0  0  0  0
    8.7910  -19.5457   27.0771 C   0  0  0  0  0  0  0  0  0  0  0  0
    6.2347  -11.9478   26.3258 C   0  0  0  0  0  0  0  0  0  0  0  0
    7.2799  -12.9112   25.7688 C   0  0  0  0  0  0  0  0  0  0  0  0
    7.8476  -13.7815   26.8568 C   0  0  2  0  0  0  0  0  0  0  0  0
    8.5363  -12.8890   27.8624 C   0  0  0  0  0  0  0  0  0  0  0  0
    8.6986  -14.8501   26.2740 C   0  0  2  0  0  0  0  0  0  0  0  0
    7.9088  -15.7752   25.4598 N   0  0  0  0  0  0  0  0  0  0  0  0
    9.4211  -15.6241   27.3047 C   0  0  0  0  0  0  0  0  0  0  0  0
    8.8893  -16.6803   27.8121 O   0  0  0  0  0  0  0  0  0  0  0  0
   10.6708  -15.3281   27.8099 O   0  0  0  0  0  0  0  0  0  0  0  0
  2  1  1  0
  3  4  1  6
  3  2  1  0
  5  3  1  0
  6  5  2  0
  7  8  1  0
  8 18  2  0
  8  9  1  0
  9 10  2  0
 10 11  1  0
 11 12  1  0
 13 12  1  1
 13 14  1  0
 14  5  1  0
 15 24  1  0
 15 13  1  0
 16 15  2  0
 17 11  2  0
 18 17  1  0
 20 19  1  0
 21 20  1  0
 21 22  1  1
 23 21  1  0
 23 24  1  1
 25 23  1  0
 25 27  1  0
 26 25  2  0
M  END
$$$$
