SYI.pdb
     RDKit          3D

 27 27  0  0  1  0  0  0  0  0999 V2000
    5.7070  -18.6854   20.9864 O   0  0  0  0  0  0  0  0  0  0  0  0
    6.3904  -19.8745   21.2798 C   0  0  0  0  0  0  0  0  0  0  0  0
    5.8194  -20.4114   22.5757 C   0  0  2  0  0  0  0  0  0  0  0  0
    4.4619  -20.7943   22.3316 N   0  0  0  0  0  0  0  0  0  0  0  0
    5.8944  -19.4234   23.6604 C   0  0  0  0  0  0  0  0  0  0  0  0
    4.8533  -18.8203   24.0200 O   0  0  0  0  0  0  0  0  0  0  0  0
    7.2435  -23.2487   29.2896 O   0  0  0  0  0  0  0  0  0  0  0  0
    7.5255  -22.1004   28.5649 C   0  0  0  0  0  0  0  0  0  0  0  0
    7.1270  -20.8368   29.0032 C   0  0  0  0  0  0  0  0  0  0  0  0
    7.4125  -19.6985   28.2744 C   0  0  0  0  0  0  0  0  0  0  0  0
    8.1059  -19.7984   27.0860 C   0  0  0  0  0  0  0  0  0  0  0  0
    8.4418  -18.6152   26.2642 C   0  0  0  0  0  0  0  0  0  0  0  0
    7.3131  -18.2277   25.3703 C   0  0  2  0  0  0  0  0  0  0  0  0
    7.1561  -19.1647   24.2904 N   0  0  0  0  0  0  0  0  0  0  0  0
    7.4806  -16.8584   24.7999 C   0  0  0  0  0  0  0  0  0  0  0  0
    7.8135  -16.7231   23.5979 O   0  0  0  0  0  0  0  0  0  0  0  0
    8.5026  -21.0408   26.6466 C   0  0  0  0  0  0  0  0  0  0  0  0
    8.2095  -22.1766   27.3879 C   0  0  0  0  0  0  0  0  0  0  0  0
    5.2674  -12.4591   27.2583 C   0  0  0  0  0  0  0  0  0  0  0  0
    5.6567  -13.3412   26.0746 C   0  0  0  0  0  0  0  0  0  0  0  0
    7.1361  -13.2702   25.8105 C   0  0  2  0  0  0  0  0  0  0  0  0
    7.4552  -11.8895   25.2872 C   0  0  0  0  0  0  0  0  0  0  0  0
    7.5600  -14.3914   24.9337 C   0  0  2  0  0  0  0  0  0  0  0  0
    7.2809  -15.6875   25.5538 N   0  0  0  0  0  0  0  0  0  0  0  0
    8.9958  -14.3299   24.5898 C   0  0  0  0  0  0  0  0  0  0  0  0
    9.8588  -14.9696   25.2980 O   0  0  0  0  0  0  0  0  0  0  0  0
    9.5453  -13.6285   23.5359 O   0  0  0  0  0  0  0  0  0  0  0  0
  2  1  1  0
  3  4  1  6
  3  2  1  0
  5  3  1  0
  6  5  2  0
  7  8  1  0
  8 18  2  0
  8  9  1  0
  9 10  2  0
 10 11  1  0
 11 12  1  0
 13 12  1  6
 13 14  1  0
 14  5  1  0
 15 24  1  0
 15 13  1  0
 16 15  2  0
 17 11  2  0
 18 17  1  0
 20 19  1  0
 21 20  1  0
 21 22  1  6
 23 21  1  0
 23 24  1  1
 25 23  1  0
 25 27  1  0
 26 25  2  0
M  END
$$$$
