SYI.pdb
     RDKit          3D

 27 27  0  0  1  0  0  0  0  0999 V2000
   12.2052  -19.0147   21.3645 O   0  0  0  0  0  0  0  0  0  0  0  0
   11.0685  -18.7210   20.5972 C   0  0  0  0  0  0  0  0  0  0  0  0
   11.0378  -17.2200   20.3985 C   0  0  2  0  0  0  0  0  0  0  0  0
   12.3050  -16.8220   19.8650 N   0  0  0  0  0  0  0  0  0  0  0  0
   10.7525  -16.5056   21.6501 C   0  0  0  0  0  0  0  0  0  0  0  0
   11.6762  -15.8846   22.2315 O   0  0  0  0  0  0  0  0  0  0  0  0
    5.8972  -11.8956   27.3476 O   0  0  0  0  0  0  0  0  0  0  0  0
    6.3111  -12.7453   26.3327 C   0  0  0  0  0  0  0  0  0  0  0  0
    7.0646  -12.2877   25.2509 C   0  0  0  0  0  0  0  0  0  0  0  0
    7.4723  -13.1417   24.2444 C   0  0  0  0  0  0  0  0  0  0  0  0
    7.1344  -14.4781   24.2972 C   0  0  0  0  0  0  0  0  0  0  0  0
    7.5440  -15.4396   23.2505 C   0  0  0  0  0  0  0  0  0  0  0  0
    9.0107  -15.7050   23.2906 C   0  0  2  0  0  0  0  0  0  0  0  0
    9.4231  -16.5296   22.1866 N   0  0  0  0  0  0  0  0  0  0  0  0
    9.4387  -16.3554   24.5642 C   0  0  0  0  0  0  0  0  0  0  0  0
    9.4513  -17.6071   24.6485 O   0  0  0  0  0  0  0  0  0  0  0  0
    6.3915  -14.9376   25.3607 C   0  0  0  0  0  0  0  0  0  0  0  0
    5.9881  -14.0695   26.3653 C   0  0  0  0  0  0  0  0  0  0  0  0
   10.5445  -13.5617   29.4514 C   0  0  0  0  0  0  0  0  0  0  0  0
    9.9363  -14.5105   28.4215 C   0  0  0  0  0  0  0  0  0  0  0  0
   10.9842  -15.4178   27.8366 C   0  0  2  0  0  0  0  0  0  0  0  0
   12.1041  -14.5583   27.2987 C   0  0  0  0  0  0  0  0  0  0  0  0
   10.3734  -16.3476   26.8526 C   0  0  2  0  0  0  0  0  0  0  0  0
    9.8369  -15.6246   25.6985 N   0  0  0  0  0  0  0  0  0  0  0  0
    9.2942  -17.1671   27.4420 C   0  0  0  0  0  0  0  0  0  0  0  0
    8.0667  -16.9436   27.1276 O   0  0  0  0  0  0  0  0  0  0  0  0
    9.4634  -18.2033   28.3377 O   0  0  0  0  0  0  0  0  0  0  0  0
  2  1  1  0
  3  4  1  1
  3  2  1  0
  5  3  1  0
  6  5  2  0
  7  8  1  0
  8 18  2  0
  8  9  1  0
  9 10  2  0
 10 11  1  0
 11 12  1  0
 13 12  1  1
 13 14  1  0
 14  5  1  0
 15 24  1  0
 15 13  1  0
 16 15  2  0
 17 11  2  0
 18 17  1  0
 20 19  1  0
 21 20  1  0
 21 22  1  6
 23 21  1  0
 23 24  1  6
 25 23  1  0
 25 27  1  0
 26 25  2  0
M  END
$$$$
