SYI.pdb
     RDKit          3D

 27 27  0  0  1  0  0  0  0  0999 V2000
    6.6664  -17.4310   18.9018 O   0  0  0  0  0  0  0  0  0  0  0  0
    5.9739  -16.9036   20.0015 C   0  0  0  0  0  0  0  0  0  0  0  0
    5.5232  -18.0740   20.8503 C   0  0  2  0  0  0  0  0  0  0  0  0
    4.1436  -18.3212   20.5598 N   0  0  0  0  0  0  0  0  0  0  0  0
    5.7155  -17.8193   22.2845 C   0  0  0  0  0  0  0  0  0  0  0  0
    4.8096  -17.2441   22.9368 O   0  0  0  0  0  0  0  0  0  0  0  0
    8.7146  -18.9835   30.4380 O   0  0  0  0  0  0  0  0  0  0  0  0
    8.5372  -19.0609   29.0647 C   0  0  0  0  0  0  0  0  0  0  0  0
    9.5771  -18.7974   28.1721 C   0  0  0  0  0  0  0  0  0  0  0  0
    9.3908  -18.8770   26.8055 C   0  0  0  0  0  0  0  0  0  0  0  0
    8.1554  -19.2234   26.2986 C   0  0  0  0  0  0  0  0  0  0  0  0
    7.8970  -19.3265   24.8458 C   0  0  0  0  0  0  0  0  0  0  0  0
    7.1512  -18.1411   24.3341 C   0  0  2  0  0  0  0  0  0  0  0  0
    6.9352  -18.2322   22.9150 N   0  0  0  0  0  0  0  0  0  0  0  0
    7.8475  -16.8552   24.6340 C   0  0  0  0  0  0  0  0  0  0  0  0
    8.8011  -16.4818   23.9095 O   0  0  0  0  0  0  0  0  0  0  0  0
    7.1246  -19.4849   27.1721 C   0  0  0  0  0  0  0  0  0  0  0  0
    7.3246  -19.4014   28.5427 C   0  0  0  0  0  0  0  0  0  0  0  0
    5.4650  -12.3660   26.6615 C   0  0  0  0  0  0  0  0  0  0  0  0
    6.3881  -13.2820   25.8618 C   0  0  0  0  0  0  0  0  0  0  0  0
    7.5053  -13.8080   26.7212 C   0  0  2  0  0  0  0  0  0  0  0  0
    8.3039  -12.6303   27.2283 C   0  0  0  0  0  0  0  0  0  0  0  0
    8.2887  -14.8312   25.9829 C   0  0  2  0  0  0  0  0  0  0  0  0
    7.4838  -16.0225   25.7081 N   0  0  0  0  0  0  0  0  0  0  0  0
    9.5098  -15.2411   26.7072 C   0  0  0  0  0  0  0  0  0  0  0  0
    9.4378  -16.0992   27.6633 O   0  0  0  0  0  0  0  0  0  0  0  0
   10.7885  -14.7853   26.4587 O   0  0  0  0  0  0  0  0  0  0  0  0
  2  1  1  0
  3  4  1  1
  3  2  1  0
  5  3  1  0
  6  5  2  0
  7  8  1  0
  8 18  2  0
  8  9  1  0
  9 10  2  0
 10 11  1  0
 11 12  1  0
 13 12  1  6
 13 14  1  0
 14  5  1  0
 15 24  1  0
 15 13  1  0
 16 15  2  0
 17 11  2  0
 18 17  1  0
 20 19  1  0
 21 20  1  0
 21 22  1  6
 23 21  1  0
 23 24  1  1
 25 23  1  0
 25 27  1  0
 26 25  2  0
M  END
$$$$
