SYI.pdb
     RDKit          3D

 27 27  0  0  1  0  0  0  0  0999 V2000
    8.0321  -14.7060   20.1322 O   0  0  0  0  0  0  0  0  0  0  0  0
    7.9391  -16.0599   19.7779 C   0  0  0  0  0  0  0  0  0  0  0  0
    6.5972  -16.5605   20.2701 C   0  0  2  0  0  0  0  0  0  0  0  0
    5.5878  -15.6824   19.7613 N   0  0  0  0  0  0  0  0  0  0  0  0
    6.5391  -16.6259   21.7367 C   0  0  0  0  0  0  0  0  0  0  0  0
    5.6773  -15.9506   22.3516 O   0  0  0  0  0  0  0  0  0  0  0  0
    8.1103  -19.5278   29.9132 O   0  0  0  0  0  0  0  0  0  0  0  0
    8.0539  -19.3888   28.5345 C   0  0  0  0  0  0  0  0  0  0  0  0
    6.8528  -19.4975   27.8322 C   0  0  0  0  0  0  0  0  0  0  0  0
    6.8064  -19.3575   26.4586 C   0  0  0  0  0  0  0  0  0  0  0  0
    7.9647  -19.1046   25.7534 C   0  0  0  0  0  0  0  0  0  0  0  0
    7.9764  -18.9434   24.2831 C   0  0  0  0  0  0  0  0  0  0  0  0
    7.4574  -17.6075   23.8718 C   0  0  2  0  0  0  0  0  0  0  0  0
    7.4681  -17.4603   22.4410 N   0  0  0  0  0  0  0  0  0  0  0  0
    8.2304  -16.4833   24.4777 C   0  0  0  0  0  0  0  0  0  0  0  0
    9.3604  -16.1887   24.0191 O   0  0  0  0  0  0  0  0  0  0  0  0
    9.1534  -18.9959   26.4384 C   0  0  0  0  0  0  0  0  0  0  0  0
    9.1866  -19.1386   27.8182 C   0  0  0  0  0  0  0  0  0  0  0  0
    5.8176  -11.9001   25.7743 C   0  0  0  0  0  0  0  0  0  0  0  0
    6.8230  -12.9497   25.3070 C   0  0  0  0  0  0  0  0  0  0  0  0
    7.6461  -13.4605   26.4582 C   0  0  2  0  0  0  0  0  0  0  0  0
    8.3576  -12.2853   27.0863 C   0  0  0  0  0  0  0  0  0  0  0  0
    8.5290  -14.5682   26.0120 C   0  0  2  0  0  0  0  0  0  0  0  0
    7.7495  -15.7209   25.5579 N   0  0  0  0  0  0  0  0  0  0  0  0
    9.4592  -15.0126   27.0707 C   0  0  0  0  0  0  0  0  0  0  0  0
    9.0681  -15.8496   27.9662 O   0  0  0  0  0  0  0  0  0  0  0  0
   10.7722  -14.6122   27.2133 O   0  0  0  0  0  0  0  0  0  0  0  0
  2  1  1  0
  3  4  1  1
  3  2  1  0
  5  3  1  0
  6  5  2  0
  7  8  1  0
  8 18  2  0
  8  9  1  0
  9 10  2  0
 10 11  1  0
 11 12  1  0
 13 12  1  6
 13 14  1  0
 14  5  1  0
 15 24  1  0
 15 13  1  0
 16 15  2  0
 17 11  2  0
 18 17  1  0
 20 19  1  0
 21 20  1  0
 21 22  1  6
 23 21  1  0
 23 24  1  1
 25 23  1  0
 25 27  1  0
 26 25  2  0
M  END
$$$$
