TGM.pdb
     RDKit          3D

 20 19  0  0  1  0  0  0  0  0999 V2000
   11.0015  -14.1170   20.0505 C   0  0  0  0  0  0  0  0  0  0  0  0
   10.0063  -13.1356   19.4246 C   0  0  1  0  0  0  0  0  0  0  0  0
   10.5862  -12.5069   18.3127 O   0  0  0  0  0  0  0  0  0  0  0  0
    8.8340  -13.9251   18.9228 C   0  0  2  0  0  0  0  0  0  0  0  0
    7.9293  -13.1303   18.1344 N   0  0  0  0  0  0  0  0  0  0  0  0
    8.1002  -14.4686   20.0958 C   0  0  0  0  0  0  0  0  0  0  0  0
    7.1746  -13.7826   20.6523 O   0  0  0  0  0  0  0  0  0  0  0  0
    8.4274  -15.7508   20.5990 N   0  0  0  0  0  0  0  0  0  0  0  0
    7.7636  -16.2897   21.7561 C   0  0  0  0  0  0  0  0  0  0  0  0
    8.4746  -15.8577   22.9949 C   0  0  0  0  0  0  0  0  0  0  0  0
    9.7054  -15.5333   22.9605 O   0  0  0  0  0  0  0  0  0  0  0  0
    6.0613  -10.5888   26.3698 C   0  0  0  0  0  0  0  0  0  0  0  0
    6.2339  -12.2839   26.9737 S   0  0  0  0  0  0  0  0  0  0  0  0
    7.3287  -13.2365   25.8939 C   0  0  0  0  0  0  0  0  0  0  0  0
    7.5664  -14.6504   26.4197 C   0  0  0  0  0  0  0  0  0  0  0  0
    8.4786  -15.3726   25.4675 C   0  0  2  0  0  0  0  0  0  0  0  0
    7.8240  -15.7870   24.2570 N   0  0  0  0  0  0  0  0  0  0  0  0
    9.1792  -16.4912   26.1475 C   0  0  0  0  0  0  0  0  0  0  0  0
    8.9054  -17.6730   25.8718 O   0  0  0  0  0  0  0  0  0  0  0  0
   10.1420  -16.2231   27.0935 O   0  0  0  0  0  0  0  0  0  0  0  0
  2  1  1  6
  2  3  1  0
  4  6  1  0
  4  2  1  0
  4  5  1  1
  6  8  1  0
  7  6  2  0
  8  9  1  0
  9 10  1  0
 10 17  1  0
 10 11  2  0
 12 13  1  0
 13 14  1  0
 14 15  1  0
 16 15  1  1
 16 18  1  0
 17 16  1  0
 18 19  2  0
 18 20  1  0
M  END
$$$$
