TGM.pdb
     RDKit          3D

 20 19  0  0  1  0  0  0  0  0999 V2000
    8.7884  -19.8890   17.7525 C   0  0  0  0  0  0  0  0  0  0  0  0
    8.6526  -18.4714   18.3161 C   0  0  1  0  0  0  0  0  0  0  0  0
    7.3325  -18.0205   18.1691 O   0  0  0  0  0  0  0  0  0  0  0  0
    8.9368  -18.5312   19.7874 C   0  0  2  0  0  0  0  0  0  0  0  0
    7.9821  -19.3370   20.5023 N   0  0  0  0  0  0  0  0  0  0  0  0
    8.8983  -17.1468   20.3274 C   0  0  0  0  0  0  0  0  0  0  0  0
    9.7785  -16.2899   19.9696 O   0  0  0  0  0  0  0  0  0  0  0  0
    7.8833  -16.7754   21.2418 N   0  0  0  0  0  0  0  0  0  0  0  0
    7.7574  -15.4196   21.7063 C   0  0  0  0  0  0  0  0  0  0  0  0
    8.6352  -15.2077   22.8944 C   0  0  0  0  0  0  0  0  0  0  0  0
    9.8868  -15.0195   22.7547 O   0  0  0  0  0  0  0  0  0  0  0  0
    5.2960  -12.0292   26.8503 C   0  0  0  0  0  0  0  0  0  0  0  0
    7.0705  -11.6912   26.9199 S   0  0  0  0  0  0  0  0  0  0  0  0
    7.9707  -12.7765   25.7870 C   0  0  0  0  0  0  0  0  0  0  0  0
    8.2980  -14.1260   26.4225 C   0  0  0  0  0  0  0  0  0  0  0  0
    8.9443  -15.0034   25.3867 C   0  0  2  0  0  0  0  0  0  0  0  0
    8.1268  -15.2048   24.2220 N   0  0  0  0  0  0  0  0  0  0  0  0
    9.4066  -16.2810   25.9856 C   0  0  0  0  0  0  0  0  0  0  0  0
    8.7852  -17.3393   25.7818 O   0  0  0  0  0  0  0  0  0  0  0  0
   10.5335  -16.2998   26.7751 O   0  0  0  0  0  0  0  0  0  0  0  0
  2  1  1  1
  2  3  1  0
  4  6  1  0
  4  2  1  0
  4  5  1  1
  6  8  1  0
  7  6  2  0
  8  9  1  0
  9 10  1  0
 10 17  1  0
 10 11  2  0
 12 13  1  0
 13 14  1  0
 14 15  1  0
 16 15  1  1
 16 18  1  0
 17 16  1  0
 18 19  2  0
 18 20  1  0
M  END
$$$$
