TGM.pdb
     RDKit          3D

 20 19  0  0  1  0  0  0  0  0999 V2000
    7.1320  -12.4933   19.4399 C   0  0  0  0  0  0  0  0  0  0  0  0
    7.8810  -13.5554   20.2502 C   0  0  1  0  0  0  0  0  0  0  0  0
    7.0239  -14.6251   20.5484 O   0  0  0  0  0  0  0  0  0  0  0  0
    8.9824  -14.0996   19.3900 C   0  0  2  0  0  0  0  0  0  0  0  0
    8.5215  -14.4897   18.0834 N   0  0  0  0  0  0  0  0  0  0  0  0
    9.5630  -15.2872   20.0700 C   0  0  0  0  0  0  0  0  0  0  0  0
    9.9913  -16.2784   19.3838 O   0  0  0  0  0  0  0  0  0  0  0  0
    9.6419  -15.3211   21.4832 N   0  0  0  0  0  0  0  0  0  0  0  0
   10.2318  -16.4388   22.1707 C   0  0  0  0  0  0  0  0  0  0  0  0
   10.2891  -16.1594   23.6355 C   0  0  0  0  0  0  0  0  0  0  0  0
   10.8368  -16.9848   24.4355 O   0  0  0  0  0  0  0  0  0  0  0  0
    6.2148  -11.5168   25.9637 C   0  0  0  0  0  0  0  0  0  0  0  0
    6.4406  -12.5387   27.4376 S   0  0  0  0  0  0  0  0  0  0  0  0
    7.6809  -13.8212   27.1398 C   0  0  0  0  0  0  0  0  0  0  0  0
    8.1294  -13.8590   25.6805 C   0  0  0  0  0  0  0  0  0  0  0  0
    9.1943  -14.9095   25.5297 C   0  0  2  0  0  0  0  0  0  0  0  0
    9.7441  -14.9755   24.2035 N   0  0  0  0  0  0  0  0  0  0  0  0
    8.7124  -16.2283   26.0126 C   0  0  0  0  0  0  0  0  0  0  0  0
    8.9635  -16.6114   27.1693 O   0  0  0  0  0  0  0  0  0  0  0  0
    7.9802  -17.0390   25.1758 O   0  0  0  0  0  0  0  0  0  0  0  0
  2  1  1  6
  2  3  1  0
  4  6  1  0
  4  2  1  0
  4  5  1  6
  6  8  1  0
  7  6  2  0
  8  9  1  0
  9 10  1  0
 10 17  1  0
 10 11  2  0
 12 13  1  0
 13 14  1  0
 14 15  1  0
 16 15  1  6
 16 18  1  0
 17 16  1  0
 18 19  2  0
 18 20  1  0
M  END
$$$$
