TGM.pdb
     RDKit          3D

 20 19  0  0  1  0  0  0  0  0999 V2000
    9.4600  -12.7640   19.2938 C   0  0  0  0  0  0  0  0  0  0  0  0
    8.5007  -13.3405   18.2484 C   0  0  1  0  0  0  0  0  0  0  0  0
    8.7492  -12.7593   16.9961 O   0  0  0  0  0  0  0  0  0  0  0  0
    8.7876  -14.8068   18.1185 C   0  0  2  0  0  0  0  0  0  0  0  0
    8.0877  -15.4113   17.0155 N   0  0  0  0  0  0  0  0  0  0  0  0
    8.3717  -15.4777   19.3782 C   0  0  0  0  0  0  0  0  0  0  0  0
    7.1331  -15.6915   19.6168 O   0  0  0  0  0  0  0  0  0  0  0  0
    9.3509  -15.8813   20.3177 N   0  0  0  0  0  0  0  0  0  0  0  0
    8.9957  -16.6460   21.4834 C   0  0  0  0  0  0  0  0  0  0  0  0
    9.0164  -15.7687   22.6903 C   0  0  0  0  0  0  0  0  0  0  0  0
    9.8917  -14.8524   22.8152 O   0  0  0  0  0  0  0  0  0  0  0  0
    6.7344  -11.1520   27.5418 C   0  0  0  0  0  0  0  0  0  0  0  0
    6.7080  -12.3223   26.1643 S   0  0  0  0  0  0  0  0  0  0  0  0
    6.8588  -14.0207   26.7683 C   0  0  0  0  0  0  0  0  0  0  0  0
    6.7675  -15.0429   25.6374 C   0  0  0  0  0  0  0  0  0  0  0  0
    8.1001  -15.1179   24.9456 C   0  0  2  0  0  0  0  0  0  0  0  0
    8.0742  -15.9085   23.7457 N   0  0  0  0  0  0  0  0  0  0  0  0
    9.1647  -15.5472   25.8873 C   0  0  0  0  0  0  0  0  0  0  0  0
    9.7441  -14.7180   26.6115 O   0  0  0  0  0  0  0  0  0  0  0  0
    9.5180  -16.8751   25.9635 O   0  0  0  0  0  0  0  0  0  0  0  0
  2  1  1  1
  2  3  1  0
  4  6  1  0
  4  2  1  0
  4  5  1  6
  6  8  1  0
  7  6  2  0
  8  9  1  0
  9 10  1  0
 10 17  1  0
 10 11  2  0
 12 13  1  0
 13 14  1  0
 14 15  1  0
 16 15  1  1
 16 18  1  0
 17 16  1  0
 18 19  2  0
 18 20  1  0
M  END
$$$$
