TGM.pdb
     RDKit          3D

 20 19  0  0  1  0  0  0  0  0999 V2000
    9.0073  -13.6848   17.1725 C   0  0  0  0  0  0  0  0  0  0  0  0
    7.8969  -13.4534   18.2017 C   0  0  1  0  0  0  0  0  0  0  0  0
    6.7466  -12.9639   17.5654 O   0  0  0  0  0  0  0  0  0  0  0  0
    7.5386  -14.7814   18.7995 C   0  0  2  0  0  0  0  0  0  0  0  0
    6.4902  -14.6808   19.7807 N   0  0  0  0  0  0  0  0  0  0  0  0
    8.7519  -15.3448   19.4475 C   0  0  0  0  0  0  0  0  0  0  0  0
    9.7679  -15.6712   18.7417 O   0  0  0  0  0  0  0  0  0  0  0  0
    8.7829  -15.5212   20.8519 N   0  0  0  0  0  0  0  0  0  0  0  0
    9.9532  -16.0332   21.5138 C   0  0  0  0  0  0  0  0  0  0  0  0
    9.7562  -15.9948   22.9926 C   0  0  0  0  0  0  0  0  0  0  0  0
   10.7178  -16.2563   23.7852 O   0  0  0  0  0  0  0  0  0  0  0  0
    6.1548  -11.2185   28.0386 C   0  0  0  0  0  0  0  0  0  0  0  0
    6.1296  -11.9521   26.3866 S   0  0  0  0  0  0  0  0  0  0  0  0
    7.3174  -13.3118   26.2753 C   0  0  0  0  0  0  0  0  0  0  0  0
    7.4180  -13.8723   24.8583 C   0  0  0  0  0  0  0  0  0  0  0  0
    8.3705  -15.0355   24.8657 C   0  0  2  0  0  0  0  0  0  0  0  0
    8.5045  -15.6689   23.5826 N   0  0  0  0  0  0  0  0  0  0  0  0
    8.0260  -15.9979   25.9425 C   0  0  0  0  0  0  0  0  0  0  0  0
    7.4562  -17.0713   25.6763 O   0  0  0  0  0  0  0  0  0  0  0  0
    8.3380  -15.7042   27.2502 O   0  0  0  0  0  0  0  0  0  0  0  0
  2  1  1  6
  2  3  1  0
  4  6  1  0
  4  2  1  0
  4  5  1  1
  6  8  1  0
  7  6  2  0
  8  9  1  0
  9 10  1  0
 10 17  1  0
 10 11  2  0
 12 13  1  0
 13 14  1  0
 14 15  1  0
 16 15  1  6
 16 18  1  0
 17 16  1  0
 18 19  2  0
 18 20  1  0
M  END
$$$$
