TGM.pdb
     RDKit          3D

 20 19  0  0  1  0  0  0  0  0999 V2000
   10.2818  -14.4880   18.6300 C   0  0  0  0  0  0  0  0  0  0  0  0
    9.3809  -13.3245   19.0544 C   0  0  1  0  0  0  0  0  0  0  0  0
    9.3539  -12.3463   18.0493 O   0  0  0  0  0  0  0  0  0  0  0  0
    7.9836  -13.8509   19.1948 C   0  0  2  0  0  0  0  0  0  0  0  0
    7.0525  -12.8397   19.6219 N   0  0  0  0  0  0  0  0  0  0  0  0
    7.9961  -14.9481   20.1977 C   0  0  0  0  0  0  0  0  0  0  0  0
    8.6410  -16.0282   19.9644 O   0  0  0  0  0  0  0  0  0  0  0  0
    7.2909  -14.7969   21.4160 N   0  0  0  0  0  0  0  0  0  0  0  0
    7.2878  -15.8369   22.4101 C   0  0  0  0  0  0  0  0  0  0  0  0
    8.3022  -15.5349   23.4621 C   0  0  0  0  0  0  0  0  0  0  0  0
    9.4844  -15.1832   23.1457 O   0  0  0  0  0  0  0  0  0  0  0  0
    5.3013  -11.3900   26.2383 C   0  0  0  0  0  0  0  0  0  0  0  0
    6.6795  -12.1048   27.1641 S   0  0  0  0  0  0  0  0  0  0  0  0
    7.6925  -13.1516   26.0917 C   0  0  0  0  0  0  0  0  0  0  0  0
    8.3812  -14.2725   26.8672 C   0  0  0  0  0  0  0  0  0  0  0  0
    8.9349  -15.2685   25.8865 C   0  0  2  0  0  0  0  0  0  0  0  0
    8.0049  -15.6227   24.8495 N   0  0  0  0  0  0  0  0  0  0  0  0
    9.4848  -16.4561   26.5879 C   0  0  0  0  0  0  0  0  0  0  0  0
   10.3498  -16.3268   27.4727 O   0  0  0  0  0  0  0  0  0  0  0  0
    9.0364  -17.7149   26.2594 O   0  0  0  0  0  0  0  0  0  0  0  0
  2  1  1  6
  2  3  1  0
  4  6  1  0
  4  2  1  0
  4  5  1  1
  6  8  1  0
  7  6  2  0
  8  9  1  0
  9 10  1  0
 10 17  1  0
 10 11  2  0
 12 13  1  0
 13 14  1  0
 14 15  1  0
 16 15  1  1
 16 18  1  0
 17 16  1  0
 18 19  2  0
 18 20  1  0
M  END
$$$$
