TGM.pdb
     RDKit          3D

 20 19  0  0  1  0  0  0  0  0999 V2000
    7.7712  -12.5774   18.8462 C   0  0  0  0  0  0  0  0  0  0  0  0
    7.9362  -13.9777   18.2483 C   0  0  1  0  0  0  0  0  0  0  0  0
    8.5342  -13.8922   16.9823 O   0  0  0  0  0  0  0  0  0  0  0  0
    8.8757  -14.7469   19.1285 C   0  0  2  0  0  0  0  0  0  0  0  0
    9.1198  -16.0803   18.6443 N   0  0  0  0  0  0  0  0  0  0  0  0
    8.2800  -14.8300   20.4880 C   0  0  0  0  0  0  0  0  0  0  0  0
    8.1609  -13.7776   21.2057 O   0  0  0  0  0  0  0  0  0  0  0  0
    7.8431  -16.0795   20.9903 N   0  0  0  0  0  0  0  0  0  0  0  0
    7.1313  -16.1746   22.2369 C   0  0  0  0  0  0  0  0  0  0  0  0
    8.0515  -15.8655   23.3704 C   0  0  0  0  0  0  0  0  0  0  0  0
    9.3138  -15.9493   23.2265 O   0  0  0  0  0  0  0  0  0  0  0  0
    5.6739  -11.5924   27.5390 C   0  0  0  0  0  0  0  0  0  0  0  0
    6.5022  -11.7480   25.9397 S   0  0  0  0  0  0  0  0  0  0  0  0
    8.0417  -12.6826   26.1079 C   0  0  0  0  0  0  0  0  0  0  0  0
    7.8049  -14.0844   26.6657 C   0  0  0  0  0  0  0  0  0  0  0  0
    8.4316  -15.0861   25.7362 C   0  0  2  0  0  0  0  0  0  0  0  0
    7.5730  -15.4673   24.6486 N   0  0  0  0  0  0  0  0  0  0  0  0
    8.9518  -16.2561   26.4879 C   0  0  0  0  0  0  0  0  0  0  0  0
    8.3236  -17.3298   26.5057 O   0  0  0  0  0  0  0  0  0  0  0  0
   10.1407  -16.1570   27.1738 O   0  0  0  0  0  0  0  0  0  0  0  0
  2  1  1  1
  2  3  1  0
  4  6  1  0
  4  2  1  0
  4  5  1  6
  6  8  1  0
  7  6  2  0
  8  9  1  0
  9 10  1  0
 10 17  1  0
 10 11  2  0
 12 13  1  0
 13 14  1  0
 14 15  1  0
 16 15  1  1
 16 18  1  0
 17 16  1  0
 18 19  2  0
 18 20  1  0
M  END
$$$$
