TGM.pdb
     RDKit          3D

 20 19  0  0  1  0  0  0  0  0999 V2000
    8.0246  -12.3324   17.5404 C   0  0  0  0  0  0  0  0  0  0  0  0
    7.6467  -13.3578   18.6134 C   0  0  1  0  0  0  0  0  0  0  0  0
    7.4339  -14.6131   18.0246 O   0  0  0  0  0  0  0  0  0  0  0  0
    8.8127  -13.5003   19.5457 C   0  0  2  0  0  0  0  0  0  0  0  0
    9.9386  -14.1497   18.9273 N   0  0  0  0  0  0  0  0  0  0  0  0
    8.3780  -14.3038   20.7184 C   0  0  0  0  0  0  0  0  0  0  0  0
    7.4639  -13.8647   21.4984 O   0  0  0  0  0  0  0  0  0  0  0  0
    8.9787  -15.5603   20.9729 N   0  0  0  0  0  0  0  0  0  0  0  0
    8.4770  -16.4323   22.0015 C   0  0  0  0  0  0  0  0  0  0  0  0
    8.8977  -15.9288   23.3418 C   0  0  0  0  0  0  0  0  0  0  0  0
   10.0263  -15.3611   23.5000 O   0  0  0  0  0  0  0  0  0  0  0  0
    6.3108  -10.7518   26.1967 C   0  0  0  0  0  0  0  0  0  0  0  0
    6.2637  -12.4324   26.8609 S   0  0  0  0  0  0  0  0  0  0  0  0
    7.4628  -13.4871   26.0114 C   0  0  0  0  0  0  0  0  0  0  0  0
    7.4887  -14.9032   26.5825 C   0  0  0  0  0  0  0  0  0  0  0  0
    8.5011  -15.7125   25.8207 C   0  0  2  0  0  0  0  0  0  0  0  0
    8.0722  -16.0549   24.4924 N   0  0  0  0  0  0  0  0  0  0  0  0
    8.9314  -16.8986   26.6035 C   0  0  0  0  0  0  0  0  0  0  0  0
    8.5761  -18.0430   26.2691 O   0  0  0  0  0  0  0  0  0  0  0  0
    9.7315  -16.7355   27.7112 O   0  0  0  0  0  0  0  0  0  0  0  0
  2  1  1  6
  2  3  1  0
  4  6  1  0
  4  2  1  0
  4  5  1  6
  6  8  1  0
  7  6  2  0
  8  9  1  0
  9 10  1  0
 10 17  1  0
 10 11  2  0
 12 13  1  0
 13 14  1  0
 14 15  1  0
 16 15  1  1
 16 18  1  0
 17 16  1  0
 18 19  2  0
 18 20  1  0
M  END
$$$$
