LHE.pdb
     RDKit          3D

 28 28  0  0  1  0  0  0  0  0999 V2000
    7.8695  -12.1620   18.8016 C   0  0  0  0  0  0  0  0  0  0  0  0
    7.8540  -13.1896   19.9037 C   0  0  2  0  0  0  0  0  0  0  0  0
    7.3705  -12.6157   21.2108 C   0  0  0  0  0  0  0  0  0  0  0  0
    9.1568  -13.9103   20.0248 C   0  0  0  0  0  0  0  0  0  0  0  0
    9.6623  -14.5163   18.7559 C   0  0  2  0  0  0  0  0  0  0  0  0
    8.7205  -15.4655   18.2366 N   0  0  0  0  0  0  0  0  0  0  0  0
   10.9823  -15.1525   19.0483 C   0  0  0  0  0  0  0  0  0  0  0  0
   11.0352  -16.3288   19.5292 O   0  0  0  0  0  0  0  0  0  0  0  0
   12.2234  -14.5195   18.8210 N   0  0  0  0  0  0  0  0  0  0  0  0
   13.4931  -15.1053   19.1617 C   0  0  1  0  0  0  0  0  0  0  0  0
   14.5176  -14.6170   18.1453 C   0  0  0  0  0  0  0  0  0  0  0  0
   14.4195  -15.4346   16.9110 C   0  0  0  0  0  0  0  0  0  0  0  0
   14.0739  -16.7676   16.8214 C   0  0  0  0  0  0  0  0  0  0  0  0
   14.1049  -17.1119   15.5378 N   0  0  0  0  0  0  0  0  0  0  0  0
   14.4597  -16.0329   14.8221 C   0  0  0  0  0  0  0  0  0  0  0  0
   14.6599  -14.9835   15.6450 N   0  0  0  0  0  0  0  0  0  0  0  0
   13.9048  -14.8719   20.5400 C   0  0  0  0  0  0  0  0  0  0  0  0
   14.3932  -13.7270   20.8401 O   0  0  0  0  0  0  0  0  0  0  0  0
   13.8174  -15.8010   21.6052 N   0  0  0  0  0  0  0  0  0  0  0  0
   14.3204  -15.5253   22.9512 C   0  0  1  0  0  0  0  0  0  0  0  0
   13.4530  -16.1441   23.9875 C   0  0  0  0  0  0  0  0  0  0  0  0
   12.9725  -17.5073   23.6442 C   0  0  0  0  0  0  0  0  0  0  0  0
   12.1443  -18.0986   24.7506 C   0  0  0  0  0  0  0  0  0  0  0  0
   12.6304  -19.1246   25.2910 O   0  0  0  0  0  0  0  0  0  0  0  0
   15.7199  -15.9058   23.1023 C   0  0  0  0  0  0  0  0  0  0  0  0
   16.7421  -15.0043   23.1907 O   0  0  0  0  0  0  0  0  0  0  0  0
   10.9441  -17.5926   25.1730 O   0  0  0  0  0  0  0  0  0  0  0  0
   16.0249  -17.1515   23.1536 O   0  0  0  0  0  0  0  0  0  0  0  0
  2  1  1  6
  2  3  1  0
  4  2  1  0
  5  4  1  0
  5  6  1  1
  7  8  2  0
  7  5  1  0
  9  7  1  0
 10  9  1  0
 11 12  1  0
 10 11  1  6
 12 16  1  0
 13 12  2  0
 13 14  1  0
 14 15  1  0
 16 15  2  0
 17 10  1  0
 17 18  2  0
 19 17  1  0
 20 19  1  0
 20 21  1  1
 22 21  1  0
 23 22  1  0
 24 23  2  0
 25 20  1  0
 26 25  1  0
 27 23  1  0
 28 25  2  0
M  END
$$$$
