LHE.pdb
     RDKit          3D

 28 28  0  0  1  0  0  0  0  0999 V2000
    7.0837  -20.1009   16.8770 C   0  0  0  0  0  0  0  0  0  0  0  0
    8.4733  -20.2939   17.4272 C   0  0  2  0  0  0  0  0  0  0  0  0
    8.7162  -21.7122   17.8758 C   0  0  0  0  0  0  0  0  0  0  0  0
    8.8155  -19.2811   18.4703 C   0  0  0  0  0  0  0  0  0  0  0  0
    8.5068  -17.8665   18.1008 C   0  0  2  0  0  0  0  0  0  0  0  0
    9.3051  -17.4480   16.9849 N   0  0  0  0  0  0  0  0  0  0  0  0
    8.7526  -17.0164   19.3047 C   0  0  0  0  0  0  0  0  0  0  0  0
    9.9337  -16.6474   19.5994 O   0  0  0  0  0  0  0  0  0  0  0  0
    7.7307  -16.5751   20.1728 N   0  0  0  0  0  0  0  0  0  0  0  0
    7.9738  -15.8218   21.3749 C   0  0  1  0  0  0  0  0  0  0  0  0
    6.6222  -15.4346   21.9616 C   0  0  0  0  0  0  0  0  0  0  0  0
    6.8278  -14.6590   23.2097 C   0  0  0  0  0  0  0  0  0  0  0  0
    7.3313  -13.3789   23.3203 C   0  0  0  0  0  0  0  0  0  0  0  0
    7.3498  -13.0577   24.6101 N   0  0  0  0  0  0  0  0  0  0  0  0
    6.8725  -14.0997   25.3093 C   0  0  0  0  0  0  0  0  0  0  0  0
    6.5427  -15.1017   24.4694 N   0  0  0  0  0  0  0  0  0  0  0  0
    8.8374  -16.4971   22.3351 C   0  0  0  0  0  0  0  0  0  0  0  0
    8.8917  -17.7759   22.3053 O   0  0  0  0  0  0  0  0  0  0  0  0
    9.6409  -15.8706   23.3187 N   0  0  0  0  0  0  0  0  0  0  0  0
   10.6414  -16.5871   24.1101 C   0  0  1  0  0  0  0  0  0  0  0  0
   12.0156  -16.3184   23.6117 C   0  0  0  0  0  0  0  0  0  0  0  0
   13.0865  -17.0058   24.3784 C   0  0  0  0  0  0  0  0  0  0  0  0
   14.4445  -16.7478   23.7879 C   0  0  0  0  0  0  0  0  0  0  0  0
   15.3993  -17.3147   24.3780 O   0  0  0  0  0  0  0  0  0  0  0  0
   10.5082  -16.3171   25.5369 C   0  0  0  0  0  0  0  0  0  0  0  0
   10.0089  -15.1501   26.0410 O   0  0  0  0  0  0  0  0  0  0  0  0
   14.6738  -15.9617   22.6905 O   0  0  0  0  0  0  0  0  0  0  0  0
   10.8784  -17.2132   26.3779 O   0  0  0  0  0  0  0  0  0  0  0  0
  2  1  1  1
  2  3  1  0
  4  2  1  0
  5  4  1  0
  5  6  1  6
  7  8  2  0
  7  5  1  0
  9  7  1  0
 10  9  1  0
 11 12  1  0
 10 11  1  1
 12 16  1  0
 13 12  2  0
 13 14  1  0
 14 15  1  0
 16 15  2  0
 17 10  1  0
 17 18  2  0
 19 17  1  0
 20 19  1  0
 20 21  1  6
 22 21  1  0
 23 22  1  0
 24 23  2  0
 25 20  1  0
 26 25  1  0
 27 23  1  0
 28 25  2  0
M  END
$$$$
