LHE.pdb
     RDKit          3D

 28 28  0  0  1  0  0  0  0  0999 V2000
    7.8456  -12.5487   27.1317 C   0  0  0  0  0  0  0  0  0  0  0  0
    7.2664  -13.1832   25.8936 C   0  0  2  0  0  0  0  0  0  0  0  0
    6.0529  -12.4448   25.3897 C   0  0  0  0  0  0  0  0  0  0  0  0
    7.0335  -14.6488   26.0640 C   0  0  0  0  0  0  0  0  0  0  0  0
    6.6895  -15.3825   24.8085 C   0  0  2  0  0  0  0  0  0  0  0  0
    5.5689  -16.2526   25.0203 N   0  0  0  0  0  0  0  0  0  0  0  0
    7.9023  -16.1405   24.3760 C   0  0  0  0  0  0  0  0  0  0  0  0
    8.2351  -17.2134   24.9727 O   0  0  0  0  0  0  0  0  0  0  0  0
    8.7386  -15.7379   23.3124 N   0  0  0  0  0  0  0  0  0  0  0  0
    9.8702  -16.4998   22.8537 C   0  0  1  0  0  0  0  0  0  0  0  0
   10.3825  -15.8470   21.5760 C   0  0  0  0  0  0  0  0  0  0  0  0
    9.4109  -16.0764   20.4784 C   0  0  0  0  0  0  0  0  0  0  0  0
    8.8065  -17.2695   20.1383 C   0  0  0  0  0  0  0  0  0  0  0  0
    8.0070  -17.0408   19.1011 N   0  0  0  0  0  0  0  0  0  0  0  0
    8.0937  -15.7394   18.7829 C   0  0  0  0  0  0  0  0  0  0  0  0
    8.9535  -15.1206   19.6174 N   0  0  0  0  0  0  0  0  0  0  0  0
   10.9119  -16.6794   23.8568 C   0  0  0  0  0  0  0  0  0  0  0  0
   11.6764  -15.6866   24.1199 O   0  0  0  0  0  0  0  0  0  0  0  0
   11.1707  -17.8647   24.5873 N   0  0  0  0  0  0  0  0  0  0  0  0
   12.1812  -17.9505   25.6419 C   0  0  1  0  0  0  0  0  0  0  0  0
   11.6358  -18.6082   26.8581 C   0  0  0  0  0  0  0  0  0  0  0  0
   12.6242  -18.7758   27.9546 C   0  0  0  0  0  0  0  0  0  0  0  0
   12.0136  -19.4446   29.1544 C   0  0  0  0  0  0  0  0  0  0  0  0
   10.8208  -19.8148   29.0093 O   0  0  0  0  0  0  0  0  0  0  0  0
   13.4092  -18.5831   25.1748 C   0  0  0  0  0  0  0  0  0  0  0  0
   14.6496  -18.2674   25.6514 O   0  0  0  0  0  0  0  0  0  0  0  0
   12.6685  -19.6567   30.3380 O   0  0  0  0  0  0  0  0  0  0  0  0
   13.3381  -19.4853   24.2646 O   0  0  0  0  0  0  0  0  0  0  0  0
  2  1  1  1
  2  3  1  0
  4  2  1  0
  5  4  1  0
  5  6  1  1
  7  8  2  0
  7  5  1  0
  9  7  1  0
 10  9  1  0
 11 12  1  0
 10 11  1  6
 12 16  1  0
 13 12  2  0
 13 14  1  0
 14 15  1  0
 16 15  2  0
 17 10  1  0
 17 18  2  0
 19 17  1  0
 20 19  1  0
 20 21  1  1
 22 21  1  0
 23 22  1  0
 24 23  2  0
 25 20  1  0
 26 25  1  0
 27 23  1  0
 28 25  2  0
M  END
$$$$
