LHE.pdb
     RDKit          3D

 28 28  0  0  1  0  0  0  0  0999 V2000
    7.1690  -13.0019   20.6001 C   0  0  0  0  0  0  0  0  0  0  0  0
    8.2921  -12.8104   19.6137 C   0  0  2  0  0  0  0  0  0  0  0  0
    7.9003  -11.9065   18.4730 C   0  0  0  0  0  0  0  0  0  0  0  0
    8.8759  -14.1085   19.1607 C   0  0  0  0  0  0  0  0  0  0  0  0
    9.3160  -15.0197   20.2602 C   0  0  2  0  0  0  0  0  0  0  0  0
    9.1712  -14.3813   21.5366 N   0  0  0  0  0  0  0  0  0  0  0  0
   10.7351  -15.4043   19.9937 C   0  0  0  0  0  0  0  0  0  0  0  0
   11.0213  -16.1610   19.0123 O   0  0  0  0  0  0  0  0  0  0  0  0
   11.8239  -14.9724   20.7815 N   0  0  0  0  0  0  0  0  0  0  0  0
   13.1888  -15.3587   20.5380 C   0  0  1  0  0  0  0  0  0  0  0  0
   13.9154  -14.1536   19.9543 C   0  0  0  0  0  0  0  0  0  0  0  0
   14.4441  -14.4968   18.6111 C   0  0  0  0  0  0  0  0  0  0  0  0
   15.3060  -15.5269   18.2945 C   0  0  0  0  0  0  0  0  0  0  0  0
   15.5278  -15.4855   16.9845 N   0  0  0  0  0  0  0  0  0  0  0  0
   14.8295  -14.4595   16.4726 C   0  0  0  0  0  0  0  0  0  0  0  0
   14.1515  -13.8321   17.4550 N   0  0  0  0  0  0  0  0  0  0  0  0
   13.8640  -15.9206   21.7008 C   0  0  0  0  0  0  0  0  0  0  0  0
   13.6498  -15.3835   22.8432 O   0  0  0  0  0  0  0  0  0  0  0  0
   14.7515  -17.0242   21.6974 N   0  0  0  0  0  0  0  0  0  0  0  0
   15.3396  -17.5822   22.9154 C   0  0  1  0  0  0  0  0  0  0  0  0
   15.6409  -19.0287   22.7541 C   0  0  0  0  0  0  0  0  0  0  0  0
   16.1615  -19.6826   23.9823 C   0  0  0  0  0  0  0  0  0  0  0  0
   16.4960  -21.1283   23.7419 C   0  0  0  0  0  0  0  0  0  0  0  0
   17.4649  -21.3298   22.9662 O   0  0  0  0  0  0  0  0  0  0  0  0
   16.5012  -16.8219   23.3616 C   0  0  0  0  0  0  0  0  0  0  0  0
   17.1020  -15.8516   22.6114 O   0  0  0  0  0  0  0  0  0  0  0  0
   15.8242  -22.1810   24.3034 O   0  0  0  0  0  0  0  0  0  0  0  0
   17.0000  -17.0678   24.5184 O   0  0  0  0  0  0  0  0  0  0  0  0
  2  1  1  6
  2  3  1  0
  4  2  1  0
  5  4  1  0
  5  6  1  1
  7  8  2  0
  7  5  1  0
  9  7  1  0
 10  9  1  0
 11 12  1  0
 10 11  1  1
 12 16  1  0
 13 12  2  0
 13 14  1  0
 14 15  1  0
 16 15  2  0
 17 10  1  0
 17 18  2  0
 19 17  1  0
 20 19  1  0
 20 21  1  6
 22 21  1  0
 23 22  1  0
 24 23  2  0
 25 20  1  0
 26 25  1  0
 27 23  1  0
 28 25  2  0
M  END
$$$$
