LHE.pdb
     RDKit          3D

 28 28  0  0  1  0  0  0  0  0999 V2000
    8.2311  -12.2502   18.3367 C   0  0  0  0  0  0  0  0  0  0  0  0
    7.8096  -13.4759   19.1054 C   0  0  2  0  0  0  0  0  0  0  0  0
    6.3686  -13.4066   19.5419 C   0  0  0  0  0  0  0  0  0  0  0  0
    8.7475  -13.7938   20.2236 C   0  0  0  0  0  0  0  0  0  0  0  0
    8.6621  -15.1938   20.7391 C   0  0  2  0  0  0  0  0  0  0  0  0
    7.3152  -15.6813   20.6624 N   0  0  0  0  0  0  0  0  0  0  0  0
    9.1696  -15.1942   22.1445 C   0  0  0  0  0  0  0  0  0  0  0  0
   10.3338  -14.7541   22.4064 O   0  0  0  0  0  0  0  0  0  0  0  0
    8.4227  -15.6651   23.2459 N   0  0  0  0  0  0  0  0  0  0  0  0
    8.9166  -15.6810   24.5977 C   0  0  1  0  0  0  0  0  0  0  0  0
    7.7200  -15.8372   25.5275 C   0  0  0  0  0  0  0  0  0  0  0  0
    6.9856  -14.5506   25.6103 C   0  0  0  0  0  0  0  0  0  0  0  0
    7.4640  -13.2973   25.2867 C   0  0  0  0  0  0  0  0  0  0  0  0
    6.4889  -12.4200   25.5023 N   0  0  0  0  0  0  0  0  0  0  0  0
    5.4145  -13.0883   25.9513 C   0  0  0  0  0  0  0  0  0  0  0  0
    5.6937  -14.4053   26.0274 N   0  0  0  0  0  0  0  0  0  0  0  0
    9.9565  -16.6730   24.8389 C   0  0  0  0  0  0  0  0  0  0  0  0
    9.7163  -17.8906   24.5239 O   0  0  0  0  0  0  0  0  0  0  0  0
   11.2339  -16.4234   25.3972 N   0  0  0  0  0  0  0  0  0  0  0  0
   12.2681  -17.4509   25.5210 C   0  0  1  0  0  0  0  0  0  0  0  0
   13.5592  -16.9871   24.9491 C   0  0  0  0  0  0  0  0  0  0  0  0
   14.6688  -17.9664   25.0781 C   0  0  0  0  0  0  0  0  0  0  0  0
   15.9458  -17.4391   24.4857 C   0  0  0  0  0  0  0  0  0  0  0  0
   15.9385  -16.2128   24.2078 O   0  0  0  0  0  0  0  0  0  0  0  0
   12.4094  -17.9243   26.8930 C   0  0  0  0  0  0  0  0  0  0  0  0
   11.8062  -17.3278   27.9633 O   0  0  0  0  0  0  0  0  0  0  0  0
   17.0597  -18.1992   24.2484 O   0  0  0  0  0  0  0  0  0  0  0  0
   13.1391  -18.9544   27.1246 O   0  0  0  0  0  0  0  0  0  0  0  0
  2  1  1  1
  2  3  1  0
  4  2  1  0
  5  4  1  0
  5  6  1  1
  7  8  2  0
  7  5  1  0
  9  7  1  0
 10  9  1  0
 11 12  1  0
 10 11  1  1
 12 16  1  0
 13 12  2  0
 13 14  1  0
 14 15  1  0
 16 15  2  0
 17 10  1  0
 17 18  2  0
 19 17  1  0
 20 19  1  0
 20 21  1  1
 22 21  1  0
 23 22  1  0
 24 23  2  0
 25 20  1  0
 26 25  1  0
 27 23  1  0
 28 25  2  0
M  END
$$$$
