LHE.pdb
     RDKit          3D

 28 28  0  0  1  0  0  0  0  0999 V2000
    7.0499  -13.2977   19.0984 C   0  0  0  0  0  0  0  0  0  0  0  0
    7.2816  -13.4313   20.5814 C   0  0  2  0  0  0  0  0  0  0  0  0
    7.4676  -12.0941   21.2516 C   0  0  0  0  0  0  0  0  0  0  0  0
    8.3694  -14.4042   20.8996 C   0  0  0  0  0  0  0  0  0  0  0  0
    8.2183  -15.7486   20.2650 C   0  0  2  0  0  0  0  0  0  0  0  0
    6.9882  -16.3653   20.6700 N   0  0  0  0  0  0  0  0  0  0  0  0
    9.4027  -16.5724   20.6539 C   0  0  0  0  0  0  0  0  0  0  0  0
    9.3869  -17.2512   21.7294 O   0  0  0  0  0  0  0  0  0  0  0  0
   10.5838  -16.6563   19.8853 N   0  0  0  0  0  0  0  0  0  0  0  0
   11.7332  -17.4327   20.2694 C   0  0  1  0  0  0  0  0  0  0  0  0
   12.5638  -17.6834   19.0171 C   0  0  0  0  0  0  0  0  0  0  0  0
   11.9283  -18.7516   18.2067 C   0  0  0  0  0  0  0  0  0  0  0  0
   11.5231  -19.9967   18.6424 C   0  0  0  0  0  0  0  0  0  0  0  0
   11.0036  -20.6434   17.6036 N   0  0  0  0  0  0  0  0  0  0  0  0
   11.0720  -19.8388   16.5311 C   0  0  0  0  0  0  0  0  0  0  0  0
   11.6386  -18.6645   16.8753 N   0  0  0  0  0  0  0  0  0  0  0  0
   12.5078  -16.8497   21.3574 C   0  0  0  0  0  0  0  0  0  0  0  0
   13.0079  -15.6834   21.1869 O   0  0  0  0  0  0  0  0  0  0  0  0
   12.7693  -17.4531   22.6116 N   0  0  0  0  0  0  0  0  0  0  0  0
   13.4988  -16.7806   23.6869 C   0  0  1  0  0  0  0  0  0  0  0  0
   13.2096  -17.4031   25.0052 C   0  0  0  0  0  0  0  0  0  0  0  0
   11.7640  -17.4759   25.3400 C   0  0  0  0  0  0  0  0  0  0  0  0
   11.5302  -18.2046   26.6338 C   0  0  0  0  0  0  0  0  0  0  0  0
   12.5532  -18.7294   27.1429 O   0  0  0  0  0  0  0  0  0  0  0  0
   14.9292  -16.7027   23.4141 C   0  0  0  0  0  0  0  0  0  0  0  0
   15.5311  -17.3245   22.3575 O   0  0  0  0  0  0  0  0  0  0  0  0
   10.3123  -18.3153   27.2497 O   0  0  0  0  0  0  0  0  0  0  0  0
   15.6774  -16.0192   24.2016 O   0  0  0  0  0  0  0  0  0  0  0  0
  2  1  1  6
  2  3  1  0
  4  2  1  0
  5  4  1  0
  5  6  1  1
  7  8  2  0
  7  5  1  0
  9  7  1  0
 10  9  1  0
 11 12  1  0
 10 11  1  6
 12 16  1  0
 13 12  2  0
 13 14  1  0
 14 15  1  0
 16 15  2  0
 17 10  1  0
 17 18  2  0
 19 17  1  0
 20 19  1  0
 20 21  1  1
 22 21  1  0
 23 22  1  0
 24 23  2  0
 25 20  1  0
 26 25  1  0
 27 23  1  0
 28 25  2  0
M  END
$$$$
