LHE.pdb
     RDKit          3D

 28 28  0  0  1  0  0  0  0  0999 V2000
    8.4293  -14.0392   18.4351 C   0  0  0  0  0  0  0  0  0  0  0  0
    8.0198  -13.2920   19.6781 C   0  0  2  0  0  0  0  0  0  0  0  0
    8.0073  -11.7996   19.4672 C   0  0  0  0  0  0  0  0  0  0  0  0
    8.8087  -13.7094   20.8758 C   0  0  0  0  0  0  0  0  0  0  0  0
    8.7637  -15.1713   21.1821 C   0  0  2  0  0  0  0  0  0  0  0  0
    7.4843  -15.7221   20.8398 N   0  0  0  0  0  0  0  0  0  0  0  0
    9.0670  -15.3425   22.6352 C   0  0  0  0  0  0  0  0  0  0  0  0
   10.2117  -15.0295   23.0930 O   0  0  0  0  0  0  0  0  0  0  0  0
    8.1404  -15.8454   23.5739 N   0  0  0  0  0  0  0  0  0  0  0  0
    8.4268  -15.9977   24.9761 C   0  0  1  0  0  0  0  0  0  0  0  0
    7.1308  -15.7658   25.7427 C   0  0  0  0  0  0  0  0  0  0  0  0
    6.8779  -14.3084   25.8587 C   0  0  0  0  0  0  0  0  0  0  0  0
    7.7408  -13.2849   25.5238 C   0  0  0  0  0  0  0  0  0  0  0  0
    7.1274  -12.1337   25.7796 N   0  0  0  0  0  0  0  0  0  0  0  0
    5.9058  -12.4074   26.2645 C   0  0  0  0  0  0  0  0  0  0  0  0
    5.7256  -13.7425   26.3239 N   0  0  0  0  0  0  0  0  0  0  0  0
    9.0706  -17.2596   25.3177 C   0  0  0  0  0  0  0  0  0  0  0  0
    8.5764  -18.3399   24.8400 O   0  0  0  0  0  0  0  0  0  0  0  0
   10.2122  -17.4175   26.1408 N   0  0  0  0  0  0  0  0  0  0  0  0
   10.8622  -18.7083   26.3689 C   0  0  1  0  0  0  0  0  0  0  0  0
   12.1512  -18.7993   25.6345 C   0  0  0  0  0  0  0  0  0  0  0  0
   12.9323  -20.0290   25.9260 C   0  0  0  0  0  0  0  0  0  0  0  0
   14.2020  -20.0830   25.1233 C   0  0  0  0  0  0  0  0  0  0  0  0
   14.0952  -19.7023   23.9297 O   0  0  0  0  0  0  0  0  0  0  0  0
   11.0130  -19.0031   27.7891 C   0  0  0  0  0  0  0  0  0  0  0  0
   10.7126  -18.1134   28.7808 O   0  0  0  0  0  0  0  0  0  0  0  0
   15.4085  -20.5076   25.6123 O   0  0  0  0  0  0  0  0  0  0  0  0
   11.4535  -20.1555   28.1429 O   0  0  0  0  0  0  0  0  0  0  0  0
  2  1  1  6
  2  3  1  0
  4  2  1  0
  5  4  1  0
  5  6  1  1
  7  8  2  0
  7  5  1  0
  9  7  1  0
 10  9  1  0
 11 12  1  0
 10 11  1  1
 12 16  1  0
 13 12  2  0
 13 14  1  0
 14 15  1  0
 16 15  2  0
 17 10  1  0
 17 18  2  0
 19 17  1  0
 20 19  1  0
 20 21  1  6
 22 21  1  0
 23 22  1  0
 24 23  2  0
 25 20  1  0
 26 25  1  0
 27 23  1  0
 28 25  2  0
M  END
$$$$
