LHE.pdb
     RDKit          3D

 28 28  0  0  1  0  0  0  0  0999 V2000
    8.1579  -12.8189   19.4082 C   0  0  0  0  0  0  0  0  0  0  0  0
    7.6080  -13.4580   20.6572 C   0  0  2  0  0  0  0  0  0  0  0  0
    7.3584  -12.4504   21.7500 C   0  0  0  0  0  0  0  0  0  0  0  0
    8.4296  -14.6214   21.1074 C   0  0  0  0  0  0  0  0  0  0  0  0
    8.6684  -15.6654   20.0653 C   0  0  2  0  0  0  0  0  0  0  0  0
    7.4292  -16.2469   19.6366 N   0  0  0  0  0  0  0  0  0  0  0  0
    9.5862  -16.6903   20.6482 C   0  0  0  0  0  0  0  0  0  0  0  0
    9.1279  -17.6093   21.3987 O   0  0  0  0  0  0  0  0  0  0  0  0
   10.9787  -16.7150   20.4180 N   0  0  0  0  0  0  0  0  0  0  0  0
   11.8714  -17.6685   21.0223 C   0  0  1  0  0  0  0  0  0  0  0  0
   12.9964  -17.9436   20.0325 C   0  0  0  0  0  0  0  0  0  0  0  0
   12.5395  -18.9330   19.0256 C   0  0  0  0  0  0  0  0  0  0  0  0
   12.0432  -18.6690   17.7654 C   0  0  0  0  0  0  0  0  0  0  0  0
   11.7533  -19.8313   17.1892 N   0  0  0  0  0  0  0  0  0  0  0  0
   12.0540  -20.8146   18.0524 C   0  0  0  0  0  0  0  0  0  0  0  0
   12.5413  -20.2879   19.1942 N   0  0  0  0  0  0  0  0  0  0  0  0
   12.3569  -17.2765   22.3393 C   0  0  0  0  0  0  0  0  0  0  0  0
   12.8204  -16.0920   22.4855 O   0  0  0  0  0  0  0  0  0  0  0  0
   12.3682  -18.0884   23.4996 N   0  0  0  0  0  0  0  0  0  0  0  0
   12.8183  -17.6099   24.8069 C   0  0  1  0  0  0  0  0  0  0  0  0
   12.1418  -18.3411   25.9101 C   0  0  0  0  0  0  0  0  0  0  0  0
   12.5846  -17.9372   27.2695 C   0  0  0  0  0  0  0  0  0  0  0  0
   11.9324  -18.7717   28.3361 C   0  0  0  0  0  0  0  0  0  0  0  0
   11.0904  -19.6074   27.9193 O   0  0  0  0  0  0  0  0  0  0  0  0
   14.2708  -17.6410   24.9321 C   0  0  0  0  0  0  0  0  0  0  0  0
   15.0703  -18.5011   24.2348 O   0  0  0  0  0  0  0  0  0  0  0  0
   12.2029  -18.6654   29.6742 O   0  0  0  0  0  0  0  0  0  0  0  0
   14.8442  -16.8243   25.7392 O   0  0  0  0  0  0  0  0  0  0  0  0
  2  1  1  6
  2  3  1  0
  4  2  1  0
  5  4  1  0
  5  6  1  1
  7  8  2  0
  7  5  1  0
  9  7  1  0
 10  9  1  0
 11 12  1  0
 10 11  1  6
 12 16  1  0
 13 12  2  0
 13 14  1  0
 14 15  1  0
 16 15  2  0
 17 10  1  0
 17 18  2  0
 19 17  1  0
 20 19  1  0
 20 21  1  1
 22 21  1  0
 23 22  1  0
 24 23  2  0
 25 20  1  0
 26 25  1  0
 27 23  1  0
 28 25  2  0
M  END
$$$$
