LHE.pdb
     RDKit          3D

 28 28  0  0  1  0  0  0  0  0999 V2000
    9.1094  -12.1473   19.0035 C   0  0  0  0  0  0  0  0  0  0  0  0
    8.1066  -13.1629   19.4871 C   0  0  2  0  0  0  0  0  0  0  0  0
    7.1173  -12.5693   20.4570 C   0  0  0  0  0  0  0  0  0  0  0  0
    8.7598  -14.4043   20.0003 C   0  0  0  0  0  0  0  0  0  0  0  0
    9.9080  -14.8974   19.1808 C   0  0  2  0  0  0  0  0  0  0  0  0
    9.4822  -15.2091   17.8470 N   0  0  0  0  0  0  0  0  0  0  0  0
   10.4807  -16.0928   19.8706 C   0  0  0  0  0  0  0  0  0  0  0  0
   10.3593  -16.2266   21.1296 O   0  0  0  0  0  0  0  0  0  0  0  0
   11.1733  -17.1250   19.2016 N   0  0  0  0  0  0  0  0  0  0  0  0
   11.6347  -18.3259   19.8468 C   0  0  1  0  0  0  0  0  0  0  0  0
   12.1034  -19.2859   18.7607 C   0  0  0  0  0  0  0  0  0  0  0  0
   10.9255  -19.9066   18.1060 C   0  0  0  0  0  0  0  0  0  0  0  0
   10.0678  -20.8411   18.6496 C   0  0  0  0  0  0  0  0  0  0  0  0
    9.1486  -21.1324   17.7346 N   0  0  0  0  0  0  0  0  0  0  0  0
    9.4064  -20.4071   16.6346 C   0  0  0  0  0  0  0  0  0  0  0  0
   10.4980  -19.6416   16.8367 N   0  0  0  0  0  0  0  0  0  0  0  0
   12.6405  -18.0986   20.8766 C   0  0  0  0  0  0  0  0  0  0  0  0
   13.5255  -17.1968   20.6695 O   0  0  0  0  0  0  0  0  0  0  0  0
   12.7415  -18.7869   22.1101 N   0  0  0  0  0  0  0  0  0  0  0  0
   13.7205  -18.4422   23.1413 C   0  0  1  0  0  0  0  0  0  0  0  0
   13.3519  -19.0350   24.4535 C   0  0  0  0  0  0  0  0  0  0  0  0
   14.3150  -18.7415   25.5460 C   0  0  0  0  0  0  0  0  0  0  0  0
   13.9179  -19.4132   26.8308 C   0  0  0  0  0  0  0  0  0  0  0  0
   12.7166  -19.2546   27.1667 O   0  0  0  0  0  0  0  0  0  0  0  0
   15.0807  -18.7843   22.7425 C   0  0  0  0  0  0  0  0  0  0  0  0
   16.1765  -18.0448   23.0854 O   0  0  0  0  0  0  0  0  0  0  0  0
   14.7661  -20.1528   27.6109 O   0  0  0  0  0  0  0  0  0  0  0  0
   15.2755  -19.8325   22.0278 O   0  0  0  0  0  0  0  0  0  0  0  0
  2  1  1  1
  2  3  1  0
  4  2  1  0
  5  4  1  0
  5  6  1  6
  7  8  2  0
  7  5  1  0
  9  7  1  0
 10  9  1  0
 11 12  1  0
 10 11  1  6
 12 16  1  0
 13 12  2  0
 13 14  1  0
 14 15  1  0
 16 15  2  0
 17 10  1  0
 17 18  2  0
 19 17  1  0
 20 19  1  0
 20 21  1  1
 22 21  1  0
 23 22  1  0
 24 23  2  0
 25 20  1  0
 26 25  1  0
 27 23  1  0
 28 25  2  0
M  END
$$$$
