LHE.pdb
     RDKit          3D

 28 28  0  0  1  0  0  0  0  0999 V2000
    5.7304  -11.5258   25.5382 C   0  0  0  0  0  0  0  0  0  0  0  0
    6.4126  -12.3536   26.5967 C   0  0  2  0  0  0  0  0  0  0  0  0
    7.1329  -11.5013   27.6098 C   0  0  0  0  0  0  0  0  0  0  0  0
    7.2740  -13.4242   26.0110 C   0  0  0  0  0  0  0  0  0  0  0  0
    6.5989  -14.2944   25.0011 C   0  0  2  0  0  0  0  0  0  0  0  0
    5.5893  -15.1026   25.6219 N   0  0  0  0  0  0  0  0  0  0  0  0
    7.6488  -15.1310   24.3450 C   0  0  0  0  0  0  0  0  0  0  0  0
    7.8756  -16.3136   24.7544 O   0  0  0  0  0  0  0  0  0  0  0  0
    8.4380  -14.6881   23.2616 N   0  0  0  0  0  0  0  0  0  0  0  0
    9.4137  -15.5103   22.5956 C   0  0  1  0  0  0  0  0  0  0  0  0
    9.8818  -14.7619   21.3539 C   0  0  0  0  0  0  0  0  0  0  0  0
    8.7485  -14.6144   20.4078 C   0  0  0  0  0  0  0  0  0  0  0  0
    7.4741  -15.1241   20.5502 C   0  0  0  0  0  0  0  0  0  0  0  0
    6.7684  -14.7629   19.4831 N   0  0  0  0  0  0  0  0  0  0  0  0
    7.5645  -14.0420   18.6775 C   0  0  0  0  0  0  0  0  0  0  0  0
    8.7925  -13.9349   19.2243 N   0  0  0  0  0  0  0  0  0  0  0  0
   10.5144  -15.9369   23.4502 C   0  0  0  0  0  0  0  0  0  0  0  0
   11.3317  -15.0471   23.8738 O   0  0  0  0  0  0  0  0  0  0  0  0
   10.7782  -17.2634   23.8703 N   0  0  0  0  0  0  0  0  0  0  0  0
   11.8228  -17.6043   24.8364 C   0  0  1  0  0  0  0  0  0  0  0  0
   11.3896  -18.7100   25.7301 C   0  0  0  0  0  0  0  0  0  0  0  0
   12.4273  -19.1538   26.6963 C   0  0  0  0  0  0  0  0  0  0  0  0
   11.9429  -20.2960   27.5450 C   0  0  0  0  0  0  0  0  0  0  0  0
   10.7857  -20.7075   27.2756 O   0  0  0  0  0  0  0  0  0  0  0  0
   13.0987  -17.8846   24.1885 C   0  0  0  0  0  0  0  0  0  0  0  0
   14.3098  -17.6733   24.7834 O   0  0  0  0  0  0  0  0  0  0  0  0
   12.6717  -20.8775   28.5478 O   0  0  0  0  0  0  0  0  0  0  0  0
   13.1012  -18.3528   22.9935 O   0  0  0  0  0  0  0  0  0  0  0  0
  2  1  1  6
  2  3  1  0
  4  2  1  0
  5  4  1  0
  5  6  1  1
  7  8  2  0
  7  5  1  0
  9  7  1  0
 10  9  1  0
 11 12  1  0
 10 11  1  6
 12 16  1  0
 13 12  2  0
 13 14  1  0
 14 15  1  0
 16 15  2  0
 17 10  1  0
 17 18  2  0
 19 17  1  0
 20 19  1  0
 20 21  1  6
 22 21  1  0
 23 22  1  0
 24 23  2  0
 25 20  1  0
 26 25  1  0
 27 23  1  0
 28 25  2  0
M  END
$$$$
