TGL.pdb
     RDKit          3D

 20 19  0  0  1  0  0  0  0  0999 V2000
   17.4843  -11.9407  -18.6910 C   0  0  0  0  0  0  0  0  0  0  0  0
   18.3994  -13.0974  -18.9966 C   0  0  1  0  0  0  0  0  0  0  0  0
   17.6698  -14.2211  -19.3784 O   0  0  0  0  0  0  0  0  0  0  0  0
   19.3548  -12.7274  -20.1122 C   0  0  2  0  0  0  0  0  0  0  0  0
   20.0687  -13.8536  -20.6245 N   0  0  0  0  0  0  0  0  0  0  0  0
   20.3085  -11.7041  -19.6560 C   0  0  0  0  0  0  0  0  0  0  0  0
   21.4485  -12.0278  -19.2777 O   0  0  0  0  0  0  0  0  0  0  0  0
   19.9213  -10.3486  -19.6500 N   0  0  0  0  0  0  0  0  0  0  0  0
   20.8016   -9.2975  -19.1931 C   0  0  0  0  0  0  0  0  0  0  0  0
   20.6261   -9.1939  -17.7021 C   0  0  0  0  0  0  0  0  0  0  0  0
   19.7448   -9.8967  -17.1024 O   0  0  0  0  0  0  0  0  0  0  0  0
   24.1645  -10.9732  -14.7036 C   0  0  0  0  0  0  0  0  0  0  0  0
   22.7326  -10.5465  -15.1449 C   0  0  1  0  0  0  0  0  0  0  0  0
   21.7721  -11.2685  -14.2064 C   0  0  0  0  0  0  0  0  0  0  0  0
   22.6252   -9.0693  -15.0291 C   0  0  0  0  0  0  0  0  0  0  0  0
   21.3478   -8.4148  -15.4214 C   0  0  2  0  0  0  0  0  0  0  0  0
   21.4233   -8.3240  -16.9271 N   0  0  0  0  0  0  0  0  0  0  0  0
   21.0010   -7.1137  -14.8959 C   0  0  0  0  0  0  0  0  0  0  0  0
   21.3255   -6.0776  -15.5925 O   0  0  0  0  0  0  0  0  0  0  0  0
   20.3440   -6.8106  -13.7230 O   0  0  0  0  0  0  0  0  0  0  0  0
  2  1  1  6
  2  4  1  0
  3  2  1  0
  4  5  1  1
  6  4  1  0
  6  7  2  0
  8  6  1  0
  9  8  1  0
  9 10  1  0
 10 11  2  0
 10 17  1  0
 13 15  1  0
 13 14  1  1
 13 12  1  0
 16 15  1  1
 16 18  1  0
 17 16  1  0
 18 19  2  0
 18 20  1  0
M  END
$$$$
