TGL.pdb
     RDKit          3D

 20 19  0  0  1  0  0  0  0  0999 V2000
   25.3151  -26.2880  -17.7237 C   0  0  0  0  0  0  0  0  0  0  0  0
   25.9829  -25.3473  -16.7553 C   0  0  1  0  0  0  0  0  0  0  0  0
   27.0291  -25.9806  -16.0882 O   0  0  0  0  0  0  0  0  0  0  0  0
   26.5262  -24.1395  -17.4903 C   0  0  2  0  0  0  0  0  0  0  0  0
   27.4605  -24.4890  -18.5127 N   0  0  0  0  0  0  0  0  0  0  0  0
   27.1546  -23.2016  -16.5469 C   0  0  0  0  0  0  0  0  0  0  0  0
   28.2475  -22.6722  -16.8169 O   0  0  0  0  0  0  0  0  0  0  0  0
   26.5084  -22.9047  -15.3296 N   0  0  0  0  0  0  0  0  0  0  0  0
   26.6633  -21.6307  -14.6654 C   0  0  0  0  0  0  0  0  0  0  0  0
   25.7648  -21.6518  -13.4584 C   0  0  0  0  0  0  0  0  0  0  0  0
   24.7710  -22.4516  -13.4035 O   0  0  0  0  0  0  0  0  0  0  0  0
   26.3111  -21.6128   -8.5999 C   0  0  0  0  0  0  0  0  0  0  0  0
   25.4664  -20.3182   -8.7944 C   0  0  1  0  0  0  0  0  0  0  0  0
   26.0470  -19.2900   -7.8299 C   0  0  0  0  0  0  0  0  0  0  0  0
   25.5850  -19.8875  -10.2112 C   0  0  0  0  0  0  0  0  0  0  0  0
   24.9512  -20.7243  -11.2659 C   0  0  2  0  0  0  0  0  0  0  0  0
   25.9909  -20.7957  -12.3590 N   0  0  0  0  0  0  0  0  0  0  0  0
   23.6896  -20.3312  -11.8517 C   0  0  0  0  0  0  0  0  0  0  0  0
   23.7189  -19.5221  -12.8559 O   0  0  0  0  0  0  0  0  0  0  0  0
   22.4180  -20.7158  -11.4853 O   0  0  0  0  0  0  0  0  0  0  0  0
  2  1  1  6
  2  4  1  0
  3  2  1  0
  4  5  1  6
  6  4  1  0
  6  7  2  0
  8  6  1  0
  9  8  1  0
  9 10  1  0
 10 11  2  0
 10 17  1  0
 13 15  1  0
 13 14  1  1
 13 12  1  0
 16 15  1  1
 16 18  1  0
 17 16  1  0
 18 19  2  0
 18 20  1  0
M  END
$$$$
