TGL.pdb
     RDKit          3D

 20 19  0  0  1  0  0  0  0  0999 V2000
   16.3714  -16.0334  -17.8992 C   0  0  0  0  0  0  0  0  0  0  0  0
   17.0397  -14.7148  -18.1878 C   0  0  1  0  0  0  0  0  0  0  0  0
   16.0948  -13.7059  -18.3605 O   0  0  0  0  0  0  0  0  0  0  0  0
   17.9627  -14.3361  -17.0482 C   0  0  2  0  0  0  0  0  0  0  0  0
   17.2610  -14.0788  -15.8309 N   0  0  0  0  0  0  0  0  0  0  0  0
   18.7725  -13.1619  -17.4089 C   0  0  0  0  0  0  0  0  0  0  0  0
   19.7765  -13.2859  -18.1329 O   0  0  0  0  0  0  0  0  0  0  0  0
   18.4025  -11.8897  -16.9273 N   0  0  0  0  0  0  0  0  0  0  0  0
   19.1238  -10.6899  -17.2862 C   0  0  0  0  0  0  0  0  0  0  0  0
   20.1611  -10.4644  -16.2196 C   0  0  0  0  0  0  0  0  0  0  0  0
   20.0683  -11.0526  -15.0901 O   0  0  0  0  0  0  0  0  0  0  0  0
   24.6809  -10.6278  -13.8296 C   0  0  0  0  0  0  0  0  0  0  0  0
   24.7422   -9.5681  -14.9700 C   0  0  1  0  0  0  0  0  0  0  0  0
   26.0389   -9.8392  -15.7249 C   0  0  0  0  0  0  0  0  0  0  0  0
   23.5452   -9.7365  -15.8336 C   0  0  0  0  0  0  0  0  0  0  0  0
   22.2152   -9.3465  -15.2921 C   0  0  2  0  0  0  0  0  0  0  0  0
   21.2591   -9.6033  -16.4328 N   0  0  0  0  0  0  0  0  0  0  0  0
   21.9923   -8.0082  -14.7935 C   0  0  0  0  0  0  0  0  0  0  0  0
   21.8350   -7.0630  -15.6571 O   0  0  0  0  0  0  0  0  0  0  0  0
   21.9122   -7.5836  -13.4849 O   0  0  0  0  0  0  0  0  0  0  0  0
  2  1  1  1
  2  4  1  0
  3  2  1  0
  4  5  1  1
  6  4  1  0
  6  7  2  0
  8  6  1  0
  9  8  1  0
  9 10  1  0
 10 11  2  0
 10 17  1  0
 13 15  1  0
 13 14  1  6
 13 12  1  0
 16 15  1  6
 16 18  1  0
 17 16  1  0
 18 19  2  0
 18 20  1  0
M  END
$$$$
