TGL.pdb
     RDKit          3D

 20 19  0  0  1  0  0  0  0  0999 V2000
   16.0441  -12.5803  -18.0514 C   0  0  0  0  0  0  0  0  0  0  0  0
   14.8297  -12.4395  -17.1717 C   0  0  1  0  0  0  0  0  0  0  0  0
   14.2623  -13.6834  -16.9045 O   0  0  0  0  0  0  0  0  0  0  0  0
   15.2066  -11.7780  -15.8623 C   0  0  2  0  0  0  0  0  0  0  0  0
   14.1187  -11.7217  -14.9383 N   0  0  0  0  0  0  0  0  0  0  0  0
   15.7231  -10.4210  -16.1001 C   0  0  0  0  0  0  0  0  0  0  0  0
   15.0801   -9.6137  -16.7945 O   0  0  0  0  0  0  0  0  0  0  0  0
   16.9564  -10.0391  -15.5340 N   0  0  0  0  0  0  0  0  0  0  0  0
   17.4829   -8.6997  -15.6650 C   0  0  0  0  0  0  0  0  0  0  0  0
   18.7881   -8.6650  -14.9170 C   0  0  0  0  0  0  0  0  0  0  0  0
   19.0479   -9.5407  -14.0248 O   0  0  0  0  0  0  0  0  0  0  0  0
   22.8623   -9.8125  -13.0259 C   0  0  0  0  0  0  0  0  0  0  0  0
   23.1256   -9.2118  -14.4390 C   0  0  1  0  0  0  0  0  0  0  0  0
   23.8175  -10.3099  -15.2391 C   0  0  0  0  0  0  0  0  0  0  0  0
   21.8219   -8.8210  -15.0346 C   0  0  0  0  0  0  0  0  0  0  0  0
   21.0585   -7.7069  -14.4100 C   0  0  2  0  0  0  0  0  0  0  0  0
   19.7574   -7.6719  -15.1761 N   0  0  0  0  0  0  0  0  0  0  0  0
   21.6107   -6.3716  -14.3741 C   0  0  0  0  0  0  0  0  0  0  0  0
   22.4687   -6.1001  -13.4499 O   0  0  0  0  0  0  0  0  0  0  0  0
   21.3507   -5.3138  -15.2184 O   0  0  0  0  0  0  0  0  0  0  0  0
  2  1  1  6
  2  4  1  0
  3  2  1  0
  4  5  1  1
  6  4  1  0
  6  7  2  0
  8  6  1  0
  9  8  1  0
  9 10  1  0
 10 11  2  0
 10 17  1  0
 13 15  1  0
 13 14  1  6
 13 12  1  0
 16 15  1  6
 16 18  1  0
 17 16  1  0
 18 19  2  0
 18 20  1  0
M  END
$$$$
