TGL.pdb
     RDKit          3D

 20 19  0  0  1  0  0  0  0  0999 V2000
   15.0159  -14.3933  -19.5586 C   0  0  0  0  0  0  0  0  0  0  0  0
   16.0289  -13.2810  -19.6296 C   0  0  1  0  0  0  0  0  0  0  0  0
   15.4481  -12.1096  -20.1103 O   0  0  0  0  0  0  0  0  0  0  0  0
   16.6107  -13.0155  -18.2566 C   0  0  2  0  0  0  0  0  0  0  0  0
   15.6326  -12.5601  -17.3205 N   0  0  0  0  0  0  0  0  0  0  0  0
   17.7062  -12.0370  -18.3413 C   0  0  0  0  0  0  0  0  0  0  0  0
   18.7728  -12.3313  -18.9098 O   0  0  0  0  0  0  0  0  0  0  0  0
   17.5395  -10.7581  -17.7719 N   0  0  0  0  0  0  0  0  0  0  0  0
   18.5071   -9.7005  -17.9556 C   0  0  0  0  0  0  0  0  0  0  0  0
   19.3468   -9.6509  -16.7079 C   0  0  0  0  0  0  0  0  0  0  0  0
   18.8676  -10.0336  -15.5880 O   0  0  0  0  0  0  0  0  0  0  0  0
   23.1171  -10.5498  -13.3361 C   0  0  0  0  0  0  0  0  0  0  0  0
   23.7011   -9.7579  -14.5440 C   0  0  1  0  0  0  0  0  0  0  0  0
   24.9815  -10.4839  -14.9416 C   0  0  0  0  0  0  0  0  0  0  0  0
   22.6947   -9.7572  -15.6368 C   0  0  0  0  0  0  0  0  0  0  0  0
   21.4201   -9.0174  -15.4313 C   0  0  2  0  0  0  0  0  0  0  0  0
   20.6786   -9.1838  -16.7365 N   0  0  0  0  0  0  0  0  0  0  0  0
   21.4365   -7.6145  -15.0838 C   0  0  0  0  0  0  0  0  0  0  0  0
   21.2351   -7.2982  -13.8495 O   0  0  0  0  0  0  0  0  0  0  0  0
   21.6519   -6.5303  -15.9068 O   0  0  0  0  0  0  0  0  0  0  0  0
  2  1  1  1
  2  4  1  0
  3  2  1  0
  4  5  1  1
  6  4  1  0
  6  7  2  0
  8  6  1  0
  9  8  1  0
  9 10  1  0
 10 11  2  0
 10 17  1  0
 13 15  1  0
 13 14  1  6
 13 12  1  0
 16 15  1  6
 16 18  1  0
 17 16  1  0
 18 19  2  0
 18 20  1  0
M  END
$$$$
