TGL.pdb
     RDKit          3D

 20 19  0  0  1  0  0  0  0  0999 V2000
   15.0794  -13.5100  -16.4269 C   0  0  0  0  0  0  0  0  0  0  0  0
   15.3489  -12.2601  -15.6308 C   0  0  1  0  0  0  0  0  0  0  0  0
   15.3068  -12.5228  -14.2634 O   0  0  0  0  0  0  0  0  0  0  0  0
   16.7109  -11.6992  -15.9835 C   0  0  2  0  0  0  0  0  0  0  0  0
   17.7785  -12.5843  -15.6412 N   0  0  0  0  0  0  0  0  0  0  0  0
   16.9184  -10.3985  -15.3280 C   0  0  0  0  0  0  0  0  0  0  0  0
   16.1665   -9.4392  -15.5768 O   0  0  0  0  0  0  0  0  0  0  0  0
   17.9789  -10.2448  -14.4120 N   0  0  0  0  0  0  0  0  0  0  0  0
   18.2015   -9.0127  -13.6902 C   0  0  0  0  0  0  0  0  0  0  0  0
   19.5066   -8.4457  -14.1799 C   0  0  0  0  0  0  0  0  0  0  0  0
   20.0360   -7.4402  -13.5977 O   0  0  0  0  0  0  0  0  0  0  0  0
   23.7164  -11.3963  -14.8154 C   0  0  0  0  0  0  0  0  0  0  0  0
   22.7371  -10.2253  -14.5041 C   0  0  1  0  0  0  0  0  0  0  0  0
   23.4551   -9.3352  -13.4956 C   0  0  0  0  0  0  0  0  0  0  0  0
   22.4410   -9.5099  -15.7720 C   0  0  0  0  0  0  0  0  0  0  0  0
   21.4772   -8.3766  -15.7424 C   0  0  2  0  0  0  0  0  0  0  0  0
   20.1801   -9.0029  -15.2884 N   0  0  0  0  0  0  0  0  0  0  0  0
   21.2240   -7.6003  -16.9352 C   0  0  0  0  0  0  0  0  0  0  0  0
   22.1862   -6.8756  -17.3967 O   0  0  0  0  0  0  0  0  0  0  0  0
   20.0670   -7.5270  -17.6802 O   0  0  0  0  0  0  0  0  0  0  0  0
  2  1  1  6
  2  4  1  0
  3  2  1  0
  4  5  1  1
  6  4  1  0
  6  7  2  0
  8  6  1  0
  9  8  1  0
  9 10  1  0
 10 11  2  0
 10 17  1  0
 13 15  1  0
 13 14  1  1
 13 12  1  0
 16 15  1  6
 16 18  1  0
 17 16  1  0
 18 19  2  0
 18 20  1  0
M  END
$$$$
