TGL.pdb
     RDKit          3D

 20 19  0  0  1  0  0  0  0  0999 V2000
   13.1980  -10.6003  -16.8240 C   0  0  0  0  0  0  0  0  0  0  0  0
   14.2074   -9.5301  -17.1474 C   0  0  1  0  0  0  0  0  0  0  0  0
   14.1804   -8.5163  -16.1923 O   0  0  0  0  0  0  0  0  0  0  0  0
   15.6001  -10.1232  -17.1978 C   0  0  2  0  0  0  0  0  0  0  0  0
   15.9614  -10.7889  -15.9867 N   0  0  0  0  0  0  0  0  0  0  0  0
   16.5933   -9.0818  -17.5039 C   0  0  0  0  0  0  0  0  0  0  0  0
   16.4919   -8.3974  -18.5377 O   0  0  0  0  0  0  0  0  0  0  0  0
   17.6653   -8.8629  -16.6150 N   0  0  0  0  0  0  0  0  0  0  0  0
   18.6012   -7.7755  -16.7890 C   0  0  0  0  0  0  0  0  0  0  0  0
   19.0109   -7.3234  -15.4134 C   0  0  0  0  0  0  0  0  0  0  0  0
   18.3347   -7.6721  -14.3879 O   0  0  0  0  0  0  0  0  0  0  0  0
   22.8992   -9.7279  -12.9034 C   0  0  0  0  0  0  0  0  0  0  0  0
   21.7493   -8.7048  -12.6624 C   0  0  1  0  0  0  0  0  0  0  0  0
   22.2747   -7.7208  -11.6231 C   0  0  0  0  0  0  0  0  0  0  0  0
   21.4320   -8.0409  -13.9530 C   0  0  0  0  0  0  0  0  0  0  0  0
   20.9245   -6.6423  -13.9290 C   0  0  2  0  0  0  0  0  0  0  0  0
   20.1454   -6.5071  -15.2158 N   0  0  0  0  0  0  0  0  0  0  0  0
   21.8443   -5.5320  -13.8257 C   0  0  0  0  0  0  0  0  0  0  0  0
   22.3840   -5.0949  -14.9128 O   0  0  0  0  0  0  0  0  0  0  0  0
   22.2342   -4.8445  -12.6968 O   0  0  0  0  0  0  0  0  0  0  0  0
  2  1  1  1
  2  4  1  0
  3  2  1  0
  4  5  1  1
  6  4  1  0
  6  7  2  0
  8  6  1  0
  9  8  1  0
  9 10  1  0
 10 11  2  0
 10 17  1  0
 13 15  1  0
 13 14  1  1
 13 12  1  0
 16 15  1  6
 16 18  1  0
 17 16  1  0
 18 19  2  0
 18 20  1  0
M  END
$$$$
