TGL.pdb
     RDKit          3D

 20 19  0  0  1  0  0  0  0  0999 V2000
   23.7577  -34.5521  -10.3190 C   0  0  0  0  0  0  0  0  0  0  0  0
   25.1352  -33.9679  -10.1464 C   0  0  1  0  0  0  0  0  0  0  0  0
   25.5275  -33.2738  -11.2887 O   0  0  0  0  0  0  0  0  0  0  0  0
   25.1576  -33.0227   -8.9631 C   0  0  2  0  0  0  0  0  0  0  0  0
   26.4054  -32.3416   -8.8234 N   0  0  0  0  0  0  0  0  0  0  0  0
   24.8479  -33.7458   -7.7197 C   0  0  0  0  0  0  0  0  0  0  0  0
   23.7653  -34.3448   -7.5909 O   0  0  0  0  0  0  0  0  0  0  0  0
   25.7893  -33.7560   -6.6704 N   0  0  0  0  0  0  0  0  0  0  0  0
   25.5501  -34.4529   -5.4271 C   0  0  0  0  0  0  0  0  0  0  0  0
   25.6750  -33.4381   -4.3230 C   0  0  0  0  0  0  0  0  0  0  0  0
   26.2243  -32.3063   -4.5413 O   0  0  0  0  0  0  0  0  0  0  0  0
   22.9464  -29.6318   -1.8900 C   0  0  0  0  0  0  0  0  0  0  0  0
   24.2446  -30.4003   -1.5012 C   0  0  1  0  0  0  0  0  0  0  0  0
   24.2395  -30.4886    0.0209 C   0  0  0  0  0  0  0  0  0  0  0  0
   24.2073  -31.7408   -2.1405 C   0  0  0  0  0  0  0  0  0  0  0  0
   25.3682  -32.6524   -1.9527 C   0  0  2  0  0  0  0  0  0  0  0  0
   25.1929  -33.7035   -3.0230 N   0  0  0  0  0  0  0  0  0  0  0  0
   25.5817  -33.3135   -0.6852 C   0  0  0  0  0  0  0  0  0  0  0  0
   26.3329  -32.7236    0.1818 O   0  0  0  0  0  0  0  0  0  0  0  0
   25.0744  -34.5192   -0.2514 O   0  0  0  0  0  0  0  0  0  0  0  0
  2  1  1  6
  2  4  1  0
  3  2  1  0
  4  5  1  1
  6  4  1  0
  6  7  2  0
  8  6  1  0
  9  8  1  0
  9 10  1  0
 10 11  2  0
 10 17  1  0
 13 15  1  0
 13 14  1  1
 13 12  1  0
 16 15  1  1
 16 18  1  0
 17 16  1  0
 18 19  2  0
 18 20  1  0
M  END
$$$$
