TGL.pdb
     RDKit          3D

 20 19  0  0  1  0  0  0  0  0999 V2000
   12.5471   -7.1466  -18.4170 C   0  0  0  0  0  0  0  0  0  0  0  0
   13.7409   -8.0651  -18.4161 C   0  0  1  0  0  0  0  0  0  0  0  0
   14.9258   -7.3405  -18.5235 O   0  0  0  0  0  0  0  0  0  0  0  0
   13.7739   -8.8779  -17.1385 C   0  0  2  0  0  0  0  0  0  0  0  0
   13.7934   -8.0631  -15.9655 N   0  0  0  0  0  0  0  0  0  0  0  0
   14.9355   -9.7809  -17.1318 C   0  0  0  0  0  0  0  0  0  0  0  0
   15.0831  -10.6261  -18.0326 O   0  0  0  0  0  0  0  0  0  0  0  0
   15.8847   -9.6824  -16.0941 N   0  0  0  0  0  0  0  0  0  0  0  0
   17.0693  -10.5091  -16.0521 C   0  0  0  0  0  0  0  0  0  0  0  0
   18.2436   -9.5860  -15.8694 C   0  0  0  0  0  0  0  0  0  0  0  0
   18.0761   -8.3204  -15.8449 O   0  0  0  0  0  0  0  0  0  0  0  0
   22.7687   -9.7164  -12.1955 C   0  0  0  0  0  0  0  0  0  0  0  0
   22.3858   -8.9540  -13.4991 C   0  0  1  0  0  0  0  0  0  0  0  0
   23.6743   -8.8270  -14.3043 C   0  0  0  0  0  0  0  0  0  0  0  0
   21.3510   -9.7411  -14.2178 C   0  0  0  0  0  0  0  0  0  0  0  0
   20.6687   -9.1220  -15.3864 C   0  0  2  0  0  0  0  0  0  0  0  0
   19.5553  -10.0862  -15.7209 N   0  0  0  0  0  0  0  0  0  0  0  0
   21.4069   -8.8301  -16.5942 C   0  0  0  0  0  0  0  0  0  0  0  0
   21.5504   -9.7794  -17.4558 O   0  0  0  0  0  0  0  0  0  0  0  0
   21.9917   -7.6417  -16.9749 O   0  0  0  0  0  0  0  0  0  0  0  0
  2  1  1  1
  2  4  1  0
  3  2  1  0
  4  5  1  1
  6  4  1  0
  6  7  2  0
  8  6  1  0
  9  8  1  0
  9 10  1  0
 10 11  2  0
 10 17  1  0
 13 15  1  0
 13 14  1  6
 13 12  1  0
 16 15  1  1
 16 18  1  0
 17 16  1  0
 18 19  2  0
 18 20  1  0
M  END
$$$$
