TGL.pdb
     RDKit          3D

 20 19  0  0  1  0  0  0  0  0999 V2000
   21.4728  -23.3513  -17.4693 C   0  0  0  0  0  0  0  0  0  0  0  0
   22.7006  -23.4480  -16.6021 C   0  0  1  0  0  0  0  0  0  0  0  0
   23.3106  -24.6927  -16.7409 O   0  0  0  0  0  0  0  0  0  0  0  0
   23.6930  -22.3677  -16.9790 C   0  0  2  0  0  0  0  0  0  0  0  0
   24.1435  -22.4781  -18.3301 N   0  0  0  0  0  0  0  0  0  0  0  0
   24.8494  -22.3899  -16.0696 C   0  0  0  0  0  0  0  0  0  0  0  0
   26.0030  -22.5140  -16.5184 O   0  0  0  0  0  0  0  0  0  0  0  0
   24.6419  -22.2692  -14.6805 N   0  0  0  0  0  0  0  0  0  0  0  0
   25.7314  -22.0654  -13.7532 C   0  0  0  0  0  0  0  0  0  0  0  0
   25.1176  -21.7908  -12.4069 C   0  0  0  0  0  0  0  0  0  0  0  0
   23.8615  -21.9310  -12.2260 O   0  0  0  0  0  0  0  0  0  0  0  0
   25.3983  -21.0611   -6.9180 C   0  0  0  0  0  0  0  0  0  0  0  0
   25.9901  -19.9369   -7.8197 C   0  0  1  0  0  0  0  0  0  0  0  0
   27.2255  -19.4211   -7.0901 C   0  0  0  0  0  0  0  0  0  0  0  0
   26.3247  -20.5226   -9.1434 C   0  0  0  0  0  0  0  0  0  0  0  0
   25.2124  -20.9196  -10.0486 C   0  0  2  0  0  0  0  0  0  0  0  0
   25.9047  -21.3734  -11.3119 N   0  0  0  0  0  0  0  0  0  0  0  0
   24.1817  -19.9696  -10.4012 C   0  0  0  0  0  0  0  0  0  0  0  0
   24.4682  -19.0695  -11.2797 O   0  0  0  0  0  0  0  0  0  0  0  0
   22.8910  -19.8892   -9.9246 O   0  0  0  0  0  0  0  0  0  0  0  0
  2  1  1  6
  2  4  1  0
  3  2  1  0
  4  5  1  6
  6  4  1  0
  6  7  2  0
  8  6  1  0
  9  8  1  0
  9 10  1  0
 10 11  2  0
 10 17  1  0
 13 15  1  0
 13 14  1  1
 13 12  1  0
 16 15  1  1
 16 18  1  0
 17 16  1  0
 18 19  2  0
 18 20  1  0
M  END
$$$$
