TGL.pdb
     RDKit          3D

 20 19  0  0  1  0  0  0  0  0999 V2000
   25.2426  -21.3225  -16.8585 C   0  0  0  0  0  0  0  0  0  0  0  0
   26.5209  -21.6029  -17.6042 C   0  0  1  0  0  0  0  0  0  0  0  0
   26.2888  -21.6847  -18.9753 O   0  0  0  0  0  0  0  0  0  0  0  0
   27.5316  -20.5063  -17.3397 C   0  0  2  0  0  0  0  0  0  0  0  0
   28.7470  -20.6875  -18.0681 N   0  0  0  0  0  0  0  0  0  0  0  0
   27.8271  -20.4134  -15.9014 C   0  0  0  0  0  0  0  0  0  0  0  0
   28.7860  -21.0371  -15.4126 O   0  0  0  0  0  0  0  0  0  0  0  0
   27.0138  -19.6099  -15.0766 N   0  0  0  0  0  0  0  0  0  0  0  0
   27.3534  -19.3258  -13.7010 C   0  0  0  0  0  0  0  0  0  0  0  0
   26.5237  -20.2438  -12.8445 C   0  0  0  0  0  0  0  0  0  0  0  0
   25.7174  -21.0771  -13.3791 O   0  0  0  0  0  0  0  0  0  0  0  0
   26.9004  -20.6723   -6.9780 C   0  0  0  0  0  0  0  0  0  0  0  0
   25.8669  -20.5746   -8.1398 C   0  0  1  0  0  0  0  0  0  0  0  0
   25.6588  -19.0854   -8.3916 C   0  0  0  0  0  0  0  0  0  0  0  0
   26.4263  -21.2710   -9.3269 C   0  0  0  0  0  0  0  0  0  0  0  0
   25.7234  -21.1326  -10.6311 C   0  0  2  0  0  0  0  0  0  0  0  0
   26.6103  -20.2123  -11.4359 N   0  0  0  0  0  0  0  0  0  0  0  0
   24.3686  -20.6317  -10.6824 C   0  0  0  0  0  0  0  0  0  0  0  0
   24.1970  -19.3921  -10.9952 O   0  0  0  0  0  0  0  0  0  0  0  0
   23.1938  -21.3123  -10.4458 O   0  0  0  0  0  0  0  0  0  0  0  0
  2  1  1  1
  2  4  1  0
  3  2  1  0
  4  5  1  6
  6  4  1  0
  6  7  2  0
  8  6  1  0
  9  8  1  0
  9 10  1  0
 10 11  2  0
 10 17  1  0
 13 15  1  0
 13 14  1  6
 13 12  1  0
 16 15  1  1
 16 18  1  0
 17 16  1  0
 18 19  2  0
 18 20  1  0
M  END
$$$$
