TGL.pdb
     RDKit          3D

 20 19  0  0  1  0  0  0  0  0999 V2000
   25.0152  -33.6426   -6.6297 C   0  0  0  0  0  0  0  0  0  0  0  0
   25.7191  -33.0837   -7.8383 C   0  0  1  0  0  0  0  0  0  0  0  0
   26.9504  -33.7068   -8.0290 O   0  0  0  0  0  0  0  0  0  0  0  0
   24.8692  -33.2818   -9.0763 C   0  0  2  0  0  0  0  0  0  0  0  0
   25.5075  -32.8140  -10.2655 N   0  0  0  0  0  0  0  0  0  0  0  0
   23.5671  -32.6150   -8.9198 C   0  0  0  0  0  0  0  0  0  0  0  0
   23.2589  -31.6538   -9.6468 O   0  0  0  0  0  0  0  0  0  0  0  0
   22.6665  -33.0737   -7.9370 N   0  0  0  0  0  0  0  0  0  0  0  0
   21.3550  -32.4926   -7.7619 C   0  0  0  0  0  0  0  0  0  0  0  0
   20.6554  -33.2973   -6.7000 C   0  0  0  0  0  0  0  0  0  0  0  0
   21.1981  -34.3488   -6.2203 O   0  0  0  0  0  0  0  0  0  0  0  0
   19.4158  -31.5728   -1.9085 C   0  0  0  0  0  0  0  0  0  0  0  0
   19.8012  -32.6147   -3.0007 C   0  0  1  0  0  0  0  0  0  0  0  0
   20.0668  -33.9204   -2.2595 C   0  0  0  0  0  0  0  0  0  0  0  0
   18.6711  -32.7333   -3.9576 C   0  0  0  0  0  0  0  0  0  0  0  0
   18.7815  -33.7117   -5.0732 C   0  0  2  0  0  0  0  0  0  0  0  0
   19.3888  -32.9179   -6.2056 N   0  0  0  0  0  0  0  0  0  0  0  0
   17.6072  -34.3960   -5.5651 C   0  0  0  0  0  0  0  0  0  0  0  0
   17.0465  -33.9371   -6.6323 O   0  0  0  0  0  0  0  0  0  0  0  0
   16.9843  -35.5103   -5.0459 O   0  0  0  0  0  0  0  0  0  0  0  0
  2  1  1  1
  2  4  1  0
  3  2  1  0
  4  5  1  6
  6  4  1  0
  6  7  2  0
  8  6  1  0
  9  8  1  0
  9 10  1  0
 10 11  2  0
 10 17  1  0
 13 15  1  0
 13 14  1  1
 13 12  1  0
 16 15  1  1
 16 18  1  0
 17 16  1  0
 18 19  2  0
 18 20  1  0
M  END
$$$$
