TGL.pdb
     RDKit          3D

 20 19  0  0  1  0  0  0  0  0999 V2000
   16.5059  -11.8253  -18.4164 C   0  0  0  0  0  0  0  0  0  0  0  0
   17.9295  -11.5989  -17.9799 C   0  0  1  0  0  0  0  0  0  0  0  0
   18.8116  -12.3540  -18.7495 O   0  0  0  0  0  0  0  0  0  0  0  0
   18.2900  -10.1337  -18.1120 C   0  0  2  0  0  0  0  0  0  0  0  0
   19.6967   -9.9008  -18.0264 N   0  0  0  0  0  0  0  0  0  0  0  0
   17.5945   -9.3374  -17.0888 C   0  0  0  0  0  0  0  0  0  0  0  0
   16.3733   -9.4806  -16.8998 O   0  0  0  0  0  0  0  0  0  0  0  0
   18.3233   -8.4071  -16.3201 N   0  0  0  0  0  0  0  0  0  0  0  0
   17.7080   -7.6197  -15.2761 C   0  0  0  0  0  0  0  0  0  0  0  0
   18.8213   -6.9553  -14.5121 C   0  0  0  0  0  0  0  0  0  0  0  0
   18.5744   -6.3013  -13.4437 O   0  0  0  0  0  0  0  0  0  0  0  0
   22.8601  -10.1214  -13.6528 C   0  0  0  0  0  0  0  0  0  0  0  0
   21.7353   -9.0634  -13.4460 C   0  0  1  0  0  0  0  0  0  0  0  0
   21.4963   -8.9943  -11.9417 C   0  0  0  0  0  0  0  0  0  0  0  0
   22.2021   -7.7662  -13.9995 C   0  0  0  0  0  0  0  0  0  0  0  0
   21.2613   -6.6133  -14.0035 C   0  0  2  0  0  0  0  0  0  0  0  0
   20.1613   -7.0340  -14.9491 N   0  0  0  0  0  0  0  0  0  0  0  0
   21.7199   -5.2963  -14.3834 C   0  0  0  0  0  0  0  0  0  0  0  0
   21.2601   -4.7917  -15.4779 O   0  0  0  0  0  0  0  0  0  0  0  0
   22.6004   -4.4707  -13.7183 O   0  0  0  0  0  0  0  0  0  0  0  0
  2  1  1  6
  2  4  1  0
  3  2  1  0
  4  5  1  1
  6  4  1  0
  6  7  2  0
  8  6  1  0
  9  8  1  0
  9 10  1  0
 10 11  2  0
 10 17  1  0
 13 15  1  0
 13 14  1  1
 13 12  1  0
 16 15  1  6
 16 18  1  0
 17 16  1  0
 18 19  2  0
 18 20  1  0
M  END
$$$$
