TGL.pdb
     RDKit          3D

 20 19  0  0  1  0  0  0  0  0999 V2000
   18.5143   -8.6611  -16.1648 C   0  0  0  0  0  0  0  0  0  0  0  0
   17.4746   -9.5291  -15.5059 C   0  0  1  0  0  0  0  0  0  0  0  0
   16.6434  -10.1177  -16.4563 O   0  0  0  0  0  0  0  0  0  0  0  0
   18.1423  -10.6184  -14.6924 C   0  0  2  0  0  0  0  0  0  0  0  0
   17.3117  -11.7678  -14.5209 N   0  0  0  0  0  0  0  0  0  0  0  0
   18.5495  -10.1027  -13.3761 C   0  0  0  0  0  0  0  0  0  0  0  0
   19.7311  -10.1979  -12.9990 O   0  0  0  0  0  0  0  0  0  0  0  0
   17.5887   -9.4974  -12.5407 N   0  0  0  0  0  0  0  0  0  0  0  0
   17.9513   -8.8014  -11.3272 C   0  0  0  0  0  0  0  0  0  0  0  0
   16.7363   -8.0344  -10.8801 C   0  0  0  0  0  0  0  0  0  0  0  0
   15.7517   -7.8589  -11.6740 O   0  0  0  0  0  0  0  0  0  0  0  0
   12.8182   -7.1707   -7.3888 C   0  0  0  0  0  0  0  0  0  0  0  0
   14.1019   -6.3660   -7.0256 C   0  0  1  0  0  0  0  0  0  0  0  0
   14.2439   -6.4646   -5.5108 C   0  0  0  0  0  0  0  0  0  0  0  0
   15.2554   -6.9740   -7.7376 C   0  0  0  0  0  0  0  0  0  0  0  0
   15.4061   -6.7212   -9.1962 C   0  0  2  0  0  0  0  0  0  0  0  0
   16.6480   -7.4900   -9.5807 N   0  0  0  0  0  0  0  0  0  0  0  0
   15.5246   -5.3701   -9.6961 C   0  0  0  0  0  0  0  0  0  0  0  0
   14.4367   -4.7187   -9.9325 O   0  0  0  0  0  0  0  0  0  0  0  0
   16.6706   -4.6505   -9.9571 O   0  0  0  0  0  0  0  0  0  0  0  0
  2  1  1  6
  2  4  1  0
  3  2  1  0
  4  5  1  1
  6  4  1  0
  6  7  2  0
  8  6  1  0
  9  8  1  0
  9 10  1  0
 10 11  2  0
 10 17  1  0
 13 15  1  0
 13 14  1  1
 13 12  1  0
 16 15  1  1
 16 18  1  0
 17 16  1  0
 18 19  2  0
 18 20  1  0
M  END
$$$$
