TGL.pdb
     RDKit          3D

 20 19  0  0  1  0  0  0  0  0999 V2000
   23.4006  -24.7033  -14.9189 C   0  0  0  0  0  0  0  0  0  0  0  0
   24.2029  -23.7526  -14.0697 C   0  0  1  0  0  0  0  0  0  0  0  0
   25.2369  -24.4203  -13.4172 O   0  0  0  0  0  0  0  0  0  0  0  0
   24.7911  -22.6530  -14.9293 C   0  0  2  0  0  0  0  0  0  0  0  0
   25.5581  -23.1576  -16.0236 N   0  0  0  0  0  0  0  0  0  0  0  0
   25.6237  -21.7526  -14.1164 C   0  0  0  0  0  0  0  0  0  0  0  0
   26.8483  -21.6706  -14.3193 O   0  0  0  0  0  0  0  0  0  0  0  0
   25.0232  -20.9799  -13.1017 N   0  0  0  0  0  0  0  0  0  0  0  0
   25.7690  -20.0195  -12.3208 C   0  0  0  0  0  0  0  0  0  0  0  0
   25.9097  -20.5925  -10.9364 C   0  0  0  0  0  0  0  0  0  0  0  0
   25.7395  -21.8412  -10.7310 O   0  0  0  0  0  0  0  0  0  0  0  0
   28.8565  -20.8050   -6.8596 C   0  0  0  0  0  0  0  0  0  0  0  0
   27.6847  -19.8842   -6.4055 C   0  0  1  0  0  0  0  0  0  0  0  0
   28.3265  -18.7454   -5.6206 C   0  0  0  0  0  0  0  0  0  0  0  0
   26.9717  -19.3990   -7.6151 C   0  0  0  0  0  0  0  0  0  0  0  0
   26.2329  -20.3846   -8.4501 C   0  0  2  0  0  0  0  0  0  0  0  0
   26.2313  -19.7746   -9.8318 N   0  0  0  0  0  0  0  0  0  0  0  0
   24.8803  -20.7636   -8.1097 C   0  0  0  0  0  0  0  0  0  0  0  0
   23.9161  -20.0762   -8.6214 O   0  0  0  0  0  0  0  0  0  0  0  0
   24.4577  -21.7932   -7.2969 O   0  0  0  0  0  0  0  0  0  0  0  0
  2  1  1  6
  2  4  1  0
  3  2  1  0
  4  5  1  6
  6  4  1  0
  6  7  2  0
  8  6  1  0
  9  8  1  0
  9 10  1  0
 10 11  2  0
 10 17  1  0
 13 15  1  0
 13 14  1  6
 13 12  1  0
 16 15  1  1
 16 18  1  0
 17 16  1  0
 18 19  2  0
 18 20  1  0
M  END
$$$$
