KQY.pdb
     RDKit          3D

 31 31  0  0  1  0  0  0  0  0999 V2000
    7.5734  -19.8742   19.3254 N   0  0  0  0  0  0  0  0  0  0  0  0
    7.4676  -19.1528   20.5362 C   0  0  1  0  0  0  0  0  0  0  0  0
    7.5022  -19.9295   21.8093 C   0  0  0  0  0  0  0  0  0  0  0  0
    6.5733  -21.0706   21.9191 C   0  0  0  0  0  0  0  0  0  0  0  0
    5.6923  -21.1454   23.1125 C   0  0  0  0  0  0  0  0  0  0  0  0
    4.8347  -22.3690   23.2078 C   0  0  0  0  0  0  0  0  0  0  0  0
    5.2728  -23.3521   24.1522 N   0  0  0  0  0  0  0  0  0  0  0  0
    8.4840  -18.0610   20.5795 C   0  0  0  0  0  0  0  0  0  0  0  0
    9.7026  -18.4182   20.6585 O   0  0  0  0  0  0  0  0  0  0  0  0
    7.9202  -12.0904   19.0531 N   0  0  0  0  0  0  0  0  0  0  0  0
    7.8671  -13.1878   18.1318 C   0  0  0  0  0  0  0  0  0  0  0  0
    7.3959  -13.0946   16.9931 O   0  0  0  0  0  0  0  0  0  0  0  0
    8.4215  -14.4695   18.6356 C   0  0  0  0  0  0  0  0  0  0  0  0
    8.9097  -14.4353   20.0377 C   0  0  0  0  0  0  0  0  0  0  0  0
    9.3664  -15.7581   20.5465 C   0  0  2  0  0  0  0  0  0  0  0  0
    8.2147  -16.6901   20.5422 N   0  0  0  0  0  0  0  0  0  0  0  0
    9.7542  -15.6632   21.9674 C   0  0  0  0  0  0  0  0  0  0  0  0
   10.6931  -14.8637   22.3261 O   0  0  0  0  0  0  0  0  0  0  0  0
   10.4421  -14.4297   30.2920 O   0  0  0  0  0  0  0  0  0  0  0  0
   10.0742  -14.5625   28.9580 C   0  0  0  0  0  0  0  0  0  0  0  0
   10.6746  -15.5737   28.2258 C   0  0  0  0  0  0  0  0  0  0  0  0
   10.3325  -15.7276   26.9140 C   0  0  0  0  0  0  0  0  0  0  0  0
    9.3934  -14.8698   26.3440 C   0  0  0  0  0  0  0  0  0  0  0  0
    9.0689  -15.0657   24.9352 C   0  0  0  0  0  0  0  0  0  0  0  0
    9.7351  -16.3195   24.3488 C   0  0  2  0  0  0  0  0  0  0  0  0
    9.1414  -16.4086   22.9940 N   0  0  0  0  0  0  0  0  0  0  0  0
    9.3159  -17.4657   25.1814 C   0  0  0  0  0  0  0  0  0  0  0  0
    8.2419  -18.0690   25.0618 O   0  0  0  0  0  0  0  0  0  0  0  0
    8.7865  -13.8589   27.0564 C   0  0  0  0  0  0  0  0  0  0  0  0
    9.1536  -13.7253   28.3900 C   0  0  0  0  0  0  0  0  0  0  0  0
   10.1793  -17.9086   26.1727 O   0  0  0  0  0  0  0  0  0  0  0  0
  2  1  1  6
  3  4  1  0
  3  2  1  0
  5  4  1  0
  6  5  1  0
  7  6  1  0
  8  9  2  0
  8  2  1  0
 10 11  1  0
 11 12  2  0
 13 11  1  0
 13 14  1  0
 15 14  1  1
 15 17  1  0
 15 16  1  0
 16  8  1  0
 17 26  1  0
 18 17  2  0
 19 20  1  0
 20 30  2  0
 20 21  1  0
 21 22  2  0
 22 23  1  0
 23 24  1  0
 25 24  1  1
 25 27  1  0
 26 25  1  0
 27 28  2  0
 27 31  1  0
 29 23  2  0
 30 29  1  0
M  END
$$$$
