KQY.pdb
     RDKit          3D

 31 31  0  0  1  0  0  0  0  0999 V2000
    7.9120  -19.7472   17.9159 N   0  0  0  0  0  0  0  0  0  0  0  0
    7.7534  -18.5411   18.6354 C   0  0  1  0  0  0  0  0  0  0  0  0
    6.3643  -18.1143   18.9723 C   0  0  0  0  0  0  0  0  0  0  0  0
    5.3859  -19.1847   19.2445 C   0  0  0  0  0  0  0  0  0  0  0  0
    3.9628  -18.8029   19.4317 C   0  0  0  0  0  0  0  0  0  0  0  0
    3.0127  -19.9382   19.6560 C   0  0  0  0  0  0  0  0  0  0  0  0
    1.6291  -19.5753   19.7213 N   0  0  0  0  0  0  0  0  0  0  0  0
    8.5925  -18.5596   19.8694 C   0  0  0  0  0  0  0  0  0  0  0  0
    8.5583  -19.6230   20.5671 O   0  0  0  0  0  0  0  0  0  0  0  0
   14.5638  -18.6870   21.2637 N   0  0  0  0  0  0  0  0  0  0  0  0
   13.9818  -17.6805   22.1027 C   0  0  0  0  0  0  0  0  0  0  0  0
   14.6221  -16.7299   22.5648 O   0  0  0  0  0  0  0  0  0  0  0  0
   12.5355  -17.8504   22.3912 C   0  0  0  0  0  0  0  0  0  0  0  0
   11.6388  -17.7043   21.2164 C   0  0  0  0  0  0  0  0  0  0  0  0
   10.1901  -17.7380   21.5593 C   0  0  2  0  0  0  0  0  0  0  0  0
    9.4057  -17.5170   20.3219 N   0  0  0  0  0  0  0  0  0  0  0  0
    9.8340  -16.5977   22.4260 C   0  0  0  0  0  0  0  0  0  0  0  0
    9.9347  -15.3965   21.9827 O   0  0  0  0  0  0  0  0  0  0  0  0
    5.8816  -10.9014   27.3533 O   0  0  0  0  0  0  0  0  0  0  0  0
    6.3394  -11.9471   26.5598 C   0  0  0  0  0  0  0  0  0  0  0  0
    6.1323  -13.2376   27.0192 C   0  0  0  0  0  0  0  0  0  0  0  0
    6.5710  -14.2836   26.2610 C   0  0  0  0  0  0  0  0  0  0  0  0
    7.2132  -14.0321   25.0498 C   0  0  0  0  0  0  0  0  0  0  0  0
    7.6751  -15.1821   24.2801 C   0  0  0  0  0  0  0  0  0  0  0  0
    9.1566  -15.5000   24.5327 C   0  0  2  0  0  0  0  0  0  0  0  0
    9.3692  -16.7392   23.7485 N   0  0  0  0  0  0  0  0  0  0  0  0
    9.3056  -15.7628   25.9790 C   0  0  0  0  0  0  0  0  0  0  0  0
    9.1023  -16.8562   26.5219 O   0  0  0  0  0  0  0  0  0  0  0  0
    7.4280  -12.7560   24.5774 C   0  0  0  0  0  0  0  0  0  0  0  0
    6.9708  -11.7099   25.3698 C   0  0  0  0  0  0  0  0  0  0  0  0
    9.7021  -14.7170   26.7996 O   0  0  0  0  0  0  0  0  0  0  0  0
  2  1  1  1
  3  4  1  0
  3  2  1  0
  5  4  1  0
  6  5  1  0
  7  6  1  0
  8  9  2  0
  8  2  1  0
 10 11  1  0
 11 12  2  0
 13 11  1  0
 13 14  1  0
 15 14  1  6
 15 17  1  0
 15 16  1  0
 16  8  1  0
 17 26  1  0
 18 17  2  0
 19 20  1  0
 20 30  2  0
 20 21  1  0
 21 22  2  0
 22 23  1  0
 23 24  1  0
 25 24  1  1
 25 27  1  0
 26 25  1  0
 27 28  2  0
 27 31  1  0
 29 23  2  0
 30 29  1  0
M  END
$$$$
