KQY.pdb
     RDKit          3D

 31 31  0  0  1  0  0  0  0  0999 V2000
    9.3709  -14.7850   17.7473 N   0  0  0  0  0  0  0  0  0  0  0  0
    8.6672  -14.2224   18.8362 C   0  0  1  0  0  0  0  0  0  0  0  0
    7.3399  -13.6020   18.5557 C   0  0  0  0  0  0  0  0  0  0  0  0
    7.0281  -13.3054   17.1443 C   0  0  0  0  0  0  0  0  0  0  0  0
    8.1493  -13.2699   16.1709 C   0  0  0  0  0  0  0  0  0  0  0  0
    7.7655  -12.9839   14.7522 C   0  0  0  0  0  0  0  0  0  0  0  0
    8.8524  -12.9349   13.8214 N   0  0  0  0  0  0  0  0  0  0  0  0
    8.5393  -15.2179   19.9406 C   0  0  0  0  0  0  0  0  0  0  0  0
    7.6795  -14.9622   20.8429 O   0  0  0  0  0  0  0  0  0  0  0  0
   12.4013  -19.2880   18.7427 N   0  0  0  0  0  0  0  0  0  0  0  0
   11.3335  -19.7246   19.5942 C   0  0  0  0  0  0  0  0  0  0  0  0
   10.8043  -20.8375   19.5015 O   0  0  0  0  0  0  0  0  0  0  0  0
   10.8904  -18.7415   20.6146 C   0  0  0  0  0  0  0  0  0  0  0  0
    9.4228  -18.6813   20.8338 C   0  0  0  0  0  0  0  0  0  0  0  0
    8.9218  -17.3205   21.1720 C   0  0  2  0  0  0  0  0  0  0  0  0
    9.2776  -16.3975   20.0688 N   0  0  0  0  0  0  0  0  0  0  0  0
    9.6359  -16.7798   22.3450 C   0  0  0  0  0  0  0  0  0  0  0  0
   10.7379  -16.1391   22.1884 O   0  0  0  0  0  0  0  0  0  0  0  0
   11.1840  -13.9436   30.4912 O   0  0  0  0  0  0  0  0  0  0  0  0
   10.6305  -14.4835   29.3359 C   0  0  0  0  0  0  0  0  0  0  0  0
   10.1858  -13.6003   28.3657 C   0  0  0  0  0  0  0  0  0  0  0  0
    9.6381  -14.1021   27.2213 C   0  0  0  0  0  0  0  0  0  0  0  0
    9.5390  -15.4824   27.0552 C   0  0  0  0  0  0  0  0  0  0  0  0
    8.9353  -15.9712   25.8203 C   0  0  0  0  0  0  0  0  0  0  0  0
    9.9815  -16.2860   24.7406 C   0  0  2  0  0  0  0  0  0  0  0  0
    9.1746  -16.9161   23.6693 N   0  0  0  0  0  0  0  0  0  0  0  0
   10.9301  -17.2577   25.3228 C   0  0  0  0  0  0  0  0  0  0  0  0
   10.7161  -18.4714   25.4358 O   0  0  0  0  0  0  0  0  0  0  0  0
    9.9756  -16.3754   28.0089 C   0  0  0  0  0  0  0  0  0  0  0  0
   10.5290  -15.8368   29.1642 C   0  0  0  0  0  0  0  0  0  0  0  0
   12.1533  -16.7893   25.7796 O   0  0  0  0  0  0  0  0  0  0  0  0
  2  1  1  6
  3  4  1  0
  3  2  1  0
  5  4  1  0
  6  5  1  0
  7  6  1  0
  8  9  2  0
  8  2  1  0
 10 11  1  0
 11 12  2  0
 13 11  1  0
 13 14  1  0
 15 14  1  6
 15 17  1  0
 15 16  1  0
 16  8  1  0
 17 26  1  0
 18 17  2  0
 19 20  1  0
 20 30  2  0
 20 21  1  0
 21 22  2  0
 22 23  1  0
 23 24  1  0
 25 24  1  1
 25 27  1  0
 26 25  1  0
 27 28  2  0
 27 31  1  0
 29 23  2  0
 30 29  1  0
M  END
$$$$
