KQY.pdb
     RDKit          3D

 31 31  0  0  1  0  0  0  0  0999 V2000
    6.8988  -18.9651   21.5838 N   0  0  0  0  0  0  0  0  0  0  0  0
    7.8432  -18.8592   20.5377 C   0  0  1  0  0  0  0  0  0  0  0  0
    7.3302  -18.8883   19.1372 C   0  0  0  0  0  0  0  0  0  0  0  0
    6.4804  -20.0348   18.7626 C   0  0  0  0  0  0  0  0  0  0  0  0
    6.3257  -20.3510   17.3196 C   0  0  0  0  0  0  0  0  0  0  0  0
    5.4225  -21.5025   17.0031 C   0  0  0  0  0  0  0  0  0  0  0  0
    5.1616  -21.7116   15.6108 N   0  0  0  0  0  0  0  0  0  0  0  0
    8.7059  -17.6580   20.7378 C   0  0  0  0  0  0  0  0  0  0  0  0
    9.7444  -17.5730   20.0077 O   0  0  0  0  0  0  0  0  0  0  0  0
    7.7818  -12.0081   20.2509 N   0  0  0  0  0  0  0  0  0  0  0  0
    7.9105  -13.0797   19.3070 C   0  0  0  0  0  0  0  0  0  0  0  0
    7.4844  -13.0177   18.1486 O   0  0  0  0  0  0  0  0  0  0  0  0
    8.5988  -14.2941   19.8125 C   0  0  0  0  0  0  0  0  0  0  0  0
    8.9048  -14.2842   21.2657 C   0  0  0  0  0  0  0  0  0  0  0  0
    9.4938  -15.5580   21.7636 C   0  0  2  0  0  0  0  0  0  0  0  0
    8.4736  -16.6267   21.6518 N   0  0  0  0  0  0  0  0  0  0  0  0
    9.7746  -15.4710   23.2099 C   0  0  0  0  0  0  0  0  0  0  0  0
   10.6548  -14.6435   23.6458 O   0  0  0  0  0  0  0  0  0  0  0  0
    6.2697  -10.9052   26.0817 O   0  0  0  0  0  0  0  0  0  0  0  0
    6.7563  -12.2054   26.1546 C   0  0  0  0  0  0  0  0  0  0  0  0
    8.0740  -12.3748   26.5471 C   0  0  0  0  0  0  0  0  0  0  0  0
    8.5784  -13.6400   26.6276 C   0  0  0  0  0  0  0  0  0  0  0  0
    7.7624  -14.7259   26.3154 C   0  0  0  0  0  0  0  0  0  0  0  0
    8.3498  -16.0583   26.4045 C   0  0  0  0  0  0  0  0  0  0  0  0
    9.6315  -16.1913   25.5684 C   0  0  2  0  0  0  0  0  0  0  0  0
    9.1178  -16.2538   24.1799 N   0  0  0  0  0  0  0  0  0  0  0  0
   10.2699  -17.4682   25.9492 C   0  0  0  0  0  0  0  0  0  0  0  0
   10.7591  -17.7085   27.0603 O   0  0  0  0  0  0  0  0  0  0  0  0
    6.4502  -14.5765   25.9232 C   0  0  0  0  0  0  0  0  0  0  0  0
    5.9628  -13.2772   25.8500 C   0  0  0  0  0  0  0  0  0  0  0  0
   10.3321  -18.4800   25.0023 O   0  0  0  0  0  0  0  0  0  0  0  0
  2  1  1  1
  3  4  1  0
  3  2  1  0
  5  4  1  0
  6  5  1  0
  7  6  1  0
  8  9  2  0
  8  2  1  0
 10 11  1  0
 11 12  2  0
 13 11  1  0
 13 14  1  0
 15 14  1  1
 15 17  1  0
 15 16  1  0
 16  8  1  0
 17 26  1  0
 18 17  2  0
 19 20  1  0
 20 30  2  0
 20 21  1  0
 21 22  2  0
 22 23  1  0
 23 24  1  0
 25 24  1  1
 25 27  1  0
 26 25  1  0
 27 28  2  0
 27 31  1  0
 29 23  2  0
 30 29  1  0
M  END
$$$$
