KQY.pdb
     RDKit          3D

 31 31  0  0  1  0  0  0  0  0999 V2000
    8.2960  -17.6319   18.8730 N   0  0  0  0  0  0  0  0  0  0  0  0
    8.7942  -16.5040   19.5639 C   0  0  1  0  0  0  0  0  0  0  0  0
    8.6416  -15.1708   18.9124 C   0  0  0  0  0  0  0  0  0  0  0  0
    8.3973  -15.1643   17.4573 C   0  0  0  0  0  0  0  0  0  0  0  0
    8.2344  -13.8528   16.7794 C   0  0  0  0  0  0  0  0  0  0  0  0
    7.9024  -13.9155   15.3208 C   0  0  0  0  0  0  0  0  0  0  0  0
    7.8053  -12.6491   14.6596 N   0  0  0  0  0  0  0  0  0  0  0  0
    8.2410  -16.4587   20.9492 C   0  0  0  0  0  0  0  0  0  0  0  0
    7.9623  -15.3081   21.4152 O   0  0  0  0  0  0  0  0  0  0  0  0
    5.7034  -21.0467   24.1485 N   0  0  0  0  0  0  0  0  0  0  0  0
    5.3420  -20.5718   22.8449 C   0  0  0  0  0  0  0  0  0  0  0  0
    4.6343  -21.2143   22.0615 O   0  0  0  0  0  0  0  0  0  0  0  0
    5.8789  -19.2361   22.4824 C   0  0  0  0  0  0  0  0  0  0  0  0
    6.7062  -18.5857   23.5302 C   0  0  0  0  0  0  0  0  0  0  0  0
    7.3568  -17.3229   23.0833 C   0  0  2  0  0  0  0  0  0  0  0  0
    8.0055  -17.5628   21.7729 N   0  0  0  0  0  0  0  0  0  0  0  0
    8.4711  -16.9653   23.9825 C   0  0  0  0  0  0  0  0  0  0  0  0
    9.6137  -17.5366   23.8497 O   0  0  0  0  0  0  0  0  0  0  0  0
    4.7415  -11.8281   27.0435 O   0  0  0  0  0  0  0  0  0  0  0  0
    5.9411  -12.4944   26.8209 C   0  0  0  0  0  0  0  0  0  0  0  0
    7.1129  -11.7709   26.9711 C   0  0  0  0  0  0  0  0  0  0  0  0
    8.3053  -12.3993   26.7590 C   0  0  0  0  0  0  0  0  0  0  0  0
    8.3175  -13.7456   26.3984 C   0  0  0  0  0  0  0  0  0  0  0  0
    9.6158  -14.3708   26.1705 C   0  0  0  0  0  0  0  0  0  0  0  0
    9.5058  -15.8869   25.9492 C   0  0  2  0  0  0  0  0  0  0  0  0
    8.3681  -16.0037   25.0070 N   0  0  0  0  0  0  0  0  0  0  0  0
    9.1709  -16.4947   27.2536 C   0  0  0  0  0  0  0  0  0  0  0  0
    8.0622  -16.9561   27.5529 O   0  0  0  0  0  0  0  0  0  0  0  0
    7.1625  -14.4806   26.2442 C   0  0  0  0  0  0  0  0  0  0  0  0
    5.9629  -13.8154   26.4666 C   0  0  0  0  0  0  0  0  0  0  0  0
   10.1618  -16.5598   28.2222 O   0  0  0  0  0  0  0  0  0  0  0  0
  2  1  1  6
  3  4  1  0
  3  2  1  0
  5  4  1  0
  6  5  1  0
  7  6  1  0
  8  9  2  0
  8  2  1  0
 10 11  1  0
 11 12  2  0
 13 11  1  0
 13 14  1  0
 15 14  1  1
 15 17  1  0
 15 16  1  0
 16  8  1  0
 17 26  1  0
 18 17  2  0
 19 20  1  0
 20 30  2  0
 20 21  1  0
 21 22  2  0
 22 23  1  0
 23 24  1  0
 25 24  1  1
 25 27  1  0
 26 25  1  0
 27 28  2  0
 27 31  1  0
 29 23  2  0
 30 29  1  0
M  END
$$$$
