KQY.pdb
     RDKit          3D

 31 31  0  0  1  0  0  0  0  0999 V2000
    7.6463  -18.1617   19.4065 N   0  0  0  0  0  0  0  0  0  0  0  0
    7.4020  -17.5482   20.6561 C   0  0  1  0  0  0  0  0  0  0  0  0
    6.3236  -18.1247   21.5106 C   0  0  0  0  0  0  0  0  0  0  0  0
    5.5428  -19.2377   20.9373 C   0  0  0  0  0  0  0  0  0  0  0  0
    4.4484  -19.8206   21.7550 C   0  0  0  0  0  0  0  0  0  0  0  0
    3.6277  -20.8752   21.0796 C   0  0  0  0  0  0  0  0  0  0  0  0
    2.7771  -20.4087   20.0265 N   0  0  0  0  0  0  0  0  0  0  0  0
    8.6685  -17.4434   21.4385 C   0  0  0  0  0  0  0  0  0  0  0  0
    9.2323  -18.5373   21.7613 O   0  0  0  0  0  0  0  0  0  0  0  0
   13.6886  -13.8349   20.4012 N   0  0  0  0  0  0  0  0  0  0  0  0
   12.5703  -14.5846   19.9079 C   0  0  0  0  0  0  0  0  0  0  0  0
   11.9910  -14.3201   18.8488 O   0  0  0  0  0  0  0  0  0  0  0  0
   12.1389  -15.7202   20.7612 C   0  0  0  0  0  0  0  0  0  0  0  0
   11.5042  -15.3345   22.0472 C   0  0  0  0  0  0  0  0  0  0  0  0
   10.5642  -16.3574   22.5832 C   0  0  2  0  0  0  0  0  0  0  0  0
    9.2834  -16.2561   21.8451 N   0  0  0  0  0  0  0  0  0  0  0  0
   10.2049  -16.0519   23.9817 C   0  0  0  0  0  0  0  0  0  0  0  0
   10.6270  -14.9714   24.5330 O   0  0  0  0  0  0  0  0  0  0  0  0
    6.5301  -11.1318   25.3827 O   0  0  0  0  0  0  0  0  0  0  0  0
    6.9135  -12.4262   25.7144 C   0  0  0  0  0  0  0  0  0  0  0  0
    6.5153  -13.4485   24.8686 C   0  0  0  0  0  0  0  0  0  0  0  0
    6.8774  -14.7292   25.1694 C   0  0  0  0  0  0  0  0  0  0  0  0
    7.6343  -14.9783   26.3128 C   0  0  0  0  0  0  0  0  0  0  0  0
    7.9869  -16.3647   26.5992 C   0  0  0  0  0  0  0  0  0  0  0  0
    9.4476  -16.6833   26.2466 C   0  0  2  0  0  0  0  0  0  0  0  0
    9.3986  -16.8874   24.7797 N   0  0  0  0  0  0  0  0  0  0  0  0
    9.7992  -17.9400   26.9393 C   0  0  0  0  0  0  0  0  0  0  0  0
    9.9350  -18.0562   28.1639 O   0  0  0  0  0  0  0  0  0  0  0  0
    8.0389  -13.9746   27.1653 C   0  0  0  0  0  0  0  0  0  0  0  0
    7.6562  -12.6803   26.8346 C   0  0  0  0  0  0  0  0  0  0  0  0
    9.9938  -19.0803   26.1737 O   0  0  0  0  0  0  0  0  0  0  0  0
  2  1  1  6
  3  4  1  0
  3  2  1  0
  5  4  1  0
  6  5  1  0
  7  6  1  0
  8  9  2  0
  8  2  1  0
 10 11  1  0
 11 12  2  0
 13 11  1  0
 13 14  1  0
 15 14  1  6
 15 17  1  0
 15 16  1  0
 16  8  1  0
 17 26  1  0
 18 17  2  0
 19 20  1  0
 20 30  2  0
 20 21  1  0
 21 22  2  0
 22 23  1  0
 23 24  1  0
 25 24  1  1
 25 27  1  0
 26 25  1  0
 27 28  2  0
 27 31  1  0
 29 23  2  0
 30 29  1  0
M  END
$$$$
