KQY.pdb
     RDKit          3D

 31 31  0  0  1  0  0  0  0  0999 V2000
    9.8392  -15.3452   17.4279 N   0  0  0  0  0  0  0  0  0  0  0  0
    8.8862  -14.5758   18.1330 C   0  0  1  0  0  0  0  0  0  0  0  0
    7.6786  -14.1173   17.3868 C   0  0  0  0  0  0  0  0  0  0  0  0
    7.7256  -14.2201   15.9156 C   0  0  0  0  0  0  0  0  0  0  0  0
    7.6350  -12.9679   15.1220 C   0  0  0  0  0  0  0  0  0  0  0  0
    7.6311  -13.1435   13.6351 C   0  0  0  0  0  0  0  0  0  0  0  0
    7.5968  -11.9304   12.8751 N   0  0  0  0  0  0  0  0  0  0  0  0
    8.4742  -15.2794   19.3829 C   0  0  0  0  0  0  0  0  0  0  0  0
    7.3652  -14.9268   19.8974 O   0  0  0  0  0  0  0  0  0  0  0  0
    9.0394  -21.1227   20.8309 N   0  0  0  0  0  0  0  0  0  0  0  0
    8.1116  -20.5314   19.9115 C   0  0  0  0  0  0  0  0  0  0  0  0
    7.5004  -21.1790   19.0545 O   0  0  0  0  0  0  0  0  0  0  0  0
    7.9242  -19.0653   20.0507 C   0  0  0  0  0  0  0  0  0  0  0  0
    8.7774  -18.4174   21.0791 C   0  0  0  0  0  0  0  0  0  0  0  0
    8.5646  -16.9483   21.1967 C   0  0  2  0  0  0  0  0  0  0  0  0
    9.1965  -16.2839   20.0327 N   0  0  0  0  0  0  0  0  0  0  0  0
    9.2904  -16.4092   22.3632 C   0  0  0  0  0  0  0  0  0  0  0  0
   10.5414  -16.1337   22.2716 O   0  0  0  0  0  0  0  0  0  0  0  0
   11.0683  -14.5496   30.7303 O   0  0  0  0  0  0  0  0  0  0  0  0
   10.4456  -14.7024   29.4968 C   0  0  0  0  0  0  0  0  0  0  0  0
   10.0850  -15.9846   29.1160 C   0  0  0  0  0  0  0  0  0  0  0  0
    9.4722  -16.1644   27.9104 C   0  0  0  0  0  0  0  0  0  0  0  0
    9.2245  -15.0618   27.0946 C   0  0  0  0  0  0  0  0  0  0  0  0
    8.5780  -15.3054   25.8096 C   0  0  0  0  0  0  0  0  0  0  0  0
    9.5707  -15.7659   24.7317 C   0  0  2  0  0  0  0  0  0  0  0  0
    8.6852  -16.1608   23.6111 N   0  0  0  0  0  0  0  0  0  0  0  0
   10.2877  -16.9393   25.2720 C   0  0  0  0  0  0  0  0  0  0  0  0
    9.8133  -18.0794   25.3544 O   0  0  0  0  0  0  0  0  0  0  0  0
    9.5762  -13.7799   27.4566 C   0  0  0  0  0  0  0  0  0  0  0  0
   10.1986  -13.6261   28.6895 C   0  0  0  0  0  0  0  0  0  0  0  0
   11.5879  -16.7648   25.7228 O   0  0  0  0  0  0  0  0  0  0  0  0
  2  1  1  6
  3  4  1  0
  3  2  1  0
  5  4  1  0
  6  5  1  0
  7  6  1  0
  8  9  2  0
  8  2  1  0
 10 11  1  0
 11 12  2  0
 13 11  1  0
 13 14  1  0
 15 14  1  6
 15 17  1  0
 15 16  1  0
 16  8  1  0
 17 26  1  0
 18 17  2  0
 19 20  1  0
 20 30  2  0
 20 21  1  0
 21 22  2  0
 22 23  1  0
 23 24  1  0
 25 24  1  1
 25 27  1  0
 26 25  1  0
 27 28  2  0
 27 31  1  0
 29 23  2  0
 30 29  1  0
M  END
$$$$
