KQY.pdb
     RDKit          3D

 31 31  0  0  1  0  0  0  0  0999 V2000
    6.7400  -18.3338   18.6194 N   0  0  0  0  0  0  0  0  0  0  0  0
    7.7805  -17.4698   19.0298 C   0  0  1  0  0  0  0  0  0  0  0  0
    7.5825  -16.0049   18.8295 C   0  0  0  0  0  0  0  0  0  0  0  0
    7.5290  -15.5243   17.4355 C   0  0  0  0  0  0  0  0  0  0  0  0
    8.4500  -14.4299   17.0353 C   0  0  0  0  0  0  0  0  0  0  0  0
    8.2524  -13.8917   15.6521 C   0  0  0  0  0  0  0  0  0  0  0  0
    9.0592  -12.7578   15.3149 N   0  0  0  0  0  0  0  0  0  0  0  0
    8.1513  -17.7428   20.4493 C   0  0  0  0  0  0  0  0  0  0  0  0
    7.2009  -17.7556   21.2953 O   0  0  0  0  0  0  0  0  0  0  0  0
   13.4610  -19.7809   23.1419 N   0  0  0  0  0  0  0  0  0  0  0  0
   12.5951  -19.7090   24.2825 C   0  0  0  0  0  0  0  0  0  0  0  0
   12.9440  -20.0415   25.4205 O   0  0  0  0  0  0  0  0  0  0  0  0
   11.2262  -19.2024   24.0116 C   0  0  0  0  0  0  0  0  0  0  0  0
   10.9653  -18.8197   22.6006 C   0  0  0  0  0  0  0  0  0  0  0  0
    9.6070  -18.2533   22.3738 C   0  0  2  0  0  0  0  0  0  0  0  0
    9.4427  -17.9829   20.9263 N   0  0  0  0  0  0  0  0  0  0  0  0
    9.4835  -16.9271   23.0094 C   0  0  0  0  0  0  0  0  0  0  0  0
   10.2007  -15.9456   22.5948 O   0  0  0  0  0  0  0  0  0  0  0  0
    6.2439  -10.1866   27.5407 O   0  0  0  0  0  0  0  0  0  0  0  0
    6.4671  -11.4148   26.9289 C   0  0  0  0  0  0  0  0  0  0  0  0
    6.7719  -12.4912   27.7460 C   0  0  0  0  0  0  0  0  0  0  0  0
    6.9958  -13.7089   27.1728 C   0  0  0  0  0  0  0  0  0  0  0  0
    6.9135  -13.8416   25.7878 C   0  0  0  0  0  0  0  0  0  0  0  0
    7.1728  -15.1603   25.2202 C   0  0  0  0  0  0  0  0  0  0  0  0
    8.5700  -15.2632   24.5902 C   0  0  2  0  0  0  0  0  0  0  0  0
    8.5993  -16.6507   24.0709 N   0  0  0  0  0  0  0  0  0  0  0  0
    9.5532  -15.0901   25.6794 C   0  0  0  0  0  0  0  0  0  0  0  0
   10.1915  -14.0520   25.8951 O   0  0  0  0  0  0  0  0  0  0  0  0
    6.6120  -12.7826   24.9598 C   0  0  0  0  0  0  0  0  0  0  0  0
    6.3886  -11.5545   25.5704 C   0  0  0  0  0  0  0  0  0  0  0  0
    9.7873  -16.1608   26.5297 O   0  0  0  0  0  0  0  0  0  0  0  0
  2  1  1  1
  3  4  1  0
  3  2  1  0
  5  4  1  0
  6  5  1  0
  7  6  1  0
  8  9  2  0
  8  2  1  0
 10 11  1  0
 11 12  2  0
 13 11  1  0
 13 14  1  0
 15 14  1  6
 15 17  1  0
 15 16  1  0
 16  8  1  0
 17 26  1  0
 18 17  2  0
 19 20  1  0
 20 30  2  0
 20 21  1  0
 21 22  2  0
 22 23  1  0
 23 24  1  0
 25 24  1  1
 25 27  1  0
 26 25  1  0
 27 28  2  0
 27 31  1  0
 29 23  2  0
 30 29  1  0
M  END
$$$$
