KQY.pdb
     RDKit          3D

 31 31  0  0  1  0  0  0  0  0999 V2000
    8.7550  -15.7888   20.0441 N   0  0  0  0  0  0  0  0  0  0  0  0
    8.1548  -14.8239   20.8845 C   0  0  1  0  0  0  0  0  0  0  0  0
    7.0734  -13.9769   20.3029 C   0  0  0  0  0  0  0  0  0  0  0  0
    7.2865  -13.4721   18.9329 C   0  0  0  0  0  0  0  0  0  0  0  0
    7.5028  -14.4617   17.8467 C   0  0  0  0  0  0  0  0  0  0  0  0
    8.2050  -13.9435   16.6301 C   0  0  0  0  0  0  0  0  0  0  0  0
    7.4273  -13.0774   15.7962 N   0  0  0  0  0  0  0  0  0  0  0  0
    7.6775  -15.4611   22.1467 C   0  0  0  0  0  0  0  0  0  0  0  0
    7.0042  -14.7266   22.9379 O   0  0  0  0  0  0  0  0  0  0  0  0
    6.6263  -21.4047   26.3578 N   0  0  0  0  0  0  0  0  0  0  0  0
    6.6640  -20.8161   25.0510 C   0  0  0  0  0  0  0  0  0  0  0  0
    6.6828  -21.4799   24.0087 O   0  0  0  0  0  0  0  0  0  0  0  0
    6.6805  -19.3319   25.0214 C   0  0  0  0  0  0  0  0  0  0  0  0
    7.1863  -18.7339   23.7597 C   0  0  0  0  0  0  0  0  0  0  0  0
    7.3007  -17.2498   23.8026 C   0  0  2  0  0  0  0  0  0  0  0  0
    7.9054  -16.7849   22.5323 N   0  0  0  0  0  0  0  0  0  0  0  0
    8.2638  -16.8320   24.8399 C   0  0  0  0  0  0  0  0  0  0  0  0
    9.5201  -16.7980   24.5752 O   0  0  0  0  0  0  0  0  0  0  0  0
    6.6896  -10.6925   24.7478 O   0  0  0  0  0  0  0  0  0  0  0  0
    7.0648  -11.7562   25.5604 C   0  0  0  0  0  0  0  0  0  0  0  0
    8.3334  -12.2829   25.3806 C   0  0  0  0  0  0  0  0  0  0  0  0
    8.7287  -13.3274   26.1643 C   0  0  0  0  0  0  0  0  0  0  0  0
    7.8534  -13.8375   27.1216 C   0  0  0  0  0  0  0  0  0  0  0  0
    8.3163  -14.9622   27.9273 C   0  0  0  0  0  0  0  0  0  0  0  0
    8.9711  -16.0618   27.0779 C   0  0  2  0  0  0  0  0  0  0  0  0
    7.8887  -16.4485   26.1427 N   0  0  0  0  0  0  0  0  0  0  0  0
    9.3009  -17.1777   27.9884 C   0  0  0  0  0  0  0  0  0  0  0  0
    8.6769  -18.2446   28.0515 O   0  0  0  0  0  0  0  0  0  0  0  0
    6.5886  -13.3267   27.3143 C   0  0  0  0  0  0  0  0  0  0  0  0
    6.2125  -12.2634   26.5025 C   0  0  0  0  0  0  0  0  0  0  0  0
   10.3867  -17.0327   28.8394 O   0  0  0  0  0  0  0  0  0  0  0  0
  2  1  1  6
  3  4  1  0
  3  2  1  0
  5  4  1  0
  6  5  1  0
  7  6  1  0
  8  9  2  0
  8  2  1  0
 10 11  1  0
 11 12  2  0
 13 11  1  0
 13 14  1  0
 15 14  1  6
 15 17  1  0
 15 16  1  0
 16  8  1  0
 17 26  1  0
 18 17  2  0
 19 20  1  0
 20 30  2  0
 20 21  1  0
 21 22  2  0
 22 23  1  0
 23 24  1  0
 25 24  1  1
 25 27  1  0
 26 25  1  0
 27 28  2  0
 27 31  1  0
 29 23  2  0
 30 29  1  0
M  END
$$$$
