KQY.pdb
     RDKit          3D

 31 31  0  0  1  0  0  0  0  0999 V2000
    7.6561  -17.2798   20.7931 N   0  0  0  0  0  0  0  0  0  0  0  0
    8.3794  -16.2678   21.4643 C   0  0  1  0  0  0  0  0  0  0  0  0
    7.6700  -14.9883   21.7558 C   0  0  0  0  0  0  0  0  0  0  0  0
    7.4135  -14.0930   20.6114 C   0  0  0  0  0  0  0  0  0  0  0  0
    8.4799  -13.1380   20.2153 C   0  0  0  0  0  0  0  0  0  0  0  0
    8.1241  -12.1935   19.1094 C   0  0  0  0  0  0  0  0  0  0  0  0
    7.4433  -12.7825   17.9959 N   0  0  0  0  0  0  0  0  0  0  0  0
    8.9870  -16.8082   22.7157 C   0  0  0  0  0  0  0  0  0  0  0  0
    8.2242  -17.4890   23.4729 O   0  0  0  0  0  0  0  0  0  0  0  0
   11.8873  -20.5386   24.2070 N   0  0  0  0  0  0  0  0  0  0  0  0
   12.5734  -19.9751   25.3328 C   0  0  0  0  0  0  0  0  0  0  0  0
   12.9909  -20.6505   26.2799 O   0  0  0  0  0  0  0  0  0  0  0  0
   12.7563  -18.5023   25.2950 C   0  0  0  0  0  0  0  0  0  0  0  0
   12.1597  -17.8249   24.1158 C   0  0  0  0  0  0  0  0  0  0  0  0
   10.7641  -17.3546   24.3363 C   0  0  2  0  0  0  0  0  0  0  0  0
   10.3115  -16.6314   23.1249 N   0  0  0  0  0  0  0  0  0  0  0  0
   10.7204  -16.3386   25.4059 C   0  0  0  0  0  0  0  0  0  0  0  0
   11.3273  -15.2171   25.2532 O   0  0  0  0  0  0  0  0  0  0  0  0
    6.0680  -12.2013   24.3139 O   0  0  0  0  0  0  0  0  0  0  0  0
    6.7788  -12.9067   25.2782 C   0  0  0  0  0  0  0  0  0  0  0  0
    6.5917  -14.2781   25.3360 C   0  0  0  0  0  0  0  0  0  0  0  0
    7.2765  -14.9961   26.2725 C   0  0  0  0  0  0  0  0  0  0  0  0
    8.1429  -14.3382   27.1439 C   0  0  0  0  0  0  0  0  0  0  0  0
    8.8436  -15.1465   28.1358 C   0  0  0  0  0  0  0  0  0  0  0  0
   10.2663  -15.5176   27.6910 C   0  0  2  0  0  0  0  0  0  0  0  0
   10.0306  -16.5158   26.6215 N   0  0  0  0  0  0  0  0  0  0  0  0
   10.9373  -16.1402   28.8507 C   0  0  0  0  0  0  0  0  0  0  0  0
   11.2422  -15.5454   29.8923 O   0  0  0  0  0  0  0  0  0  0  0  0
    8.3412  -12.9756   27.1012 C   0  0  0  0  0  0  0  0  0  0  0  0
    7.6312  -12.2696   26.1376 C   0  0  0  0  0  0  0  0  0  0  0  0
   11.2540  -17.4890   28.7807 O   0  0  0  0  0  0  0  0  0  0  0  0
  2  1  1  1
  3  4  1  0
  3  2  1  0
  5  4  1  0
  6  5  1  0
  7  6  1  0
  8  9  2  0
  8  2  1  0
 10 11  1  0
 11 12  2  0
 13 11  1  0
 13 14  1  0
 15 14  1  6
 15 17  1  0
 15 16  1  0
 16  8  1  0
 17 26  1  0
 18 17  2  0
 19 20  1  0
 20 30  2  0
 20 21  1  0
 21 22  2  0
 22 23  1  0
 23 24  1  0
 25 24  1  1
 25 27  1  0
 26 25  1  0
 27 28  2  0
 27 31  1  0
 29 23  2  0
 30 29  1  0
M  END
$$$$
