KQY.pdb
     RDKit          3D

 31 31  0  0  1  0  0  0  0  0999 V2000
    6.0345  -20.3667   21.7222 N   0  0  0  0  0  0  0  0  0  0  0  0
    5.8956  -19.1461   22.4210 C   0  0  1  0  0  0  0  0  0  0  0  0
    5.8820  -19.2002   23.9117 C   0  0  0  0  0  0  0  0  0  0  0  0
    6.6716  -20.2727   24.5467 C   0  0  0  0  0  0  0  0  0  0  0  0
    6.5385  -20.4672   26.0131 C   0  0  0  0  0  0  0  0  0  0  0  0
    7.2431  -21.6636   26.5735 C   0  0  0  0  0  0  0  0  0  0  0  0
    7.0758  -21.8698   27.9806 N   0  0  0  0  0  0  0  0  0  0  0  0
    6.9195  -18.1642   21.9576 C   0  0  0  0  0  0  0  0  0  0  0  0
    8.0939  -18.6132   21.7627 O   0  0  0  0  0  0  0  0  0  0  0  0
    6.5162  -12.8031   18.8478 N   0  0  0  0  0  0  0  0  0  0  0  0
    7.9389  -12.9720   18.9047 C   0  0  0  0  0  0  0  0  0  0  0  0
    8.7312  -12.2657   18.2716 O   0  0  0  0  0  0  0  0  0  0  0  0
    8.4152  -14.0680   19.7855 C   0  0  0  0  0  0  0  0  0  0  0  0
    7.3428  -14.8817   20.4124 C   0  0  0  0  0  0  0  0  0  0  0  0
    7.8520  -15.9865   21.2711 C   0  0  2  0  0  0  0  0  0  0  0  0
    6.7015  -16.8041   21.7221 N   0  0  0  0  0  0  0  0  0  0  0  0
    8.4310  -15.4512   22.5186 C   0  0  0  0  0  0  0  0  0  0  0  0
    8.0153  -14.3322   22.9925 O   0  0  0  0  0  0  0  0  0  0  0  0
    6.1736  -10.6426   26.3629 O   0  0  0  0  0  0  0  0  0  0  0  0
    6.7915  -11.8590   26.0959 C   0  0  0  0  0  0  0  0  0  0  0  0
    6.2025  -13.0028   26.6096 C   0  0  0  0  0  0  0  0  0  0  0  0
    6.7871  -14.2107   26.3633 C   0  0  0  0  0  0  0  0  0  0  0  0
    7.9557  -14.2663   25.6057 C   0  0  0  0  0  0  0  0  0  0  0  0
    8.5505  -15.5791   25.3792 C   0  0  0  0  0  0  0  0  0  0  0  0
    9.8395  -15.5032   24.5473 C   0  0  2  0  0  0  0  0  0  0  0  0
    9.4373  -16.1068   23.2551 N   0  0  0  0  0  0  0  0  0  0  0  0
   10.8473  -16.3430   25.2271 C   0  0  0  0  0  0  0  0  0  0  0  0
   11.0080  -17.5536   25.0265 O   0  0  0  0  0  0  0  0  0  0  0  0
    8.5554  -13.1397   25.0871 C   0  0  0  0  0  0  0  0  0  0  0  0
    7.9385  -11.9233   25.3534 C   0  0  0  0  0  0  0  0  0  0  0  0
   11.6807  -15.7438   26.1602 O   0  0  0  0  0  0  0  0  0  0  0  0
  2  1  1  6
  3  4  1  0
  3  2  1  0
  5  4  1  0
  6  5  1  0
  7  6  1  0
  8  9  2  0
  8  2  1  0
 10 11  1  0
 11 12  2  0
 13 11  1  0
 13 14  1  0
 15 14  1  6
 15 17  1  0
 15 16  1  0
 16  8  1  0
 17 26  1  0
 18 17  2  0
 19 20  1  0
 20 30  2  0
 20 21  1  0
 21 22  2  0
 22 23  1  0
 23 24  1  0
 25 24  1  1
 25 27  1  0
 26 25  1  0
 27 28  2  0
 27 31  1  0
 29 23  2  0
 30 29  1  0
M  END
$$$$
