KQY.pdb
     RDKit          3D

 31 31  0  0  1  0  0  0  0  0999 V2000
    8.5377  -18.5347   19.4720 N   0  0  0  0  0  0  0  0  0  0  0  0
    9.3236  -17.4098   19.1338 C   0  0  1  0  0  0  0  0  0  0  0  0
    9.0777  -16.7669   17.8103 C   0  0  0  0  0  0  0  0  0  0  0  0
    8.2690  -17.5288   16.8395 C   0  0  0  0  0  0  0  0  0  0  0  0
    8.8427  -18.7775   16.2758 C   0  0  0  0  0  0  0  0  0  0  0  0
    8.0651  -19.3992   15.1575 C   0  0  0  0  0  0  0  0  0  0  0  0
    8.2466  -20.8103   14.9955 N   0  0  0  0  0  0  0  0  0  0  0  0
    9.2552  -16.3852   20.2167 C   0  0  0  0  0  0  0  0  0  0  0  0
   10.0083  -15.3678   20.0883 O   0  0  0  0  0  0  0  0  0  0  0  0
    6.9276  -13.5966   26.3401 N   0  0  0  0  0  0  0  0  0  0  0  0
    6.6788  -14.5093   25.2627 C   0  0  0  0  0  0  0  0  0  0  0  0
    6.1502  -15.6153   25.4195 O   0  0  0  0  0  0  0  0  0  0  0  0
    7.1027  -14.0395   23.9197 C   0  0  0  0  0  0  0  0  0  0  0  0
    7.1491  -15.0907   22.8718 C   0  0  0  0  0  0  0  0  0  0  0  0
    8.5101  -15.3223   22.3139 C   0  0  2  0  0  0  0  0  0  0  0  0
    8.4421  -16.4469   21.3516 N   0  0  0  0  0  0  0  0  0  0  0  0
    9.4298  -15.7970   23.3660 C   0  0  0  0  0  0  0  0  0  0  0  0
    9.1985  -16.9066   23.9701 O   0  0  0  0  0  0  0  0  0  0  0  0
   10.3414  -15.9496   31.3074 O   0  0  0  0  0  0  0  0  0  0  0  0
   10.4893  -15.5813   29.9751 C   0  0  0  0  0  0  0  0  0  0  0  0
    9.8447  -14.4297   29.5537 C   0  0  0  0  0  0  0  0  0  0  0  0
    9.9724  -14.0440   28.2512 C   0  0  0  0  0  0  0  0  0  0  0  0
   10.7431  -14.8119   27.3800 C   0  0  0  0  0  0  0  0  0  0  0  0
   10.8400  -14.3661   25.9943 C   0  0  0  0  0  0  0  0  0  0  0  0
   11.2249  -15.5045   25.0375 C   0  0  2  0  0  0  0  0  0  0  0  0
   10.5868  -15.0981   23.7634 N   0  0  0  0  0  0  0  0  0  0  0  0
   10.6090  -16.7412   25.5613 C   0  0  0  0  0  0  0  0  0  0  0  0
    9.4057  -17.0187   25.4806 O   0  0  0  0  0  0  0  0  0  0  0  0
   11.3908  -15.9597   27.7812 C   0  0  0  0  0  0  0  0  0  0  0  0
   11.2436  -16.3287   29.1128 C   0  0  0  0  0  0  0  0  0  0  0  0
   11.4275  -17.6673   26.1912 O   0  0  0  0  0  0  0  0  0  0  0  0
  2  1  1  1
  3  4  1  0
  3  2  1  0
  5  4  1  0
  6  5  1  0
  7  6  1  0
  8  9  2  0
  8  2  1  0
 10 11  1  0
 11 12  2  0
 13 11  1  0
 13 14  1  0
 15 14  1  1
 15 17  1  0
 15 16  1  0
 16  8  1  0
 17 26  1  0
 18 17  2  0
 19 20  1  0
 20 30  2  0
 20 21  1  0
 21 22  2  0
 22 23  1  0
 23 24  1  0
 25 24  1  1
 25 27  1  0
 26 25  1  0
 27 28  2  0
 27 31  1  0
 29 23  2  0
 30 29  1  0
M  END
$$$$
