KQY.pdb
     RDKit          3D

 31 31  0  0  1  0  0  0  0  0999 V2000
    6.8241  -17.6630   19.5111 N   0  0  0  0  0  0  0  0  0  0  0  0
    7.8500  -16.7320   19.7912 C   0  0  1  0  0  0  0  0  0  0  0  0
    7.4676  -15.2946   19.9043 C   0  0  0  0  0  0  0  0  0  0  0  0
    8.2213  -14.3371   19.0723 C   0  0  0  0  0  0  0  0  0  0  0  0
    7.7259  -14.0592   17.7000 C   0  0  0  0  0  0  0  0  0  0  0  0
    8.6026  -13.1816   16.8613 C   0  0  0  0  0  0  0  0  0  0  0  0
    8.1347  -12.9417   15.5295 N   0  0  0  0  0  0  0  0  0  0  0  0
    8.6137  -17.1513   21.0029 C   0  0  0  0  0  0  0  0  0  0  0  0
    7.9395  -17.6577   21.9557 O   0  0  0  0  0  0  0  0  0  0  0  0
   14.6761  -19.7619   24.0166 N   0  0  0  0  0  0  0  0  0  0  0  0
   14.1568  -18.7071   23.1960 C   0  0  0  0  0  0  0  0  0  0  0  0
   14.8401  -18.0913   22.3706 O   0  0  0  0  0  0  0  0  0  0  0  0
   12.7209  -18.3899   23.3999 C   0  0  0  0  0  0  0  0  0  0  0  0
   12.0105  -17.8894   22.1957 C   0  0  0  0  0  0  0  0  0  0  0  0
   10.5780  -17.5619   22.4367 C   0  0  2  0  0  0  0  0  0  0  0  0
    9.9950  -17.0355   21.1804 N   0  0  0  0  0  0  0  0  0  0  0  0
   10.4535  -16.4448   23.3932 C   0  0  0  0  0  0  0  0  0  0  0  0
   10.5482  -15.2319   22.9817 O   0  0  0  0  0  0  0  0  0  0  0  0
    5.8900  -10.9827   27.6727 O   0  0  0  0  0  0  0  0  0  0  0  0
    6.4870  -12.0303   26.9807 C   0  0  0  0  0  0  0  0  0  0  0  0
    7.8713  -12.0650   26.9410 C   0  0  0  0  0  0  0  0  0  0  0  0
    8.4843  -13.0819   26.2690 C   0  0  0  0  0  0  0  0  0  0  0  0
    7.7095  -14.0562   25.6421 C   0  0  0  0  0  0  0  0  0  0  0  0
    8.4099  -15.1168   24.9259 C   0  0  0  0  0  0  0  0  0  0  0  0
    9.7780  -15.4386   25.5457 C   0  0  2  0  0  0  0  0  0  0  0  0
   10.2237  -16.6212   24.7720 N   0  0  0  0  0  0  0  0  0  0  0  0
    9.5428  -15.7955   26.9600 C   0  0  0  0  0  0  0  0  0  0  0  0
    9.2710  -14.9861   27.8559 O   0  0  0  0  0  0  0  0  0  0  0  0
    6.3323  -14.0377   25.6709 C   0  0  0  0  0  0  0  0  0  0  0  0
    5.7347  -12.9909   26.3623 C   0  0  0  0  0  0  0  0  0  0  0  0
    9.6295  -17.1313   27.3239 O   0  0  0  0  0  0  0  0  0  0  0  0
  2  1  1  1
  3  4  1  0
  3  2  1  0
  5  4  1  0
  6  5  1  0
  7  6  1  0
  8  9  2  0
  8  2  1  0
 10 11  1  0
 11 12  2  0
 13 11  1  0
 13 14  1  0
 15 14  1  6
 15 17  1  0
 15 16  1  0
 16  8  1  0
 17 26  1  0
 18 17  2  0
 19 20  1  0
 20 30  2  0
 20 21  1  0
 21 22  2  0
 22 23  1  0
 23 24  1  0
 25 24  1  6
 25 27  1  0
 26 25  1  0
 27 28  2  0
 27 31  1  0
 29 23  2  0
 30 29  1  0
M  END
$$$$
