KQY.pdb
     RDKit          3D

 31 31  0  0  1  0  0  0  0  0999 V2000
    5.3681  -17.1214   21.2766 N   0  0  0  0  0  0  0  0  0  0  0  0
    6.5635  -16.6340   21.8518 C   0  0  1  0  0  0  0  0  0  0  0  0
    6.8835  -15.1893   21.6620 C   0  0  0  0  0  0  0  0  0  0  0  0
    7.6461  -14.8293   20.4512 C   0  0  0  0  0  0  0  0  0  0  0  0
    7.9309  -13.3929   20.2032 C   0  0  0  0  0  0  0  0  0  0  0  0
    8.6702  -13.0894   18.9370 C   0  0  0  0  0  0  0  0  0  0  0  0
    8.8639  -11.6981   18.6592 N   0  0  0  0  0  0  0  0  0  0  0  0
    6.6196  -16.9802   23.3023 C   0  0  0  0  0  0  0  0  0  0  0  0
    5.5953  -16.6892   23.9987 O   0  0  0  0  0  0  0  0  0  0  0  0
    7.6820  -21.9386   26.1230 N   0  0  0  0  0  0  0  0  0  0  0  0
    6.5941  -21.4798   25.3096 C   0  0  0  0  0  0  0  0  0  0  0  0
    5.7210  -22.2297   24.8593 O   0  0  0  0  0  0  0  0  0  0  0  0
    6.5771  -20.0213   25.0327 C   0  0  0  0  0  0  0  0  0  0  0  0
    7.6364  -19.2389   25.7190 C   0  0  0  0  0  0  0  0  0  0  0  0
    7.5918  -17.7801   25.4232 C   0  0  2  0  0  0  0  0  0  0  0  0
    7.6924  -17.5912   23.9571 N   0  0  0  0  0  0  0  0  0  0  0  0
    8.7878  -17.1034   25.9616 C   0  0  0  0  0  0  0  0  0  0  0  0
    9.8703  -17.0643   25.2715 O   0  0  0  0  0  0  0  0  0  0  0  0
    5.5328  -11.9940   25.4709 O   0  0  0  0  0  0  0  0  0  0  0  0
    6.5772  -12.6253   26.1370 C   0  0  0  0  0  0  0  0  0  0  0  0
    6.3878  -12.9393   27.4729 C   0  0  0  0  0  0  0  0  0  0  0  0
    7.3958  -13.5593   28.1517 C   0  0  0  0  0  0  0  0  0  0  0  0
    8.5852  -13.8607   27.4906 C   0  0  0  0  0  0  0  0  0  0  0  0
    9.6384  -14.5128   28.2612 C   0  0  0  0  0  0  0  0  0  0  0  0
   10.0999  -15.8322   27.6243 C   0  0  2  0  0  0  0  0  0  0  0  0
    8.8249  -16.4698   27.2194 N   0  0  0  0  0  0  0  0  0  0  0  0
   10.7659  -16.6181   28.6834 C   0  0  0  0  0  0  0  0  0  0  0  0
   10.3037  -17.6455   29.1957 O   0  0  0  0  0  0  0  0  0  0  0  0
    8.7913  -13.5559   26.1630 C   0  0  0  0  0  0  0  0  0  0  0  0
    7.7480  -12.9249   25.4963 C   0  0  0  0  0  0  0  0  0  0  0  0
   11.9996  -16.1845   29.1463 O   0  0  0  0  0  0  0  0  0  0  0  0
  2  1  1  1
  3  4  1  0
  3  2  1  0
  5  4  1  0
  6  5  1  0
  7  6  1  0
  8  9  2  0
  8  2  1  0
 10 11  1  0
 11 12  2  0
 13 11  1  0
 13 14  1  0
 15 14  1  6
 15 17  1  0
 15 16  1  0
 16  8  1  0
 17 26  1  0
 18 17  2  0
 19 20  1  0
 20 30  2  0
 20 21  1  0
 21 22  2  0
 22 23  1  0
 23 24  1  0
 25 24  1  1
 25 27  1  0
 26 25  1  0
 27 28  2  0
 27 31  1  0
 29 23  2  0
 30 29  1  0
M  END
$$$$
