KQY.pdb
     RDKit          3D

 31 31  0  0  1  0  0  0  0  0999 V2000
    6.8932  -17.7155   18.8413 N   0  0  0  0  0  0  0  0  0  0  0  0
    8.0010  -16.8871   19.1314 C   0  0  1  0  0  0  0  0  0  0  0  0
    7.7320  -15.4486   19.4205 C   0  0  0  0  0  0  0  0  0  0  0  0
    7.5477  -14.5585   18.2582 C   0  0  0  0  0  0  0  0  0  0  0  0
    7.2613  -13.1235   18.5123 C   0  0  0  0  0  0  0  0  0  0  0  0
    6.9372  -12.3043   17.3016 C   0  0  0  0  0  0  0  0  0  0  0  0
    6.6428  -10.9262   17.5553 N   0  0  0  0  0  0  0  0  0  0  0  0
    8.8193  -17.4814   20.2288 C   0  0  0  0  0  0  0  0  0  0  0  0
    8.1840  -18.0794   21.1549 O   0  0  0  0  0  0  0  0  0  0  0  0
   14.9296  -20.7192   22.4354 N   0  0  0  0  0  0  0  0  0  0  0  0
   14.4009  -19.5650   21.7690 C   0  0  0  0  0  0  0  0  0  0  0  0
   15.0446  -18.9018   20.9485 O   0  0  0  0  0  0  0  0  0  0  0  0
   13.0067  -19.2045   22.1297 C   0  0  0  0  0  0  0  0  0  0  0  0
   12.2214  -18.5657   21.0431 C   0  0  0  0  0  0  0  0  0  0  0  0
   10.8504  -18.1557   21.4548 C   0  0  2  0  0  0  0  0  0  0  0  0
   10.2126  -17.4371   20.3268 N   0  0  0  0  0  0  0  0  0  0  0  0
   10.9098  -17.1553   22.5382 C   0  0  0  0  0  0  0  0  0  0  0  0
   11.3051  -15.9591   22.2884 O   0  0  0  0  0  0  0  0  0  0  0  0
   10.5264  -13.8262   30.6479 O   0  0  0  0  0  0  0  0  0  0  0  0
   10.2932  -14.4727   29.4394 C   0  0  0  0  0  0  0  0  0  0  0  0
   10.5555  -15.8316   29.3792 C   0  0  0  0  0  0  0  0  0  0  0  0
   10.3356  -16.4922   28.2058 C   0  0  0  0  0  0  0  0  0  0  0  0
    9.8554  -15.7898   27.1019 C   0  0  0  0  0  0  0  0  0  0  0  0
    9.6475  -16.5366   25.8659 C   0  0  0  0  0  0  0  0  0  0  0  0
   10.8149  -16.3766   24.8806 C   0  0  2  0  0  0  0  0  0  0  0  0
   10.5448  -17.4276   23.8715 N   0  0  0  0  0  0  0  0  0  0  0  0
   12.0569  -16.6711   25.6247 C   0  0  0  0  0  0  0  0  0  0  0  0
   12.8033  -15.8159   26.1178 O   0  0  0  0  0  0  0  0  0  0  0  0
    9.5893  -14.4388   27.1432 C   0  0  0  0  0  0  0  0  0  0  0  0
    9.8221  -13.7916   28.3507 C   0  0  0  0  0  0  0  0  0  0  0  0
   12.4249  -17.9983   25.7903 O   0  0  0  0  0  0  0  0  0  0  0  0
  2  1  1  1
  3  4  1  0
  3  2  1  0
  5  4  1  0
  6  5  1  0
  7  6  1  0
  8  9  2  0
  8  2  1  0
 10 11  1  0
 11 12  2  0
 13 11  1  0
 13 14  1  0
 15 14  1  6
 15 17  1  0
 15 16  1  0
 16  8  1  0
 17 26  1  0
 18 17  2  0
 19 20  1  0
 20 30  2  0
 20 21  1  0
 21 22  2  0
 22 23  1  0
 23 24  1  0
 25 24  1  1
 25 27  1  0
 26 25  1  0
 27 28  2  0
 27 31  1  0
 29 23  2  0
 30 29  1  0
M  END
$$$$
