KQY.pdb
     RDKit          3D

 31 31  0  0  1  0  0  0  0  0999 V2000
    7.8321  -19.7256   17.6481 N   0  0  0  0  0  0  0  0  0  0  0  0
    8.1748  -18.4532   18.1590 C   0  0  1  0  0  0  0  0  0  0  0  0
    7.8138  -17.2592   17.3409 C   0  0  0  0  0  0  0  0  0  0  0  0
    8.0078  -17.3676   15.8822 C   0  0  0  0  0  0  0  0  0  0  0  0
    8.8040  -16.3152   15.2006 C   0  0  0  0  0  0  0  0  0  0  0  0
    8.7702  -16.3461   13.7041 C   0  0  0  0  0  0  0  0  0  0  0  0
    9.5676  -15.3511   13.0526 N   0  0  0  0  0  0  0  0  0  0  0  0
    7.6521  -18.2943   19.5477 C   0  0  0  0  0  0  0  0  0  0  0  0
    6.4922  -17.7847   19.6663 O   0  0  0  0  0  0  0  0  0  0  0  0
    8.1904  -22.4970   22.3420 N   0  0  0  0  0  0  0  0  0  0  0  0
    8.9259  -21.7545   23.3236 C   0  0  0  0  0  0  0  0  0  0  0  0
    9.7972  -22.2575   24.0414 O   0  0  0  0  0  0  0  0  0  0  0  0
    8.5724  -20.3167   23.4309 C   0  0  0  0  0  0  0  0  0  0  0  0
    7.4258  -19.8869   22.5906 C   0  0  0  0  0  0  0  0  0  0  0  0
    7.5889  -18.5288   22.0022 C   0  0  2  0  0  0  0  0  0  0  0  0
    8.3219  -18.6532   20.7205 N   0  0  0  0  0  0  0  0  0  0  0  0
    8.4688  -17.6979   22.8470 C   0  0  0  0  0  0  0  0  0  0  0  0
    9.7339  -17.6711   22.6269 O   0  0  0  0  0  0  0  0  0  0  0  0
   11.4097  -13.7549   30.0366 O   0  0  0  0  0  0  0  0  0  0  0  0
   10.6044  -14.2021   28.9954 C   0  0  0  0  0  0  0  0  0  0  0  0
   10.1909  -15.5239   29.0281 C   0  0  0  0  0  0  0  0  0  0  0  0
    9.3996  -15.9902   28.0192 C   0  0  0  0  0  0  0  0  0  0  0  0
    9.0278  -15.1324   26.9856 C   0  0  0  0  0  0  0  0  0  0  0  0
    8.1911  -15.6798   25.9231 C   0  0  0  0  0  0  0  0  0  0  0  0
    9.0164  -16.2096   24.7409 C   0  0  2  0  0  0  0  0  0  0  0  0
    8.0020  -16.8998   23.9100 N   0  0  0  0  0  0  0  0  0  0  0  0
    9.9914  -17.1756   25.2879 C   0  0  0  0  0  0  0  0  0  0  0  0
   11.2024  -16.9574   25.4199 O   0  0  0  0  0  0  0  0  0  0  0  0
    9.4295  -13.8156   26.9364 C   0  0  0  0  0  0  0  0  0  0  0  0
   10.2345  -13.3675   27.9768 C   0  0  0  0  0  0  0  0  0  0  0  0
    9.5294  -18.4212   25.6869 O   0  0  0  0  0  0  0  0  0  0  0  0
  2  1  1  6
  3  4  1  0
  3  2  1  0
  5  4  1  0
  6  5  1  0
  7  6  1  0
  8  9  2  0
  8  2  1  0
 10 11  1  0
 11 12  2  0
 13 11  1  0
 13 14  1  0
 15 14  1  1
 15 17  1  0
 15 16  1  0
 16  8  1  0
 17 26  1  0
 18 17  2  0
 19 20  1  0
 20 30  2  0
 20 21  1  0
 21 22  2  0
 22 23  1  0
 23 24  1  0
 25 24  1  1
 25 27  1  0
 26 25  1  0
 27 28  2  0
 27 31  1  0
 29 23  2  0
 30 29  1  0
M  END
$$$$
