KQY.pdb
     RDKit          3D

 31 31  0  0  1  0  0  0  0  0999 V2000
    9.6777  -18.5085   18.6044 N   0  0  0  0  0  0  0  0  0  0  0  0
    8.5355  -17.7027   18.8127 C   0  0  1  0  0  0  0  0  0  0  0  0
    7.4199  -17.8167   17.8289 C   0  0  0  0  0  0  0  0  0  0  0  0
    7.7051  -18.5486   16.5799 C   0  0  0  0  0  0  0  0  0  0  0  0
    8.7263  -17.9899   15.6574 C   0  0  0  0  0  0  0  0  0  0  0  0
    8.8184  -18.6514   14.3173 C   0  0  0  0  0  0  0  0  0  0  0  0
    9.8716  -18.1772   13.4711 N   0  0  0  0  0  0  0  0  0  0  0  0
    8.0129  -17.8924   20.1976 C   0  0  0  0  0  0  0  0  0  0  0  0
    6.8371  -17.4642   20.4277 O   0  0  0  0  0  0  0  0  0  0  0  0
    5.8678  -22.2519   23.3549 N   0  0  0  0  0  0  0  0  0  0  0  0
    6.8797  -21.4252   23.9451 C   0  0  0  0  0  0  0  0  0  0  0  0
    6.8512  -21.0565   25.1244 O   0  0  0  0  0  0  0  0  0  0  0  0
    7.9864  -21.0285   23.0387 C   0  0  0  0  0  0  0  0  0  0  0  0
    8.6021  -19.7106   23.3377 C   0  0  0  0  0  0  0  0  0  0  0  0
    8.0111  -18.5830   22.5653 C   0  0  2  0  0  0  0  0  0  0  0  0
    8.6988  -18.4945   21.2559 N   0  0  0  0  0  0  0  0  0  0  0  0
    8.3052  -17.2934   23.2201 C   0  0  0  0  0  0  0  0  0  0  0  0
    9.4777  -16.7775   23.1277 O   0  0  0  0  0  0  0  0  0  0  0  0
    7.1207   -9.7214   27.5004 O   0  0  0  0  0  0  0  0  0  0  0  0
    6.9712  -10.9093   26.7938 C   0  0  0  0  0  0  0  0  0  0  0  0
    6.3026  -11.9478   27.4212 C   0  0  0  0  0  0  0  0  0  0  0  0
    6.1410  -13.1253   26.7514 C   0  0  0  0  0  0  0  0  0  0  0  0
    6.6486  -13.2561   25.4599 C   0  0  0  0  0  0  0  0  0  0  0  0
    6.4619  -14.5378   24.7886 C   0  0  0  0  0  0  0  0  0  0  0  0
    7.7906  -15.2643   24.5316 C   0  0  2  0  0  0  0  0  0  0  0  0
    7.3559  -16.5601   23.9591 N   0  0  0  0  0  0  0  0  0  0  0  0
    8.4402  -15.4624   25.8438 C   0  0  0  0  0  0  0  0  0  0  0  0
    9.2380  -14.6711   26.3625 O   0  0  0  0  0  0  0  0  0  0  0  0
    7.3160  -12.2345   24.8205 C   0  0  0  0  0  0  0  0  0  0  0  0
    7.4660  -11.0468   25.5260 C   0  0  0  0  0  0  0  0  0  0  0  0
    8.1430  -16.6144   26.5571 O   0  0  0  0  0  0  0  0  0  0  0  0
  2  1  1  6
  3  4  1  0
  3  2  1  0
  5  4  1  0
  6  5  1  0
  7  6  1  0
  8  9  2  0
  8  2  1  0
 10 11  1  0
 11 12  2  0
 13 11  1  0
 13 14  1  0
 15 14  1  1
 15 17  1  0
 15 16  1  0
 16  8  1  0
 17 26  1  0
 18 17  2  0
 19 20  1  0
 20 30  2  0
 20 21  1  0
 21 22  2  0
 22 23  1  0
 23 24  1  0
 25 24  1  1
 25 27  1  0
 26 25  1  0
 27 28  2  0
 27 31  1  0
 29 23  2  0
 30 29  1  0
M  END
$$$$
