KQY.pdb
     RDKit          3D

 31 31  0  0  1  0  0  0  0  0999 V2000
    5.5964  -19.4011   20.5106 N   0  0  0  0  0  0  0  0  0  0  0  0
    5.3828  -18.1434   21.1188 C   0  0  1  0  0  0  0  0  0  0  0  0
    4.6722  -18.1211   22.4303 C   0  0  0  0  0  0  0  0  0  0  0  0
    3.7396  -19.2318   22.7018 C   0  0  0  0  0  0  0  0  0  0  0  0
    2.3276  -19.0844   22.2652 C   0  0  0  0  0  0  0  0  0  0  0  0
    1.4325  -20.2459   22.5677 C   0  0  0  0  0  0  0  0  0  0  0  0
    0.0740  -20.1004   22.1391 N   0  0  0  0  0  0  0  0  0  0  0  0
    6.6689  -17.3940   21.2252 C   0  0  0  0  0  0  0  0  0  0  0  0
    7.7018  -18.0727   21.5273 O   0  0  0  0  0  0  0  0  0  0  0  0
    8.2206  -11.9716   18.7375 N   0  0  0  0  0  0  0  0  0  0  0  0
    8.1897  -13.2018   18.0017 C   0  0  0  0  0  0  0  0  0  0  0  0
    8.1091  -13.2528   16.7695 O   0  0  0  0  0  0  0  0  0  0  0  0
    8.2605  -14.4367   18.8226 C   0  0  0  0  0  0  0  0  0  0  0  0
    8.2590  -14.2161   20.2912 C   0  0  0  0  0  0  0  0  0  0  0  0
    8.2107  -15.4739   21.0869 C   0  0  2  0  0  0  0  0  0  0  0  0
    6.8352  -16.0210   21.0241 N   0  0  0  0  0  0  0  0  0  0  0  0
    8.4265  -15.1918   22.5194 C   0  0  0  0  0  0  0  0  0  0  0  0
    7.7586  -14.2608   23.0996 O   0  0  0  0  0  0  0  0  0  0  0  0
    9.7753  -15.1574   30.9199 O   0  0  0  0  0  0  0  0  0  0  0  0
    9.4562  -15.2160   29.5681 C   0  0  0  0  0  0  0  0  0  0  0  0
    9.4195  -16.4661   28.9724 C   0  0  0  0  0  0  0  0  0  0  0  0
    9.1090  -16.5538   27.6467 C   0  0  0  0  0  0  0  0  0  0  0  0
    8.8375  -15.3917   26.9267 C   0  0  0  0  0  0  0  0  0  0  0  0
    8.5224  -15.5348   25.5094 C   0  0  0  0  0  0  0  0  0  0  0  0
    9.7407  -15.2803   24.6091 C   0  0  2  0  0  0  0  0  0  0  0  0
    9.3402  -15.9006   23.3244 N   0  0  0  0  0  0  0  0  0  0  0  0
   10.8827  -16.0027   25.2065 C   0  0  0  0  0  0  0  0  0  0  0  0
   11.5442  -15.6010   26.1723 O   0  0  0  0  0  0  0  0  0  0  0  0
    8.8694  -14.1404   27.5021 C   0  0  0  0  0  0  0  0  0  0  0  0
    9.1883  -14.0808   28.8534 C   0  0  0  0  0  0  0  0  0  0  0  0
   11.2509  -17.2211   24.6550 O   0  0  0  0  0  0  0  0  0  0  0  0
  2  1  1  1
  3  4  1  0
  3  2  1  0
  5  4  1  0
  6  5  1  0
  7  6  1  0
  8  9  2  0
  8  2  1  0
 10 11  1  0
 11 12  2  0
 13 11  1  0
 13 14  1  0
 15 14  1  6
 15 17  1  0
 15 16  1  0
 16  8  1  0
 17 26  1  0
 18 17  2  0
 19 20  1  0
 20 30  2  0
 20 21  1  0
 21 22  2  0
 22 23  1  0
 23 24  1  0
 25 24  1  1
 25 27  1  0
 26 25  1  0
 27 28  2  0
 27 31  1  0
 29 23  2  0
 30 29  1  0
M  END
$$$$
