KQY.pdb
     RDKit          3D

 31 31  0  0  1  0  0  0  0  0999 V2000
   12.1740  -18.1113   14.5193 N   0  0  0  0  0  0  0  0  0  0  0  0
   12.9882  -17.6583   15.5820 C   0  0  1  0  0  0  0  0  0  0  0  0
   13.6906  -16.3538   15.4076 C   0  0  0  0  0  0  0  0  0  0  0  0
   15.1151  -16.4097   15.0273 C   0  0  0  0  0  0  0  0  0  0  0  0
   16.1277  -16.4855   16.1112 C   0  0  0  0  0  0  0  0  0  0  0  0
   17.5565  -16.4355   15.6662 C   0  0  0  0  0  0  0  0  0  0  0  0
   18.5262  -16.4237   16.7197 N   0  0  0  0  0  0  0  0  0  0  0  0
   12.2175  -17.6533   16.8598 C   0  0  0  0  0  0  0  0  0  0  0  0
   11.9204  -16.5143   17.3428 O   0  0  0  0  0  0  0  0  0  0  0  0
    9.2029  -22.2291   19.9457 N   0  0  0  0  0  0  0  0  0  0  0  0
    8.8236  -21.0897   20.7290 C   0  0  0  0  0  0  0  0  0  0  0  0
    8.0229  -21.1490   21.6685 O   0  0  0  0  0  0  0  0  0  0  0  0
    9.4610  -19.8073   20.3376 C   0  0  0  0  0  0  0  0  0  0  0  0
   10.2833  -19.8654   19.1023 C   0  0  0  0  0  0  0  0  0  0  0  0
   10.9445  -18.5758   18.7603 C   0  0  2  0  0  0  0  0  0  0  0  0
   11.7979  -18.7833   17.5670 N   0  0  0  0  0  0  0  0  0  0  0  0
   11.8906  -18.1788   19.8213 C   0  0  0  0  0  0  0  0  0  0  0  0
   13.0488  -18.7296   19.8895 O   0  0  0  0  0  0  0  0  0  0  0  0
   15.6196  -13.5307   17.6557 O   0  0  0  0  0  0  0  0  0  0  0  0
   14.8732  -14.0145   18.7241 C   0  0  0  0  0  0  0  0  0  0  0  0
   15.5625  -14.5971   19.7751 C   0  0  0  0  0  0  0  0  0  0  0  0
   14.8557  -15.0805   20.8372 C   0  0  0  0  0  0  0  0  0  0  0  0
   13.4657  -14.9780   20.8410 C   0  0  0  0  0  0  0  0  0  0  0  0
   12.7529  -15.5200   21.9928 C   0  0  0  0  0  0  0  0  0  0  0  0
   12.5712  -17.0429   21.9065 C   0  0  2  0  0  0  0  0  0  0  0  0
   11.6054  -17.2000   20.7937 N   0  0  0  0  0  0  0  0  0  0  0  0
   11.9749  -17.4838   23.1844 C   0  0  0  0  0  0  0  0  0  0  0  0
   10.7952  -17.8280   23.3307 O   0  0  0  0  0  0  0  0  0  0  0  0
   12.7636  -14.4023   19.8050 C   0  0  0  0  0  0  0  0  0  0  0  0
   13.5088  -13.9184   18.7365 C   0  0  0  0  0  0  0  0  0  0  0  0
   12.7850  -17.5199   24.3099 O   0  0  0  0  0  0  0  0  0  0  0  0
  2  1  1  6
  3  4  1  0
  3  2  1  0
  5  4  1  0
  6  5  1  0
  7  6  1  0
  8  9  2  0
  8  2  1  0
 10 11  1  0
 11 12  2  0
 13 11  1  0
 13 14  1  0
 15 14  1  1
 15 17  1  0
 15 16  1  0
 16  8  1  0
 17 26  1  0
 18 17  2  0
 19 20  1  0
 20 30  2  0
 20 21  1  0
 21 22  2  0
 22 23  1  0
 23 24  1  0
 25 24  1  1
 25 27  1  0
 26 25  1  0
 27 28  2  0
 27 31  1  0
 29 23  2  0
 30 29  1  0
M  END
$$$$
