VKC.pdb
     RDKit          3D

 23 22  0  0  1  0  0  0  0  0999 V2000
    6.6510  -13.6267   20.4867 C   0  0  0  0  0  0  0  0  0  0  0  0
    8.0665  -13.0799   20.2527 C   0  0  2  0  0  0  0  0  0  0  0  0
    8.2210  -12.9473   18.7554 C   0  0  0  0  0  0  0  0  0  0  0  0
    9.0066  -14.0814   20.8732 C   0  0  2  0  0  0  0  0  0  0  0  0
    8.8237  -15.3156   20.0801 N   0  0  0  0  0  0  0  0  0  0  0  0
    8.7504  -14.3932   22.2736 C   0  0  0  0  0  0  0  0  0  0  0  0
    8.8511  -13.4264   23.1178 O   0  0  0  0  0  0  0  0  0  0  0  0
    8.4007  -15.6262   22.8354 N   0  0  0  0  0  0  0  0  0  0  0  0
    8.1997  -15.8338   24.2730 C   0  0  1  0  0  0  0  0  0  0  0  0
    7.1125  -16.8694   24.3671 C   0  0  0  0  0  0  0  0  0  0  0  0
    6.4824  -17.1878   23.0499 C   0  0  0  0  0  0  0  0  0  0  0  0
    5.5276  -18.3706   23.1695 C   0  0  0  0  0  0  0  0  0  0  0  0
    4.9192  -18.5572   21.7884 C   0  0  0  0  0  0  0  0  0  0  0  0
    4.0880  -19.7577   21.7953 N   0  0  0  0  0  0  0  0  0  0  0  0
    9.4041  -16.2379   24.9720 C   0  0  0  0  0  0  0  0  0  0  0  0
    9.6252  -17.4670   25.2136 O   0  0  0  0  0  0  0  0  0  0  0  0
   10.4321  -15.3686   25.4493 N   0  0  0  0  0  0  0  0  0  0  0  0
   10.5130  -14.9601   26.8403 C   0  0  1  0  0  0  0  0  0  0  0  0
    9.4029  -14.0116   27.2179 C   0  0  0  0  0  0  0  0  0  0  0  0
    9.4783  -13.5868   28.9935 S   0  0  0  0  0  0  0  0  0  0  0  0
   10.4357  -16.1822   27.6724 C   0  0  0  0  0  0  0  0  0  0  0  0
   11.3090  -16.4617   28.7120 O   0  0  0  0  0  0  0  0  0  0  0  0
    9.5306  -17.0143   27.4254 O   0  0  0  0  0  0  0  0  0  0  0  0
  2  1  1  6
  3  2  1  0
  4  6  1  0
  4  5  1  6
  4  2  1  0
  6  7  2  0
  8  9  1  0
  8  6  1  0
  9 15  1  0
 10 11  1  0
  9 10  1  6
 12 11  1  0
 13 14  1  0
 13 12  1  0
 15 17  1  0
 15 16  2  0
 17 18  1  0
 18 21  1  0
 18 19  1  1
 20 19  1  0
 21 23  2  0
 21 22  1  0
M  END
$$$$
