VKC.pdb
     RDKit          3D

 23 22  0  0  1  0  0  0  0  0999 V2000
    6.5650  -14.1923   20.5566 C   0  0  0  0  0  0  0  0  0  0  0  0
    7.7883  -13.2674   20.4809 C   0  0  2  0  0  0  0  0  0  0  0  0
    7.9601  -12.9206   19.0202 C   0  0  0  0  0  0  0  0  0  0  0  0
    8.9388  -14.0519   21.0576 C   0  0  2  0  0  0  0  0  0  0  0  0
    9.1078  -15.2032   20.1455 N   0  0  0  0  0  0  0  0  0  0  0  0
    8.7320  -14.5616   22.4072 C   0  0  0  0  0  0  0  0  0  0  0  0
    8.4378  -13.7026   23.3199 O   0  0  0  0  0  0  0  0  0  0  0  0
    8.8098  -15.8857   22.8532 N   0  0  0  0  0  0  0  0  0  0  0  0
    8.6309  -16.2806   24.2541 C   0  0  1  0  0  0  0  0  0  0  0  0
    8.0000  -17.6452   24.1947 C   0  0  0  0  0  0  0  0  0  0  0  0
    6.7553  -17.6867   23.3686 C   0  0  0  0  0  0  0  0  0  0  0  0
    6.2606  -19.1182   23.1924 C   0  0  0  0  0  0  0  0  0  0  0  0
    4.9719  -19.0189   22.3915 C   0  0  0  0  0  0  0  0  0  0  0  0
    4.4272  -20.3604   22.2023 N   0  0  0  0  0  0  0  0  0  0  0  0
    9.8642  -16.2793   25.0164 C   0  0  0  0  0  0  0  0  0  0  0  0
   10.4757  -17.3697   25.2515 O   0  0  0  0  0  0  0  0  0  0  0  0
   10.5123  -15.1316   25.5669 N   0  0  0  0  0  0  0  0  0  0  0  0
   10.5463  -14.8757   26.9957 C   0  0  1  0  0  0  0  0  0  0  0  0
    9.4623  -13.9197   27.4263 C   0  0  0  0  0  0  0  0  0  0  0  0
    9.5231  -13.6273   29.2289 S   0  0  0  0  0  0  0  0  0  0  0  0
   10.3773  -16.1733   27.6883 C   0  0  0  0  0  0  0  0  0  0  0  0
   11.2461  -16.6459   28.6596 O   0  0  0  0  0  0  0  0  0  0  0  0
    9.3940  -16.8884   27.3812 O   0  0  0  0  0  0  0  0  0  0  0  0
  2  1  1  6
  3  2  1  0
  4  6  1  0
  4  5  1  6
  4  2  1  0
  6  7  2  0
  8  9  1  0
  8  6  1  0
  9 15  1  0
 10 11  1  0
  9 10  1  6
 12 11  1  0
 13 14  1  0
 13 12  1  0
 15 17  1  0
 15 16  2  0
 17 18  1  0
 18 21  1  0
 18 19  1  1
 20 19  1  0
 21 23  2  0
 21 22  1  0
M  END
$$$$
