VKC.pdb
     RDKit          3D

 23 22  0  0  1  0  0  0  0  0999 V2000
    9.5981  -20.2614   20.7432 C   0  0  0  0  0  0  0  0  0  0  0  0
    8.1180  -19.9785   21.0377 C   0  0  2  0  0  0  0  0  0  0  0  0
    7.3712  -21.2412   20.6755 C   0  0  0  0  0  0  0  0  0  0  0  0
    7.7456  -18.7891   20.1901 C   0  0  2  0  0  0  0  0  0  0  0  0
    7.9952  -19.2218   18.7986 N   0  0  0  0  0  0  0  0  0  0  0  0
    8.5177  -17.5786   20.4401 C   0  0  0  0  0  0  0  0  0  0  0  0
    9.7513  -17.5830   20.0716 O   0  0  0  0  0  0  0  0  0  0  0  0
    8.0898  -16.3874   21.0369 N   0  0  0  0  0  0  0  0  0  0  0  0
    8.9656  -15.2326   21.2598 C   0  0  1  0  0  0  0  0  0  0  0  0
    8.0365  -14.0525   21.3476 C   0  0  0  0  0  0  0  0  0  0  0  0
    7.2394  -13.8325   20.1027 C   0  0  0  0  0  0  0  0  0  0  0  0
    8.1496  -13.6090   18.9001 C   0  0  0  0  0  0  0  0  0  0  0  0
    7.2265  -13.4392   17.7037 C   0  0  0  0  0  0  0  0  0  0  0  0
    8.0361  -13.2336   16.5061 N   0  0  0  0  0  0  0  0  0  0  0  0
    9.8019  -15.3609   22.4373 C   0  0  0  0  0  0  0  0  0  0  0  0
    9.2769  -15.4375   23.5934 O   0  0  0  0  0  0  0  0  0  0  0  0
   11.2292  -15.4148   22.4541 N   0  0  0  0  0  0  0  0  0  0  0  0
   11.9707  -15.8674   23.6175 C   0  0  1  0  0  0  0  0  0  0  0  0
   11.5282  -17.2348   24.0749 C   0  0  0  0  0  0  0  0  0  0  0  0
   11.6516  -17.3910   25.8912 S   0  0  0  0  0  0  0  0  0  0  0  0
   13.4049  -15.8987   23.2516 C   0  0  0  0  0  0  0  0  0  0  0  0
   14.4351  -15.7105   24.1598 O   0  0  0  0  0  0  0  0  0  0  0  0
   13.7090  -16.1064   22.0528 O   0  0  0  0  0  0  0  0  0  0  0  0
  2  1  1  6
  3  2  1  0
  4  6  1  0
  4  5  1  6
  4  2  1  0
  6  7  2  0
  8  9  1  0
  8  6  1  0
  9 15  1  0
 10 11  1  0
  9 10  1  1
 12 11  1  0
 13 14  1  0
 13 12  1  0
 15 17  1  0
 15 16  2  0
 17 18  1  0
 18 21  1  0
 18 19  1  6
 20 19  1  0
 21 23  2  0
 21 22  1  0
M  END
$$$$
