VKC.pdb
     RDKit          3D

 23 22  0  0  1  0  0  0  0  0999 V2000
    7.6543  -12.0006   26.8203 C   0  0  0  0  0  0  0  0  0  0  0  0
    6.9819  -11.9507   25.4409 C   0  0  2  0  0  0  0  0  0  0  0  0
    6.1278  -10.7041   25.4374 C   0  0  0  0  0  0  0  0  0  0  0  0
    6.1914  -13.2280   25.3174 C   0  0  2  0  0  0  0  0  0  0  0  0
    5.3031  -13.2402   26.4992 N   0  0  0  0  0  0  0  0  0  0  0  0
    6.9806  -14.4532   25.3234 C   0  0  0  0  0  0  0  0  0  0  0  0
    7.2131  -14.9956   26.4677 O   0  0  0  0  0  0  0  0  0  0  0  0
    7.5291  -15.1343   24.2310 N   0  0  0  0  0  0  0  0  0  0  0  0
    8.3030  -16.3738   24.3544 C   0  0  1  0  0  0  0  0  0  0  0  0
    8.5041  -16.8477   22.9407 C   0  0  0  0  0  0  0  0  0  0  0  0
    9.2128  -18.1604   22.8513 C   0  0  0  0  0  0  0  0  0  0  0  0
    9.4029  -18.5841   21.3990 C   0  0  0  0  0  0  0  0  0  0  0  0
   10.1351  -19.9160   21.4452 C   0  0  0  0  0  0  0  0  0  0  0  0
   10.2026  -20.4666   20.0945 N   0  0  0  0  0  0  0  0  0  0  0  0
    9.5584  -16.2030   25.0595 C   0  0  0  0  0  0  0  0  0  0  0  0
   10.2671  -15.1642   24.8677 O   0  0  0  0  0  0  0  0  0  0  0  0
   10.1269  -17.1162   25.9992 N   0  0  0  0  0  0  0  0  0  0  0  0
   10.9079  -16.6658   27.1373 C   0  0  1  0  0  0  0  0  0  0  0  0
   10.1255  -15.7340   28.0285 C   0  0  0  0  0  0  0  0  0  0  0  0
   10.6034  -13.9942   27.7397 S   0  0  0  0  0  0  0  0  0  0  0  0
   11.3206  -17.8648   27.9014 C   0  0  0  0  0  0  0  0  0  0  0  0
   10.9590  -19.1583   27.5581 O   0  0  0  0  0  0  0  0  0  0  0  0
   12.0376  -17.7054   28.9179 O   0  0  0  0  0  0  0  0  0  0  0  0
  2  1  1  1
  3  2  1  0
  4  6  1  0
  4  5  1  1
  4  2  1  0
  6  7  2  0
  8  9  1  0
  8  6  1  0
  9 15  1  0
 10 11  1  0
  9 10  1  6
 12 11  1  0
 13 14  1  0
 13 12  1  0
 15 17  1  0
 15 16  2  0
 17 18  1  0
 18 21  1  0
 18 19  1  1
 20 19  1  0
 21 23  2  0
 21 22  1  0
M  END
$$$$
