VKC.pdb
     RDKit          3D

 23 22  0  0  1  0  0  0  0  0999 V2000
    7.7581  -17.5258   17.9982 C   0  0  0  0  0  0  0  0  0  0  0  0
    8.9791  -18.4403   18.1721 C   0  0  2  0  0  0  0  0  0  0  0  0
    8.5776  -19.7845   17.6104 C   0  0  0  0  0  0  0  0  0  0  0  0
    9.2734  -18.4639   19.6501 C   0  0  2  0  0  0  0  0  0  0  0  0
    8.0838  -19.0914   20.2640 N   0  0  0  0  0  0  0  0  0  0  0  0
    9.4742  -17.1589   20.2672 C   0  0  0  0  0  0  0  0  0  0  0  0
   10.5587  -16.5311   19.9719 O   0  0  0  0  0  0  0  0  0  0  0  0
    8.6291  -16.4819   21.1535 N   0  0  0  0  0  0  0  0  0  0  0  0
    9.0024  -15.2418   21.8414 C   0  0  1  0  0  0  0  0  0  0  0  0
    7.7280  -14.4467   21.9263 C   0  0  0  0  0  0  0  0  0  0  0  0
    7.0788  -14.2249   20.5986 C   0  0  0  0  0  0  0  0  0  0  0  0
    8.0142  -13.4881   19.6462 C   0  0  0  0  0  0  0  0  0  0  0  0
    7.2372  -13.3121   18.3509 C   0  0  0  0  0  0  0  0  0  0  0  0
    8.0862  -12.6299   17.3783 N   0  0  0  0  0  0  0  0  0  0  0  0
    9.5996  -15.4614   23.1442 C   0  0  0  0  0  0  0  0  0  0  0  0
    8.9054  -15.3232   24.2011 O   0  0  0  0  0  0  0  0  0  0  0  0
   10.9545  -15.8368   23.3966 N   0  0  0  0  0  0  0  0  0  0  0  0
   11.4154  -16.2205   24.7189 C   0  0  1  0  0  0  0  0  0  0  0  0
   10.6451  -17.3946   25.2692 C   0  0  0  0  0  0  0  0  0  0  0  0
   11.1990  -17.8083   26.9605 S   0  0  0  0  0  0  0  0  0  0  0  0
   12.8510  -16.5663   24.6112 C   0  0  0  0  0  0  0  0  0  0  0  0
   13.6758  -16.7775   25.7051 O   0  0  0  0  0  0  0  0  0  0  0  0
   13.3529  -16.6747   23.4671 O   0  0  0  0  0  0  0  0  0  0  0  0
  2  1  1  1
  3  2  1  0
  4  6  1  0
  4  5  1  1
  4  2  1  0
  6  7  2  0
  8  9  1  0
  8  6  1  0
  9 15  1  0
 10 11  1  0
  9 10  1  1
 12 11  1  0
 13 14  1  0
 13 12  1  0
 15 17  1  0
 15 16  2  0
 17 18  1  0
 18 21  1  0
 18 19  1  6
 20 19  1  0
 21 23  2  0
 21 22  1  0
M  END
$$$$
