VKC.pdb
     RDKit          3D

 23 22  0  0  1  0  0  0  0  0999 V2000
    9.4923  -14.2817   19.7654 C   0  0  0  0  0  0  0  0  0  0  0  0
    7.9587  -14.2516   19.8355 C   0  0  2  0  0  0  0  0  0  0  0  0
    7.5247  -13.0777   18.9888 C   0  0  0  0  0  0  0  0  0  0  0  0
    7.6123  -14.1076   21.2953 C   0  0  2  0  0  0  0  0  0  0  0  0
    8.3072  -12.8774   21.7307 N   0  0  0  0  0  0  0  0  0  0  0  0
    8.0440  -15.2060   22.1503 C   0  0  0  0  0  0  0  0  0  0  0  0
    7.4208  -16.3258   22.0264 O   0  0  0  0  0  0  0  0  0  0  0  0
    9.0665  -15.2084   23.1056 N   0  0  0  0  0  0  0  0  0  0  0  0
    9.4797  -16.4039   23.8474 C   0  0  1  0  0  0  0  0  0  0  0  0
    9.8537  -17.4066   22.7899 C   0  0  0  0  0  0  0  0  0  0  0  0
   10.1752  -18.7576   23.3420 C   0  0  0  0  0  0  0  0  0  0  0  0
   10.4614  -19.7539   22.2238 C   0  0  0  0  0  0  0  0  0  0  0  0
   10.7863  -21.0708   22.9112 C   0  0  0  0  0  0  0  0  0  0  0  0
   10.9325  -22.1110   21.8969 N   0  0  0  0  0  0  0  0  0  0  0  0
   10.5633  -16.1595   24.7792 C   0  0  0  0  0  0  0  0  0  0  0  0
   11.6006  -15.5245   24.4065 O   0  0  0  0  0  0  0  0  0  0  0  0
   10.6068  -16.5711   26.1464 N   0  0  0  0  0  0  0  0  0  0  0  0
   10.4793  -15.6259   27.2412 C   0  0  1  0  0  0  0  0  0  0  0  0
    9.1719  -14.8756   27.1928 C   0  0  0  0  0  0  0  0  0  0  0  0
    9.4013  -13.1263   27.6682 S   0  0  0  0  0  0  0  0  0  0  0  0
   10.5753  -16.3889   28.5064 C   0  0  0  0  0  0  0  0  0  0  0  0
   10.3717  -17.7571   28.5973 O   0  0  0  0  0  0  0  0  0  0  0  0
   10.8559  -15.7654   29.5577 O   0  0  0  0  0  0  0  0  0  0  0  0
  2  1  1  1
  3  2  1  0
  4  6  1  0
  4  5  1  1
  4  2  1  0
  6  7  2  0
  8  9  1  0
  8  6  1  0
  9 15  1  0
 10 11  1  0
  9 10  1  6
 12 11  1  0
 13 14  1  0
 13 12  1  0
 15 17  1  0
 15 16  2  0
 17 18  1  0
 18 21  1  0
 18 19  1  6
 20 19  1  0
 21 23  2  0
 21 22  1  0
M  END
$$$$
