VKC.pdb
     RDKit          3D

 23 22  0  0  1  0  0  0  0  0999 V2000
    9.2371  -13.0039   20.3977 C   0  0  0  0  0  0  0  0  0  0  0  0
    8.1015  -13.6874   19.6227 C   0  0  2  0  0  0  0  0  0  0  0  0
    6.8283  -12.9941   20.0492 C   0  0  0  0  0  0  0  0  0  0  0  0
    8.1560  -15.1444   20.0047 C   0  0  2  0  0  0  0  0  0  0  0  0
    7.2484  -15.8203   19.0532 N   0  0  0  0  0  0  0  0  0  0  0  0
    7.7132  -15.4514   21.3588 C   0  0  0  0  0  0  0  0  0  0  0  0
    6.4501  -15.3715   21.5952 O   0  0  0  0  0  0  0  0  0  0  0  0
    8.4912  -15.8309   22.4582 N   0  0  0  0  0  0  0  0  0  0  0  0
    7.9573  -15.9801   23.8159 C   0  0  1  0  0  0  0  0  0  0  0  0
    8.3237  -17.3808   24.2249 C   0  0  0  0  0  0  0  0  0  0  0  0
    7.3873  -18.4171   23.6933 C   0  0  0  0  0  0  0  0  0  0  0  0
    7.7627  -19.8066   24.1967 C   0  0  0  0  0  0  0  0  0  0  0  0
    6.8719  -20.7794   23.4402 C   0  0  0  0  0  0  0  0  0  0  0  0
    7.1378  -22.1338   23.9167 N   0  0  0  0  0  0  0  0  0  0  0  0
    8.4597  -14.9880   24.7462 C   0  0  0  0  0  0  0  0  0  0  0  0
    9.6927  -14.6753   24.7486 O   0  0  0  0  0  0  0  0  0  0  0  0
    7.6891  -14.2782   25.7171 N   0  0  0  0  0  0  0  0  0  0  0  0
    8.2930  -13.3384   26.6446 C   0  0  1  0  0  0  0  0  0  0  0  0
    7.3233  -12.2679   27.0787 C   0  0  0  0  0  0  0  0  0  0  0  0
    5.6416  -12.6131   26.4530 S   0  0  0  0  0  0  0  0  0  0  0  0
    8.7565  -14.1055   27.8230 C   0  0  0  0  0  0  0  0  0  0  0  0
    8.5642  -15.4697   27.9773 O   0  0  0  0  0  0  0  0  0  0  0  0
    9.3569  -13.4897   28.7357 O   0  0  0  0  0  0  0  0  0  0  0  0
  2  1  1  1
  3  2  1  0
  4  6  1  0
  4  5  1  6
  4  2  1  0
  6  7  2  0
  8  9  1  0
  8  6  1  0
  9 15  1  0
 10 11  1  0
  9 10  1  1
 12 11  1  0
 13 14  1  0
 13 12  1  0
 15 17  1  0
 15 16  2  0
 17 18  1  0
 18 21  1  0
 18 19  1  1
 20 19  1  0
 21 23  2  0
 21 22  1  0
M  END
$$$$
