VKC.pdb
     RDKit          3D

 23 22  0  0  1  0  0  0  0  0999 V2000
    7.6271  -12.8652   19.0673 C   0  0  0  0  0  0  0  0  0  0  0  0
    7.4699  -13.3824   20.5044 C   0  0  2  0  0  0  0  0  0  0  0  0
    8.2480  -12.4275   21.3796 C   0  0  0  0  0  0  0  0  0  0  0  0
    8.0172  -14.7868   20.5028 C   0  0  2  0  0  0  0  0  0  0  0  0
    7.0933  -15.5531   19.6397 N   0  0  0  0  0  0  0  0  0  0  0  0
    8.0730  -15.4362   21.8063 C   0  0  0  0  0  0  0  0  0  0  0  0
    6.9504  -15.7339   22.3619 O   0  0  0  0  0  0  0  0  0  0  0  0
    9.2051  -15.7886   22.5495 N   0  0  0  0  0  0  0  0  0  0  0  0
    9.1477  -16.2766   23.9312 C   0  0  1  0  0  0  0  0  0  0  0  0
   10.1946  -17.3545   24.0055 C   0  0  0  0  0  0  0  0  0  0  0  0
    9.8407  -18.5787   23.2248 C   0  0  0  0  0  0  0  0  0  0  0  0
   10.9119  -19.6535   23.3731 C   0  0  0  0  0  0  0  0  0  0  0  0
   10.3981  -20.8633   22.6085 C   0  0  0  0  0  0  0  0  0  0  0  0
   11.4011  -21.9228   22.6688 N   0  0  0  0  0  0  0  0  0  0  0  0
    9.3595  -15.2373   24.9198 C   0  0  0  0  0  0  0  0  0  0  0  0
   10.3442  -14.4392   24.8127 O   0  0  0  0  0  0  0  0  0  0  0  0
    8.5456  -14.9885   26.0670 N   0  0  0  0  0  0  0  0  0  0  0  0
    8.8279  -13.9068   26.9935 C   0  0  1  0  0  0  0  0  0  0  0  0
    7.5825  -13.1448   27.3716 C   0  0  0  0  0  0  0  0  0  0  0  0
    6.5092  -12.8783   25.9171 S   0  0  0  0  0  0  0  0  0  0  0  0
    9.4415  -14.5004   28.2031 C   0  0  0  0  0  0  0  0  0  0  0  0
    9.8909  -13.7557   29.2825 O   0  0  0  0  0  0  0  0  0  0  0  0
    9.5638  -15.7473   28.2578 O   0  0  0  0  0  0  0  0  0  0  0  0
  2  1  1  6
  3  2  1  0
  4  6  1  0
  4  5  1  6
  4  2  1  0
  6  7  2  0
  8  9  1  0
  8  6  1  0
  9 15  1  0
 10 11  1  0
  9 10  1  6
 12 11  1  0
 13 14  1  0
 13 12  1  0
 15 17  1  0
 15 16  2  0
 17 18  1  0
 18 21  1  0
 18 19  1  1
 20 19  1  0
 21 23  2  0
 21 22  1  0
M  END
$$$$
