IRD.pdb
     RDKit          3D

 28 27  0  0  1  0  0  0  0  0999 V2000
   20.9058  -32.1103  -11.3099 C   0  0  0  0  0  0  0  0  0  0  0  0
   20.3648  -30.9460  -12.0791 C   0  0  0  0  0  0  0  0  0  0  0  0
   20.3134  -29.7308  -11.2026 C   0  0  2  0  0  0  0  0  0  0  0  0
   19.5179  -29.9853   -9.9756 C   0  0  0  0  0  0  0  0  0  0  0  0
   19.8122  -28.5859  -12.0628 C   0  0  2  0  0  0  0  0  0  0  0  0
   20.8136  -28.2968  -13.0771 N   0  0  0  0  0  0  0  0  0  0  0  0
   19.6811  -27.3741  -11.1970 C   0  0  0  0  0  0  0  0  0  0  0  0
   20.7400  -26.7751  -10.9069 O   0  0  0  0  0  0  0  0  0  0  0  0
   20.8312  -21.7405  -13.1674 N   0  0  0  0  0  0  0  0  0  0  0  0
   19.4170  -21.5887  -13.1450 C   0  0  0  0  0  0  0  0  0  0  0  0
   18.8645  -20.8275  -14.0298 N   0  0  0  0  0  0  0  0  0  0  0  0
   18.5763  -22.2203  -12.2176 N   0  0  0  0  0  0  0  0  0  0  0  0
   19.0995  -22.6747  -10.9519 C   0  0  0  0  0  0  0  0  0  0  0  0
   17.9185  -23.3174  -10.1964 C   0  0  0  0  0  0  0  0  0  0  0  0
   17.6370  -24.6771  -10.7338 C   0  0  0  0  0  0  0  0  0  0  0  0
   18.2519  -25.7614   -9.9209 C   0  0  2  0  0  0  0  0  0  0  0  0
   18.4174  -26.9638  -10.7552 N   0  0  0  0  0  0  0  0  0  0  0  0
   17.4492  -26.1302   -8.7608 C   0  0  0  0  0  0  0  0  0  0  0  0
   16.5557  -27.0365   -8.8858 O   0  0  0  0  0  0  0  0  0  0  0  0
   17.8274  -20.7136  -14.1089 N   0  0  0  0  0  0  0  0  0  0  0  0
   17.6273  -25.5262   -7.4927 C   0  0  1  0  0  0  0  0  0  0  0  0
   16.7682  -25.9286   -6.3940 C   0  0  0  0  0  0  0  0  0  0  0  0
   17.0692  -27.4227   -6.1906 C   0  0  0  0  0  0  0  0  0  0  0  0
   16.3498  -27.9411   -5.0263 O   0  0  0  0  0  0  0  0  0  0  0  0
   15.3673  -27.3216   -4.5900 C   0  0  0  0  0  0  0  0  0  0  0  0
   17.0681  -25.1307   -5.1982 O   0  0  0  0  0  0  0  0  0  0  0  0
   18.2218  -24.3287   -5.1783 O   0  0  0  0  0  0  0  0  0  0  0  0
   16.7959  -29.1298   -4.4365 O   0  0  0  0  0  0  0  0  0  0  0  0
  1  2  1  0
  3  4  1  1
  3  5  1  0
  3  2  1  0
  5  6  1  6
  7  5  1  0
  7 17  1  0
  8  7  2  0
  9 10  1  0
 10 11  2  0
 12 10  1  0
 12 13  1  0
 13 14  1  0
 16 15  1  6
 15 14  1  0
 16 17  1  0
 18 16  1  0
 19 18  2  0
 20 18  1  0
 21 22  1  1
 21 20  1  0
 23 27  1  0
 23 22  1  0
 24 23  2  0
 25 21  1  0
 26 25  1  0
 28 25  2  0
M  END
$$$$
