IRD.pdb
     RDKit          3D

 28 27  0  0  1  0  0  0  0  0999 V2000
   26.0741  -16.1339  -17.0814 C   0  0  0  0  0  0  0  0  0  0  0  0
   25.9488  -14.6430  -17.0458 C   0  0  0  0  0  0  0  0  0  0  0  0
   24.5564  -14.2356  -17.4239 C   0  0  2  0  0  0  0  0  0  0  0  0
   24.1544  -14.8334  -18.7218 C   0  0  0  0  0  0  0  0  0  0  0  0
   24.5111  -12.7198  -17.3775 C   0  0  2  0  0  0  0  0  0  0  0  0
   24.8473  -12.2882  -16.0300 N   0  0  0  0  0  0  0  0  0  0  0  0
   23.1075  -12.2860  -17.6554 C   0  0  0  0  0  0  0  0  0  0  0  0
   22.6479  -12.5642  -18.7849 O   0  0  0  0  0  0  0  0  0  0  0  0
   15.7025  -15.3274  -15.7574 N   0  0  0  0  0  0  0  0  0  0  0  0
   15.4495  -13.9430  -15.9650 C   0  0  0  0  0  0  0  0  0  0  0  0
   14.2289  -13.5246  -15.9122 N   0  0  0  0  0  0  0  0  0  0  0  0
   16.4492  -12.9944  -16.2228 N   0  0  0  0  0  0  0  0  0  0  0  0
   17.8363  -13.3165  -15.9895 C   0  0  0  0  0  0  0  0  0  0  0  0
   18.6534  -12.0969  -16.4620 C   0  0  0  0  0  0  0  0  0  0  0  0
   20.1112  -12.3577  -16.3085 C   0  0  0  0  0  0  0  0  0  0  0  0
   20.9579  -11.2699  -16.8690 C   0  0  2  0  0  0  0  0  0  0  0  0
   22.3785  -11.6056  -16.6726 N   0  0  0  0  0  0  0  0  0  0  0  0
   20.7142   -9.9763  -16.2417 C   0  0  0  0  0  0  0  0  0  0  0  0
   21.1554   -9.7654  -15.0601 O   0  0  0  0  0  0  0  0  0  0  0  0
   13.9699  -12.5197  -16.0456 N   0  0  0  0  0  0  0  0  0  0  0  0
   20.0113   -8.9364  -16.8969 C   0  0  1  0  0  0  0  0  0  0  0  0
   19.8184   -7.6735  -16.2076 C   0  0  0  0  0  0  0  0  0  0  0  0
   19.0174   -8.0362  -14.9462 C   0  0  0  0  0  0  0  0  0  0  0  0
   18.8219   -6.8572  -14.1015 O   0  0  0  0  0  0  0  0  0  0  0  0
   19.0957   -5.7329  -14.5493 C   0  0  0  0  0  0  0  0  0  0  0  0
   21.1173   -7.0669  -15.8893 O   0  0  0  0  0  0  0  0  0  0  0  0
   21.1581   -5.7600  -15.3744 O   0  0  0  0  0  0  0  0  0  0  0  0
   18.3275   -7.0359  -12.8040 O   0  0  0  0  0  0  0  0  0  0  0  0
  1  2  1  0
  3  4  1  6
  3  5  1  0
  3  2  1  0
  5  6  1  1
  7  5  1  0
  7 17  1  0
  8  7  2  0
  9 10  1  0
 10 11  2  0
 12 10  1  0
 12 13  1  0
 13 14  1  0
 16 15  1  1
 15 14  1  0
 16 17  1  0
 18 16  1  0
 19 18  2  0
 20 18  1  0
 21 22  1  6
 21 20  1  0
 23 27  1  0
 23 22  1  0
 24 23  2  0
 25 21  1  0
 26 25  1  0
 28 25  2  0
M  END
$$$$
