IRD.pdb
     RDKit          3D

 28 27  0  0  1  0  0  0  0  0999 V2000
   25.7857  -13.9158  -18.0303 C   0  0  0  0  0  0  0  0  0  0  0  0
   25.5942  -12.8495  -16.9978 C   0  0  0  0  0  0  0  0  0  0  0  0
   24.3656  -12.0485  -17.3088 C   0  0  2  0  0  0  0  0  0  0  0  0
   24.4041  -11.5202  -18.6954 C   0  0  0  0  0  0  0  0  0  0  0  0
   24.2401  -10.9929  -16.2263 C   0  0  2  0  0  0  0  0  0  0  0  0
   24.0705  -11.6615  -14.9459 N   0  0  0  0  0  0  0  0  0  0  0  0
   23.0013  -10.1985  -16.4903 C   0  0  0  0  0  0  0  0  0  0  0  0
   23.0147   -9.4573  -17.4977 O   0  0  0  0  0  0  0  0  0  0  0  0
   14.4039  -10.9957  -13.9848 N   0  0  0  0  0  0  0  0  0  0  0  0
   14.6611   -9.7005  -14.5136 C   0  0  0  0  0  0  0  0  0  0  0  0
   13.6761   -8.8725  -14.6231 N   0  0  0  0  0  0  0  0  0  0  0  0
   15.9270   -9.2597  -14.9245 N   0  0  0  0  0  0  0  0  0  0  0  0
   17.0639  -10.1458  -14.8573 C   0  0  0  0  0  0  0  0  0  0  0  0
   18.2758   -9.3411  -15.3693 C   0  0  0  0  0  0  0  0  0  0  0  0
   19.5190  -10.1543  -15.2681 C   0  0  0  0  0  0  0  0  0  0  0  0
   20.7212   -9.4433  -15.7815 C   0  0  2  0  0  0  0  0  0  0  0  0
   21.9032  -10.3086  -15.6287 N   0  0  0  0  0  0  0  0  0  0  0  0
   20.9889   -8.1939  -15.0788 C   0  0  0  0  0  0  0  0  0  0  0  0
   21.3626   -8.2359  -13.8566 O   0  0  0  0  0  0  0  0  0  0  0  0
   13.7997   -7.8884  -14.9564 N   0  0  0  0  0  0  0  0  0  0  0  0
   20.8581   -6.9299  -15.7032 C   0  0  2  0  0  0  0  0  0  0  0  0
   21.0626   -5.7295  -14.9130 C   0  0  0  0  0  0  0  0  0  0  0  0
   21.8959   -4.8054  -15.8163 C   0  0  0  0  0  0  0  0  0  0  0  0
   22.1576   -3.5294  -15.1491 O   0  0  0  0  0  0  0  0  0  0  0  0
   22.2191   -2.4892  -15.8228 C   0  0  0  0  0  0  0  0  0  0  0  0
   19.7695   -5.1367  -14.5486 O   0  0  0  0  0  0  0  0  0  0  0  0
   18.5843   -5.8157  -14.8789 O   0  0  0  0  0  0  0  0  0  0  0  0
   22.3315   -3.5218  -13.7599 O   0  0  0  0  0  0  0  0  0  0  0  0
  1  2  1  0
  3  4  1  6
  3  5  1  0
  3  2  1  0
  5  6  1  1
  7  5  1  0
  7 17  1  0
  8  7  2  0
  9 10  1  0
 10 11  2  0
 12 10  1  0
 12 13  1  0
 13 14  1  0
 16 15  1  1
 15 14  1  0
 16 17  1  0
 18 16  1  0
 19 18  2  0
 20 18  1  0
 21 22  1  6
 21 20  1  0
 23 27  1  0
 23 22  1  0
 24 23  2  0
 25 21  1  0
 26 25  1  0
 28 25  2  0
M  END
$$$$
