IRD.pdb
     RDKit          3D

 28 27  0  0  1  0  0  0  0  0999 V2000
   14.6103   -5.1173   -7.1174 C   0  0  0  0  0  0  0  0  0  0  0  0
   14.0477   -6.0637   -8.1311 C   0  0  0  0  0  0  0  0  0  0  0  0
   15.1273   -6.9699   -8.6421 C   0  0  2  0  0  0  0  0  0  0  0  0
   16.2813   -6.1935   -9.1605 C   0  0  0  0  0  0  0  0  0  0  0  0
   14.4814   -7.9033   -9.6488 C   0  0  2  0  0  0  0  0  0  0  0  0
   13.4554   -8.6781   -8.9690 N   0  0  0  0  0  0  0  0  0  0  0  0
   15.5234   -8.8590  -10.1348 C   0  0  0  0  0  0  0  0  0  0  0  0
   15.3311  -10.0704   -9.8900 O   0  0  0  0  0  0  0  0  0  0  0  0
   15.9545  -15.0444  -13.7864 N   0  0  0  0  0  0  0  0  0  0  0  0
   15.4184  -13.8659  -13.1969 C   0  0  0  0  0  0  0  0  0  0  0  0
   14.2390  -13.9200  -12.6737 N   0  0  0  0  0  0  0  0  0  0  0  0
   16.0952  -12.6393  -13.1442 N   0  0  0  0  0  0  0  0  0  0  0  0
   16.0930  -11.7567  -14.2858 C   0  0  0  0  0  0  0  0  0  0  0  0
   16.9451  -10.5326  -13.8934 C   0  0  0  0  0  0  0  0  0  0  0  0
   16.3274   -9.8176  -12.7427 C   0  0  0  0  0  0  0  0  0  0  0  0
   17.3327   -9.2074  -11.8309 C   0  0  2  0  0  0  0  0  0  0  0  0
   16.6430   -8.3804  -10.8260 N   0  0  0  0  0  0  0  0  0  0  0  0
   18.2921   -8.3573  -12.5261 C   0  0  0  0  0  0  0  0  0  0  0  0
   17.8929   -7.6460  -13.5110 O   0  0  0  0  0  0  0  0  0  0  0  0
   13.8603  -13.1659  -12.0550 N   0  0  0  0  0  0  0  0  0  0  0  0
   19.6538   -8.2826  -12.1457 C   0  0  2  0  0  0  0  0  0  0  0  0
   20.5600   -7.4626  -12.9290 C   0  0  0  0  0  0  0  0  0  0  0  0
   20.5004   -8.0591  -14.3450 C   0  0  0  0  0  0  0  0  0  0  0  0
   21.3872   -7.3283  -15.2513 O   0  0  0  0  0  0  0  0  0  0  0  0
   22.5569   -7.0980  -14.9074 C   0  0  0  0  0  0  0  0  0  0  0  0
   20.1296   -6.0589  -12.8958 O   0  0  0  0  0  0  0  0  0  0  0  0
   20.9443   -5.0758  -13.4826 O   0  0  0  0  0  0  0  0  0  0  0  0
   20.8842   -6.9088  -16.4887 O   0  0  0  0  0  0  0  0  0  0  0  0
  1  2  1  0
  3  4  1  6
  3  5  1  0
  3  2  1  0
  5  6  1  1
  7  5  1  0
  7 17  1  0
  8  7  2  0
  9 10  1  0
 10 11  2  0
 12 10  1  0
 12 13  1  0
 13 14  1  0
 16 15  1  6
 15 14  1  0
 16 17  1  0
 18 16  1  0
 19 18  2  0
 20 18  1  0
 21 22  1  1
 21 20  1  0
 23 27  1  0
 23 22  1  0
 24 23  2  0
 25 21  1  0
 26 25  1  0
 28 25  2  0
M  END
$$$$
