IRD.pdb
     RDKit          3D

 28 27  0  0  1  0  0  0  0  0999 V2000
   25.6401  -16.4797  -19.1595 C   0  0  0  0  0  0  0  0  0  0  0  0
   26.4858  -17.6754  -18.8518 C   0  0  0  0  0  0  0  0  0  0  0  0
   27.5380  -17.3151  -17.8464 C   0  0  2  0  0  0  0  0  0  0  0  0
   28.3309  -16.1427  -18.2937 C   0  0  0  0  0  0  0  0  0  0  0  0
   28.3476  -18.5711  -17.5840 C   0  0  2  0  0  0  0  0  0  0  0  0
   28.7843  -19.1148  -18.8603 N   0  0  0  0  0  0  0  0  0  0  0  0
   27.4488  -19.5807  -16.9451 C   0  0  0  0  0  0  0  0  0  0  0  0
   26.7841  -20.3073  -17.7162 O   0  0  0  0  0  0  0  0  0  0  0  0
   26.1095  -19.7766   -9.1366 N   0  0  0  0  0  0  0  0  0  0  0  0
   25.0506  -20.6580   -9.4910 C   0  0  0  0  0  0  0  0  0  0  0  0
   23.9059  -20.5107   -8.9117 N   0  0  0  0  0  0  0  0  0  0  0  0
   25.1697  -21.6836  -10.4394 N   0  0  0  0  0  0  0  0  0  0  0  0
   26.3585  -21.7911  -11.2504 C   0  0  0  0  0  0  0  0  0  0  0  0
   25.9005  -21.6570  -12.7169 C   0  0  0  0  0  0  0  0  0  0  0  0
   26.7674  -20.6899  -13.4450 C   0  0  0  0  0  0  0  0  0  0  0  0
   26.4211  -20.5717  -14.8875 C   0  0  2  0  0  0  0  0  0  0  0  0
   27.3846  -19.6759  -15.5496 N   0  0  0  0  0  0  0  0  0  0  0  0
   25.0846  -20.0334  -15.1113 C   0  0  0  0  0  0  0  0  0  0  0  0
   24.9472  -18.7805  -15.3274 O   0  0  0  0  0  0  0  0  0  0  0  0
   23.0971  -21.1508   -9.0876 N   0  0  0  0  0  0  0  0  0  0  0  0
   23.9279  -20.8499  -15.1067 C   0  0  2  0  0  0  0  0  0  0  0  0
   22.6270  -20.2292  -15.2791 C   0  0  0  0  0  0  0  0  0  0  0  0
   22.6521  -19.6615  -16.7079 C   0  0  0  0  0  0  0  0  0  0  0  0
   21.3483  -19.1000  -17.0638 O   0  0  0  0  0  0  0  0  0  0  0  0
   20.4264  -19.1226  -16.2337 C   0  0  0  0  0  0  0  0  0  0  0  0
   21.5627  -21.2236  -15.0919 O   0  0  0  0  0  0  0  0  0  0  0  0
   20.2622  -20.7892  -14.7839 O   0  0  0  0  0  0  0  0  0  0  0  0
   21.1806  -18.5497  -18.3402 O   0  0  0  0  0  0  0  0  0  0  0  0
  1  2  1  0
  3  4  1  6
  3  5  1  0
  3  2  1  0
  5  6  1  6
  7  5  1  0
  7 17  1  0
  8  7  2  0
  9 10  1  0
 10 11  2  0
 12 10  1  0
 12 13  1  0
 13 14  1  0
 16 15  1  1
 15 14  1  0
 16 17  1  0
 18 16  1  0
 19 18  2  0
 20 18  1  0
 21 22  1  6
 21 20  1  0
 23 27  1  0
 23 22  1  0
 24 23  2  0
 25 21  1  0
 26 25  1  0
 28 25  2  0
M  END
$$$$
