IRD.pdb
     RDKit          3D

 28 27  0  0  1  0  0  0  0  0999 V2000
   28.4346  -21.0069  -14.5262 C   0  0  0  0  0  0  0  0  0  0  0  0
   27.2512  -21.0288  -13.6102 C   0  0  0  0  0  0  0  0  0  0  0  0
   25.9836  -21.0655  -14.4099 C   0  0  2  0  0  0  0  0  0  0  0  0
   25.9244  -19.9410  -15.3769 C   0  0  0  0  0  0  0  0  0  0  0  0
   24.8364  -21.1162  -13.4182 C   0  0  2  0  0  0  0  0  0  0  0  0
   24.9904  -22.3041  -12.5934 N   0  0  0  0  0  0  0  0  0  0  0  0
   23.5616  -21.2598  -14.1861 C   0  0  0  0  0  0  0  0  0  0  0  0
   23.1850  -20.2618  -14.8391 O   0  0  0  0  0  0  0  0  0  0  0  0
   22.0692  -28.2172  -13.1554 N   0  0  0  0  0  0  0  0  0  0  0  0
   21.2720  -27.5940  -12.1556 C   0  0  0  0  0  0  0  0  0  0  0  0
   21.4138  -27.9728  -10.9292 N   0  0  0  0  0  0  0  0  0  0  0  0
   20.3360  -26.5837  -12.4177 N   0  0  0  0  0  0  0  0  0  0  0  0
   20.2083  -26.0362  -13.7467 C   0  0  0  0  0  0  0  0  0  0  0  0
   20.5720  -24.5413  -13.6401 C   0  0  0  0  0  0  0  0  0  0  0  0
   21.2109  -24.0714  -14.9003 C   0  0  0  0  0  0  0  0  0  0  0  0
   21.5773  -22.6296  -14.8629 C   0  0  2  0  0  0  0  0  0  0  0  0
   22.8559  -22.4685  -14.1497 N   0  0  0  0  0  0  0  0  0  0  0  0
   20.5824  -21.8051  -14.1871 C   0  0  0  0  0  0  0  0  0  0  0  0
   20.6703  -21.6360  -12.9227 O   0  0  0  0  0  0  0  0  0  0  0  0
   20.7683  -27.6662  -10.1649 N   0  0  0  0  0  0  0  0  0  0  0  0
   19.5219  -21.1747  -14.8818 C   0  0  2  0  0  0  0  0  0  0  0  0
   18.6129  -20.3132  -14.1478 C   0  0  0  0  0  0  0  0  0  0  0  0
   18.4224  -19.0854  -15.0536 C   0  0  0  0  0  0  0  0  0  0  0  0
   17.3704  -18.2140  -14.5285 O   0  0  0  0  0  0  0  0  0  0  0  0
   16.8787  -18.4532  -13.4147 C   0  0  0  0  0  0  0  0  0  0  0  0
   17.3501  -21.0155  -13.8860 O   0  0  0  0  0  0  0  0  0  0  0  0
   16.8622  -21.9298  -14.8351 O   0  0  0  0  0  0  0  0  0  0  0  0
   16.9484  -17.1284  -15.3053 O   0  0  0  0  0  0  0  0  0  0  0  0
  1  2  1  0
  3  4  1  1
  3  5  1  0
  3  2  1  0
  5  6  1  1
  7  5  1  0
  7 17  1  0
  8  7  2  0
  9 10  1  0
 10 11  2  0
 12 10  1  0
 12 13  1  0
 13 14  1  0
 16 15  1  1
 15 14  1  0
 16 17  1  0
 18 16  1  0
 19 18  2  0
 20 18  1  0
 21 22  1  6
 21 20  1  0
 23 27  1  0
 23 22  1  0
 24 23  2  0
 25 21  1  0
 26 25  1  0
 28 25  2  0
M  END
$$$$
