IRD.pdb
     RDKit          3D

 28 27  0  0  1  0  0  0  0  0999 V2000
   20.5939  -30.5319  -13.0352 C   0  0  0  0  0  0  0  0  0  0  0  0
   19.9587  -29.1892  -13.2181 C   0  0  0  0  0  0  0  0  0  0  0  0
   20.1497  -28.3586  -11.9846 C   0  0  2  0  0  0  0  0  0  0  0  0
   19.5686  -29.0243  -10.7920 C   0  0  0  0  0  0  0  0  0  0  0  0
   19.5860  -26.9827  -12.2863 C   0  0  2  0  0  0  0  0  0  0  0  0
   20.3437  -26.4031  -13.3841 N   0  0  0  0  0  0  0  0  0  0  0  0
   19.7962  -26.1184  -11.0846 C   0  0  0  0  0  0  0  0  0  0  0  0
   20.8193  -25.3989  -11.0834 O   0  0  0  0  0  0  0  0  0  0  0  0
   18.5055  -21.3055  -13.8401 N   0  0  0  0  0  0  0  0  0  0  0  0
   17.2686  -21.9925  -13.6932 C   0  0  0  0  0  0  0  0  0  0  0  0
   16.5224  -22.1484  -14.7356 N   0  0  0  0  0  0  0  0  0  0  0  0
   16.8045  -22.5186  -12.4794 N   0  0  0  0  0  0  0  0  0  0  0  0
   17.5948  -22.3872  -11.2792 C   0  0  0  0  0  0  0  0  0  0  0  0
   17.9081  -23.8203  -10.8034 C   0  0  0  0  0  0  0  0  0  0  0  0
   18.6777  -23.7876   -9.5292 C   0  0  0  0  0  0  0  0  0  0  0  0
   18.9096  -25.1412   -8.9560 C   0  0  2  0  0  0  0  0  0  0  0  0
   18.8695  -26.1426  -10.0353 N   0  0  0  0  0  0  0  0  0  0  0  0
   17.9129  -25.5178   -7.9604 C   0  0  0  0  0  0  0  0  0  0  0  0
   16.7901  -25.9882   -8.3520 O   0  0  0  0  0  0  0  0  0  0  0  0
   15.6038  -22.6485  -14.7031 N   0  0  0  0  0  0  0  0  0  0  0  0
   18.1447  -25.3898   -6.5696 C   0  0  1  0  0  0  0  0  0  0  0  0
   17.1270  -25.8472   -5.6410 C   0  0  0  0  0  0  0  0  0  0  0  0
   17.8647  -26.8127   -4.6986 C   0  0  0  0  0  0  0  0  0  0  0  0
   16.9401  -27.3876   -3.7206 O   0  0  0  0  0  0  0  0  0  0  0  0
   15.7376  -27.0850   -3.7657 C   0  0  0  0  0  0  0  0  0  0  0  0
   16.5440  -24.7049   -4.9256 O   0  0  0  0  0  0  0  0  0  0  0  0
   17.0648  -23.4181   -5.1445 O   0  0  0  0  0  0  0  0  0  0  0  0
   17.4451  -28.2687   -2.7570 O   0  0  0  0  0  0  0  0  0  0  0  0
  1  2  1  0
  3  4  1  1
  3  5  1  0
  3  2  1  0
  5  6  1  6
  7  5  1  0
  7 17  1  0
  8  7  2  0
  9 10  1  0
 10 11  2  0
 12 10  1  0
 12 13  1  0
 13 14  1  0
 16 15  1  6
 15 14  1  0
 16 17  1  0
 18 16  1  0
 19 18  2  0
 20 18  1  0
 21 22  1  1
 21 20  1  0
 23 27  1  0
 23 22  1  0
 24 23  2  0
 25 21  1  0
 26 25  1  0
 28 25  2  0
M  END
$$$$
