IRD.pdb
     RDKit          3D

 28 27  0  0  1  0  0  0  0  0999 V2000
   16.3340  -30.3285   -2.0237 C   0  0  0  0  0  0  0  0  0  0  0  0
   17.5490  -29.4941   -2.2832 C   0  0  0  0  0  0  0  0  0  0  0  0
   17.1688  -28.2529   -3.0333 C   0  0  2  0  0  0  0  0  0  0  0  0
   16.3528  -28.5760   -4.2304 C   0  0  0  0  0  0  0  0  0  0  0  0
   18.4535  -27.4988   -3.3206 C   0  0  2  0  0  0  0  0  0  0  0  0
   18.9957  -27.0126   -2.0618 N   0  0  0  0  0  0  0  0  0  0  0  0
   18.1180  -26.3077   -4.1597 C   0  0  0  0  0  0  0  0  0  0  0  0
   17.4755  -25.3914   -3.6011 O   0  0  0  0  0  0  0  0  0  0  0  0
   20.5605  -25.0533  -12.4516 N   0  0  0  0  0  0  0  0  0  0  0  0
   19.7560  -25.9596  -11.7068 C   0  0  0  0  0  0  0  0  0  0  0  0
   19.6114  -27.1637  -12.1507 N   0  0  0  0  0  0  0  0  0  0  0  0
   19.1062  -25.6280  -10.5095 N   0  0  0  0  0  0  0  0  0  0  0  0
   19.2619  -24.3127   -9.9367 C   0  0  0  0  0  0  0  0  0  0  0  0
   18.3574  -24.2701   -8.6883 C   0  0  0  0  0  0  0  0  0  0  0  0
   18.7928  -25.2920   -7.6968 C   0  0  0  0  0  0  0  0  0  0  0  0
   18.0924  -25.1682   -6.3897 C   0  0  2  0  0  0  0  0  0  0  0  0
   18.5223  -26.2598   -5.4993 N   0  0  0  0  0  0  0  0  0  0  0  0
   16.6409  -25.2369   -6.5112 C   0  0  0  0  0  0  0  0  0  0  0  0
   16.0638  -26.3754   -6.4343 O   0  0  0  0  0  0  0  0  0  0  0  0
   18.9730  -27.8593  -11.6996 N   0  0  0  0  0  0  0  0  0  0  0  0
   15.8409  -24.0847   -6.7040 C   0  0  1  0  0  0  0  0  0  0  0  0
   14.3978  -24.2308   -6.7614 C   0  0  0  0  0  0  0  0  0  0  0  0
   13.9371  -24.1299   -5.2979 C   0  0  0  0  0  0  0  0  0  0  0  0
   12.4764  -24.1595   -5.2128 O   0  0  0  0  0  0  0  0  0  0  0  0
   11.8060  -24.2617   -6.2519 C   0  0  0  0  0  0  0  0  0  0  0  0
   13.8155  -23.1785   -7.6041 O   0  0  0  0  0  0  0  0  0  0  0  0
   12.5202  -23.3499   -8.1214 O   0  0  0  0  0  0  0  0  0  0  0  0
   11.8759  -24.0715   -3.9511 O   0  0  0  0  0  0  0  0  0  0  0  0
  1  2  1  0
  3  4  1  6
  3  5  1  0
  3  2  1  0
  5  6  1  1
  7  5  1  0
  7 17  1  0
  8  7  2  0
  9 10  1  0
 10 11  2  0
 12 10  1  0
 12 13  1  0
 13 14  1  0
 16 15  1  6
 15 14  1  0
 16 17  1  0
 18 16  1  0
 19 18  2  0
 20 18  1  0
 21 22  1  6
 21 20  1  0
 23 27  1  0
 23 22  1  0
 24 23  2  0
 25 21  1  0
 26 25  1  0
 28 25  2  0
M  END
$$$$
