IRD.pdb
     RDKit          3D

 28 27  0  0  1  0  0  0  0  0999 V2000
   23.8267  -12.5269  -14.5991 C   0  0  0  0  0  0  0  0  0  0  0  0
   24.0147  -11.7308  -15.8524 C   0  0  0  0  0  0  0  0  0  0  0  0
   23.0349  -10.5967  -15.8920 C   0  0  2  0  0  0  0  0  0  0  0  0
   23.0092   -9.8622  -14.6023 C   0  0  0  0  0  0  0  0  0  0  0  0
   21.7015  -11.1789  -16.3221 C   0  0  2  0  0  0  0  0  0  0  0  0
   21.9035  -11.9453  -17.5416 N   0  0  0  0  0  0  0  0  0  0  0  0
   20.7803  -10.0467  -16.6458 C   0  0  0  0  0  0  0  0  0  0  0  0
   21.1286   -9.2896  -17.5785 O   0  0  0  0  0  0  0  0  0  0  0  0
   14.9118  -12.6657  -14.7965 N   0  0  0  0  0  0  0  0  0  0  0  0
   14.9474  -12.8567  -16.2057 C   0  0  0  0  0  0  0  0  0  0  0  0
   14.7815  -14.0500  -16.6705 N   0  0  0  0  0  0  0  0  0  0  0  0
   15.1497  -11.8231  -17.1310 N   0  0  0  0  0  0  0  0  0  0  0  0
   15.3127  -10.4624  -16.6789 C   0  0  0  0  0  0  0  0  0  0  0  0
   16.7753  -10.0751  -16.9774 C   0  0  0  0  0  0  0  0  0  0  0  0
   17.2920   -9.1520  -15.9297 C   0  0  0  0  0  0  0  0  0  0  0  0
   18.7011   -8.7358  -16.1661 C   0  0  2  0  0  0  0  0  0  0  0  0
   19.5965   -9.8784  -15.9173 N   0  0  0  0  0  0  0  0  0  0  0  0
   19.1252   -7.6401  -15.3025 C   0  0  0  0  0  0  0  0  0  0  0  0
   19.5477   -7.9045  -14.1249 O   0  0  0  0  0  0  0  0  0  0  0  0
   14.7560  -14.2586  -17.6956 N   0  0  0  0  0  0  0  0  0  0  0  0
   19.0946   -6.2883  -15.7226 C   0  0  1  0  0  0  0  0  0  0  0  0
   19.6180   -5.2638  -14.8374 C   0  0  0  0  0  0  0  0  0  0  0  0
   21.1251   -5.5560  -14.7509 C   0  0  0  0  0  0  0  0  0  0  0  0
   21.8088   -4.5198  -13.9757 O   0  0  0  0  0  0  0  0  0  0  0  0
   21.1426   -3.6294  -13.4254 C   0  0  0  0  0  0  0  0  0  0  0  0
   19.3382   -3.9303  -15.3851 O   0  0  0  0  0  0  0  0  0  0  0  0
   19.1119   -2.8588  -14.5044 O   0  0  0  0  0  0  0  0  0  0  0  0
   23.2046   -4.5663  -13.8779 O   0  0  0  0  0  0  0  0  0  0  0  0
  1  2  1  0
  3  4  1  1
  3  5  1  0
  3  2  1  0
  5  6  1  6
  7  5  1  0
  7 17  1  0
  8  7  2  0
  9 10  1  0
 10 11  2  0
 12 10  1  0
 12 13  1  0
 13 14  1  0
 16 15  1  1
 15 14  1  0
 16 17  1  0
 18 16  1  0
 19 18  2  0
 20 18  1  0
 21 22  1  1
 21 20  1  0
 23 27  1  0
 23 22  1  0
 24 23  2  0
 25 21  1  0
 26 25  1  0
 28 25  2  0
M  END
$$$$
