IRD.pdb
     RDKit          3D

 28 27  0  0  1  0  0  0  0  0999 V2000
   27.0106  -20.4741   -7.5539 C   0  0  0  0  0  0  0  0  0  0  0  0
   25.9321  -20.8989   -8.5005 C   0  0  0  0  0  0  0  0  0  0  0  0
   26.0912  -20.1898   -9.8118 C   0  0  2  0  0  0  0  0  0  0  0  0
   26.1136  -18.7170   -9.6281 C   0  0  0  0  0  0  0  0  0  0  0  0
   24.9958  -20.7026  -10.7278 C   0  0  2  0  0  0  0  0  0  0  0  0
   25.0425  -22.1562  -10.7356 N   0  0  0  0  0  0  0  0  0  0  0  0
   25.2899  -20.2322  -12.1161 C   0  0  0  0  0  0  0  0  0  0  0  0
   25.3350  -18.9946  -12.2910 O   0  0  0  0  0  0  0  0  0  0  0  0
   30.7227  -23.3909  -15.3372 N   0  0  0  0  0  0  0  0  0  0  0  0
   29.5511  -23.6053  -16.1150 C   0  0  0  0  0  0  0  0  0  0  0  0
   29.1819  -24.8200  -16.3514 N   0  0  0  0  0  0  0  0  0  0  0  0
   28.7626  -22.5737  -16.6438 N   0  0  0  0  0  0  0  0  0  0  0  0
   28.9458  -21.2143  -16.1956 C   0  0  0  0  0  0  0  0  0  0  0  0
   28.0596  -21.0434  -14.9451 C   0  0  0  0  0  0  0  0  0  0  0  0
   26.6850  -21.5507  -15.2097 C   0  0  0  0  0  0  0  0  0  0  0  0
   25.6289  -20.7400  -14.5449 C   0  0  2  0  0  0  0  0  0  0  0  0
   25.4990  -21.1637  -13.1403 N   0  0  0  0  0  0  0  0  0  0  0  0
   24.3215  -20.8783  -15.1756 C   0  0  0  0  0  0  0  0  0  0  0  0
   23.5751  -21.8641  -14.8493 O   0  0  0  0  0  0  0  0  0  0  0  0
   28.3526  -25.0529  -16.9455 N   0  0  0  0  0  0  0  0  0  0  0  0
   23.8406  -19.9540  -16.1342 C   0  0  1  0  0  0  0  0  0  0  0  0
   22.4080  -19.8192  -16.3258 C   0  0  0  0  0  0  0  0  0  0  0  0
   21.8796  -19.3132  -14.9734 C   0  0  0  0  0  0  0  0  0  0  0  0
   20.4391  -19.0643  -15.0418 O   0  0  0  0  0  0  0  0  0  0  0  0
   19.6532  -20.0244  -15.0512 C   0  0  0  0  0  0  0  0  0  0  0  0
   22.1297  -18.8809  -17.4207 O   0  0  0  0  0  0  0  0  0  0  0  0
   20.9963  -19.0818  -18.2270 O   0  0  0  0  0  0  0  0  0  0  0  0
   19.9888  -17.7397  -15.0944 O   0  0  0  0  0  0  0  0  0  0  0  0
  1  2  1  0
  3  4  1  1
  3  5  1  0
  3  2  1  0
  5  6  1  6
  7  5  1  0
  7 17  1  0
  8  7  2  0
  9 10  1  0
 10 11  2  0
 12 10  1  0
 12 13  1  0
 13 14  1  0
 16 15  1  6
 15 14  1  0
 16 17  1  0
 18 16  1  0
 19 18  2  0
 20 18  1  0
 21 22  1  6
 21 20  1  0
 23 27  1  0
 23 22  1  0
 24 23  2  0
 25 21  1  0
 26 25  1  0
 28 25  2  0
M  END
$$$$
