IRD.pdb
     RDKit          3D

 28 27  0  0  1  0  0  0  0  0999 V2000
   28.2477  -11.8450  -15.6571 C   0  0  0  0  0  0  0  0  0  0  0  0
   26.8915  -12.3003  -16.0968 C   0  0  0  0  0  0  0  0  0  0  0  0
   26.0412  -11.1164  -16.4477 C   0  0  2  0  0  0  0  0  0  0  0  0
   25.9668  -10.1540  -15.3202 C   0  0  0  0  0  0  0  0  0  0  0  0
   24.7029  -11.6564  -16.9160 C   0  0  2  0  0  0  0  0  0  0  0  0
   24.9441  -12.7008  -17.8990 N   0  0  0  0  0  0  0  0  0  0  0  0
   23.9672  -10.5500  -17.6015 C   0  0  0  0  0  0  0  0  0  0  0  0
   24.5193  -10.0467  -18.6046 O   0  0  0  0  0  0  0  0  0  0  0  0
   16.9706  -12.3120  -20.5052 N   0  0  0  0  0  0  0  0  0  0  0  0
   17.8232  -12.6293  -19.4116 C   0  0  0  0  0  0  0  0  0  0  0  0
   17.4862  -13.5991  -18.6284 N   0  0  0  0  0  0  0  0  0  0  0  0
   19.0181  -11.9528  -19.1284 N   0  0  0  0  0  0  0  0  0  0  0  0
   19.4629  -10.8739  -19.9772 C   0  0  0  0  0  0  0  0  0  0  0  0
   20.8434  -10.4395  -19.4444 C   0  0  0  0  0  0  0  0  0  0  0  0
   20.6864   -9.5389  -18.2692 C   0  0  0  0  0  0  0  0  0  0  0  0
   21.9846   -9.0274  -17.7521 C   0  0  2  0  0  0  0  0  0  0  0  0
   22.7244  -10.1290  -17.1131 N   0  0  0  0  0  0  0  0  0  0  0  0
   21.8274   -7.9644  -16.7664 C   0  0  0  0  0  0  0  0  0  0  0  0
   21.9243   -8.2498  -15.5236 O   0  0  0  0  0  0  0  0  0  0  0  0
   18.0719  -13.8974  -17.8142 N   0  0  0  0  0  0  0  0  0  0  0  0
   21.5783   -6.6201  -17.1343 C   0  0  1  0  0  0  0  0  0  0  0  0
   21.5376   -5.6027  -16.0997 C   0  0  0  0  0  0  0  0  0  0  0  0
   22.9403   -5.6302  -15.4704 C   0  0  0  0  0  0  0  0  0  0  0  0
   23.1425   -4.4657  -14.6073 O   0  0  0  0  0  0  0  0  0  0  0  0
   22.2928   -4.1885  -13.7466 C   0  0  0  0  0  0  0  0  0  0  0  0
   21.2144   -4.2960  -16.6868 O   0  0  0  0  0  0  0  0  0  0  0  0
   20.9899   -4.2007  -18.0708 O   0  0  0  0  0  0  0  0  0  0  0  0
   24.2980   -3.6945  -14.7807 O   0  0  0  0  0  0  0  0  0  0  0  0
  1  2  1  0
  3  4  1  1
  3  5  1  0
  3  2  1  0
  5  6  1  6
  7  5  1  0
  7 17  1  0
  8  7  2  0
  9 10  1  0
 10 11  2  0
 12 10  1  0
 12 13  1  0
 13 14  1  0
 16 15  1  1
 15 14  1  0
 16 17  1  0
 18 16  1  0
 19 18  2  0
 20 18  1  0
 21 22  1  6
 21 20  1  0
 23 27  1  0
 23 22  1  0
 24 23  2  0
 25 21  1  0
 26 25  1  0
 28 25  2  0
M  END
$$$$
