THN.pdb
     RDKit          3D

 26 26  0  0  1  0  0  0  0  0999 V2000
   27.2746  -22.1098  -10.7476 C   0  0  0  0  0  0  0  0  0  0  0  0
   26.2069  -21.6844  -11.7291 C   0  0  1  0  0  0  0  0  0  0  0  0
   25.0645  -22.4154  -11.4448 O   0  0  0  0  0  0  0  0  0  0  0  0
   25.9979  -20.2074  -11.5513 C   0  0  2  0  0  0  0  0  0  0  0  0
   25.5658  -19.9599  -10.1855 N   0  0  0  0  0  0  0  0  0  0  0  0
   25.0326  -19.6343  -12.5269 C   0  0  0  0  0  0  0  0  0  0  0  0
   23.9148  -19.2695  -12.0996 O   0  0  0  0  0  0  0  0  0  0  0  0
   25.3119  -19.4838  -13.8919 N   0  0  0  0  0  0  0  0  0  0  0  0
   24.3890  -19.0749  -14.8959 C   0  0  1  0  0  0  0  0  0  0  0  0
   25.0212  -18.7039  -16.2110 C   0  0  0  0  0  0  0  0  0  0  0  0
   25.8114  -17.4520  -16.0718 C   0  0  0  0  0  0  0  0  0  0  0  0
   25.8752  -16.5977  -14.9902 C   0  0  0  0  0  0  0  0  0  0  0  0
   26.7203  -15.5670  -15.2797 N   0  0  0  0  0  0  0  0  0  0  0  0
   27.1739  -15.7807  -16.5251 C   0  0  0  0  0  0  0  0  0  0  0  0
   26.6267  -16.9101  -16.9941 N   0  0  0  0  0  0  0  0  0  0  0  0
   23.4082  -20.1612  -15.1216 C   0  0  0  0  0  0  0  0  0  0  0  0
   23.8200  -21.3349  -15.2441 O   0  0  0  0  0  0  0  0  0  0  0  0
   19.4214  -19.5592  -13.3950 N   0  0  0  0  0  0  0  0  0  0  0  0
   20.0841  -20.7034  -12.8873 C   0  0  0  0  0  0  0  0  0  0  0  0
   19.8573  -21.0327  -11.6948 O   0  0  0  0  0  0  0  0  0  0  0  0
   21.0098  -21.4888  -13.7189 C   0  0  0  0  0  0  0  0  0  0  0  0
   21.0625  -20.9051  -15.1281 C   0  0  2  0  0  0  0  0  0  0  0  0
   22.0309  -19.8343  -15.1914 N   0  0  0  0  0  0  0  0  0  0  0  0
   19.7501  -20.3719  -15.5337 C   0  0  0  0  0  0  0  0  0  0  0  0
   19.5278  -19.0254  -15.8054 O   0  0  0  0  0  0  0  0  0  0  0  0
   18.7676  -21.1467  -15.6476 O   0  0  0  0  0  0  0  0  0  0  0  0
  2  1  1  1
  2  4  1  0
  3  2  1  0
  4  6  1  0
  4  5  1  1
  6  7  2  0
  8  6  1  0
  8  9  1  0
  9 10  1  6
 10 11  1  0
 11 15  1  0
 12 13  1  0
 12 11  2  0
 13 14  1  0
 14 15  2  0
 16 17  2  0
 16  9  1  0
 19 18  1  0
 19 20  2  0
 22 21  1  1
 21 19  1  0
 22 23  1  0
 23 16  1  0
 24 25  1  0
 24 22  1  0
 26 24  2  0
M  END
$$$$
