THN.pdb
     RDKit          3D

 26 26  0  0  1  0  0  0  0  0999 V2000
   25.7567  -13.0504  -17.5091 C   0  0  0  0  0  0  0  0  0  0  0  0
   24.3850  -12.4181  -17.5659 C   0  0  1  0  0  0  0  0  0  0  0  0
   23.4552  -13.4184  -17.3312 O   0  0  0  0  0  0  0  0  0  0  0  0
   24.3436  -11.3432  -16.5173 C   0  0  2  0  0  0  0  0  0  0  0  0
   24.6587  -11.9381  -15.2288 N   0  0  0  0  0  0  0  0  0  0  0  0
   23.0408  -10.6273  -16.4685 C   0  0  0  0  0  0  0  0  0  0  0  0
   22.6888   -9.9820  -17.4808 O   0  0  0  0  0  0  0  0  0  0  0  0
   22.1941  -10.6401  -15.3519 N   0  0  0  0  0  0  0  0  0  0  0  0
   20.9862   -9.9005  -15.2077 C   0  0  1  0  0  0  0  0  0  0  0  0
   19.9043  -10.6152  -14.4426 C   0  0  0  0  0  0  0  0  0  0  0  0
   19.2351  -11.6220  -15.3086 C   0  0  0  0  0  0  0  0  0  0  0  0
   19.4574  -11.8817  -16.6453 C   0  0  0  0  0  0  0  0  0  0  0  0
   18.6284  -12.8854  -17.0528 N   0  0  0  0  0  0  0  0  0  0  0  0
   17.9022  -13.2422  -15.9815 C   0  0  0  0  0  0  0  0  0  0  0  0
   18.2695  -12.4829  -14.9406 N   0  0  0  0  0  0  0  0  0  0  0  0
   21.2841   -8.6153  -14.5351 C   0  0  0  0  0  0  0  0  0  0  0  0
   22.2756   -8.5423  -13.7776 O   0  0  0  0  0  0  0  0  0  0  0  0
   23.1162   -3.5428  -15.2887 N   0  0  0  0  0  0  0  0  0  0  0  0
   22.6190   -4.5131  -14.3846 C   0  0  0  0  0  0  0  0  0  0  0  0
   22.5183   -4.1902  -13.1731 O   0  0  0  0  0  0  0  0  0  0  0  0
   22.2298   -5.8583  -14.8367 C   0  0  0  0  0  0  0  0  0  0  0  0
   20.8450   -6.2057  -14.2971 C   0  0  2  0  0  0  0  0  0  0  0  0
   20.4335   -7.5068  -14.7726 N   0  0  0  0  0  0  0  0  0  0  0  0
   19.8423   -5.2141  -14.7242 C   0  0  0  0  0  0  0  0  0  0  0  0
   19.4567   -4.1348  -13.9352 O   0  0  0  0  0  0  0  0  0  0  0  0
   19.2933   -5.3235  -15.8490 O   0  0  0  0  0  0  0  0  0  0  0  0
  2  1  1  1
  2  4  1  0
  3  2  1  0
  4  6  1  0
  4  5  1  1
  6  7  2  0
  8  6  1  0
  8  9  1  0
  9 10  1  1
 10 11  1  0
 11 15  1  0
 12 13  1  0
 12 11  2  0
 13 14  1  0
 14 15  2  0
 16 17  2  0
 16  9  1  0
 19 18  1  0
 19 20  2  0
 22 21  1  6
 21 19  1  0
 22 23  1  0
 23 16  1  0
 24 25  1  0
 24 22  1  0
 26 24  2  0
M  END
$$$$
