THN.pdb
     RDKit          3D

 26 26  0  0  1  0  0  0  0  0999 V2000
   26.0642  -12.2794  -15.6599 C   0  0  0  0  0  0  0  0  0  0  0  0
   27.2117  -12.6837  -16.5568 C   0  0  1  0  0  0  0  0  0  0  0  0
   27.8560  -13.7516  -15.9530 O   0  0  0  0  0  0  0  0  0  0  0  0
   26.6288  -13.0501  -17.8921 C   0  0  2  0  0  0  0  0  0  0  0  0
   27.7094  -13.4584  -18.7748 N   0  0  0  0  0  0  0  0  0  0  0  0
   25.8310  -11.9521  -18.5002 C   0  0  0  0  0  0  0  0  0  0  0  0
   26.4450  -11.0577  -19.1233 O   0  0  0  0  0  0  0  0  0  0  0  0
   24.4349  -11.8707  -18.4101 N   0  0  0  0  0  0  0  0  0  0  0  0
   23.6164  -10.8535  -18.9776 C   0  0  1  0  0  0  0  0  0  0  0  0
   22.7442  -11.3160  -20.1144 C   0  0  0  0  0  0  0  0  0  0  0  0
   23.5743  -11.6524  -21.3014 C   0  0  0  0  0  0  0  0  0  0  0  0
   23.8361  -10.8731  -22.4095 C   0  0  0  0  0  0  0  0  0  0  0  0
   24.6441  -11.5633  -23.2646 N   0  0  0  0  0  0  0  0  0  0  0  0
   24.8794  -12.7549  -22.6928 C   0  0  0  0  0  0  0  0  0  0  0  0
   24.2368  -12.8027  -21.5182 N   0  0  0  0  0  0  0  0  0  0  0  0
   22.7600  -10.2749  -17.9171 C   0  0  0  0  0  0  0  0  0  0  0  0
   22.4345  -10.9878  -16.9435 O   0  0  0  0  0  0  0  0  0  0  0  0
   20.3610   -7.0679  -14.8622 N   0  0  0  0  0  0  0  0  0  0  0  0
   21.6184   -7.6686  -14.6085 C   0  0  0  0  0  0  0  0  0  0  0  0
   22.0804   -7.5937  -13.4411 O   0  0  0  0  0  0  0  0  0  0  0  0
   22.3686   -8.3603  -15.6687 C   0  0  0  0  0  0  0  0  0  0  0  0
   21.5650   -8.3453  -16.9662 C   0  0  2  0  0  0  0  0  0  0  0  0
   22.3361   -8.9281  -18.0404 N   0  0  0  0  0  0  0  0  0  0  0  0
   21.1961   -6.9710  -17.3488 C   0  0  0  0  0  0  0  0  0  0  0  0
   21.5350   -6.4065  -18.5747 O   0  0  0  0  0  0  0  0  0  0  0  0
   20.5449   -6.2521  -16.5502 O   0  0  0  0  0  0  0  0  0  0  0  0
  2  1  1  1
  2  4  1  0
  3  2  1  0
  4  6  1  0
  4  5  1  6
  6  7  2  0
  8  6  1  0
  8  9  1  0
  9 10  1  6
 10 11  1  0
 11 15  1  0
 12 13  1  0
 12 11  2  0
 13 14  1  0
 14 15  2  0
 16 17  2  0
 16  9  1  0
 19 18  1  0
 19 20  2  0
 22 21  1  1
 21 19  1  0
 22 23  1  0
 23 16  1  0
 24 25  1  0
 24 22  1  0
 26 24  2  0
M  END
$$$$
