THN.pdb
     RDKit          3D

 26 26  0  0  1  0  0  0  0  0999 V2000
   22.2121  -25.3123  -18.5507 C   0  0  0  0  0  0  0  0  0  0  0  0
   23.1610  -24.2618  -19.0804 C   0  0  1  0  0  0  0  0  0  0  0  0
   23.2845  -24.4625  -20.4459 O   0  0  0  0  0  0  0  0  0  0  0  0
   22.5717  -22.9196  -18.7520 C   0  0  2  0  0  0  0  0  0  0  0  0
   23.0150  -21.9602  -19.7504 N   0  0  0  0  0  0  0  0  0  0  0  0
   22.9102  -22.4549  -17.3803 C   0  0  0  0  0  0  0  0  0  0  0  0
   22.5646  -23.1736  -16.4164 O   0  0  0  0  0  0  0  0  0  0  0  0
   23.5926  -21.2596  -17.1165 N   0  0  0  0  0  0  0  0  0  0  0  0
   23.8125  -20.6862  -15.8321 C   0  0  1  0  0  0  0  0  0  0  0  0
   25.0591  -19.8485  -15.7276 C   0  0  0  0  0  0  0  0  0  0  0  0
   26.2608  -20.6651  -16.0442 C   0  0  0  0  0  0  0  0  0  0  0  0
   26.3225  -22.0055  -16.3654 C   0  0  0  0  0  0  0  0  0  0  0  0
   27.6224  -22.3570  -16.5829 N   0  0  0  0  0  0  0  0  0  0  0  0
   28.3560  -21.2478  -16.3986 C   0  0  0  0  0  0  0  0  0  0  0  0
   27.5359  -20.2385  -16.0765 N   0  0  0  0  0  0  0  0  0  0  0  0
   22.6416  -19.8564  -15.4668 C   0  0  0  0  0  0  0  0  0  0  0  0
   22.5223  -18.7193  -15.9718 O   0  0  0  0  0  0  0  0  0  0  0  0
   17.2935  -18.9674  -16.0222 N   0  0  0  0  0  0  0  0  0  0  0  0
   18.4814  -18.6500  -15.3190 C   0  0  0  0  0  0  0  0  0  0  0  0
   18.4209  -17.7546  -14.4378 O   0  0  0  0  0  0  0  0  0  0  0  0
   19.7505  -19.3390  -15.6019 C   0  0  0  0  0  0  0  0  0  0  0  0
   20.4899  -19.6195  -14.2965 C   0  0  2  0  0  0  0  0  0  0  0  0
   21.6916  -20.3795  -14.5543 N   0  0  0  0  0  0  0  0  0  0  0  0
   19.6468  -20.3830  -13.3598 C   0  0  0  0  0  0  0  0  0  0  0  0
   20.0367  -21.5971  -12.8030 O   0  0  0  0  0  0  0  0  0  0  0  0
   18.5177  -19.9408  -13.0307 O   0  0  0  0  0  0  0  0  0  0  0  0
  2  1  1  6
  2  4  1  0
  3  2  1  0
  4  6  1  0
  4  5  1  6
  6  7  2  0
  8  6  1  0
  8  9  1  0
  9 10  1  6
 10 11  1  0
 11 15  1  0
 12 13  1  0
 12 11  2  0
 13 14  1  0
 14 15  2  0
 16 17  2  0
 16  9  1  0
 19 18  1  0
 19 20  2  0
 22 21  1  6
 21 19  1  0
 22 23  1  0
 23 16  1  0
 24 25  1  0
 24 22  1  0
 26 24  2  0
M  END
$$$$
