THN.pdb
     RDKit          3D

 26 26  0  0  1  0  0  0  0  0999 V2000
   23.0598   -7.7306  -17.7682 C   0  0  0  0  0  0  0  0  0  0  0  0
   21.9297   -8.6768  -18.1030 C   0  0  1  0  0  0  0  0  0  0  0  0
   22.4070   -9.5818  -19.0375 O   0  0  0  0  0  0  0  0  0  0  0  0
   21.5111   -9.3446  -16.8241 C   0  0  2  0  0  0  0  0  0  0  0  0
   20.5920  -10.4251  -17.1429 N   0  0  0  0  0  0  0  0  0  0  0  0
   20.9053   -8.4019  -15.8461 C   0  0  0  0  0  0  0  0  0  0  0  0
   19.8907   -7.7617  -16.2009 O   0  0  0  0  0  0  0  0  0  0  0  0
   21.4117   -8.1971  -14.5556 N   0  0  0  0  0  0  0  0  0  0  0  0
   20.8538   -7.3436  -13.5622 C   0  0  1  0  0  0  0  0  0  0  0  0
   21.2323   -7.6997  -12.1491 C   0  0  0  0  0  0  0  0  0  0  0  0
   20.5462   -6.7985  -11.1856 C   0  0  0  0  0  0  0  0  0  0  0  0
   21.0007   -5.6076  -10.6573 C   0  0  0  0  0  0  0  0  0  0  0  0
   20.0581   -5.1017   -9.8111 N   0  0  0  0  0  0  0  0  0  0  0  0
   19.0331   -5.9688   -9.8156 C   0  0  0  0  0  0  0  0  0  0  0  0
   19.3308   -6.9821  -10.6399 N   0  0  0  0  0  0  0  0  0  0  0  0
   21.2685   -5.9485  -13.8357 C   0  0  0  0  0  0  0  0  0  0  0  0
   22.4403   -5.7259  -14.2091 O   0  0  0  0  0  0  0  0  0  0  0  0
   20.5402   -2.1947  -17.7106 N   0  0  0  0  0  0  0  0  0  0  0  0
   21.0410   -2.5071  -16.4230 C   0  0  0  0  0  0  0  0  0  0  0  0
   21.7166   -1.6296  -15.8267 O   0  0  0  0  0  0  0  0  0  0  0  0
   20.7854   -3.8125  -15.7938 C   0  0  0  0  0  0  0  0  0  0  0  0
   20.5757   -3.6319  -14.2928 C   0  0  2  0  0  0  0  0  0  0  0  0
   20.3211   -4.9083  -13.6650 N   0  0  0  0  0  0  0  0  0  0  0  0
   19.4352   -2.7406  -14.0174 C   0  0  0  0  0  0  0  0  0  0  0  0
   19.5848   -1.4245  -13.5912 O   0  0  0  0  0  0  0  0  0  0  0  0
   18.2610   -3.1621  -14.1660 O   0  0  0  0  0  0  0  0  0  0  0  0
  2  1  1  1
  2  4  1  0
  3  2  1  0
  4  6  1  0
  4  5  1  6
  6  7  2  0
  8  6  1  0
  8  9  1  0
  9 10  1  1
 10 11  1  0
 11 15  1  0
 12 13  1  0
 12 11  2  0
 13 14  1  0
 14 15  2  0
 16 17  2  0
 16  9  1  0
 19 18  1  0
 19 20  2  0
 22 21  1  6
 21 19  1  0
 22 23  1  0
 23 16  1  0
 24 25  1  0
 24 22  1  0
 26 24  2  0
M  END
$$$$
