THN.pdb
     RDKit          3D

 26 26  0  0  1  0  0  0  0  0999 V2000
   21.9869   -9.1251  -21.4365 C   0  0  0  0  0  0  0  0  0  0  0  0
   21.2769   -8.4358  -20.2940 C   0  0  1  0  0  0  0  0  0  0  0  0
   20.1386   -7.8381  -20.8108 O   0  0  0  0  0  0  0  0  0  0  0  0
   20.9548   -9.4853  -19.2685 C   0  0  2  0  0  0  0  0  0  0  0  0
   19.9797  -10.4037  -19.8336 N   0  0  0  0  0  0  0  0  0  0  0  0
   20.4665   -8.9145  -17.9848 C   0  0  0  0  0  0  0  0  0  0  0  0
   19.4455   -8.1922  -18.0156 O   0  0  0  0  0  0  0  0  0  0  0  0
   21.0897   -9.1446  -16.7509 N   0  0  0  0  0  0  0  0  0  0  0  0
   20.6505   -8.6589  -15.4868 C   0  0  1  0  0  0  0  0  0  0  0  0
   20.5619   -9.7087  -14.4112 C   0  0  0  0  0  0  0  0  0  0  0  0
   19.4804  -10.6806  -14.7229 C   0  0  0  0  0  0  0  0  0  0  0  0
   18.1176  -10.4658  -14.7399 C   0  0  0  0  0  0  0  0  0  0  0  0
   17.4832  -11.6255  -15.0765 N   0  0  0  0  0  0  0  0  0  0  0  0
   18.4417  -12.5464  -15.2655 C   0  0  0  0  0  0  0  0  0  0  0  0
   19.6348  -11.9753  -15.0525 N   0  0  0  0  0  0  0  0  0  0  0  0
   21.5654   -7.5844  -15.0378 C   0  0  0  0  0  0  0  0  0  0  0  0
   22.7994   -7.7620  -15.1258 O   0  0  0  0  0  0  0  0  0  0  0  0
   23.4261   -2.9813  -14.2834 N   0  0  0  0  0  0  0  0  0  0  0  0
   23.3430   -3.6581  -15.5249 C   0  0  0  0  0  0  0  0  0  0  0  0
   24.0117   -3.2029  -16.4880 O   0  0  0  0  0  0  0  0  0  0  0  0
   22.5047   -4.8557  -15.6938 C   0  0  0  0  0  0  0  0  0  0  0  0
   21.8749   -5.2398  -14.3577 C   0  0  2  0  0  0  0  0  0  0  0  0
   21.0109   -6.3865  -14.5219 N   0  0  0  0  0  0  0  0  0  0  0  0
   21.0779   -4.1303  -13.8055 C   0  0  0  0  0  0  0  0  0  0  0  0
   21.6327   -3.0912  -13.0646 O   0  0  0  0  0  0  0  0  0  0  0  0
   19.8367   -4.0950  -13.9971 O   0  0  0  0  0  0  0  0  0  0  0  0
  2  1  1  6
  2  4  1  0
  3  2  1  0
  4  6  1  0
  4  5  1  6
  6  7  2  0
  8  6  1  0
  8  9  1  0
  9 10  1  1
 10 11  1  0
 11 15  1  0
 12 13  1  0
 12 11  2  0
 13 14  1  0
 14 15  2  0
 16 17  2  0
 16  9  1  0
 19 18  1  0
 19 20  2  0
 22 21  1  6
 21 19  1  0
 22 23  1  0
 23 16  1  0
 24 25  1  0
 24 22  1  0
 26 24  2  0
M  END
$$$$
