THN.pdb
     RDKit          3D

 26 26  0  0  1  0  0  0  0  0999 V2000
   18.0568  -13.1603  -16.6002 C   0  0  0  0  0  0  0  0  0  0  0  0
   18.6990  -12.0400  -15.8147 C   0  0  1  0  0  0  0  0  0  0  0  0
   19.2027  -11.1269  -16.7272 O   0  0  0  0  0  0  0  0  0  0  0  0
   17.6365  -11.4423  -14.9368 C   0  0  2  0  0  0  0  0  0  0  0  0
   16.5708  -10.9277  -15.7812 N   0  0  0  0  0  0  0  0  0  0  0  0
   18.1569  -10.3828  -14.0319 C   0  0  0  0  0  0  0  0  0  0  0  0
   19.0317  -10.7034  -13.1969 O   0  0  0  0  0  0  0  0  0  0  0  0
   17.7185   -9.0523  -14.0686 N   0  0  0  0  0  0  0  0  0  0  0  0
   18.1933   -7.9907  -13.2473 C   0  0  1  0  0  0  0  0  0  0  0  0
   18.7137   -6.7991  -14.0063 C   0  0  0  0  0  0  0  0  0  0  0  0
   20.0215   -7.1175  -14.6384 C   0  0  0  0  0  0  0  0  0  0  0  0
   20.7759   -8.2655  -14.5090 C   0  0  0  0  0  0  0  0  0  0  0  0
   21.9091   -8.1464  -15.2588 N   0  0  0  0  0  0  0  0  0  0  0  0
   21.8565   -6.9397  -15.8449 C   0  0  0  0  0  0  0  0  0  0  0  0
   20.7248   -6.3285  -15.4700 N   0  0  0  0  0  0  0  0  0  0  0  0
   17.1021   -7.5508  -12.3480 C   0  0  0  0  0  0  0  0  0  0  0  0
   15.9478   -7.9931  -12.5327 O   0  0  0  0  0  0  0  0  0  0  0  0
   14.5187   -5.6811   -8.4341 N   0  0  0  0  0  0  0  0  0  0  0  0
   15.1774   -6.9308   -8.3302 C   0  0  0  0  0  0  0  0  0  0  0  0
   14.8837   -7.6704   -7.3562 O   0  0  0  0  0  0  0  0  0  0  0  0
   16.1744   -7.3600   -9.3237 C   0  0  0  0  0  0  0  0  0  0  0  0
   16.3513   -6.2748  -10.3823 C   0  0  2  0  0  0  0  0  0  0  0  0
   17.4024   -6.6402  -11.3042 N   0  0  0  0  0  0  0  0  0  0  0  0
   16.6988   -4.9817   -9.7672 C   0  0  0  0  0  0  0  0  0  0  0  0
   17.9304   -4.3602   -9.9490 O   0  0  0  0  0  0  0  0  0  0  0  0
   15.8630   -4.3898   -9.0394 O   0  0  0  0  0  0  0  0  0  0  0  0
  2  1  1  6
  2  4  1  0
  3  2  1  0
  4  6  1  0
  4  5  1  6
  6  7  2  0
  8  6  1  0
  8  9  1  0
  9 10  1  6
 10 11  1  0
 11 15  1  0
 12 13  1  0
 12 11  2  0
 13 14  1  0
 14 15  2  0
 16 17  2  0
 16  9  1  0
 19 18  1  0
 19 20  2  0
 22 21  1  1
 21 19  1  0
 22 23  1  0
 23 16  1  0
 24 25  1  0
 24 22  1  0
 26 24  2  0
M  END
$$$$
