THN.pdb
     RDKit          3D

 26 26  0  0  1  0  0  0  0  0999 V2000
   25.2817  -12.2581  -15.2869 C   0  0  0  0  0  0  0  0  0  0  0  0
   24.3062  -11.1338  -15.5497 C   0  0  1  0  0  0  0  0  0  0  0  0
   24.8717  -10.3067  -16.5069 O   0  0  0  0  0  0  0  0  0  0  0  0
   23.0221  -11.7558  -16.0198 C   0  0  2  0  0  0  0  0  0  0  0  0
   23.2786  -12.4721  -17.2586 N   0  0  0  0  0  0  0  0  0  0  0  0
   21.9256  -10.7663  -16.1945 C   0  0  0  0  0  0  0  0  0  0  0  0
   21.6428  -10.4048  -17.3583 O   0  0  0  0  0  0  0  0  0  0  0  0
   21.1987  -10.2228  -15.1267 N   0  0  0  0  0  0  0  0  0  0  0  0
   20.1584   -9.2561  -15.2273 C   0  0  1  0  0  0  0  0  0  0  0  0
   18.8649   -9.6606  -14.5714 C   0  0  0  0  0  0  0  0  0  0  0  0
   18.1895  -10.7205  -15.3663 C   0  0  0  0  0  0  0  0  0  0  0  0
   17.7124  -10.6457  -16.6588 C   0  0  0  0  0  0  0  0  0  0  0  0
   17.1629  -11.8449  -17.0059 N   0  0  0  0  0  0  0  0  0  0  0  0
   17.2983  -12.6517  -15.9414 C   0  0  0  0  0  0  0  0  0  0  0  0
   17.9133  -11.9735  -14.9632 N   0  0  0  0  0  0  0  0  0  0  0  0
   20.6234   -7.9825  -14.6319 C   0  0  0  0  0  0  0  0  0  0  0  0
   21.1270   -7.9953  -13.4881 O   0  0  0  0  0  0  0  0  0  0  0  0
   21.8996   -3.1304  -13.9273 N   0  0  0  0  0  0  0  0  0  0  0  0
   22.1721   -3.4668  -15.2760 C   0  0  0  0  0  0  0  0  0  0  0  0
   22.8363   -2.6487  -15.9627 O   0  0  0  0  0  0  0  0  0  0  0  0
   21.6986   -4.7294  -15.8649 C   0  0  0  0  0  0  0  0  0  0  0  0
   20.9675   -5.5521  -14.8075 C   0  0  2  0  0  0  0  0  0  0  0  0
   20.4823   -6.7870  -15.3801 N   0  0  0  0  0  0  0  0  0  0  0  0
   19.8198   -4.8112  -14.2551 C   0  0  0  0  0  0  0  0  0  0  0  0
   19.9240   -3.9488  -13.1681 O   0  0  0  0  0  0  0  0  0  0  0  0
   18.6817   -4.9452  -14.7701 O   0  0  0  0  0  0  0  0  0  0  0  0
  2  1  1  6
  2  4  1  0
  3  2  1  0
  4  6  1  0
  4  5  1  6
  6  7  2  0
  8  6  1  0
  8  9  1  0
  9 10  1  1
 10 11  1  0
 11 15  1  0
 12 13  1  0
 12 11  2  0
 13 14  1  0
 14 15  2  0
 16 17  2  0
 16  9  1  0
 19 18  1  0
 19 20  2  0
 22 21  1  6
 21 19  1  0
 22 23  1  0
 23 16  1  0
 24 25  1  0
 24 22  1  0
 26 24  2  0
M  END
$$$$
