THN.pdb
     RDKit          3D

 26 26  0  0  1  0  0  0  0  0999 V2000
   24.0935  -14.5600  -18.3754 C   0  0  0  0  0  0  0  0  0  0  0  0
   22.7309  -14.8990  -17.8163 C   0  0  1  0  0  0  0  0  0  0  0  0
   22.9209  -15.4381  -16.5540 O   0  0  0  0  0  0  0  0  0  0  0  0
   21.9328  -13.6268  -17.7790 C   0  0  2  0  0  0  0  0  0  0  0  0
   21.6994  -13.1842  -19.1440 N   0  0  0  0  0  0  0  0  0  0  0  0
   22.5814  -12.5560  -16.9761 C   0  0  0  0  0  0  0  0  0  0  0  0
   22.6610  -12.7189  -15.7383 O   0  0  0  0  0  0  0  0  0  0  0  0
   23.1040  -11.3816  -17.5342 N   0  0  0  0  0  0  0  0  0  0  0  0
   23.8626  -10.3924  -16.8465 C   0  0  1  0  0  0  0  0  0  0  0  0
   25.2470  -10.1735  -17.3962 C   0  0  0  0  0  0  0  0  0  0  0  0
   26.1785  -11.2138  -16.8850 C   0  0  0  0  0  0  0  0  0  0  0  0
   25.9208  -12.2187  -15.9753 C   0  0  0  0  0  0  0  0  0  0  0  0
   27.0535  -12.9542  -15.7840 N   0  0  0  0  0  0  0  0  0  0  0  0
   28.0004  -12.4111  -16.5656 C   0  0  0  0  0  0  0  0  0  0  0  0
   27.4711  -11.3701  -17.2221 N   0  0  0  0  0  0  0  0  0  0  0  0
   23.1233   -9.1096  -16.8764 C   0  0  0  0  0  0  0  0  0  0  0  0
   22.3635   -8.8693  -17.8392 O   0  0  0  0  0  0  0  0  0  0  0  0
   21.7545   -4.2028  -13.5510 N   0  0  0  0  0  0  0  0  0  0  0  0
   21.4208   -5.3325  -14.3374 C   0  0  0  0  0  0  0  0  0  0  0  0
   20.3735   -5.2763  -15.0317 O   0  0  0  0  0  0  0  0  0  0  0  0
   22.2645   -6.5381  -14.3495 C   0  0  0  0  0  0  0  0  0  0  0  0
   22.4964   -6.9937  -15.7876 C   0  0  2  0  0  0  0  0  0  0  0  0
   23.3015   -8.1935  -15.8097 N   0  0  0  0  0  0  0  0  0  0  0  0
   23.1864   -5.9541  -16.5714 C   0  0  0  0  0  0  0  0  0  0  0  0
   24.5261   -6.0419  -16.9371 O   0  0  0  0  0  0  0  0  0  0  0  0
   22.5602   -4.9293  -16.9404 O   0  0  0  0  0  0  0  0  0  0  0  0
  2  1  1  1
  2  4  1  0
  3  2  1  0
  4  6  1  0
  4  5  1  6
  6  7  2  0
  8  6  1  0
  8  9  1  0
  9 10  1  6
 10 11  1  0
 11 15  1  0
 12 13  1  0
 12 11  2  0
 13 14  1  0
 14 15  2  0
 16 17  2  0
 16  9  1  0
 19 18  1  0
 19 20  2  0
 22 21  1  1
 21 19  1  0
 22 23  1  0
 23 16  1  0
 24 25  1  0
 24 22  1  0
 26 24  2  0
M  END
$$$$
