THN.pdb
     RDKit          3D

 26 26  0  0  1  0  0  0  0  0999 V2000
   26.2229  -11.6231  -15.3811 C   0  0  0  0  0  0  0  0  0  0  0  0
   26.1108  -12.6732  -16.4624 C   0  0  1  0  0  0  0  0  0  0  0  0
   26.9801  -13.7018  -16.1360 O   0  0  0  0  0  0  0  0  0  0  0  0
   24.6790  -13.1266  -16.4997 C   0  0  2  0  0  0  0  0  0  0  0  0
   24.5772  -14.2729  -17.3882 N   0  0  0  0  0  0  0  0  0  0  0  0
   23.7380  -12.0503  -16.9098 C   0  0  0  0  0  0  0  0  0  0  0  0
   23.7339  -11.7024  -18.1115 O   0  0  0  0  0  0  0  0  0  0  0  0
   22.8617  -11.4114  -16.0223 N   0  0  0  0  0  0  0  0  0  0  0  0
   21.9824  -10.3378  -16.3402 C   0  0  1  0  0  0  0  0  0  0  0  0
   20.5355  -10.5994  -16.0166 C   0  0  0  0  0  0  0  0  0  0  0  0
   19.9647  -11.5962  -16.9610 C   0  0  0  0  0  0  0  0  0  0  0  0
   19.8065  -11.4857  -18.3272 C   0  0  0  0  0  0  0  0  0  0  0  0
   19.2418  -12.6300  -18.8090 N   0  0  0  0  0  0  0  0  0  0  0  0
   19.0529  -13.4385  -17.7540 C   0  0  0  0  0  0  0  0  0  0  0  0
   19.4873  -12.8147  -16.6508 N   0  0  0  0  0  0  0  0  0  0  0  0
   22.4253   -9.1215  -15.6209 C   0  0  0  0  0  0  0  0  0  0  0  0
   22.8585   -9.2306  -14.4537 O   0  0  0  0  0  0  0  0  0  0  0  0
   23.6897   -4.3455  -14.4776 N   0  0  0  0  0  0  0  0  0  0  0  0
   24.0606   -4.5948  -15.8217 C   0  0  0  0  0  0  0  0  0  0  0  0
   24.7496   -3.7237  -16.4121 O   0  0  0  0  0  0  0  0  0  0  0  0
   23.6585   -5.8290  -16.5147 C   0  0  0  0  0  0  0  0  0  0  0  0
   22.8074   -6.6908  -15.5860 C   0  0  2  0  0  0  0  0  0  0  0  0
   22.3438   -7.8699  -16.2810 N   0  0  0  0  0  0  0  0  0  0  0  0
   21.6340   -5.9468  -15.0951 C   0  0  0  0  0  0  0  0  0  0  0  0
   21.6759   -5.1069  -13.9866 O   0  0  0  0  0  0  0  0  0  0  0  0
   20.5306   -6.0572  -15.6860 O   0  0  0  0  0  0  0  0  0  0  0  0
  2  1  1  1
  2  4  1  0
  3  2  1  0
  4  6  1  0
  4  5  1  6
  6  7  2  0
  8  6  1  0
  8  9  1  0
  9 10  1  1
 10 11  1  0
 11 15  1  0
 12 13  1  0
 12 11  2  0
 13 14  1  0
 14 15  2  0
 16 17  2  0
 16  9  1  0
 19 18  1  0
 19 20  2  0
 22 21  1  6
 21 19  1  0
 22 23  1  0
 23 16  1  0
 24 25  1  0
 24 22  1  0
 26 24  2  0
M  END
$$$$
