THN.pdb
     RDKit          3D

 26 26  0  0  1  0  0  0  0  0999 V2000
   19.3323   -7.8369  -19.5837 C   0  0  0  0  0  0  0  0  0  0  0  0
   18.5392   -8.8861  -18.8389 C   0  0  1  0  0  0  0  0  0  0  0  0
   18.5021  -10.0215  -19.6324 O   0  0  0  0  0  0  0  0  0  0  0  0
   19.2349   -9.1276  -17.5295 C   0  0  2  0  0  0  0  0  0  0  0  0
   18.6590  -10.3090  -16.9079 N   0  0  0  0  0  0  0  0  0  0  0  0
   19.1709   -7.9589  -16.6119 C   0  0  0  0  0  0  0  0  0  0  0  0
   18.0839   -7.3469  -16.5178 O   0  0  0  0  0  0  0  0  0  0  0  0
   20.2611   -7.5127  -15.8527 N   0  0  0  0  0  0  0  0  0  0  0  0
   20.2561   -6.4188  -14.9417 C   0  0  1  0  0  0  0  0  0  0  0  0
   21.0188   -6.6645  -13.6670 C   0  0  0  0  0  0  0  0  0  0  0  0
   20.2844   -7.6236  -12.7998 C   0  0  0  0  0  0  0  0  0  0  0  0
   19.1167   -8.3043  -13.0766 C   0  0  0  0  0  0  0  0  0  0  0  0
   18.7850   -9.0829  -12.0069 N   0  0  0  0  0  0  0  0  0  0  0  0
   19.7357   -8.8863  -11.0796 C   0  0  0  0  0  0  0  0  0  0  0  0
   20.6304   -8.0121  -11.5595 N   0  0  0  0  0  0  0  0  0  0  0  0
   20.8162   -5.2256  -15.6165 C   0  0  0  0  0  0  0  0  0  0  0  0
   21.8220   -5.3574  -16.3467 O   0  0  0  0  0  0  0  0  0  0  0  0
   19.8883   -1.5462  -19.5622 N   0  0  0  0  0  0  0  0  0  0  0  0
   20.7500   -2.0437  -18.5541 C   0  0  0  0  0  0  0  0  0  0  0  0
   21.8575   -1.4698  -18.3921 O   0  0  0  0  0  0  0  0  0  0  0  0
   20.3723   -3.1940  -17.7178 C   0  0  0  0  0  0  0  0  0  0  0  0
   20.5894   -2.8572  -16.2451 C   0  0  2  0  0  0  0  0  0  0  0  0
   20.1921   -3.9695  -15.4125 N   0  0  0  0  0  0  0  0  0  0  0  0
   19.8063   -1.6739  -15.8478 C   0  0  0  0  0  0  0  0  0  0  0  0
   20.1776   -0.3728  -16.1726 O   0  0  0  0  0  0  0  0  0  0  0  0
   18.7491   -1.8167  -15.1842 O   0  0  0  0  0  0  0  0  0  0  0  0
  2  1  1  6
  2  4  1  0
  3  2  1  0
  4  6  1  0
  4  5  1  1
  6  7  2  0
  8  6  1  0
  8  9  1  0
  9 10  1  1
 10 11  1  0
 11 15  1  0
 12 13  1  0
 12 11  2  0
 13 14  1  0
 14 15  2  0
 16 17  2  0
 16  9  1  0
 19 18  1  0
 19 20  2  0
 22 21  1  6
 21 19  1  0
 22 23  1  0
 23 16  1  0
 24 25  1  0
 24 22  1  0
 26 24  2  0
M  END
$$$$
