THN.pdb
     RDKit          3D

 26 26  0  0  1  0  0  0  0  0999 V2000
   27.3890  -11.7557  -15.2737 C   0  0  0  0  0  0  0  0  0  0  0  0
   26.4766  -10.9749  -16.1916 C   0  0  1  0  0  0  0  0  0  0  0  0
   27.1332  -10.8249  -17.4026 O   0  0  0  0  0  0  0  0  0  0  0  0
   25.2014  -11.7575  -16.3271 C   0  0  2  0  0  0  0  0  0  0  0  0
   25.3419  -12.6872  -17.4359 N   0  0  0  0  0  0  0  0  0  0  0  0
   24.0042  -10.8934  -16.5058 C   0  0  0  0  0  0  0  0  0  0  0  0
   23.7558  -10.4670  -17.6554 O   0  0  0  0  0  0  0  0  0  0  0  0
   23.1465  -10.5359  -15.4567 N   0  0  0  0  0  0  0  0  0  0  0  0
   21.9996   -9.6988  -15.5603 C   0  0  1  0  0  0  0  0  0  0  0  0
   20.7591  -10.2571  -14.9150 C   0  0  0  0  0  0  0  0  0  0  0  0
   20.2362  -11.4048  -15.7028 C   0  0  0  0  0  0  0  0  0  0  0  0
   20.1768  -11.5431  -17.0743 C   0  0  0  0  0  0  0  0  0  0  0  0
   19.6244  -12.7519  -17.3813 N   0  0  0  0  0  0  0  0  0  0  0  0
   19.3455  -13.3541  -16.2143 C   0  0  0  0  0  0  0  0  0  0  0  0
   19.7137  -12.5433  -15.2133 N   0  0  0  0  0  0  0  0  0  0  0  0
   22.3066   -8.3820  -14.9564 C   0  0  0  0  0  0  0  0  0  0  0  0
   22.8909   -8.3420  -13.8523 O   0  0  0  0  0  0  0  0  0  0  0  0
   23.1483   -3.4368  -14.3192 N   0  0  0  0  0  0  0  0  0  0  0  0
   22.5371   -3.5310  -15.5935 C   0  0  0  0  0  0  0  0  0  0  0  0
   22.4042   -2.4732  -16.2609 O   0  0  0  0  0  0  0  0  0  0  0  0
   22.0691   -4.8191  -16.1292 C   0  0  0  0  0  0  0  0  0  0  0  0
   22.3178   -5.9259  -15.1081 C   0  0  2  0  0  0  0  0  0  0  0  0
   21.9272   -7.2066  -15.6516 N   0  0  0  0  0  0  0  0  0  0  0  0
   21.5529   -5.6912  -13.8707 C   0  0  0  0  0  0  0  0  0  0  0  0
   22.1363   -5.2403  -12.6906 O   0  0  0  0  0  0  0  0  0  0  0  0
   20.3141   -5.8996  -13.8514 O   0  0  0  0  0  0  0  0  0  0  0  0
  2  1  1  1
  2  4  1  0
  3  2  1  0
  4  6  1  0
  4  5  1  6
  6  7  2  0
  8  6  1  0
  8  9  1  0
  9 10  1  1
 10 11  1  0
 11 15  1  0
 12 13  1  0
 12 11  2  0
 13 14  1  0
 14 15  2  0
 16 17  2  0
 16  9  1  0
 19 18  1  0
 19 20  2  0
 22 21  1  6
 21 19  1  0
 22 23  1  0
 23 16  1  0
 24 25  1  0
 24 22  1  0
 26 24  2  0
M  END
$$$$
