THN.pdb
     RDKit          3D

 26 26  0  0  1  0  0  0  0  0999 V2000
   21.9756   -9.2339  -20.9748 C   0  0  0  0  0  0  0  0  0  0  0  0
   21.5460  -10.6376  -20.6148 C   0  0  1  0  0  0  0  0  0  0  0  0
   21.7704  -11.4390  -21.7227 O   0  0  0  0  0  0  0  0  0  0  0  0
   22.3611  -11.0646  -19.4272 C   0  0  2  0  0  0  0  0  0  0  0  0
   22.1769  -12.4926  -19.2260 N   0  0  0  0  0  0  0  0  0  0  0  0
   22.0308  -10.3061  -18.1912 C   0  0  0  0  0  0  0  0  0  0  0  0
   20.8328  -10.2619  -17.8337 O   0  0  0  0  0  0  0  0  0  0  0  0
   22.9892   -9.6433  -17.4128 N   0  0  0  0  0  0  0  0  0  0  0  0
   22.7299   -8.8561  -16.2553 C   0  0  1  0  0  0  0  0  0  0  0  0
   23.7118   -9.0562  -15.1315 C   0  0  0  0  0  0  0  0  0  0  0  0
   23.4608  -10.3529  -14.4482 C   0  0  0  0  0  0  0  0  0  0  0  0
   22.4190  -11.2355  -14.6466 C   0  0  0  0  0  0  0  0  0  0  0  0
   22.5688  -12.3037  -13.8117 N   0  0  0  0  0  0  0  0  0  0  0  0
   23.6894  -12.0847  -13.1054 C   0  0  0  0  0  0  0  0  0  0  0  0
   24.2189  -10.9159  -13.4905 N   0  0  0  0  0  0  0  0  0  0  0  0
   22.7185   -7.4253  -16.6368 C   0  0  0  0  0  0  0  0  0  0  0  0
   23.6389   -6.9817  -17.3567 O   0  0  0  0  0  0  0  0  0  0  0  0
   19.1444   -2.7914  -17.8506 N   0  0  0  0  0  0  0  0  0  0  0  0
   20.3634   -3.5108  -17.7979 C   0  0  0  0  0  0  0  0  0  0  0  0
   21.4225   -2.8933  -18.0789 O   0  0  0  0  0  0  0  0  0  0  0  0
   20.4013   -4.9345  -17.4278 C   0  0  0  0  0  0  0  0  0  0  0  0
   21.6367   -5.2158  -16.5769 C   0  0  2  0  0  0  0  0  0  0  0  0
   21.6617   -6.6029  -16.1724 N   0  0  0  0  0  0  0  0  0  0  0  0
   21.6523   -4.3763  -15.3660 C   0  0  0  0  0  0  0  0  0  0  0  0
   21.9471   -3.0166  -15.3876 O   0  0  0  0  0  0  0  0  0  0  0  0
   21.3908   -4.8857  -14.2476 O   0  0  0  0  0  0  0  0  0  0  0  0
  2  1  1  6
  2  4  1  0
  3  2  1  0
  4  6  1  0
  4  5  1  1
  6  7  2  0
  8  6  1  0
  8  9  1  0
  9 10  1  1
 10 11  1  0
 11 15  1  0
 12 13  1  0
 12 11  2  0
 13 14  1  0
 14 15  2  0
 16 17  2  0
 16  9  1  0
 19 18  1  0
 19 20  2  0
 22 21  1  1
 21 19  1  0
 22 23  1  0
 23 16  1  0
 24 25  1  0
 24 22  1  0
 26 24  2  0
M  END
$$$$
