HWF.pdb
     RDKit          3D

 36 39  0  0  1  0  0  0  0  0999 V2000
    7.6541  -21.0550   22.2935 N   0  0  0  0  0  0  0  0  0  0  0  0
    7.2911  -19.8351   23.0562 C   0  0  1  0  0  0  0  0  0  0  0  0
    6.8074  -20.3278   24.3949 C   0  0  0  0  0  0  0  0  0  0  0  0
    5.5689  -21.1123   24.3187 C   0  0  0  0  0  0  0  0  0  0  0  0
    4.9386  -21.3818   23.1143 C   0  0  0  0  0  0  0  0  0  0  0  0
    3.8360  -22.1150   23.3447 N   0  0  0  0  0  0  0  0  0  0  0  0
    3.7815  -22.2979   24.6642 C   0  0  0  0  0  0  0  0  0  0  0  0
    4.8265  -21.6949   25.2678 N   0  0  0  0  0  0  0  0  0  0  0  0
    8.5124  -18.9806   23.1761 C   0  0  0  0  0  0  0  0  0  0  0  0
    9.6479  -19.4470   23.3003 O   0  0  0  0  0  0  0  0  0  0  0  0
    8.4338  -17.5356   23.1551 N   0  0  0  0  0  0  0  0  0  0  0  0
    9.5797  -16.7122   23.3747 C   0  0  1  0  0  0  0  0  0  0  0  0
    9.7181  -15.6440   22.3547 C   0  0  0  0  0  0  0  0  0  0  0  0
    8.4528  -15.1573   21.7623 C   0  0  0  0  0  0  0  0  0  0  0  0
    7.1794  -15.6640   22.0695 C   0  0  0  0  0  0  0  0  0  0  0  0
    6.2569  -14.9822   21.3772 N   0  0  0  0  0  0  0  0  0  0  0  0
    6.8424  -14.0343   20.6115 C   0  0  0  0  0  0  0  0  0  0  0  0
    6.3342  -13.0946   19.7270 C   0  0  0  0  0  0  0  0  0  0  0  0
    7.1710  -12.2352   19.0527 C   0  0  0  0  0  0  0  0  0  0  0  0
    8.5207  -12.3571   19.3002 C   0  0  0  0  0  0  0  0  0  0  0  0
    9.0320  -13.2980   20.1865 C   0  0  0  0  0  0  0  0  0  0  0  0
    8.2026  -14.1499   20.8557 C   0  0  0  0  0  0  0  0  0  0  0  0
    9.6317  -16.1766   24.7680 C   0  0  0  0  0  0  0  0  0  0  0  0
    9.4758  -14.9515   24.9878 O   0  0  0  0  0  0  0  0  0  0  0  0
    9.8564  -17.0228   25.8865 N   0  0  0  0  0  0  0  0  0  0  0  0
    9.4026  -16.7441   27.2117 C   0  0  1  0  0  0  0  0  0  0  0  0
    7.9620  -16.2082   27.2739 C   0  0  0  0  0  0  0  0  0  0  0  0
    7.9370  -14.7537   27.0749 C   0  0  0  0  0  0  0  0  0  0  0  0
    6.9957  -14.1624   26.2867 C   0  0  0  0  0  0  0  0  0  0  0  0
    6.9715  -12.7758   26.0761 C   0  0  0  0  0  0  0  0  0  0  0  0
    7.9221  -11.9848   26.6805 C   0  0  0  0  0  0  0  0  0  0  0  0
    8.8810  -12.5442   27.4784 C   0  0  0  0  0  0  0  0  0  0  0  0
    8.8760  -13.9076   27.6632 C   0  0  0  0  0  0  0  0  0  0  0  0
    9.6571  -17.8070   28.1764 C   0  0  0  0  0  0  0  0  0  0  0  0
    9.8355  -19.0104   27.8027 O   0  0  0  0  0  0  0  0  0  0  0  0
    9.7181  -17.5684   29.5396 O   0  0  0  0  0  0  0  0  0  0  0  0
  2  1  1  6
  3  2  1  0
  4  5  2  0
  4  3  1  0
  6  5  1  0
  7  8  2  0
  7  6  1  0
  8  4  1  0
  9  2  1  0
 10  9  2  0
 11  9  1  0
 12 13  1  6
 12 11  1  0
 13 14  1  0
 14 22  1  0
 14 15  2  0
 15 16  1  0
 17 16  1  0
 17 18  2  0
 19 18  1  0
 20 19  2  0
 21 20  1  0
 21 22  2  0
 22 17  1  0
 23 12  1  0
 24 23  2  0
 25 23  1  0
 26 25  1  0
 26 27  1  6
 27 28  1  0
 28 33  1  0
 29 28  2  0
 29 30  1  0
 30 31  2  0
 31 32  1  0
 33 32  2  0
 34 36  1  0
 34 26  1  0
 35 34  2  0
M  END
$$$$
