HWF.pdb
     RDKit          3D

 36 39  0  0  1  0  0  0  0  0999 V2000
    8.7562  -19.6820   19.9914 N   0  0  0  0  0  0  0  0  0  0  0  0
    8.7230  -19.4427   21.4554 C   0  0  1  0  0  0  0  0  0  0  0  0
    9.4491  -20.6109   22.0695 C   0  0  0  0  0  0  0  0  0  0  0  0
    8.8243  -21.9075   21.7806 C   0  0  0  0  0  0  0  0  0  0  0  0
    7.6689  -22.0178   21.0234 C   0  0  0  0  0  0  0  0  0  0  0  0
    7.3274  -23.3137   20.9210 N   0  0  0  0  0  0  0  0  0  0  0  0
    8.2508  -23.9951   21.5999 C   0  0  0  0  0  0  0  0  0  0  0  0
    9.1651  -23.1546   22.1268 N   0  0  0  0  0  0  0  0  0  0  0  0
    9.4095  -18.1430   21.7302 C   0  0  0  0  0  0  0  0  0  0  0  0
   10.5751  -17.9160   21.3954 O   0  0  0  0  0  0  0  0  0  0  0  0
    8.7385  -17.0594   22.4161 N   0  0  0  0  0  0  0  0  0  0  0  0
    9.3122  -15.7553   22.5138 C   0  0  1  0  0  0  0  0  0  0  0  0
    8.2874  -14.6888   22.6285 C   0  0  0  0  0  0  0  0  0  0  0  0
    7.4614  -14.7246   23.8553 C   0  0  0  0  0  0  0  0  0  0  0  0
    6.8224  -15.8710   24.3556 C   0  0  0  0  0  0  0  0  0  0  0  0
    6.1834  -15.5572   25.4907 N   0  0  0  0  0  0  0  0  0  0  0  0
    6.3565  -14.2498   25.7874 C   0  0  0  0  0  0  0  0  0  0  0  0
    5.9018  -13.4541   26.8283 C   0  0  0  0  0  0  0  0  0  0  0  0
    6.2235  -12.1175   26.8874 C   0  0  0  0  0  0  0  0  0  0  0  0
    7.0101  -11.6201   25.8718 C   0  0  0  0  0  0  0  0  0  0  0  0
    7.4672  -12.4160   24.8279 C   0  0  0  0  0  0  0  0  0  0  0  0
    7.1490  -13.7414   24.7691 C   0  0  0  0  0  0  0  0  0  0  0  0
   10.3423  -15.6708   23.5920 C   0  0  0  0  0  0  0  0  0  0  0  0
   11.1158  -14.6857   23.6609 O   0  0  0  0  0  0  0  0  0  0  0  0
   10.4853  -16.6899   24.5711 N   0  0  0  0  0  0  0  0  0  0  0  0
   11.6494  -16.8746   25.3778 C   0  0  1  0  0  0  0  0  0  0  0  0
   12.2538  -15.5615   25.9038 C   0  0  0  0  0  0  0  0  0  0  0  0
   11.4313  -15.0045   26.9852 C   0  0  0  0  0  0  0  0  0  0  0  0
   10.9940  -15.7821   28.0152 C   0  0  0  0  0  0  0  0  0  0  0  0
   10.1943  -15.2650   29.0452 C   0  0  0  0  0  0  0  0  0  0  0  0
    9.8387  -13.9355   29.0206 C   0  0  0  0  0  0  0  0  0  0  0  0
   10.2602  -13.1261   28.0028 C   0  0  0  0  0  0  0  0  0  0  0  0
   11.0429  -13.6657   27.0083 C   0  0  0  0  0  0  0  0  0  0  0  0
   11.5162  -17.8946   26.4108 C   0  0  0  0  0  0  0  0  0  0  0  0
   12.4875  -18.1887   27.1789 O   0  0  0  0  0  0  0  0  0  0  0  0
   10.3370  -18.5931   26.6114 O   0  0  0  0  0  0  0  0  0  0  0  0
  2  1  1  6
  3  2  1  0
  4  5  2  0
  4  3  1  0
  6  5  1  0
  7  8  2  0
  7  6  1  0
  8  4  1  0
  9  2  1  0
 10  9  2  0
 11  9  1  0
 12 13  1  1
 12 11  1  0
 13 14  1  0
 14 22  1  0
 14 15  2  0
 15 16  1  0
 17 16  1  0
 17 18  2  0
 19 18  1  0
 20 19  2  0
 21 20  1  0
 21 22  2  0
 22 17  1  0
 23 12  1  0
 24 23  2  0
 25 23  1  0
 26 25  1  0
 26 27  1  1
 27 28  1  0
 28 33  1  0
 29 28  2  0
 29 30  1  0
 30 31  2  0
 31 32  1  0
 33 32  2  0
 34 36  1  0
 34 26  1  0
 35 34  2  0
M  END
$$$$
