HWF.pdb
     RDKit          3D

 36 39  0  0  1  0  0  0  0  0999 V2000
    8.5309  -17.2664   20.1671 N   0  0  0  0  0  0  0  0  0  0  0  0
    9.3025  -16.0041   20.2820 C   0  0  1  0  0  0  0  0  0  0  0  0
    8.3961  -14.9292   19.7417 C   0  0  0  0  0  0  0  0  0  0  0  0
    8.1514  -15.0389   18.2984 C   0  0  0  0  0  0  0  0  0  0  0  0
    7.4966  -16.1257   17.7412 C   0  0  0  0  0  0  0  0  0  0  0  0
    7.4132  -15.9590   16.4101 N   0  0  0  0  0  0  0  0  0  0  0  0
    8.0034  -14.7932   16.1449 C   0  0  0  0  0  0  0  0  0  0  0  0
    8.4561  -14.2241   17.2812 N   0  0  0  0  0  0  0  0  0  0  0  0
    9.6343  -15.7912   21.7244 C   0  0  0  0  0  0  0  0  0  0  0  0
   10.2986  -14.8319   22.1254 O   0  0  0  0  0  0  0  0  0  0  0  0
    9.1912  -16.7114   22.7499 N   0  0  0  0  0  0  0  0  0  0  0  0
    9.5688  -16.5579   24.1186 C   0  0  1  0  0  0  0  0  0  0  0  0
    8.4690  -16.8967   25.0548 C   0  0  0  0  0  0  0  0  0  0  0  0
    7.3840  -15.8961   25.1560 C   0  0  0  0  0  0  0  0  0  0  0  0
    6.0686  -16.1812   25.5576 C   0  0  0  0  0  0  0  0  0  0  0  0
    5.3558  -15.0467   25.5633 N   0  0  0  0  0  0  0  0  0  0  0  0
    6.1240  -14.0012   25.1836 C   0  0  0  0  0  0  0  0  0  0  0  0
    5.8590  -12.6492   25.0242 C   0  0  0  0  0  0  0  0  0  0  0  0
    6.8420  -11.7819   24.6060 C   0  0  0  0  0  0  0  0  0  0  0  0
    8.0850  -12.3213   24.3582 C   0  0  0  0  0  0  0  0  0  0  0  0
    8.3529  -13.6759   24.5177 C   0  0  0  0  0  0  0  0  0  0  0  0
    7.3787  -14.5362   24.9328 C   0  0  0  0  0  0  0  0  0  0  0  0
   10.8327  -17.2856   24.4408 C   0  0  0  0  0  0  0  0  0  0  0  0
   11.2336  -18.2238   23.7111 O   0  0  0  0  0  0  0  0  0  0  0  0
   11.6221  -16.9482   25.5724 N   0  0  0  0  0  0  0  0  0  0  0  0
   11.9323  -17.8495   26.6361 C   0  0  1  0  0  0  0  0  0  0  0  0
   11.1720  -17.5545   27.9404 C   0  0  0  0  0  0  0  0  0  0  0  0
   10.9738  -16.1100   28.1138 C   0  0  0  0  0  0  0  0  0  0  0  0
   11.9939  -15.2971   28.5080 C   0  0  0  0  0  0  0  0  0  0  0  0
   11.8127  -13.9184   28.6927 C   0  0  0  0  0  0  0  0  0  0  0  0
   10.5721  -13.3652   28.4703 C   0  0  0  0  0  0  0  0  0  0  0  0
    9.5261  -14.1509   28.0733 C   0  0  0  0  0  0  0  0  0  0  0  0
    9.7384  -15.4994   27.9021 C   0  0  0  0  0  0  0  0  0  0  0  0
   11.9019  -19.2591   26.2653 C   0  0  0  0  0  0  0  0  0  0  0  0
   11.4959  -19.6325   25.1183 O   0  0  0  0  0  0  0  0  0  0  0  0
   12.3088  -20.2599   27.1322 O   0  0  0  0  0  0  0  0  0  0  0  0
  2  1  1  1
  3  2  1  0
  4  5  2  0
  4  3  1  0
  6  5  1  0
  7  8  2  0
  7  6  1  0
  8  4  1  0
  9  2  1  0
 10  9  2  0
 11  9  1  0
 12 13  1  1
 12 11  1  0
 13 14  1  0
 14 22  1  0
 14 15  2  0
 15 16  1  0
 17 16  1  0
 17 18  2  0
 19 18  1  0
 20 19  2  0
 21 20  1  0
 21 22  2  0
 22 17  1  0
 23 12  1  0
 24 23  2  0
 25 23  1  0
 26 25  1  0
 26 27  1  1
 27 28  1  0
 28 33  1  0
 29 28  2  0
 29 30  1  0
 30 31  2  0
 31 32  1  0
 33 32  2  0
 34 36  1  0
 34 26  1  0
 35 34  2  0
M  END
$$$$
