HWF.pdb
     RDKit          3D

 36 39  0  0  1  0  0  0  0  0999 V2000
    7.1168  -16.8743   19.3718 N   0  0  0  0  0  0  0  0  0  0  0  0
    8.3179  -16.0498   19.6539 C   0  0  1  0  0  0  0  0  0  0  0  0
    8.0793  -14.7392   18.9508 C   0  0  0  0  0  0  0  0  0  0  0  0
    8.3078  -14.8006   17.5020 C   0  0  0  0  0  0  0  0  0  0  0  0
    8.7629  -15.9493   16.8745 C   0  0  0  0  0  0  0  0  0  0  0  0
    8.8785  -15.7184   15.5555 N   0  0  0  0  0  0  0  0  0  0  0  0
    8.5033  -14.4531   15.3664 C   0  0  0  0  0  0  0  0  0  0  0  0
    8.1545  -13.8840   16.5389 N   0  0  0  0  0  0  0  0  0  0  0  0
    8.4307  -15.8838   21.1357 C   0  0  0  0  0  0  0  0  0  0  0  0
    7.5319  -15.3969   21.8266 O   0  0  0  0  0  0  0  0  0  0  0  0
    9.6182  -16.2887   21.8574 N   0  0  0  0  0  0  0  0  0  0  0  0
    9.7461  -16.1045   23.2678 C   0  0  1  0  0  0  0  0  0  0  0  0
    8.6610  -16.7695   24.0302 C   0  0  0  0  0  0  0  0  0  0  0  0
    7.6488  -15.8671   24.6216 C   0  0  0  0  0  0  0  0  0  0  0  0
    6.4306  -16.2886   25.1794 C   0  0  0  0  0  0  0  0  0  0  0  0
    5.7683  -15.2210   25.6449 N   0  0  0  0  0  0  0  0  0  0  0  0
    6.4781  -14.0908   25.4298 C   0  0  0  0  0  0  0  0  0  0  0  0
    6.2285  -12.7561   25.7124 C   0  0  0  0  0  0  0  0  0  0  0  0
    7.1356  -11.7803   25.3685 C   0  0  0  0  0  0  0  0  0  0  0  0
    8.2879  -12.1948   24.7377 C   0  0  0  0  0  0  0  0  0  0  0  0
    8.5402  -13.5320   24.4538 C   0  0  0  0  0  0  0  0  0  0  0  0
    7.6413  -14.5000   24.7951 C   0  0  0  0  0  0  0  0  0  0  0  0
   11.1028  -16.4812   23.7658 C   0  0  0  0  0  0  0  0  0  0  0  0
   11.9475  -16.9938   22.9930 O   0  0  0  0  0  0  0  0  0  0  0  0
   11.4865  -16.2762   25.1180 N   0  0  0  0  0  0  0  0  0  0  0  0
   11.8315  -17.3239   26.0253 C   0  0  1  0  0  0  0  0  0  0  0  0
   10.8147  -17.5186   27.1630 C   0  0  0  0  0  0  0  0  0  0  0  0
   10.3663  -16.2234   27.6897 C   0  0  0  0  0  0  0  0  0  0  0  0
   11.2115  -15.4089   28.3818 C   0  0  0  0  0  0  0  0  0  0  0  0
   10.7903  -14.1768   28.9037 C   0  0  0  0  0  0  0  0  0  0  0  0
    9.4880  -13.7736   28.7140 C   0  0  0  0  0  0  0  0  0  0  0  0
    8.6129  -14.5653   28.0239 C   0  0  0  0  0  0  0  0  0  0  0  0
    9.0589  -15.7678   27.5259 C   0  0  0  0  0  0  0  0  0  0  0  0
   12.2191  -18.5761   25.3872 C   0  0  0  0  0  0  0  0  0  0  0  0
   11.3509  -19.4454   25.0549 O   0  0  0  0  0  0  0  0  0  0  0  0
   13.5405  -18.8859   25.1102 O   0  0  0  0  0  0  0  0  0  0  0  0
  2  1  1  1
  3  2  1  0
  4  5  2  0
  4  3  1  0
  6  5  1  0
  7  8  2  0
  7  6  1  0
  8  4  1  0
  9  2  1  0
 10  9  2  0
 11  9  1  0
 12 13  1  1
 12 11  1  0
 13 14  1  0
 14 22  1  0
 14 15  2  0
 15 16  1  0
 17 16  1  0
 17 18  2  0
 19 18  1  0
 20 19  2  0
 21 20  1  0
 21 22  2  0
 22 17  1  0
 23 12  1  0
 24 23  2  0
 25 23  1  0
 26 25  1  0
 26 27  1  1
 27 28  1  0
 28 33  1  0
 29 28  2  0
 29 30  1  0
 30 31  2  0
 31 32  1  0
 33 32  2  0
 34 36  1  0
 34 26  1  0
 35 34  2  0
M  END
$$$$
