HWF.pdb
     RDKit          3D

 36 39  0  0  1  0  0  0  0  0999 V2000
    8.8380  -19.2516   19.8567 N   0  0  0  0  0  0  0  0  0  0  0  0
    8.4104  -18.9599   21.2473 C   0  0  1  0  0  0  0  0  0  0  0  0
    8.6732  -20.2249   22.0217 C   0  0  0  0  0  0  0  0  0  0  0  0
    7.8006  -21.3407   21.6361 C   0  0  0  0  0  0  0  0  0  0  0  0
    6.6491  -21.6549   22.3402 C   0  0  0  0  0  0  0  0  0  0  0  0
    6.0522  -22.7130   21.7654 N   0  0  0  0  0  0  0  0  0  0  0  0
    6.8159  -23.0500   20.7258 C   0  0  0  0  0  0  0  0  0  0  0  0
    7.8803  -22.2259   20.6354 N   0  0  0  0  0  0  0  0  0  0  0  0
    9.2216  -17.8096   21.7521 C   0  0  0  0  0  0  0  0  0  0  0  0
   10.4107  -17.6498   21.4643 O   0  0  0  0  0  0  0  0  0  0  0  0
    8.6525  -16.8021   22.6215 N   0  0  0  0  0  0  0  0  0  0  0  0
    9.4136  -15.6870   23.0871 C   0  0  1  0  0  0  0  0  0  0  0  0
    8.7811  -14.3867   22.7554 C   0  0  0  0  0  0  0  0  0  0  0  0
    8.0187  -14.3510   21.4880 C   0  0  0  0  0  0  0  0  0  0  0  0
    6.7520  -14.9281   21.3005 C   0  0  0  0  0  0  0  0  0  0  0  0
    6.3415  -14.6885   20.0479 N   0  0  0  0  0  0  0  0  0  0  0  0
    7.2699  -13.9751   19.3721 C   0  0  0  0  0  0  0  0  0  0  0  0
    7.3223  -13.4932   18.0727 C   0  0  0  0  0  0  0  0  0  0  0  0
    8.4160  -12.7884   17.6249 C   0  0  0  0  0  0  0  0  0  0  0  0
    9.4408  -12.5905   18.5239 C   0  0  0  0  0  0  0  0  0  0  0  0
    9.3902  -13.0723   19.8267 C   0  0  0  0  0  0  0  0  0  0  0  0
    8.3057  -13.7707   20.2714 C   0  0  0  0  0  0  0  0  0  0  0  0
    9.7516  -15.8000   24.5375 C   0  0  0  0  0  0  0  0  0  0  0  0
   10.6186  -15.0533   25.0515 O   0  0  0  0  0  0  0  0  0  0  0  0
    9.1123  -16.7456   25.3828 N   0  0  0  0  0  0  0  0  0  0  0  0
    9.2561  -16.7833   26.8033 C   0  0  1  0  0  0  0  0  0  0  0  0
    8.0157  -16.2863   27.5654 C   0  0  0  0  0  0  0  0  0  0  0  0
    7.7640  -14.8673   27.2842 C   0  0  0  0  0  0  0  0  0  0  0  0
    6.5984  -14.4543   26.7117 C   0  0  0  0  0  0  0  0  0  0  0  0
    6.3532  -13.1036   26.4234 C   0  0  0  0  0  0  0  0  0  0  0  0
    7.3128  -12.1642   26.7259 C   0  0  0  0  0  0  0  0  0  0  0  0
    8.4936  -12.5429   27.3014 C   0  0  0  0  0  0  0  0  0  0  0  0
    8.7017  -13.8761   27.5702 C   0  0  0  0  0  0  0  0  0  0  0  0
    9.7816  -18.0382   27.3270 C   0  0  0  0  0  0  0  0  0  0  0  0
   10.0086  -19.0302   26.5627 O   0  0  0  0  0  0  0  0  0  0  0  0
   10.0598  -18.2186   28.6720 O   0  0  0  0  0  0  0  0  0  0  0  0
  2  1  1  6
  3  2  1  0
  4  5  2  0
  4  3  1  0
  6  5  1  0
  7  8  2  0
  7  6  1  0
  8  4  1  0
  9  2  1  0
 10  9  2  0
 11  9  1  0
 12 13  1  1
 12 11  1  0
 13 14  1  0
 14 22  1  0
 14 15  2  0
 15 16  1  0
 17 16  1  0
 17 18  2  0
 19 18  1  0
 20 19  2  0
 21 20  1  0
 21 22  2  0
 22 17  1  0
 23 12  1  0
 24 23  2  0
 25 23  1  0
 26 25  1  0
 26 27  1  1
 27 28  1  0
 28 33  1  0
 29 28  2  0
 29 30  1  0
 30 31  2  0
 31 32  1  0
 33 32  2  0
 34 36  1  0
 34 26  1  0
 35 34  2  0
M  END
$$$$
