HWF.pdb
     RDKit          3D

 36 39  0  0  1  0  0  0  0  0999 V2000
   10.2246  -15.7241   17.5359 N   0  0  0  0  0  0  0  0  0  0  0  0
   10.1089  -16.8412   18.5056 C   0  0  1  0  0  0  0  0  0  0  0  0
   11.4197  -17.5792   18.4260 C   0  0  0  0  0  0  0  0  0  0  0  0
   11.6046  -18.3122   17.1676 C   0  0  0  0  0  0  0  0  0  0  0  0
   12.4130  -17.8361   16.1479 C   0  0  0  0  0  0  0  0  0  0  0  0
   12.3960  -18.7072   15.1244 N   0  0  0  0  0  0  0  0  0  0  0  0
   11.5941  -19.7041   15.4996 C   0  0  0  0  0  0  0  0  0  0  0  0
   11.1068  -19.4777   16.7370 N   0  0  0  0  0  0  0  0  0  0  0  0
    9.8706  -16.2575   19.8616 C   0  0  0  0  0  0  0  0  0  0  0  0
   10.5847  -15.3767   20.3478 O   0  0  0  0  0  0  0  0  0  0  0  0
    8.7736  -16.6984   20.6964 N   0  0  0  0  0  0  0  0  0  0  0  0
    8.6184  -16.2473   22.0425 C   0  0  1  0  0  0  0  0  0  0  0  0
    7.2181  -16.3519   22.5210 C   0  0  0  0  0  0  0  0  0  0  0  0
    6.9623  -15.8113   23.8741 C   0  0  0  0  0  0  0  0  0  0  0  0
    6.6251  -16.5881   24.9947 C   0  0  0  0  0  0  0  0  0  0  0  0
    6.4897  -15.7865   26.0597 N   0  0  0  0  0  0  0  0  0  0  0  0
    6.7184  -14.4989   25.7172 C   0  0  0  0  0  0  0  0  0  0  0  0
    6.6947  -13.3157   26.4403 C   0  0  0  0  0  0  0  0  0  0  0  0
    6.9617  -12.1110   25.8313 C   0  0  0  0  0  0  0  0  0  0  0  0
    7.2495  -12.1436   24.4846 C   0  0  0  0  0  0  0  0  0  0  0  0
    7.2741  -13.3284   23.7581 C   0  0  0  0  0  0  0  0  0  0  0  0
    7.0100  -14.5232   24.3616 C   0  0  0  0  0  0  0  0  0  0  0  0
    9.5863  -16.9021   22.9727 C   0  0  0  0  0  0  0  0  0  0  0  0
   10.5502  -17.5691   22.5261 O   0  0  0  0  0  0  0  0  0  0  0  0
    9.4560  -16.7966   24.3832 N   0  0  0  0  0  0  0  0  0  0  0  0
   10.5255  -16.9973   25.3083 C   0  0  1  0  0  0  0  0  0  0  0  0
   11.2082  -15.6945   25.7588 C   0  0  0  0  0  0  0  0  0  0  0  0
   10.5686  -15.1611   26.9681 C   0  0  0  0  0  0  0  0  0  0  0  0
    9.8416  -14.0090   26.9357 C   0  0  0  0  0  0  0  0  0  0  0  0
    9.2395  -13.4811   28.0875 C   0  0  0  0  0  0  0  0  0  0  0  0
    9.3830  -14.1412   29.2868 C   0  0  0  0  0  0  0  0  0  0  0  0
   10.1049  -15.3000   29.3558 C   0  0  0  0  0  0  0  0  0  0  0  0
   10.6826  -15.7898   28.2072 C   0  0  0  0  0  0  0  0  0  0  0  0
   10.2086  -17.8877   26.4183 C   0  0  0  0  0  0  0  0  0  0  0  0
   11.0913  -18.2189   27.2732 O   0  0  0  0  0  0  0  0  0  0  0  0
    8.9419  -18.4174   26.6018 O   0  0  0  0  0  0  0  0  0  0  0  0
  2  1  1  6
  3  2  1  0
  4  5  2  0
  4  3  1  0
  6  5  1  0
  7  8  2  0
  7  6  1  0
  8  4  1  0
  9  2  1  0
 10  9  2  0
 11  9  1  0
 12 13  1  1
 12 11  1  0
 13 14  1  0
 14 22  1  0
 14 15  2  0
 15 16  1  0
 17 16  1  0
 17 18  2  0
 19 18  1  0
 20 19  2  0
 21 20  1  0
 21 22  2  0
 22 17  1  0
 23 12  1  0
 24 23  2  0
 25 23  1  0
 26 25  1  0
 26 27  1  1
 27 28  1  0
 28 33  1  0
 29 28  2  0
 29 30  1  0
 30 31  2  0
 31 32  1  0
 33 32  2  0
 34 36  1  0
 34 26  1  0
 35 34  2  0
M  END
$$$$
