HWF.pdb
     RDKit          3D

 36 39  0  0  1  0  0  0  0  0999 V2000
   11.2861  -15.8971   18.4954 N   0  0  0  0  0  0  0  0  0  0  0  0
   10.8759  -17.1128   19.2406 C   0  0  1  0  0  0  0  0  0  0  0  0
   12.0825  -18.0145   19.2328 C   0  0  0  0  0  0  0  0  0  0  0  0
   12.3028  -18.6885   17.9474 C   0  0  0  0  0  0  0  0  0  0  0  0
   12.1640  -18.0308   16.7357 C   0  0  0  0  0  0  0  0  0  0  0  0
   12.4258  -18.8870   15.7333 N   0  0  0  0  0  0  0  0  0  0  0  0
   12.7215  -20.0526   16.3092 C   0  0  0  0  0  0  0  0  0  0  0  0
   12.6507  -19.9468   17.6523 N   0  0  0  0  0  0  0  0  0  0  0  0
   10.4869  -16.7013   20.6246 C   0  0  0  0  0  0  0  0  0  0  0  0
   11.2169  -16.0242   21.3533 O   0  0  0  0  0  0  0  0  0  0  0  0
    9.2139  -17.0793   21.2001 N   0  0  0  0  0  0  0  0  0  0  0  0
    8.9074  -16.8494   22.5759 C   0  0  1  0  0  0  0  0  0  0  0  0
    7.4513  -16.9093   22.8533 C   0  0  0  0  0  0  0  0  0  0  0  0
    6.9760  -16.0559   23.9642 C   0  0  0  0  0  0  0  0  0  0  0  0
    6.2807  -16.5243   25.0912 C   0  0  0  0  0  0  0  0  0  0  0  0
    6.0257  -15.4943   25.9091 N   0  0  0  0  0  0  0  0  0  0  0  0
    6.5143  -14.3448   25.3919 C   0  0  0  0  0  0  0  0  0  0  0  0
    6.5013  -13.0324   25.8400 C   0  0  0  0  0  0  0  0  0  0  0  0
    7.0754  -12.0271   25.0963 C   0  0  0  0  0  0  0  0  0  0  0  0
    7.6552  -12.3895   23.9005 C   0  0  0  0  0  0  0  0  0  0  0  0
    7.6696  -13.7043   23.4497 C   0  0  0  0  0  0  0  0  0  0  0  0
    7.1010  -14.7016   24.1870 C   0  0  0  0  0  0  0  0  0  0  0  0
    9.6952  -17.7341   23.4855 C   0  0  0  0  0  0  0  0  0  0  0  0
   10.7413  -18.2964   23.0817 O   0  0  0  0  0  0  0  0  0  0  0  0
    9.2966  -17.9709   24.8281 N   0  0  0  0  0  0  0  0  0  0  0  0
    9.7550  -17.2149   25.9499 C   0  0  1  0  0  0  0  0  0  0  0  0
    9.5275  -15.6999   25.8112 C   0  0  0  0  0  0  0  0  0  0  0  0
    9.9765  -14.9920   27.0167 C   0  0  0  0  0  0  0  0  0  0  0  0
   10.4152  -15.6699   28.1144 C   0  0  0  0  0  0  0  0  0  0  0  0
   10.8313  -15.0051   29.2774 C   0  0  0  0  0  0  0  0  0  0  0  0
   10.7986  -13.6296   29.3167 C   0  0  0  0  0  0  0  0  0  0  0  0
   10.3649  -12.9174   28.2334 C   0  0  0  0  0  0  0  0  0  0  0  0
    9.9634  -13.6010   27.1090 C   0  0  0  0  0  0  0  0  0  0  0  0
    9.3374  -17.7375   27.2452 C   0  0  0  0  0  0  0  0  0  0  0  0
   10.1896  -18.1104   28.1138 O   0  0  0  0  0  0  0  0  0  0  0  0
    8.0033  -17.8560   27.5987 O   0  0  0  0  0  0  0  0  0  0  0  0
  2  1  1  6
  3  2  1  0
  4  5  2  0
  4  3  1  0
  6  5  1  0
  7  8  2  0
  7  6  1  0
  8  4  1  0
  9  2  1  0
 10  9  2  0
 11  9  1  0
 12 13  1  6
 12 11  1  0
 13 14  1  0
 14 22  1  0
 14 15  2  0
 15 16  1  0
 17 16  1  0
 17 18  2  0
 19 18  1  0
 20 19  2  0
 21 20  1  0
 21 22  2  0
 22 17  1  0
 23 12  1  0
 24 23  2  0
 25 23  1  0
 26 25  1  0
 26 27  1  6
 27 28  1  0
 28 33  1  0
 29 28  2  0
 29 30  1  0
 30 31  2  0
 31 32  1  0
 33 32  2  0
 34 36  1  0
 34 26  1  0
 35 34  2  0
M  END
$$$$
