HWF.pdb
     RDKit          3D

 36 39  0  0  1  0  0  0  0  0999 V2000
   10.7609  -17.0654   18.3626 N   0  0  0  0  0  0  0  0  0  0  0  0
   10.7147  -18.0036   19.5112 C   0  0  1  0  0  0  0  0  0  0  0  0
   12.0889  -18.6160   19.5848 C   0  0  0  0  0  0  0  0  0  0  0  0
   12.3652  -19.5690   18.5029 C   0  0  0  0  0  0  0  0  0  0  0  0
   11.7629  -20.8157   18.4457 C   0  0  0  0  0  0  0  0  0  0  0  0
   12.1981  -21.4692   17.3548 N   0  0  0  0  0  0  0  0  0  0  0  0
   13.0529  -20.6466   16.7463 C   0  0  0  0  0  0  0  0  0  0  0  0
   13.1640  -19.4900   17.4319 N   0  0  0  0  0  0  0  0  0  0  0  0
   10.3790  -17.2194   20.7394 C   0  0  0  0  0  0  0  0  0  0  0  0
   11.1088  -16.3320   21.1891 O   0  0  0  0  0  0  0  0  0  0  0  0
    9.1618  -17.4591   21.4849 N   0  0  0  0  0  0  0  0  0  0  0  0
    8.8397  -16.7222   22.6649 C   0  0  1  0  0  0  0  0  0  0  0  0
    7.3776  -16.5498   22.8481 C   0  0  0  0  0  0  0  0  0  0  0  0
    6.9633  -15.9002   24.1110 C   0  0  0  0  0  0  0  0  0  0  0  0
    6.2917  -16.5485   25.1605 C   0  0  0  0  0  0  0  0  0  0  0  0
    6.0930  -15.6773   26.1589 N   0  0  0  0  0  0  0  0  0  0  0  0
    6.5973  -14.4647   25.8385 C   0  0  0  0  0  0  0  0  0  0  0  0
    6.6365  -13.2546   26.5150 C   0  0  0  0  0  0  0  0  0  0  0  0
    7.2148  -12.1447   25.9430 C   0  0  0  0  0  0  0  0  0  0  0  0
    7.7448  -12.2985   24.6809 C   0  0  0  0  0  0  0  0  0  0  0  0
    7.7070  -13.5105   24.0013 C   0  0  0  0  0  0  0  0  0  0  0  0
    7.1342  -14.6114   24.5682 C   0  0  0  0  0  0  0  0  0  0  0  0
    9.5014  -17.2844   23.8802 C   0  0  0  0  0  0  0  0  0  0  0  0
    9.4754  -18.5174   24.1091 O   0  0  0  0  0  0  0  0  0  0  0  0
   10.1790  -16.4555   24.8137 N   0  0  0  0  0  0  0  0  0  0  0  0
   10.9634  -16.9430   25.9032 C   0  0  1  0  0  0  0  0  0  0  0  0
   11.7021  -15.8386   26.6783 C   0  0  0  0  0  0  0  0  0  0  0  0
   10.7712  -15.0848   27.5275 C   0  0  0  0  0  0  0  0  0  0  0  0
   10.4588  -15.5070   28.7849 C   0  0  0  0  0  0  0  0  0  0  0  0
    9.5585  -14.8041   29.5994 C   0  0  0  0  0  0  0  0  0  0  0  0
    8.9716  -13.6547   29.1209 C   0  0  0  0  0  0  0  0  0  0  0  0
    9.2626  -13.2017   27.8643 C   0  0  0  0  0  0  0  0  0  0  0  0
   10.1494  -13.9155   27.0918 C   0  0  0  0  0  0  0  0  0  0  0  0
   10.2722  -17.8856   26.7744 C   0  0  0  0  0  0  0  0  0  0  0  0
   10.8981  -18.5420   27.6672 O   0  0  0  0  0  0  0  0  0  0  0  0
    8.9097  -18.1168   26.6794 O   0  0  0  0  0  0  0  0  0  0  0  0
  2  1  1  6
  3  2  1  0
  4  5  2  0
  4  3  1  0
  6  5  1  0
  7  8  2  0
  7  6  1  0
  8  4  1  0
  9  2  1  0
 10  9  2  0
 11  9  1  0
 12 13  1  1
 12 11  1  0
 13 14  1  0
 14 22  1  0
 14 15  2  0
 15 16  1  0
 17 16  1  0
 17 18  2  0
 19 18  1  0
 20 19  2  0
 21 20  1  0
 21 22  2  0
 22 17  1  0
 23 12  1  0
 24 23  2  0
 25 23  1  0
 26 25  1  0
 26 27  1  1
 27 28  1  0
 28 33  1  0
 29 28  2  0
 29 30  1  0
 30 31  2  0
 31 32  1  0
 33 32  2  0
 34 36  1  0
 34 26  1  0
 35 34  2  0
M  END
$$$$
