HWF.pdb
     RDKit          3D

 36 39  0  0  1  0  0  0  0  0999 V2000
    8.2911  -17.6811   19.1484 N   0  0  0  0  0  0  0  0  0  0  0  0
    9.6280  -17.3078   19.6727 C   0  0  1  0  0  0  0  0  0  0  0  0
   10.1925  -16.3315   18.6742 C   0  0  0  0  0  0  0  0  0  0  0  0
   10.5140  -16.9391   17.3771 C   0  0  0  0  0  0  0  0  0  0  0  0
   11.7015  -17.6176   17.1538 C   0  0  0  0  0  0  0  0  0  0  0  0
   11.7253  -18.0655   15.8868 N   0  0  0  0  0  0  0  0  0  0  0  0
   10.5770  -17.6741   15.3336 C   0  0  0  0  0  0  0  0  0  0  0  0
    9.8323  -16.9896   16.2263 N   0  0  0  0  0  0  0  0  0  0  0  0
    9.4430  -16.6919   21.0227 C   0  0  0  0  0  0  0  0  0  0  0  0
    9.5981  -15.4868   21.2373 O   0  0  0  0  0  0  0  0  0  0  0  0
    9.0672  -17.4840   22.1743 N   0  0  0  0  0  0  0  0  0  0  0  0
    9.0625  -16.9430   23.4959 C   0  0  1  0  0  0  0  0  0  0  0  0
    7.7973  -17.2183   24.2201 C   0  0  0  0  0  0  0  0  0  0  0  0
    7.0592  -16.0270   24.6940 C   0  0  0  0  0  0  0  0  0  0  0  0
    5.8276  -16.0656   25.3681 C   0  0  0  0  0  0  0  0  0  0  0  0
    5.4557  -14.8155   25.6749 N   0  0  0  0  0  0  0  0  0  0  0  0
    6.3764  -13.9260   25.2406 C   0  0  0  0  0  0  0  0  0  0  0  0
    6.4495  -12.5425   25.3039 C   0  0  0  0  0  0  0  0  0  0  0  0
    7.5178  -11.8667   24.7603 C   0  0  0  0  0  0  0  0  0  0  0  0
    8.4960  -12.6275   24.1587 C   0  0  0  0  0  0  0  0  0  0  0  0
    8.4248  -14.0142   24.0945 C   0  0  0  0  0  0  0  0  0  0  0  0
    7.3661  -14.6848   24.6338 C   0  0  0  0  0  0  0  0  0  0  0  0
   10.2658  -17.3547   24.2791 C   0  0  0  0  0  0  0  0  0  0  0  0
   10.9109  -18.3837   23.9654 O   0  0  0  0  0  0  0  0  0  0  0  0
   10.7226  -16.6063   25.3966 N   0  0  0  0  0  0  0  0  0  0  0  0
   11.8439  -16.9676   26.2042 C   0  0  1  0  0  0  0  0  0  0  0  0
   12.2973  -15.8575   27.1677 C   0  0  0  0  0  0  0  0  0  0  0  0
   11.1813  -15.4097   28.0105 C   0  0  0  0  0  0  0  0  0  0  0  0
   11.0039  -15.8988   29.2699 C   0  0  0  0  0  0  0  0  0  0  0  0
    9.9325  -15.4908   30.0783 C   0  0  0  0  0  0  0  0  0  0  0  0
    9.0324  -14.5703   29.5914 C   0  0  0  0  0  0  0  0  0  0  0  0
    9.1801  -14.0581   28.3326 C   0  0  0  0  0  0  0  0  0  0  0  0
   10.2419  -14.4803   27.5662 C   0  0  0  0  0  0  0  0  0  0  0  0
   11.7330  -18.2707   26.8483 C   0  0  0  0  0  0  0  0  0  0  0  0
   10.6339  -18.9125   26.8576 O   0  0  0  0  0  0  0  0  0  0  0  0
   12.8069  -18.8764   27.4797 O   0  0  0  0  0  0  0  0  0  0  0  0
  2  1  1  6
  3  2  1  0
  4  5  2  0
  4  3  1  0
  6  5  1  0
  7  8  2  0
  7  6  1  0
  8  4  1  0
  9  2  1  0
 10  9  2  0
 11  9  1  0
 12 13  1  1
 12 11  1  0
 13 14  1  0
 14 22  1  0
 14 15  2  0
 15 16  1  0
 17 16  1  0
 17 18  2  0
 19 18  1  0
 20 19  2  0
 21 20  1  0
 21 22  2  0
 22 17  1  0
 23 12  1  0
 24 23  2  0
 25 23  1  0
 26 25  1  0
 26 27  1  1
 27 28  1  0
 28 33  1  0
 29 28  2  0
 29 30  1  0
 30 31  2  0
 31 32  1  0
 33 32  2  0
 34 36  1  0
 34 26  1  0
 35 34  2  0
M  END
$$$$
