HWF.pdb
     RDKit          3D

 36 39  0  0  1  0  0  0  0  0999 V2000
    9.5411  -18.3024   19.7341 N   0  0  0  0  0  0  0  0  0  0  0  0
   10.1817  -18.5362   21.0519 C   0  0  1  0  0  0  0  0  0  0  0  0
   11.5225  -19.1493   20.7433 C   0  0  0  0  0  0  0  0  0  0  0  0
   11.4321  -20.4825   20.1354 C   0  0  0  0  0  0  0  0  0  0  0  0
   11.4850  -21.6432   20.8905 C   0  0  0  0  0  0  0  0  0  0  0  0
   11.3777  -22.7074   20.0766 N   0  0  0  0  0  0  0  0  0  0  0  0
   11.2604  -22.2192   18.8415 C   0  0  0  0  0  0  0  0  0  0  0  0
   11.2919  -20.8706   18.8622 N   0  0  0  0  0  0  0  0  0  0  0  0
   10.3094  -17.2187   21.7475 C   0  0  0  0  0  0  0  0  0  0  0  0
   11.1396  -16.3660   21.4222 O   0  0  0  0  0  0  0  0  0  0  0  0
    9.4558  -16.8611   22.8603 N   0  0  0  0  0  0  0  0  0  0  0  0
    9.5425  -15.5882   23.5019 C   0  0  1  0  0  0  0  0  0  0  0  0
    8.2739  -14.8230   23.4240 C   0  0  0  0  0  0  0  0  0  0  0  0
    7.6456  -14.7606   22.0861 C   0  0  0  0  0  0  0  0  0  0  0  0
    6.6410  -15.6314   21.6332 C   0  0  0  0  0  0  0  0  0  0  0  0
    6.2813  -15.2789   20.3917 N   0  0  0  0  0  0  0  0  0  0  0  0
    6.9946  -14.2082   19.9765 C   0  0  0  0  0  0  0  0  0  0  0  0
    7.0018  -13.4853   18.7929 C   0  0  0  0  0  0  0  0  0  0  0  0
    7.8555  -12.4198   18.6220 C   0  0  0  0  0  0  0  0  0  0  0  0
    8.6901  -12.1146   19.6745 C   0  0  0  0  0  0  0  0  0  0  0  0
    8.6843  -12.8376   20.8617 C   0  0  0  0  0  0  0  0  0  0  0  0
    7.8376  -13.8938   21.0319 C   0  0  0  0  0  0  0  0  0  0  0  0
   10.0561  -15.6944   24.9004 C   0  0  0  0  0  0  0  0  0  0  0  0
   11.0122  -14.9798   25.2858 O   0  0  0  0  0  0  0  0  0  0  0  0
    9.4891  -16.5975   25.8387 N   0  0  0  0  0  0  0  0  0  0  0  0
    9.7884  -16.6016   27.2352 C   0  0  1  0  0  0  0  0  0  0  0  0
    8.6321  -16.1024   28.1185 C   0  0  0  0  0  0  0  0  0  0  0  0
    8.2340  -14.7415   27.7374 C   0  0  0  0  0  0  0  0  0  0  0  0
    7.0700  -14.5045   27.0695 C   0  0  0  0  0  0  0  0  0  0  0  0
    6.6869  -13.2108   26.6859 C   0  0  0  0  0  0  0  0  0  0  0  0
    7.5051  -12.1467   26.9905 C   0  0  0  0  0  0  0  0  0  0  0  0
    8.6798  -12.3476   27.6602 C   0  0  0  0  0  0  0  0  0  0  0  0
    9.0255  -13.6294   28.0212 C   0  0  0  0  0  0  0  0  0  0  0  0
   10.3858  -17.8383   27.7241 C   0  0  0  0  0  0  0  0  0  0  0  0
   10.5096  -18.8561   26.9701 O   0  0  0  0  0  0  0  0  0  0  0  0
   10.8471  -17.9726   29.0233 O   0  0  0  0  0  0  0  0  0  0  0  0
  2  1  1  6
  3  2  1  0
  4  5  2  0
  4  3  1  0
  6  5  1  0
  7  8  2  0
  7  6  1  0
  8  4  1  0
  9  2  1  0
 10  9  2  0
 11  9  1  0
 12 13  1  1
 12 11  1  0
 13 14  1  0
 14 22  1  0
 14 15  2  0
 15 16  1  0
 17 16  1  0
 17 18  2  0
 19 18  1  0
 20 19  2  0
 21 20  1  0
 21 22  2  0
 22 17  1  0
 23 12  1  0
 24 23  2  0
 25 23  1  0
 26 25  1  0
 26 27  1  1
 27 28  1  0
 28 33  1  0
 29 28  2  0
 29 30  1  0
 30 31  2  0
 31 32  1  0
 33 32  2  0
 34 36  1  0
 34 26  1  0
 35 34  2  0
M  END
$$$$
