HWF.pdb
     RDKit          3D

 36 39  0  0  1  0  0  0  0  0999 V2000
    9.4917  -21.5827   21.2249 N   0  0  0  0  0  0  0  0  0  0  0  0
    9.2627  -20.9446   22.5447 C   0  0  1  0  0  0  0  0  0  0  0  0
   10.3572  -21.4666   23.4383 C   0  0  0  0  0  0  0  0  0  0  0  0
   10.1099  -22.8253   23.9363 C   0  0  0  0  0  0  0  0  0  0  0  0
    8.9375  -23.5106   23.6605 C   0  0  0  0  0  0  0  0  0  0  0  0
    8.9856  -24.7231   24.2385 N   0  0  0  0  0  0  0  0  0  0  0  0
   10.1630  -24.7907   24.8605 C   0  0  0  0  0  0  0  0  0  0  0  0
   10.8555  -23.6462   24.6857 N   0  0  0  0  0  0  0  0  0  0  0  0
    9.3393  -19.4622   22.3644 C   0  0  0  0  0  0  0  0  0  0  0  0
   10.1882  -18.9156   21.6552 O   0  0  0  0  0  0  0  0  0  0  0  0
    8.4102  -18.5678   23.0216 N   0  0  0  0  0  0  0  0  0  0  0  0
    8.4742  -17.1514   22.8509 C   0  0  1  0  0  0  0  0  0  0  0  0
    7.1609  -16.4926   23.0555 C   0  0  0  0  0  0  0  0  0  0  0  0
    7.1678  -15.0151   22.9816 C   0  0  0  0  0  0  0  0  0  0  0  0
    6.8196  -14.1601   24.0401 C   0  0  0  0  0  0  0  0  0  0  0  0
    6.9606  -12.8886   23.6419 N   0  0  0  0  0  0  0  0  0  0  0  0
    7.3883  -12.8369   22.3605 C   0  0  0  0  0  0  0  0  0  0  0  0
    7.6715  -11.7817   21.5061 C   0  0  0  0  0  0  0  0  0  0  0  0
    8.0905  -12.0114   20.2158 C   0  0  0  0  0  0  0  0  0  0  0  0
    8.2116  -13.3267   19.8245 C   0  0  0  0  0  0  0  0  0  0  0  0
    7.9287  -14.3856   20.6793 C   0  0  0  0  0  0  0  0  0  0  0  0
    7.5137  -14.1584   21.9590 C   0  0  0  0  0  0  0  0  0  0  0  0
    9.5546  -16.5315   23.6750 C   0  0  0  0  0  0  0  0  0  0  0  0
   10.1484  -15.5002   23.2787 O   0  0  0  0  0  0  0  0  0  0  0  0
    9.9478  -17.0780   24.9258 N   0  0  0  0  0  0  0  0  0  0  0  0
   10.9026  -16.4785   25.8026 C   0  0  1  0  0  0  0  0  0  0  0  0
   10.8944  -14.9406   25.7698 C   0  0  0  0  0  0  0  0  0  0  0  0
    9.6596  -14.4124   26.3633 C   0  0  0  0  0  0  0  0  0  0  0  0
    9.5693  -13.1166   26.7752 C   0  0  0  0  0  0  0  0  0  0  0  0
    8.4005  -12.6050   27.3583 C   0  0  0  0  0  0  0  0  0  0  0  0
    7.3107  -13.4300   27.5209 C   0  0  0  0  0  0  0  0  0  0  0  0
    7.3659  -14.7353   27.1184 C   0  0  0  0  0  0  0  0  0  0  0  0
    8.5279  -15.2048   26.5507 C   0  0  0  0  0  0  0  0  0  0  0  0
   10.9068  -17.0195   27.1563 C   0  0  0  0  0  0  0  0  0  0  0  0
   11.7826  -16.6630   28.0082 O   0  0  0  0  0  0  0  0  0  0  0  0
    9.9673  -17.9423   27.5859 O   0  0  0  0  0  0  0  0  0  0  0  0
  2  1  1  6
  3  2  1  0
  4  5  2  0
  4  3  1  0
  6  5  1  0
  7  8  2  0
  7  6  1  0
  8  4  1  0
  9  2  1  0
 10  9  2  0
 11  9  1  0
 12 13  1  1
 12 11  1  0
 13 14  1  0
 14 22  1  0
 14 15  2  0
 15 16  1  0
 17 16  1  0
 17 18  2  0
 19 18  1  0
 20 19  2  0
 21 20  1  0
 21 22  2  0
 22 17  1  0
 23 12  1  0
 24 23  2  0
 25 23  1  0
 26 25  1  0
 26 27  1  1
 27 28  1  0
 28 33  1  0
 29 28  2  0
 29 30  1  0
 30 31  2  0
 31 32  1  0
 33 32  2  0
 34 36  1  0
 34 26  1  0
 35 34  2  0
M  END
$$$$
