HWF.pdb
     RDKit          3D

 36 39  0  0  1  0  0  0  0  0999 V2000
    8.7120  -18.1129   20.0058 N   0  0  0  0  0  0  0  0  0  0  0  0
    9.3926  -16.7947   19.9776 C   0  0  1  0  0  0  0  0  0  0  0  0
    8.4583  -15.8765   19.2340 C   0  0  0  0  0  0  0  0  0  0  0  0
    8.2667  -16.2486   17.8269 C   0  0  0  0  0  0  0  0  0  0  0  0
    7.0121  -16.4953   17.2928 C   0  0  0  0  0  0  0  0  0  0  0  0
    7.1375  -16.8108   15.9923 N   0  0  0  0  0  0  0  0  0  0  0  0
    8.4424  -16.7612   15.7231 C   0  0  0  0  0  0  0  0  0  0  0  0
    9.1395  -16.4215   16.8270 N   0  0  0  0  0  0  0  0  0  0  0  0
    9.6128  -16.3543   21.3895 C   0  0  0  0  0  0  0  0  0  0  0  0
   10.1299  -15.2730   21.6821 O   0  0  0  0  0  0  0  0  0  0  0  0
    9.2285  -17.1826   22.5125 N   0  0  0  0  0  0  0  0  0  0  0  0
    9.4516  -16.7767   23.8634 C   0  0  1  0  0  0  0  0  0  0  0  0
    8.2993  -17.0796   24.7473 C   0  0  0  0  0  0  0  0  0  0  0  0
    7.2535  -16.0355   24.8155 C   0  0  0  0  0  0  0  0  0  0  0  0
    5.8719  -16.2833   24.7635 C   0  0  0  0  0  0  0  0  0  0  0  0
    5.2131  -15.1222   24.8771 N   0  0  0  0  0  0  0  0  0  0  0  0
    6.0815  -14.0939   25.0037 C   0  0  0  0  0  0  0  0  0  0  0  0
    5.9038  -12.7252   25.1402 C   0  0  0  0  0  0  0  0  0  0  0  0
    6.9848  -11.8799   25.2414 C   0  0  0  0  0  0  0  0  0  0  0  0
    8.2344  -12.4582   25.2004 C   0  0  0  0  0  0  0  0  0  0  0  0
    8.4147  -13.8297   25.0639 C   0  0  0  0  0  0  0  0  0  0  0  0
    7.3431  -14.6683   24.9641 C   0  0  0  0  0  0  0  0  0  0  0  0
   10.7382  -17.3058   24.4069 C   0  0  0  0  0  0  0  0  0  0  0  0
   11.2600  -18.3384   23.9223 O   0  0  0  0  0  0  0  0  0  0  0  0
   11.4147  -16.6682   25.4809 N   0  0  0  0  0  0  0  0  0  0  0  0
   12.4827  -17.2578   26.2237 C   0  0  1  0  0  0  0  0  0  0  0  0
   13.1318  -16.3030   27.2402 C   0  0  0  0  0  0  0  0  0  0  0  0
   12.1144  -15.6863   28.1008 C   0  0  0  0  0  0  0  0  0  0  0  0
   11.4246  -14.5809   27.7020 C   0  0  0  0  0  0  0  0  0  0  0  0
   10.4619  -13.9735   28.5219 C   0  0  0  0  0  0  0  0  0  0  0  0
   10.2019  -14.5049   29.7647 C   0  0  0  0  0  0  0  0  0  0  0  0
   10.8746  -15.6137   30.1968 C   0  0  0  0  0  0  0  0  0  0  0  0
   11.8128  -16.1841   29.3676 C   0  0  0  0  0  0  0  0  0  0  0  0
   12.1798  -18.5682   26.7859 C   0  0  0  0  0  0  0  0  0  0  0  0
   13.0954  -19.3080   27.2698 O   0  0  0  0  0  0  0  0  0  0  0  0
   10.8914  -19.0758   26.8240 O   0  0  0  0  0  0  0  0  0  0  0  0
  2  1  1  1
  3  2  1  0
  4  5  2  0
  4  3  1  0
  6  5  1  0
  7  8  2  0
  7  6  1  0
  8  4  1  0
  9  2  1  0
 10  9  2  0
 11  9  1  0
 12 13  1  1
 12 11  1  0
 13 14  1  0
 14 22  1  0
 14 15  2  0
 15 16  1  0
 17 16  1  0
 17 18  2  0
 19 18  1  0
 20 19  2  0
 21 20  1  0
 21 22  2  0
 22 17  1  0
 23 12  1  0
 24 23  2  0
 25 23  1  0
 26 25  1  0
 26 27  1  1
 27 28  1  0
 28 33  1  0
 29 28  2  0
 29 30  1  0
 30 31  2  0
 31 32  1  0
 33 32  2  0
 34 36  1  0
 34 26  1  0
 35 34  2  0
M  END
$$$$
