LYQ.pdb
     RDKit          3D

 30 30  0  0  1  0  0  0  0  0999 V2000
    6.6531  -12.3241   18.2020 C   0  0  0  0  0  0  0  0  0  0  0  0
    7.0273  -13.6925   18.7132 C   0  0  1  0  0  0  0  0  0  0  0  0
    7.4077  -14.5297   17.5096 C   0  0  0  0  0  0  0  0  0  0  0  0
    8.1248  -13.6406   19.7470 C   0  0  0  0  0  0  0  0  0  0  0  0
    8.4063  -14.9883   20.3478 C   0  0  2  0  0  0  0  0  0  0  0  0
    7.1374  -15.6644   20.5217 N   0  0  0  0  0  0  0  0  0  0  0  0
    9.0255  -14.8241   21.6641 C   0  0  0  0  0  0  0  0  0  0  0  0
   10.1791  -14.3326   21.7928 O   0  0  0  0  0  0  0  0  0  0  0  0
   10.1814  -14.2293   30.4287 O   0  0  0  0  0  0  0  0  0  0  0  0
    9.6285  -14.4361   29.1706 C   0  0  0  0  0  0  0  0  0  0  0  0
    9.4528  -15.7105   28.6581 C   0  0  0  0  0  0  0  0  0  0  0  0
    8.9050  -15.9223   27.4111 C   0  0  0  0  0  0  0  0  0  0  0  0
    8.5034  -14.8679   26.6095 C   0  0  0  0  0  0  0  0  0  0  0  0
    7.9146  -15.0672   25.2662 C   0  0  0  0  0  0  0  0  0  0  0  0
    8.9375  -14.9420   24.1912 C   0  0  2  0  0  0  0  0  0  0  0  0
    8.3771  -15.2026   22.8706 N   0  0  0  0  0  0  0  0  0  0  0  0
   10.1758  -15.7222   24.4070 C   0  0  0  0  0  0  0  0  0  0  0  0
   11.2229  -15.2609   24.9236 O   0  0  0  0  0  0  0  0  0  0  0  0
    8.6910  -13.5971   27.1483 C   0  0  0  0  0  0  0  0  0  0  0  0
    9.2363  -13.3708   28.3912 C   0  0  0  0  0  0  0  0  0  0  0  0
   10.2723  -19.1712   28.1321 N   0  0  0  0  0  0  0  0  0  0  0  0
    9.9322  -19.9709   27.0091 C   0  0  0  0  0  0  0  0  0  0  0  0
    9.1359  -20.9173   27.1984 O   0  0  0  0  0  0  0  0  0  0  0  0
   10.4792  -19.7131   25.6789 C   0  0  0  0  0  0  0  0  0  0  0  0
   11.4489  -18.5790   25.5838 C   0  0  0  0  0  0  0  0  0  0  0  0
   11.4728  -17.8774   24.2560 C   0  0  2  0  0  0  0  0  0  0  0  0
   10.2610  -17.1116   24.0240 N   0  0  0  0  0  0  0  0  0  0  0  0
   11.5621  -18.9034   23.1767 C   0  0  0  0  0  0  0  0  0  0  0  0
   12.6685  -19.7367   23.0365 O   0  0  0  0  0  0  0  0  0  0  0  0
   10.6248  -19.0340   22.3639 O   0  0  0  0  0  0  0  0  0  0  0  0
  2  1  1  6
  2  3  1  0
  4  2  1  0
  5  4  1  0
  5  6  1  1
  7  5  1  0
  7  8  2  0
  9 10  1  0
 10 11  2  0
 11 12  1  0
 13 12  2  0
 13 14  1  0
 15 14  1  1
 15 16  1  0
 16  7  1  0
 17 15  1  0
 18 17  2  0
 19 13  1  0
 20 10  1  0
 20 19  2  0
 21 22  1  0
 22 23  2  0
 22 24  1  0
 24 25  1  0
 26 25  1  1
 26 27  1  0
 27 17  1  0
 28 29  1  0
 28 26  1  0
 30 28  2  0
M  END
$$$$
