LYQ.pdb
     RDKit          3D

 30 30  0  0  1  0  0  0  0  0999 V2000
    7.3924  -11.9597   18.8269 C   0  0  0  0  0  0  0  0  0  0  0  0
    7.5535  -13.3898   19.2773 C   0  0  1  0  0  0  0  0  0  0  0  0
    7.9993  -14.1900   18.0709 C   0  0  0  0  0  0  0  0  0  0  0  0
    8.5062  -13.5235   20.4394 C   0  0  0  0  0  0  0  0  0  0  0  0
    8.6790  -14.9510   20.8737 C   0  0  2  0  0  0  0  0  0  0  0  0
    7.3582  -15.5191   21.0479 N   0  0  0  0  0  0  0  0  0  0  0  0
    9.3739  -14.9963   22.1613 C   0  0  0  0  0  0  0  0  0  0  0  0
   10.6074  -14.7530   22.2532 O   0  0  0  0  0  0  0  0  0  0  0  0
   11.0662  -15.2408   30.8520 O   0  0  0  0  0  0  0  0  0  0  0  0
   10.4317  -15.1786   29.6172 C   0  0  0  0  0  0  0  0  0  0  0  0
   10.3705  -13.9995   28.8937 C   0  0  0  0  0  0  0  0  0  0  0  0
    9.7428  -13.9313   27.6685 C   0  0  0  0  0  0  0  0  0  0  0  0
    9.1418  -15.0416   27.1015 C   0  0  0  0  0  0  0  0  0  0  0  0
    8.4595  -14.9954   25.7888 C   0  0  0  0  0  0  0  0  0  0  0  0
    9.3892  -15.3202   24.6718 C   0  0  2  0  0  0  0  0  0  0  0  0
    8.7143  -15.3134   23.3795 N   0  0  0  0  0  0  0  0  0  0  0  0
   10.1813  -16.5568   24.8519 C   0  0  0  0  0  0  0  0  0  0  0  0
    9.7296  -17.7171   24.6918 O   0  0  0  0  0  0  0  0  0  0  0  0
    9.2176  -16.2144   27.8493 C   0  0  0  0  0  0  0  0  0  0  0  0
    9.8408  -16.2972   29.0732 C   0  0  0  0  0  0  0  0  0  0  0  0
   15.7741  -17.5369   21.9516 N   0  0  0  0  0  0  0  0  0  0  0  0
   15.0826  -16.5954   22.7590 C   0  0  0  0  0  0  0  0  0  0  0  0
   15.6488  -15.5015   22.9780 O   0  0  0  0  0  0  0  0  0  0  0  0
   13.7621  -16.8754   23.3188 C   0  0  0  0  0  0  0  0  0  0  0  0
   13.7511  -17.4783   24.6870 C   0  0  0  0  0  0  0  0  0  0  0  0
   12.3841  -17.7086   25.2652 C   0  0  2  0  0  0  0  0  0  0  0  0
   11.5719  -16.5052   25.2363 N   0  0  0  0  0  0  0  0  0  0  0  0
   12.5328  -18.1087   26.6947 C   0  0  0  0  0  0  0  0  0  0  0  0
   11.9945  -17.3556   27.7345 O   0  0  0  0  0  0  0  0  0  0  0  0
   13.1563  -19.1487   26.9876 O   0  0  0  0  0  0  0  0  0  0  0  0
  2  1  1  6
  2  3  1  0
  4  2  1  0
  5  4  1  0
  5  6  1  1
  7  5  1  0
  7  8  2  0
  9 10  1  0
 10 11  2  0
 11 12  1  0
 13 12  2  0
 13 14  1  0
 15 14  1  1
 15 16  1  0
 16  7  1  0
 17 15  1  0
 18 17  2  0
 19 13  1  0
 20 10  1  0
 20 19  2  0
 21 22  1  0
 22 23  2  0
 22 24  1  0
 24 25  1  0
 26 25  1  1
 26 27  1  0
 27 17  1  0
 28 29  1  0
 28 26  1  0
 30 28  2  0
M  END
$$$$
