LYQ.pdb
     RDKit          3D

 30 30  0  0  1  0  0  0  0  0999 V2000
    7.5206  -13.1280   19.1788 C   0  0  0  0  0  0  0  0  0  0  0  0
    8.0879  -14.1198   18.1949 C   0  0  1  0  0  0  0  0  0  0  0  0
    8.0556  -13.4630   16.8304 C   0  0  0  0  0  0  0  0  0  0  0  0
    9.4720  -14.5826   18.5771 C   0  0  0  0  0  0  0  0  0  0  0  0
    9.4434  -15.6831   19.5992 C   0  0  2  0  0  0  0  0  0  0  0  0
    8.2211  -16.4342   19.4003 N   0  0  0  0  0  0  0  0  0  0  0  0
    9.4176  -15.1083   20.9452 C   0  0  0  0  0  0  0  0  0  0  0  0
   10.3960  -14.4585   21.4030 O   0  0  0  0  0  0  0  0  0  0  0  0
    6.8201  -11.9062   28.7474 O   0  0  0  0  0  0  0  0  0  0  0  0
    6.8377  -12.5176   27.4996 C   0  0  0  0  0  0  0  0  0  0  0  0
    6.9713  -11.7809   26.3347 C   0  0  0  0  0  0  0  0  0  0  0  0
    6.9894  -12.3813   25.0941 C   0  0  0  0  0  0  0  0  0  0  0  0
    6.8747  -13.7533   24.9534 C   0  0  0  0  0  0  0  0  0  0  0  0
    6.8891  -14.4231   23.6336 C   0  0  0  0  0  0  0  0  0  0  0  0
    8.2773  -14.6925   23.1666 C   0  0  2  0  0  0  0  0  0  0  0  0
    8.3027  -15.2417   21.8162 N   0  0  0  0  0  0  0  0  0  0  0  0
    9.1043  -15.5040   24.0866 C   0  0  0  0  0  0  0  0  0  0  0  0
    9.1830  -15.3118   25.3247 O   0  0  0  0  0  0  0  0  0  0  0  0
    6.7417  -14.4707   26.1401 C   0  0  0  0  0  0  0  0  0  0  0  0
    6.7220  -13.8850   27.3849 C   0  0  0  0  0  0  0  0  0  0  0  0
   11.5292  -21.7171   24.3502 N   0  0  0  0  0  0  0  0  0  0  0  0
   10.2038  -21.2379   24.5238 C   0  0  0  0  0  0  0  0  0  0  0  0
    9.2773  -22.0763   24.4596 O   0  0  0  0  0  0  0  0  0  0  0  0
    9.9150  -19.8267   24.7695 C   0  0  0  0  0  0  0  0  0  0  0  0
   10.7796  -18.8499   24.0388 C   0  0  0  0  0  0  0  0  0  0  0  0
   10.6716  -17.4299   24.5160 C   0  0  2  0  0  0  0  0  0  0  0  0
    9.9004  -16.6064   23.6017 N   0  0  0  0  0  0  0  0  0  0  0  0
   12.0426  -16.8463   24.5891 C   0  0  0  0  0  0  0  0  0  0  0  0
   12.9329  -17.1722   25.6086 O   0  0  0  0  0  0  0  0  0  0  0  0
   12.4217  -16.0385   23.7175 O   0  0  0  0  0  0  0  0  0  0  0  0
  2  1  1  1
  2  3  1  0
  4  2  1  0
  5  4  1  0
  5  6  1  6
  7  5  1  0
  7  8  2  0
  9 10  1  0
 10 11  2  0
 11 12  1  0
 13 12  2  0
 13 14  1  0
 15 14  1  1
 15 16  1  0
 16  7  1  0
 17 15  1  0
 18 17  2  0
 19 13  1  0
 20 10  1  0
 20 19  2  0
 21 22  1  0
 22 23  2  0
 22 24  1  0
 24 25  1  0
 26 25  1  6
 26 27  1  0
 27 17  1  0
 28 29  1  0
 28 26  1  0
 30 28  2  0
M  END
$$$$
