LYQ.pdb
     RDKit          3D

 30 30  0  0  1  0  0  0  0  0999 V2000
    7.6249  -12.1474   19.7926 C   0  0  0  0  0  0  0  0  0  0  0  0
    7.7820  -13.6125   20.1128 C   0  0  1  0  0  0  0  0  0  0  0  0
    7.6637  -14.3698   18.8063 C   0  0  0  0  0  0  0  0  0  0  0  0
    9.0737  -13.9089   20.8337 C   0  0  0  0  0  0  0  0  0  0  0  0
    9.1227  -15.3146   21.3612 C   0  0  2  0  0  0  0  0  0  0  0  0
    7.7894  -15.8700   21.2531 N   0  0  0  0  0  0  0  0  0  0  0  0
    9.5030  -15.3001   22.7746 C   0  0  0  0  0  0  0  0  0  0  0  0
   10.5586  -14.7338   23.1671 O   0  0  0  0  0  0  0  0  0  0  0  0
    5.9079  -10.5596   26.5349 O   0  0  0  0  0  0  0  0  0  0  0  0
    6.4056  -11.8528   26.4305 C   0  0  0  0  0  0  0  0  0  0  0  0
    7.7622  -12.1157   26.5221 C   0  0  0  0  0  0  0  0  0  0  0  0
    8.2621  -13.3960   26.4194 C   0  0  0  0  0  0  0  0  0  0  0  0
    7.4293  -14.4832   26.2191 C   0  0  0  0  0  0  0  0  0  0  0  0
    7.9400  -15.8677   26.1032 C   0  0  0  0  0  0  0  0  0  0  0  0
    9.1140  -15.9482   25.1905 C   0  0  2  0  0  0  0  0  0  0  0  0
    8.7187  -15.9153   23.7875 N   0  0  0  0  0  0  0  0  0  0  0  0
   10.0414  -17.0699   25.4559 C   0  0  0  0  0  0  0  0  0  0  0  0
   10.4497  -17.3969   26.5971 O   0  0  0  0  0  0  0  0  0  0  0  0
    6.0701  -14.1916   26.1307 C   0  0  0  0  0  0  0  0  0  0  0  0
    5.5570  -12.9189   26.2313 C   0  0  0  0  0  0  0  0  0  0  0  0
   11.4790  -22.6761   22.3539 N   0  0  0  0  0  0  0  0  0  0  0  0
   11.8530  -21.4488   21.7455 C   0  0  0  0  0  0  0  0  0  0  0  0
   12.4076  -21.5089   20.6256 O   0  0  0  0  0  0  0  0  0  0  0  0
   11.6069  -20.1587   22.3860 C   0  0  0  0  0  0  0  0  0  0  0  0
   10.9469  -20.2143   23.7265 C   0  0  0  0  0  0  0  0  0  0  0  0
   11.3125  -19.0942   24.6580 C   0  0  2  0  0  0  0  0  0  0  0  0
   10.5530  -17.8877   24.3817 N   0  0  0  0  0  0  0  0  0  0  0  0
   12.7544  -18.7645   24.4636 C   0  0  0  0  0  0  0  0  0  0  0  0
   13.1682  -17.5934   23.8346 O   0  0  0  0  0  0  0  0  0  0  0  0
   13.6324  -19.5512   24.8711 O   0  0  0  0  0  0  0  0  0  0  0  0
  2  1  1  6
  2  3  1  0
  4  2  1  0
  5  4  1  0
  5  6  1  1
  7  5  1  0
  7  8  2  0
  9 10  1  0
 10 11  2  0
 11 12  1  0
 13 12  2  0
 13 14  1  0
 15 14  1  1
 15 16  1  0
 16  7  1  0
 17 15  1  0
 18 17  2  0
 19 13  1  0
 20 10  1  0
 20 19  2  0
 21 22  1  0
 22 23  2  0
 22 24  1  0
 24 25  1  0
 26 25  1  6
 26 27  1  0
 27 17  1  0
 28 29  1  0
 28 26  1  0
 30 28  2  0
M  END
$$$$
