LYQ.pdb
     RDKit          3D

 30 30  0  0  1  0  0  0  0  0999 V2000
    5.8679  -21.9233   24.4286 C   0  0  0  0  0  0  0  0  0  0  0  0
    5.7258  -20.9014   23.3289 C   0  0  1  0  0  0  0  0  0  0  0  0
    4.3258  -20.3317   23.4274 C   0  0  0  0  0  0  0  0  0  0  0  0
    6.7875  -19.8317   23.3963 C   0  0  0  0  0  0  0  0  0  0  0  0
    6.6995  -18.8678   22.2475 C   0  0  2  0  0  0  0  0  0  0  0  0
    6.8185  -19.6328   21.0235 N   0  0  0  0  0  0  0  0  0  0  0  0
    7.8138  -17.9206   22.3094 C   0  0  0  0  0  0  0  0  0  0  0  0
    8.9449  -18.2016   21.8290 O   0  0  0  0  0  0  0  0  0  0  0  0
    6.8740  -12.9153   17.5461 O   0  0  0  0  0  0  0  0  0  0  0  0
    7.2295  -13.2488   18.8474 C   0  0  0  0  0  0  0  0  0  0  0  0
    6.2834  -13.6492   19.7759 C   0  0  0  0  0  0  0  0  0  0  0  0
    6.6295  -13.9814   21.0681 C   0  0  0  0  0  0  0  0  0  0  0  0
    7.9434  -13.9303   21.5003 C   0  0  0  0  0  0  0  0  0  0  0  0
    8.3419  -14.2795   22.8823 C   0  0  0  0  0  0  0  0  0  0  0  0
    8.8055  -15.6911   22.9830 C   0  0  2  0  0  0  0  0  0  0  0  0
    7.6983  -16.6366   22.9074 N   0  0  0  0  0  0  0  0  0  0  0  0
    9.6786  -15.9856   24.1404 C   0  0  0  0  0  0  0  0  0  0  0  0
    9.2618  -16.3398   25.2704 O   0  0  0  0  0  0  0  0  0  0  0  0
    8.8748  -13.5247   20.5472 C   0  0  0  0  0  0  0  0  0  0  0  0
    8.5438  -13.1903   19.2542 C   0  0  0  0  0  0  0  0  0  0  0  0
   11.8900  -21.0702   23.9504 N   0  0  0  0  0  0  0  0  0  0  0  0
   11.3547  -20.5622   25.1636 C   0  0  0  0  0  0  0  0  0  0  0  0
   10.9668  -21.3950   26.0130 O   0  0  0  0  0  0  0  0  0  0  0  0
   11.2542  -19.1284   25.4270 C   0  0  0  0  0  0  0  0  0  0  0  0
   11.7357  -18.2315   24.3319 C   0  0  0  0  0  0  0  0  0  0  0  0
   11.9829  -16.8082   24.7433 C   0  0  2  0  0  0  0  0  0  0  0  0
   11.1150  -15.8805   24.0399 N   0  0  0  0  0  0  0  0  0  0  0  0
   13.3888  -16.4496   24.3967 C   0  0  0  0  0  0  0  0  0  0  0  0
   13.6988  -15.6285   23.3159 O   0  0  0  0  0  0  0  0  0  0  0  0
   14.3308  -16.8899   25.0858 O   0  0  0  0  0  0  0  0  0  0  0  0
  2  1  1  1
  2  3  1  0
  4  2  1  0
  5  4  1  0
  5  6  1  6
  7  5  1  0
  7  8  2  0
  9 10  1  0
 10 11  2  0
 11 12  1  0
 13 12  2  0
 13 14  1  0
 15 14  1  1
 15 16  1  0
 16  7  1  0
 17 15  1  0
 18 17  2  0
 19 13  1  0
 20 10  1  0
 20 19  2  0
 21 22  1  0
 22 23  2  0
 22 24  1  0
 24 25  1  0
 26 25  1  6
 26 27  1  0
 27 17  1  0
 28 29  1  0
 28 26  1  0
 30 28  2  0
M  END
$$$$
