LYQ.pdb
     RDKit          3D

 30 30  0  0  1  0  0  0  0  0999 V2000
    8.0469  -12.0241   19.9029 C   0  0  0  0  0  0  0  0  0  0  0  0
    7.9385  -13.4140   20.4775 C   0  0  1  0  0  0  0  0  0  0  0  0
    6.5081  -13.8698   20.2761 C   0  0  0  0  0  0  0  0  0  0  0  0
    8.9365  -14.3679   19.8691 C   0  0  0  0  0  0  0  0  0  0  0  0
    8.9801  -15.6845   20.5910 C   0  0  2  0  0  0  0  0  0  0  0  0
    7.6138  -16.1276   20.7774 N   0  0  0  0  0  0  0  0  0  0  0  0
    9.5910  -15.5065   21.9093 C   0  0  0  0  0  0  0  0  0  0  0  0
   10.7821  -15.1137   22.0358 O   0  0  0  0  0  0  0  0  0  0  0  0
   11.0069  -15.0546   30.6297 O   0  0  0  0  0  0  0  0  0  0  0  0
   10.4041  -15.1241   29.3795 C   0  0  0  0  0  0  0  0  0  0  0  0
    9.8822  -16.3109   28.8929 C   0  0  0  0  0  0  0  0  0  0  0  0
    9.2831  -16.3864   27.6539 C   0  0  0  0  0  0  0  0  0  0  0  0
    9.1744  -15.2762   26.8347 C   0  0  0  0  0  0  0  0  0  0  0  0
    8.5380  -15.3302   25.4994 C   0  0  0  0  0  0  0  0  0  0  0  0
    9.5193  -15.6759   24.4340 C   0  0  2  0  0  0  0  0  0  0  0  0
    8.8925  -15.7610   23.1204 N   0  0  0  0  0  0  0  0  0  0  0  0
   10.3488  -16.8704   24.7061 C   0  0  0  0  0  0  0  0  0  0  0  0
    9.9343  -18.0530   24.6305 O   0  0  0  0  0  0  0  0  0  0  0  0
    9.7071  -14.0957   27.3476 C   0  0  0  0  0  0  0  0  0  0  0  0
   10.3077  -14.0055   28.5822 C   0  0  0  0  0  0  0  0  0  0  0  0
   16.2724  -17.0443   23.1326 N   0  0  0  0  0  0  0  0  0  0  0  0
   15.0564  -17.2030   22.4167 C   0  0  0  0  0  0  0  0  0  0  0  0
   15.0920  -17.0263   21.1786 O   0  0  0  0  0  0  0  0  0  0  0  0
   13.8051  -17.5590   23.0821 C   0  0  0  0  0  0  0  0  0  0  0  0
   13.8935  -17.7759   24.5589 C   0  0  0  0  0  0  0  0  0  0  0  0
   12.5715  -17.9224   25.2565 C   0  0  2  0  0  0  0  0  0  0  0  0
   11.7353  -16.7470   25.0889 N   0  0  0  0  0  0  0  0  0  0  0  0
   12.8198  -18.0849   26.7185 C   0  0  0  0  0  0  0  0  0  0  0  0
   13.5104  -19.1775   27.2356 O   0  0  0  0  0  0  0  0  0  0  0  0
   12.4028  -17.2242   27.5193 O   0  0  0  0  0  0  0  0  0  0  0  0
  2  1  1  6
  2  3  1  0
  4  2  1  0
  5  4  1  0
  5  6  1  1
  7  5  1  0
  7  8  2  0
  9 10  1  0
 10 11  2  0
 11 12  1  0
 13 12  2  0
 13 14  1  0
 15 14  1  1
 15 16  1  0
 16  7  1  0
 17 15  1  0
 18 17  2  0
 19 13  1  0
 20 10  1  0
 20 19  2  0
 21 22  1  0
 22 23  2  0
 22 24  1  0
 24 25  1  0
 26 25  1  6
 26 27  1  0
 27 17  1  0
 28 29  1  0
 28 26  1  0
 30 28  2  0
M  END
$$$$
