LYQ.pdb
     RDKit          3D

 30 30  0  0  1  0  0  0  0  0999 V2000
    6.7623  -12.0622   18.6774 C   0  0  0  0  0  0  0  0  0  0  0  0
    7.1926  -13.4914   18.8916 C   0  0  1  0  0  0  0  0  0  0  0  0
    7.4942  -14.0758   17.5270 C   0  0  0  0  0  0  0  0  0  0  0  0
    8.3632  -13.6048   19.8365 C   0  0  0  0  0  0  0  0  0  0  0  0
    8.5132  -14.9913   20.3946 C   0  0  2  0  0  0  0  0  0  0  0  0
    7.2154  -15.6313   20.3332 N   0  0  0  0  0  0  0  0  0  0  0  0
    8.9256  -14.9186   21.7973 C   0  0  0  0  0  0  0  0  0  0  0  0
   10.1294  -14.7316   22.1213 O   0  0  0  0  0  0  0  0  0  0  0  0
    9.0829  -13.9867   30.5635 O   0  0  0  0  0  0  0  0  0  0  0  0
    8.6947  -14.0307   29.2299 C   0  0  0  0  0  0  0  0  0  0  0  0
    8.0116  -15.1176   28.7107 C   0  0  0  0  0  0  0  0  0  0  0  0
    7.6238  -15.1673   27.3889 C   0  0  0  0  0  0  0  0  0  0  0  0
    7.8997  -14.1300   26.5152 C   0  0  0  0  0  0  0  0  0  0  0  0
    7.4967  -14.1588   25.0912 C   0  0  0  0  0  0  0  0  0  0  0  0
    8.4141  -15.0015   24.2751 C   0  0  2  0  0  0  0  0  0  0  0  0
    8.0093  -15.0521   22.8753 N   0  0  0  0  0  0  0  0  0  0  0  0
    8.6610  -16.3598   24.8070 C   0  0  0  0  0  0  0  0  0  0  0  0
    7.8073  -17.2801   24.8238 O   0  0  0  0  0  0  0  0  0  0  0  0
    8.5874  -13.0493   27.0625 C   0  0  0  0  0  0  0  0  0  0  0  0
    8.9807  -12.9860   28.3795 C   0  0  0  0  0  0  0  0  0  0  0  0
   12.9214  -20.4240   23.0999 N   0  0  0  0  0  0  0  0  0  0  0  0
   12.9610  -19.0212   23.3171 C   0  0  0  0  0  0  0  0  0  0  0  0
   13.5756  -18.3274   22.4767 O   0  0  0  0  0  0  0  0  0  0  0  0
   12.3149  -18.3960   24.4690 C   0  0  0  0  0  0  0  0  0  0  0  0
   10.9400  -18.8885   24.7893 C   0  0  0  0  0  0  0  0  0  0  0  0
   10.2020  -18.0790   25.8168 C   0  0  2  0  0  0  0  0  0  0  0  0
    9.9438  -16.7251   25.3593 N   0  0  0  0  0  0  0  0  0  0  0  0
   11.0476  -17.9792   27.0418 C   0  0  0  0  0  0  0  0  0  0  0  0
   11.5824  -16.7694   27.4761 O   0  0  0  0  0  0  0  0  0  0  0  0
   11.2945  -19.0020   27.7118 O   0  0  0  0  0  0  0  0  0  0  0  0
  2  1  1  6
  2  3  1  0
  4  2  1  0
  5  4  1  0
  5  6  1  1
  7  5  1  0
  7  8  2  0
  9 10  1  0
 10 11  2  0
 11 12  1  0
 13 12  2  0
 13 14  1  0
 15 14  1  1
 15 16  1  0
 16  7  1  0
 17 15  1  0
 18 17  2  0
 19 13  1  0
 20 10  1  0
 20 19  2  0
 21 22  1  0
 22 23  2  0
 22 24  1  0
 24 25  1  0
 26 25  1  6
 26 27  1  0
 27 17  1  0
 28 29  1  0
 28 26  1  0
 30 28  2  0
M  END
$$$$
