LYQ.pdb
     RDKit          3D

 30 30  0  0  1  0  0  0  0  0999 V2000
    7.3214  -11.7858   19.3848 C   0  0  0  0  0  0  0  0  0  0  0  0
    7.4992  -13.2675   19.6008 C   0  0  1  0  0  0  0  0  0  0  0  0
    7.3599  -13.9354   18.2484 C   0  0  0  0  0  0  0  0  0  0  0  0
    8.8089  -13.5983   20.2727 C   0  0  0  0  0  0  0  0  0  0  0  0
    8.8576  -15.0188   20.7586 C   0  0  2  0  0  0  0  0  0  0  0  0
    7.4923  -15.4823   20.8958 N   0  0  0  0  0  0  0  0  0  0  0  0
    9.4964  -15.0704   22.0747 C   0  0  0  0  0  0  0  0  0  0  0  0
   10.7415  -14.9259   22.2088 O   0  0  0  0  0  0  0  0  0  0  0  0
   10.8674  -15.3904   30.8207 O   0  0  0  0  0  0  0  0  0  0  0  0
   10.2810  -15.2783   29.5658 C   0  0  0  0  0  0  0  0  0  0  0  0
   10.2677  -14.0765   28.8781 C   0  0  0  0  0  0  0  0  0  0  0  0
    9.6878  -13.9588   27.6332 C   0  0  0  0  0  0  0  0  0  0  0  0
    9.0893  -15.0397   27.0095 C   0  0  0  0  0  0  0  0  0  0  0  0
    8.4577  -14.9402   25.6746 C   0  0  0  0  0  0  0  0  0  0  0  0
    9.3950  -15.3422   24.5894 C   0  0  2  0  0  0  0  0  0  0  0  0
    8.7665  -15.2840   23.2751 N   0  0  0  0  0  0  0  0  0  0  0  0
   10.0777  -16.6384   24.7958 C   0  0  0  0  0  0  0  0  0  0  0  0
    9.4936  -17.7490   24.8319 O   0  0  0  0  0  0  0  0  0  0  0  0
    9.1164  -16.2362   27.7223 C   0  0  0  0  0  0  0  0  0  0  0  0
    9.6915  -16.3684   28.9653 C   0  0  0  0  0  0  0  0  0  0  0  0
   15.5669  -16.3008   23.3213 N   0  0  0  0  0  0  0  0  0  0  0  0
   14.5171  -16.7028   22.4538 C   0  0  0  0  0  0  0  0  0  0  0  0
   14.5785  -16.3221   21.2635 O   0  0  0  0  0  0  0  0  0  0  0  0
   13.4031  -17.5285   22.9146 C   0  0  0  0  0  0  0  0  0  0  0  0
   13.4872  -18.0014   24.3306 C   0  0  0  0  0  0  0  0  0  0  0  0
   12.1850  -17.9909   25.0789 C   0  0  2  0  0  0  0  0  0  0  0  0
   11.5085  -16.7101   24.9746 N   0  0  0  0  0  0  0  0  0  0  0  0
   12.4646  -18.2279   26.5250 C   0  0  0  0  0  0  0  0  0  0  0  0
   12.1366  -17.2956   27.5054 O   0  0  0  0  0  0  0  0  0  0  0  0
   13.0096  -19.2901   26.8868 O   0  0  0  0  0  0  0  0  0  0  0  0
  2  1  1  6
  2  3  1  0
  4  2  1  0
  5  4  1  0
  5  6  1  1
  7  5  1  0
  7  8  2  0
  9 10  1  0
 10 11  2  0
 11 12  1  0
 13 12  2  0
 13 14  1  0
 15 14  1  1
 15 16  1  0
 16  7  1  0
 17 15  1  0
 18 17  2  0
 19 13  1  0
 20 10  1  0
 20 19  2  0
 21 22  1  0
 22 23  2  0
 22 24  1  0
 24 25  1  0
 26 25  1  6
 26 27  1  0
 27 17  1  0
 28 29  1  0
 28 26  1  0
 30 28  2  0
M  END
$$$$
