LYQ.pdb
     RDKit          3D

 30 30  0  0  1  0  0  0  0  0999 V2000
    7.6298  -11.1710   26.1763 C   0  0  0  0  0  0  0  0  0  0  0  0
    6.7429  -12.2532   26.7385 C   0  0  1  0  0  0  0  0  0  0  0  0
    5.5076  -11.5744   27.2931 C   0  0  0  0  0  0  0  0  0  0  0  0
    6.4073  -13.3111   25.7167 C   0  0  0  0  0  0  0  0  0  0  0  0
    7.1772  -14.5819   25.9377 C   0  0  2  0  0  0  0  0  0  0  0  0
    8.3933  -14.2401   26.6461 N   0  0  0  0  0  0  0  0  0  0  0  0
    7.5442  -15.1692   24.6481 C   0  0  0  0  0  0  0  0  0  0  0  0
    6.6908  -15.7416   23.9179 O   0  0  0  0  0  0  0  0  0  0  0  0
    5.8825  -12.7400   18.5368 O   0  0  0  0  0  0  0  0  0  0  0  0
    6.8586  -13.2844   19.3626 C   0  0  0  0  0  0  0  0  0  0  0  0
    7.7377  -12.4819   20.0703 C   0  0  0  0  0  0  0  0  0  0  0  0
    8.7079  -13.0158   20.8909 C   0  0  0  0  0  0  0  0  0  0  0  0
    8.8501  -14.3837   21.0470 C   0  0  0  0  0  0  0  0  0  0  0  0
    9.8844  -14.9830   21.9199 C   0  0  0  0  0  0  0  0  0  0  0  0
    9.2863  -15.8743   22.9522 C   0  0  2  0  0  0  0  0  0  0  0  0
    8.8701  -15.1348   24.1378 N   0  0  0  0  0  0  0  0  0  0  0  0
   10.1056  -17.0503   23.3190 C   0  0  0  0  0  0  0  0  0  0  0  0
    9.7964  -18.2386   23.0573 O   0  0  0  0  0  0  0  0  0  0  0  0
    7.9537  -15.1680   20.3246 C   0  0  0  0  0  0  0  0  0  0  0  0
    6.9805  -14.6490   19.5019 C   0  0  0  0  0  0  0  0  0  0  0  0
   16.3739  -16.7681   24.2668 N   0  0  0  0  0  0  0  0  0  0  0  0
   15.5484  -16.5658   23.1293 C   0  0  0  0  0  0  0  0  0  0  0  0
   16.0699  -16.0201   22.1314 O   0  0  0  0  0  0  0  0  0  0  0  0
   14.1452  -16.9731   23.1066 C   0  0  0  0  0  0  0  0  0  0  0  0
   13.6557  -17.6853   24.3268 C   0  0  0  0  0  0  0  0  0  0  0  0
   12.1987  -18.0494   24.3042 C   0  0  2  0  0  0  0  0  0  0  0  0
   11.3556  -16.9003   24.0255 N   0  0  0  0  0  0  0  0  0  0  0  0
   11.8155  -18.5641   25.6510 C   0  0  0  0  0  0  0  0  0  0  0  0
   10.8511  -17.9383   26.4362 O   0  0  0  0  0  0  0  0  0  0  0  0
   12.3660  -19.5871   26.1053 O   0  0  0  0  0  0  0  0  0  0  0  0
  2  1  1  6
  2  3  1  0
  4  2  1  0
  5  4  1  0
  5  6  1  1
  7  5  1  0
  7  8  2  0
  9 10  1  0
 10 11  2  0
 11 12  1  0
 13 12  2  0
 13 14  1  0
 15 14  1  6
 15 16  1  0
 16  7  1  0
 17 15  1  0
 18 17  2  0
 19 13  1  0
 20 10  1  0
 20 19  2  0
 21 22  1  0
 22 23  2  0
 22 24  1  0
 24 25  1  0
 26 25  1  1
 26 27  1  0
 27 17  1  0
 28 29  1  0
 28 26  1  0
 30 28  2  0
M  END
$$$$
