LYQ.pdb
     RDKit          3D

 30 30  0  0  1  0  0  0  0  0999 V2000
    7.0789  -11.9517   18.6714 C   0  0  0  0  0  0  0  0  0  0  0  0
    7.3882  -13.3606   19.1106 C   0  0  1  0  0  0  0  0  0  0  0  0
    7.8595  -14.1166   17.8856 C   0  0  0  0  0  0  0  0  0  0  0  0
    8.3927  -13.4057   20.2353 C   0  0  0  0  0  0  0  0  0  0  0  0
    8.6949  -14.8102   20.6740 C   0  0  2  0  0  0  0  0  0  0  0  0
    7.4323  -15.5037   20.8243 N   0  0  0  0  0  0  0  0  0  0  0  0
    9.3670  -14.7890   21.9743 C   0  0  0  0  0  0  0  0  0  0  0  0
   10.5383  -14.3413   22.1033 O   0  0  0  0  0  0  0  0  0  0  0  0
   11.0294  -15.1459   30.6578 O   0  0  0  0  0  0  0  0  0  0  0  0
   10.3979  -15.1282   29.4201 C   0  0  0  0  0  0  0  0  0  0  0  0
    9.9189  -16.2885   28.8355 C   0  0  0  0  0  0  0  0  0  0  0  0
    9.2916  -16.2776   27.6082 C   0  0  0  0  0  0  0  0  0  0  0  0
    9.1102  -15.1026   26.8996 C   0  0  0  0  0  0  0  0  0  0  0  0
    8.4422  -15.0631   25.5793 C   0  0  0  0  0  0  0  0  0  0  0  0
    9.4127  -15.2429   24.4642 C   0  0  2  0  0  0  0  0  0  0  0  0
    8.7532  -15.2655   23.1641 N   0  0  0  0  0  0  0  0  0  0  0  0
   10.3361  -16.3892   24.6125 C   0  0  0  0  0  0  0  0  0  0  0  0
    9.9984  -17.5918   24.4874 O   0  0  0  0  0  0  0  0  0  0  0  0
    9.6009  -13.9504   27.5095 C   0  0  0  0  0  0  0  0  0  0  0  0
   10.2289  -13.9463   28.7338 C   0  0  0  0  0  0  0  0  0  0  0  0
   15.2932  -15.0699   21.6320 N   0  0  0  0  0  0  0  0  0  0  0  0
   14.9376  -16.3886   22.0202 C   0  0  0  0  0  0  0  0  0  0  0  0
   15.7130  -17.3132   21.6895 O   0  0  0  0  0  0  0  0  0  0  0  0
   13.7199  -16.6730   22.7764 C   0  0  0  0  0  0  0  0  0  0  0  0
   13.9176  -17.0389   24.2126 C   0  0  0  0  0  0  0  0  0  0  0  0
   12.6528  -17.3120   24.9751 C   0  0  2  0  0  0  0  0  0  0  0  0
   11.7324  -16.1901   24.9208 N   0  0  0  0  0  0  0  0  0  0  0  0
   12.9994  -17.5319   26.4093 C   0  0  0  0  0  0  0  0  0  0  0  0
   13.4271  -16.4960   27.2353 O   0  0  0  0  0  0  0  0  0  0  0  0
   12.9093  -18.6741   26.9026 O   0  0  0  0  0  0  0  0  0  0  0  0
  2  1  1  6
  2  3  1  0
  4  2  1  0
  5  4  1  0
  5  6  1  1
  7  5  1  0
  7  8  2  0
  9 10  1  0
 10 11  2  0
 11 12  1  0
 13 12  2  0
 13 14  1  0
 15 14  1  1
 15 16  1  0
 16  7  1  0
 17 15  1  0
 18 17  2  0
 19 13  1  0
 20 10  1  0
 20 19  2  0
 21 22  1  0
 22 23  2  0
 22 24  1  0
 24 25  1  0
 26 25  1  6
 26 27  1  0
 27 17  1  0
 28 29  1  0
 28 26  1  0
 30 28  2  0
M  END
$$$$
