LYQ.pdb
     RDKit          3D

 30 30  0  0  1  0  0  0  0  0999 V2000
    6.3573  -14.5372   21.0121 C   0  0  0  0  0  0  0  0  0  0  0  0
    7.4407  -15.4087   21.5957 C   0  0  1  0  0  0  0  0  0  0  0  0
    7.1707  -15.5211   23.0819 C   0  0  0  0  0  0  0  0  0  0  0  0
    7.5202  -16.7566   20.9226 C   0  0  0  0  0  0  0  0  0  0  0  0
    8.7762  -17.4991   21.2798 C   0  0  2  0  0  0  0  0  0  0  0  0
    9.0773  -17.2093   22.6665 N   0  0  0  0  0  0  0  0  0  0  0  0
    9.8869  -17.0181   20.4565 C   0  0  0  0  0  0  0  0  0  0  0  0
   10.0219  -17.3791   19.2563 O   0  0  0  0  0  0  0  0  0  0  0  0
    8.0344  -12.5462   16.4584 O   0  0  0  0  0  0  0  0  0  0  0  0
    9.0450  -12.9775   17.3092 C   0  0  0  0  0  0  0  0  0  0  0  0
    9.2949  -12.3444   18.5152 C   0  0  0  0  0  0  0  0  0  0  0  0
   10.2957  -12.7673   19.3633 C   0  0  0  0  0  0  0  0  0  0  0  0
   11.1009  -13.8482   19.0489 C   0  0  0  0  0  0  0  0  0  0  0  0
   12.1836  -14.3216   19.9403 C   0  0  0  0  0  0  0  0  0  0  0  0
   12.0824  -15.7840   20.2028 C   0  0  2  0  0  0  0  0  0  0  0  0
   10.8757  -16.1233   20.9475 N   0  0  0  0  0  0  0  0  0  0  0  0
   13.2789  -16.3965   20.8209 C   0  0  0  0  0  0  0  0  0  0  0  0
   14.4572  -16.1917   20.4390 O   0  0  0  0  0  0  0  0  0  0  0  0
   10.8288  -14.4669   17.8308 C   0  0  0  0  0  0  0  0  0  0  0  0
    9.8334  -14.0558   16.9745 C   0  0  0  0  0  0  0  0  0  0  0  0
   13.6176  -20.0874   26.2432 N   0  0  0  0  0  0  0  0  0  0  0  0
   14.9130  -20.0596   25.6620 C   0  0  0  0  0  0  0  0  0  0  0  0
   15.8072  -20.7333   26.2204 O   0  0  0  0  0  0  0  0  0  0  0  0
   15.2076  -19.2823   24.4602 C   0  0  0  0  0  0  0  0  0  0  0  0
   14.0325  -18.6318   23.8030 C   0  0  0  0  0  0  0  0  0  0  0  0
   14.3334  -17.9563   22.4957 C   0  0  2  0  0  0  0  0  0  0  0  0
   13.1629  -17.2997   21.9412 N   0  0  0  0  0  0  0  0  0  0  0  0
   14.7678  -18.9916   21.5134 C   0  0  0  0  0  0  0  0  0  0  0  0
   16.0760  -19.4656   21.4666 O   0  0  0  0  0  0  0  0  0  0  0  0
   13.9465  -19.4599   20.6996 O   0  0  0  0  0  0  0  0  0  0  0  0
  2  1  1  6
  2  3  1  0
  4  2  1  0
  5  4  1  0
  5  6  1  1
  7  5  1  0
  7  8  2  0
  9 10  1  0
 10 11  2  0
 11 12  1  0
 13 12  2  0
 13 14  1  0
 15 14  1  1
 15 16  1  0
 16  7  1  0
 17 15  1  0
 18 17  2  0
 19 13  1  0
 20 10  1  0
 20 19  2  0
 21 22  1  0
 22 23  2  0
 22 24  1  0
 24 25  1  0
 26 25  1  1
 26 27  1  0
 27 17  1  0
 28 29  1  0
 28 26  1  0
 30 28  2  0
M  END
$$$$
