LYQ.pdb
     RDKit          3D

 30 30  0  0  1  0  0  0  0  0999 V2000
    6.4488  -13.6768   19.7938 C   0  0  0  0  0  0  0  0  0  0  0  0
    7.9356  -13.6105   19.5510 C   0  0  1  0  0  0  0  0  0  0  0  0
    8.2135  -12.3026   18.8393 C   0  0  0  0  0  0  0  0  0  0  0  0
    8.7336  -13.7531   20.8233 C   0  0  0  0  0  0  0  0  0  0  0  0
    8.8647  -15.1854   21.2566 C   0  0  2  0  0  0  0  0  0  0  0  0
    7.5517  -15.7908   21.1719 N   0  0  0  0  0  0  0  0  0  0  0  0
    9.3098  -15.2424   22.6500 C   0  0  0  0  0  0  0  0  0  0  0  0
   10.4379  -14.8020   22.9999 O   0  0  0  0  0  0  0  0  0  0  0  0
    5.9101  -10.4335   26.4829 O   0  0  0  0  0  0  0  0  0  0  0  0
    6.3817  -11.7362   26.3754 C   0  0  0  0  0  0  0  0  0  0  0  0
    7.7212  -12.0380   26.5551 C   0  0  0  0  0  0  0  0  0  0  0  0
    8.1952  -13.3280   26.4498 C   0  0  0  0  0  0  0  0  0  0  0  0
    7.3522  -14.3863   26.1586 C   0  0  0  0  0  0  0  0  0  0  0  0
    7.8353  -15.7802   26.0379 C   0  0  0  0  0  0  0  0  0  0  0  0
    8.9634  -15.8915   25.0721 C   0  0  2  0  0  0  0  0  0  0  0  0
    8.5112  -15.7909   23.6897 N   0  0  0  0  0  0  0  0  0  0  0  0
    9.8395  -17.0686   25.2610 C   0  0  0  0  0  0  0  0  0  0  0  0
    9.4669  -18.2591   25.1202 O   0  0  0  0  0  0  0  0  0  0  0  0
    6.0104  -14.0558   25.9827 C   0  0  0  0  0  0  0  0  0  0  0  0
    5.5233  -12.7731   26.0848 C   0  0  0  0  0  0  0  0  0  0  0  0
   13.9695  -15.3371   22.8651 N   0  0  0  0  0  0  0  0  0  0  0  0
   14.3928  -16.1222   23.9700 C   0  0  0  0  0  0  0  0  0  0  0  0
   15.2398  -15.6186   24.7411 O   0  0  0  0  0  0  0  0  0  0  0  0
   13.8704  -17.4651   24.2130 C   0  0  0  0  0  0  0  0  0  0  0  0
   13.5189  -17.7785   25.6321 C   0  0  0  0  0  0  0  0  0  0  0  0
   12.0666  -18.0768   25.8724 C   0  0  2  0  0  0  0  0  0  0  0  0
   11.2265  -16.9169   25.6320 N   0  0  0  0  0  0  0  0  0  0  0  0
   11.8900  -18.4633   27.3024 C   0  0  0  0  0  0  0  0  0  0  0  0
   12.4695  -19.6109   27.8365 O   0  0  0  0  0  0  0  0  0  0  0  0
   11.2043  -17.7475   28.0597 O   0  0  0  0  0  0  0  0  0  0  0  0
  2  1  1  1
  2  3  1  0
  4  2  1  0
  5  4  1  0
  5  6  1  1
  7  5  1  0
  7  8  2  0
  9 10  1  0
 10 11  2  0
 11 12  1  0
 13 12  2  0
 13 14  1  0
 15 14  1  1
 15 16  1  0
 16  7  1  0
 17 15  1  0
 18 17  2  0
 19 13  1  0
 20 10  1  0
 20 19  2  0
 21 22  1  0
 22 23  2  0
 22 24  1  0
 24 25  1  0
 26 25  1  1
 26 27  1  0
 27 17  1  0
 28 29  1  0
 28 26  1  0
 30 28  2  0
M  END
$$$$
