PIG.pdb
     RDKit          3D

 20 20  0  0  1  0  0  0  0  0999 V2000
    7.0883  -14.8223   21.1513 N   0  0  0  0  0  0  0  0  0  0  0  0
    6.4110  -13.9212   20.2720 C   0  0  0  0  0  0  0  0  0  0  0  0
    7.5035  -13.1437   19.5676 C   0  0  0  0  0  0  0  0  0  0  0  0
    8.5325  -13.0078   20.6723 C   0  0  0  0  0  0  0  0  0  0  0  0
    8.4386  -14.4008   21.3091 C   0  0  1  0  0  0  0  0  0  0  0  0
    8.8723  -14.2551   22.7063 C   0  0  0  0  0  0  0  0  0  0  0  0
   10.0607  -13.9049   22.9510 O   0  0  0  0  0  0  0  0  0  0  0  0
    5.8333  -11.3038   25.5939 C   0  0  0  0  0  0  0  0  0  0  0  0
    7.0502  -12.0516   25.0722 C   0  0  0  0  0  0  0  0  0  0  0  0
    7.1926  -13.3956   25.6984 C   0  0  2  0  0  0  0  0  0  0  0  0
    7.2270  -13.3166   27.2174 C   0  0  0  0  0  0  0  0  0  0  0  0
    8.2980  -14.2462   25.1595 C   0  0  2  0  0  0  0  0  0  0  0  0
    7.9704  -14.5040   23.7446 N   0  0  0  0  0  0  0  0  0  0  0  0
    8.5284  -15.5053   25.8663 C   0  0  0  0  0  0  0  0  0  0  0  0
    8.9225  -15.5166   27.0482 O   0  0  0  0  0  0  0  0  0  0  0  0
    8.3049  -16.7410   25.2111 N   0  0  0  0  0  0  0  0  0  0  0  0
    8.3439  -18.0153   25.8679 C   0  0  0  0  0  0  0  0  0  0  0  0
    9.7023  -18.5032   26.1072 C   0  0  0  0  0  0  0  0  0  0  0  0
    9.9306  -19.7112   26.7394 O   0  0  0  0  0  0  0  0  0  0  0  0
   10.6878  -17.8243   25.7380 O   0  0  0  0  0  0  0  0  0  0  0  0
  1  2  1  0
  3  2  1  0
  4  5  1  0
  4  3  1  0
  5  1  1  0
  5  6  1  1
  7  6  2  0
  9  8  1  0
  9 10  1  0
 10 12  1  0
 10 11  1  1
 12 13  1  6
 13  6  1  0
 14 15  2  0
 14 12  1  0
 16 14  1  0
 17 16  1  0
 18 17  1  0
 18 19  1  0
 20 18  2  0
M  END
$$$$
