PIG.pdb
     RDKit          3D

 20 20  0  0  1  0  0  0  0  0999 V2000
    8.3501  -14.4699   20.2870 N   0  0  0  0  0  0  0  0  0  0  0  0
    8.1273  -15.4876   19.3078 C   0  0  0  0  0  0  0  0  0  0  0  0
    6.7256  -15.9998   19.5668 C   0  0  0  0  0  0  0  0  0  0  0  0
    6.6534  -15.9196   21.0788 C   0  0  0  0  0  0  0  0  0  0  0  0
    7.3769  -14.5878   21.3189 C   0  0  1  0  0  0  0  0  0  0  0  0
    7.9342  -14.6506   22.6779 C   0  0  0  0  0  0  0  0  0  0  0  0
    9.1382  -14.9972   22.8364 O   0  0  0  0  0  0  0  0  0  0  0  0
    5.9192  -11.0436   26.1018 C   0  0  0  0  0  0  0  0  0  0  0  0
    6.8452  -11.9831   25.3456 C   0  0  0  0  0  0  0  0  0  0  0  0
    6.8464  -13.3552   25.9254 C   0  0  2  0  0  0  0  0  0  0  0  0
    7.2094  -13.3498   27.4029 C   0  0  0  0  0  0  0  0  0  0  0  0
    7.6263  -14.3785   25.1636 C   0  0  2  0  0  0  0  0  0  0  0  0
    7.1311  -14.3279   23.7752 N   0  0  0  0  0  0  0  0  0  0  0  0
    7.5518  -15.7439   25.6814 C   0  0  0  0  0  0  0  0  0  0  0  0
    6.4616  -16.3411   25.7661 O   0  0  0  0  0  0  0  0  0  0  0  0
    8.7287  -16.4128   26.0980 N   0  0  0  0  0  0  0  0  0  0  0  0
    8.7618  -17.7762   26.5415 C   0  0  0  0  0  0  0  0  0  0  0  0
   10.0790  -18.1996   27.0170 C   0  0  0  0  0  0  0  0  0  0  0  0
   10.2680  -19.4388   27.6000 O   0  0  0  0  0  0  0  0  0  0  0  0
   11.0645  -17.4356   26.9005 O   0  0  0  0  0  0  0  0  0  0  0  0
  1  2  1  0
  3  2  1  0
  4  5  1  0
  4  3  1  0
  5  1  1  0
  5  6  1  1
  7  6  2  0
  9  8  1  0
  9 10  1  0
 10 12  1  0
 10 11  1  1
 12 13  1  6
 13  6  1  0
 14 15  2  0
 14 12  1  0
 16 14  1  0
 17 16  1  0
 18 17  1  0
 18 19  1  0
 20 18  2  0
M  END
$$$$
