PIG.pdb
     RDKit          3D

 20 20  0  0  1  0  0  0  0  0999 V2000
    7.0869  -14.9697   20.9049 N   0  0  0  0  0  0  0  0  0  0  0  0
    6.2871  -14.1589   20.0406 C   0  0  0  0  0  0  0  0  0  0  0  0
    7.2654  -13.2819   19.2870 C   0  0  0  0  0  0  0  0  0  0  0  0
    8.3129  -13.0211   20.3512 C   0  0  0  0  0  0  0  0  0  0  0  0
    8.3897  -14.4060   21.0075 C   0  0  1  0  0  0  0  0  0  0  0  0
    8.8550  -14.1934   22.3858 C   0  0  0  0  0  0  0  0  0  0  0  0
   10.0254  -13.7621   22.5832 O   0  0  0  0  0  0  0  0  0  0  0  0
    5.8246  -11.7102   25.6259 C   0  0  0  0  0  0  0  0  0  0  0  0
    7.0311  -12.3400   24.9479 C   0  0  0  0  0  0  0  0  0  0  0  0
    7.4411  -13.6129   25.6039 C   0  0  2  0  0  0  0  0  0  0  0  0
    7.8369  -13.4036   27.0580 C   0  0  0  0  0  0  0  0  0  0  0  0
    8.4535  -14.4258   24.8622 C   0  0  2  0  0  0  0  0  0  0  0  0
    8.0026  -14.4690   23.4586 N   0  0  0  0  0  0  0  0  0  0  0  0
    8.6707  -15.7800   25.3691 C   0  0  0  0  0  0  0  0  0  0  0  0
    7.7151  -16.5569   25.5583 O   0  0  0  0  0  0  0  0  0  0  0  0
    9.9823  -16.2316   25.6550 N   0  0  0  0  0  0  0  0  0  0  0  0
   10.3033  -17.5790   26.0268 C   0  0  0  0  0  0  0  0  0  0  0  0
   10.3136  -17.7945   27.4738 C   0  0  0  0  0  0  0  0  0  0  0  0
   10.7059  -19.0037   28.0171 O   0  0  0  0  0  0  0  0  0  0  0  0
    9.9627  -16.8752   28.2485 O   0  0  0  0  0  0  0  0  0  0  0  0
  1  2  1  0
  3  2  1  0
  4  5  1  0
  4  3  1  0
  5  1  1  0
  5  6  1  1
  7  6  2  0
  9  8  1  0
  9 10  1  0
 10 12  1  0
 10 11  1  1
 12 13  1  6
 13  6  1  0
 14 15  2  0
 14 12  1  0
 16 14  1  0
 17 16  1  0
 18 17  1  0
 18 19  1  0
 20 18  2  0
M  END
$$$$
