PIG.pdb
     RDKit          3D

 20 20  0  0  1  0  0  0  0  0999 V2000
    7.1166  -14.8639   20.9382 N   0  0  0  0  0  0  0  0  0  0  0  0
    6.3949  -13.9849   20.0718 C   0  0  0  0  0  0  0  0  0  0  0  0
    7.4385  -13.0783   19.4529 C   0  0  0  0  0  0  0  0  0  0  0  0
    8.4056  -12.9053   20.6073 C   0  0  0  0  0  0  0  0  0  0  0  0
    8.4150  -14.3310   21.1748 C   0  0  1  0  0  0  0  0  0  0  0  0
    8.7771  -14.2163   22.5951 C   0  0  0  0  0  0  0  0  0  0  0  0
    9.9354  -13.8218   22.9074 O   0  0  0  0  0  0  0  0  0  0  0  0
    6.0546  -11.4748   25.6929 C   0  0  0  0  0  0  0  0  0  0  0  0
    7.1714  -12.3025   25.0766 C   0  0  0  0  0  0  0  0  0  0  0  0
    7.2890  -13.6450   25.7110 C   0  0  2  0  0  0  0  0  0  0  0  0
    7.6041  -13.5485   27.1964 C   0  0  0  0  0  0  0  0  0  0  0  0
    8.1886  -14.6139   25.0124 C   0  0  2  0  0  0  0  0  0  0  0  0
    7.8415  -14.5431   23.5806 N   0  0  0  0  0  0  0  0  0  0  0  0
    8.1183  -15.9955   25.4857 C   0  0  0  0  0  0  0  0  0  0  0  0
    7.0223  -16.5679   25.6393 O   0  0  0  0  0  0  0  0  0  0  0  0
    9.3062  -16.7090   25.7790 N   0  0  0  0  0  0  0  0  0  0  0  0
    9.3332  -18.0696   26.2316 C   0  0  0  0  0  0  0  0  0  0  0  0
    9.7417  -18.2079   27.6296 C   0  0  0  0  0  0  0  0  0  0  0  0
    9.8295  -19.4486   28.2329 O   0  0  0  0  0  0  0  0  0  0  0  0
   10.0206  -17.1915   28.3061 O   0  0  0  0  0  0  0  0  0  0  0  0
  1  2  1  0
  3  2  1  0
  4  5  1  0
  4  3  1  0
  5  1  1  0
  5  6  1  1
  7  6  2  0
  9  8  1  0
  9 10  1  0
 10 12  1  0
 10 11  1  1
 12 13  1  6
 13  6  1  0
 14 15  2  0
 14 12  1  0
 16 14  1  0
 17 16  1  0
 18 17  1  0
 18 19  1  0
 20 18  2  0
M  END
$$$$
