PIG.pdb
     RDKit          3D

 20 20  0  0  1  0  0  0  0  0999 V2000
    7.2696  -15.2602   21.3191 N   0  0  0  0  0  0  0  0  0  0  0  0
    6.4872  -14.5080   20.3884 C   0  0  0  0  0  0  0  0  0  0  0  0
    7.4795  -13.6731   19.6058 C   0  0  0  0  0  0  0  0  0  0  0  0
    8.5003  -13.3420   20.6764 C   0  0  0  0  0  0  0  0  0  0  0  0
    8.5673  -14.6839   21.4177 C   0  0  1  0  0  0  0  0  0  0  0  0
    8.9987  -14.3851   22.7910 C   0  0  0  0  0  0  0  0  0  0  0  0
   10.1432  -13.8877   22.9846 O   0  0  0  0  0  0  0  0  0  0  0  0
    5.9618  -11.4269   25.7051 C   0  0  0  0  0  0  0  0  0  0  0  0
    7.1919  -12.1488   25.1780 C   0  0  0  0  0  0  0  0  0  0  0  0
    7.3517  -13.4996   25.7853 C   0  0  2  0  0  0  0  0  0  0  0  0
    7.3512  -13.4452   27.3058 C   0  0  0  0  0  0  0  0  0  0  0  0
    8.4878  -14.3158   25.2572 C   0  0  2  0  0  0  0  0  0  0  0  0
    8.1431  -14.6528   23.8632 N   0  0  0  0  0  0  0  0  0  0  0  0
    8.7990  -15.5287   26.0122 C   0  0  0  0  0  0  0  0  0  0  0  0
    9.1562  -15.4702   27.2045 O   0  0  0  0  0  0  0  0  0  0  0  0
    8.6980  -16.7985   25.3930 N   0  0  0  0  0  0  0  0  0  0  0  0
    8.9487  -18.0404   26.0650 C   0  0  0  0  0  0  0  0  0  0  0  0
   10.3722  -18.3485   26.2025 C   0  0  0  0  0  0  0  0  0  0  0  0
   10.7992  -19.5165   26.8063 O   0  0  0  0  0  0  0  0  0  0  0  0
   11.2329  -17.5483   25.7697 O   0  0  0  0  0  0  0  0  0  0  0  0
  1  2  1  0
  3  2  1  0
  4  5  1  0
  4  3  1  0
  5  1  1  0
  5  6  1  1
  7  6  2  0
  9  8  1  0
  9 10  1  0
 10 12  1  0
 10 11  1  1
 12 13  1  6
 13  6  1  0
 14 15  2  0
 14 12  1  0
 16 14  1  0
 17 16  1  0
 18 17  1  0
 18 19  1  0
 20 18  2  0
M  END
$$$$
