PIG.pdb
     RDKit          3D

 20 20  0  0  1  0  0  0  0  0999 V2000
    8.0435  -14.4266   20.0080 N   0  0  0  0  0  0  0  0  0  0  0  0
    7.8729  -15.4691   19.0446 C   0  0  0  0  0  0  0  0  0  0  0  0
    6.6312  -16.2213   19.4763 C   0  0  0  0  0  0  0  0  0  0  0  0
    6.7510  -16.1530   20.9859 C   0  0  0  0  0  0  0  0  0  0  0  0
    7.2547  -14.7137   21.1574 C   0  0  1  0  0  0  0  0  0  0  0  0
    7.9928  -14.6746   22.4283 C   0  0  0  0  0  0  0  0  0  0  0  0
    9.2396  -14.8750   22.4250 O   0  0  0  0  0  0  0  0  0  0  0  0
    5.9953  -11.3145   26.0980 C   0  0  0  0  0  0  0  0  0  0  0  0
    6.9751  -12.1163   25.2560 C   0  0  0  0  0  0  0  0  0  0  0  0
    7.1966  -13.4835   25.8042 C   0  0  2  0  0  0  0  0  0  0  0  0
    7.7346  -13.4474   27.2269 C   0  0  0  0  0  0  0  0  0  0  0  0
    7.9844  -14.4095   24.9338 C   0  0  2  0  0  0  0  0  0  0  0  0
    7.3116  -14.4174   23.6213 N   0  0  0  0  0  0  0  0  0  0  0  0
    8.1354  -15.7742   25.4368 C   0  0  0  0  0  0  0  0  0  0  0  0
    7.1405  -16.4716   25.7128 O   0  0  0  0  0  0  0  0  0  0  0  0
    9.4265  -16.3271   25.6192 N   0  0  0  0  0  0  0  0  0  0  0  0
    9.6690  -17.6843   26.0142 C   0  0  0  0  0  0  0  0  0  0  0  0
   10.7088  -17.8143   27.0351 C   0  0  0  0  0  0  0  0  0  0  0  0
   11.1238  -19.0542   27.4838 O   0  0  0  0  0  0  0  0  0  0  0  0
   11.2429  -16.7913   27.5216 O   0  0  0  0  0  0  0  0  0  0  0  0
  1  2  1  0
  3  2  1  0
  4  5  1  0
  4  3  1  0
  5  1  1  0
  5  6  1  1
  7  6  2  0
  9  8  1  0
  9 10  1  0
 10 12  1  0
 10 11  1  1
 12 13  1  6
 13  6  1  0
 14 15  2  0
 14 12  1  0
 16 14  1  0
 17 16  1  0
 18 17  1  0
 18 19  1  0
 20 18  2  0
M  END
$$$$
