PIG.pdb
     RDKit          3D

 20 20  0  0  1  0  0  0  0  0999 V2000
    7.0417  -14.7768   20.7879 N   0  0  0  0  0  0  0  0  0  0  0  0
    6.2265  -13.8811   20.0282 C   0  0  0  0  0  0  0  0  0  0  0  0
    7.1916  -12.9346   19.3450 C   0  0  0  0  0  0  0  0  0  0  0  0
    8.2638  -12.7849   20.4060 C   0  0  0  0  0  0  0  0  0  0  0  0
    8.3491  -14.2292   20.9173 C   0  0  1  0  0  0  0  0  0  0  0  0
    8.8459  -14.1580   22.2992 C   0  0  0  0  0  0  0  0  0  0  0  0
   10.0182  -13.7400   22.5134 O   0  0  0  0  0  0  0  0  0  0  0  0
    6.0273  -11.9227   25.9413 C   0  0  0  0  0  0  0  0  0  0  0  0
    7.1951  -12.5135   25.1672 C   0  0  0  0  0  0  0  0  0  0  0  0
    7.4937  -13.9118   25.5846 C   0  0  2  0  0  0  0  0  0  0  0  0
    7.8143  -14.0081   27.0688 C   0  0  0  0  0  0  0  0  0  0  0  0
    8.5008  -14.6351   24.7488 C   0  0  2  0  0  0  0  0  0  0  0  0
    8.0210  -14.5512   23.3566 N   0  0  0  0  0  0  0  0  0  0  0  0
    8.7463  -16.0280   25.1197 C   0  0  0  0  0  0  0  0  0  0  0  0
    7.8068  -16.8386   25.2331 O   0  0  0  0  0  0  0  0  0  0  0  0
   10.0675  -16.4794   25.3576 N   0  0  0  0  0  0  0  0  0  0  0  0
   10.4220  -17.8554   25.5521 C   0  0  0  0  0  0  0  0  0  0  0  0
   10.4202  -18.2616   26.9576 C   0  0  0  0  0  0  0  0  0  0  0  0
    9.9123  -17.4360   27.9432 O   0  0  0  0  0  0  0  0  0  0  0  0
   10.8845  -19.3762   27.2899 O   0  0  0  0  0  0  0  0  0  0  0  0
  1  2  1  0
  3  2  1  0
  4  5  1  0
  4  3  1  0
  5  1  1  0
  5  6  1  1
  7  6  2  0
  9  8  1  0
  9 10  1  0
 10 12  1  0
 10 11  1  1
 12 13  1  6
 13  6  1  0
 14 15  2  0
 14 12  1  0
 16 14  1  0
 17 16  1  0
 18 17  1  0
 18 19  1  0
 20 18  2  0
M  END
$$$$
