PIG.pdb
     RDKit          3D

 20 20  0  0  1  0  0  0  0  0999 V2000
    7.1123  -14.9524   20.8634 N   0  0  0  0  0  0  0  0  0  0  0  0
    6.2773  -14.1284   20.0462 C   0  0  0  0  0  0  0  0  0  0  0  0
    7.2197  -13.1959   19.3137 C   0  0  0  0  0  0  0  0  0  0  0  0
    8.2782  -12.9511   20.3708 C   0  0  0  0  0  0  0  0  0  0  0  0
    8.4018  -14.3591   20.9682 C   0  0  1  0  0  0  0  0  0  0  0  0
    8.8849  -14.1907   22.3465 C   0  0  0  0  0  0  0  0  0  0  0  0
   10.0463  -13.7352   22.5427 O   0  0  0  0  0  0  0  0  0  0  0  0
    5.9644  -11.7674   25.7135 C   0  0  0  0  0  0  0  0  0  0  0  0
    7.1033  -12.4315   24.9559 C   0  0  0  0  0  0  0  0  0  0  0  0
    7.5223  -13.7144   25.5862 C   0  0  2  0  0  0  0  0  0  0  0  0
    7.9355  -13.5282   27.0386 C   0  0  0  0  0  0  0  0  0  0  0  0
    8.5264  -14.5141   24.8193 C   0  0  2  0  0  0  0  0  0  0  0  0
    8.0591  -14.5342   23.4205 N   0  0  0  0  0  0  0  0  0  0  0  0
    8.7502  -15.8764   25.3010 C   0  0  0  0  0  0  0  0  0  0  0  0
    7.7958  -16.6092   25.6243 O   0  0  0  0  0  0  0  0  0  0  0  0
   10.0672  -16.3865   25.4079 N   0  0  0  0  0  0  0  0  0  0  0  0
   10.3758  -17.7428   25.7575 C   0  0  0  0  0  0  0  0  0  0  0  0
   10.5390  -17.9480   27.1968 C   0  0  0  0  0  0  0  0  0  0  0  0
    9.4482  -17.9865   28.0451 O   0  0  0  0  0  0  0  0  0  0  0  0
   11.6832  -18.0934   27.6848 O   0  0  0  0  0  0  0  0  0  0  0  0
  1  2  1  0
  3  2  1  0
  4  5  1  0
  4  3  1  0
  5  1  1  0
  5  6  1  1
  7  6  2  0
  9  8  1  0
  9 10  1  0
 10 12  1  0
 10 11  1  1
 12 13  1  6
 13  6  1  0
 14 15  2  0
 14 12  1  0
 16 14  1  0
 17 16  1  0
 18 17  1  0
 18 19  1  0
 20 18  2  0
M  END
$$$$
