PIG.pdb
     RDKit          3D

 20 20  0  0  1  0  0  0  0  0999 V2000
    7.0865  -14.7725   20.8252 N   0  0  0  0  0  0  0  0  0  0  0  0
    6.3654  -13.8879   19.9642 C   0  0  0  0  0  0  0  0  0  0  0  0
    7.4113  -12.9885   19.3385 C   0  0  0  0  0  0  0  0  0  0  0  0
    8.3874  -12.8232   20.4864 C   0  0  0  0  0  0  0  0  0  0  0  0
    8.3903  -14.2491   21.0533 C   0  0  1  0  0  0  0  0  0  0  0  0
    8.7629  -14.1378   22.4711 C   0  0  0  0  0  0  0  0  0  0  0  0
    9.9271  -13.7548   22.7757 O   0  0  0  0  0  0  0  0  0  0  0  0
    5.9578  -11.4713   25.6977 C   0  0  0  0  0  0  0  0  0  0  0  0
    7.0531  -12.2661   25.0045 C   0  0  0  0  0  0  0  0  0  0  0  0
    7.2298  -13.6178   25.6050 C   0  0  2  0  0  0  0  0  0  0  0  0
    7.5220  -13.5458   27.0964 C   0  0  0  0  0  0  0  0  0  0  0  0
    8.1847  -14.5219   24.8931 C   0  0  2  0  0  0  0  0  0  0  0  0
    7.8305  -14.4550   23.4628 N   0  0  0  0  0  0  0  0  0  0  0  0
    8.1993  -15.9109   25.3496 C   0  0  0  0  0  0  0  0  0  0  0  0
    7.1390  -16.5240   25.5783 O   0  0  0  0  0  0  0  0  0  0  0  0
    9.4304  -16.5848   25.5402 N   0  0  0  0  0  0  0  0  0  0  0  0
    9.5393  -17.9595   25.9344 C   0  0  0  0  0  0  0  0  0  0  0  0
   10.1632  -18.1392   27.2454 C   0  0  0  0  0  0  0  0  0  0  0  0
   10.0498  -17.1782   28.2326 O   0  0  0  0  0  0  0  0  0  0  0  0
   10.8162  -19.1788   27.4932 O   0  0  0  0  0  0  0  0  0  0  0  0
  1  2  1  0
  3  2  1  0
  4  5  1  0
  4  3  1  0
  5  1  1  0
  5  6  1  1
  7  6  2  0
  9  8  1  0
  9 10  1  0
 10 12  1  0
 10 11  1  1
 12 13  1  6
 13  6  1  0
 14 15  2  0
 14 12  1  0
 16 14  1  0
 17 16  1  0
 18 17  1  0
 18 19  1  0
 20 18  2  0
M  END
$$$$
