PIG.pdb
     RDKit          3D

 20 20  0  0  1  0  0  0  0  0999 V2000
    7.9718  -14.8649   20.0918 N   0  0  0  0  0  0  0  0  0  0  0  0
    7.9147  -15.9696   19.1861 C   0  0  0  0  0  0  0  0  0  0  0  0
    6.8598  -16.9003   19.7474 C   0  0  0  0  0  0  0  0  0  0  0  0
    7.0785  -16.7344   21.2382 C   0  0  0  0  0  0  0  0  0  0  0  0
    7.3338  -15.2231   21.3127 C   0  0  1  0  0  0  0  0  0  0  0  0
    8.1468  -14.9923   22.5157 C   0  0  0  0  0  0  0  0  0  0  0  0
    9.4035  -14.9278   22.4091 O   0  0  0  0  0  0  0  0  0  0  0  0
    5.9894  -11.6479   25.9564 C   0  0  0  0  0  0  0  0  0  0  0  0
    7.0084  -12.4232   25.1362 C   0  0  0  0  0  0  0  0  0  0  0  0
    7.4481  -13.6699   25.8225 C   0  0  2  0  0  0  0  0  0  0  0  0
    8.0844  -13.3829   27.1744 C   0  0  0  0  0  0  0  0  0  0  0  0
    8.2811  -14.6011   25.0010 C   0  0  2  0  0  0  0  0  0  0  0  0
    7.5248  -14.8472   23.7588 N   0  0  0  0  0  0  0  0  0  0  0  0
    8.6326  -15.8672   25.6424 C   0  0  0  0  0  0  0  0  0  0  0  0
    7.7515  -16.6498   26.0466 O   0  0  0  0  0  0  0  0  0  0  0  0
    9.9922  -16.2247   25.8149 N   0  0  0  0  0  0  0  0  0  0  0  0
   10.4335  -17.5281   26.2188 C   0  0  0  0  0  0  0  0  0  0  0  0
   10.5826  -17.6669   27.6676 C   0  0  0  0  0  0  0  0  0  0  0  0
   11.5958  -18.4314   28.2153 O   0  0  0  0  0  0  0  0  0  0  0  0
    9.7846  -17.0877   28.4396 O   0  0  0  0  0  0  0  0  0  0  0  0
  1  2  1  0
  3  2  1  0
  4  5  1  0
  4  3  1  0
  5  1  1  0
  5  6  1  1
  7  6  2  0
  9  8  1  0
  9 10  1  0
 10 12  1  0
 10 11  1  1
 12 13  1  6
 13  6  1  0
 14 15  2  0
 14 12  1  0
 16 14  1  0
 17 16  1  0
 18 17  1  0
 18 19  1  0
 20 18  2  0
M  END
$$$$
