PIG.pdb
     RDKit          3D

 20 20  0  0  1  0  0  0  0  0999 V2000
    7.0762  -15.0334   21.3090 N   0  0  0  0  0  0  0  0  0  0  0  0
    6.2836  -14.2212   20.4394 C   0  0  0  0  0  0  0  0  0  0  0  0
    7.2729  -13.4140   19.6246 C   0  0  0  0  0  0  0  0  0  0  0  0
    8.3632  -13.1594   20.6465 C   0  0  0  0  0  0  0  0  0  0  0  0
    8.4037  -14.5218   21.3514 C   0  0  1  0  0  0  0  0  0  0  0  0
    8.9205  -14.2795   22.7063 C   0  0  0  0  0  0  0  0  0  0  0  0
   10.0948  -13.8379   22.8498 O   0  0  0  0  0  0  0  0  0  0  0  0
    5.7971  -11.6188   25.9103 C   0  0  0  0  0  0  0  0  0  0  0  0
    7.0427  -12.2100   25.2693 C   0  0  0  0  0  0  0  0  0  0  0  0
    7.3954  -13.5360   25.8491 C   0  0  2  0  0  0  0  0  0  0  0  0
    7.5552  -13.4734   27.3608 C   0  0  0  0  0  0  0  0  0  0  0  0
    8.5399  -14.2434   25.1966 C   0  0  2  0  0  0  0  0  0  0  0  0
    8.1118  -14.5388   23.8164 N   0  0  0  0  0  0  0  0  0  0  0  0
    8.9901  -15.4648   25.8625 C   0  0  0  0  0  0  0  0  0  0  0  0
    9.4291  -15.4375   27.0282 O   0  0  0  0  0  0  0  0  0  0  0  0
    8.9330  -16.7075   25.1853 N   0  0  0  0  0  0  0  0  0  0  0  0
    9.2791  -17.9637   25.7844 C   0  0  0  0  0  0  0  0  0  0  0  0
   10.7205  -18.2119   25.8198 C   0  0  0  0  0  0  0  0  0  0  0  0
   11.6230  -17.2693   25.3637 O   0  0  0  0  0  0  0  0  0  0  0  0
   11.1607  -19.2947   26.2695 O   0  0  0  0  0  0  0  0  0  0  0  0
  1  2  1  0
  3  2  1  0
  4  5  1  0
  4  3  1  0
  5  1  1  0
  5  6  1  1
  7  6  2  0
  9  8  1  0
  9 10  1  0
 10 12  1  0
 10 11  1  1
 12 13  1  6
 13  6  1  0
 14 15  2  0
 14 12  1  0
 16 14  1  0
 17 16  1  0
 18 17  1  0
 18 19  1  0
 20 18  2  0
M  END
$$$$
