WLH.pdb
     RDKit          3D

 33 35  0  0  1  0  0  0  0  0999 V2000
   25.1326  -18.1387  -17.9155 N   0  0  0  0  0  0  0  0  0  0  0  0
   25.0077  -17.8758  -16.5395 C   0  0  1  0  0  0  0  0  0  0  0  0
   24.0357  -16.8284  -16.1223 C   0  0  0  0  0  0  0  0  0  0  0  0
   24.2876  -15.4950  -16.6656 C   0  0  0  0  0  0  0  0  0  0  0  0
   23.6029  -14.7629  -17.6006 C   0  0  0  0  0  0  0  0  0  0  0  0
   24.2471  -13.6188  -17.8605 N   0  0  0  0  0  0  0  0  0  0  0  0
   25.3388  -13.5951  -17.1122 C   0  0  0  0  0  0  0  0  0  0  0  0
   26.3570  -12.6597  -16.9448 C   0  0  0  0  0  0  0  0  0  0  0  0
   27.4025  -12.8349  -16.0713 C   0  0  0  0  0  0  0  0  0  0  0  0
   27.4693  -13.9939  -15.3074 C   0  0  0  0  0  0  0  0  0  0  0  0
   26.4628  -14.9005  -15.4839 C   0  0  0  0  0  0  0  0  0  0  0  0
   25.4028  -14.7493  -16.3516 C   0  0  0  0  0  0  0  0  0  0  0  0
   24.8224  -19.1296  -15.7450 C   0  0  0  0  0  0  0  0  0  0  0  0
   24.3662  -20.1713  -16.2530 O   0  0  0  0  0  0  0  0  0  0  0  0
   26.0450  -20.1053   -9.7724 C   0  0  0  0  0  0  0  0  0  0  0  0
   25.5527  -20.8196  -11.0484 C   0  0  2  0  0  0  0  0  0  0  0  0
   26.4668  -21.9930  -11.2835 C   0  0  0  0  0  0  0  0  0  0  0  0
   25.5413  -19.7978  -12.1223 C   0  0  0  0  0  0  0  0  0  0  0  0
   25.0196  -20.2346  -13.4536 C   0  0  2  0  0  0  0  0  0  0  0  0
   25.1755  -19.1449  -14.3632 N   0  0  0  0  0  0  0  0  0  0  0  0
   23.6854  -20.8174  -13.3444 C   0  0  0  0  0  0  0  0  0  0  0  0
   23.6435  -21.9419  -12.7379 O   0  0  0  0  0  0  0  0  0  0  0  0
   22.5051  -20.2682  -13.8307 N   0  0  0  0  0  0  0  0  0  0  0  0
   21.2048  -20.5400  -13.1908 C   0  0  1  0  0  0  0  0  0  0  0  0
   21.1847  -19.8519  -11.8386 C   0  0  0  0  0  0  0  0  0  0  0  0
   20.7439  -20.7628  -10.7749 C   0  0  0  0  0  0  0  0  0  0  0  0
   20.3961  -22.1055  -10.9967 C   0  0  0  0  0  0  0  0  0  0  0  0
   20.0463  -22.6548   -9.8280 N   0  0  0  0  0  0  0  0  0  0  0  0
   20.1564  -21.7137   -8.8624 C   0  0  0  0  0  0  0  0  0  0  0  0
   20.5754  -20.5917   -9.4536 N   0  0  0  0  0  0  0  0  0  0  0  0
   20.1818  -19.8488  -14.0423 C   0  0  0  0  0  0  0  0  0  0  0  0
   18.9404  -19.9432  -13.7541 O   0  0  0  0  0  0  0  0  0  0  0  0
   20.4591  -19.0931  -15.1482 O   0  0  0  0  0  0  0  0  0  0  0  0
  2  1  1  6
  3  2  1  0
  4  3  1  0
  4  5  2  0
  6  5  1  0
  7  6  1  0
  8  7  2  0
  9  8  1  0
 10  9  2  0
 10 11  1  0
 11 12  2  0
 12  7  1  0
 12  4  1  0
 13  2  1  0
 13 14  2  0
 16 15  1  1
 16 17  1  0
 19 18  1  1
 18 16  1  0
 19 20  1  0
 20 13  1  0
 21 19  1  0
 22 21  2  0
 23 21  1  0
 24 25  1  1
 24 23  1  0
 25 26  1  0
 26 27  2  0
 27 28  1  0
 29 28  1  0
 30 26  1  0
 30 29  2  0
 31 24  1  0
 32 31  2  0
 33 31  1  0
M  END
$$$$
