WLH.pdb
     RDKit          3D

 33 35  0  0  1  0  0  0  0  0999 V2000
  843.4029   59.6442  388.4589 N   0  0  0  0  0  0  0  0  0  0  0  0
  843.2341   58.2516  388.3556 C   0  0  1  0  0  0  0  0  0  0  0  0
  843.8026   57.5745  387.1582 C   0  0  0  0  0  0  0  0  0  0  0  0
  843.0331   57.7408  385.9261 C   0  0  0  0  0  0  0  0  0  0  0  0
  842.1921   58.7451  385.5229 C   0  0  0  0  0  0  0  0  0  0  0  0
  841.6296   58.4381  384.3473 N   0  0  0  0  0  0  0  0  0  0  0  0
  842.0890   57.2519  383.9811 C   0  0  0  0  0  0  0  0  0  0  0  0
  841.8788   56.4561  382.8574 C   0  0  0  0  0  0  0  0  0  0  0  0
  842.4979   55.2445  382.6685 C   0  0  0  0  0  0  0  0  0  0  0  0
  843.3801   54.7686  383.6311 C   0  0  0  0  0  0  0  0  0  0  0  0
  843.5742   55.5617  384.7262 C   0  0  0  0  0  0  0  0  0  0  0  0
  842.9680   56.7806  384.9404 C   0  0  0  0  0  0  0  0  0  0  0  0
  843.6307   57.5450  389.6127 C   0  0  0  0  0  0  0  0  0  0  0  0
  843.1400   57.8406  390.7187 O   0  0  0  0  0  0  0  0  0  0  0  0
  845.9749   56.4854  391.4864 C   0  0  0  0  0  0  0  0  0  0  0  0
  847.2458   56.1252  390.6887 C   0  0  2  0  0  0  0  0  0  0  0  0
  848.1082   57.3587  390.6441 C   0  0  0  0  0  0  0  0  0  0  0  0
  846.7852   55.6236  389.3718 C   0  0  0  0  0  0  0  0  0  0  0  0
  845.7277   56.4260  388.6848 C   0  0  2  0  0  0  0  0  0  0  0  0
  844.5986   56.4990  389.5562 N   0  0  0  0  0  0  0  0  0  0  0  0
  845.4836   55.9456  387.3276 C   0  0  0  0  0  0  0  0  0  0  0  0
  844.2903   55.5405  387.1127 O   0  0  0  0  0  0  0  0  0  0  0  0
  846.4105   55.8941  386.2938 N   0  0  0  0  0  0  0  0  0  0  0  0
  846.2502   54.9687  385.1570 C   0  0  1  0  0  0  0  0  0  0  0  0
  845.1343   55.4896  384.2708 C   0  0  0  0  0  0  0  0  0  0  0  0
  845.6612   56.2265  383.1147 C   0  0  0  0  0  0  0  0  0  0  0  0
  846.8422   55.8740  382.4417 C   0  0  0  0  0  0  0  0  0  0  0  0
  847.0377   56.7386  381.4397 N   0  0  0  0  0  0  0  0  0  0  0  0
  846.0243   57.6347  381.4442 C   0  0  0  0  0  0  0  0  0  0  0  0
  845.2146   57.3069  382.4547 N   0  0  0  0  0  0  0  0  0  0  0  0
  847.5186   55.0779  384.3637 C   0  0  0  0  0  0  0  0  0  0  0  0
  848.2527   56.1183  384.4713 O   0  0  0  0  0  0  0  0  0  0  0  0
  847.9880   54.1301  383.4964 O   0  0  0  0  0  0  0  0  0  0  0  0
  2  1  1  1
  3  2  1  0
  4  3  1  0
  4  5  2  0
  6  5  1  0
  7  6  1  0
  8  7  2  0
  9  8  1  0
 10  9  2  0
 10 11  1  0
 11 12  2  0
 12  7  1  0
 12  4  1  0
 13  2  1  0
 13 14  2  0
 16 15  1  1
 16 17  1  0
 19 18  1  1
 18 16  1  0
 19 20  1  0
 20 13  1  0
 21 19  1  0
 22 21  2  0
 23 21  1  0
 24 25  1  6
 24 23  1  0
 25 26  1  0
 26 27  2  0
 27 28  1  0
 29 28  1  0
 30 26  1  0
 30 29  2  0
 31 24  1  0
 32 31  2  0
 33 31  1  0
M  END
$$$$
