WLH.pdb
     RDKit          3D

 33 35  0  0  1  0  0  0  0  0999 V2000
   27.6641  -21.8181   12.1143 N   0  0  0  0  0  0  0  0  0  0  0  0
   27.1788  -22.3934   10.9262 C   0  0  1  0  0  0  0  0  0  0  0  0
   27.1628  -21.5436    9.7041 C   0  0  0  0  0  0  0  0  0  0  0  0
   26.6969  -20.1729    9.9064 C   0  0  0  0  0  0  0  0  0  0  0  0
   25.5512  -19.6907   10.4842 C   0  0  0  0  0  0  0  0  0  0  0  0
   25.4978  -18.3579   10.3728 N   0  0  0  0  0  0  0  0  0  0  0  0
   26.5876  -17.9658    9.7319 C   0  0  0  0  0  0  0  0  0  0  0  0
   27.0752  -16.7147    9.3620 C   0  0  0  0  0  0  0  0  0  0  0  0
   28.2725  -16.5364    8.7129 C   0  0  0  0  0  0  0  0  0  0  0  0
   29.0523  -17.6429    8.3989 C   0  0  0  0  0  0  0  0  0  0  0  0
   28.5593  -18.8621    8.7687 C   0  0  0  0  0  0  0  0  0  0  0  0
   27.3631  -19.0689    9.4212 C   0  0  0  0  0  0  0  0  0  0  0  0
   27.8084  -23.7219   10.6502 C   0  0  0  0  0  0  0  0  0  0  0  0
   27.4815  -24.4159    9.6690 O   0  0  0  0  0  0  0  0  0  0  0  0
   32.5902  -25.1109   10.2308 C   0  0  0  0  0  0  0  0  0  0  0  0
   31.7407  -24.2937   11.2266 C   0  0  2  0  0  0  0  0  0  0  0  0
   32.6948  -23.5076   12.0865 C   0  0  0  0  0  0  0  0  0  0  0  0
   30.8895  -25.2687   11.9493 C   0  0  0  0  0  0  0  0  0  0  0  0
   29.5043  -25.4650   11.4221 C   0  0  2  0  0  0  0  0  0  0  0  0
   28.8148  -24.2193   11.5301 N   0  0  0  0  0  0  0  0  0  0  0  0
   28.8601  -26.6302   12.0213 C   0  0  0  0  0  0  0  0  0  0  0  0
   29.4534  -27.7403   11.7983 O   0  0  0  0  0  0  0  0  0  0  0  0
   27.6976  -26.6270   12.7828 N   0  0  0  0  0  0  0  0  0  0  0  0
   27.1166  -27.8747   13.3119 C   0  0  1  0  0  0  0  0  0  0  0  0
   26.8193  -27.6755   14.7865 C   0  0  0  0  0  0  0  0  0  0  0  0
   28.0330  -27.7959   15.6038 C   0  0  0  0  0  0  0  0  0  0  0  0
   29.3082  -28.0430   15.0691 C   0  0  0  0  0  0  0  0  0  0  0  0
   30.1907  -28.0902   16.0735 N   0  0  0  0  0  0  0  0  0  0  0  0
   29.5291  -27.8825   17.2351 C   0  0  0  0  0  0  0  0  0  0  0  0
   28.2409  -27.7088   16.9276 N   0  0  0  0  0  0  0  0  0  0  0  0
   25.7941  -28.0304   12.6219 C   0  0  0  0  0  0  0  0  0  0  0  0
   25.0733  -27.0030   12.3814 O   0  0  0  0  0  0  0  0  0  0  0  0
   25.2585  -29.2183   12.2061 O   0  0  0  0  0  0  0  0  0  0  0  0
  2  1  1  1
  3  2  1  0
  4  3  1  0
  4  5  2  0
  6  5  1  0
  7  6  1  0
  8  7  2  0
  9  8  1  0
 10  9  2  0
 10 11  1  0
 11 12  2  0
 12  7  1  0
 12  4  1  0
 13  2  1  0
 13 14  2  0
 16 15  1  6
 16 17  1  0
 19 18  1  1
 18 16  1  0
 19 20  1  0
 20 13  1  0
 21 19  1  0
 22 21  2  0
 23 21  1  0
 24 25  1  1
 24 23  1  0
 25 26  1  0
 26 27  2  0
 27 28  1  0
 29 28  1  0
 30 26  1  0
 30 29  2  0
 31 24  1  0
 32 31  2  0
 33 31  1  0
M  END
$$$$
