WLH.pdb
     RDKit          3D

 33 35  0  0  1  0  0  0  0  0999 V2000
   15.3962  -16.8330    3.8438 N   0  0  0  0  0  0  0  0  0  0  0  0
   14.6672  -18.0323    3.9360 C   0  0  1  0  0  0  0  0  0  0  0  0
   13.7134  -18.3466    2.8372 C   0  0  0  0  0  0  0  0  0  0  0  0
   12.5304  -17.4901    2.7774 C   0  0  0  0  0  0  0  0  0  0  0  0
   12.4049  -16.1269    2.8499 C   0  0  0  0  0  0  0  0  0  0  0  0
   11.1132  -15.7762    2.8394 N   0  0  0  0  0  0  0  0  0  0  0  0
   10.3973  -16.8869    2.7626 C   0  0  0  0  0  0  0  0  0  0  0  0
    9.0284  -17.1331    2.6912 C   0  0  0  0  0  0  0  0  0  0  0  0
    8.4960  -18.3949    2.5856 C   0  0  0  0  0  0  0  0  0  0  0  0
    9.3446  -19.4948    2.5470 C   0  0  0  0  0  0  0  0  0  0  0  0
   10.6840  -19.2355    2.6181 C   0  0  0  0  0  0  0  0  0  0  0  0
   11.2441  -17.9806    2.7231 C   0  0  0  0  0  0  0  0  0  0  0  0
   15.5504  -19.2023    4.2336 C   0  0  0  0  0  0  0  0  0  0  0  0
   16.5608  -19.4567    3.5511 O   0  0  0  0  0  0  0  0  0  0  0  0
   18.1911  -21.0963    7.4743 C   0  0  0  0  0  0  0  0  0  0  0  0
   16.7837  -20.6566    7.9292 C   0  0  2  0  0  0  0  0  0  0  0  0
   16.7169  -20.8491    9.4213 C   0  0  0  0  0  0  0  0  0  0  0  0
   15.8189  -21.4598    7.1409 C   0  0  0  0  0  0  0  0  0  0  0  0
   15.8709  -21.2964    5.6557 C   0  0  2  0  0  0  0  0  0  0  0  0
   15.2364  -20.0595    5.3295 N   0  0  0  0  0  0  0  0  0  0  0  0
   15.3871  -22.4885    4.9655 C   0  0  0  0  0  0  0  0  0  0  0  0
   14.1142  -22.5903    4.9070 O   0  0  0  0  0  0  0  0  0  0  0  0
   16.1709  -23.4826    4.3922 N   0  0  0  0  0  0  0  0  0  0  0  0
   15.5703  -24.6376    3.6999 C   0  0  1  0  0  0  0  0  0  0  0  0
   16.5417  -25.1154    2.6367 C   0  0  0  0  0  0  0  0  0  0  0  0
   15.9977  -26.2477    1.8768 C   0  0  0  0  0  0  0  0  0  0  0  0
   14.7456  -26.8284    2.1376 C   0  0  0  0  0  0  0  0  0  0  0  0
   14.5490  -27.8277    1.2700 N   0  0  0  0  0  0  0  0  0  0  0  0
   15.6298  -27.9108    0.4606 C   0  0  0  0  0  0  0  0  0  0  0  0
   16.4814  -26.9556    0.8432 N   0  0  0  0  0  0  0  0  0  0  0  0
   15.4850  -25.7266    4.7275 C   0  0  0  0  0  0  0  0  0  0  0  0
   14.9370  -26.8428    4.4328 O   0  0  0  0  0  0  0  0  0  0  0  0
   15.9570  -25.6387    6.0084 O   0  0  0  0  0  0  0  0  0  0  0  0
  2  1  1  6
  3  2  1  0
  4  3  1  0
  4  5  2  0
  6  5  1  0
  7  6  1  0
  8  7  2  0
  9  8  1  0
 10  9  2  0
 10 11  1  0
 11 12  2  0
 12  7  1  0
 12  4  1  0
 13  2  1  0
 13 14  2  0
 16 15  1  6
 16 17  1  0
 19 18  1  1
 18 16  1  0
 19 20  1  0
 20 13  1  0
 21 19  1  0
 22 21  2  0
 23 21  1  0
 24 25  1  6
 24 23  1  0
 25 26  1  0
 26 27  2  0
 27 28  1  0
 29 28  1  0
 30 26  1  0
 30 29  2  0
 31 24  1  0
 32 31  2  0
 33 31  1  0
M  END
$$$$
