WLH.pdb
     RDKit          3D

 33 35  0  0  1  0  0  0  0  0999 V2000
   22.5042  -22.0471  -18.3438 N   0  0  0  0  0  0  0  0  0  0  0  0
   22.4418  -21.2719  -17.1719 C   0  0  1  0  0  0  0  0  0  0  0  0
   21.2013  -21.3568  -16.3534 C   0  0  0  0  0  0  0  0  0  0  0  0
   19.9724  -20.9731  -17.0458 C   0  0  0  0  0  0  0  0  0  0  0  0
   19.1451  -21.6912  -17.8698 C   0  0  0  0  0  0  0  0  0  0  0  0
   18.1746  -20.9073  -18.3546 N   0  0  0  0  0  0  0  0  0  0  0  0
   18.3573  -19.6926  -17.8615 C   0  0  0  0  0  0  0  0  0  0  0  0
   17.6550  -18.4971  -17.9931 C   0  0  0  0  0  0  0  0  0  0  0  0
   18.0176  -17.3378  -17.3519 C   0  0  0  0  0  0  0  0  0  0  0  0
   19.1361  -17.3327  -16.5273 C   0  0  0  0  0  0  0  0  0  0  0  0
   19.8132  -18.5133  -16.4094 C   0  0  0  0  0  0  0  0  0  0  0  0
   19.4707  -19.6901  -17.0399 C   0  0  0  0  0  0  0  0  0  0  0  0
   23.6606  -21.4437  -16.3220 C   0  0  0  0  0  0  0  0  0  0  0  0
   24.0299  -22.5618  -15.9163 O   0  0  0  0  0  0  0  0  0  0  0  0
   28.3226  -17.7141  -14.9964 C   0  0  0  0  0  0  0  0  0  0  0  0
   27.5721  -18.9505  -14.4587 C   0  0  2  0  0  0  0  0  0  0  0  0
   28.5483  -20.0972  -14.4531 C   0  0  0  0  0  0  0  0  0  0  0  0
   26.3851  -19.1307  -15.3282 C   0  0  0  0  0  0  0  0  0  0  0  0
   25.4504  -20.2381  -14.9605 C   0  0  2  0  0  0  0  0  0  0  0  0
   24.4314  -20.2998  -15.9589 N   0  0  0  0  0  0  0  0  0  0  0  0
   25.0091  -20.1319  -13.5727 C   0  0  0  0  0  0  0  0  0  0  0  0
   24.3372  -19.0775  -13.3068 O   0  0  0  0  0  0  0  0  0  0  0  0
   25.2548  -21.0497  -12.5586 N   0  0  0  0  0  0  0  0  0  0  0  0
   24.8310  -20.7980  -11.1689 C   0  0  1  0  0  0  0  0  0  0  0  0
   23.8755  -21.9012  -10.7535 C   0  0  0  0  0  0  0  0  0  0  0  0
   22.5273  -21.6793  -11.2906 C   0  0  0  0  0  0  0  0  0  0  0  0
   22.1952  -20.6102  -12.1390 C   0  0  0  0  0  0  0  0  0  0  0  0
   20.8968  -20.6983  -12.4492 N   0  0  0  0  0  0  0  0  0  0  0  0
   20.3816  -21.7856  -11.8308 C   0  0  0  0  0  0  0  0  0  0  0  0
   21.3761  -22.3553  -11.1448 N   0  0  0  0  0  0  0  0  0  0  0  0
   26.0659  -20.9589  -10.3332 C   0  0  0  0  0  0  0  0  0  0  0  0
   26.9400  -21.8370  -10.6460 O   0  0  0  0  0  0  0  0  0  0  0  0
   26.3623  -20.2251   -9.2176 O   0  0  0  0  0  0  0  0  0  0  0  0
  2  1  1  6
  3  2  1  0
  4  3  1  0
  4  5  2  0
  6  5  1  0
  7  6  1  0
  8  7  2  0
  9  8  1  0
 10  9  2  0
 10 11  1  0
 11 12  2  0
 12  7  1  0
 12  4  1  0
 13  2  1  0
 13 14  2  0
 16 15  1  6
 16 17  1  0
 19 18  1  6
 18 16  1  0
 19 20  1  0
 20 13  1  0
 21 19  1  0
 22 21  2  0
 23 21  1  0
 24 25  1  1
 24 23  1  0
 25 26  1  0
 26 27  2  0
 27 28  1  0
 29 28  1  0
 30 26  1  0
 30 29  2  0
 31 24  1  0
 32 31  2  0
 33 31  1  0
M  END
$$$$
