WLH.pdb
     RDKit          3D

 33 35  0  0  1  0  0  0  0  0999 V2000
   21.4165  -14.0895  -15.7583 N   0  0  0  0  0  0  0  0  0  0  0  0
   22.3274  -13.0217  -15.6668 C   0  0  1  0  0  0  0  0  0  0  0  0
   23.2399  -12.7919  -16.8202 C   0  0  0  0  0  0  0  0  0  0  0  0
   24.0248  -13.9539  -17.2327 C   0  0  0  0  0  0  0  0  0  0  0  0
   23.9754  -14.7107  -18.3746 C   0  0  0  0  0  0  0  0  0  0  0  0
   24.8259  -15.7407  -18.2889 N   0  0  0  0  0  0  0  0  0  0  0  0
   25.4259  -15.6674  -17.1112 C   0  0  0  0  0  0  0  0  0  0  0  0
   26.4079  -16.4388  -16.4945 C   0  0  0  0  0  0  0  0  0  0  0  0
   26.9155  -16.1550  -15.2501 C   0  0  0  0  0  0  0  0  0  0  0  0
   26.4412  -15.0502  -14.5531 C   0  0  0  0  0  0  0  0  0  0  0  0
   25.4785  -14.3047  -15.1724 C   0  0  0  0  0  0  0  0  0  0  0  0
   24.9531  -14.5662  -16.4195 C   0  0  0  0  0  0  0  0  0  0  0  0
   21.6592  -11.7509  -15.2472 C   0  0  0  0  0  0  0  0  0  0  0  0
   20.4649  -11.5151  -15.5108 O   0  0  0  0  0  0  0  0  0  0  0  0
   20.5542   -9.8449  -11.2988 C   0  0  0  0  0  0  0  0  0  0  0  0
   22.0334  -10.2444  -11.4818 C   0  0  2  0  0  0  0  0  0  0  0  0
   22.7160  -10.0475  -10.1541 C   0  0  0  0  0  0  0  0  0  0  0  0
   22.5562   -9.4159  -12.5943 C   0  0  0  0  0  0  0  0  0  0  0  0
   21.8887   -9.5828  -13.9217 C   0  0  2  0  0  0  0  0  0  0  0  0
   22.4018  -10.7722  -14.5226 N   0  0  0  0  0  0  0  0  0  0  0  0
   21.9566   -8.3597  -14.7162 C   0  0  0  0  0  0  0  0  0  0  0  0
   23.0877   -8.1484  -15.2728 O   0  0  0  0  0  0  0  0  0  0  0  0
   20.9294   -7.4430  -14.9050 N   0  0  0  0  0  0  0  0  0  0  0  0
   21.1139   -6.2340  -15.7287 C   0  0  1  0  0  0  0  0  0  0  0  0
   19.7450   -5.6813  -16.0794 C   0  0  0  0  0  0  0  0  0  0  0  0
   19.0558   -6.5273  -17.0618 C   0  0  0  0  0  0  0  0  0  0  0  0
   19.6813   -7.5723  -17.7616 C   0  0  0  0  0  0  0  0  0  0  0  0
   18.7813   -8.1439  -18.5698 N   0  0  0  0  0  0  0  0  0  0  0  0
   17.5994   -7.5040  -18.4152 C   0  0  0  0  0  0  0  0  0  0  0  0
   17.7894   -6.5421  -17.5082 N   0  0  0  0  0  0  0  0  0  0  0  0
   21.7687   -5.2275  -14.8301 C   0  0  0  0  0  0  0  0  0  0  0  0
   21.7461   -5.3910  -13.5629 O   0  0  0  0  0  0  0  0  0  0  0  0
   22.4171   -4.0996  -15.2525 O   0  0  0  0  0  0  0  0  0  0  0  0
  2  1  1  6
  3  2  1  0
  4  3  1  0
  4  5  2  0
  6  5  1  0
  7  6  1  0
  8  7  2  0
  9  8  1  0
 10  9  2  0
 10 11  1  0
 11 12  2  0
 12  7  1  0
 12  4  1  0
 13  2  1  0
 13 14  2  0
 16 15  1  1
 16 17  1  0
 19 18  1  1
 18 16  1  0
 19 20  1  0
 20 13  1  0
 21 19  1  0
 22 21  2  0
 23 21  1  0
 24 25  1  1
 24 23  1  0
 25 26  1  0
 26 27  2  0
 27 28  1  0
 29 28  1  0
 30 26  1  0
 30 29  2  0
 31 24  1  0
 32 31  2  0
 33 31  1  0
M  END
$$$$
