WLH.pdb
     RDKit          3D

 33 35  0  0  1  0  0  0  0  0999 V2000
   26.4673  -20.4982  -16.5310 N   0  0  0  0  0  0  0  0  0  0  0  0
   26.0467  -19.7727  -15.4018 C   0  0  1  0  0  0  0  0  0  0  0  0
   25.4590  -18.4239  -15.6275 C   0  0  0  0  0  0  0  0  0  0  0  0
   26.2642  -17.5253  -16.4527 C   0  0  0  0  0  0  0  0  0  0  0  0
   25.8978  -16.6247  -17.4190 C   0  0  0  0  0  0  0  0  0  0  0  0
   26.9819  -16.0772  -17.9815 N   0  0  0  0  0  0  0  0  0  0  0  0
   28.0461  -16.6068  -17.3989 C   0  0  0  0  0  0  0  0  0  0  0  0
   29.4151  -16.4023  -17.5525 C   0  0  0  0  0  0  0  0  0  0  0  0
   30.3617  -17.0570  -16.8028 C   0  0  0  0  0  0  0  0  0  0  0  0
   29.9579  -17.9729  -15.8387 C   0  0  0  0  0  0  0  0  0  0  0  0
   28.6119  -18.1613  -15.7012 C   0  0  0  0  0  0  0  0  0  0  0  0
   27.6418  -17.5174  -16.4386 C   0  0  0  0  0  0  0  0  0  0  0  0
   25.1804  -20.5938  -14.5002 C   0  0  0  0  0  0  0  0  0  0  0  0
   24.4971  -21.5436  -14.9270 O   0  0  0  0  0  0  0  0  0  0  0  0
   26.6677  -22.2297  -11.1272 C   0  0  0  0  0  0  0  0  0  0  0  0
   26.3218  -20.7839  -10.7138 C   0  0  2  0  0  0  0  0  0  0  0  0
   26.9152  -20.5563   -9.3485 C   0  0  0  0  0  0  0  0  0  0  0  0
   24.8461  -20.6676  -10.7927 C   0  0  0  0  0  0  0  0  0  0  0  0
   24.2337  -20.8488  -12.1445 C   0  0  2  0  0  0  0  0  0  0  0  0
   25.1271  -20.2893  -13.1078 N   0  0  0  0  0  0  0  0  0  0  0  0
   22.8511  -20.3806  -12.1765 C   0  0  0  0  0  0  0  0  0  0  0  0
   22.6950  -19.1578  -11.8383 O   0  0  0  0  0  0  0  0  0  0  0  0
   21.7361  -21.1312  -12.5295 N   0  0  0  0  0  0  0  0  0  0  0  0
   20.4702  -20.4919  -12.9333 C   0  0  1  0  0  0  0  0  0  0  0  0
   20.7199  -19.6962  -14.2010 C   0  0  0  0  0  0  0  0  0  0  0  0
   19.4722  -19.1553  -14.7544 C   0  0  0  0  0  0  0  0  0  0  0  0
   18.6846  -18.1938  -14.1000 C   0  0  0  0  0  0  0  0  0  0  0  0
   17.6262  -17.9134  -14.8688 N   0  0  0  0  0  0  0  0  0  0  0  0
   17.7046  -18.6601  -15.9942 C   0  0  0  0  0  0  0  0  0  0  0  0
   18.8169  -19.3937  -15.9021 N   0  0  0  0  0  0  0  0  0  0  0  0
   19.5487  -21.6158  -13.3034 C   0  0  0  0  0  0  0  0  0  0  0  0
   20.0252  -22.7688  -13.5803 O   0  0  0  0  0  0  0  0  0  0  0  0
   18.1860  -21.5242  -13.3780 O   0  0  0  0  0  0  0  0  0  0  0  0
  2  1  1  6
  3  2  1  0
  4  3  1  0
  4  5  2  0
  6  5  1  0
  7  6  1  0
  8  7  2  0
  9  8  1  0
 10  9  2  0
 10 11  1  0
 11 12  2  0
 12  7  1  0
 12  4  1  0
 13  2  1  0
 13 14  2  0
 16 15  1  1
 16 17  1  0
 19 18  1  1
 18 16  1  0
 19 20  1  0
 20 13  1  0
 21 19  1  0
 22 21  2  0
 23 21  1  0
 24 25  1  6
 24 23  1  0
 25 26  1  0
 26 27  2  0
 27 28  1  0
 29 28  1  0
 30 26  1  0
 30 29  2  0
 31 24  1  0
 32 31  2  0
 33 31  1  0
M  END
$$$$
