WLH.pdb
     RDKit          3D

 33 35  0  0  1  0  0  0  0  0999 V2000
   25.4998  -20.1827  -17.2586 N   0  0  0  0  0  0  0  0  0  0  0  0
   25.2613  -19.4788  -16.0645 C   0  0  1  0  0  0  0  0  0  0  0  0
   24.8862  -18.0424  -16.1731 C   0  0  0  0  0  0  0  0  0  0  0  0
   25.8056  -17.2174  -16.9547 C   0  0  0  0  0  0  0  0  0  0  0  0
   25.5723  -16.3424  -17.9838 C   0  0  0  0  0  0  0  0  0  0  0  0
   26.7282  -15.8695  -18.4652 N   0  0  0  0  0  0  0  0  0  0  0  0
   27.7083  -16.4225  -17.7682 C   0  0  0  0  0  0  0  0  0  0  0  0
   29.0940  -16.2879  -17.8037 C   0  0  0  0  0  0  0  0  0  0  0  0
   29.9361  -16.9533  -16.9465 C   0  0  0  0  0  0  0  0  0  0  0  0
   29.4029  -17.8082  -15.9894 C   0  0  0  0  0  0  0  0  0  0  0  0
   28.0422  -17.9285  -15.9684 C   0  0  0  0  0  0  0  0  0  0  0  0
   27.1751  -17.2723  -16.8152 C   0  0  0  0  0  0  0  0  0  0  0  0
   24.3236  -20.2135  -15.1599 C   0  0  0  0  0  0  0  0  0  0  0  0
   23.4108  -20.9363  -15.6021 O   0  0  0  0  0  0  0  0  0  0  0  0
   25.6992  -22.5700  -11.8138 C   0  0  0  0  0  0  0  0  0  0  0  0
   25.7468  -21.0716  -11.4485 C   0  0  2  0  0  0  0  0  0  0  0  0
   26.4730  -20.9558  -10.1344 C   0  0  0  0  0  0  0  0  0  0  0  0
   24.3423  -20.5975  -11.4424 C   0  0  0  0  0  0  0  0  0  0  0  0
   23.6149  -20.6485  -12.7476 C   0  0  2  0  0  0  0  0  0  0  0  0
   24.4693  -20.0903  -13.7464 N   0  0  0  0  0  0  0  0  0  0  0  0
   22.2721  -20.0858  -12.6382 C   0  0  0  0  0  0  0  0  0  0  0  0
   22.2307  -18.8907  -12.1866 O   0  0  0  0  0  0  0  0  0  0  0  0
   21.0830  -20.7234  -12.9712 N   0  0  0  0  0  0  0  0  0  0  0  0
   19.9114  -19.9704  -13.4555 C   0  0  1  0  0  0  0  0  0  0  0  0
   20.2717  -19.3275  -14.7819 C   0  0  0  0  0  0  0  0  0  0  0  0
   19.1453  -18.5677  -15.3382 C   0  0  0  0  0  0  0  0  0  0  0  0
   17.9153  -18.4077  -14.6790 C   0  0  0  0  0  0  0  0  0  0  0  0
   17.1122  -17.6635  -15.4479 N   0  0  0  0  0  0  0  0  0  0  0  0
   17.7814  -17.3392  -16.5780 C   0  0  0  0  0  0  0  0  0  0  0  0
   18.9944  -17.8911  -16.4883 N   0  0  0  0  0  0  0  0  0  0  0  0
   18.8600  -20.9996  -13.7459 C   0  0  0  0  0  0  0  0  0  0  0  0
   17.6387  -20.7674  -13.4502 O   0  0  0  0  0  0  0  0  0  0  0  0
   19.0900  -22.2187  -14.3221 O   0  0  0  0  0  0  0  0  0  0  0  0
  2  1  1  6
  3  2  1  0
  4  3  1  0
  4  5  2  0
  6  5  1  0
  7  6  1  0
  8  7  2  0
  9  8  1  0
 10  9  2  0
 10 11  1  0
 11 12  2  0
 12  7  1  0
 12  4  1  0
 13  2  1  0
 13 14  2  0
 16 15  1  1
 16 17  1  0
 19 18  1  1
 18 16  1  0
 19 20  1  0
 20 13  1  0
 21 19  1  0
 22 21  2  0
 23 21  1  0
 24 25  1  6
 24 23  1  0
 25 26  1  0
 26 27  2  0
 27 28  1  0
 29 28  1  0
 30 26  1  0
 30 29  2  0
 31 24  1  0
 32 31  2  0
 33 31  1  0
M  END
$$$$
