WLH.pdb
     RDKit          3D

 33 35  0  0  1  0  0  0  0  0999 V2000
   26.9689  -21.8060   -9.7270 N   0  0  0  0  0  0  0  0  0  0  0  0
   26.0637  -20.7699   -9.4347 C   0  0  1  0  0  0  0  0  0  0  0  0
   26.4731  -19.7618   -8.4188 C   0  0  0  0  0  0  0  0  0  0  0  0
   26.7883  -20.3031   -7.0981 C   0  0  0  0  0  0  0  0  0  0  0  0
   26.2658  -21.3730   -6.4188 C   0  0  0  0  0  0  0  0  0  0  0  0
   26.7953  -21.4504   -5.1920 N   0  0  0  0  0  0  0  0  0  0  0  0
   27.6515  -20.4494   -5.0616 C   0  0  0  0  0  0  0  0  0  0  0  0
   28.4996  -20.0513   -4.0311 C   0  0  0  0  0  0  0  0  0  0  0  0
   29.3432  -18.9715   -4.1265 C   0  0  0  0  0  0  0  0  0  0  0  0
   29.3688  -18.2243   -5.2979 C   0  0  0  0  0  0  0  0  0  0  0  0
   28.5309  -18.6284   -6.2983 C   0  0  0  0  0  0  0  0  0  0  0  0
   27.6762  -19.7075   -6.2294 C   0  0  0  0  0  0  0  0  0  0  0  0
   25.5520  -20.1079  -10.6746 C   0  0  0  0  0  0  0  0  0  0  0  0
   25.2641  -18.8965  -10.7051 O   0  0  0  0  0  0  0  0  0  0  0  0
   27.9508  -21.5885  -14.1585 C   0  0  0  0  0  0  0  0  0  0  0  0
   26.5944  -22.1991  -13.7479 C   0  0  2  0  0  0  0  0  0  0  0  0
   26.5173  -23.5702  -14.3658 C   0  0  0  0  0  0  0  0  0  0  0  0
   25.5530  -21.2423  -14.1923 C   0  0  0  0  0  0  0  0  0  0  0  0
   24.9193  -20.4041  -13.1287 C   0  0  2  0  0  0  0  0  0  0  0  0
   25.3847  -20.8769  -11.8642 N   0  0  0  0  0  0  0  0  0  0  0  0
   23.4732  -20.3107  -13.3069 C   0  0  0  0  0  0  0  0  0  0  0  0
   23.1033  -19.9349  -14.4714 O   0  0  0  0  0  0  0  0  0  0  0  0
   22.5063  -20.5852  -12.3472 N   0  0  0  0  0  0  0  0  0  0  0  0
   21.0726  -20.3594  -12.6076 C   0  0  1  0  0  0  0  0  0  0  0  0
   20.7593  -18.9021  -12.3240 C   0  0  0  0  0  0  0  0  0  0  0  0
   19.3409  -18.5996  -12.5529 C   0  0  0  0  0  0  0  0  0  0  0  0
   18.3745  -19.5777  -12.8397 C   0  0  0  0  0  0  0  0  0  0  0  0
   17.1887  -18.9762  -12.9877 N   0  0  0  0  0  0  0  0  0  0  0  0
   17.3576  -17.6462  -12.8066 C   0  0  0  0  0  0  0  0  0  0  0  0
   18.6526  -17.4465  -12.5476 N   0  0  0  0  0  0  0  0  0  0  0  0
   20.8920  -20.5610  -14.0827 C   0  0  0  0  0  0  0  0  0  0  0  0
   21.6339  -19.9299  -14.9100 O   0  0  0  0  0  0  0  0  0  0  0  0
   19.9687  -21.3912  -14.6563 O   0  0  0  0  0  0  0  0  0  0  0  0
  2  1  1  6
  3  2  1  0
  4  3  1  0
  4  5  2  0
  6  5  1  0
  7  6  1  0
  8  7  2  0
  9  8  1  0
 10  9  2  0
 10 11  1  0
 11 12  2  0
 12  7  1  0
 12  4  1  0
 13  2  1  0
 13 14  2  0
 16 15  1  6
 16 17  1  0
 19 18  1  6
 18 16  1  0
 19 20  1  0
 20 13  1  0
 21 19  1  0
 22 21  2  0
 23 21  1  0
 24 25  1  6
 24 23  1  0
 25 26  1  0
 26 27  2  0
 27 28  1  0
 29 28  1  0
 30 26  1  0
 30 29  2  0
 31 24  1  0
 32 31  2  0
 33 31  1  0
M  END
$$$$
