WLH.pdb
     RDKit          3D

 33 35  0  0  1  0  0  0  0  0999 V2000
   26.4103  -18.8481  -14.3698 N   0  0  0  0  0  0  0  0  0  0  0  0
   25.6128  -19.7586  -15.0861 C   0  0  1  0  0  0  0  0  0  0  0  0
   26.2417  -20.4775  -16.2279 C   0  0  0  0  0  0  0  0  0  0  0  0
   27.0566  -19.6467  -17.1124 C   0  0  0  0  0  0  0  0  0  0  0  0
   28.3649  -19.7674  -17.5035 C   0  0  0  0  0  0  0  0  0  0  0  0
   28.7246  -18.7222  -18.2581 N   0  0  0  0  0  0  0  0  0  0  0  0
   27.6739  -17.9238  -18.3633 C   0  0  0  0  0  0  0  0  0  0  0  0
   27.4542  -16.7246  -19.0366 C   0  0  0  0  0  0  0  0  0  0  0  0
   26.2470  -16.0694  -19.0305 C   0  0  0  0  0  0  0  0  0  0  0  0
   25.1786  -16.6094  -18.3247 C   0  0  0  0  0  0  0  0  0  0  0  0
   25.4113  -17.7857  -17.6702 C   0  0  0  0  0  0  0  0  0  0  0  0
   26.6111  -18.4640  -17.6608 C   0  0  0  0  0  0  0  0  0  0  0  0
   24.8973  -20.7092  -14.1795 C   0  0  0  0  0  0  0  0  0  0  0  0
   24.6253  -21.8740  -14.5268 O   0  0  0  0  0  0  0  0  0  0  0  0
   26.8892  -21.7490  -10.9830 C   0  0  0  0  0  0  0  0  0  0  0  0
   26.0246  -20.4939  -10.7417 C   0  0  2  0  0  0  0  0  0  0  0  0
   26.5799  -19.7964   -9.5281 C   0  0  0  0  0  0  0  0  0  0  0  0
   24.6252  -20.9671  -10.6180 C   0  0  0  0  0  0  0  0  0  0  0  0
   23.8369  -21.0580  -11.8851 C   0  0  2  0  0  0  0  0  0  0  0  0
   24.5100  -20.2802  -12.8755 N   0  0  0  0  0  0  0  0  0  0  0  0
   22.4241  -20.7640  -11.6628 C   0  0  0  0  0  0  0  0  0  0  0  0
   21.7671  -21.7037  -11.0977 O   0  0  0  0  0  0  0  0  0  0  0  0
   21.7639  -19.5903  -12.0058 N   0  0  0  0  0  0  0  0  0  0  0  0
   20.9404  -19.4947  -13.2253 C   0  0  1  0  0  0  0  0  0  0  0  0
   21.7819  -19.9417  -14.4062 C   0  0  0  0  0  0  0  0  0  0  0  0
   21.0346  -19.8531  -15.6669 C   0  0  0  0  0  0  0  0  0  0  0  0
   21.0709  -18.7335  -16.5144 C   0  0  0  0  0  0  0  0  0  0  0  0
   20.2894  -18.9738  -17.5733 N   0  0  0  0  0  0  0  0  0  0  0  0
   19.7516  -20.2077  -17.4374 C   0  0  0  0  0  0  0  0  0  0  0  0
   20.2126  -20.7129  -16.2902 N   0  0  0  0  0  0  0  0  0  0  0  0
   19.8521  -20.5133  -13.0603 C   0  0  0  0  0  0  0  0  0  0  0  0
   20.0111  -21.4949  -12.2577 O   0  0  0  0  0  0  0  0  0  0  0  0
   18.6511  -20.4948  -13.7147 O   0  0  0  0  0  0  0  0  0  0  0  0
  2  1  1  1
  3  2  1  0
  4  3  1  0
  4  5  2  0
  6  5  1  0
  7  6  1  0
  8  7  2  0
  9  8  1  0
 10  9  2  0
 10 11  1  0
 11 12  2  0
 12  7  1  0
 12  4  1  0
 13  2  1  0
 13 14  2  0
 16 15  1  1
 16 17  1  0
 19 18  1  1
 18 16  1  0
 19 20  1  0
 20 13  1  0
 21 19  1  0
 22 21  2  0
 23 21  1  0
 24 25  1  6
 24 23  1  0
 25 26  1  0
 26 27  2  0
 27 28  1  0
 29 28  1  0
 30 26  1  0
 30 29  2  0
 31 24  1  0
 32 31  2  0
 33 31  1  0
M  END
$$$$
