NTF.pdb
     RDKit          3D

 27 27  0  0  1  0  0  0  0  0999 V2000
   18.6114  -14.7608  -19.2465 N   0  0  0  0  0  0  0  0  0  0  0  0
   19.9014  -14.1648  -19.3037 C   0  0  0  0  0  0  0  0  0  0  0  0
   20.8460  -14.7883  -18.7546 O   0  0  0  0  0  0  0  0  0  0  0  0
   20.2071  -12.8862  -19.9515 C   0  0  0  0  0  0  0  0  0  0  0  0
   19.0265  -12.2782  -20.6612 C   0  0  2  0  0  0  0  0  0  0  0  0
   19.0617  -12.4127  -22.0721 N   0  0  0  0  0  0  0  0  0  0  0  0
   18.9282  -10.8624  -20.2482 C   0  0  0  0  0  0  0  0  0  0  0  0
   19.5473   -9.9706  -20.9039 O   0  0  0  0  0  0  0  0  0  0  0  0
   16.1521   -8.7567  -20.1814 C   0  0  0  0  0  0  0  0  0  0  0  0
   16.6816   -8.5526  -18.7624 C   0  0  1  0  0  0  0  0  0  0  0  0
   15.9465   -9.3247  -17.8681 O   0  0  0  0  0  0  0  0  0  0  0  0
   18.1279   -9.0343  -18.7495 C   0  0  2  0  0  0  0  0  0  0  0  0
   18.1678  -10.4116  -19.1360 N   0  0  0  0  0  0  0  0  0  0  0  0
   18.6855   -8.7938  -17.3911 C   0  0  0  0  0  0  0  0  0  0  0  0
   19.0879   -9.7040  -16.6441 O   0  0  0  0  0  0  0  0  0  0  0  0
   18.7556   -7.4549  -16.9387 N   0  0  0  0  0  0  0  0  0  0  0  0
   19.3044   -7.1274  -15.6237 C   0  0  1  0  0  0  0  0  0  0  0  0
   20.7301   -7.5290  -15.5309 C   0  0  0  0  0  0  0  0  0  0  0  0
   21.3551   -7.2055  -14.2560 C   0  0  0  0  0  0  0  0  0  0  0  0
   21.9611   -5.9727  -14.0556 C   0  0  0  0  0  0  0  0  0  0  0  0
   22.5302   -5.6532  -12.8594 C   0  0  0  0  0  0  0  0  0  0  0  0
   22.5365   -6.5271  -11.7906 C   0  0  0  0  0  0  0  0  0  0  0  0
   21.9332   -7.7676  -11.9738 C   0  0  0  0  0  0  0  0  0  0  0  0
   21.3585   -8.0874  -13.1853 C   0  0  0  0  0  0  0  0  0  0  0  0
   19.1368   -5.7004  -15.3062 C   0  0  0  0  0  0  0  0  0  0  0  0
   18.9208   -5.2414  -14.0310 O   0  0  0  0  0  0  0  0  0  0  0  0
   19.1995   -4.8799  -16.2903 O   0  0  0  0  0  0  0  0  0  0  0  0
  2  1  1  0
  3  2  2  0
  4  2  1  0
  5  6  1  6
  5  4  1  0
  7  5  1  0
  7  8  2  0
 10  9  1  6
 10 12  1  0
 11 10  1  0
 12 13  1  1
 12 14  1  0
 13  7  1  0
 14 16  1  0
 15 14  2  0
 16 17  1  0
 17 25  1  0
 18 19  1  0
 17 18  1  6
 19 24  2  0
 20 21  2  0
 20 19  1  0
 21 22  1  0
 22 23  2  0
 24 23  1  0
 25 27  2  0
 25 26  1  0
M  END
$$$$
