NTF.pdb
     RDKit          3D

 27 27  0  0  1  0  0  0  0  0999 V2000
   17.3977  -13.6962  -15.1604 N   0  0  0  0  0  0  0  0  0  0  0  0
   17.3570  -12.5602  -16.0150 C   0  0  0  0  0  0  0  0  0  0  0  0
   16.3323  -12.4176  -16.7308 O   0  0  0  0  0  0  0  0  0  0  0  0
   18.4148  -11.5513  -16.1209 C   0  0  0  0  0  0  0  0  0  0  0  0
   19.0514  -11.4934  -17.4842 C   0  0  2  0  0  0  0  0  0  0  0  0
   19.7907  -12.6520  -17.8323 N   0  0  0  0  0  0  0  0  0  0  0  0
   19.8838  -10.2736  -17.5452 C   0  0  0  0  0  0  0  0  0  0  0  0
   21.1459  -10.3753  -17.6168 O   0  0  0  0  0  0  0  0  0  0  0  0
   20.0650   -7.7507  -20.0728 C   0  0  0  0  0  0  0  0  0  0  0  0
   19.7564   -6.9506  -18.8077 C   0  0  1  0  0  0  0  0  0  0  0  0
   18.3860   -6.7296  -18.7109 O   0  0  0  0  0  0  0  0  0  0  0  0
   20.1995   -7.7991  -17.6211 C   0  0  2  0  0  0  0  0  0  0  0  0
   19.3588   -8.9535  -17.5291 N   0  0  0  0  0  0  0  0  0  0  0  0
   20.1576   -6.9488  -16.4008 C   0  0  0  0  0  0  0  0  0  0  0  0
   19.2115   -6.9557  -15.5925 O   0  0  0  0  0  0  0  0  0  0  0  0
   21.2583   -6.0928  -16.1600 N   0  0  0  0  0  0  0  0  0  0  0  0
   21.3070   -5.2364  -14.9759 C   0  0  1  0  0  0  0  0  0  0  0  0
   22.4257   -5.6306  -14.0839 C   0  0  0  0  0  0  0  0  0  0  0  0
   22.3023   -6.9748  -13.5375 C   0  0  0  0  0  0  0  0  0  0  0  0
   23.0190   -8.0310  -14.0834 C   0  0  0  0  0  0  0  0  0  0  0  0
   22.9259   -9.2881  -13.5658 C   0  0  0  0  0  0  0  0  0  0  0  0
   22.1229   -9.5800  -12.4813 C   0  0  0  0  0  0  0  0  0  0  0  0
   21.3973   -8.5329  -11.9214 C   0  0  0  0  0  0  0  0  0  0  0  0
   21.4939   -7.2624  -12.4476 C   0  0  0  0  0  0  0  0  0  0  0  0
   21.3985   -3.8134  -15.3392 C   0  0  0  0  0  0  0  0  0  0  0  0
   21.2740   -2.8007  -14.4214 O   0  0  0  0  0  0  0  0  0  0  0  0
   21.6023   -3.5469  -16.5774 O   0  0  0  0  0  0  0  0  0  0  0  0
  2  1  1  0
  3  2  2  0
  4  2  1  0
  5  6  1  1
  5  4  1  0
  7  5  1  0
  7  8  2  0
 10  9  1  6
 10 12  1  0
 11 10  1  0
 12 13  1  1
 12 14  1  0
 13  7  1  0
 14 16  1  0
 15 14  2  0
 16 17  1  0
 17 25  1  0
 18 19  1  0
 17 18  1  1
 19 24  2  0
 20 21  2  0
 20 19  1  0
 21 22  1  0
 22 23  2  0
 24 23  1  0
 25 27  2  0
 25 26  1  0
M  END
$$$$
