NTF.pdb
     RDKit          3D

 27 27  0  0  1  0  0  0  0  0999 V2000
   16.0227  -15.3546  -15.4996 N   0  0  0  0  0  0  0  0  0  0  0  0
   17.3636  -15.0688  -15.1221 C   0  0  0  0  0  0  0  0  0  0  0  0
   17.8972  -15.8339  -14.2780 O   0  0  0  0  0  0  0  0  0  0  0  0
   18.1626  -13.9554  -15.6417 C   0  0  0  0  0  0  0  0  0  0  0  0
   17.4223  -13.1018  -16.6371 C   0  0  2  0  0  0  0  0  0  0  0  0
   17.1394  -13.7508  -17.8654 N   0  0  0  0  0  0  0  0  0  0  0  0
   18.2007  -11.8618  -16.8394 C   0  0  0  0  0  0  0  0  0  0  0  0
   18.6822  -11.5998  -17.9830 O   0  0  0  0  0  0  0  0  0  0  0  0
   17.9195   -9.6803  -18.2367 C   0  0  0  0  0  0  0  0  0  0  0  0
   18.2108   -8.8285  -17.0017 C   0  0  1  0  0  0  0  0  0  0  0  0
   17.0236   -8.5420  -16.3347 O   0  0  0  0  0  0  0  0  0  0  0  0
   19.0990   -9.6596  -16.0828 C   0  0  2  0  0  0  0  0  0  0  0  0
   18.4582  -10.9109  -15.8155 N   0  0  0  0  0  0  0  0  0  0  0  0
   19.3652   -8.8666  -14.8522 C   0  0  0  0  0  0  0  0  0  0  0  0
   18.7098   -8.9904  -13.8017 O   0  0  0  0  0  0  0  0  0  0  0  0
   20.4219   -7.9264  -14.8938 N   0  0  0  0  0  0  0  0  0  0  0  0
   20.7483   -7.1018  -13.7314 C   0  0  1  0  0  0  0  0  0  0  0  0
   22.1934   -6.7647  -13.7113 C   0  0  0  0  0  0  0  0  0  0  0  0
   22.5100   -5.4772  -14.3138 C   0  0  0  0  0  0  0  0  0  0  0  0
   23.1457   -5.4078  -15.5459 C   0  0  0  0  0  0  0  0  0  0  0  0
   23.4273   -4.2078  -16.1270 C   0  0  0  0  0  0  0  0  0  0  0  0
   23.1002   -3.0064  -15.5307 C   0  0  0  0  0  0  0  0  0  0  0  0
   22.4623   -3.0574  -14.2951 C   0  0  0  0  0  0  0  0  0  0  0  0
   22.1790   -4.2730  -13.7101 C   0  0  0  0  0  0  0  0  0  0  0  0
   19.9222   -5.8851  -13.6805 C   0  0  0  0  0  0  0  0  0  0  0  0
   19.6013   -5.2511  -12.5064 O   0  0  0  0  0  0  0  0  0  0  0  0
   19.5003   -5.4278  -14.8023 O   0  0  0  0  0  0  0  0  0  0  0  0
  2  1  1  0
  3  2  2  0
  4  2  1  0
  5  6  1  6
  5  4  1  0
  7  5  1  0
  7  8  2  0
 10  9  1  6
 10 12  1  0
 11 10  1  0
 12 13  1  1
 12 14  1  0
 13  7  1  0
 14 16  1  0
 15 14  2  0
 16 17  1  0
 17 25  1  0
 18 19  1  0
 17 18  1  6
 19 24  2  0
 20 21  2  0
 20 19  1  0
 21 22  1  0
 22 23  2  0
 24 23  1  0
 25 27  2  0
 25 26  1  0
M  END
$$$$
