NTF.pdb
     RDKit          3D

 27 27  0  0  1  0  0  0  0  0999 V2000
   16.3158  -20.3620    0.9656 N   0  0  0  0  0  0  0  0  0  0  0  0
   17.1410  -19.3599    1.5463 C   0  0  0  0  0  0  0  0  0  0  0  0
   18.2581  -19.1529    1.0059 O   0  0  0  0  0  0  0  0  0  0  0  0
   16.7864  -18.5571    2.7200 C   0  0  0  0  0  0  0  0  0  0  0  0
   15.4647  -18.9418    3.3303 C   0  0  2  0  0  0  0  0  0  0  0  0
   14.3832  -18.9621    2.4140 N   0  0  0  0  0  0  0  0  0  0  0  0
   15.2053  -18.0294    4.4638 C   0  0  0  0  0  0  0  0  0  0  0  0
   14.0111  -17.7535    4.7897 O   0  0  0  0  0  0  0  0  0  0  0  0
   14.1181  -18.3102    6.8747 C   0  0  0  0  0  0  0  0  0  0  0  0
   15.3837  -17.7032    7.4793 C   0  0  1  0  0  0  0  0  0  0  0  0
   16.3274  -18.7015    7.7006 O   0  0  0  0  0  0  0  0  0  0  0  0
   15.9426  -16.7204    6.4567 C   0  0  2  0  0  0  0  0  0  0  0  0
   16.2265  -17.4188    5.2403 N   0  0  0  0  0  0  0  0  0  0  0  0
   17.1422  -16.0676    7.0474 C   0  0  0  0  0  0  0  0  0  0  0  0
   18.3054  -16.4620    6.8482 O   0  0  0  0  0  0  0  0  0  0  0  0
   16.9335  -14.9403    7.8768 N   0  0  0  0  0  0  0  0  0  0  0  0
   18.0578  -14.2184    8.4708 C   0  0  1  0  0  0  0  0  0  0  0  0
   17.9883  -12.7720    8.1459 C   0  0  0  0  0  0  0  0  0  0  0  0
   18.4588  -12.4420    6.8079 C   0  0  0  0  0  0  0  0  0  0  0  0
   19.7377  -11.9398    6.6093 C   0  0  0  0  0  0  0  0  0  0  0  0
   20.1940  -11.6477    5.3590 C   0  0  0  0  0  0  0  0  0  0  0  0
   19.4195  -11.8322    4.2311 C   0  0  0  0  0  0  0  0  0  0  0  0
   18.1346  -12.3350    4.4117 C   0  0  0  0  0  0  0  0  0  0  0  0
   17.6763  -12.6295    5.6780 C   0  0  0  0  0  0  0  0  0  0  0  0
   18.1300  -14.4294    9.9253 C   0  0  0  0  0  0  0  0  0  0  0  0
   19.2868  -14.2651   10.6453 O   0  0  0  0  0  0  0  0  0  0  0  0
   17.0448  -14.7835   10.5107 O   0  0  0  0  0  0  0  0  0  0  0  0
  2  1  1  0
  3  2  2  0
  4  2  1  0
  5  6  1  6
  5  4  1  0
  7  5  1  0
  7  8  2  0
 10  9  1  6
 10 12  1  0
 11 10  1  0
 12 13  1  6
 12 14  1  0
 13  7  1  0
 14 16  1  0
 15 14  2  0
 16 17  1  0
 17 25  1  0
 18 19  1  0
 17 18  1  1
 19 24  2  0
 20 21  2  0
 20 19  1  0
 21 22  1  0
 22 23  2  0
 24 23  1  0
 25 27  2  0
 25 26  1  0
M  END
$$$$
