NTF.pdb
     RDKit          3D

 27 27  0  0  1  0  0  0  0  0999 V2000
   27.2414  -20.8081  -20.2240 N   0  0  0  0  0  0  0  0  0  0  0  0
   28.4389  -20.9768  -19.4757 C   0  0  0  0  0  0  0  0  0  0  0  0
   29.2924  -21.7802  -19.9327 O   0  0  0  0  0  0  0  0  0  0  0  0
   28.7480  -20.2872  -18.2199 C   0  0  0  0  0  0  0  0  0  0  0  0
   28.7975  -21.2073  -17.0291 C   0  0  2  0  0  0  0  0  0  0  0  0
   27.9937  -22.3683  -17.1554 N   0  0  0  0  0  0  0  0  0  0  0  0
   28.4377  -20.4196  -15.8313 C   0  0  0  0  0  0  0  0  0  0  0  0
   28.9703  -19.2846  -15.6405 O   0  0  0  0  0  0  0  0  0  0  0  0
   27.3796  -18.0712  -15.2492 C   0  0  0  0  0  0  0  0  0  0  0  0
   26.3858  -18.7845  -14.3331 C   0  0  1  0  0  0  0  0  0  0  0  0
   25.2845  -19.2091  -15.0701 O   0  0  0  0  0  0  0  0  0  0  0  0
   27.0963  -20.0088  -13.7672 C   0  0  2  0  0  0  0  0  0  0  0  0
   27.5099  -20.8527  -14.8464 N   0  0  0  0  0  0  0  0  0  0  0  0
   26.1706  -20.6863  -12.8194 C   0  0  0  0  0  0  0  0  0  0  0  0
   25.6892  -21.8159  -13.0206 O   0  0  0  0  0  0  0  0  0  0  0  0
   25.8291  -19.9976  -11.6314 N   0  0  0  0  0  0  0  0  0  0  0  0
   24.9143  -20.5834  -10.6527 C   0  0  1  0  0  0  0  0  0  0  0  0
   25.1545  -20.0197   -9.3010 C   0  0  0  0  0  0  0  0  0  0  0  0
   26.5121  -20.2132   -8.8109 C   0  0  0  0  0  0  0  0  0  0  0  0
   27.0656  -19.3348   -7.8894 C   0  0  0  0  0  0  0  0  0  0  0  0
   28.3276  -19.5196   -7.4096 C   0  0  0  0  0  0  0  0  0  0  0  0
   29.1187  -20.5786   -7.8078 C   0  0  0  0  0  0  0  0  0  0  0  0
   28.5796  -21.4691   -8.7312 C   0  0  0  0  0  0  0  0  0  0  0  0
   27.3026  -21.2792   -9.2145 C   0  0  0  0  0  0  0  0  0  0  0  0
   23.5089  -20.4118  -11.0535 C   0  0  0  0  0  0  0  0  0  0  0  0
   22.4723  -21.0615  -10.4315 O   0  0  0  0  0  0  0  0  0  0  0  0
   23.2821  -19.6137  -12.0319 O   0  0  0  0  0  0  0  0  0  0  0  0
  2  1  1  0
  3  2  2  0
  4  2  1  0
  5  6  1  6
  5  4  1  0
  7  5  1  0
  7  8  2  0
 10  9  1  6
 10 12  1  0
 11 10  1  0
 12 13  1  6
 12 14  1  0
 13  7  1  0
 14 16  1  0
 15 14  2  0
 16 17  1  0
 17 25  1  0
 18 19  1  0
 17 18  1  1
 19 24  2  0
 20 21  2  0
 20 19  1  0
 21 22  1  0
 22 23  2  0
 24 23  1  0
 25 27  2  0
 25 26  1  0
M  END
$$$$
