NTF.pdb
     RDKit          3D

 27 27  0  0  1  0  0  0  0  0999 V2000
   17.3444  -13.6949  -16.4574 N   0  0  0  0  0  0  0  0  0  0  0  0
   18.7446  -13.4719  -16.5666 C   0  0  0  0  0  0  0  0  0  0  0  0
   19.5048  -14.3667  -16.1150 O   0  0  0  0  0  0  0  0  0  0  0  0
   19.3611  -12.2835  -17.1631 C   0  0  0  0  0  0  0  0  0  0  0  0
   18.3595  -11.2997  -17.7073 C   0  0  2  0  0  0  0  0  0  0  0  0
   17.6872  -11.7382  -18.8759 N   0  0  0  0  0  0  0  0  0  0  0  0
   19.0574  -10.0153  -17.9262 C   0  0  0  0  0  0  0  0  0  0  0  0
   19.5176   -9.7362  -19.0746 O   0  0  0  0  0  0  0  0  0  0  0  0
   18.7831   -7.8295  -19.4589 C   0  0  0  0  0  0  0  0  0  0  0  0
   18.7949   -7.0280  -18.1577 C   0  0  1  0  0  0  0  0  0  0  0  0
   17.5249   -7.0314  -17.5891 O   0  0  0  0  0  0  0  0  0  0  0  0
   19.7576   -7.7303  -17.2069 C   0  0  2  0  0  0  0  0  0  0  0  0
   19.2576   -9.0388  -16.9138 N   0  0  0  0  0  0  0  0  0  0  0  0
   19.9152   -6.8818  -15.9949 C   0  0  0  0  0  0  0  0  0  0  0  0
   19.1233   -6.9030  -15.0352 O   0  0  0  0  0  0  0  0  0  0  0  0
   21.0287   -6.0099  -15.9451 N   0  0  0  0  0  0  0  0  0  0  0  0
   21.3285   -5.2319  -14.7440 C   0  0  1  0  0  0  0  0  0  0  0  0
   22.6683   -5.5802  -14.2093 C   0  0  0  0  0  0  0  0  0  0  0  0
   22.8577   -7.0034  -13.9663 C   0  0  0  0  0  0  0  0  0  0  0  0
   23.6448   -7.7695  -14.8153 C   0  0  0  0  0  0  0  0  0  0  0  0
   23.8447   -9.0975  -14.5843 C   0  0  0  0  0  0  0  0  0  0  0  0
   23.2823   -9.7496  -13.5052 C   0  0  0  0  0  0  0  0  0  0  0  0
   22.4902   -8.9968  -12.6436 C   0  0  0  0  0  0  0  0  0  0  0  0
   22.2902   -7.6536  -12.8804 C   0  0  0  0  0  0  0  0  0  0  0  0
   21.2198   -3.7858  -14.9936 C   0  0  0  0  0  0  0  0  0  0  0  0
   21.2558   -2.8517  -13.9887 O   0  0  0  0  0  0  0  0  0  0  0  0
   21.0847   -3.4206  -16.2158 O   0  0  0  0  0  0  0  0  0  0  0  0
  2  1  1  0
  3  2  2  0
  4  2  1  0
  5  6  1  6
  5  4  1  0
  7  5  1  0
  7  8  2  0
 10  9  1  6
 10 12  1  0
 11 10  1  0
 12 13  1  1
 12 14  1  0
 13  7  1  0
 14 16  1  0
 15 14  2  0
 16 17  1  0
 17 25  1  0
 18 19  1  0
 17 18  1  6
 19 24  2  0
 20 21  2  0
 20 19  1  0
 21 22  1  0
 22 23  2  0
 24 23  1  0
 25 27  2  0
 25 26  1  0
M  END
$$$$
