NTF.pdb
     RDKit          3D

 27 27  0  0  1  0  0  0  0  0999 V2000
   17.5565  -15.7522  -15.5583 N   0  0  0  0  0  0  0  0  0  0  0  0
   18.5634  -14.8380  -15.9739 C   0  0  0  0  0  0  0  0  0  0  0  0
   19.7557  -15.2363  -15.9236 O   0  0  0  0  0  0  0  0  0  0  0  0
   18.3140  -13.4755  -16.4529 C   0  0  0  0  0  0  0  0  0  0  0  0
   16.8532  -13.1119  -16.4874 C   0  0  2  0  0  0  0  0  0  0  0  0
   16.1155  -13.7577  -17.5114 N   0  0  0  0  0  0  0  0  0  0  0  0
   16.7538  -11.6405  -16.5853 C   0  0  0  0  0  0  0  0  0  0  0  0
   17.0785  -11.0577  -17.6638 O   0  0  0  0  0  0  0  0  0  0  0  0
   13.7759   -9.5775  -15.9288 C   0  0  0  0  0  0  0  0  0  0  0  0
   14.8762   -8.9127  -15.1023 C   0  0  1  0  0  0  0  0  0  0  0  0
   14.7859   -9.3252  -13.7764 O   0  0  0  0  0  0  0  0  0  0  0  0
   16.2104   -9.3830  -15.6704 C   0  0  2  0  0  0  0  0  0  0  0  0
   16.3073  -10.8036  -15.5276 N   0  0  0  0  0  0  0  0  0  0  0  0
   17.2985   -8.6510  -14.9674 C   0  0  0  0  0  0  0  0  0  0  0  0
   18.2103   -9.2173  -14.3379 O   0  0  0  0  0  0  0  0  0  0  0  0
   17.2824   -7.2373  -15.0267 N   0  0  0  0  0  0  0  0  0  0  0  0
   18.3594   -6.4422  -14.4386 C   0  0  1  0  0  0  0  0  0  0  0  0
   19.6674   -6.7928  -15.0459 C   0  0  0  0  0  0  0  0  0  0  0  0
   20.7767   -5.9740  -14.5772 C   0  0  0  0  0  0  0  0  0  0  0  0
   21.1986   -4.8683  -15.3029 C   0  0  0  0  0  0  0  0  0  0  0  0
   22.2220   -4.0842  -14.8618 C   0  0  0  0  0  0  0  0  0  0  0  0
   22.8903   -4.3415  -13.6814 C   0  0  0  0  0  0  0  0  0  0  0  0
   22.4804   -5.4461  -12.9410 C   0  0  0  0  0  0  0  0  0  0  0  0
   21.4447   -6.2371  -13.3903 C   0  0  0  0  0  0  0  0  0  0  0  0
   18.0938   -4.9996  -14.5546 C   0  0  0  0  0  0  0  0  0  0  0  0
   18.5077   -4.0881  -13.6156 O   0  0  0  0  0  0  0  0  0  0  0  0
   17.4429   -4.6150  -15.5909 O   0  0  0  0  0  0  0  0  0  0  0  0
  2  1  1  0
  3  2  2  0
  4  2  1  0
  5  6  1  6
  5  4  1  0
  7  5  1  0
  7  8  2  0
 10  9  1  6
 10 12  1  0
 11 10  1  0
 12 13  1  1
 12 14  1  0
 13  7  1  0
 14 16  1  0
 15 14  2  0
 16 17  1  0
 17 25  1  0
 18 19  1  0
 17 18  1  6
 19 24  2  0
 20 21  2  0
 20 19  1  0
 21 22  1  0
 22 23  2  0
 24 23  1  0
 25 27  2  0
 25 26  1  0
M  END
$$$$
