NTF.pdb
     RDKit          3D

 27 27  0  0  1  0  0  0  0  0999 V2000
   23.1772  -23.2225  -16.7818 N   0  0  0  0  0  0  0  0  0  0  0  0
   22.1065  -22.2932  -16.8938 C   0  0  0  0  0  0  0  0  0  0  0  0
   21.0413  -22.7063  -17.4203 O   0  0  0  0  0  0  0  0  0  0  0  0
   22.1546  -20.8994  -16.4432 C   0  0  0  0  0  0  0  0  0  0  0  0
   23.4383  -20.5415  -15.7423 C   0  0  2  0  0  0  0  0  0  0  0  0
   23.6619  -21.2523  -14.5362 N   0  0  0  0  0  0  0  0  0  0  0  0
   23.4451  -19.0795  -15.5258 C   0  0  0  0  0  0  0  0  0  0  0  0
   22.6606  -18.5655  -14.6721 O   0  0  0  0  0  0  0  0  0  0  0  0
   26.3191  -16.9523  -14.5897 C   0  0  0  0  0  0  0  0  0  0  0  0
   25.7284  -16.2845  -15.8310 C   0  0  1  0  0  0  0  0  0  0  0  0
   26.4365  -16.6791  -16.9620 O   0  0  0  0  0  0  0  0  0  0  0  0
   24.2897  -16.7716  -15.9607 C   0  0  2  0  0  0  0  0  0  0  0  0
   24.2918  -18.1781  -16.2251 N   0  0  0  0  0  0  0  0  0  0  0  0
   23.6255  -15.9786  -17.0303 C   0  0  0  0  0  0  0  0  0  0  0  0
   23.3734  -16.4300  -18.1622 O   0  0  0  0  0  0  0  0  0  0  0  0
   23.2677  -14.6429  -16.7300 N   0  0  0  0  0  0  0  0  0  0  0  0
   22.6868  -13.7674  -17.7469 C   0  0  1  0  0  0  0  0  0  0  0  0
   21.7620  -12.7833  -17.1316 C   0  0  0  0  0  0  0  0  0  0  0  0
   21.1219  -11.8924  -18.0893 C   0  0  0  0  0  0  0  0  0  0  0  0
   21.6764  -10.6553  -18.3877 C   0  0  0  0  0  0  0  0  0  0  0  0
   21.0959   -9.8237  -19.2979 C   0  0  0  0  0  0  0  0  0  0  0  0
   19.9365  -10.1601  -19.9676 C   0  0  0  0  0  0  0  0  0  0  0  0
   19.3669  -11.3969  -19.6807 C   0  0  0  0  0  0  0  0  0  0  0  0
   19.9569  -12.2356  -18.7594 C   0  0  0  0  0  0  0  0  0  0  0  0
   23.7268  -13.0907  -18.5379 C   0  0  0  0  0  0  0  0  0  0  0  0
   24.8636  -12.5635  -17.9781 O   0  0  0  0  0  0  0  0  0  0  0  0
   23.5264  -13.0076  -19.8022 O   0  0  0  0  0  0  0  0  0  0  0  0
  2  1  1  0
  3  2  2  0
  4  2  1  0
  5  6  1  1
  5  4  1  0
  7  5  1  0
  7  8  2  0
 10  9  1  1
 10 12  1  0
 11 10  1  0
 12 13  1  6
 12 14  1  0
 13  7  1  0
 14 16  1  0
 15 14  2  0
 16 17  1  0
 17 25  1  0
 18 19  1  0
 17 18  1  1
 19 24  2  0
 20 21  2  0
 20 19  1  0
 21 22  1  0
 22 23  2  0
 24 23  1  0
 25 27  2  0
 25 26  1  0
M  END
$$$$
