NTF.pdb
     RDKit          3D

 27 27  0  0  1  0  0  0  0  0999 V2000
   26.3253  -33.4937   -9.9902 N   0  0  0  0  0  0  0  0  0  0  0  0
   26.4724  -32.7784   -8.7699 C   0  0  0  0  0  0  0  0  0  0  0  0
   26.9120  -31.6020   -8.8443 O   0  0  0  0  0  0  0  0  0  0  0  0
   26.1509  -33.3089   -7.4421 C   0  0  0  0  0  0  0  0  0  0  0  0
   25.6471  -34.7276   -7.4711 C   0  0  2  0  0  0  0  0  0  0  0  0
   24.3471  -34.8737   -8.0174 N   0  0  0  0  0  0  0  0  0  0  0  0
   25.7274  -35.2661   -6.0970 C   0  0  0  0  0  0  0  0  0  0  0  0
   24.8807  -34.9003   -5.2266 O   0  0  0  0  0  0  0  0  0  0  0  0
   26.1603  -38.9804   -5.0056 C   0  0  0  0  0  0  0  0  0  0  0  0
   27.2496  -38.1360   -4.3452 C   0  0  1  0  0  0  0  0  0  0  0  0
   28.4158  -38.1933   -5.1021 O   0  0  0  0  0  0  0  0  0  0  0  0
   26.7504  -36.6957   -4.3254 C   0  0  2  0  0  0  0  0  0  0  0  0
   26.7140  -36.1926   -5.6646 N   0  0  0  0  0  0  0  0  0  0  0  0
   27.6409  -35.9078   -3.4308 C   0  0  0  0  0  0  0  0  0  0  0  0
   28.7055  -35.3864   -3.8093 O   0  0  0  0  0  0  0  0  0  0  0  0
   27.2432  -35.7517   -2.0818 N   0  0  0  0  0  0  0  0  0  0  0  0
   27.9714  -34.8653   -1.1752 C   0  0  1  0  0  0  0  0  0  0  0  0
   28.0140  -33.4815   -1.7097 C   0  0  0  0  0  0  0  0  0  0  0  0
   26.7136  -32.8284   -1.7677 C   0  0  0  0  0  0  0  0  0  0  0  0
   26.1241  -32.5288   -2.9882 C   0  0  0  0  0  0  0  0  0  0  0  0
   24.8984  -31.9367   -3.0525 C   0  0  0  0  0  0  0  0  0  0  0  0
   24.1811  -31.6048   -1.9206 C   0  0  0  0  0  0  0  0  0  0  0  0
   24.7572  -31.8981   -0.6883 C   0  0  0  0  0  0  0  0  0  0  0  0
   25.9972  -32.4972   -0.6270 C   0  0  0  0  0  0  0  0  0  0  0  0
   27.4011  -34.8895    0.1810 C   0  0  0  0  0  0  0  0  0  0  0  0
   27.9764  -34.2374    1.2428 O   0  0  0  0  0  0  0  0  0  0  0  0
   26.3197  -35.5612    0.3394 O   0  0  0  0  0  0  0  0  0  0  0  0
  2  1  1  0
  3  2  2  0
  4  2  1  0
  5  6  1  1
  5  4  1  0
  7  5  1  0
  7  8  2  0
 10  9  1  6
 10 12  1  0
 11 10  1  0
 12 13  1  6
 12 14  1  0
 13  7  1  0
 14 16  1  0
 15 14  2  0
 16 17  1  0
 17 25  1  0
 18 19  1  0
 17 18  1  6
 19 24  2  0
 20 21  2  0
 20 19  1  0
 21 22  1  0
 22 23  2  0
 24 23  1  0
 25 27  2  0
 25 26  1  0
M  END
$$$$
