NTF.pdb
     RDKit          3D

 27 27  0  0  1  0  0  0  0  0999 V2000
   15.0567  -12.8888  -19.7630 N   0  0  0  0  0  0  0  0  0  0  0  0
   16.2862  -12.1834  -19.8770 C   0  0  0  0  0  0  0  0  0  0  0  0
   16.5459  -11.6600  -20.9912 O   0  0  0  0  0  0  0  0  0  0  0  0
   17.2653  -12.0235  -18.7982 C   0  0  0  0  0  0  0  0  0  0  0  0
   18.5240  -12.8223  -19.0099 C   0  0  2  0  0  0  0  0  0  0  0  0
   18.3837  -14.2100  -18.7557 N   0  0  0  0  0  0  0  0  0  0  0  0
   19.5893  -12.2188  -18.1820 C   0  0  0  0  0  0  0  0  0  0  0  0
   19.6367  -12.4652  -16.9389 O   0  0  0  0  0  0  0  0  0  0  0  0
   23.1850  -12.5394  -18.6781 C   0  0  0  0  0  0  0  0  0  0  0  0
   22.9791  -11.0311  -18.5430 C   0  0  1  0  0  0  0  0  0  0  0  0
   22.9358  -10.4453  -19.8044 O   0  0  0  0  0  0  0  0  0  0  0  0
   21.6321  -10.8215  -17.8605 C   0  0  2  0  0  0  0  0  0  0  0  0
   20.5964  -11.3557  -18.6912 N   0  0  0  0  0  0  0  0  0  0  0  0
   21.4700   -9.3675  -17.5894 C   0  0  0  0  0  0  0  0  0  0  0  0
   20.6777   -8.6379  -18.2126 O   0  0  0  0  0  0  0  0  0  0  0  0
   22.2652   -8.7987  -16.5664 N   0  0  0  0  0  0  0  0  0  0  0  0
   22.2668   -7.3572  -16.3215 C   0  0  1  0  0  0  0  0  0  0  0  0
   22.1811   -7.0677  -14.8684 C   0  0  0  0  0  0  0  0  0  0  0  0
   22.1917   -5.6477  -14.5455 C   0  0  0  0  0  0  0  0  0  0  0  0
   21.0039   -4.9538  -14.3590 C   0  0  0  0  0  0  0  0  0  0  0  0
   21.0043   -3.6299  -14.0362 C   0  0  0  0  0  0  0  0  0  0  0  0
   22.1724   -2.9113  -13.8780 C   0  0  0  0  0  0  0  0  0  0  0  0
   23.3726   -3.5913  -14.0612 C   0  0  0  0  0  0  0  0  0  0  0  0
   23.3685   -4.9305  -14.3877 C   0  0  0  0  0  0  0  0  0  0  0  0
   23.4432   -6.7068  -16.9202 C   0  0  0  0  0  0  0  0  0  0  0  0
   24.6635   -7.3259  -17.0257 O   0  0  0  0  0  0  0  0  0  0  0  0
   23.2831   -5.5086  -17.3494 O   0  0  0  0  0  0  0  0  0  0  0  0
  2  1  1  0
  3  2  2  0
  4  2  1  0
  5  6  1  1
  5  4  1  0
  7  5  1  0
  7  8  2  0
 10  9  1  6
 10 12  1  0
 11 10  1  0
 12 13  1  6
 12 14  1  0
 13  7  1  0
 14 16  1  0
 15 14  2  0
 16 17  1  0
 17 25  1  0
 18 19  1  0
 17 18  1  1
 19 24  2  0
 20 21  2  0
 20 19  1  0
 21 22  1  0
 22 23  2  0
 24 23  1  0
 25 27  2  0
 25 26  1  0
M  END
$$$$
