NTF.pdb
     RDKit          3D

 27 27  0  0  1  0  0  0  0  0999 V2000
   17.8115  -11.5461    3.9221 N   0  0  0  0  0  0  0  0  0  0  0  0
   16.8157  -12.2773    4.6265 C   0  0  0  0  0  0  0  0  0  0  0  0
   15.7743  -12.5857    3.9917 O   0  0  0  0  0  0  0  0  0  0  0  0
   16.9147  -12.6942    6.0280 C   0  0  0  0  0  0  0  0  0  0  0  0
   17.8854  -13.8240    6.2486 C   0  0  2  0  0  0  0  0  0  0  0  0
   17.6885  -14.9373    5.3933 N   0  0  0  0  0  0  0  0  0  0  0  0
   17.8173  -14.2093    7.6739 C   0  0  0  0  0  0  0  0  0  0  0  0
   17.5175  -13.3404    8.5477 O   0  0  0  0  0  0  0  0  0  0  0  0
   16.0206  -14.2443    9.7117 C   0  0  0  0  0  0  0  0  0  0  0  0
   16.3419  -15.7347    9.8179 C   0  0  1  0  0  0  0  0  0  0  0  0
   15.6121  -16.4441    8.8690 O   0  0  0  0  0  0  0  0  0  0  0  0
   17.8268  -15.8963    9.5131 C   0  0  2  0  0  0  0  0  0  0  0  0
   18.0708  -15.5225    8.1535 N   0  0  0  0  0  0  0  0  0  0  0  0
   18.2112  -17.3030    9.8087 C   0  0  0  0  0  0  0  0  0  0  0  0
   18.0359  -17.8436   10.9157 O   0  0  0  0  0  0  0  0  0  0  0  0
   18.8061  -18.0530    8.7666 N   0  0  0  0  0  0  0  0  0  0  0  0
   19.2318  -19.4359    8.9763 C   0  0  1  0  0  0  0  0  0  0  0  0
   19.7174  -20.0375    7.7095 C   0  0  0  0  0  0  0  0  0  0  0  0
   20.0777  -21.4440    7.8213 C   0  0  0  0  0  0  0  0  0  0  0  0
   19.1071  -22.4084    8.0559 C   0  0  0  0  0  0  0  0  0  0  0  0
   19.4319  -23.7291    8.1414 C   0  0  0  0  0  0  0  0  0  0  0  0
   20.7298  -24.1784    8.0012 C   0  0  0  0  0  0  0  0  0  0  0  0
   21.7157  -23.2251    7.7655 C   0  0  0  0  0  0  0  0  0  0  0  0
   21.3835  -21.8900    7.6796 C   0  0  0  0  0  0  0  0  0  0  0  0
   20.2517  -19.5351   10.0322 C   0  0  0  0  0  0  0  0  0  0  0  0
   20.2347  -20.5132   10.9949 O   0  0  0  0  0  0  0  0  0  0  0  0
   21.1804  -18.6502   10.0213 O   0  0  0  0  0  0  0  0  0  0  0  0
  2  1  1  0
  3  2  2  0
  4  2  1  0
  5  6  1  6
  5  4  1  0
  7  5  1  0
  7  8  2  0
 10  9  1  6
 10 12  1  0
 11 10  1  0
 12 13  1  6
 12 14  1  0
 13  7  1  0
 14 16  1  0
 15 14  2  0
 16 17  1  0
 17 25  1  0
 18 19  1  0
 17 18  1  6
 19 24  2  0
 20 21  2  0
 20 19  1  0
 21 22  1  0
 22 23  2  0
 24 23  1  0
 25 27  2  0
 25 26  1  0
M  END
$$$$
