NTF.pdb
     RDKit          3D

 27 27  0  0  1  0  0  0  0  0999 V2000
   29.5113  -21.9491  -19.4760 N   0  0  0  0  0  0  0  0  0  0  0  0
   30.3341  -21.0826  -18.7050 C   0  0  0  0  0  0  0  0  0  0  0  0
   31.5275  -20.9428  -19.0778 O   0  0  0  0  0  0  0  0  0  0  0  0
   29.8951  -20.3462  -17.5163 C   0  0  0  0  0  0  0  0  0  0  0  0
   28.4830  -20.6659  -17.1026 C   0  0  2  0  0  0  0  0  0  0  0  0
   27.4955  -20.2536  -18.0325 N   0  0  0  0  0  0  0  0  0  0  0  0
   28.2570  -20.0766  -15.7662 C   0  0  0  0  0  0  0  0  0  0  0  0
   28.9036  -19.0434  -15.4157 O   0  0  0  0  0  0  0  0  0  0  0  0
   27.1187  -17.8658  -15.0883 C   0  0  0  0  0  0  0  0  0  0  0  0
   26.2037  -18.5952  -14.1051 C   0  0  1  0  0  0  0  0  0  0  0  0
   25.0253  -18.9684  -14.7441 O   0  0  0  0  0  0  0  0  0  0  0  0
   26.9376  -19.8548  -13.6593 C   0  0  2  0  0  0  0  0  0  0  0  0
   27.3401  -20.5978  -14.8143 N   0  0  0  0  0  0  0  0  0  0  0  0
   26.0370  -20.6224  -12.7572 C   0  0  0  0  0  0  0  0  0  0  0  0
   25.5332  -21.7186  -13.0620 O   0  0  0  0  0  0  0  0  0  0  0  0
   25.7474  -20.0641  -11.4896 N   0  0  0  0  0  0  0  0  0  0  0  0
   24.8986  -20.7666  -10.5285 C   0  0  1  0  0  0  0  0  0  0  0  0
   25.1877  -20.3205   -9.1429 C   0  0  0  0  0  0  0  0  0  0  0  0
   26.6021  -20.3398   -8.7971 C   0  0  0  0  0  0  0  0  0  0  0  0
   27.4480  -21.3065   -9.3235 C   0  0  0  0  0  0  0  0  0  0  0  0
   28.7769  -21.3200   -9.0221 C   0  0  0  0  0  0  0  0  0  0  0  0
   29.3514  -20.3840   -8.1856 C   0  0  0  0  0  0  0  0  0  0  0  0
   28.5180  -19.4074   -7.6489 C   0  0  0  0  0  0  0  0  0  0  0  0
   27.1742  -19.3967   -7.9560 C   0  0  0  0  0  0  0  0  0  0  0  0
   23.4710  -20.6062  -10.8472 C   0  0  0  0  0  0  0  0  0  0  0  0
   22.4840  -21.3348  -10.2319 O   0  0  0  0  0  0  0  0  0  0  0  0
   23.1750  -19.7397  -11.7456 O   0  0  0  0  0  0  0  0  0  0  0  0
  2  1  1  0
  3  2  2  0
  4  2  1  0
  5  6  1  6
  5  4  1  0
  7  5  1  0
  7  8  2  0
 10  9  1  6
 10 12  1  0
 11 10  1  0
 12 13  1  6
 12 14  1  0
 13  7  1  0
 14 16  1  0
 15 14  2  0
 16 17  1  0
 17 25  1  0
 18 19  1  0
 17 18  1  1
 19 24  2  0
 20 21  2  0
 20 19  1  0
 21 22  1  0
 22 23  2  0
 24 23  1  0
 25 27  2  0
 25 26  1  0
M  END
$$$$
