NTF.pdb
     RDKit          3D

 27 27  0  0  1  0  0  0  0  0999 V2000
   17.6930  -18.4526  -18.2371 N   0  0  0  0  0  0  0  0  0  0  0  0
   18.3416  -17.8760  -17.1105 C   0  0  0  0  0  0  0  0  0  0  0  0
   18.4140  -16.6207  -17.0708 O   0  0  0  0  0  0  0  0  0  0  0  0
   18.9273  -18.6334  -16.0008 C   0  0  0  0  0  0  0  0  0  0  0  0
   18.6911  -20.1172  -16.0992 C   0  0  2  0  0  0  0  0  0  0  0  0
   17.4148  -20.5359  -15.6459 N   0  0  0  0  0  0  0  0  0  0  0  0
   19.7818  -20.7997  -15.3719 C   0  0  0  0  0  0  0  0  0  0  0  0
   19.5098  -21.7437  -14.5698 O   0  0  0  0  0  0  0  0  0  0  0  0
   20.7012  -23.1995  -14.8962 C   0  0  0  0  0  0  0  0  0  0  0  0
   22.0634  -22.6943  -15.3702 C   0  0  1  0  0  0  0  0  0  0  0  0
   22.1203  -22.7225  -16.7603 O   0  0  0  0  0  0  0  0  0  0  0  0
   22.1922  -21.2482  -14.9053 C   0  0  2  0  0  0  0  0  0  0  0  0
   21.1562  -20.4667  -15.5085 N   0  0  0  0  0  0  0  0  0  0  0  0
   23.5585  -20.7696  -15.2492 C   0  0  0  0  0  0  0  0  0  0  0  0
   23.8256  -20.1531  -16.2965 O   0  0  0  0  0  0  0  0  0  0  0  0
   24.5983  -21.0370  -14.3274 N   0  0  0  0  0  0  0  0  0  0  0  0
   25.9475  -20.5133  -14.5347 C   0  0  1  0  0  0  0  0  0  0  0  0
   26.3343  -19.5977  -13.4327 C   0  0  0  0  0  0  0  0  0  0  0  0
   26.0442  -20.1153  -12.1028 C   0  0  0  0  0  0  0  0  0  0  0  0
   24.8014  -19.9127  -11.5183 C   0  0  0  0  0  0  0  0  0  0  0  0
   24.5138  -20.4111  -10.2831 C   0  0  0  0  0  0  0  0  0  0  0  0
   25.4313  -21.1377   -9.5507 C   0  0  0  0  0  0  0  0  0  0  0  0
   26.6824  -21.3504  -10.1215 C   0  0  0  0  0  0  0  0  0  0  0  0
   26.9698  -20.8448  -11.3713 C   0  0  0  0  0  0  0  0  0  0  0  0
   26.9315  -21.5963  -14.6905 C   0  0  0  0  0  0  0  0  0  0  0  0
   28.2322  -21.3724  -15.0668 O   0  0  0  0  0  0  0  0  0  0  0  0
   26.5182  -22.7881  -14.4577 O   0  0  0  0  0  0  0  0  0  0  0  0
  2  1  1  0
  3  2  2  0
  4  2  1  0
  5  6  1  1
  5  4  1  0
  7  5  1  0
  7  8  2  0
 10  9  1  6
 10 12  1  0
 11 10  1  0
 12 13  1  6
 12 14  1  0
 13  7  1  0
 14 16  1  0
 15 14  2  0
 16 17  1  0
 17 25  1  0
 18 19  1  0
 17 18  1  1
 19 24  2  0
 20 21  2  0
 20 19  1  0
 21 22  1  0
 22 23  2  0
 24 23  1  0
 25 27  2  0
 25 26  1  0
M  END
$$$$
