NTF.pdb
     RDKit          3D

 27 27  0  0  1  0  0  0  0  0999 V2000
   23.2532  -26.1342  -13.3787 N   0  0  0  0  0  0  0  0  0  0  0  0
   23.5337  -25.4253  -14.5792 C   0  0  0  0  0  0  0  0  0  0  0  0
   22.6107  -25.3518  -15.4309 O   0  0  0  0  0  0  0  0  0  0  0  0
   24.8111  -24.7791  -14.8932 C   0  0  0  0  0  0  0  0  0  0  0  0
   24.7095  -23.2818  -15.0160 C   0  0  2  0  0  0  0  0  0  0  0  0
   24.7789  -22.7999  -16.3475 N   0  0  0  0  0  0  0  0  0  0  0  0
   25.7571  -22.6840  -14.1618 C   0  0  0  0  0  0  0  0  0  0  0  0
   26.9675  -23.0307  -14.3137 O   0  0  0  0  0  0  0  0  0  0  0  0
   26.9919  -19.4128  -14.1380 C   0  0  0  0  0  0  0  0  0  0  0  0
   26.5500  -19.6004  -12.6870 C   0  0  1  0  0  0  0  0  0  0  0  0
   25.2547  -19.1197  -12.5217 O   0  0  0  0  0  0  0  0  0  0  0  0
   26.5545  -21.0988  -12.4067 C   0  0  2  0  0  0  0  0  0  0  0  0
   25.5011  -21.7192  -13.1508 N   0  0  0  0  0  0  0  0  0  0  0  0
   26.4254  -21.2970  -10.9377 C   0  0  0  0  0  0  0  0  0  0  0  0
   25.4260  -21.8075  -10.4000 O   0  0  0  0  0  0  0  0  0  0  0  0
   27.5033  -20.8781  -10.1223 N   0  0  0  0  0  0  0  0  0  0  0  0
   27.3821  -20.8433   -8.6656 C   0  0  1  0  0  0  0  0  0  0  0  0
   28.5534  -20.1678   -8.0537 C   0  0  0  0  0  0  0  0  0  0  0  0
   28.4579  -20.0089   -6.6093 C   0  0  0  0  0  0  0  0  0  0  0  0
   27.8081  -18.9132   -6.0576 C   0  0  0  0  0  0  0  0  0  0  0  0
   27.6957  -18.7666   -4.7075 C   0  0  0  0  0  0  0  0  0  0  0  0
   28.2156  -19.6887   -3.8212 C   0  0  0  0  0  0  0  0  0  0  0  0
   28.8703  -20.7936   -4.3571 C   0  0  0  0  0  0  0  0  0  0  0  0
   28.9821  -20.9386   -5.7234 C   0  0  0  0  0  0  0  0  0  0  0  0
   26.1251  -20.2069   -8.2411 C   0  0  0  0  0  0  0  0  0  0  0  0
   25.2567  -20.7918   -7.3537 O   0  0  0  0  0  0  0  0  0  0  0  0
   25.8626  -19.0569   -8.7451 O   0  0  0  0  0  0  0  0  0  0  0  0
  2  1  1  0
  3  2  2  0
  4  2  1  0
  5  6  1  6
  5  4  1  0
  7  5  1  0
  7  8  2  0
 10  9  1  6
 10 12  1  0
 11 10  1  0
 12 13  1  6
 12 14  1  0
 13  7  1  0
 14 16  1  0
 15 14  2  0
 16 17  1  0
 17 25  1  0
 18 19  1  0
 17 18  1  1
 19 24  2  0
 20 21  2  0
 20 19  1  0
 21 22  1  0
 22 23  2  0
 24 23  1  0
 25 27  2  0
 25 26  1  0
M  END
$$$$
