EPK.pdb
     RDKit          3D

 26 26  0  0  1  0  0  0  0  0999 V2000
   10.9037  -16.4063   20.8585 N   0  0  0  0  0  0  0  0  0  0  0  0
    9.8972  -16.6015   21.8429 C   0  0  1  0  0  0  0  0  0  0  0  0
    9.8170  -18.0960   22.1223 C   0  0  0  0  0  0  0  0  0  0  0  0
    8.6306  -18.6301   21.3752 C   0  0  0  0  0  0  0  0  0  0  0  0
    8.3693  -20.0547   21.6547 C   0  0  0  0  0  0  0  0  0  0  0  0
    7.5088  -20.3354   22.5252 O   0  0  0  0  0  0  0  0  0  0  0  0
   10.0050  -15.8085   23.0643 C   0  0  0  0  0  0  0  0  0  0  0  0
   11.2039  -15.6134   23.4802 O   0  0  0  0  0  0  0  0  0  0  0  0
    9.0132  -21.1035   21.0175 O   0  0  0  0  0  0  0  0  0  0  0  0
    8.9569  -15.2453   23.8207 N   0  0  0  0  0  0  0  0  0  0  0  0
    7.5277  -15.1941   23.6308 C   0  0  0  0  0  0  0  0  0  0  0  0
    7.2740  -13.6919   23.8349 C   0  0  0  0  0  0  0  0  0  0  0  0
    8.0880  -13.4452   25.0864 C   0  0  0  0  0  0  0  0  0  0  0  0
    9.1505  -14.5256   25.0835 C   0  0  1  0  0  0  0  0  0  0  0  0
    8.9677  -15.4435   26.2393 C   0  0  0  0  0  0  0  0  0  0  0  0
    8.0496  -16.2722   26.1975 O   0  0  0  0  0  0  0  0  0  0  0  0
    9.7946  -15.4137   27.3850 N   0  0  0  0  0  0  0  0  0  0  0  0
    9.7596  -16.3606   28.4517 C   0  0  1  0  0  0  0  0  0  0  0  0
   10.5097  -17.6289   28.1872 C   0  0  0  0  0  0  0  0  0  0  0  0
   11.9613  -17.3909   27.8507 C   0  0  0  0  0  0  0  0  0  0  0  0
   12.6244  -18.6897   27.4500 C   0  0  0  0  0  0  0  0  0  0  0  0
   14.0781  -18.5257   27.1127 C   0  0  0  0  0  0  0  0  0  0  0  0
   14.5927  -19.8594   26.7663 N   0  0  0  0  0  0  0  0  0  0  0  0
   10.2912  -15.7921   29.7301 C   0  0  0  0  0  0  0  0  0  0  0  0
   10.3273  -16.5201   30.7479 O   0  0  0  0  0  0  0  0  0  0  0  0
   10.7481  -14.4991   29.8526 O   0  0  0  0  0  0  0  0  0  0  0  0
  2  1  1  6
  2  7  1  0
  3  2  1  0
  4  3  1  0
  5  4  1  0
  6  5  2  0
  7 10  1  0
  8  7  2  0
  9  5  1  0
 10 11  1  0
 10 14  1  0
 11 12  1  0
 12 13  1  0
 14 13  1  0
 15 16  2  0
 14 15  1  1
 17 15  1  0
 18 17  1  0
 18 19  1  6
 20 19  1  0
 21 20  1  0
 22 21  1  0
 23 22  1  0
 24 18  1  0
 25 24  2  0
 26 24  1  0
M  END
$$$$
