EPK.pdb
     RDKit          3D

 26 26  0  0  1  0  0  0  0  0999 V2000
    8.4256  -17.2303   16.8983 N   0  0  0  0  0  0  0  0  0  0  0  0
    7.8062  -17.0662   18.1671 C   0  0  1  0  0  0  0  0  0  0  0  0
    7.3173  -18.4364   18.6158 C   0  0  0  0  0  0  0  0  0  0  0  0
    6.3852  -18.9498   17.5582 C   0  0  0  0  0  0  0  0  0  0  0  0
    5.7525  -20.2315   17.9228 C   0  0  0  0  0  0  0  0  0  0  0  0
    6.3778  -21.2902   17.6674 O   0  0  0  0  0  0  0  0  0  0  0  0
    8.5829  -16.3835   19.1981 C   0  0  0  0  0  0  0  0  0  0  0  0
    9.8395  -16.2846   18.9541 O   0  0  0  0  0  0  0  0  0  0  0  0
    4.5115  -20.3417   18.5296 O   0  0  0  0  0  0  0  0  0  0  0  0
    8.1122  -15.8324   20.4074 N   0  0  0  0  0  0  0  0  0  0  0  0
    6.8210  -15.8373   21.0507 C   0  0  0  0  0  0  0  0  0  0  0  0
    6.6539  -14.3389   21.3500 C   0  0  0  0  0  0  0  0  0  0  0  0
    8.0160  -14.0226   21.9283 C   0  0  0  0  0  0  0  0  0  0  0  0
    8.9448  -15.0648   21.3389 C   0  0  1  0  0  0  0  0  0  0  0  0
    9.4839  -15.9497   22.4059 C   0  0  0  0  0  0  0  0  0  0  0  0
    8.7616  -16.8525   22.8470 O   0  0  0  0  0  0  0  0  0  0  0  0
   10.7844  -15.8077   22.9405 N   0  0  0  0  0  0  0  0  0  0  0  0
   11.4251  -16.7409   23.8090 C   0  0  1  0  0  0  0  0  0  0  0  0
   12.9067  -16.5656   23.9319 C   0  0  0  0  0  0  0  0  0  0  0  0
   13.5603  -17.6590   24.7406 C   0  0  0  0  0  0  0  0  0  0  0  0
   15.0576  -17.4511   24.7865 C   0  0  0  0  0  0  0  0  0  0  0  0
   15.7765  -18.5323   25.5403 C   0  0  0  0  0  0  0  0  0  0  0  0
   17.1919  -18.1388   25.6118 N   0  0  0  0  0  0  0  0  0  0  0  0
   10.8600  -16.7041   25.1943 C   0  0  0  0  0  0  0  0  0  0  0  0
   11.1904  -17.5972   26.0071 O   0  0  0  0  0  0  0  0  0  0  0  0
    9.9873  -15.7331   25.6315 O   0  0  0  0  0  0  0  0  0  0  0  0
  2  1  1  6
  2  7  1  0
  3  2  1  0
  4  3  1  0
  5  4  1  0
  6  5  2  0
  7 10  1  0
  8  7  2  0
  9  5  1  0
 10 11  1  0
 10 14  1  0
 11 12  1  0
 12 13  1  0
 14 13  1  0
 15 16  2  0
 14 15  1  1
 17 15  1  0
 18 17  1  0
 18 19  1  1
 20 19  1  0
 21 20  1  0
 22 21  1  0
 23 22  1  0
 24 18  1  0
 25 24  2  0
 26 24  1  0
M  END
$$$$
