EPK.pdb
     RDKit          3D

 26 26  0  0  1  0  0  0  0  0999 V2000
    9.4241  -15.4338   15.0721 N   0  0  0  0  0  0  0  0  0  0  0  0
    8.5818  -15.2583   16.2035 C   0  0  1  0  0  0  0  0  0  0  0  0
    7.6933  -16.4903   16.3055 C   0  0  0  0  0  0  0  0  0  0  0  0
    8.5554  -17.6298   16.7629 C   0  0  0  0  0  0  0  0  0  0  0  0
    7.8009  -18.8843   16.9444 C   0  0  0  0  0  0  0  0  0  0  0  0
    7.4997  -19.2258   18.1148 O   0  0  0  0  0  0  0  0  0  0  0  0
    9.2342  -14.9320   17.4685 C   0  0  0  0  0  0  0  0  0  0  0  0
   10.5121  -15.0560   17.4676 O   0  0  0  0  0  0  0  0  0  0  0  0
    7.4032  -19.7104   15.9052 O   0  0  0  0  0  0  0  0  0  0  0  0
    8.6255  -14.5043   18.6662 N   0  0  0  0  0  0  0  0  0  0  0  0
    7.2488  -14.3154   19.0539 C   0  0  0  0  0  0  0  0  0  0  0  0
    7.3173  -12.8957   19.6390 C   0  0  0  0  0  0  0  0  0  0  0  0
    8.5529  -13.0164   20.5042 C   0  0  0  0  0  0  0  0  0  0  0  0
    9.3658  -14.1298   19.8753 C   0  0  1  0  0  0  0  0  0  0  0  0
    9.4713  -15.2890   20.8012 C   0  0  0  0  0  0  0  0  0  0  0  0
    8.5466  -16.1109   20.8283 O   0  0  0  0  0  0  0  0  0  0  0  0
   10.5799  -15.4962   21.6529 N   0  0  0  0  0  0  0  0  0  0  0  0
   10.8020  -16.6595   22.4485 C   0  0  1  0  0  0  0  0  0  0  0  0
   12.2424  -17.0165   22.6461 C   0  0  0  0  0  0  0  0  0  0  0  0
   12.4266  -18.3027   23.4133 C   0  0  0  0  0  0  0  0  0  0  0  0
   13.8990  -18.5953   23.5968 C   0  0  0  0  0  0  0  0  0  0  0  0
   14.1539  -19.8505   24.3799 C   0  0  0  0  0  0  0  0  0  0  0  0
   15.6125  -19.9874   24.5109 N   0  0  0  0  0  0  0  0  0  0  0  0
   10.1865  -16.5410   23.8076 C   0  0  0  0  0  0  0  0  0  0  0  0
   10.1946  -17.5377   24.5651 O   0  0  0  0  0  0  0  0  0  0  0  0
    9.6048  -15.3853   24.2782 O   0  0  0  0  0  0  0  0  0  0  0  0
  2  1  1  6
  2  7  1  0
  3  2  1  0
  4  3  1  0
  5  4  1  0
  6  5  2  0
  7 10  1  0
  8  7  2  0
  9  5  1  0
 10 11  1  0
 10 14  1  0
 11 12  1  0
 12 13  1  0
 14 13  1  0
 15 16  2  0
 14 15  1  1
 17 15  1  0
 18 17  1  0
 18 19  1  1
 20 19  1  0
 21 20  1  0
 22 21  1  0
 23 22  1  0
 24 18  1  0
 25 24  2  0
 26 24  1  0
M  END
$$$$
