EPK.pdb
     RDKit          3D

 26 26  0  0  1  0  0  0  0  0999 V2000
   10.9040  -15.2253   16.2549 N   0  0  0  0  0  0  0  0  0  0  0  0
    9.7009  -15.0458   16.9902 C   0  0  1  0  0  0  0  0  0  0  0  0
    8.8012  -16.2365   16.6891 C   0  0  0  0  0  0  0  0  0  0  0  0
    9.5421  -17.4750   17.0991 C   0  0  0  0  0  0  0  0  0  0  0  0
    8.7269  -18.6985   16.9786 C   0  0  0  0  0  0  0  0  0  0  0  0
    8.2974  -19.2257   18.0344 O   0  0  0  0  0  0  0  0  0  0  0  0
    9.8335  -14.7921   18.4222 C   0  0  0  0  0  0  0  0  0  0  0  0
   11.0264  -14.9013   18.8842 O   0  0  0  0  0  0  0  0  0  0  0  0
    8.4049  -19.3035   15.7742 O   0  0  0  0  0  0  0  0  0  0  0  0
    8.8145  -14.4471   19.3336 N   0  0  0  0  0  0  0  0  0  0  0  0
    7.3801  -14.3542   19.2121 C   0  0  0  0  0  0  0  0  0  0  0  0
    7.1410  -12.9564   19.8053 C   0  0  0  0  0  0  0  0  0  0  0  0
    7.9983  -13.0378   21.0496 C   0  0  0  0  0  0  0  0  0  0  0  0
    9.0546  -14.0767   20.7319 C   0  0  1  0  0  0  0  0  0  0  0  0
    8.9065  -15.2625   21.6174 C   0  0  0  0  0  0  0  0  0  0  0  0
    8.1783  -16.1915   21.2457 O   0  0  0  0  0  0  0  0  0  0  0  0
    9.5593  -15.3783   22.8654 N   0  0  0  0  0  0  0  0  0  0  0  0
    9.5373  -16.5330   23.7033 C   0  0  1  0  0  0  0  0  0  0  0  0
   10.6471  -16.5997   24.7057 C   0  0  0  0  0  0  0  0  0  0  0  0
   10.6505  -17.8887   25.4901 C   0  0  0  0  0  0  0  0  0  0  0  0
   11.8068  -17.9042   26.4648 C   0  0  0  0  0  0  0  0  0  0  0  0
   11.9412  -19.2097   27.1937 C   0  0  0  0  0  0  0  0  0  0  0  0
   13.0092  -19.0380   28.1905 N   0  0  0  0  0  0  0  0  0  0  0  0
    8.2517  -16.6583   24.4594 C   0  0  0  0  0  0  0  0  0  0  0  0
    7.5614  -15.6324   24.6545 O   0  0  0  0  0  0  0  0  0  0  0  0
    7.7792  -17.8512   24.9587 O   0  0  0  0  0  0  0  0  0  0  0  0
  2  1  1  1
  2  7  1  0
  3  2  1  0
  4  3  1  0
  5  4  1  0
  6  5  2  0
  7 10  1  0
  8  7  2  0
  9  5  1  0
 10 11  1  0
 10 14  1  0
 11 12  1  0
 12 13  1  0
 14 13  1  0
 15 16  2  0
 14 15  1  1
 17 15  1  0
 18 17  1  0
 18 19  1  1
 20 19  1  0
 21 20  1  0
 22 21  1  0
 23 22  1  0
 24 18  1  0
 25 24  2  0
 26 24  1  0
M  END
$$$$
