EPK.pdb
     RDKit          3D

 26 26  0  0  1  0  0  0  0  0999 V2000
    9.5939  -16.8691   16.3419 N   0  0  0  0  0  0  0  0  0  0  0  0
    8.6345  -16.2547   17.1918 C   0  0  1  0  0  0  0  0  0  0  0  0
    7.5501  -17.2853   17.4744 C   0  0  0  0  0  0  0  0  0  0  0  0
    8.1903  -18.4185   18.2208 C   0  0  0  0  0  0  0  0  0  0  0  0
    7.2304  -19.4733   18.5975 C   0  0  0  0  0  0  0  0  0  0  0  0
    6.0181  -19.2903   18.3255 O   0  0  0  0  0  0  0  0  0  0  0  0
    9.1379  -15.6235   18.4085 C   0  0  0  0  0  0  0  0  0  0  0  0
   10.3805  -15.8330   18.6541 O   0  0  0  0  0  0  0  0  0  0  0  0
    7.5813  -20.6539   19.2326 O   0  0  0  0  0  0  0  0  0  0  0  0
    8.4220  -14.8250   19.3240 N   0  0  0  0  0  0  0  0  0  0  0  0
    7.0411  -14.4138   19.3963 C   0  0  0  0  0  0  0  0  0  0  0  0
    7.2123  -12.8988   19.5923 C   0  0  0  0  0  0  0  0  0  0  0  0
    8.2791  -12.8813   20.6652 C   0  0  0  0  0  0  0  0  0  0  0  0
    9.0192  -14.1939   20.5051 C   0  0  1  0  0  0  0  0  0  0  0  0
    8.8304  -15.0518   21.7053 C   0  0  0  0  0  0  0  0  0  0  0  0
    7.7308  -15.5921   21.8796 O   0  0  0  0  0  0  0  0  0  0  0  0
    9.8495  -15.2792   22.6577 N   0  0  0  0  0  0  0  0  0  0  0  0
    9.7471  -16.1513   23.7823 C   0  0  1  0  0  0  0  0  0  0  0  0
   10.8593  -17.1456   23.9061 C   0  0  0  0  0  0  0  0  0  0  0  0
   11.0220  -17.9984   22.6719 C   0  0  0  0  0  0  0  0  0  0  0  0
   12.1911  -18.9429   22.8399 C   0  0  0  0  0  0  0  0  0  0  0  0
   12.4139  -19.8185   21.6409 C   0  0  0  0  0  0  0  0  0  0  0  0
   13.6639  -20.5578   21.8742 N   0  0  0  0  0  0  0  0  0  0  0  0
    9.6802  -15.4008   25.0755 C   0  0  0  0  0  0  0  0  0  0  0  0
    9.9403  -14.1762   25.0792 O   0  0  0  0  0  0  0  0  0  0  0  0
    9.3453  -15.9867   26.2756 O   0  0  0  0  0  0  0  0  0  0  0  0
  2  1  1  1
  2  7  1  0
  3  2  1  0
  4  3  1  0
  5  4  1  0
  6  5  2  0
  7 10  1  0
  8  7  2  0
  9  5  1  0
 10 11  1  0
 10 14  1  0
 11 12  1  0
 12 13  1  0
 14 13  1  0
 15 16  2  0
 14 15  1  1
 17 15  1  0
 18 17  1  0
 18 19  1  1
 20 19  1  0
 21 20  1  0
 22 21  1  0
 23 22  1  0
 24 18  1  0
 25 24  2  0
 26 24  1  0
M  END
$$$$
