EPK.pdb
     RDKit          3D

 26 26  0  0  1  0  0  0  0  0999 V2000
    6.3824  -18.4835   18.5553 N   0  0  0  0  0  0  0  0  0  0  0  0
    6.2686  -17.2274   19.2108 C   0  0  1  0  0  0  0  0  0  0  0  0
    5.2283  -17.3809   20.3117 C   0  0  0  0  0  0  0  0  0  0  0  0
    5.8773  -18.1216   21.4436 C   0  0  0  0  0  0  0  0  0  0  0  0
    5.0107  -18.2281   22.6325 C   0  0  0  0  0  0  0  0  0  0  0  0
    3.8352  -17.7948   22.5446 O   0  0  0  0  0  0  0  0  0  0  0  0
    7.5059  -16.6180   19.6904 C   0  0  0  0  0  0  0  0  0  0  0  0
    8.5349  -17.3851   19.6618 O   0  0  0  0  0  0  0  0  0  0  0  0
    5.4111  -18.7760   23.8407 O   0  0  0  0  0  0  0  0  0  0  0  0
    7.6891  -15.3054   20.1716 N   0  0  0  0  0  0  0  0  0  0  0  0
    6.7687  -14.2489   20.5146 C   0  0  0  0  0  0  0  0  0  0  0  0
    7.3806  -13.0803   19.7256 C   0  0  0  0  0  0  0  0  0  0  0  0
    8.8407  -13.2404   20.0892 C   0  0  0  0  0  0  0  0  0  0  0  0
    8.9996  -14.7055   20.4417 C   0  0  1  0  0  0  0  0  0  0  0  0
    9.3588  -14.8634   21.8763 C   0  0  0  0  0  0  0  0  0  0  0  0
    8.4634  -14.7650   22.7249 O   0  0  0  0  0  0  0  0  0  0  0  0
   10.6767  -15.1209   22.3167 N   0  0  0  0  0  0  0  0  0  0  0  0
   11.0253  -15.8468   23.4945 C   0  0  1  0  0  0  0  0  0  0  0  0
   10.6828  -17.3036   23.4558 C   0  0  0  0  0  0  0  0  0  0  0  0
   10.9779  -18.0089   24.7567 C   0  0  0  0  0  0  0  0  0  0  0  0
   10.7533  -19.4970   24.6068 C   0  0  0  0  0  0  0  0  0  0  0  0
   11.0674  -20.2658   25.8575 C   0  0  0  0  0  0  0  0  0  0  0  0
   10.8089  -21.6844   25.5669 N   0  0  0  0  0  0  0  0  0  0  0  0
   12.4847  -15.7449   23.8102 C   0  0  0  0  0  0  0  0  0  0  0  0
   13.2991  -15.6018   22.8702 O   0  0  0  0  0  0  0  0  0  0  0  0
   12.9892  -15.8004   25.0901 O   0  0  0  0  0  0  0  0  0  0  0  0
  2  1  1  1
  2  7  1  0
  3  2  1  0
  4  3  1  0
  5  4  1  0
  6  5  2  0
  7 10  1  0
  8  7  2  0
  9  5  1  0
 10 11  1  0
 10 14  1  0
 11 12  1  0
 12 13  1  0
 14 13  1  0
 15 16  2  0
 14 15  1  1
 17 15  1  0
 18 17  1  0
 18 19  1  6
 20 19  1  0
 21 20  1  0
 22 21  1  0
 23 22  1  0
 24 18  1  0
 25 24  2  0
 26 24  1  0
M  END
$$$$
