EPK.pdb
     RDKit          3D

 26 26  0  0  1  0  0  0  0  0999 V2000
    9.5423  -15.7040   15.1269 N   0  0  0  0  0  0  0  0  0  0  0  0
    8.6741  -15.3687   16.2011 C   0  0  1  0  0  0  0  0  0  0  0  0
    7.6152  -16.4591   16.2883 C   0  0  0  0  0  0  0  0  0  0  0  0
    8.2717  -17.6783   16.8659 C   0  0  0  0  0  0  0  0  0  0  0  0
    7.3326  -18.7991   17.0601 C   0  0  0  0  0  0  0  0  0  0  0  0
    7.7783  -19.8598   17.5635 O   0  0  0  0  0  0  0  0  0  0  0  0
    9.2974  -15.0889   17.4917 C   0  0  0  0  0  0  0  0  0  0  0  0
   10.5462  -15.3780   17.5649 O   0  0  0  0  0  0  0  0  0  0  0  0
    5.9894  -18.7562   16.7223 O   0  0  0  0  0  0  0  0  0  0  0  0
    8.6891  -14.5467   18.6423 N   0  0  0  0  0  0  0  0  0  0  0  0
    7.3174  -14.2581   18.9832 C   0  0  0  0  0  0  0  0  0  0  0  0
    7.4519  -12.8066   19.4710 C   0  0  0  0  0  0  0  0  0  0  0  0
    8.6614  -12.9323   20.3715 C   0  0  0  0  0  0  0  0  0  0  0  0
    9.4245  -14.1287   19.8401 C   0  0  1  0  0  0  0  0  0  0  0  0
    9.4477  -15.2244   20.8457 C   0  0  0  0  0  0  0  0  0  0  0  0
    8.4780  -15.9907   20.9084 O   0  0  0  0  0  0  0  0  0  0  0  0
   10.5267  -15.4317   21.7344 N   0  0  0  0  0  0  0  0  0  0  0  0
   10.6485  -16.5256   22.6423 C   0  0  1  0  0  0  0  0  0  0  0  0
   12.0567  -16.8999   22.9855 C   0  0  0  0  0  0  0  0  0  0  0  0
   12.1386  -18.1122   23.8802 C   0  0  0  0  0  0  0  0  0  0  0  0
   13.5780  -18.3922   24.2502 C   0  0  0  0  0  0  0  0  0  0  0  0
   13.7300  -19.5816   25.1536 C   0  0  0  0  0  0  0  0  0  0  0  0
   15.1712  -19.7673   25.3818 N   0  0  0  0  0  0  0  0  0  0  0  0
    9.9324  -16.2724   23.9319 C   0  0  0  0  0  0  0  0  0  0  0  0
    9.6906  -15.0911   24.2685 O   0  0  0  0  0  0  0  0  0  0  0  0
    9.5196  -17.2758   24.7795 O   0  0  0  0  0  0  0  0  0  0  0  0
  2  1  1  6
  2  7  1  0
  3  2  1  0
  4  3  1  0
  5  4  1  0
  6  5  2  0
  7 10  1  0
  8  7  2  0
  9  5  1  0
 10 11  1  0
 10 14  1  0
 11 12  1  0
 12 13  1  0
 14 13  1  0
 15 16  2  0
 14 15  1  1
 17 15  1  0
 18 17  1  0
 18 19  1  1
 20 19  1  0
 21 20  1  0
 22 21  1  0
 23 22  1  0
 24 18  1  0
 25 24  2  0
 26 24  1  0
M  END
$$$$
