EPK.pdb
     RDKit          3D

 26 26  0  0  1  0  0  0  0  0999 V2000
   -2.0090  -24.8883   25.6607 N   0  0  0  0  0  0  0  0  0  0  0  0
   -3.4271  -24.9463   25.5835 C   0  0  1  0  0  0  0  0  0  0  0  0
   -3.8335  -26.4034   25.7558 C   0  0  0  0  0  0  0  0  0  0  0  0
   -3.1908  -27.1836   24.6471 C   0  0  0  0  0  0  0  0  0  0  0  0
   -3.5750  -28.6078   24.6491 C   0  0  0  0  0  0  0  0  0  0  0  0
   -4.6441  -28.9281   25.2249 O   0  0  0  0  0  0  0  0  0  0  0  0
   -4.1737  -24.0491   26.4610 C   0  0  0  0  0  0  0  0  0  0  0  0
   -3.5908  -23.7650   27.5690 O   0  0  0  0  0  0  0  0  0  0  0  0
   -2.8311  -29.6152   24.0557 O   0  0  0  0  0  0  0  0  0  0  0  0
   -5.4393  -23.4729   26.2280 N   0  0  0  0  0  0  0  0  0  0  0  0
   -6.3418  -23.5095   25.1031 C   0  0  0  0  0  0  0  0  0  0  0  0
   -6.6270  -22.0094   24.9268 C   0  0  0  0  0  0  0  0  0  0  0  0
   -6.8938  -21.6118   26.3622 C   0  0  0  0  0  0  0  0  0  0  0  0
   -6.1507  -22.6343   27.1979 C   0  0  1  0  0  0  0  0  0  0  0  0
   -7.1037  -23.4530   27.9939 C   0  0  0  0  0  0  0  0  0  0  0  0
   -7.7167  -24.3662   27.4266 O   0  0  0  0  0  0  0  0  0  0  0  0
   -7.3426  -23.2367   29.3699 N   0  0  0  0  0  0  0  0  0  0  0  0
   -8.2324  -24.0009   30.1823 C   0  0  1  0  0  0  0  0  0  0  0  0
   -7.5920  -24.6557   31.3664 C   0  0  0  0  0  0  0  0  0  0  0  0
   -8.5621  -25.4831   32.1734 C   0  0  0  0  0  0  0  0  0  0  0  0
   -7.8677  -26.0724   33.3807 C   0  0  0  0  0  0  0  0  0  0  0  0
   -8.7556  -26.9793   34.1827 C   0  0  0  0  0  0  0  0  0  0  0  0
   -7.9047  -27.6385   35.1851 N   0  0  0  0  0  0  0  0  0  0  0  0
   -9.3744  -23.1810   30.6956 C   0  0  0  0  0  0  0  0  0  0  0  0
  -10.4244  -23.7617   31.0529 O   0  0  0  0  0  0  0  0  0  0  0  0
   -9.3364  -21.8086   30.7985 O   0  0  0  0  0  0  0  0  0  0  0  0
  2  1  1  1
  2  7  1  0
  3  2  1  0
  4  3  1  0
  5  4  1  0
  6  5  2  0
  7 10  1  0
  8  7  2  0
  9  5  1  0
 10 11  1  0
 10 14  1  0
 11 12  1  0
 12 13  1  0
 14 13  1  0
 15 16  2  0
 14 15  1  6
 17 15  1  0
 18 17  1  0
 18 19  1  1
 20 19  1  0
 21 20  1  0
 22 21  1  0
 23 22  1  0
 24 18  1  0
 25 24  2  0
 26 24  1  0
M  END
$$$$
