TMT.pdb
     RDKit          3D

 23 22  0  0  1  0  0  0  0  0999 V2000
    6.9822  -16.5508   19.2223 C   0  0  0  0  0  0  0  0  0  0  0  0
    7.4425  -16.5804   20.6639 C   0  0  1  0  0  0  0  0  0  0  0  0
    8.1681  -17.7559   20.8552 O   0  0  0  0  0  0  0  0  0  0  0  0
    8.3023  -15.3716   20.9585 C   0  0  2  0  0  0  0  0  0  0  0  0
    9.4180  -15.2716   20.0509 N   0  0  0  0  0  0  0  0  0  0  0  0
    8.6971  -15.3030   22.3819 C   0  0  0  0  0  0  0  0  0  0  0  0
    9.8562  -15.5974   22.6962 O   0  0  0  0  0  0  0  0  0  0  0  0
    6.7398  -11.7627   27.9188 C   0  0  0  0  0  0  0  0  0  0  0  0
    6.1837  -11.4264   26.2069 S   0  0  0  0  0  0  0  0  0  0  0  0
    7.1331  -12.5039   25.1397 C   0  0  0  0  0  0  0  0  0  0  0  0
    7.3934  -13.8637   25.6345 C   0  0  0  0  0  0  0  0  0  0  0  0
    8.1968  -14.7832   24.7974 C   0  0  2  0  0  0  0  0  0  0  0  0
    7.7864  -14.9066   23.4221 N   0  0  0  0  0  0  0  0  0  0  0  0
    8.2979  -16.1467   25.4000 C   0  0  0  0  0  0  0  0  0  0  0  0
    7.2909  -16.8794   25.5701 O   0  0  0  0  0  0  0  0  0  0  0  0
    9.9563  -19.1334   24.1863 C   0  0  0  0  0  0  0  0  0  0  0  0
   10.6064  -18.8123   25.5118 C   0  0  1  0  0  0  0  0  0  0  0  0
   11.8113  -18.1736   25.3221 O   0  0  0  0  0  0  0  0  0  0  0  0
    9.6916  -17.9954   26.3995 C   0  0  2  0  0  0  0  0  0  0  0  0
    9.5517  -16.6665   25.8057 N   0  0  0  0  0  0  0  0  0  0  0  0
   10.3306  -17.7948   27.7269 C   0  0  0  0  0  0  0  0  0  0  0  0
   10.5783  -18.8327   28.6161 O   0  0  0  0  0  0  0  0  0  0  0  0
   10.6738  -16.6390   28.0882 O   0  0  0  0  0  0  0  0  0  0  0  0
  2  1  1  6
  3  2  1  0
  4  2  1  0
  4  6  1  0
  4  5  1  6
  6  7  2  0
  9  8  1  0
  9 10  1  0
 10 11  1  0
 12 11  1  1
 13 12  1  0
 13  6  1  0
 14 12  1  0
 14 15  2  0
 17 16  1  6
 17 19  1  0
 18 17  1  0
 19 20  1  6
 19 21  1  0
 20 14  1  0
 21 22  1  0
 23 21  2  0
M  END
$$$$
