TMT.pdb
     RDKit          3D

 23 22  0  0  1  0  0  0  0  0999 V2000
    6.7913  -16.8470   18.5672 C   0  0  0  0  0  0  0  0  0  0  0  0
    7.2911  -16.6477   19.9820 C   0  0  1  0  0  0  0  0  0  0  0  0
    8.2671  -17.6128   20.2288 O   0  0  0  0  0  0  0  0  0  0  0  0
    7.8672  -15.2580   20.1373 C   0  0  2  0  0  0  0  0  0  0  0  0
    8.8838  -14.9844   19.1523 N   0  0  0  0  0  0  0  0  0  0  0  0
    8.3073  -14.9897   21.5233 C   0  0  0  0  0  0  0  0  0  0  0  0
    9.4875  -15.1983   21.8274 O   0  0  0  0  0  0  0  0  0  0  0  0
    7.2597  -11.4986   28.5376 C   0  0  0  0  0  0  0  0  0  0  0  0
    6.4240  -11.8004   26.9364 S   0  0  0  0  0  0  0  0  0  0  0  0
    7.4196  -12.9998   26.0579 C   0  0  0  0  0  0  0  0  0  0  0  0
    7.0321  -13.2923   24.6702 C   0  0  0  0  0  0  0  0  0  0  0  0
    7.8534  -14.2440   23.8883 C   0  0  2  0  0  0  0  0  0  0  0  0
    7.4171  -14.4939   22.5384 N   0  0  0  0  0  0  0  0  0  0  0  0
    8.0245  -15.5494   24.5947 C   0  0  0  0  0  0  0  0  0  0  0  0
    7.0833  -16.3738   24.7145 O   0  0  0  0  0  0  0  0  0  0  0  0
    9.9849  -18.3323   23.6024 C   0  0  0  0  0  0  0  0  0  0  0  0
   10.5315  -17.9503   24.9580 C   0  0  1  0  0  0  0  0  0  0  0  0
   11.6874  -17.2137   24.8281 O   0  0  0  0  0  0  0  0  0  0  0  0
    9.5038  -17.2083   25.7859 C   0  0  2  0  0  0  0  0  0  0  0  0
    9.2728  -15.9065   25.1615 N   0  0  0  0  0  0  0  0  0  0  0  0
   10.0561  -16.9310   27.1383 C   0  0  0  0  0  0  0  0  0  0  0  0
   10.3083  -17.9251   28.0750 O   0  0  0  0  0  0  0  0  0  0  0  0
   10.3170  -15.7473   27.4772 O   0  0  0  0  0  0  0  0  0  0  0  0
  2  1  1  6
  3  2  1  0
  4  2  1  0
  4  6  1  0
  4  5  1  6
  6  7  2  0
  9  8  1  0
  9 10  1  0
 10 11  1  0
 12 11  1  1
 13 12  1  0
 13  6  1  0
 14 12  1  0
 14 15  2  0
 17 16  1  6
 17 19  1  0
 18 17  1  0
 19 20  1  6
 19 21  1  0
 20 14  1  0
 21 22  1  0
 23 21  2  0
M  END
$$$$
