TMT.pdb
     RDKit          3D

 23 22  0  0  1  0  0  0  0  0999 V2000
    6.6702  -17.3281   18.8389 C   0  0  0  0  0  0  0  0  0  0  0  0
    7.2531  -17.0588   20.2095 C   0  0  1  0  0  0  0  0  0  0  0  0
    8.4233  -17.8077   20.3293 O   0  0  0  0  0  0  0  0  0  0  0  0
    7.5482  -15.5838   20.3667 C   0  0  2  0  0  0  0  0  0  0  0  0
    8.3822  -15.0860   19.3013 N   0  0  0  0  0  0  0  0  0  0  0  0
    8.0637  -15.2599   21.7143 C   0  0  0  0  0  0  0  0  0  0  0  0
    9.2664  -15.4234   21.9501 O   0  0  0  0  0  0  0  0  0  0  0  0
    7.6766  -11.4442   28.4959 C   0  0  0  0  0  0  0  0  0  0  0  0
    6.5824  -11.9020   27.1009 S   0  0  0  0  0  0  0  0  0  0  0  0
    7.3296  -13.3221   26.3094 C   0  0  0  0  0  0  0  0  0  0  0  0
    6.8704  -13.6394   24.9492 C   0  0  0  0  0  0  0  0  0  0  0  0
    7.7247  -14.4913   24.0912 C   0  0  2  0  0  0  0  0  0  0  0  0
    7.2222  -14.7602   22.7682 N   0  0  0  0  0  0  0  0  0  0  0  0
    8.0714  -15.7852   24.7530 C   0  0  0  0  0  0  0  0  0  0  0  0
    7.2441  -16.7256   24.8585 O   0  0  0  0  0  0  0  0  0  0  0  0
   10.5459  -18.0429   23.5311 C   0  0  0  0  0  0  0  0  0  0  0  0
   10.9619  -17.7695   24.9576 C   0  0  1  0  0  0  0  0  0  0  0  0
   11.9978  -16.8634   24.9986 O   0  0  0  0  0  0  0  0  0  0  0  0
    9.7947  -17.2998   25.7997 C   0  0  2  0  0  0  0  0  0  0  0  0
    9.3642  -15.9979   25.2919 N   0  0  0  0  0  0  0  0  0  0  0  0
   10.2454  -17.0744   27.1985 C   0  0  0  0  0  0  0  0  0  0  0  0
   10.6463  -18.1017   28.0430 O   0  0  0  0  0  0  0  0  0  0  0  0
   10.2751  -15.9062   27.6661 O   0  0  0  0  0  0  0  0  0  0  0  0
  2  1  1  6
  3  2  1  0
  4  2  1  0
  4  6  1  0
  4  5  1  6
  6  7  2  0
  9  8  1  0
  9 10  1  0
 10 11  1  0
 12 11  1  1
 13 12  1  0
 13  6  1  0
 14 12  1  0
 14 15  2  0
 17 16  1  6
 17 19  1  0
 18 17  1  0
 19 20  1  6
 19 21  1  0
 20 14  1  0
 21 22  1  0
 23 21  2  0
M  END
$$$$
