TMT.pdb
     RDKit          3D

 23 22  0  0  1  0  0  0  0  0999 V2000
    6.8631  -15.1130   17.9359 C   0  0  0  0  0  0  0  0  0  0  0  0
    7.4204  -15.2207   19.3390 C   0  0  1  0  0  0  0  0  0  0  0  0
    8.5814  -15.9908   19.2782 O   0  0  0  0  0  0  0  0  0  0  0  0
    7.7250  -13.8429   19.8830 C   0  0  2  0  0  0  0  0  0  0  0  0
    8.6003  -13.1015   19.0095 N   0  0  0  0  0  0  0  0  0  0  0  0
    8.1972  -13.8893   21.2835 C   0  0  0  0  0  0  0  0  0  0  0  0
    9.4134  -13.8742   21.5058 O   0  0  0  0  0  0  0  0  0  0  0  0
    7.2622  -10.8160   27.5604 C   0  0  0  0  0  0  0  0  0  0  0  0
    6.3327  -12.3748   27.3170 S   0  0  0  0  0  0  0  0  0  0  0  0
    7.2936  -13.3716   26.1836 C   0  0  0  0  0  0  0  0  0  0  0  0
    6.8877  -13.3444   24.7708 C   0  0  0  0  0  0  0  0  0  0  0  0
    7.7677  -13.9827   23.7659 C   0  0  2  0  0  0  0  0  0  0  0  0
    7.2981  -13.9515   22.4045 N   0  0  0  0  0  0  0  0  0  0  0  0
    8.1080  -15.3908   24.1318 C   0  0  0  0  0  0  0  0  0  0  0  0
    7.2911  -16.3354   23.9890 O   0  0  0  0  0  0  0  0  0  0  0  0
   12.0137  -16.4501   24.0199 C   0  0  0  0  0  0  0  0  0  0  0  0
   10.8967  -17.4672   24.0034 C   0  0  1  0  0  0  0  0  0  0  0  0
   11.3790  -18.7261   24.2832 O   0  0  0  0  0  0  0  0  0  0  0  0
    9.7817  -17.0880   24.9548 C   0  0  2  0  0  0  0  0  0  0  0  0
    9.3824  -15.7126   24.6601 N   0  0  0  0  0  0  0  0  0  0  0  0
   10.2943  -17.0844   26.3505 C   0  0  0  0  0  0  0  0  0  0  0  0
   10.7907  -18.2181   26.9811 O   0  0  0  0  0  0  0  0  0  0  0  0
   10.2899  -16.0162   27.0162 O   0  0  0  0  0  0  0  0  0  0  0  0
  2  1  1  6
  3  2  1  0
  4  2  1  0
  4  6  1  0
  4  5  1  6
  6  7  2  0
  9  8  1  0
  9 10  1  0
 10 11  1  0
 12 11  1  1
 13 12  1  0
 13  6  1  0
 14 12  1  0
 14 15  2  0
 17 16  1  1
 17 19  1  0
 18 17  1  0
 19 20  1  6
 19 21  1  0
 20 14  1  0
 21 22  1  0
 23 21  2  0
M  END
$$$$
