TMT.pdb
     RDKit          3D

 23 22  0  0  1  0  0  0  0  0999 V2000
    6.7546  -15.9057   19.6968 C   0  0  0  0  0  0  0  0  0  0  0  0
    7.7778  -15.0910   18.9351 C   0  0  1  0  0  0  0  0  0  0  0  0
    7.4112  -15.0972   17.5896 O   0  0  0  0  0  0  0  0  0  0  0  0
    7.8154  -13.6764   19.4687 C   0  0  2  0  0  0  0  0  0  0  0  0
    8.4781  -12.7760   18.5584 N   0  0  0  0  0  0  0  0  0  0  0  0
    8.3501  -13.6151   20.8461 C   0  0  0  0  0  0  0  0  0  0  0  0
    9.5751  -13.6231   21.0133 O   0  0  0  0  0  0  0  0  0  0  0  0
    5.7993  -12.7004   27.9324 C   0  0  0  0  0  0  0  0  0  0  0  0
    6.8342  -11.6431   26.8535 S   0  0  0  0  0  0  0  0  0  0  0  0
    7.6952  -12.7421   25.7344 C   0  0  0  0  0  0  0  0  0  0  0  0
    7.3210  -12.6670   24.3146 C   0  0  0  0  0  0  0  0  0  0  0  0
    8.0315  -13.5316   23.3454 C   0  0  2  0  0  0  0  0  0  0  0  0
    7.5022  -13.5463   22.0058 N   0  0  0  0  0  0  0  0  0  0  0  0
    8.1574  -14.9376   23.8351 C   0  0  0  0  0  0  0  0  0  0  0  0
    7.1748  -15.7199   23.8831 O   0  0  0  0  0  0  0  0  0  0  0  0
   11.0743  -18.8126   24.0590 C   0  0  0  0  0  0  0  0  0  0  0  0
   10.7342  -17.3791   23.7244 C   0  0  1  0  0  0  0  0  0  0  0  0
   10.4289  -17.2492   22.3882 O   0  0  0  0  0  0  0  0  0  0  0  0
    9.6104  -16.8543   24.5927 C   0  0  2  0  0  0  0  0  0  0  0  0
    9.4080  -15.4430   24.2681 N   0  0  0  0  0  0  0  0  0  0  0  0
   10.0189  -16.8999   26.0216 C   0  0  0  0  0  0  0  0  0  0  0  0
    9.8765  -18.0294   26.8174 O   0  0  0  0  0  0  0  0  0  0  0  0
   10.5210  -15.8800   26.5620 O   0  0  0  0  0  0  0  0  0  0  0  0
  2  1  1  1
  3  2  1  0
  4  2  1  0
  4  6  1  0
  4  5  1  6
  6  7  2  0
  9  8  1  0
  9 10  1  0
 10 11  1  0
 12 11  1  1
 13 12  1  0
 13  6  1  0
 14 12  1  0
 14 15  2  0
 17 16  1  1
 17 19  1  0
 18 17  1  0
 19 20  1  6
 19 21  1  0
 20 14  1  0
 21 22  1  0
 23 21  2  0
M  END
$$$$
