TMT.pdb
     RDKit          3D

 23 22  0  0  1  0  0  0  0  0999 V2000
    6.8883  -15.8908   19.6241 C   0  0  0  0  0  0  0  0  0  0  0  0
    7.9389  -14.9649   19.0497 C   0  0  1  0  0  0  0  0  0  0  0  0
    7.6662  -14.8016   17.6918 O   0  0  0  0  0  0  0  0  0  0  0  0
    7.9011  -13.6319   19.7630 C   0  0  2  0  0  0  0  0  0  0  0  0
    8.6190  -12.6136   19.0377 N   0  0  0  0  0  0  0  0  0  0  0  0
    8.3159  -13.7458   21.1778 C   0  0  0  0  0  0  0  0  0  0  0  0
    9.5220  -13.7928   21.4459 O   0  0  0  0  0  0  0  0  0  0  0  0
    6.7452  -10.5604   27.1290 C   0  0  0  0  0  0  0  0  0  0  0  0
    6.2072  -12.3104   27.1599 S   0  0  0  0  0  0  0  0  0  0  0  0
    7.2808  -13.1955   26.0349 C   0  0  0  0  0  0  0  0  0  0  0  0
    6.9291  -13.1466   24.6082 C   0  0  0  0  0  0  0  0  0  0  0  0
    7.7864  -13.8666   23.6396 C   0  0  2  0  0  0  0  0  0  0  0  0
    7.3720  -13.8047   22.2614 N   0  0  0  0  0  0  0  0  0  0  0  0
    7.9888  -15.2962   24.0239 C   0  0  0  0  0  0  0  0  0  0  0  0
    7.0465  -16.1281   24.0268 O   0  0  0  0  0  0  0  0  0  0  0  0
   10.0396  -17.7844   22.3440 C   0  0  0  0  0  0  0  0  0  0  0  0
   10.5741  -17.6862   23.7536 C   0  0  1  0  0  0  0  0  0  0  0  0
   11.7048  -16.9016   23.7930 O   0  0  0  0  0  0  0  0  0  0  0  0
    9.5229  -17.1743   24.7154 C   0  0  2  0  0  0  0  0  0  0  0  0
    9.2693  -15.7684   24.4036 N   0  0  0  0  0  0  0  0  0  0  0  0
   10.0566  -17.2049   26.1028 C   0  0  0  0  0  0  0  0  0  0  0  0
   10.3193  -18.3827   26.7906 O   0  0  0  0  0  0  0  0  0  0  0  0
   10.2909  -16.1260   26.7072 O   0  0  0  0  0  0  0  0  0  0  0  0
  2  1  1  1
  3  2  1  0
  4  2  1  0
  4  6  1  0
  4  5  1  6
  6  7  2  0
  9  8  1  0
  9 10  1  0
 10 11  1  0
 12 11  1  1
 13 12  1  0
 13  6  1  0
 14 12  1  0
 14 15  2  0
 17 16  1  6
 17 19  1  0
 18 17  1  0
 19 20  1  6
 19 21  1  0
 20 14  1  0
 21 22  1  0
 23 21  2  0
M  END
$$$$
