TMT.pdb
     RDKit          3D

 23 22  0  0  1  0  0  0  0  0999 V2000
    6.8552  -14.4501   18.2415 C   0  0  0  0  0  0  0  0  0  0  0  0
    7.3413  -14.6393   19.6623 C   0  0  1  0  0  0  0  0  0  0  0  0
    8.4231  -15.5186   19.6288 O   0  0  0  0  0  0  0  0  0  0  0  0
    7.7563  -13.3089   20.2497 C   0  0  2  0  0  0  0  0  0  0  0  0
    8.7373  -12.6421   19.4303 N   0  0  0  0  0  0  0  0  0  0  0  0
    8.1606  -13.4282   21.6672 C   0  0  0  0  0  0  0  0  0  0  0  0
    9.3632  -13.5152   21.9411 O   0  0  0  0  0  0  0  0  0  0  0  0
    8.1533  -12.8462   29.1487 C   0  0  0  0  0  0  0  0  0  0  0  0
    7.6203  -12.1484   27.5419 S   0  0  0  0  0  0  0  0  0  0  0  0
    7.0148  -13.5193   26.5645 C   0  0  0  0  0  0  0  0  0  0  0  0
    6.6883  -13.2369   25.1591 C   0  0  0  0  0  0  0  0  0  0  0  0
    7.5938  -13.7438   24.1032 C   0  0  2  0  0  0  0  0  0  0  0  0
    7.2104  -13.4474   22.7467 N   0  0  0  0  0  0  0  0  0  0  0  0
    7.8378  -15.2123   24.2309 C   0  0  0  0  0  0  0  0  0  0  0  0
    6.9175  -16.0577   24.0964 O   0  0  0  0  0  0  0  0  0  0  0  0
    9.8690  -17.5013   22.2498 C   0  0  0  0  0  0  0  0  0  0  0  0
   10.4363  -17.5422   23.6494 C   0  0  1  0  0  0  0  0  0  0  0  0
   11.5655  -16.7598   23.7412 O   0  0  0  0  0  0  0  0  0  0  0  0
    9.4066  -17.1344   24.6817 C   0  0  2  0  0  0  0  0  0  0  0  0
    9.1349  -15.7077   24.5121 N   0  0  0  0  0  0  0  0  0  0  0  0
    9.9763  -17.2920   26.0461 C   0  0  0  0  0  0  0  0  0  0  0  0
   10.2401  -16.2195   26.8883 O   0  0  0  0  0  0  0  0  0  0  0  0
   10.2419  -18.4415   26.4846 O   0  0  0  0  0  0  0  0  0  0  0  0
  2  1  1  6
  3  2  1  0
  4  2  1  0
  4  6  1  0
  4  5  1  6
  6  7  2  0
  9  8  1  0
  9 10  1  0
 10 11  1  0
 12 11  1  1
 13 12  1  0
 13  6  1  0
 14 12  1  0
 14 15  2  0
 17 16  1  6
 17 19  1  0
 18 17  1  0
 19 20  1  6
 19 21  1  0
 20 14  1  0
 21 22  1  0
 23 21  2  0
M  END
$$$$
