TMT.pdb
     RDKit          3D

 23 22  0  0  1  0  0  0  0  0999 V2000
    8.0035  -17.7463   18.8716 C   0  0  0  0  0  0  0  0  0  0  0  0
    8.3269  -17.4019   20.3096 C   0  0  1  0  0  0  0  0  0  0  0  0
    9.1778  -18.3903   20.8032 O   0  0  0  0  0  0  0  0  0  0  0  0
    8.9911  -16.0451   20.3809 C   0  0  2  0  0  0  0  0  0  0  0  0
   10.1735  -15.9816   19.5584 N   0  0  0  0  0  0  0  0  0  0  0  0
    9.2239  -15.6120   21.7755 C   0  0  0  0  0  0  0  0  0  0  0  0
   10.3818  -15.5846   22.2083 O   0  0  0  0  0  0  0  0  0  0  0  0
    7.1587  -11.6366   28.1547 C   0  0  0  0  0  0  0  0  0  0  0  0
    6.3458  -12.4219   26.7141 S   0  0  0  0  0  0  0  0  0  0  0  0
    7.5048  -13.6193   26.0627 C   0  0  0  0  0  0  0  0  0  0  0  0
    7.4203  -13.9071   24.6234 C   0  0  0  0  0  0  0  0  0  0  0  0
    8.3856  -14.8605   24.0312 C   0  0  2  0  0  0  0  0  0  0  0  0
    8.1558  -15.2190   22.6550 N   0  0  0  0  0  0  0  0  0  0  0  0
    8.5137  -16.1073   24.8446 C   0  0  0  0  0  0  0  0  0  0  0  0
    7.5539  -16.9027   25.0057 O   0  0  0  0  0  0  0  0  0  0  0  0
   10.6369  -18.9989   24.2774 C   0  0  0  0  0  0  0  0  0  0  0  0
   11.0254  -18.4697   25.6382 C   0  0  1  0  0  0  0  0  0  0  0  0
   12.1884  -17.7366   25.5627 O   0  0  0  0  0  0  0  0  0  0  0  0
    9.9098  -17.6575   26.2611 C   0  0  2  0  0  0  0  0  0  0  0  0
    9.7403  -16.4390   25.4708 N   0  0  0  0  0  0  0  0  0  0  0  0
   10.3110  -17.2191   27.6241 C   0  0  0  0  0  0  0  0  0  0  0  0
   10.4648  -18.0959   28.6902 O   0  0  0  0  0  0  0  0  0  0  0  0
   10.5280  -16.0002   27.8510 O   0  0  0  0  0  0  0  0  0  0  0  0
  2  1  1  6
  3  2  1  0
  4  2  1  0
  4  6  1  0
  4  5  1  6
  6  7  2  0
  9  8  1  0
  9 10  1  0
 10 11  1  0
 12 11  1  1
 13 12  1  0
 13  6  1  0
 14 12  1  0
 14 15  2  0
 17 16  1  6
 17 19  1  0
 18 17  1  0
 19 20  1  6
 19 21  1  0
 20 14  1  0
 21 22  1  0
 23 21  2  0
M  END
$$$$
