TMT.pdb
     RDKit          3D

 23 22  0  0  1  0  0  0  0  0999 V2000
    7.6323  -17.3119   19.1097 C   0  0  0  0  0  0  0  0  0  0  0  0
    8.0152  -17.0832   20.5561 C   0  0  1  0  0  0  0  0  0  0  0  0
    8.5976  -18.2572   21.0331 O   0  0  0  0  0  0  0  0  0  0  0  0
    8.9867  -15.9287   20.6589 C   0  0  2  0  0  0  0  0  0  0  0  0
   10.1653  -16.1450   19.8574 N   0  0  0  0  0  0  0  0  0  0  0  0
    9.2895  -15.5796   22.0636 C   0  0  0  0  0  0  0  0  0  0  0  0
   10.4056  -15.8522   22.5206 O   0  0  0  0  0  0  0  0  0  0  0  0
    5.3964  -12.2763   26.7371 C   0  0  0  0  0  0  0  0  0  0  0  0
    7.1586  -11.8728   27.0284 S   0  0  0  0  0  0  0  0  0  0  0  0
    8.1127  -13.2188   26.3360 C   0  0  0  0  0  0  0  0  0  0  0  0
    7.8639  -13.5492   24.9252 C   0  0  0  0  0  0  0  0  0  0  0  0
    8.6109  -14.6728   24.3158 C   0  0  2  0  0  0  0  0  0  0  0  0
    8.3370  -14.9331   22.9257 N   0  0  0  0  0  0  0  0  0  0  0  0
    8.4482  -15.9402   25.0901 C   0  0  0  0  0  0  0  0  0  0  0  0
    7.3301  -16.4947   25.2387 O   0  0  0  0  0  0  0  0  0  0  0  0
    9.4285  -19.2229   24.3124 C   0  0  0  0  0  0  0  0  0  0  0  0
   10.1777  -18.8958   25.5829 C   0  0  1  0  0  0  0  0  0  0  0  0
   11.4687  -18.5082   25.3020 O   0  0  0  0  0  0  0  0  0  0  0  0
    9.4593  -17.8430   26.4000 C   0  0  2  0  0  0  0  0  0  0  0  0
    9.5664  -16.5683   25.6918 N   0  0  0  0  0  0  0  0  0  0  0  0
   10.1553  -17.6581   27.7009 C   0  0  0  0  0  0  0  0  0  0  0  0
   10.1611  -18.6194   28.7034 O   0  0  0  0  0  0  0  0  0  0  0  0
   10.7770  -16.5883   27.9316 O   0  0  0  0  0  0  0  0  0  0  0  0
  2  1  1  6
  3  2  1  0
  4  2  1  0
  4  6  1  0
  4  5  1  6
  6  7  2  0
  9  8  1  0
  9 10  1  0
 10 11  1  0
 12 11  1  1
 13 12  1  0
 13  6  1  0
 14 12  1  0
 14 15  2  0
 17 16  1  6
 17 19  1  0
 18 17  1  0
 19 20  1  6
 19 21  1  0
 20 14  1  0
 21 22  1  0
 23 21  2  0
M  END
$$$$
