TMT.pdb
     RDKit          3D

 23 22  0  0  1  0  0  0  0  0999 V2000
    8.4023  -17.6064   19.8543 C   0  0  0  0  0  0  0  0  0  0  0  0
    8.3267  -16.2038   19.2904 C   0  0  1  0  0  0  0  0  0  0  0  0
    7.7394  -16.2834   18.0281 O   0  0  0  0  0  0  0  0  0  0  0  0
    7.5053  -15.3215   20.2037 C   0  0  2  0  0  0  0  0  0  0  0  0
    7.0211  -14.1464   19.5231 N   0  0  0  0  0  0  0  0  0  0  0  0
    8.2116  -15.0175   21.4668 C   0  0  0  0  0  0  0  0  0  0  0  0
    9.4472  -15.0578   21.4862 O   0  0  0  0  0  0  0  0  0  0  0  0
    5.6503  -11.8268   26.6498 C   0  0  0  0  0  0  0  0  0  0  0  0
    7.4246  -11.8440   27.1022 S   0  0  0  0  0  0  0  0  0  0  0  0
    8.1954  -13.1109   26.1011 C   0  0  0  0  0  0  0  0  0  0  0  0
    7.6006  -13.3641   24.7806 C   0  0  0  0  0  0  0  0  0  0  0  0
    8.2164  -14.3895   23.9083 C   0  0  2  0  0  0  0  0  0  0  0  0
    7.5196  -14.6751   22.6803 N   0  0  0  0  0  0  0  0  0  0  0  0
    8.4648  -15.6701   24.6368 C   0  0  0  0  0  0  0  0  0  0  0  0
    7.5314  -16.3471   25.1372 O   0  0  0  0  0  0  0  0  0  0  0  0
   10.2123  -18.6811   23.2259 C   0  0  0  0  0  0  0  0  0  0  0  0
   10.9502  -18.2532   24.4728 C   0  0  1  0  0  0  0  0  0  0  0  0
   12.0803  -17.5364   24.1491 O   0  0  0  0  0  0  0  0  0  0  0  0
   10.0568  -17.4669   25.4086 C   0  0  2  0  0  0  0  0  0  0  0  0
    9.7810  -16.1711   24.7900 N   0  0  0  0  0  0  0  0  0  0  0  0
   10.7854  -17.1800   26.6726 C   0  0  0  0  0  0  0  0  0  0  0  0
   11.1744  -15.9019   27.0525 O   0  0  0  0  0  0  0  0  0  0  0  0
   11.0766  -18.1220   27.4550 O   0  0  0  0  0  0  0  0  0  0  0  0
  2  1  1  1
  3  2  1  0
  4  2  1  0
  4  6  1  0
  4  5  1  6
  6  7  2  0
  9  8  1  0
  9 10  1  0
 10 11  1  0
 12 11  1  1
 13 12  1  0
 13  6  1  0
 14 12  1  0
 14 15  2  0
 17 16  1  6
 17 19  1  0
 18 17  1  0
 19 20  1  6
 19 21  1  0
 20 14  1  0
 21 22  1  0
 23 21  2  0
M  END
$$$$
