TMT.pdb
     RDKit          3D

 23 22  0  0  1  0  0  0  0  0999 V2000
    7.2131  -16.0836   19.6665 C   0  0  0  0  0  0  0  0  0  0  0  0
    7.9852  -14.9592   19.0102 C   0  0  1  0  0  0  0  0  0  0  0  0
    7.5527  -14.8607   17.6881 O   0  0  0  0  0  0  0  0  0  0  0  0
    7.7391  -13.6620   19.7476 C   0  0  2  0  0  0  0  0  0  0  0  0
    8.2174  -12.5225   19.0050 N   0  0  0  0  0  0  0  0  0  0  0  0
    8.2413  -13.7079   21.1377 C   0  0  0  0  0  0  0  0  0  0  0  0
    9.4457  -13.5200   21.3453 O   0  0  0  0  0  0  0  0  0  0  0  0
    7.6043  -11.9578   28.6383 C   0  0  0  0  0  0  0  0  0  0  0  0
    6.5734  -12.1974   27.1441 S   0  0  0  0  0  0  0  0  0  0  0  0
    7.5467  -13.1720   26.0020 C   0  0  0  0  0  0  0  0  0  0  0  0
    7.0918  -13.2035   24.6043 C   0  0  0  0  0  0  0  0  0  0  0  0
    7.8788  -13.9776   23.6178 C   0  0  2  0  0  0  0  0  0  0  0  0
    7.3850  -13.9631   22.2647 N   0  0  0  0  0  0  0  0  0  0  0  0
    8.0800  -15.3942   24.0480 C   0  0  0  0  0  0  0  0  0  0  0  0
    7.1242  -16.2037   24.1532 O   0  0  0  0  0  0  0  0  0  0  0  0
   10.1763  -17.9466   22.3816 C   0  0  0  0  0  0  0  0  0  0  0  0
   10.6823  -17.8245   23.7998 C   0  0  1  0  0  0  0  0  0  0  0  0
   11.8254  -17.0584   23.8457 O   0  0  0  0  0  0  0  0  0  0  0  0
    9.6199  -17.2723   24.7265 C   0  0  2  0  0  0  0  0  0  0  0  0
    9.3749  -15.8792   24.3562 N   0  0  0  0  0  0  0  0  0  0  0  0
   10.1350  -17.2496   26.1211 C   0  0  0  0  0  0  0  0  0  0  0  0
   10.3726  -18.3997   26.8626 O   0  0  0  0  0  0  0  0  0  0  0  0
   10.3760  -16.1486   26.6815 O   0  0  0  0  0  0  0  0  0  0  0  0
  2  1  1  1
  3  2  1  0
  4  2  1  0
  4  6  1  0
  4  5  1  6
  6  7  2  0
  9  8  1  0
  9 10  1  0
 10 11  1  0
 12 11  1  1
 13 12  1  0
 13  6  1  0
 14 12  1  0
 14 15  2  0
 17 16  1  6
 17 19  1  0
 18 17  1  0
 19 20  1  6
 19 21  1  0
 20 14  1  0
 21 22  1  0
 23 21  2  0
M  END
$$$$
