TMT.pdb
     RDKit          3D

 23 22  0  0  1  0  0  0  0  0999 V2000
    7.0582  -14.1027   17.6741 C   0  0  0  0  0  0  0  0  0  0  0  0
    7.5302  -14.4878   19.0597 C   0  0  1  0  0  0  0  0  0  0  0  0
    8.5956  -15.3760   18.9152 O   0  0  0  0  0  0  0  0  0  0  0  0
    7.9657  -13.2553   19.8202 C   0  0  2  0  0  0  0  0  0  0  0  0
    8.9648  -12.5050   19.1009 N   0  0  0  0  0  0  0  0  0  0  0  0
    8.3576  -13.5690   21.2111 C   0  0  0  0  0  0  0  0  0  0  0  0
    9.5560  -13.7194   21.4757 O   0  0  0  0  0  0  0  0  0  0  0  0
    6.8000  -10.6362   27.2089 C   0  0  0  0  0  0  0  0  0  0  0  0
    6.2580  -12.3852   27.2273 S   0  0  0  0  0  0  0  0  0  0  0  0
    7.3077  -13.2582   26.0709 C   0  0  0  0  0  0  0  0  0  0  0  0
    6.9329  -13.1847   24.6512 C   0  0  0  0  0  0  0  0  0  0  0  0
    7.7965  -13.8540   23.6523 C   0  0  2  0  0  0  0  0  0  0  0  0
    7.3999  -13.7075   22.2752 N   0  0  0  0  0  0  0  0  0  0  0  0
    7.9825  -15.3054   23.9541 C   0  0  0  0  0  0  0  0  0  0  0  0
    7.0424  -16.1344   23.8595 O   0  0  0  0  0  0  0  0  0  0  0  0
   10.0751  -17.9093   22.4065 C   0  0  0  0  0  0  0  0  0  0  0  0
   10.5423  -17.7624   23.8358 C   0  0  1  0  0  0  0  0  0  0  0  0
   11.6786  -16.9877   23.9005 O   0  0  0  0  0  0  0  0  0  0  0  0
    9.4518  -17.2042   24.7254 C   0  0  2  0  0  0  0  0  0  0  0  0
    9.2443  -15.8028   24.3632 N   0  0  0  0  0  0  0  0  0  0  0  0
    9.9098  -17.2067   26.1400 C   0  0  0  0  0  0  0  0  0  0  0  0
   10.1700  -18.3701   26.8527 O   0  0  0  0  0  0  0  0  0  0  0  0
   10.0781  -16.1161   26.7454 O   0  0  0  0  0  0  0  0  0  0  0  0
  2  1  1  6
  3  2  1  0
  4  2  1  0
  4  6  1  0
  4  5  1  6
  6  7  2  0
  9  8  1  0
  9 10  1  0
 10 11  1  0
 12 11  1  1
 13 12  1  0
 13  6  1  0
 14 12  1  0
 14 15  2  0
 17 16  1  6
 17 19  1  0
 18 17  1  0
 19 20  1  6
 19 21  1  0
 20 14  1  0
 21 22  1  0
 23 21  2  0
M  END
$$$$
