TMT.pdb
     RDKit          3D

 23 22  0  0  1  0  0  0  0  0999 V2000
    7.7073  -16.9729   18.6873 C   0  0  0  0  0  0  0  0  0  0  0  0
    7.9180  -16.8279   20.1791 C   0  0  1  0  0  0  0  0  0  0  0  0
    8.4366  -18.0318   20.6550 O   0  0  0  0  0  0  0  0  0  0  0  0
    8.8740  -15.6901   20.4594 C   0  0  2  0  0  0  0  0  0  0  0  0
   10.1361  -15.8701   19.7861 N   0  0  0  0  0  0  0  0  0  0  0  0
    9.0153  -15.4257   21.9075 C   0  0  0  0  0  0  0  0  0  0  0  0
   10.0870  -15.6936   22.4629 O   0  0  0  0  0  0  0  0  0  0  0  0
    6.9756  -11.2541   28.2441 C   0  0  0  0  0  0  0  0  0  0  0  0
    6.3277  -11.7649   26.6094 S   0  0  0  0  0  0  0  0  0  0  0  0
    7.3658  -13.1085   26.0449 C   0  0  0  0  0  0  0  0  0  0  0  0
    7.2008  -13.5295   24.6459 C   0  0  0  0  0  0  0  0  0  0  0  0
    8.1245  -14.5475   24.0962 C   0  0  2  0  0  0  0  0  0  0  0  0
    7.9543  -14.8675   22.7021 N   0  0  0  0  0  0  0  0  0  0  0  0
    8.1044  -15.8116   24.8924 C   0  0  0  0  0  0  0  0  0  0  0  0
    7.0664  -16.5102   25.0126 O   0  0  0  0  0  0  0  0  0  0  0  0
    9.6824  -18.8731   24.1617 C   0  0  0  0  0  0  0  0  0  0  0  0
   10.2562  -18.4701   25.5000 C   0  0  1  0  0  0  0  0  0  0  0  0
   11.4971  -17.8942   25.3452 O   0  0  0  0  0  0  0  0  0  0  0  0
    9.3200  -17.5506   26.2552 C   0  0  2  0  0  0  0  0  0  0  0  0
    9.2729  -16.2716   25.5482 N   0  0  0  0  0  0  0  0  0  0  0  0
    9.8798  -17.2631   27.6023 C   0  0  0  0  0  0  0  0  0  0  0  0
   10.0383  -18.2340   28.5828 O   0  0  0  0  0  0  0  0  0  0  0  0
   10.2355  -16.0918   27.8953 O   0  0  0  0  0  0  0  0  0  0  0  0
  2  1  1  6
  3  2  1  0
  4  2  1  0
  4  6  1  0
  4  5  1  1
  6  7  2  0
  9  8  1  0
  9 10  1  0
 10 11  1  0
 12 11  1  1
 13 12  1  0
 13  6  1  0
 14 12  1  0
 14 15  2  0
 17 16  1  6
 17 19  1  0
 18 17  1  0
 19 20  1  6
 19 21  1  0
 20 14  1  0
 21 22  1  0
 23 21  2  0
M  END
$$$$
