TMT.pdb
     RDKit          3D

 23 22  0  0  1  0  0  0  0  0999 V2000
    6.1568  -16.9096   21.1043 C   0  0  0  0  0  0  0  0  0  0  0  0
    7.4033  -16.8719   20.2465 C   0  0  1  0  0  0  0  0  0  0  0  0
    7.0119  -17.0411   18.9188 O   0  0  0  0  0  0  0  0  0  0  0  0
    8.1161  -15.5502   20.4257 C   0  0  2  0  0  0  0  0  0  0  0  0
    9.1542  -15.3618   19.4432 N   0  0  0  0  0  0  0  0  0  0  0  0
    8.5821  -15.3531   21.8152 C   0  0  0  0  0  0  0  0  0  0  0  0
    9.7147  -15.7388   22.1270 O   0  0  0  0  0  0  0  0  0  0  0  0
    5.4060  -11.9096   26.6905 C   0  0  0  0  0  0  0  0  0  0  0  0
    7.1802  -11.7675   27.1205 S   0  0  0  0  0  0  0  0  0  0  0  0
    8.0197  -13.1031   26.2761 C   0  0  0  0  0  0  0  0  0  0  0  0
    7.6256  -13.3564   24.8825 C   0  0  0  0  0  0  0  0  0  0  0  0
    8.2564  -14.4834   24.1589 C   0  0  2  0  0  0  0  0  0  0  0  0
    7.7705  -14.7287   22.8252 N   0  0  0  0  0  0  0  0  0  0  0  0
    8.1973  -15.7553   24.9407 C   0  0  0  0  0  0  0  0  0  0  0  0
    7.1087  -16.3137   25.2287 O   0  0  0  0  0  0  0  0  0  0  0  0
    9.1878  -19.0133   24.0014 C   0  0  0  0  0  0  0  0  0  0  0  0
   10.0323  -18.6971   25.2136 C   0  0  1  0  0  0  0  0  0  0  0  0
   11.2941  -18.2944   24.8376 O   0  0  0  0  0  0  0  0  0  0  0  0
    9.3723  -17.6619   26.0996 C   0  0  2  0  0  0  0  0  0  0  0  0
    9.3849  -16.3835   25.3900 N   0  0  0  0  0  0  0  0  0  0  0  0
   10.1843  -17.4651   27.3296 C   0  0  0  0  0  0  0  0  0  0  0  0
   10.2952  -18.4235   28.3288 O   0  0  0  0  0  0  0  0  0  0  0  0
   10.8119  -16.3874   27.4995 O   0  0  0  0  0  0  0  0  0  0  0  0
  2  1  1  1
  3  2  1  0
  4  2  1  0
  4  6  1  0
  4  5  1  6
  6  7  2  0
  9  8  1  0
  9 10  1  0
 10 11  1  0
 12 11  1  1
 13 12  1  0
 13  6  1  0
 14 12  1  0
 14 15  2  0
 17 16  1  6
 17 19  1  0
 18 17  1  0
 19 20  1  6
 19 21  1  0
 20 14  1  0
 21 22  1  0
 23 21  2  0
M  END
$$$$
