TMT.pdb
     RDKit          3D

 23 22  0  0  1  0  0  0  0  0999 V2000
    6.8588  -17.4306   21.7978 C   0  0  0  0  0  0  0  0  0  0  0  0
    7.4081  -16.5579   20.6897 C   0  0  1  0  0  0  0  0  0  0  0  0
    6.5269  -16.6338   19.6115 O   0  0  0  0  0  0  0  0  0  0  0  0
    7.5374  -15.1298   21.1704 C   0  0  2  0  0  0  0  0  0  0  0  0
    7.7075  -14.2075   20.0755 N   0  0  0  0  0  0  0  0  0  0  0  0
    8.5678  -14.9876   22.2215 C   0  0  0  0  0  0  0  0  0  0  0  0
    9.7487  -14.8401   21.8858 O   0  0  0  0  0  0  0  0  0  0  0  0
    9.1630  -14.6855   29.7188 C   0  0  0  0  0  0  0  0  0  0  0  0
    9.3562  -13.3516   28.4794 S   0  0  0  0  0  0  0  0  0  0  0  0
    9.8958  -14.1355   26.9642 C   0  0  0  0  0  0  0  0  0  0  0  0
    8.9210  -14.1926   25.8650 C   0  0  0  0  0  0  0  0  0  0  0  0
    9.2725  -14.9485   24.6417 C   0  0  2  0  0  0  0  0  0  0  0  0
    8.2541  -15.0134   23.6249 N   0  0  0  0  0  0  0  0  0  0  0  0
    9.7395  -16.3333   24.9526 C   0  0  0  0  0  0  0  0  0  0  0  0
    8.9725  -17.2065   25.4312 O   0  0  0  0  0  0  0  0  0  0  0  0
   11.3350  -18.6529   22.4544 C   0  0  0  0  0  0  0  0  0  0  0  0
   12.2803  -18.4961   23.6225 C   0  0  1  0  0  0  0  0  0  0  0  0
   13.2824  -17.6009   23.3223 O   0  0  0  0  0  0  0  0  0  0  0  0
   11.5476  -18.0897   24.8835 C   0  0  2  0  0  0  0  0  0  0  0  0
   11.0832  -16.7135   24.7145 N   0  0  0  0  0  0  0  0  0  0  0  0
   12.4949  -18.0733   26.0295 C   0  0  0  0  0  0  0  0  0  0  0  0
   13.0713  -19.2221   26.5559 O   0  0  0  0  0  0  0  0  0  0  0  0
   12.8073  -16.9792   26.5677 O   0  0  0  0  0  0  0  0  0  0  0  0
  2  1  1  1
  3  2  1  0
  4  2  1  0
  4  6  1  0
  4  5  1  6
  6  7  2  0
  9  8  1  0
  9 10  1  0
 10 11  1  0
 12 11  1  1
 13 12  1  0
 13  6  1  0
 14 12  1  0
 14 15  2  0
 17 16  1  6
 17 19  1  0
 18 17  1  0
 19 20  1  6
 19 21  1  0
 20 14  1  0
 21 22  1  0
 23 21  2  0
M  END
$$$$
