RNR.pdb
     RDKit          3D

 31 30  0  0  1  0  0  0  0  0999 V2000
   24.2704  -20.9275  -12.5604 N   0  0  0  0  0  0  0  0  0  0  0  0
   24.0455  -21.3576  -11.2169 C   0  0  0  0  0  0  0  0  0  0  0  0
   22.8238  -21.2856  -10.7658 N   0  0  0  0  0  0  0  0  0  0  0  0
   25.0640  -21.8375  -10.3845 N   0  0  0  0  0  0  0  0  0  0  0  0
   26.0782  -20.9687   -9.8436 C   0  0  0  0  0  0  0  0  0  0  0  0
   26.8147  -20.2955  -10.9745 C   0  0  0  0  0  0  0  0  0  0  0  0
   27.8293  -21.2435  -11.5828 C   0  0  0  0  0  0  0  0  0  0  0  0
   28.7676  -20.5512  -12.5168 C   0  0  2  0  0  0  0  0  0  0  0  0
   29.3334  -19.3417  -11.9486 N   0  0  0  0  0  0  0  0  0  0  0  0
   28.0018  -20.2475  -13.7648 C   0  0  0  0  0  0  0  0  0  0  0  0
   27.4991  -19.1057  -13.8818 O   0  0  0  0  0  0  0  0  0  0  0  0
   22.5884  -21.5888   -9.7895 N   0  0  0  0  0  0  0  0  0  0  0  0
   26.3163  -20.3390  -18.5992 C   0  0  0  0  0  0  0  0  0  0  0  0
   27.2463  -21.4070  -18.4597 O   0  0  0  0  0  0  0  0  0  0  0  0
   27.6494  -22.0235  -19.4887 C   0  0  0  0  0  0  0  0  0  0  0  0
   27.7393  -21.7885  -17.1064 C   0  0  2  0  0  0  0  0  0  0  0  0
   27.1894  -20.8010  -16.0580 N   0  0  0  0  0  0  0  0  0  0  0  0
   27.8239  -21.1845  -14.8050 C   0  0  0  0  0  0  0  0  0  0  0  0
   25.7390  -20.9498  -16.0255 O   0  0  0  0  0  0  0  0  0  0  0  0
   25.2324  -21.9877  -15.5084 N   0  0  0  0  0  0  0  0  0  0  0  0
   19.2098  -15.2616  -18.0681 C   0  0  0  0  0  0  0  0  0  0  0  0
   18.6623  -16.5395  -17.7948 N   0  0  0  0  0  0  0  0  0  0  0  0
   17.3976  -16.7906  -18.0099 N   0  0  0  0  0  0  0  0  0  0  0  0
   19.4500  -17.5982  -17.2806 C   0  0  0  0  0  0  0  0  0  0  0  0
   20.7906  -17.3800  -16.7753 C   0  0  0  0  0  0  0  0  0  0  0  0
   21.3067  -18.7882  -16.4317 C   0  0  0  0  0  0  0  0  0  0  0  0
   22.7847  -18.7670  -16.6503 C   0  0  2  0  0  0  0  0  0  0  0  0
   23.3934  -20.1254  -16.4069 N   0  0  0  0  0  0  0  0  0  0  0  0
   24.8505  -19.9785  -16.5498 C   0  0  0  0  0  0  0  0  0  0  0  0
   22.8899  -21.0285  -17.4743 O   0  0  0  0  0  0  0  0  0  0  0  0
   22.1932  -22.2010  -17.1259 O   0  0  0  0  0  0  0  0  0  0  0  0
  1  2  1  0
  2  4  1  0
  2  3  2  0
  4  5  1  0
  6  7  1  0
  6  5  1  0
  8  9  1  1
  8  7  1  0
 10  8  1  0
 10 11  2  0
 13 15  1  0
 13 12  1  0
 14 13  2  0
 16 15  1  6
 16 18  1  0
 16 17  1  0
 17 10  1  0
 18 19  2  0
 20 21  1  0
 21 22  2  0
 23 21  1  0
 23 24  1  0
 24 25  1  0
 26 25  1  0
 27 26  1  1
 28 27  1  0
 28 18  1  0
 29 27  1  0
 30 29  1  0
 31 29  2  0
M  END
$$$$
