RNR.pdb
     RDKit          3D

 31 30  0  0  1  0  0  0  0  0999 V2000
   21.1935  -19.9282  -17.0915 N   0  0  0  0  0  0  0  0  0  0  0  0
   20.3047  -21.0203  -16.8506 C   0  0  0  0  0  0  0  0  0  0  0  0
   19.3597  -21.2227  -17.7264 N   0  0  0  0  0  0  0  0  0  0  0  0
   20.4049  -21.8587  -15.7336 N   0  0  0  0  0  0  0  0  0  0  0  0
   19.7363  -21.5579  -14.4933 C   0  0  0  0  0  0  0  0  0  0  0  0
   18.6012  -22.5296  -14.2889 C   0  0  0  0  0  0  0  0  0  0  0  0
   18.4525  -22.8667  -12.8183 C   0  0  0  0  0  0  0  0  0  0  0  0
   19.0898  -24.1710  -12.4653 C   0  0  2  0  0  0  0  0  0  0  0  0
   19.1131  -25.1027  -13.5777 N   0  0  0  0  0  0  0  0  0  0  0  0
   18.3252  -24.7362  -11.3112 C   0  0  0  0  0  0  0  0  0  0  0  0
   17.3014  -25.4142  -11.5609 O   0  0  0  0  0  0  0  0  0  0  0  0
   18.7373  -22.0651  -17.6666 N   0  0  0  0  0  0  0  0  0  0  0  0
   16.9283  -26.2178   -6.5870 C   0  0  0  0  0  0  0  0  0  0  0  0
   18.3191  -25.9195   -6.5460 O   0  0  0  0  0  0  0  0  0  0  0  0
   18.9916  -26.2145   -5.5154 C   0  0  0  0  0  0  0  0  0  0  0  0
   18.9719  -25.2662   -7.7152 C   0  0  2  0  0  0  0  0  0  0  0  0
   17.9667  -25.1659   -8.8797 N   0  0  0  0  0  0  0  0  0  0  0  0
   18.7053  -24.5391   -9.9665 C   0  0  0  0  0  0  0  0  0  0  0  0
   16.8390  -24.3607   -8.4250 O   0  0  0  0  0  0  0  0  0  0  0  0
   17.0276  -23.1501   -8.1084 N   0  0  0  0  0  0  0  0  0  0  0  0
   14.0246  -21.5693   -1.5836 C   0  0  0  0  0  0  0  0  0  0  0  0
   12.8432  -21.5722   -2.3659 N   0  0  0  0  0  0  0  0  0  0  0  0
   11.7154  -21.1196   -1.8845 N   0  0  0  0  0  0  0  0  0  0  0  0
   12.8256  -22.0602   -3.6953 C   0  0  0  0  0  0  0  0  0  0  0  0
   13.9410  -22.7963   -4.2559 C   0  0  0  0  0  0  0  0  0  0  0  0
   13.5523  -23.0229   -5.7273 C   0  0  0  0  0  0  0  0  0  0  0  0
   14.6773  -23.7800   -6.3549 C   0  0  2  0  0  0  0  0  0  0  0  0
   14.4203  -24.0269   -7.8206 N   0  0  0  0  0  0  0  0  0  0  0  0
   15.5205  -24.8684   -8.3170 C   0  0  0  0  0  0  0  0  0  0  0  0
   14.4728  -22.7077   -8.5026 O   0  0  0  0  0  0  0  0  0  0  0  0
   15.6056  -21.8864   -8.3486 O   0  0  0  0  0  0  0  0  0  0  0  0
  1  2  1  0
  2  4  1  0
  2  3  2  0
  4  5  1  0
  6  7  1  0
  6  5  1  0
  8  9  1  6
  8  7  1  0
 10  8  1  0
 10 11  2  0
 13 15  1  0
 13 12  1  0
 14 13  2  0
 16 15  1  6
 16 18  1  0
 16 17  1  0
 17 10  1  0
 18 19  2  0
 20 21  1  0
 21 22  2  0
 23 21  1  0
 23 24  1  0
 24 25  1  0
 26 25  1  0
 27 26  1  1
 28 27  1  0
 28 18  1  0
 29 27  1  0
 30 29  1  0
 31 29  2  0
M  END
$$$$
