RNR.pdb
     RDKit          3D

 31 30  0  0  1  0  0  0  0  0999 V2000
   29.7036  -24.0664  -16.4026 N   0  0  0  0  0  0  0  0  0  0  0  0
   29.5220  -23.2668  -17.5724 C   0  0  0  0  0  0  0  0  0  0  0  0
   30.3795  -23.4276  -18.5419 N   0  0  0  0  0  0  0  0  0  0  0  0
   28.4855  -22.3358  -17.7118 N   0  0  0  0  0  0  0  0  0  0  0  0
   28.1607  -21.3961  -16.6690 C   0  0  0  0  0  0  0  0  0  0  0  0
   27.8850  -22.1450  -15.3894 C   0  0  0  0  0  0  0  0  0  0  0  0
   26.5897  -21.6650  -14.7647 C   0  0  0  0  0  0  0  0  0  0  0  0
   26.1657  -20.3307  -15.2862 C   0  0  2  0  0  0  0  0  0  0  0  0
   27.0428  -19.2569  -14.8580 N   0  0  0  0  0  0  0  0  0  0  0  0
   24.7663  -20.0979  -14.8134 C   0  0  0  0  0  0  0  0  0  0  0  0
   24.6026  -19.7045  -13.6351 O   0  0  0  0  0  0  0  0  0  0  0  0
   31.1579  -24.1268  -18.4660 N   0  0  0  0  0  0  0  0  0  0  0  0
   21.3393  -16.4885  -15.4845 C   0  0  0  0  0  0  0  0  0  0  0  0
   22.1505  -17.6490  -15.3420 O   0  0  0  0  0  0  0  0  0  0  0  0
   23.2484  -17.5715  -14.7175 C   0  0  0  0  0  0  0  0  0  0  0  0
   21.7007  -18.9440  -15.9257 C   0  0  2  0  0  0  0  0  0  0  0  0
   22.2888  -20.1117  -15.1088 N   0  0  0  0  0  0  0  0  0  0  0  0
   23.6344  -20.3014  -15.6314 C   0  0  0  0  0  0  0  0  0  0  0  0
   21.4332  -21.2743  -15.3164 O   0  0  0  0  0  0  0  0  0  0  0  0
   21.4206  -21.8425  -16.4469 N   0  0  0  0  0  0  0  0  0  0  0  0
   16.8162  -24.6595   -9.0372 C   0  0  0  0  0  0  0  0  0  0  0  0
   17.0540  -25.3847  -10.2311 N   0  0  0  0  0  0  0  0  0  0  0  0
   16.3860  -26.4754  -10.5011 N   0  0  0  0  0  0  0  0  0  0  0  0
   18.0169  -24.9679  -11.1822 C   0  0  0  0  0  0  0  0  0  0  0  0
   18.8023  -23.7637  -10.9999 C   0  0  0  0  0  0  0  0  0  0  0  0
   19.6873  -23.6872  -12.2562 C   0  0  0  0  0  0  0  0  0  0  0  0
   18.8357  -23.1203  -13.3453 C   0  0  2  0  0  0  0  0  0  0  0  0
   19.6380  -22.8842  -14.6006 N   0  0  0  0  0  0  0  0  0  0  0  0
   20.6010  -21.8121  -14.3035 C   0  0  0  0  0  0  0  0  0  0  0  0
   18.6908  -22.4103  -15.6429 O   0  0  0  0  0  0  0  0  0  0  0  0
   17.9552  -21.2287  -15.4329 O   0  0  0  0  0  0  0  0  0  0  0  0
  1  2  1  0
  2  4  1  0
  2  3  2  0
  4  5  1  0
  6  7  1  0
  6  5  1  0
  8  9  1  1
  8  7  1  0
 10  8  1  0
 10 11  2  0
 13 15  1  0
 13 12  1  0
 14 13  2  0
 16 15  1  1
 16 18  1  0
 16 17  1  0
 17 10  1  0
 18 19  2  0
 20 21  1  0
 21 22  2  0
 23 21  1  0
 23 24  1  0
 24 25  1  0
 26 25  1  0
 27 26  1  1
 28 27  1  0
 28 18  1  0
 29 27  1  0
 30 29  1  0
 31 29  2  0
M  END
$$$$
