RNR.pdb
     RDKit          3D

 31 30  0  0  1  0  0  0  0  0999 V2000
   22.3008  -27.3699  -13.9431 N   0  0  0  0  0  0  0  0  0  0  0  0
   21.7795  -28.6975  -13.8627 C   0  0  0  0  0  0  0  0  0  0  0  0
   22.4544  -29.6390  -14.4620 N   0  0  0  0  0  0  0  0  0  0  0  0
   20.5969  -29.0174  -13.1848 N   0  0  0  0  0  0  0  0  0  0  0  0
   19.9365  -28.0739  -12.3190 C   0  0  0  0  0  0  0  0  0  0  0  0
   20.6014  -28.0873  -10.9654 C   0  0  0  0  0  0  0  0  0  0  0  0
   19.9671  -27.0544  -10.0548 C   0  0  0  0  0  0  0  0  0  0  0  0
   18.8818  -27.6326   -9.2063 C   0  0  2  0  0  0  0  0  0  0  0  0
   18.2740  -28.8096   -9.7987 N   0  0  0  0  0  0  0  0  0  0  0  0
   17.8662  -26.5552   -8.9966 C   0  0  0  0  0  0  0  0  0  0  0  0
   16.8694  -26.5324   -9.7555 O   0  0  0  0  0  0  0  0  0  0  0  0
   22.1327  -30.6371  -14.4347 N   0  0  0  0  0  0  0  0  0  0  0  0
   17.8720  -25.5492   -4.7552 C   0  0  0  0  0  0  0  0  0  0  0  0
   16.8516  -24.9246   -5.5257 O   0  0  0  0  0  0  0  0  0  0  0  0
   15.6450  -25.2687   -5.3614 C   0  0  0  0  0  0  0  0  0  0  0  0
   17.2107  -23.8707   -6.5159 C   0  0  2  0  0  0  0  0  0  0  0  0
   17.0765  -24.4353   -7.9441 N   0  0  0  0  0  0  0  0  0  0  0  0
   17.9833  -25.5733   -7.9897 C   0  0  0  0  0  0  0  0  0  0  0  0
   17.4497  -23.3780   -8.8767 O   0  0  0  0  0  0  0  0  0  0  0  0
   18.5424  -23.4643   -9.5088 N   0  0  0  0  0  0  0  0  0  0  0  0
   17.0001  -21.5336  -16.4109 C   0  0  0  0  0  0  0  0  0  0  0  0
   17.3012  -20.6022  -15.3864 N   0  0  0  0  0  0  0  0  0  0  0  0
   17.1989  -19.3158  -15.5942 N   0  0  0  0  0  0  0  0  0  0  0  0
   17.7232  -21.0144  -14.0989 C   0  0  0  0  0  0  0  0  0  0  0  0
   17.8933  -22.4131  -13.7599 C   0  0  0  0  0  0  0  0  0  0  0  0
   16.7924  -22.6947  -12.7225 C   0  0  0  0  0  0  0  0  0  0  0  0
   17.4054  -22.4741  -11.3779 C   0  0  1  0  0  0  0  0  0  0  0  0
   16.4806  -21.6955  -10.4758 N   0  0  0  0  0  0  0  0  0  0  0  0
   16.6412  -22.2396   -9.1182 C   0  0  0  0  0  0  0  0  0  0  0  0
   15.0936  -21.9552  -10.9416 O   0  0  0  0  0  0  0  0  0  0  0  0
   14.4939  -21.0833  -11.8698 O   0  0  0  0  0  0  0  0  0  0  0  0
  1  2  1  0
  2  4  1  0
  2  3  2  0
  4  5  1  0
  6  7  1  0
  6  5  1  0
  8  9  1  6
  8  7  1  0
 10  8  1  0
 10 11  2  0
 13 15  1  0
 13 12  1  0
 14 13  2  0
 16 15  1  1
 16 18  1  0
 16 17  1  0
 17 10  1  0
 18 19  2  0
 20 21  1  0
 21 22  2  0
 23 21  1  0
 23 24  1  0
 24 25  1  0
 26 25  1  0
 27 26  1  1
 28 27  1  0
 28 18  1  0
 29 27  1  0
 30 29  1  0
 31 29  2  0
M  END
$$$$
