RNR.pdb
     RDKit          3D

 31 30  0  0  1  0  0  0  0  0999 V2000
   24.1375  -24.0897  -15.5102 N   0  0  0  0  0  0  0  0  0  0  0  0
   25.4849  -24.0152  -15.9787 C   0  0  0  0  0  0  0  0  0  0  0  0
   26.0273  -25.1207  -16.4086 N   0  0  0  0  0  0  0  0  0  0  0  0
   26.2290  -22.8291  -15.9891 N   0  0  0  0  0  0  0  0  0  0  0  0
   25.6809  -21.5823  -15.5189 C   0  0  0  0  0  0  0  0  0  0  0  0
   26.6715  -20.4737  -15.7723 C   0  0  0  0  0  0  0  0  0  0  0  0
   26.1414  -19.5220  -16.8266 C   0  0  0  0  0  0  0  0  0  0  0  0
   25.4140  -18.3605  -16.2317 C   0  0  2  0  0  0  0  0  0  0  0  0
   26.0351  -17.8741  -15.0138 N   0  0  0  0  0  0  0  0  0  0  0  0
   24.0099  -18.8058  -15.9741 C   0  0  0  0  0  0  0  0  0  0  0  0
   23.5967  -18.7900  -14.7913 O   0  0  0  0  0  0  0  0  0  0  0  0
   27.0454  -25.1629  -16.6583 N   0  0  0  0  0  0  0  0  0  0  0  0
   18.6625  -18.5003  -17.2444 C   0  0  0  0  0  0  0  0  0  0  0  0
   19.5186  -19.5229  -17.7408 O   0  0  0  0  0  0  0  0  0  0  0  0
   19.0435  -20.6685  -17.9924 C   0  0  0  0  0  0  0  0  0  0  0  0
   20.9639  -19.2367  -17.9627 C   0  0  1  0  0  0  0  0  0  0  0  0
   21.7662  -19.6183  -16.7028 N   0  0  0  0  0  0  0  0  0  0  0  0
   23.1404  -19.2389  -16.9979 C   0  0  0  0  0  0  0  0  0  0  0  0
   21.6089  -21.0530  -16.4936 O   0  0  0  0  0  0  0  0  0  0  0  0
   22.4366  -21.8521  -17.0204 N   0  0  0  0  0  0  0  0  0  0  0  0
   20.8113  -28.3811  -11.6800 C   0  0  0  0  0  0  0  0  0  0  0  0
   20.8524  -26.9749  -11.8492 N   0  0  0  0  0  0  0  0  0  0  0  0
   19.7809  -26.2448  -11.6834 N   0  0  0  0  0  0  0  0  0  0  0  0
   22.0447  -26.2969  -12.2022 C   0  0  0  0  0  0  0  0  0  0  0  0
   22.0600  -24.8787  -12.4998 C   0  0  0  0  0  0  0  0  0  0  0  0
   21.2596  -24.7509  -13.8076 C   0  0  0  0  0  0  0  0  0  0  0  0
   21.2704  -23.3028  -14.1757 C   0  0  1  0  0  0  0  0  0  0  0  0
   20.5021  -23.0563  -15.4501 N   0  0  0  0  0  0  0  0  0  0  0  0
   20.5619  -21.6108  -15.7187 C   0  0  0  0  0  0  0  0  0  0  0  0
   19.0908  -23.4438  -15.1925 O   0  0  0  0  0  0  0  0  0  0  0  0
   18.6569  -24.7468  -15.5013 O   0  0  0  0  0  0  0  0  0  0  0  0
  1  2  1  0
  2  4  1  0
  2  3  2  0
  4  5  1  0
  6  7  1  0
  6  5  1  0
  8  9  1  1
  8  7  1  0
 10  8  1  0
 10 11  2  0
 13 15  1  0
 13 12  1  0
 14 13  2  0
 16 15  1  1
 16 18  1  0
 16 17  1  0
 17 10  1  0
 18 19  2  0
 20 21  1  0
 21 22  2  0
 23 21  1  0
 23 24  1  0
 24 25  1  0
 26 25  1  0
 27 26  1  6
 28 27  1  0
 28 18  1  0
 29 27  1  0
 30 29  1  0
 31 29  2  0
M  END
$$$$
