RNR.pdb
     RDKit          3D

 31 30  0  0  1  0  0  0  0  0999 V2000
   27.0171  -20.3370  -17.5537 N   0  0  0  0  0  0  0  0  0  0  0  0
   27.9837  -21.1928  -16.9421 C   0  0  0  0  0  0  0  0  0  0  0  0
   28.4173  -22.2004  -17.6477 N   0  0  0  0  0  0  0  0  0  0  0  0
   28.4679  -20.9978  -15.6429 N   0  0  0  0  0  0  0  0  0  0  0  0
   27.6000  -21.0343  -14.4934 C   0  0  0  0  0  0  0  0  0  0  0  0
   27.0666  -19.6492  -14.2257 C   0  0  0  0  0  0  0  0  0  0  0  0
   26.0626  -19.6800  -13.0902 C   0  0  0  0  0  0  0  0  0  0  0  0
   25.3159  -20.9723  -13.0246 C   0  0  2  0  0  0  0  0  0  0  0  0
   25.5137  -21.7945  -14.2038 N   0  0  0  0  0  0  0  0  0  0  0  0
   23.8700  -20.6363  -12.8442 C   0  0  0  0  0  0  0  0  0  0  0  0
   23.5736  -19.7440  -12.0160 O   0  0  0  0  0  0  0  0  0  0  0  0
   29.1492  -22.8506  -17.2705 N   0  0  0  0  0  0  0  0  0  0  0  0
   22.0026  -18.5405  -14.2086 C   0  0  0  0  0  0  0  0  0  0  0  0
   21.1398  -19.3262  -15.0230 O   0  0  0  0  0  0  0  0  0  0  0  0
   20.6947  -18.8469  -16.1063 C   0  0  0  0  0  0  0  0  0  0  0  0
   20.7702  -20.7051  -14.5963 C   0  0  2  0  0  0  0  0  0  0  0  0
   21.4380  -21.0247  -13.2441 N   0  0  0  0  0  0  0  0  0  0  0  0
   22.8364  -21.2766  -13.5608 C   0  0  0  0  0  0  0  0  0  0  0  0
   20.7671  -22.1914  -12.6821 O   0  0  0  0  0  0  0  0  0  0  0  0
   21.2119  -23.3477  -12.9395 N   0  0  0  0  0  0  0  0  0  0  0  0
   15.9956  -25.6242   -6.0776 C   0  0  0  0  0  0  0  0  0  0  0  0
   17.4107  -25.6926   -6.0528 N   0  0  0  0  0  0  0  0  0  0  0  0
   18.0367  -26.3584   -5.1182 N   0  0  0  0  0  0  0  0  0  0  0  0
   18.2095  -25.0500   -7.0299 C   0  0  0  0  0  0  0  0  0  0  0  0
   17.7039  -23.9550   -7.8333 C   0  0  0  0  0  0  0  0  0  0  0  0
   18.0766  -24.3328   -9.2775 C   0  0  0  0  0  0  0  0  0  0  0  0
   18.7286  -23.1305   -9.8793 C   0  0  2  0  0  0  0  0  0  0  0  0
   18.9393  -23.3069  -11.3624 N   0  0  0  0  0  0  0  0  0  0  0  0
   19.6249  -22.0992  -11.8487 C   0  0  0  0  0  0  0  0  0  0  0  0
   17.5944  -23.3870  -11.9893 O   0  0  0  0  0  0  0  0  0  0  0  0
   16.9909  -22.2218  -12.4988 O   0  0  0  0  0  0  0  0  0  0  0  0
  1  2  1  0
  2  4  1  0
  2  3  2  0
  4  5  1  0
  6  7  1  0
  6  5  1  0
  8  9  1  6
  8  7  1  0
 10  8  1  0
 10 11  2  0
 13 15  1  0
 13 12  1  0
 14 13  2  0
 16 15  1  1
 16 18  1  0
 16 17  1  0
 17 10  1  0
 18 19  2  0
 20 21  1  0
 21 22  2  0
 23 21  1  0
 23 24  1  0
 24 25  1  0
 26 25  1  0
 27 26  1  1
 28 27  1  0
 28 18  1  0
 29 27  1  0
 30 29  1  0
 31 29  2  0
M  END
$$$$
