RNR.pdb
     RDKit          3D

 31 30  0  0  1  0  0  0  0  0999 V2000
   17.7821  -13.0164    4.8633 N   0  0  0  0  0  0  0  0  0  0  0  0
   18.8131  -13.0887    3.8771 C   0  0  0  0  0  0  0  0  0  0  0  0
   19.7982  -12.2405    3.9831 N   0  0  0  0  0  0  0  0  0  0  0  0
   18.8035  -14.0108    2.8235 N   0  0  0  0  0  0  0  0  0  0  0  0
   17.7050  -14.9201    2.6174 C   0  0  0  0  0  0  0  0  0  0  0  0
   17.9012  -16.1438    3.4767 C   0  0  0  0  0  0  0  0  0  0  0  0
   16.7603  -17.1211    3.2728 C   0  0  0  0  0  0  0  0  0  0  0  0
   16.9129  -18.3558    4.1000 C   0  0  2  0  0  0  0  0  0  0  0  0
   18.0337  -18.2801    5.0187 N   0  0  0  0  0  0  0  0  0  0  0  0
   17.0746  -19.5022    3.1536 C   0  0  0  0  0  0  0  0  0  0  0  0
   18.2153  -20.0062    3.0315 O   0  0  0  0  0  0  0  0  0  0  0  0
   20.6082  -12.2653    3.3168 N   0  0  0  0  0  0  0  0  0  0  0  0
   17.5598  -23.7161    0.7259 C   0  0  0  0  0  0  0  0  0  0  0  0
   16.6311  -23.6400    1.8014 O   0  0  0  0  0  0  0  0  0  0  0  0
   15.9493  -24.6599    2.1120 C   0  0  0  0  0  0  0  0  0  0  0  0
   16.4710  -22.3639    2.5536 C   0  0  1  0  0  0  0  0  0  0  0  0
   16.1916  -21.2131    1.5666 N   0  0  0  0  0  0  0  0  0  0  0  0
   16.0063  -20.0339    2.4001 C   0  0  0  0  0  0  0  0  0  0  0  0
   14.9967  -21.5605    0.8059 O   0  0  0  0  0  0  0  0  0  0  0  0
   13.8691  -21.5467    1.3798 N   0  0  0  0  0  0  0  0  0  0  0  0
   16.4124  -25.0662   -6.5820 C   0  0  0  0  0  0  0  0  0  0  0  0
   16.9992  -25.1462   -5.2947 N   0  0  0  0  0  0  0  0  0  0  0  0
   18.1979  -25.6408   -5.1304 N   0  0  0  0  0  0  0  0  0  0  0  0
   16.3233  -24.6980   -4.1336 C   0  0  0  0  0  0  0  0  0  0  0  0
   14.9308  -24.2978   -4.1643 C   0  0  0  0  0  0  0  0  0  0  0  0
   14.6099  -23.9082   -2.7109 C   0  0  0  0  0  0  0  0  0  0  0  0
   14.1828  -22.4766   -2.7363 C   0  0  1  0  0  0  0  0  0  0  0  0
   13.7946  -21.9967   -1.3600 N   0  0  0  0  0  0  0  0  0  0  0  0
   15.0300  -21.9185   -0.5647 C   0  0  0  0  0  0  0  0  0  0  0  0
   12.9033  -23.0298   -0.7714 O   0  0  0  0  0  0  0  0  0  0  0  0
   11.5092  -22.9259   -0.9368 O   0  0  0  0  0  0  0  0  0  0  0  0
  1  2  1  0
  2  4  1  0
  2  3  2  0
  4  5  1  0
  6  7  1  0
  6  5  1  0
  8  9  1  1
  8  7  1  0
 10  8  1  0
 10 11  2  0
 13 15  1  0
 13 12  1  0
 14 13  2  0
 16 15  1  6
 16 18  1  0
 16 17  1  0
 17 10  1  0
 18 19  2  0
 20 21  1  0
 21 22  2  0
 23 21  1  0
 23 24  1  0
 24 25  1  0
 26 25  1  0
 27 26  1  6
 28 27  1  0
 28 18  1  0
 29 27  1  0
 30 29  1  0
 31 29  2  0
M  END
$$$$
