RNR.pdb
     RDKit          3D

 31 30  0  0  1  0  0  0  0  0999 V2000
   13.4892  -10.2134   -8.6201 N   0  0  0  0  0  0  0  0  0  0  0  0
   12.6589   -9.1122   -8.2478 C   0  0  0  0  0  0  0  0  0  0  0  0
   11.6939   -9.3533   -7.4041 N   0  0  0  0  0  0  0  0  0  0  0  0
   12.8351   -7.8157   -8.7464 N   0  0  0  0  0  0  0  0  0  0  0  0
   13.7940   -7.5214   -9.7807 C   0  0  0  0  0  0  0  0  0  0  0  0
   14.9820   -6.8169   -9.1751 C   0  0  0  0  0  0  0  0  0  0  0  0
   15.9844   -6.4504  -10.2518 C   0  0  0  0  0  0  0  0  0  0  0  0
   17.2023   -5.7881   -9.6948 C   0  0  2  0  0  0  0  0  0  0  0  0
   16.9278   -4.4665   -9.1622 N   0  0  0  0  0  0  0  0  0  0  0  0
   18.2098   -5.7208  -10.7978 C   0  0  0  0  0  0  0  0  0  0  0  0
   18.1921   -4.7176  -11.5485 O   0  0  0  0  0  0  0  0  0  0  0  0
   11.0507   -8.5887   -7.0842 N   0  0  0  0  0  0  0  0  0  0  0  0
   22.0560   -5.6734   -9.6376 C   0  0  0  0  0  0  0  0  0  0  0  0
   21.9936   -5.7655  -11.0563 O   0  0  0  0  0  0  0  0  0  0  0  0
   22.4129   -4.8041  -11.7643 C   0  0  0  0  0  0  0  0  0  0  0  0
   21.4388   -6.9916  -11.6957 C   0  0  2  0  0  0  0  0  0  0  0  0
   20.0141   -6.7069  -12.2111 N   0  0  0  0  0  0  0  0  0  0  0  0
   19.1693   -6.7302  -11.0256 C   0  0  0  0  0  0  0  0  0  0  0  0
   19.6714   -7.7515  -13.1695 O   0  0  0  0  0  0  0  0  0  0  0  0
   19.3732   -8.9070  -12.7488 N   0  0  0  0  0  0  0  0  0  0  0  0
   19.7297   -7.5464  -21.9259 C   0  0  0  0  0  0  0  0  0  0  0  0
   18.5383   -7.3098  -21.1962 N   0  0  0  0  0  0  0  0  0  0  0  0
   17.5416   -6.6526  -21.7286 N   0  0  0  0  0  0  0  0  0  0  0  0
   18.3693   -7.7695  -19.8674 C   0  0  0  0  0  0  0  0  0  0  0  0
   19.3754   -8.5716  -19.2005 C   0  0  0  0  0  0  0  0  0  0  0  0
   18.7112   -9.0041  -17.8817 C   0  0  0  0  0  0  0  0  0  0  0  0
   19.0906   -7.9846  -16.8574 C   0  0  1  0  0  0  0  0  0  0  0  0
   19.2607   -8.6129  -15.4967 N   0  0  0  0  0  0  0  0  0  0  0  0
   19.6533   -7.5393  -14.5703 C   0  0  0  0  0  0  0  0  0  0  0  0
   20.3728   -9.5928  -15.6028 O   0  0  0  0  0  0  0  0  0  0  0  0
   20.0868  -10.9514  -15.8348 O   0  0  0  0  0  0  0  0  0  0  0  0
  1  2  1  0
  2  4  1  0
  2  3  2  0
  4  5  1  0
  6  7  1  0
  6  5  1  0
  8  9  1  6
  8  7  1  0
 10  8  1  0
 10 11  2  0
 13 15  1  0
 13 12  1  0
 14 13  2  0
 16 15  1  1
 16 18  1  0
 16 17  1  0
 17 10  1  0
 18 19  2  0
 20 21  1  0
 21 22  2  0
 23 21  1  0
 23 24  1  0
 24 25  1  0
 26 25  1  0
 27 26  1  1
 28 27  1  0
 28 18  1  0
 29 27  1  0
 30 29  1  0
 31 29  2  0
M  END
$$$$
