RNR.pdb
     RDKit          3D

 31 30  0  0  1  0  0  0  0  0999 V2000
   23.9313  -19.5934  -15.8776 N   0  0  0  0  0  0  0  0  0  0  0  0
   22.5805  -19.1287  -15.8653 C   0  0  0  0  0  0  0  0  0  0  0  0
   21.9342  -19.1483  -16.9980 N   0  0  0  0  0  0  0  0  0  0  0  0
   21.9412  -18.6598  -14.7112 N   0  0  0  0  0  0  0  0  0  0  0  0
   22.1594  -19.2633  -13.4212 C   0  0  0  0  0  0  0  0  0  0  0  0
   21.7698  -20.7192  -13.4781 C   0  0  0  0  0  0  0  0  0  0  0  0
   21.8793  -21.3496  -12.1037 C   0  0  0  0  0  0  0  0  0  0  0  0
   20.8448  -20.8350  -11.1566 C   0  0  2  0  0  0  0  0  0  0  0  0
   21.3984  -19.9503  -10.1483 N   0  0  0  0  0  0  0  0  0  0  0  0
   20.1958  -22.0249  -10.5250 C   0  0  0  0  0  0  0  0  0  0  0  0
   19.7563  -22.9235  -11.2797 O   0  0  0  0  0  0  0  0  0  0  0  0
   22.3838  -19.5163  -17.8716 N   0  0  0  0  0  0  0  0  0  0  0  0
   19.3352  -25.7517   -6.6385 C   0  0  0  0  0  0  0  0  0  0  0  0
   18.9717  -24.4024   -6.3695 O   0  0  0  0  0  0  0  0  0  0  0  0
   18.0445  -24.1573   -5.5439 C   0  0  0  0  0  0  0  0  0  0  0  0
   19.6859  -23.2909   -7.0585 C   0  0  1  0  0  0  0  0  0  0  0  0
   19.3534  -23.3167   -8.5636 N   0  0  0  0  0  0  0  0  0  0  0  0
   20.0593  -22.1756   -9.1284 C   0  0  0  0  0  0  0  0  0  0  0  0
   17.9054  -23.2094   -8.7006 O   0  0  0  0  0  0  0  0  0  0  0  0
   17.3589  -22.0695   -8.6452 N   0  0  0  0  0  0  0  0  0  0  0  0
   11.1930  -26.6394  -11.2668 C   0  0  0  0  0  0  0  0  0  0  0  0
   11.0775  -25.4613  -12.0455 N   0  0  0  0  0  0  0  0  0  0  0  0
    9.9082  -25.0151  -12.4229 N   0  0  0  0  0  0  0  0  0  0  0  0
   12.2117  -24.7154  -12.4493 C   0  0  0  0  0  0  0  0  0  0  0  0
   13.5595  -25.1290  -12.1141 C   0  0  0  0  0  0  0  0  0  0  0  0
   13.7943  -24.5681  -10.7007 C   0  0  0  0  0  0  0  0  0  0  0  0
   15.2465  -24.7549  -10.4024 C   0  0  2  0  0  0  0  0  0  0  0  0
   15.6089  -24.1707   -9.0599 N   0  0  0  0  0  0  0  0  0  0  0  0
   17.0624  -24.3314   -8.8962 C   0  0  0  0  0  0  0  0  0  0  0  0
   14.9120  -24.9807   -8.0272 O   0  0  0  0  0  0  0  0  0  0  0  0
   13.6230  -24.6092   -7.6007 O   0  0  0  0  0  0  0  0  0  0  0  0
  1  2  1  0
  2  4  1  0
  2  3  2  0
  4  5  1  0
  6  7  1  0
  6  5  1  0
  8  9  1  1
  8  7  1  0
 10  8  1  0
 10 11  2  0
 13 15  1  0
 13 12  1  0
 14 13  2  0
 16 15  1  6
 16 18  1  0
 16 17  1  0
 17 10  1  0
 18 19  2  0
 20 21  1  0
 21 22  2  0
 23 21  1  0
 23 24  1  0
 24 25  1  0
 26 25  1  0
 27 26  1  6
 28 27  1  0
 28 18  1  0
 29 27  1  0
 30 29  1  0
 31 29  2  0
M  END
$$$$
