RNR.pdb
     RDKit          3D

 31 30  0  0  1  0  0  0  0  0999 V2000
   26.9852  -23.6230  -17.1298 N   0  0  0  0  0  0  0  0  0  0  0  0
   25.8124  -23.5183  -16.3210 C   0  0  0  0  0  0  0  0  0  0  0  0
   25.6222  -24.4475  -15.4257 N   0  0  0  0  0  0  0  0  0  0  0  0
   24.8792  -22.4828  -16.4535 N   0  0  0  0  0  0  0  0  0  0  0  0
   24.8224  -21.6550  -17.6314 C   0  0  0  0  0  0  0  0  0  0  0  0
   26.1532  -20.9732  -17.8277 C   0  0  0  0  0  0  0  0  0  0  0  0
   25.9512  -19.5186  -18.2043 C   0  0  0  0  0  0  0  0  0  0  0  0
   26.4307  -18.5832  -17.1426 C   0  0  2  0  0  0  0  0  0  0  0  0
   27.5247  -19.1329  -16.3636 N   0  0  0  0  0  0  0  0  0  0  0  0
   25.2578  -18.2701  -16.2696 C   0  0  0  0  0  0  0  0  0  0  0  0
   25.0829  -18.9730  -15.2471 O   0  0  0  0  0  0  0  0  0  0  0  0
   24.7555  -24.4608  -14.8348 N   0  0  0  0  0  0  0  0  0  0  0  0
   21.2305  -15.9135  -14.1122 C   0  0  0  0  0  0  0  0  0  0  0  0
   21.7576  -15.0151  -15.0818 O   0  0  0  0  0  0  0  0  0  0  0  0
   21.2949  -13.8400  -15.1621 C   0  0  0  0  0  0  0  0  0  0  0  0
   22.8497  -15.4631  -15.9910 C   0  0  2  0  0  0  0  0  0  0  0  0
   23.2827  -16.8938  -15.6140 N   0  0  0  0  0  0  0  0  0  0  0  0
   24.3491  -17.2266  -16.5474 C   0  0  0  0  0  0  0  0  0  0  0  0
   22.1187  -17.7614  -15.7535 O   0  0  0  0  0  0  0  0  0  0  0  0
   21.7626  -18.1426  -16.9064 N   0  0  0  0  0  0  0  0  0  0  0  0
   17.3121  -21.5364  -10.8912 C   0  0  0  0  0  0  0  0  0  0  0  0
   17.4842  -22.6532  -11.7461 N   0  0  0  0  0  0  0  0  0  0  0  0
   16.5231  -23.5216  -11.9216 N   0  0  0  0  0  0  0  0  0  0  0  0
   18.6937  -22.8817  -12.4466 C   0  0  0  0  0  0  0  0  0  0  0  0
   19.8269  -21.9859  -12.3309 C   0  0  0  0  0  0  0  0  0  0  0  0
   19.4040  -20.7274  -13.1085 C   0  0  0  0  0  0  0  0  0  0  0  0
   20.5477  -20.3724  -14.0021 C   0  0  1  0  0  0  0  0  0  0  0  0
   20.2362  -19.1513  -14.8309 N   0  0  0  0  0  0  0  0  0  0  0  0
   21.3517  -18.2091  -14.6494 C   0  0  0  0  0  0  0  0  0  0  0  0
   18.9969  -18.5489  -14.2745 O   0  0  0  0  0  0  0  0  0  0  0  0
   17.7466  -19.1222  -14.5736 O   0  0  0  0  0  0  0  0  0  0  0  0
  1  2  1  0
  2  4  1  0
  2  3  2  0
  4  5  1  0
  6  7  1  0
  6  5  1  0
  8  9  1  1
  8  7  1  0
 10  8  1  0
 10 11  2  0
 13 15  1  0
 13 12  1  0
 14 13  2  0
 16 15  1  1
 16 18  1  0
 16 17  1  0
 17 10  1  0
 18 19  2  0
 20 21  1  0
 21 22  2  0
 23 21  1  0
 23 24  1  0
 24 25  1  0
 26 25  1  0
 27 26  1  6
 28 27  1  0
 28 18  1  0
 29 27  1  0
 30 29  1  0
 31 29  2  0
M  END
$$$$
