RNR.pdb
     RDKit          3D

 31 30  0  0  1  0  0  0  0  0999 V2000
   21.7935  -30.3231   -0.8348 N   0  0  0  0  0  0  0  0  0  0  0  0
   21.2589  -28.9986   -0.8132 C   0  0  0  0  0  0  0  0  0  0  0  0
   21.7711  -28.1365   -1.6472 N   0  0  0  0  0  0  0  0  0  0  0  0
   20.2334  -28.5994    0.0526 N   0  0  0  0  0  0  0  0  0  0  0  0
   19.6686  -29.4963    1.0286 C   0  0  0  0  0  0  0  0  0  0  0  0
   18.1693  -29.3344    1.0477 C   0  0  0  0  0  0  0  0  0  0  0  0
   17.7894  -28.0030    1.6653 C   0  0  0  0  0  0  0  0  0  0  0  0
   16.3133  -27.8590    1.8457 C   0  0  2  0  0  0  0  0  0  0  0  0
   15.6656  -29.1116    2.1880 N   0  0  0  0  0  0  0  0  0  0  0  0
   15.7659  -27.3062    0.5686 C   0  0  0  0  0  0  0  0  0  0  0  0
   15.2770  -28.1114   -0.2577 O   0  0  0  0  0  0  0  0  0  0  0  0
   21.4227  -27.1477   -1.6859 N   0  0  0  0  0  0  0  0  0  0  0  0
   13.8455  -24.1655   -2.9798 C   0  0  0  0  0  0  0  0  0  0  0  0
   14.2797  -23.3277   -1.9147 O   0  0  0  0  0  0  0  0  0  0  0  0
   14.0447  -22.0850   -1.9611 C   0  0  0  0  0  0  0  0  0  0  0  0
   15.0034  -23.9189   -0.7543 C   0  0  2  0  0  0  0  0  0  0  0  0
   15.1841  -25.4340   -0.9746 N   0  0  0  0  0  0  0  0  0  0  0  0
   15.7775  -25.9294    0.2591 C   0  0  0  0  0  0  0  0  0  0  0  0
   16.0535  -25.6140   -2.1317 O   0  0  0  0  0  0  0  0  0  0  0  0
   17.2890  -25.3622   -2.0256 N   0  0  0  0  0  0  0  0  0  0  0  0
   14.9600  -29.9746   -9.9420 C   0  0  0  0  0  0  0  0  0  0  0  0
   16.3123  -29.9566   -9.5193 N   0  0  0  0  0  0  0  0  0  0  0  0
   17.2241  -30.6504  -10.1484 N   0  0  0  0  0  0  0  0  0  0  0  0
   16.7394  -29.1932   -8.4055 C   0  0  0  0  0  0  0  0  0  0  0  0
   15.7985  -28.6134   -7.4681 C   0  0  0  0  0  0  0  0  0  0  0  0
   16.6802  -27.8911   -6.4344 C   0  0  0  0  0  0  0  0  0  0  0  0
   15.7527  -27.1765   -5.5061 C   0  0  2  0  0  0  0  0  0  0  0  0
   16.5148  -26.3670   -4.4869 N   0  0  0  0  0  0  0  0  0  0  0  0
   15.5822  -26.0639   -3.3899 C   0  0  0  0  0  0  0  0  0  0  0  0
   16.9162  -25.0977   -5.1471 O   0  0  0  0  0  0  0  0  0  0  0  0
   18.1607  -25.0128   -5.7994 O   0  0  0  0  0  0  0  0  0  0  0  0
  1  2  1  0
  2  4  1  0
  2  3  2  0
  4  5  1  0
  6  7  1  0
  6  5  1  0
  8  9  1  6
  8  7  1  0
 10  8  1  0
 10 11  2  0
 13 15  1  0
 13 12  1  0
 14 13  2  0
 16 15  1  1
 16 18  1  0
 16 17  1  0
 17 10  1  0
 18 19  2  0
 20 21  1  0
 21 22  2  0
 23 21  1  0
 23 24  1  0
 24 25  1  0
 26 25  1  0
 27 26  1  1
 28 27  1  0
 28 18  1  0
 29 27  1  0
 30 29  1  0
 31 29  2  0
M  END
$$$$
