RNR.pdb
     RDKit          3D

 31 30  0  0  1  0  0  0  0  0999 V2000
   30.6300  -21.6942   -9.3258 N   0  0  0  0  0  0  0  0  0  0  0  0
   31.3620  -21.9359  -10.5285 C   0  0  0  0  0  0  0  0  0  0  0  0
   32.4418  -22.6612  -10.4321 N   0  0  0  0  0  0  0  0  0  0  0  0
   30.9756  -21.4314  -11.7761 N   0  0  0  0  0  0  0  0  0  0  0  0
   29.8081  -20.6021  -11.9337 C   0  0  0  0  0  0  0  0  0  0  0  0
   28.5734  -21.4152  -11.6355 C   0  0  0  0  0  0  0  0  0  0  0  0
   27.3286  -20.6606  -12.0592 C   0  0  0  0  0  0  0  0  0  0  0  0
   26.5218  -21.4127  -13.0669 C   0  0  2  0  0  0  0  0  0  0  0  0
   27.0520  -21.2924  -14.4123 N   0  0  0  0  0  0  0  0  0  0  0  0
   25.1246  -20.8848  -12.9944 C   0  0  0  0  0  0  0  0  0  0  0  0
   24.9486  -19.6603  -13.1935 O   0  0  0  0  0  0  0  0  0  0  0  0
   33.0343  -22.8645  -11.2737 N   0  0  0  0  0  0  0  0  0  0  0  0
   23.1559  -18.4065  -14.8227 C   0  0  0  0  0  0  0  0  0  0  0  0
   22.1859  -19.2293  -14.1847 O   0  0  0  0  0  0  0  0  0  0  0  0
   21.1625  -18.6991  -13.6624 C   0  0  0  0  0  0  0  0  0  0  0  0
   22.3810  -20.7057  -14.1389 C   0  0  2  0  0  0  0  0  0  0  0  0
   22.6621  -21.1458  -12.6884 N   0  0  0  0  0  0  0  0  0  0  0  0
   24.0078  -21.7007  -12.7135 C   0  0  0  0  0  0  0  0  0  0  0  0
   21.6518  -22.1307  -12.3193 O   0  0  0  0  0  0  0  0  0  0  0  0
   21.3777  -23.0701  -13.1215 N   0  0  0  0  0  0  0  0  0  0  0  0
   16.7104  -26.6055   -7.8339 C   0  0  0  0  0  0  0  0  0  0  0  0
   16.8603  -25.5946   -6.8523 N   0  0  0  0  0  0  0  0  0  0  0  0
   15.8941  -25.3189   -6.0163 N   0  0  0  0  0  0  0  0  0  0  0  0
   18.0527  -24.8405   -6.7289 C   0  0  0  0  0  0  0  0  0  0  0  0
   18.2223  -23.5619   -7.3896 C   0  0  0  0  0  0  0  0  0  0  0  0
   18.5843  -23.9232   -8.8407 C   0  0  0  0  0  0  0  0  0  0  0  0
   19.5429  -22.8797   -9.3148 C   0  0  2  0  0  0  0  0  0  0  0  0
   19.9882  -23.1483  -10.7307 N   0  0  0  0  0  0  0  0  0  0  0  0
   20.9485  -22.0928  -11.0898 C   0  0  0  0  0  0  0  0  0  0  0  0
   18.7875  -23.0272  -11.5977 O   0  0  0  0  0  0  0  0  0  0  0  0
   18.1457  -24.1883  -12.0681 O   0  0  0  0  0  0  0  0  0  0  0  0
  1  2  1  0
  2  4  1  0
  2  3  2  0
  4  5  1  0
  6  7  1  0
  6  5  1  0
  8  9  1  6
  8  7  1  0
 10  8  1  0
 10 11  2  0
 13 15  1  0
 13 12  1  0
 14 13  2  0
 16 15  1  1
 16 18  1  0
 16 17  1  0
 17 10  1  0
 18 19  2  0
 20 21  1  0
 21 22  2  0
 23 21  1  0
 23 24  1  0
 24 25  1  0
 26 25  1  0
 27 26  1  1
 28 27  1  0
 28 18  1  0
 29 27  1  0
 30 29  1  0
 31 29  2  0
M  END
$$$$
