RNR.pdb
     RDKit          3D

 31 30  0  0  1  0  0  0  0  0999 V2000
   17.2290  -20.9216  -14.9432 N   0  0  0  0  0  0  0  0  0  0  0  0
   18.4302  -21.2853  -15.6255 C   0  0  0  0  0  0  0  0  0  0  0  0
   18.4593  -21.1039  -16.9167 N   0  0  0  0  0  0  0  0  0  0  0  0
   19.5491  -21.8208  -14.9760 N   0  0  0  0  0  0  0  0  0  0  0  0
   19.4682  -23.0232  -14.1863 C   0  0  0  0  0  0  0  0  0  0  0  0
   18.3096  -22.9141  -13.2270 C   0  0  0  0  0  0  0  0  0  0  0  0
   18.7271  -23.3638  -11.8407 C   0  0  0  0  0  0  0  0  0  0  0  0
   18.9635  -24.8371  -11.7667 C   0  0  2  0  0  0  0  0  0  0  0  0
   18.6498  -25.5183  -13.0090 N   0  0  0  0  0  0  0  0  0  0  0  0
   18.1261  -25.3611  -10.6441 C   0  0  0  0  0  0  0  0  0  0  0  0
   16.9889  -24.8621  -10.4775 O   0  0  0  0  0  0  0  0  0  0  0  0
   19.2897  -21.3982  -17.4864 N   0  0  0  0  0  0  0  0  0  0  0  0
   16.5103  -29.3083   -7.2539 C   0  0  0  0  0  0  0  0  0  0  0  0
   17.6905  -28.5859   -6.9220 O   0  0  0  0  0  0  0  0  0  0  0  0
   18.0327  -28.4706   -5.7092 C   0  0  0  0  0  0  0  0  0  0  0  0
   18.5140  -27.9746   -8.0029 C   0  0  1  0  0  0  0  0  0  0  0  0
   17.7331  -26.8171   -8.6564 N   0  0  0  0  0  0  0  0  0  0  0  0
   18.5598  -26.3838   -9.7736 C   0  0  0  0  0  0  0  0  0  0  0  0
   17.5544  -25.7775   -7.6493 O   0  0  0  0  0  0  0  0  0  0  0  0
   18.0392  -24.6264   -7.8520 N   0  0  0  0  0  0  0  0  0  0  0  0
   11.5439  -21.2082   -8.6828 C   0  0  0  0  0  0  0  0  0  0  0  0
   12.9512  -21.0668   -8.5968 N   0  0  0  0  0  0  0  0  0  0  0  0
   13.6114  -20.3547   -9.4718 N   0  0  0  0  0  0  0  0  0  0  0  0
   13.7050  -21.6831   -7.5683 C   0  0  0  0  0  0  0  0  0  0  0  0
   13.2194  -22.8477   -6.8555 C   0  0  0  0  0  0  0  0  0  0  0  0
   14.3762  -23.2355   -5.9180 C   0  0  0  0  0  0  0  0  0  0  0  0
   15.1162  -24.3467   -6.5890 C   0  0  1  0  0  0  0  0  0  0  0  0
   16.2276  -24.8707   -5.7143 N   0  0  0  0  0  0  0  0  0  0  0  0
   16.8549  -25.9894   -6.4354 C   0  0  0  0  0  0  0  0  0  0  0  0
   15.5995  -25.3867   -4.4703 O   0  0  0  0  0  0  0  0  0  0  0  0
   15.2442  -24.4912   -3.4440 O   0  0  0  0  0  0  0  0  0  0  0  0
  1  2  1  0
  2  4  1  0
  2  3  2  0
  4  5  1  0
  6  7  1  0
  6  5  1  0
  8  9  1  6
  8  7  1  0
 10  8  1  0
 10 11  2  0
 13 15  1  0
 13 12  1  0
 14 13  2  0
 16 15  1  6
 16 18  1  0
 16 17  1  0
 17 10  1  0
 18 19  2  0
 20 21  1  0
 21 22  2  0
 23 21  1  0
 23 24  1  0
 24 25  1  0
 26 25  1  0
 27 26  1  6
 28 27  1  0
 28 18  1  0
 29 27  1  0
 30 29  1  0
 31 29  2  0
M  END
$$$$
