HLY.pdb
     RDKit          3D

 31 32  0  0  1  0  0  0  0  0999 V2000
   28.5827  -21.5346  -17.1918 N   0  0  0  0  0  0  0  0  0  0  0  0
   28.3127  -20.3983  -16.3342 C   0  0  1  0  0  0  0  0  0  0  0  0
   27.3025  -19.5181  -17.0301 C   0  0  0  0  0  0  0  0  0  0  0  0
   28.0252  -18.8047  -18.1200 C   0  0  0  0  0  0  0  0  0  0  0  0
   28.9574  -17.8001  -17.9642 C   0  0  0  0  0  0  0  0  0  0  0  0
   29.3814  -17.4140  -19.2019 N   0  0  0  0  0  0  0  0  0  0  0  0
   28.7287  -18.1606  -20.1073 C   0  0  0  0  0  0  0  0  0  0  0  0
   27.9211  -18.9880  -19.4495 N   0  0  0  0  0  0  0  0  0  0  0  0
   27.8561  -20.8707  -15.0160 C   0  0  0  0  0  0  0  0  0  0  0  0
   26.9926  -21.7581  -14.9459 O   0  0  0  0  0  0  0  0  0  0  0  0
   31.2164  -20.5336  -10.4966 C   0  0  0  0  0  0  0  0  0  0  0  0
   30.2263  -21.0939  -11.4921 C   0  0  1  0  0  0  0  0  0  0  0  0
   30.1384  -22.5760  -11.4988 C   0  0  0  0  0  0  0  0  0  0  0  0
   28.8633  -20.4716  -11.3953 C   0  0  0  0  0  0  0  0  0  0  0  0
   27.9462  -20.7764  -12.5100 C   0  0  2  0  0  0  0  0  0  0  0  0
   28.3846  -20.3305  -13.7997 N   0  0  0  0  0  0  0  0  0  0  0  0
   26.5555  -20.2964  -12.2918 C   0  0  0  0  0  0  0  0  0  0  0  0
   26.3069  -19.0977  -12.5384 O   0  0  0  0  0  0  0  0  0  0  0  0
   17.8767  -19.6940  -11.6688 O   0  0  0  0  0  0  0  0  0  0  0  0
   19.2018  -20.0045  -11.9065 C   0  0  0  0  0  0  0  0  0  0  0  0
   19.7000  -21.1951  -11.4315 C   0  0  0  0  0  0  0  0  0  0  0  0
   21.0099  -21.5497  -11.6414 C   0  0  0  0  0  0  0  0  0  0  0  0
   21.8437  -20.6923  -12.3443 C   0  0  0  0  0  0  0  0  0  0  0  0
   23.2518  -21.0955  -12.5588 C   0  0  0  0  0  0  0  0  0  0  0  0
   24.1686  -20.6151  -11.4839 C   0  0  2  0  0  0  0  0  0  0  0  0
   25.5071  -21.0979  -11.8287 N   0  0  0  0  0  0  0  0  0  0  0  0
   23.7875  -20.9509  -10.1188 C   0  0  0  0  0  0  0  0  0  0  0  0
   22.7718  -20.2528   -9.4872 O   0  0  0  0  0  0  0  0  0  0  0  0
   21.3288  -19.5021  -12.8142 C   0  0  0  0  0  0  0  0  0  0  0  0
   20.0199  -19.1308  -12.6133 C   0  0  0  0  0  0  0  0  0  0  0  0
   24.3440  -21.8693   -9.4517 O   0  0  0  0  0  0  0  0  0  0  0  0
  2  3  1  0
  2  1  1  6
  3  4  1  0
  4  5  2  0
  5  6  1  0
  7  6  1  0
  8  4  1  0
  8  7  2  0
  9 16  1  0
  9  2  1  0
 10  9  2  0
 12 11  1  1
 12 13  1  0
 12 14  1  0
 15 14  1  1
 15 16  1  0
 17 18  2  0
 17 15  1  0
 19 20  1  0
 20 21  2  0
 21 22  1  0
 23 24  1  0
 23 22  2  0
 25 26  1  0
 25 24  1  6
 26 17  1  0
 27 25  1  0
 28 27  1  0
 29 23  1  0
 30 29  2  0
 30 20  1  0
 31 27  2  0
M  END
$$$$
