HLY.pdb
     RDKit          3D

 31 32  0  0  1  0  0  0  0  0999 V2000
   30.5092  -21.4059  -19.3911 N   0  0  0  0  0  0  0  0  0  0  0  0
   29.1902  -21.8186  -18.9557 C   0  0  1  0  0  0  0  0  0  0  0  0
   29.2445  -23.2933  -18.6362 C   0  0  0  0  0  0  0  0  0  0  0  0
   29.2172  -24.0209  -19.9357 C   0  0  0  0  0  0  0  0  0  0  0  0
   28.5443  -23.6356  -21.0765 C   0  0  0  0  0  0  0  0  0  0  0  0
   28.7726  -24.5697  -22.0441 N   0  0  0  0  0  0  0  0  0  0  0  0
   29.5688  -25.5145  -21.5183 C   0  0  0  0  0  0  0  0  0  0  0  0
   29.8280  -25.1763  -20.2582 N   0  0  0  0  0  0  0  0  0  0  0  0
   28.7668  -20.9948  -17.8105 C   0  0  0  0  0  0  0  0  0  0  0  0
   29.5019  -20.8994  -16.8164 O   0  0  0  0  0  0  0  0  0  0  0  0
   26.7425  -15.8674  -18.3171 C   0  0  0  0  0  0  0  0  0  0  0  0
   27.4509  -17.0896  -17.7789 C   0  0  1  0  0  0  0  0  0  0  0  0
   28.5439  -16.7901  -16.8199 C   0  0  0  0  0  0  0  0  0  0  0  0
   26.5170  -18.1281  -17.2276 C   0  0  0  0  0  0  0  0  0  0  0  0
   27.1558  -19.3767  -16.7697 C   0  0  2  0  0  0  0  0  0  0  0  0
   27.5185  -20.2933  -17.8104 N   0  0  0  0  0  0  0  0  0  0  0  0
   26.3689  -20.1130  -15.7448 C   0  0  0  0  0  0  0  0  0  0  0  0
   25.5734  -20.9908  -16.1399 O   0  0  0  0  0  0  0  0  0  0  0  0
   22.8067  -21.6468   -7.7414 O   0  0  0  0  0  0  0  0  0  0  0  0
   23.5534  -21.1988   -8.8141 C   0  0  0  0  0  0  0  0  0  0  0  0
   24.8896  -21.5189   -8.8725 C   0  0  0  0  0  0  0  0  0  0  0  0
   25.6746  -21.0977   -9.9175 C   0  0  0  0  0  0  0  0  0  0  0  0
   25.1095  -20.3369  -10.9306 C   0  0  0  0  0  0  0  0  0  0  0  0
   25.9748  -19.8942  -12.0472 C   0  0  0  0  0  0  0  0  0  0  0  0
   25.6002  -20.5053  -13.3559 C   0  0  2  0  0  0  0  0  0  0  0  0
   26.4600  -19.8880  -14.3674 N   0  0  0  0  0  0  0  0  0  0  0  0
   24.1887  -20.4463  -13.7104 C   0  0  0  0  0  0  0  0  0  0  0  0
   23.6487  -19.2812  -14.2290 O   0  0  0  0  0  0  0  0  0  0  0  0
   23.7681  -20.0243  -10.8574 C   0  0  0  0  0  0  0  0  0  0  0  0
   22.9671  -20.4375   -9.8186 C   0  0  0  0  0  0  0  0  0  0  0  0
   23.3989  -21.4234  -13.5693 O   0  0  0  0  0  0  0  0  0  0  0  0
  2  3  1  0
  2  1  1  1
  3  4  1  0
  4  5  2  0
  5  6  1  0
  7  6  1  0
  8  4  1  0
  8  7  2  0
  9 16  1  0
  9  2  1  0
 10  9  2  0
 12 11  1  1
 12 13  1  0
 12 14  1  0
 15 14  1  6
 15 16  1  0
 17 18  2  0
 17 15  1  0
 19 20  1  0
 20 21  2  0
 21 22  1  0
 23 24  1  0
 23 22  2  0
 25 26  1  0
 25 24  1  1
 26 17  1  0
 27 25  1  0
 28 27  1  0
 29 23  1  0
 30 29  2  0
 30 20  1  0
 31 27  2  0
M  END
$$$$
