HLY.pdb
     RDKit          3D

 31 32  0  0  1  0  0  0  0  0999 V2000
   20.0075  -14.6590  -17.6990 N   0  0  0  0  0  0  0  0  0  0  0  0
   20.7320  -13.5927  -18.3606 C   0  0  1  0  0  0  0  0  0  0  0  0
   19.7518  -12.8195  -19.2097 C   0  0  0  0  0  0  0  0  0  0  0  0
   19.3031  -13.7335  -20.2971 C   0  0  0  0  0  0  0  0  0  0  0  0
   18.1476  -14.4867  -20.3096 C   0  0  0  0  0  0  0  0  0  0  0  0
   18.1053  -15.1860  -21.4800 N   0  0  0  0  0  0  0  0  0  0  0  0
   19.2085  -14.8758  -22.1799 C   0  0  0  0  0  0  0  0  0  0  0  0
   19.9167  -14.0072  -21.4635 N   0  0  0  0  0  0  0  0  0  0  0  0
   21.4097  -12.7568  -17.3550 C   0  0  0  0  0  0  0  0  0  0  0  0
   20.8209  -12.4587  -16.3051 O   0  0  0  0  0  0  0  0  0  0  0  0
   27.0408  -11.2106  -15.2989 C   0  0  0  0  0  0  0  0  0  0  0  0
   25.5863  -10.8364  -15.4714 C   0  0  1  0  0  0  0  0  0  0  0  0
   25.3484   -9.3851  -15.6746 C   0  0  0  0  0  0  0  0  0  0  0  0
   24.8784  -11.6519  -16.5145 C   0  0  0  0  0  0  0  0  0  0  0  0
   23.4167  -11.4634  -16.5831 C   0  0  2  0  0  0  0  0  0  0  0  0
   22.7424  -12.2727  -17.5551 N   0  0  0  0  0  0  0  0  0  0  0  0
   23.0023  -10.0483  -16.7771 C   0  0  0  0  0  0  0  0  0  0  0  0
   23.0424   -9.5824  -17.9351 O   0  0  0  0  0  0  0  0  0  0  0  0
   17.6817   -3.5319  -17.8018 O   0  0  0  0  0  0  0  0  0  0  0  0
   18.4771   -4.6443  -17.6041 C   0  0  0  0  0  0  0  0  0  0  0  0
   18.0025   -5.6683  -16.8183 C   0  0  0  0  0  0  0  0  0  0  0  0
   18.7542   -6.7947  -16.5912 C   0  0  0  0  0  0  0  0  0  0  0  0
   20.0131   -6.9006  -17.1643 C   0  0  0  0  0  0  0  0  0  0  0  0
   20.8055   -8.1241  -16.9059 C   0  0  0  0  0  0  0  0  0  0  0  0
   21.9247   -7.9044  -15.9438 C   0  0  2  0  0  0  0  0  0  0  0  0
   22.5704   -9.2039  -15.7492 N   0  0  0  0  0  0  0  0  0  0  0  0
   21.5715   -7.2615  -14.6855 C   0  0  0  0  0  0  0  0  0  0  0  0
   21.3404   -8.0254  -13.5536 O   0  0  0  0  0  0  0  0  0  0  0  0
   20.4747   -5.8651  -17.9498 C   0  0  0  0  0  0  0  0  0  0  0  0
   19.7357   -4.7299  -18.1879 C   0  0  0  0  0  0  0  0  0  0  0  0
   21.4581   -6.0089  -14.5569 O   0  0  0  0  0  0  0  0  0  0  0  0
  2  3  1  0
  2  1  1  1
  3  4  1  0
  4  5  2  0
  5  6  1  0
  7  6  1  0
  8  4  1  0
  8  7  2  0
  9 16  1  0
  9  2  1  0
 10  9  2  0
 12 11  1  6
 12 13  1  0
 12 14  1  0
 15 14  1  6
 15 16  1  0
 17 18  2  0
 17 15  1  0
 19 20  1  0
 20 21  2  0
 21 22  1  0
 23 24  1  0
 23 22  2  0
 25 26  1  0
 25 24  1  6
 26 17  1  0
 27 25  1  0
 28 27  1  0
 29 23  1  0
 30 29  2  0
 30 20  1  0
 31 27  2  0
M  END
$$$$
