HLY.pdb
     RDKit          3D

 31 32  0  0  1  0  0  0  0  0999 V2000
   27.6232  -20.5840  -15.7804 N   0  0  0  0  0  0  0  0  0  0  0  0
   26.7308  -19.7049  -15.0523 C   0  0  1  0  0  0  0  0  0  0  0  0
   26.0038  -18.8426  -16.0561 C   0  0  0  0  0  0  0  0  0  0  0  0
   27.0158  -17.9318  -16.6605 C   0  0  0  0  0  0  0  0  0  0  0  0
   27.5130  -16.7731  -16.1012 C   0  0  0  0  0  0  0  0  0  0  0  0
   28.4164  -16.2326  -16.9688 N   0  0  0  0  0  0  0  0  0  0  0  0
   28.4803  -17.0358  -18.0430 C   0  0  0  0  0  0  0  0  0  0  0  0
   27.6393  -18.0477  -17.8478 N   0  0  0  0  0  0  0  0  0  0  0  0
   25.8225  -20.5057  -14.2138 C   0  0  0  0  0  0  0  0  0  0  0  0
   25.3135  -21.5394  -14.6721 O   0  0  0  0  0  0  0  0  0  0  0  0
   26.3914  -20.4839   -8.7120 C   0  0  0  0  0  0  0  0  0  0  0  0
   26.2011  -20.8152  -10.1746 C   0  0  1  0  0  0  0  0  0  0  0  0
   26.8485  -22.0803  -10.6042 C   0  0  0  0  0  0  0  0  0  0  0  0
   24.7676  -20.7633  -10.6182 C   0  0  0  0  0  0  0  0  0  0  0  0
   24.5514  -20.8375  -12.0758 C   0  0  2  0  0  0  0  0  0  0  0  0
   25.5059  -20.1224  -12.8709 N   0  0  0  0  0  0  0  0  0  0  0  0
   23.1849  -20.4336  -12.5015 C   0  0  0  0  0  0  0  0  0  0  0  0
   22.9098  -19.2155  -12.5003 O   0  0  0  0  0  0  0  0  0  0  0  0
   16.4260  -19.3484  -17.6696 O   0  0  0  0  0  0  0  0  0  0  0  0
   17.5779  -19.5680  -16.9390 C   0  0  0  0  0  0  0  0  0  0  0  0
   17.9338  -18.6579  -15.9713 C   0  0  0  0  0  0  0  0  0  0  0  0
   19.0689  -18.8310  -15.2183 C   0  0  0  0  0  0  0  0  0  0  0  0
   19.8694  -19.9425  -15.4380 C   0  0  0  0  0  0  0  0  0  0  0  0
   21.0882  -20.1085  -14.6142 C   0  0  0  0  0  0  0  0  0  0  0  0
   20.8633  -20.9425  -13.3975 C   0  0  2  0  0  0  0  0  0  0  0  0
   22.1866  -21.3271  -12.9032 N   0  0  0  0  0  0  0  0  0  0  0  0
   19.9731  -22.0841  -13.5584 C   0  0  0  0  0  0  0  0  0  0  0  0
   18.6082  -21.9342  -13.3774 O   0  0  0  0  0  0  0  0  0  0  0  0
   19.4989  -20.8459  -16.4121 C   0  0  0  0  0  0  0  0  0  0  0  0
   18.3657  -20.6886  -17.1755 C   0  0  0  0  0  0  0  0  0  0  0  0
   20.3809  -23.2416  -13.8620 O   0  0  0  0  0  0  0  0  0  0  0  0
  2  3  1  0
  2  1  1  6
  3  4  1  0
  4  5  2  0
  5  6  1  0
  7  6  1  0
  8  4  1  0
  8  7  2  0
  9 16  1  0
  9  2  1  0
 10  9  2  0
 12 11  1  1
 12 13  1  0
 12 14  1  0
 15 14  1  1
 15 16  1  0
 17 18  2  0
 17 15  1  0
 19 20  1  0
 20 21  2  0
 21 22  1  0
 23 24  1  0
 23 22  2  0
 25 26  1  0
 25 24  1  6
 26 17  1  0
 27 25  1  0
 28 27  1  0
 29 23  1  0
 30 29  2  0
 30 20  1  0
 31 27  2  0
M  END
$$$$
