HLY.pdb
     RDKit          3D

 31 32  0  0  1  0  0  0  0  0999 V2000
   17.9811  -24.2747   -8.8239 N   0  0  0  0  0  0  0  0  0  0  0  0
   16.6551  -24.5585   -8.3133 C   0  0  1  0  0  0  0  0  0  0  0  0
   16.2195  -25.8953   -8.8636 C   0  0  0  0  0  0  0  0  0  0  0  0
   15.9601  -25.7031  -10.3179 C   0  0  0  0  0  0  0  0  0  0  0  0
   16.8914  -25.7748  -11.3328 C   0  0  0  0  0  0  0  0  0  0  0  0
   16.2542  -25.5396  -12.5157 N   0  0  0  0  0  0  0  0  0  0  0  0
   14.9566  -25.3265  -12.2440 C   0  0  0  0  0  0  0  0  0  0  0  0
   14.7924  -25.4266  -10.9278 N   0  0  0  0  0  0  0  0  0  0  0  0
   16.6724  -24.5180   -6.8411 C   0  0  0  0  0  0  0  0  0  0  0  0
   17.7390  -24.6940   -6.2335 O   0  0  0  0  0  0  0  0  0  0  0  0
   13.4336  -22.2107   -2.0518 C   0  0  0  0  0  0  0  0  0  0  0  0
   14.4887  -23.1530   -2.5848 C   0  0  1  0  0  0  0  0  0  0  0  0
   14.5531  -24.4592   -1.8820 C   0  0  0  0  0  0  0  0  0  0  0  0
   14.4254  -23.3419   -4.0730 C   0  0  0  0  0  0  0  0  0  0  0  0
   15.4932  -24.1792   -4.6521 C   0  0  2  0  0  0  0  0  0  0  0  0
   15.4820  -24.2789   -6.0820 N   0  0  0  0  0  0  0  0  0  0  0  0
   15.5550  -25.5519   -4.0833 C   0  0  0  0  0  0  0  0  0  0  0  0
   14.6920  -26.3756   -4.4525 O   0  0  0  0  0  0  0  0  0  0  0  0
   18.5551  -33.2535   -1.3835 O   0  0  0  0  0  0  0  0  0  0  0  0
   18.3164  -31.9880   -1.8840 C   0  0  0  0  0  0  0  0  0  0  0  0
   18.9382  -30.9127   -1.2937 C   0  0  0  0  0  0  0  0  0  0  0  0
   18.7339  -29.6352   -1.7539 C   0  0  0  0  0  0  0  0  0  0  0  0
   17.8861  -29.4268   -2.8320 C   0  0  0  0  0  0  0  0  0  0  0  0
   17.6811  -28.0411   -3.3111 C   0  0  0  0  0  0  0  0  0  0  0  0
   16.5872  -27.3279   -2.5892 C   0  0  2  0  0  0  0  0  0  0  0  0
   16.5154  -25.9825   -3.1622 N   0  0  0  0  0  0  0  0  0  0  0  0
   16.6820  -27.3123   -1.1358 C   0  0  0  0  0  0  0  0  0  0  0  0
   16.2484  -28.4008   -0.3976 O   0  0  0  0  0  0  0  0  0  0  0  0
   17.2701  -30.5155   -3.4129 C   0  0  0  0  0  0  0  0  0  0  0  0
   17.4630  -31.8016   -2.9653 C   0  0  0  0  0  0  0  0  0  0  0  0
   17.1499  -26.3353   -0.4839 O   0  0  0  0  0  0  0  0  0  0  0  0
  2  3  1  0
  2  1  1  6
  3  4  1  0
  4  5  2  0
  5  6  1  0
  7  6  1  0
  8  4  1  0
  8  7  2  0
  9 16  1  0
  9  2  1  0
 10  9  2  0
 12 11  1  1
 12 13  1  0
 12 14  1  0
 15 14  1  1
 15 16  1  0
 17 18  2  0
 17 15  1  0
 19 20  1  0
 20 21  2  0
 21 22  1  0
 23 24  1  0
 23 22  2  0
 25 26  1  0
 25 24  1  6
 26 17  1  0
 27 25  1  0
 28 27  1  0
 29 23  1  0
 30 29  2  0
 30 20  1  0
 31 27  2  0
M  END
$$$$
