HLY.pdb
     RDKit          3D

 31 32  0  0  1  0  0  0  0  0999 V2000
   13.1909  -13.1536    7.0607 N   0  0  0  0  0  0  0  0  0  0  0  0
   14.4167  -13.1429    7.8334 C   0  0  1  0  0  0  0  0  0  0  0  0
   14.0826  -13.5647    9.2441 C   0  0  0  0  0  0  0  0  0  0  0  0
   13.4313  -12.3986    9.9037 C   0  0  0  0  0  0  0  0  0  0  0  0
   12.1274  -12.3320   10.3487 C   0  0  0  0  0  0  0  0  0  0  0  0
   11.9229  -11.0972   10.8912 N   0  0  0  0  0  0  0  0  0  0  0  0
   13.0723  -10.4110   10.7865 C   0  0  0  0  0  0  0  0  0  0  0  0
   13.9665  -11.1983   10.1950 N   0  0  0  0  0  0  0  0  0  0  0  0
   15.4144  -14.0153    7.1908 C   0  0  0  0  0  0  0  0  0  0  0  0
   15.0432  -15.0299    6.5821 O   0  0  0  0  0  0  0  0  0  0  0  0
   19.2812  -12.2957    3.9094 C   0  0  0  0  0  0  0  0  0  0  0  0
   18.2412  -13.1100    4.6446 C   0  0  1  0  0  0  0  0  0  0  0  0
   17.4163  -13.9811    3.7700 C   0  0  0  0  0  0  0  0  0  0  0  0
   18.7970  -13.8813    5.8067 C   0  0  0  0  0  0  0  0  0  0  0  0
   17.7990  -14.5736    6.6442 C   0  0  2  0  0  0  0  0  0  0  0  0
   16.8152  -13.7241    7.2484 N   0  0  0  0  0  0  0  0  0  0  0  0
   18.3949  -15.4328    7.7018 C   0  0  0  0  0  0  0  0  0  0  0  0
   19.0303  -14.8724    8.6193 O   0  0  0  0  0  0  0  0  0  0  0  0
   17.4567  -14.3154   13.8049 O   0  0  0  0  0  0  0  0  0  0  0  0
   17.5518  -15.2613   12.8023 C   0  0  0  0  0  0  0  0  0  0  0  0
   18.7460  -15.4034   12.1351 C   0  0  0  0  0  0  0  0  0  0  0  0
   18.8915  -16.3288   11.1311 C   0  0  0  0  0  0  0  0  0  0  0  0
   17.8156  -17.1333   10.7849 C   0  0  0  0  0  0  0  0  0  0  0  0
   17.9957  -18.1241    9.6998 C   0  0  0  0  0  0  0  0  0  0  0  0
   18.9972  -17.6988    8.6788 C   0  0  2  0  0  0  0  0  0  0  0  0
   18.2912  -16.8271    7.7378 N   0  0  0  0  0  0  0  0  0  0  0  0
   19.7259  -18.7686    8.0110 C   0  0  0  0  0  0  0  0  0  0  0  0
   20.6861  -19.4922    8.6984 O   0  0  0  0  0  0  0  0  0  0  0  0
   16.6249  -16.9785   11.4634 C   0  0  0  0  0  0  0  0  0  0  0  0
   16.4612  -16.0571   12.4713 C   0  0  0  0  0  0  0  0  0  0  0  0
   19.5316  -19.0886    6.8035 O   0  0  0  0  0  0  0  0  0  0  0  0
  2  3  1  0
  2  1  1  6
  3  4  1  0
  4  5  2  0
  5  6  1  0
  7  6  1  0
  8  4  1  0
  8  7  2  0
  9 16  1  0
  9  2  1  0
 10  9  2  0
 12 11  1  6
 12 13  1  0
 12 14  1  0
 15 14  1  1
 15 16  1  0
 17 18  2  0
 17 15  1  0
 19 20  1  0
 20 21  2  0
 21 22  1  0
 23 24  1  0
 23 22  2  0
 25 26  1  0
 25 24  1  1
 26 17  1  0
 27 25  1  0
 28 27  1  0
 29 23  1  0
 30 29  2  0
 30 20  1  0
 31 27  2  0
M  END
$$$$
