HLY.pdb
     RDKit          3D

 31 32  0  0  1  0  0  0  0  0999 V2000
   15.8243   -2.1963  -11.0575 N   0  0  0  0  0  0  0  0  0  0  0  0
   14.9642   -3.2173  -11.6208 C   0  0  1  0  0  0  0  0  0  0  0  0
   14.8476   -2.9627  -13.1044 C   0  0  0  0  0  0  0  0  0  0  0  0
   13.9674   -1.7728  -13.2734 C   0  0  0  0  0  0  0  0  0  0  0  0
   14.2877   -0.6036  -13.9313 C   0  0  0  0  0  0  0  0  0  0  0  0
   13.2137    0.2345  -13.8619 N   0  0  0  0  0  0  0  0  0  0  0  0
   12.2473   -0.3978  -13.1768 C   0  0  0  0  0  0  0  0  0  0  0  0
   12.7087   -1.5962  -12.8302 N   0  0  0  0  0  0  0  0  0  0  0  0
   15.5056   -4.5501  -11.3044 C   0  0  0  0  0  0  0  0  0  0  0  0
   16.7321   -4.7330  -11.3104 O   0  0  0  0  0  0  0  0  0  0  0  0
   13.2266   -7.8358   -7.4546 C   0  0  0  0  0  0  0  0  0  0  0  0
   14.1637   -7.0736   -8.3636 C   0  0  1  0  0  0  0  0  0  0  0  0
   15.4656   -6.7214   -7.7428 C   0  0  0  0  0  0  0  0  0  0  0  0
   14.3612   -7.7256   -9.7016 C   0  0  0  0  0  0  0  0  0  0  0  0
   15.1617   -6.9538  -10.6713 C   0  0  2  0  0  0  0  0  0  0  0  0
   14.6492   -5.6529  -10.9868 N   0  0  0  0  0  0  0  0  0  0  0  0
   15.4265   -7.6783  -11.9429 C   0  0  0  0  0  0  0  0  0  0  0  0
   14.5687   -7.6017  -12.8473 O   0  0  0  0  0  0  0  0  0  0  0  0
   19.7843  -12.5456  -17.9440 O   0  0  0  0  0  0  0  0  0  0  0  0
   19.4142  -11.7402  -16.8841 C   0  0  0  0  0  0  0  0  0  0  0  0
   19.2436  -12.3112  -15.6447 C   0  0  0  0  0  0  0  0  0  0  0  0
   18.8764  -11.5540  -14.5596 C   0  0  0  0  0  0  0  0  0  0  0  0
   18.6744  -10.1906  -14.7173 C   0  0  0  0  0  0  0  0  0  0  0  0
   18.2793   -9.3941  -13.5336 C   0  0  0  0  0  0  0  0  0  0  0  0
   16.8011   -9.2437  -13.3960 C   0  0  2  0  0  0  0  0  0  0  0  0
   16.5723   -8.4400  -12.1938 N   0  0  0  0  0  0  0  0  0  0  0  0
   16.0281  -10.4782  -13.3989 C   0  0  0  0  0  0  0  0  0  0  0  0
   15.7584  -11.1341  -12.2093 O   0  0  0  0  0  0  0  0  0  0  0  0
   18.8496   -9.6331  -15.9666 C   0  0  0  0  0  0  0  0  0  0  0  0
   19.2170  -10.3760  -17.0642 C   0  0  0  0  0  0  0  0  0  0  0  0
   15.5732  -11.0068  -14.4534 O   0  0  0  0  0  0  0  0  0  0  0  0
  2  3  1  0
  2  1  1  6
  3  4  1  0
  4  5  2  0
  5  6  1  0
  7  6  1  0
  8  4  1  0
  8  7  2  0
  9 16  1  0
  9  2  1  0
 10  9  2  0
 12 11  1  1
 12 13  1  0
 12 14  1  0
 15 14  1  1
 15 16  1  0
 17 18  2  0
 17 15  1  0
 19 20  1  0
 20 21  2  0
 21 22  1  0
 23 24  1  0
 23 22  2  0
 25 26  1  0
 25 24  1  1
 26 17  1  0
 27 25  1  0
 28 27  1  0
 29 23  1  0
 30 29  2  0
 30 20  1  0
 31 27  2  0
M  END
$$$$
