HLY.pdb
     RDKit          3D

 31 32  0  0  1  0  0  0  0  0999 V2000
   26.2779  -19.9947  -19.8477 N   0  0  0  0  0  0  0  0  0  0  0  0
   25.5269  -18.7617  -19.9716 C   0  0  1  0  0  0  0  0  0  0  0  0
   24.4927  -18.9522  -21.0550 C   0  0  0  0  0  0  0  0  0  0  0  0
   25.2292  -19.0552  -22.3458 C   0  0  0  0  0  0  0  0  0  0  0  0
   25.2663  -20.1510  -23.1828 C   0  0  0  0  0  0  0  0  0  0  0  0
   26.0480  -19.8424  -24.2572 N   0  0  0  0  0  0  0  0  0  0  0  0
   26.4874  -18.5842  -24.0933 C   0  0  0  0  0  0  0  0  0  0  0  0
   25.9919  -18.1238  -22.9480 N   0  0  0  0  0  0  0  0  0  0  0  0
   24.9394  -18.4070  -18.6684 C   0  0  0  0  0  0  0  0  0  0  0  0
   24.5382  -19.3026  -17.9104 O   0  0  0  0  0  0  0  0  0  0  0  0
   26.3537  -13.5980  -16.0878 C   0  0  0  0  0  0  0  0  0  0  0  0
   26.0427  -15.0520  -16.3610 C   0  0  1  0  0  0  0  0  0  0  0  0
   26.6821  -16.0020  -15.4162 C   0  0  0  0  0  0  0  0  0  0  0  0
   24.5745  -15.3337  -16.5006 C   0  0  0  0  0  0  0  0  0  0  0  0
   24.2310  -16.6831  -16.9881 C   0  0  2  0  0  0  0  0  0  0  0  0
   24.8161  -17.0444  -18.2458 N   0  0  0  0  0  0  0  0  0  0  0  0
   22.7682  -16.9429  -17.0557 C   0  0  0  0  0  0  0  0  0  0  0  0
   22.1333  -16.4575  -18.0153 O   0  0  0  0  0  0  0  0  0  0  0  0
   14.9458  -20.1524  -17.9982 O   0  0  0  0  0  0  0  0  0  0  0  0
   16.2845  -19.8534  -17.8318 C   0  0  0  0  0  0  0  0  0  0  0  0
   16.7242  -18.5862  -18.1352 C   0  0  0  0  0  0  0  0  0  0  0  0
   18.0445  -18.2393  -17.9870 C   0  0  0  0  0  0  0  0  0  0  0  0
   18.9491  -19.1835  -17.5234 C   0  0  0  0  0  0  0  0  0  0  0  0
   20.3673  -18.7871  -17.3712 C   0  0  0  0  0  0  0  0  0  0  0  0
   20.6145  -17.9496  -16.1613 C   0  0  2  0  0  0  0  0  0  0  0  0
   22.0555  -17.6947  -16.1160 N   0  0  0  0  0  0  0  0  0  0  0  0
   20.0994  -18.4727  -14.9033 C   0  0  0  0  0  0  0  0  0  0  0  0
   20.9083  -19.2449  -14.0865 O   0  0  0  0  0  0  0  0  0  0  0  0
   18.4923  -20.4499  -17.2235 C   0  0  0  0  0  0  0  0  0  0  0  0
   17.1739  -20.8147  -17.3659 C   0  0  0  0  0  0  0  0  0  0  0  0
   18.9213  -18.2600  -14.4967 O   0  0  0  0  0  0  0  0  0  0  0  0
  2  3  1  0
  2  1  1  1
  3  4  1  0
  4  5  2  0
  5  6  1  0
  7  6  1  0
  8  4  1  0
  8  7  2  0
  9 16  1  0
  9  2  1  0
 10  9  2  0
 12 11  1  1
 12 13  1  0
 12 14  1  0
 15 14  1  6
 15 16  1  0
 17 18  2  0
 17 15  1  0
 19 20  1  0
 20 21  2  0
 21 22  1  0
 23 24  1  0
 23 22  2  0
 25 26  1  0
 25 24  1  6
 26 17  1  0
 27 25  1  0
 28 27  1  0
 29 23  1  0
 30 29  2  0
 30 20  1  0
 31 27  2  0
M  END
$$$$
