HLY.pdb
     RDKit          3D

 31 32  0  0  1  0  0  0  0  0999 V2000
   18.1110  -29.0604  -11.0283 N   0  0  0  0  0  0  0  0  0  0  0  0
   16.9998  -29.3639  -10.1493 C   0  0  1  0  0  0  0  0  0  0  0  0
   17.4107  -30.5102   -9.2566 C   0  0  0  0  0  0  0  0  0  0  0  0
   17.4987  -31.7222  -10.1183 C   0  0  0  0  0  0  0  0  0  0  0  0
   18.6546  -32.3208  -10.5746 C   0  0  0  0  0  0  0  0  0  0  0  0
   18.3070  -33.4014  -11.3311 N   0  0  0  0  0  0  0  0  0  0  0  0
   16.9663  -33.4741  -11.3455 C   0  0  0  0  0  0  0  0  0  0  0  0
   16.4940  -32.4659  -10.6176 N   0  0  0  0  0  0  0  0  0  0  0  0
   16.6182  -28.1555   -9.3986 C   0  0  0  0  0  0  0  0  0  0  0  0
   17.4874  -27.5012   -8.8035 O   0  0  0  0  0  0  0  0  0  0  0  0
   12.4182  -25.1877  -11.2919 C   0  0  0  0  0  0  0  0  0  0  0  0
   13.7653  -25.3746  -10.6319 C   0  0  1  0  0  0  0  0  0  0  0  0
   14.6751  -24.2082  -10.7583 C   0  0  0  0  0  0  0  0  0  0  0  0
   13.6742  -25.8375   -9.2065 C   0  0  0  0  0  0  0  0  0  0  0  0
   14.8837  -26.4934   -8.6739 C   0  0  2  0  0  0  0  0  0  0  0  0
   15.2593  -27.7087   -9.3345 N   0  0  0  0  0  0  0  0  0  0  0  0
   14.8332  -26.7479   -7.2095 C   0  0  0  0  0  0  0  0  0  0  0  0
   14.5063  -27.8909   -6.8270 O   0  0  0  0  0  0  0  0  0  0  0  0
   16.6267  -26.3406    1.3580 O   0  0  0  0  0  0  0  0  0  0  0  0
   16.5878  -26.2486   -0.0200 C   0  0  0  0  0  0  0  0  0  0  0  0
   16.1402  -25.0823   -0.5950 C   0  0  0  0  0  0  0  0  0  0  0  0
   16.0825  -24.9411   -1.9596 C   0  0  0  0  0  0  0  0  0  0  0  0
   16.4826  -25.9928   -2.7709 C   0  0  0  0  0  0  0  0  0  0  0  0
   16.4121  -25.8179   -4.2393 C   0  0  0  0  0  0  0  0  0  0  0  0
   15.0378  -26.0128   -4.7868 C   0  0  2  0  0  0  0  0  0  0  0  0
   15.1276  -25.7925   -6.2314 N   0  0  0  0  0  0  0  0  0  0  0  0
   13.9824  -25.2243   -4.1655 C   0  0  0  0  0  0  0  0  0  0  0  0
   13.2628  -25.7396   -3.1003 O   0  0  0  0  0  0  0  0  0  0  0  0
   16.9290  -27.1559   -2.1790 C   0  0  0  0  0  0  0  0  0  0  0  0
   16.9934  -27.3148   -0.8144 C   0  0  0  0  0  0  0  0  0  0  0  0
   13.6708  -24.0610   -4.5502 O   0  0  0  0  0  0  0  0  0  0  0  0
  2  3  1  0
  2  1  1  6
  3  4  1  0
  4  5  2  0
  5  6  1  0
  7  6  1  0
  8  4  1  0
  8  7  2  0
  9 16  1  0
  9  2  1  0
 10  9  2  0
 12 11  1  1
 12 13  1  0
 12 14  1  0
 15 14  1  6
 15 16  1  0
 17 18  2  0
 17 15  1  0
 19 20  1  0
 20 21  2  0
 21 22  1  0
 23 24  1  0
 23 22  2  0
 25 26  1  0
 25 24  1  1
 26 17  1  0
 27 25  1  0
 28 27  1  0
 29 23  1  0
 30 29  2  0
 30 20  1  0
 31 27  2  0
M  END
$$$$
