HLY.pdb
     RDKit          3D

 31 32  0  0  1  0  0  0  0  0999 V2000
   24.4428  -28.6720  -17.0817 N   0  0  0  0  0  0  0  0  0  0  0  0
   24.8448  -29.6119  -18.1086 C   0  0  1  0  0  0  0  0  0  0  0  0
   24.3135  -29.1136  -19.4311 C   0  0  0  0  0  0  0  0  0  0  0  0
   22.8286  -29.2147  -19.3689 C   0  0  0  0  0  0  0  0  0  0  0  0
   22.0938  -30.3623  -19.1549 C   0  0  0  0  0  0  0  0  0  0  0  0
   20.7704  -30.0320  -19.1696 N   0  0  0  0  0  0  0  0  0  0  0  0
   20.6829  -28.7099  -19.3876 C   0  0  0  0  0  0  0  0  0  0  0  0
   21.9188  -28.2321  -19.5050 N   0  0  0  0  0  0  0  0  0  0  0  0
   26.3099  -29.7631  -18.0950 C   0  0  0  0  0  0  0  0  0  0  0  0
   27.0326  -28.7618  -18.2092 O   0  0  0  0  0  0  0  0  0  0  0  0
   28.9179  -34.2968  -15.7294 C   0  0  0  0  0  0  0  0  0  0  0  0
   28.5573  -32.8742  -16.0920 C   0  0  1  0  0  0  0  0  0  0  0  0
   29.1207  -31.8487  -15.1780 C   0  0  0  0  0  0  0  0  0  0  0  0
   28.8385  -32.5329  -17.5269 C   0  0  0  0  0  0  0  0  0  0  0  0
   28.3552  -31.2116  -17.9711 C   0  0  2  0  0  0  0  0  0  0  0  0
   26.9316  -31.0450  -17.9522 N   0  0  0  0  0  0  0  0  0  0  0  0
   28.8604  -30.8065  -19.3100 C   0  0  0  0  0  0  0  0  0  0  0  0
   28.1320  -31.0282  -20.2998 O   0  0  0  0  0  0  0  0  0  0  0  0
   31.7189  -26.9533  -26.4019 O   0  0  0  0  0  0  0  0  0  0  0  0
   31.2456  -27.4284  -25.1939 C   0  0  0  0  0  0  0  0  0  0  0  0
   31.5277  -26.7236  -24.0471 C   0  0  0  0  0  0  0  0  0  0  0  0
   31.0803  -27.1540  -22.8223 C   0  0  0  0  0  0  0  0  0  0  0  0
   30.3315  -28.3190  -22.7413 C   0  0  0  0  0  0  0  0  0  0  0  0
   29.8596  -28.7636  -21.4105 C   0  0  0  0  0  0  0  0  0  0  0  0
   30.6595  -29.8931  -20.8530 C   0  0  2  0  0  0  0  0  0  0  0  0
   30.0973  -30.1936  -19.5349 N   0  0  0  0  0  0  0  0  0  0  0  0
   32.1025  -29.6990  -20.8142 C   0  0  0  0  0  0  0  0  0  0  0  0
   32.8306  -29.6484  -21.9913 O   0  0  0  0  0  0  0  0  0  0  0  0
   30.0571  -29.0143  -23.9005 C   0  0  0  0  0  0  0  0  0  0  0  0
   30.4969  -28.5981  -25.1354 C   0  0  0  0  0  0  0  0  0  0  0  0
   32.7542  -29.5701  -19.7386 O   0  0  0  0  0  0  0  0  0  0  0  0
  2  3  1  0
  2  1  1  1
  3  4  1  0
  4  5  2  0
  5  6  1  0
  7  6  1  0
  8  4  1  0
  8  7  2  0
  9 16  1  0
  9  2  1  0
 10  9  2  0
 12 11  1  1
 12 13  1  0
 12 14  1  0
 15 14  1  6
 15 16  1  0
 17 18  2  0
 17 15  1  0
 19 20  1  0
 20 21  2  0
 21 22  1  0
 23 24  1  0
 23 22  2  0
 25 26  1  0
 25 24  1  1
 26 17  1  0
 27 25  1  0
 28 27  1  0
 29 23  1  0
 30 29  2  0
 30 20  1  0
 31 27  2  0
M  END
$$$$
