HLY.pdb
     RDKit          3D

 31 32  0  0  1  0  0  0  0  0999 V2000
   15.3684  -16.8517    5.3449 N   0  0  0  0  0  0  0  0  0  0  0  0
   15.5981  -15.9052    6.4177 C   0  0  1  0  0  0  0  0  0  0  0  0
   14.8199  -16.3705    7.6250 C   0  0  0  0  0  0  0  0  0  0  0  0
   13.3770  -16.1617    7.3190 C   0  0  0  0  0  0  0  0  0  0  0  0
   12.4390  -17.1450    7.0824 C   0  0  0  0  0  0  0  0  0  0  0  0
   11.2389  -16.5426    6.8423 N   0  0  0  0  0  0  0  0  0  0  0  0
   11.4250  -15.2155    6.9275 C   0  0  0  0  0  0  0  0  0  0  0  0
   12.7062  -14.9995    7.2127 N   0  0  0  0  0  0  0  0  0  0  0  0
   17.0439  -15.7877    6.6728 C   0  0  0  0  0  0  0  0  0  0  0  0
   17.7934  -16.7414    6.4152 O   0  0  0  0  0  0  0  0  0  0  0  0
   19.6260  -10.6996    6.8546 C   0  0  0  0  0  0  0  0  0  0  0  0
   19.2319  -12.1255    6.5434 C   0  0  1  0  0  0  0  0  0  0  0  0
   19.7790  -12.6459    5.2652 C   0  0  0  0  0  0  0  0  0  0  0  0
   19.4955  -13.0791    7.6728 C   0  0  0  0  0  0  0  0  0  0  0  0
   19.0225  -14.4603    7.4603 C   0  0  2  0  0  0  0  0  0  0  0  0
   17.6165  -14.5925    7.2152 N   0  0  0  0  0  0  0  0  0  0  0  0
   19.4026  -15.3993    8.5491 C   0  0  0  0  0  0  0  0  0  0  0  0
   18.5042  -15.7867    9.3253 O   0  0  0  0  0  0  0  0  0  0  0  0
   20.9788  -21.7050   13.8868 O   0  0  0  0  0  0  0  0  0  0  0  0
   20.8208  -20.8002   12.8546 C   0  0  0  0  0  0  0  0  0  0  0  0
   19.7013  -20.0016   12.8376 C   0  0  0  0  0  0  0  0  0  0  0  0
   19.4981  -19.0868   11.8338 C   0  0  0  0  0  0  0  0  0  0  0  0
   20.4380  -18.9670   10.8206 C   0  0  0  0  0  0  0  0  0  0  0  0
   20.1982  -17.9741    9.7491 C   0  0  0  0  0  0  0  0  0  0  0  0
   21.0943  -16.7846    9.8419 C   0  0  2  0  0  0  0  0  0  0  0  0
   20.6994  -15.8779    8.7623 N   0  0  0  0  0  0  0  0  0  0  0  0
   22.5248  -17.0585    9.8469 C   0  0  0  0  0  0  0  0  0  0  0  0
   23.2107  -17.2033    8.6524 O   0  0  0  0  0  0  0  0  0  0  0  0
   21.5553  -19.7751   10.8520 C   0  0  0  0  0  0  0  0  0  0  0  0
   21.7751  -20.6964   11.8492 C   0  0  0  0  0  0  0  0  0  0  0  0
   23.2024  -17.1771   10.9076 O   0  0  0  0  0  0  0  0  0  0  0  0
  2  3  1  0
  2  1  1  6
  3  4  1  0
  4  5  2  0
  5  6  1  0
  7  6  1  0
  8  4  1  0
  8  7  2  0
  9 16  1  0
  9  2  1  0
 10  9  2  0
 12 11  1  1
 12 13  1  0
 12 14  1  0
 15 14  1  1
 15 16  1  0
 17 18  2  0
 17 15  1  0
 19 20  1  0
 20 21  2  0
 21 22  1  0
 23 24  1  0
 23 22  2  0
 25 26  1  0
 25 24  1  6
 26 17  1  0
 27 25  1  0
 28 27  1  0
 29 23  1  0
 30 29  2  0
 30 20  1  0
 31 27  2  0
M  END
$$$$
