HLY.pdb
     RDKit          3D

 31 32  0  0  1  0  0  0  0  0999 V2000
   23.2254  -22.2961  -10.2827 N   0  0  0  0  0  0  0  0  0  0  0  0
   22.8575  -20.9175  -10.5351 C   0  0  1  0  0  0  0  0  0  0  0  0
   21.3541  -20.8119  -10.4455 C   0  0  0  0  0  0  0  0  0  0  0  0
   20.7962  -21.5460  -11.6155 C   0  0  0  0  0  0  0  0  0  0  0  0
   21.5181  -22.1552  -12.6206 C   0  0  0  0  0  0  0  0  0  0  0  0
   20.6386  -22.7153  -13.5001 N   0  0  0  0  0  0  0  0  0  0  0  0
   19.3981  -22.4609  -13.0533 C   0  0  0  0  0  0  0  0  0  0  0  0
   19.5045  -21.7617  -11.9267 N   0  0  0  0  0  0  0  0  0  0  0  0
   23.5560  -20.0367   -9.5835 C   0  0  0  0  0  0  0  0  0  0  0  0
   23.3488  -18.8144   -9.6109 O   0  0  0  0  0  0  0  0  0  0  0  0
   25.8411  -21.5178   -4.3882 C   0  0  0  0  0  0  0  0  0  0  0  0
   25.7300  -21.3449   -5.8859 C   0  0  1  0  0  0  0  0  0  0  0  0
   25.1083  -22.4948   -6.5897 C   0  0  0  0  0  0  0  0  0  0  0  0
   25.0876  -20.0502   -6.2927 C   0  0  0  0  0  0  0  0  0  0  0  0
   25.2060  -19.7049   -7.7222 C   0  0  2  0  0  0  0  0  0  0  0  0
   24.4771  -20.5547   -8.6172 N   0  0  0  0  0  0  0  0  0  0  0  0
   26.6103  -19.6072   -8.2020 C   0  0  0  0  0  0  0  0  0  0  0  0
   27.3472  -18.7459   -7.6778 O   0  0  0  0  0  0  0  0  0  0  0  0
   30.5784  -19.4727   -3.9560 O   0  0  0  0  0  0  0  0  0  0  0  0
   30.2999  -19.7955   -5.2702 C   0  0  0  0  0  0  0  0  0  0  0  0
   30.3706  -21.1126   -5.6595 C   0  0  0  0  0  0  0  0  0  0  0  0
   30.1032  -21.4848   -6.9539 C   0  0  0  0  0  0  0  0  0  0  0  0
   29.7561  -20.5155   -7.8836 C   0  0  0  0  0  0  0  0  0  0  0  0
   29.4719  -20.9399   -9.2731 C   0  0  0  0  0  0  0  0  0  0  0  0
   28.4015  -20.1302   -9.9253 C   0  0  2  0  0  0  0  0  0  0  0  0
   27.1612  -20.4156   -9.2015 N   0  0  0  0  0  0  0  0  0  0  0  0
   28.2594  -20.2964  -11.3653 C   0  0  0  0  0  0  0  0  0  0  0  0
   29.3350  -20.0556  -12.2039 O   0  0  0  0  0  0  0  0  0  0  0  0
   29.6896  -19.1990   -7.4776 C   0  0  0  0  0  0  0  0  0  0  0  0
   29.9540  -18.8083   -6.1857 C   0  0  0  0  0  0  0  0  0  0  0  0
   27.1806  -20.6578  -11.9165 O   0  0  0  0  0  0  0  0  0  0  0  0
  2  3  1  0
  2  1  1  1
  3  4  1  0
  4  5  2  0
  5  6  1  0
  7  6  1  0
  8  4  1  0
  8  7  2  0
  9 16  1  0
  9  2  1  0
 10  9  2  0
 12 11  1  1
 12 13  1  0
 12 14  1  0
 15 14  1  1
 15 16  1  0
 17 18  2  0
 17 15  1  0
 19 20  1  0
 20 21  2  0
 21 22  1  0
 23 24  1  0
 23 22  2  0
 25 26  1  0
 25 24  1  1
 26 17  1  0
 27 25  1  0
 28 27  1  0
 29 23  1  0
 30 29  2  0
 30 20  1  0
 31 27  2  0
M  END
$$$$
