HLY.pdb
     RDKit          3D

 31 32  0  0  1  0  0  0  0  0999 V2000
   21.8149  -13.2552  -18.6175 N   0  0  0  0  0  0  0  0  0  0  0  0
   20.8976  -12.9630  -17.5346 C   0  0  1  0  0  0  0  0  0  0  0  0
   20.7434  -14.2139  -16.7033 C   0  0  0  0  0  0  0  0  0  0  0  0
   20.1365  -15.2498  -17.5852 C   0  0  0  0  0  0  0  0  0  0  0  0
   19.0417  -15.0859  -18.4082 C   0  0  0  0  0  0  0  0  0  0  0  0
   18.8051  -16.2682  -19.0460 N   0  0  0  0  0  0  0  0  0  0  0  0
   19.7306  -17.1477  -18.6301 C   0  0  0  0  0  0  0  0  0  0  0  0
   20.5207  -16.5283  -17.7575 N   0  0  0  0  0  0  0  0  0  0  0  0
   21.3960  -11.8132  -16.7607 C   0  0  0  0  0  0  0  0  0  0  0  0
   20.8388  -11.4989  -15.6983 O   0  0  0  0  0  0  0  0  0  0  0  0
   26.8201  -10.3987  -16.2817 C   0  0  0  0  0  0  0  0  0  0  0  0
   25.3538  -10.6899  -16.0572 C   0  0  1  0  0  0  0  0  0  0  0  0
   25.0031  -11.0140  -14.6514 C   0  0  0  0  0  0  0  0  0  0  0  0
   24.4422   -9.6340  -16.6125 C   0  0  0  0  0  0  0  0  0  0  0  0
   22.9987   -9.9041  -16.4717 C   0  0  2  0  0  0  0  0  0  0  0  0
   22.5164  -11.0388  -17.2027 N   0  0  0  0  0  0  0  0  0  0  0  0
   22.1353   -8.7356  -16.7897 C   0  0  0  0  0  0  0  0  0  0  0  0
   22.0161   -8.4077  -17.9888 O   0  0  0  0  0  0  0  0  0  0  0  0
   17.4515   -9.3952  -20.9079 O   0  0  0  0  0  0  0  0  0  0  0  0
   17.8948   -8.8759  -19.7067 C   0  0  0  0  0  0  0  0  0  0  0  0
   18.0341   -7.5133  -19.5838 C   0  0  0  0  0  0  0  0  0  0  0  0
   18.4711   -6.9482  -18.4111 C   0  0  0  0  0  0  0  0  0  0  0  0
   18.7770   -7.7661  -17.3331 C   0  0  0  0  0  0  0  0  0  0  0  0
   19.2460   -7.1348  -16.0789 C   0  0  0  0  0  0  0  0  0  0  0  0
   20.6894   -6.7585  -16.1170 C   0  0  2  0  0  0  0  0  0  0  0  0
   21.4477   -7.9789  -15.8354 N   0  0  0  0  0  0  0  0  0  0  0  0
   21.0845   -5.6455  -15.2646 C   0  0  0  0  0  0  0  0  0  0  0  0
   20.5320   -4.3902  -15.4570 O   0  0  0  0  0  0  0  0  0  0  0  0
   18.6321   -9.1306  -17.4724 C   0  0  0  0  0  0  0  0  0  0  0  0
   18.1958   -9.7137  -18.6391 C   0  0  0  0  0  0  0  0  0  0  0  0
   21.9284   -5.7563  -14.3297 O   0  0  0  0  0  0  0  0  0  0  0  0
  2  3  1  0
  2  1  1  6
  3  4  1  0
  4  5  2  0
  5  6  1  0
  7  6  1  0
  8  4  1  0
  8  7  2  0
  9 16  1  0
  9  2  1  0
 10  9  2  0
 12 11  1  1
 12 13  1  0
 12 14  1  0
 15 14  1  6
 15 16  1  0
 17 18  2  0
 17 15  1  0
 19 20  1  0
 20 21  2  0
 21 22  1  0
 23 24  1  0
 23 22  2  0
 25 26  1  0
 25 24  1  1
 26 17  1  0
 27 25  1  0
 28 27  1  0
 29 23  1  0
 30 29  2  0
 30 20  1  0
 31 27  2  0
M  END
$$$$
