HLY.pdb
     RDKit          3D

 31 32  0  0  1  0  0  0  0  0999 V2000
   22.8422  -10.3325  -19.6405 N   0  0  0  0  0  0  0  0  0  0  0  0
   22.3574   -8.9734  -19.7729 C   0  0  1  0  0  0  0  0  0  0  0  0
   20.8564   -8.9957  -19.6120 C   0  0  0  0  0  0  0  0  0  0  0  0
   20.3014   -9.6910  -20.8069 C   0  0  0  0  0  0  0  0  0  0  0  0
   20.0039   -9.1159  -22.0248 C   0  0  0  0  0  0  0  0  0  0  0  0
   19.5180  -10.0877  -22.8496 N   0  0  0  0  0  0  0  0  0  0  0  0
   19.5131  -11.2409  -22.1616 C   0  0  0  0  0  0  0  0  0  0  0  0
   19.9832  -10.9919  -20.9424 N   0  0  0  0  0  0  0  0  0  0  0  0
   23.0310   -8.1096  -18.7882 C   0  0  0  0  0  0  0  0  0  0  0  0
   23.1258   -8.4797  -17.6084 O   0  0  0  0  0  0  0  0  0  0  0  0
   26.9918   -6.8656  -18.6063 C   0  0  0  0  0  0  0  0  0  0  0  0
   26.6540   -5.4061  -18.4038 C   0  0  1  0  0  0  0  0  0  0  0  0
   27.6037   -4.4637  -19.0475 C   0  0  0  0  0  0  0  0  0  0  0  0
   25.2340   -5.0664  -18.7539 C   0  0  0  0  0  0  0  0  0  0  0  0
   24.2101   -5.9737  -18.2014 C   0  0  2  0  0  0  0  0  0  0  0  0
   23.5855   -6.8417  -19.1559 N   0  0  0  0  0  0  0  0  0  0  0  0
   23.1466   -5.2789  -17.4280 C   0  0  0  0  0  0  0  0  0  0  0  0
   22.3798   -4.5132  -18.0487 O   0  0  0  0  0  0  0  0  0  0  0  0
   19.2038  -10.4926  -14.4115 O   0  0  0  0  0  0  0  0  0  0  0  0
   19.5321   -9.1903  -14.7358 C   0  0  0  0  0  0  0  0  0  0  0  0
   20.0769   -8.9313  -15.9717 C   0  0  0  0  0  0  0  0  0  0  0  0
   20.4201   -7.6543  -16.3418 C   0  0  0  0  0  0  0  0  0  0  0  0
   20.2136   -6.6088  -15.4537 C   0  0  0  0  0  0  0  0  0  0  0  0
   20.5910   -5.2405  -15.8743 C   0  0  0  0  0  0  0  0  0  0  0  0
   21.8814   -4.7810  -15.2825 C   0  0  2  0  0  0  0  0  0  0  0  0
   22.9475   -5.4257  -16.0515 N   0  0  0  0  0  0  0  0  0  0  0  0
   22.0328   -4.9734  -13.8467 C   0  0  0  0  0  0  0  0  0  0  0  0
   23.0591   -5.7619  -13.3538 O   0  0  0  0  0  0  0  0  0  0  0  0
   19.6664   -6.8850  -14.2181 C   0  0  0  0  0  0  0  0  0  0  0  0
   19.3167   -8.1575  -13.8307 C   0  0  0  0  0  0  0  0  0  0  0  0
   21.2607   -4.4495  -12.9937 O   0  0  0  0  0  0  0  0  0  0  0  0
  2  3  1  0
  2  1  1  1
  3  4  1  0
  4  5  2  0
  5  6  1  0
  7  6  1  0
  8  4  1  0
  8  7  2  0
  9 16  1  0
  9  2  1  0
 10  9  2  0
 12 11  1  6
 12 13  1  0
 12 14  1  0
 15 14  1  6
 15 16  1  0
 17 18  2  0
 17 15  1  0
 19 20  1  0
 20 21  2  0
 21 22  1  0
 23 24  1  0
 23 22  2  0
 25 26  1  0
 25 24  1  6
 26 17  1  0
 27 25  1  0
 28 27  1  0
 29 23  1  0
 30 29  2  0
 30 20  1  0
 31 27  2  0
M  END
$$$$
