HLY.pdb
     RDKit          3D

 31 32  0  0  1  0  0  0  0  0999 V2000
   19.2806  -11.8483  -17.3590 N   0  0  0  0  0  0  0  0  0  0  0  0
   18.7875  -11.6210  -16.0156 C   0  0  1  0  0  0  0  0  0  0  0  0
   18.5100  -12.9653  -15.3868 C   0  0  0  0  0  0  0  0  0  0  0  0
   17.3261  -13.5369  -16.0874 C   0  0  0  0  0  0  0  0  0  0  0  0
   17.2069  -14.8191  -16.5818 C   0  0  0  0  0  0  0  0  0  0  0  0
   15.9730  -14.9457  -17.1496 N   0  0  0  0  0  0  0  0  0  0  0  0
   15.3388  -13.7701  -17.0120 C   0  0  0  0  0  0  0  0  0  0  0  0
   16.1568  -12.9360  -16.3760 N   0  0  0  0  0  0  0  0  0  0  0  0
   19.7645  -10.8200  -15.2586 C   0  0  0  0  0  0  0  0  0  0  0  0
   19.5461  -10.5471  -14.0688 O   0  0  0  0  0  0  0  0  0  0  0  0
   24.9603  -11.9365  -15.1634 C   0  0  0  0  0  0  0  0  0  0  0  0
   23.5846  -11.4270  -14.7985 C   0  0  1  0  0  0  0  0  0  0  0  0
   23.2271  -11.6025  -13.3683 C   0  0  0  0  0  0  0  0  0  0  0  0
   23.3288  -10.0185  -15.2512 C   0  0  0  0  0  0  0  0  0  0  0  0
   21.9311   -9.5597  -15.1380 C   0  0  2  0  0  0  0  0  0  0  0  0
   20.9721  -10.3417  -15.8615 N   0  0  0  0  0  0  0  0  0  0  0  0
   21.7383   -8.1285  -15.4935 C   0  0  0  0  0  0  0  0  0  0  0  0
   22.3438   -7.2724  -14.8153 O   0  0  0  0  0  0  0  0  0  0  0  0
   19.7627   -1.0732  -20.4412 O   0  0  0  0  0  0  0  0  0  0  0  0
   20.0213   -2.3362  -19.9444 C   0  0  0  0  0  0  0  0  0  0  0  0
   18.9630   -3.1366  -19.5827 C   0  0  0  0  0  0  0  0  0  0  0  0
   19.1673   -4.3995  -19.0838 C   0  0  0  0  0  0  0  0  0  0  0  0
   20.4628   -4.8751  -18.9428 C   0  0  0  0  0  0  0  0  0  0  0  0
   20.6590   -6.2396  -18.4032 C   0  0  0  0  0  0  0  0  0  0  0  0
   20.7405   -6.2740  -16.9137 C   0  0  2  0  0  0  0  0  0  0  0  0
   20.9238   -7.6769  -16.5369 N   0  0  0  0  0  0  0  0  0  0  0  0
   19.6417   -5.6415  -16.1967 C   0  0  0  0  0  0  0  0  0  0  0  0
   19.7089   -4.2992  -15.8625 O   0  0  0  0  0  0  0  0  0  0  0  0
   21.5133   -4.0602  -19.3101 C   0  0  0  0  0  0  0  0  0  0  0  0
   21.3274   -2.7930  -19.8113 C   0  0  0  0  0  0  0  0  0  0  0  0
   18.5962   -6.2608  -15.8479 O   0  0  0  0  0  0  0  0  0  0  0  0
  2  3  1  0
  2  1  1  6
  3  4  1  0
  4  5  2  0
  5  6  1  0
  7  6  1  0
  8  4  1  0
  8  7  2  0
  9 16  1  0
  9  2  1  0
 10  9  2  0
 12 11  1  1
 12 13  1  0
 12 14  1  0
 15 14  1  6
 15 16  1  0
 17 18  2  0
 17 15  1  0
 19 20  1  0
 20 21  2  0
 21 22  1  0
 23 24  1  0
 23 22  2  0
 25 26  1  0
 25 24  1  6
 26 17  1  0
 27 25  1  0
 28 27  1  0
 29 23  1  0
 30 29  2  0
 30 20  1  0
 31 27  2  0
M  END
$$$$
