HLY.pdb
     RDKit          3D

 31 32  0  0  1  0  0  0  0  0999 V2000
   27.5975  -21.5774  -14.4507 N   0  0  0  0  0  0  0  0  0  0  0  0
   27.1420  -20.4612  -13.6470 C   0  0  1  0  0  0  0  0  0  0  0  0
   26.3913  -19.5118  -14.5497 C   0  0  0  0  0  0  0  0  0  0  0  0
   27.3861  -18.9337  -15.4959 C   0  0  0  0  0  0  0  0  0  0  0  0
   27.4329  -19.1352  -16.8597 C   0  0  0  0  0  0  0  0  0  0  0  0
   28.4901  -18.4331  -17.3599 N   0  0  0  0  0  0  0  0  0  0  0  0
   29.0877  -17.8091  -16.3320 C   0  0  0  0  0  0  0  0  0  0  0  0
   28.4196  -18.1154  -15.2233 N   0  0  0  0  0  0  0  0  0  0  0  0
   26.3262  -20.9587  -12.5261 C   0  0  0  0  0  0  0  0  0  0  0  0
   25.8273  -22.0925  -12.5842 O   0  0  0  0  0  0  0  0  0  0  0  0
   27.7849  -19.3324   -7.5654 C   0  0  0  0  0  0  0  0  0  0  0  0
   27.3314  -20.1543   -8.7504 C   0  0  1  0  0  0  0  0  0  0  0  0
   27.9114  -21.5199   -8.8052 C   0  0  0  0  0  0  0  0  0  0  0  0
   25.8396  -20.1932   -8.9158 C   0  0  0  0  0  0  0  0  0  0  0  0
   25.3590  -20.6612  -10.2298 C   0  0  2  0  0  0  0  0  0  0  0  0
   26.0893  -20.1641  -11.3586 N   0  0  0  0  0  0  0  0  0  0  0  0
   23.9100  -20.4183  -10.4605 C   0  0  0  0  0  0  0  0  0  0  0  0
   23.1035  -20.8511   -9.6108 O   0  0  0  0  0  0  0  0  0  0  0  0
   18.5784  -18.6514  -17.3006 O   0  0  0  0  0  0  0  0  0  0  0  0
   19.5194  -19.0817  -16.3850 C   0  0  0  0  0  0  0  0  0  0  0  0
   19.2198  -20.1561  -15.5805 C   0  0  0  0  0  0  0  0  0  0  0  0
   20.1210  -20.6220  -14.6551 C   0  0  0  0  0  0  0  0  0  0  0  0
   21.3537  -19.9980  -14.5303 C   0  0  0  0  0  0  0  0  0  0  0  0
   22.3094  -20.5177  -13.5262 C   0  0  0  0  0  0  0  0  0  0  0  0
   22.0713  -19.9762  -12.1563 C   0  0  2  0  0  0  0  0  0  0  0  0
   23.3896  -19.7374  -11.5658 N   0  0  0  0  0  0  0  0  0  0  0  0
   21.2080  -20.7714  -11.2938 C   0  0  0  0  0  0  0  0  0  0  0  0
   19.8881  -20.4010  -11.0969 O   0  0  0  0  0  0  0  0  0  0  0  0
   21.6389  -18.9219  -15.3445 C   0  0  0  0  0  0  0  0  0  0  0  0
   20.7487  -18.4419  -16.2765 C   0  0  0  0  0  0  0  0  0  0  0  0
   21.6004  -21.8123  -10.6930 O   0  0  0  0  0  0  0  0  0  0  0  0
  2  3  1  0
  2  1  1  6
  3  4  1  0
  4  5  2  0
  5  6  1  0
  7  6  1  0
  8  4  1  0
  8  7  2  0
  9 16  1  0
  9  2  1  0
 10  9  2  0
 12 11  1  1
 12 13  1  0
 12 14  1  0
 15 14  1  1
 15 16  1  0
 17 18  2  0
 17 15  1  0
 19 20  1  0
 20 21  2  0
 21 22  1  0
 23 24  1  0
 23 22  2  0
 25 26  1  0
 25 24  1  6
 26 17  1  0
 27 25  1  0
 28 27  1  0
 29 23  1  0
 30 29  2  0
 30 20  1  0
 31 27  2  0
M  END
$$$$
