HEF.pdb
     RDKit          3D

 31 32  0  0  1  0  0  0  0  0999 V2000
    7.5037  -16.9920   19.6382 N   0  0  0  0  0  0  0  0  0  0  0  0
    8.0151  -16.1680   20.7023 C   0  0  1  0  0  0  0  0  0  0  0  0
    7.0993  -15.0008   20.9014 C   0  0  0  0  0  0  0  0  0  0  0  0
    7.7008  -13.8425   20.1914 C   0  0  0  0  0  0  0  0  0  0  0  0
    8.8724  -13.7948   19.4651 C   0  0  0  0  0  0  0  0  0  0  0  0
    9.0211  -12.5268   18.9946 N   0  0  0  0  0  0  0  0  0  0  0  0
    7.9791  -11.8010   19.4106 C   0  0  0  0  0  0  0  0  0  0  0  0
    7.1861  -12.5994   20.1314 N   0  0  0  0  0  0  0  0  0  0  0  0
    8.2212  -16.9745   21.9351 C   0  0  0  0  0  0  0  0  0  0  0  0
    7.2918  -17.6927   22.3752 O   0  0  0  0  0  0  0  0  0  0  0  0
    9.4425  -16.9507   22.6253 N   0  0  0  0  0  0  0  0  0  0  0  0
    9.7797  -17.7245   23.7872 C   0  0  1  0  0  0  0  0  0  0  0  0
   11.0262  -18.5378   23.5423 C   0  0  0  0  0  0  0  0  0  0  0  0
   10.7994  -19.6589   22.5536 C   0  0  0  0  0  0  0  0  0  0  0  0
   12.0787  -20.3637   22.3466 C   0  0  0  0  0  0  0  0  0  0  0  0
   13.1256  -19.7107   22.1673 O   0  0  0  0  0  0  0  0  0  0  0  0
   10.0543  -16.8369   24.9675 C   0  0  0  0  0  0  0  0  0  0  0  0
   10.8595  -15.8686   24.8714 O   0  0  0  0  0  0  0  0  0  0  0  0
   12.0848  -21.7437   22.3556 O   0  0  0  0  0  0  0  0  0  0  0  0
    9.4190  -17.0627   26.2175 N   0  0  0  0  0  0  0  0  0  0  0  0
    9.7837  -16.2481   27.3918 C   0  0  1  0  0  0  0  0  0  0  0  0
    8.4958  -15.7346   27.9451 C   0  0  0  0  0  0  0  0  0  0  0  0
    8.0543  -14.5639   27.1529 C   0  0  0  0  0  0  0  0  0  0  0  0
    6.9479  -14.6579   26.3067 C   0  0  0  0  0  0  0  0  0  0  0  0
    6.4971  -13.5941   25.5508 C   0  0  0  0  0  0  0  0  0  0  0  0
    7.1916  -12.3989   25.6580 C   0  0  0  0  0  0  0  0  0  0  0  0
    8.2833  -12.2522   26.4725 C   0  0  0  0  0  0  0  0  0  0  0  0
    8.6988  -13.3372   27.2081 C   0  0  0  0  0  0  0  0  0  0  0  0
   10.5763  -17.0777   28.3054 C   0  0  0  0  0  0  0  0  0  0  0  0
   11.2578  -16.5744   29.4040 O   0  0  0  0  0  0  0  0  0  0  0  0
   10.6602  -18.3130   28.1054 O   0  0  0  0  0  0  0  0  0  0  0  0
  2  1  1  6
  2  3  1  0
  3  4  1  0
  4  8  1  0
  4  5  2  0
  5  6  1  0
  7  6  1  0
  8  7  2  0
  9  2  1  0
  9 11  1  0
 10  9  2  0
 12 11  1  0
 12 13  1  6
 14 13  1  0
 15 14  1  0
 16 15  2  0
 17 12  1  0
 18 17  2  0
 19 15  1  0
 20 17  1  0
 21 20  1  0
 21 22  1  1
 23 22  1  0
 24 23  2  0
 25 24  1  0
 26 27  1  0
 26 25  2  0
 27 28  2  0
 28 23  1  0
 29 21  1  0
 30 29  1  0
 31 29  2  0
M  END
$$$$
