HEF.pdb
     RDKit          3D

 31 32  0  0  1  0  0  0  0  0999 V2000
    8.0187  -16.6537   19.7726 N   0  0  0  0  0  0  0  0  0  0  0  0
    8.4546  -15.7684   20.8210 C   0  0  1  0  0  0  0  0  0  0  0  0
    7.5052  -14.6148   20.9142 C   0  0  0  0  0  0  0  0  0  0  0  0
    7.6322  -13.8366   19.6550 C   0  0  0  0  0  0  0  0  0  0  0  0
    8.2123  -12.5998   19.4648 C   0  0  0  0  0  0  0  0  0  0  0  0
    8.0986  -12.2831   18.1464 N   0  0  0  0  0  0  0  0  0  0  0  0
    7.4682  -13.2859   17.5278 C   0  0  0  0  0  0  0  0  0  0  0  0
    7.1897  -14.2200   18.4420 N   0  0  0  0  0  0  0  0  0  0  0  0
    8.6105  -16.5104   22.1008 C   0  0  0  0  0  0  0  0  0  0  0  0
    7.6072  -17.0218   22.6533 O   0  0  0  0  0  0  0  0  0  0  0  0
    9.8654  -16.6532   22.7117 N   0  0  0  0  0  0  0  0  0  0  0  0
   10.1582  -17.4253   23.8866 C   0  0  1  0  0  0  0  0  0  0  0  0
   11.4990  -18.1041   23.7577 C   0  0  0  0  0  0  0  0  0  0  0  0
   11.7873  -19.0374   24.9117 C   0  0  0  0  0  0  0  0  0  0  0  0
   13.1007  -19.6690   24.6833 C   0  0  0  0  0  0  0  0  0  0  0  0
   14.1442  -19.0632   24.9974 O   0  0  0  0  0  0  0  0  0  0  0  0
   10.2190  -16.5517   25.1070 C   0  0  0  0  0  0  0  0  0  0  0  0
   10.9062  -15.4920   25.1067 O   0  0  0  0  0  0  0  0  0  0  0  0
   13.1422  -20.9284   24.1205 O   0  0  0  0  0  0  0  0  0  0  0  0
    9.5091  -16.8934   26.2887 N   0  0  0  0  0  0  0  0  0  0  0  0
    9.6645  -16.0784   27.5082 C   0  0  1  0  0  0  0  0  0  0  0  0
    8.2900  -15.6201   27.8677 C   0  0  0  0  0  0  0  0  0  0  0  0
    7.9454  -14.4258   27.0626 C   0  0  0  0  0  0  0  0  0  0  0  0
    7.0219  -14.5171   26.0197 C   0  0  0  0  0  0  0  0  0  0  0  0
    6.6668  -13.4320   25.2434 C   0  0  0  0  0  0  0  0  0  0  0  0
    7.2684  -12.2175   25.5358 C   0  0  0  0  0  0  0  0  0  0  0  0
    8.1808  -12.0724   26.5473 C   0  0  0  0  0  0  0  0  0  0  0  0
    8.5061  -13.1791   27.2960 C   0  0  0  0  0  0  0  0  0  0  0  0
   10.3455  -16.8872   28.5246 C   0  0  0  0  0  0  0  0  0  0  0  0
   10.8387  -16.3701   29.7138 O   0  0  0  0  0  0  0  0  0  0  0  0
   10.5050  -18.1164   28.3336 O   0  0  0  0  0  0  0  0  0  0  0  0
  2  1  1  6
  2  3  1  0
  3  4  1  0
  4  8  1  0
  4  5  2  0
  5  6  1  0
  7  6  1  0
  8  7  2  0
  9  2  1  0
  9 11  1  0
 10  9  2  0
 12 11  1  0
 12 13  1  6
 14 13  1  0
 15 14  1  0
 16 15  2  0
 17 12  1  0
 18 17  2  0
 19 15  1  0
 20 17  1  0
 21 20  1  0
 21 22  1  1
 23 22  1  0
 24 23  2  0
 25 24  1  0
 26 27  1  0
 26 25  2  0
 27 28  2  0
 28 23  1  0
 29 21  1  0
 30 29  1  0
 31 29  2  0
M  END
$$$$
