HEF.pdb
     RDKit          3D

 31 32  0  0  1  0  0  0  0  0999 V2000
    9.4075  -15.3736   20.2621 N   0  0  0  0  0  0  0  0  0  0  0  0
    8.4823  -14.7907   21.1986 C   0  0  1  0  0  0  0  0  0  0  0  0
    7.1368  -14.6777   20.5522 C   0  0  0  0  0  0  0  0  0  0  0  0
    7.3489  -14.1360   19.1850 C   0  0  0  0  0  0  0  0  0  0  0  0
    7.6774  -12.8492   18.8127 C   0  0  0  0  0  0  0  0  0  0  0  0
    7.7702  -12.8176   17.4556 N   0  0  0  0  0  0  0  0  0  0  0  0
    7.5088  -14.0423   16.9895 C   0  0  0  0  0  0  0  0  0  0  0  0
    7.2558  -14.8332   18.0365 N   0  0  0  0  0  0  0  0  0  0  0  0
    8.4648  -15.5663   22.4678 C   0  0  0  0  0  0  0  0  0  0  0  0
    7.4965  -15.4525   23.2570 O   0  0  0  0  0  0  0  0  0  0  0  0
    9.5165  -16.4307   22.8076 N   0  0  0  0  0  0  0  0  0  0  0  0
    9.6164  -17.2226   24.0015 C   0  0  1  0  0  0  0  0  0  0  0  0
   10.6397  -18.3176   23.8304 C   0  0  0  0  0  0  0  0  0  0  0  0
   10.2413  -19.3201   22.7711 C   0  0  0  0  0  0  0  0  0  0  0  0
   11.3365  -20.2964   22.6179 C   0  0  0  0  0  0  0  0  0  0  0  0
   11.8227  -20.8474   23.6252 O   0  0  0  0  0  0  0  0  0  0  0  0
   10.0530  -16.3865   25.1705 C   0  0  0  0  0  0  0  0  0  0  0  0
   11.0889  -15.6677   25.0968 O   0  0  0  0  0  0  0  0  0  0  0  0
   11.8017  -20.5778   21.3495 O   0  0  0  0  0  0  0  0  0  0  0  0
    9.3162  -16.3831   26.3846 N   0  0  0  0  0  0  0  0  0  0  0  0
    9.7610  -15.5518   27.5189 C   0  0  1  0  0  0  0  0  0  0  0  0
    8.5207  -14.9496   28.0914 C   0  0  0  0  0  0  0  0  0  0  0  0
    7.9835  -13.9435   27.1468 C   0  0  0  0  0  0  0  0  0  0  0  0
    8.7278  -12.8076   26.8230 C   0  0  0  0  0  0  0  0  0  0  0  0
    8.2708  -11.8438   25.9464 C   0  0  0  0  0  0  0  0  0  0  0  0
    7.0197  -12.0401   25.3820 C   0  0  0  0  0  0  0  0  0  0  0  0
    6.2479  -13.1359   25.6652 C   0  0  0  0  0  0  0  0  0  0  0  0
    6.7413  -14.0718   26.5439 C   0  0  0  0  0  0  0  0  0  0  0  0
   10.5351  -16.3936   28.4372 C   0  0  0  0  0  0  0  0  0  0  0  0
   10.7126  -17.7585   28.2629 O   0  0  0  0  0  0  0  0  0  0  0  0
   11.0765  -15.8772   29.4437 O   0  0  0  0  0  0  0  0  0  0  0  0
  2  1  1  6
  2  3  1  0
  3  4  1  0
  4  8  1  0
  4  5  2  0
  5  6  1  0
  7  6  1  0
  8  7  2  0
  9  2  1  0
  9 11  1  0
 10  9  2  0
 12 11  1  0
 12 13  1  6
 14 13  1  0
 15 14  1  0
 16 15  2  0
 17 12  1  0
 18 17  2  0
 19 15  1  0
 20 17  1  0
 21 20  1  0
 21 22  1  1
 23 22  1  0
 24 23  2  0
 25 24  1  0
 26 27  1  0
 26 25  2  0
 27 28  2  0
 28 23  1  0
 29 21  1  0
 30 29  1  0
 31 29  2  0
M  END
$$$$
