HEF.pdb
     RDKit          3D

 31 32  0  0  1  0  0  0  0  0999 V2000
    9.5207  -15.4218   20.1452 N   0  0  0  0  0  0  0  0  0  0  0  0
    8.5508  -14.8057   21.0127 C   0  0  1  0  0  0  0  0  0  0  0  0
    7.2524  -14.6729   20.2796 C   0  0  0  0  0  0  0  0  0  0  0  0
    7.5497  -14.0421   18.9676 C   0  0  0  0  0  0  0  0  0  0  0  0
    7.8969  -12.7337   18.7030 C   0  0  0  0  0  0  0  0  0  0  0  0
    8.0763  -12.6124   17.3596 N   0  0  0  0  0  0  0  0  0  0  0  0
    7.8496  -13.8034   16.7978 C   0  0  0  0  0  0  0  0  0  0  0  0
    7.5329  -14.6617   17.7719 N   0  0  0  0  0  0  0  0  0  0  0  0
    8.4346  -15.5627   22.2880 C   0  0  0  0  0  0  0  0  0  0  0  0
    7.5235  -15.2797   23.1023 O   0  0  0  0  0  0  0  0  0  0  0  0
    9.3290  -16.5959   22.6058 N   0  0  0  0  0  0  0  0  0  0  0  0
    9.3842  -17.3248   23.8418 C   0  0  1  0  0  0  0  0  0  0  0  0
   10.3274  -18.4964   23.7278 C   0  0  0  0  0  0  0  0  0  0  0  0
   10.3823  -19.3192   24.9950 C   0  0  0  0  0  0  0  0  0  0  0  0
   11.2908  -20.4597   24.7712 C   0  0  0  0  0  0  0  0  0  0  0  0
   11.8268  -20.6173   23.6565 O   0  0  0  0  0  0  0  0  0  0  0  0
    9.8880  -16.4572   24.9598 C   0  0  0  0  0  0  0  0  0  0  0  0
   10.9398  -15.7721   24.8192 O   0  0  0  0  0  0  0  0  0  0  0  0
   11.5265  -21.3343   25.8124 O   0  0  0  0  0  0  0  0  0  0  0  0
    9.1985  -16.3854   26.1993 N   0  0  0  0  0  0  0  0  0  0  0  0
    9.6952  -15.5054   27.2736 C   0  0  1  0  0  0  0  0  0  0  0  0
    8.4820  -14.8851   27.8835 C   0  0  0  0  0  0  0  0  0  0  0  0
    7.9607  -13.8354   26.9783 C   0  0  0  0  0  0  0  0  0  0  0  0
    8.6580  -12.6382   26.8065 C   0  0  0  0  0  0  0  0  0  0  0  0
    8.2138  -11.6318   25.9722 C   0  0  0  0  0  0  0  0  0  0  0  0
    7.0251  -11.8484   25.2922 C   0  0  0  0  0  0  0  0  0  0  0  0
    6.3012  -13.0039   25.4245 C   0  0  0  0  0  0  0  0  0  0  0  0
    6.7798  -13.9807   26.2660 C   0  0  0  0  0  0  0  0  0  0  0  0
   10.5208  -16.3045   28.1851 C   0  0  0  0  0  0  0  0  0  0  0  0
   11.3374  -15.7551   29.1630 O   0  0  0  0  0  0  0  0  0  0  0  0
   10.5074  -17.5556   28.0973 O   0  0  0  0  0  0  0  0  0  0  0  0
  2  1  1  6
  2  3  1  0
  3  4  1  0
  4  8  1  0
  4  5  2  0
  5  6  1  0
  7  6  1  0
  8  7  2  0
  9  2  1  0
  9 11  1  0
 10  9  2  0
 12 11  1  0
 12 13  1  6
 14 13  1  0
 15 14  1  0
 16 15  2  0
 17 12  1  0
 18 17  2  0
 19 15  1  0
 20 17  1  0
 21 20  1  0
 21 22  1  1
 23 22  1  0
 24 23  2  0
 25 24  1  0
 26 27  1  0
 26 25  2  0
 27 28  2  0
 28 23  1  0
 29 21  1  0
 30 29  1  0
 31 29  2  0
M  END
$$$$
