HEF.pdb
     RDKit          3D

 31 32  0  0  1  0  0  0  0  0999 V2000
    7.6562  -17.3311   19.6084 N   0  0  0  0  0  0  0  0  0  0  0  0
    7.9624  -16.3650   20.6309 C   0  0  1  0  0  0  0  0  0  0  0  0
    6.9684  -15.2478   20.5627 C   0  0  0  0  0  0  0  0  0  0  0  0
    7.7003  -14.0331   20.1197 C   0  0  0  0  0  0  0  0  0  0  0  0
    9.0351  -13.9049   19.7970 C   0  0  0  0  0  0  0  0  0  0  0  0
    9.2574  -12.6096   19.4445 N   0  0  0  0  0  0  0  0  0  0  0  0
    8.1022  -11.9451   19.5423 C   0  0  0  0  0  0  0  0  0  0  0  0
    7.1667  -12.8082   19.9494 N   0  0  0  0  0  0  0  0  0  0  0  0
    8.0261  -17.0187   21.9656 C   0  0  0  0  0  0  0  0  0  0  0  0
    7.0539  -17.6957   22.3774 O   0  0  0  0  0  0  0  0  0  0  0  0
    9.1590  -16.8946   22.7840 N   0  0  0  0  0  0  0  0  0  0  0  0
    9.3620  -17.5236   24.0589 C   0  0  1  0  0  0  0  0  0  0  0  0
   10.3581  -18.6505   23.9444 C   0  0  0  0  0  0  0  0  0  0  0  0
    9.8120  -19.8275   23.1682 C   0  0  0  0  0  0  0  0  0  0  0  0
   10.8297  -20.8954   23.1637 C   0  0  0  0  0  0  0  0  0  0  0  0
   11.8756  -20.7537   22.5000 O   0  0  0  0  0  0  0  0  0  0  0  0
    9.9089  -16.5488   25.0624 C   0  0  0  0  0  0  0  0  0  0  0  0
   10.9872  -15.9306   24.8379 O   0  0  0  0  0  0  0  0  0  0  0  0
   10.5955  -22.0379   23.9016 O   0  0  0  0  0  0  0  0  0  0  0  0
    9.2313  -16.2983   26.2851 N   0  0  0  0  0  0  0  0  0  0  0  0
    9.8273  -15.4004   27.2921 C   0  0  1  0  0  0  0  0  0  0  0  0
    8.6776  -14.7340   27.9725 C   0  0  0  0  0  0  0  0  0  0  0  0
    8.0632  -13.7531   27.0487 C   0  0  0  0  0  0  0  0  0  0  0  0
    6.8340  -13.1660   27.3543 C   0  0  0  0  0  0  0  0  0  0  0  0
    6.2232  -12.2452   26.5266 C   0  0  0  0  0  0  0  0  0  0  0  0
    6.8813  -11.9109   25.3529 C   0  0  0  0  0  0  0  0  0  0  0  0
    8.0885  -12.4568   25.0046 C   0  0  0  0  0  0  0  0  0  0  0  0
    8.6619  -13.3703   25.8578 C   0  0  0  0  0  0  0  0  0  0  0  0
   10.7019  -16.1930   28.1626 C   0  0  0  0  0  0  0  0  0  0  0  0
   11.5915  -15.6360   29.0699 O   0  0  0  0  0  0  0  0  0  0  0  0
   10.6645  -17.4453   28.1038 O   0  0  0  0  0  0  0  0  0  0  0  0
  2  1  1  6
  2  3  1  0
  3  4  1  0
  4  8  1  0
  4  5  2  0
  5  6  1  0
  7  6  1  0
  8  7  2  0
  9  2  1  0
  9 11  1  0
 10  9  2  0
 12 11  1  0
 12 13  1  6
 14 13  1  0
 15 14  1  0
 16 15  2  0
 17 12  1  0
 18 17  2  0
 19 15  1  0
 20 17  1  0
 21 20  1  0
 21 22  1  1
 23 22  1  0
 24 23  2  0
 25 24  1  0
 26 27  1  0
 26 25  2  0
 27 28  2  0
 28 23  1  0
 29 21  1  0
 30 29  1  0
 31 29  2  0
M  END
$$$$
