HEF.pdb
     RDKit          3D

 31 32  0  0  1  0  0  0  0  0999 V2000
    8.7477  -16.4746   19.5317 N   0  0  0  0  0  0  0  0  0  0  0  0
    8.5289  -15.5410   20.6056 C   0  0  1  0  0  0  0  0  0  0  0  0
    7.3262  -14.7067   20.2920 C   0  0  0  0  0  0  0  0  0  0  0  0
    7.6219  -13.9594   19.0424 C   0  0  0  0  0  0  0  0  0  0  0  0
    8.3389  -12.7910   18.8900 C   0  0  0  0  0  0  0  0  0  0  0  0
    8.3521  -12.4785   17.5658 N   0  0  0  0  0  0  0  0  0  0  0  0
    7.6667  -13.4176   16.9072 C   0  0  0  0  0  0  0  0  0  0  0  0
    7.2290  -14.3082   17.8023 N   0  0  0  0  0  0  0  0  0  0  0  0
    8.4300  -16.2549   21.9069 C   0  0  0  0  0  0  0  0  0  0  0  0
    7.3845  -16.8841   22.1971 O   0  0  0  0  0  0  0  0  0  0  0  0
    9.4886  -16.2408   22.8276 N   0  0  0  0  0  0  0  0  0  0  0  0
    9.5788  -17.0147   24.0340 C   0  0  1  0  0  0  0  0  0  0  0  0
   10.5973  -18.1172   23.8849 C   0  0  0  0  0  0  0  0  0  0  0  0
   10.2061  -19.1260   22.8289 C   0  0  0  0  0  0  0  0  0  0  0  0
   11.2090  -20.2078   22.8235 C   0  0  0  0  0  0  0  0  0  0  0  0
   11.9080  -20.4117   23.8356 O   0  0  0  0  0  0  0  0  0  0  0  0
   10.0140  -16.1627   25.1921 C   0  0  0  0  0  0  0  0  0  0  0  0
   10.9363  -15.3110   25.0541 O   0  0  0  0  0  0  0  0  0  0  0  0
   11.3508  -20.9752   21.6853 O   0  0  0  0  0  0  0  0  0  0  0  0
    9.4030  -16.2927   26.4676 N   0  0  0  0  0  0  0  0  0  0  0  0
    9.8722  -15.4735   27.6008 C   0  0  1  0  0  0  0  0  0  0  0  0
    8.6392  -14.9747   28.2788 C   0  0  0  0  0  0  0  0  0  0  0  0
    8.0102  -13.9266   27.4428 C   0  0  0  0  0  0  0  0  0  0  0  0
    8.5435  -12.6370   27.4038 C   0  0  0  0  0  0  0  0  0  0  0  0
    7.9944  -11.6278   26.6383 C   0  0  0  0  0  0  0  0  0  0  0  0
    6.8693  -11.9384   25.8898 C   0  0  0  0  0  0  0  0  0  0  0  0
    6.3054  -13.1869   25.8917 C   0  0  0  0  0  0  0  0  0  0  0  0
    6.8843  -14.1629   26.6685 C   0  0  0  0  0  0  0  0  0  0  0  0
   10.7606  -16.2934   28.4312 C   0  0  0  0  0  0  0  0  0  0  0  0
   11.0536  -17.6225   28.1617 O   0  0  0  0  0  0  0  0  0  0  0  0
   11.2978  -15.7909   29.4470 O   0  0  0  0  0  0  0  0  0  0  0  0
  2  1  1  6
  2  3  1  0
  3  4  1  0
  4  8  1  0
  4  5  2  0
  5  6  1  0
  7  6  1  0
  8  7  2  0
  9  2  1  0
  9 11  1  0
 10  9  2  0
 12 11  1  0
 12 13  1  6
 14 13  1  0
 15 14  1  0
 16 15  2  0
 17 12  1  0
 18 17  2  0
 19 15  1  0
 20 17  1  0
 21 20  1  0
 21 22  1  1
 23 22  1  0
 24 23  2  0
 25 24  1  0
 26 27  1  0
 26 25  2  0
 27 28  2  0
 28 23  1  0
 29 21  1  0
 30 29  1  0
 31 29  2  0
M  END
$$$$
