HEF.pdb
     RDKit          3D

 31 32  0  0  1  0  0  0  0  0999 V2000
    8.5001  -16.4499   19.6834 N   0  0  0  0  0  0  0  0  0  0  0  0
    8.2925  -15.4258   20.6738 C   0  0  1  0  0  0  0  0  0  0  0  0
    7.1672  -14.5413   20.2353 C   0  0  0  0  0  0  0  0  0  0  0  0
    7.4979  -14.0504   18.8725 C   0  0  0  0  0  0  0  0  0  0  0  0
    8.1097  -12.8684   18.5106 C   0  0  0  0  0  0  0  0  0  0  0  0
    8.2086  -12.8473   17.1537 N   0  0  0  0  0  0  0  0  0  0  0  0
    7.6771  -13.9770   16.6777 C   0  0  0  0  0  0  0  0  0  0  0  0
    7.2504  -14.6988   17.7183 N   0  0  0  0  0  0  0  0  0  0  0  0
    8.0796  -16.0315   22.0156 C   0  0  0  0  0  0  0  0  0  0  0  0
    7.2720  -15.5054   22.8183 O   0  0  0  0  0  0  0  0  0  0  0  0
    8.7678  -17.1889   22.4097 N   0  0  0  0  0  0  0  0  0  0  0  0
    8.7898  -17.7601   23.7271 C   0  0  1  0  0  0  0  0  0  0  0  0
    9.1707  -19.2184   23.6693 C   0  0  0  0  0  0  0  0  0  0  0  0
    9.1927  -19.8642   25.0362 C   0  0  0  0  0  0  0  0  0  0  0  0
    9.5425  -21.2881   24.8733 C   0  0  0  0  0  0  0  0  0  0  0  0
    8.7047  -22.1690   25.1499 O   0  0  0  0  0  0  0  0  0  0  0  0
    9.8015  -17.0718   24.5985 C   0  0  0  0  0  0  0  0  0  0  0  0
   10.9856  -16.8966   24.1953 O   0  0  0  0  0  0  0  0  0  0  0  0
   10.8029  -21.6132   24.4148 O   0  0  0  0  0  0  0  0  0  0  0  0
    9.4549  -16.6027   25.8934 N   0  0  0  0  0  0  0  0  0  0  0  0
   10.4664  -15.9370   26.7356 C   0  0  1  0  0  0  0  0  0  0  0  0
   10.2902  -14.4733   26.5005 C   0  0  0  0  0  0  0  0  0  0  0  0
    8.8890  -14.0949   26.7947 C   0  0  0  0  0  0  0  0  0  0  0  0
    7.8295  -14.8170   26.2423 C   0  0  0  0  0  0  0  0  0  0  0  0
    6.5076  -14.5044   26.4891 C   0  0  0  0  0  0  0  0  0  0  0  0
    6.2547  -13.4253   27.3222 C   0  0  0  0  0  0  0  0  0  0  0  0
    7.2562  -12.6830   27.8900 C   0  0  0  0  0  0  0  0  0  0  0  0
    8.5591  -13.0287   27.6177 C   0  0  0  0  0  0  0  0  0  0  0  0
   10.2822  -16.3798   28.1216 C   0  0  0  0  0  0  0  0  0  0  0  0
    9.3269  -17.3076   28.5109 O   0  0  0  0  0  0  0  0  0  0  0  0
   11.0144  -15.9095   29.0247 O   0  0  0  0  0  0  0  0  0  0  0  0
  2  1  1  6
  2  3  1  0
  3  4  1  0
  4  8  1  0
  4  5  2  0
  5  6  1  0
  7  6  1  0
  8  7  2  0
  9  2  1  0
  9 11  1  0
 10  9  2  0
 12 11  1  0
 12 13  1  6
 14 13  1  0
 15 14  1  0
 16 15  2  0
 17 12  1  0
 18 17  2  0
 19 15  1  0
 20 17  1  0
 21 20  1  0
 21 22  1  1
 23 22  1  0
 24 23  2  0
 25 24  1  0
 26 27  1  0
 26 25  2  0
 27 28  2  0
 28 23  1  0
 29 21  1  0
 30 29  1  0
 31 29  2  0
M  END
$$$$
