HEF.pdb
     RDKit          3D

 31 32  0  0  1  0  0  0  0  0999 V2000
    7.9874  -16.7810   19.9520 N   0  0  0  0  0  0  0  0  0  0  0  0
    8.5202  -15.8495   20.9119 C   0  0  1  0  0  0  0  0  0  0  0  0
    7.6145  -14.6606   20.9956 C   0  0  0  0  0  0  0  0  0  0  0  0
    7.6817  -13.9623   19.6858 C   0  0  0  0  0  0  0  0  0  0  0  0
    8.3095  -12.7734   19.3779 C   0  0  0  0  0  0  0  0  0  0  0  0
    8.1079  -12.5245   18.0555 N   0  0  0  0  0  0  0  0  0  0  0  0
    7.3781  -13.5223   17.5483 C   0  0  0  0  0  0  0  0  0  0  0  0
    7.1243  -14.3865   18.5355 N   0  0  0  0  0  0  0  0  0  0  0  0
    8.7405  -16.5179   22.2224 C   0  0  0  0  0  0  0  0  0  0  0  0
    7.7915  -17.1101   22.7898 O   0  0  0  0  0  0  0  0  0  0  0  0
    9.9972  -16.5014   22.8461 N   0  0  0  0  0  0  0  0  0  0  0  0
   10.3728  -17.2305   24.0250 C   0  0  1  0  0  0  0  0  0  0  0  0
   11.7764  -17.7672   23.8949 C   0  0  0  0  0  0  0  0  0  0  0  0
   12.2080  -18.5566   25.1100 C   0  0  0  0  0  0  0  0  0  0  0  0
   13.5793  -19.0503   24.8822 C   0  0  0  0  0  0  0  0  0  0  0  0
   14.5205  -18.2402   24.7709 O   0  0  0  0  0  0  0  0  0  0  0  0
   10.3469  -16.3466   25.2392 C   0  0  0  0  0  0  0  0  0  0  0  0
   10.9479  -15.2357   25.2398 O   0  0  0  0  0  0  0  0  0  0  0  0
   13.7884  -20.4117   24.7958 O   0  0  0  0  0  0  0  0  0  0  0  0
    9.6497  -16.7355   26.4138 N   0  0  0  0  0  0  0  0  0  0  0  0
    9.7030  -15.8900   27.6212 C   0  0  1  0  0  0  0  0  0  0  0  0
    8.2832  -15.5779   27.9609 C   0  0  0  0  0  0  0  0  0  0  0  0
    7.8239  -14.4326   27.1422 C   0  0  0  0  0  0  0  0  0  0  0  0
    8.2118  -13.1309   27.4645 C   0  0  0  0  0  0  0  0  0  0  0  0
    7.8117  -12.0321   26.7304 C   0  0  0  0  0  0  0  0  0  0  0  0
    6.9925  -12.2632   25.6359 C   0  0  0  0  0  0  0  0  0  0  0  0
    6.5822  -13.5196   25.2756 C   0  0  0  0  0  0  0  0  0  0  0  0
    7.0039  -14.5862   26.0344 C   0  0  0  0  0  0  0  0  0  0  0  0
   10.4567  -16.6048   28.6567 C   0  0  0  0  0  0  0  0  0  0  0  0
   10.8907  -16.0155   29.8354 O   0  0  0  0  0  0  0  0  0  0  0  0
   10.7385  -17.8159   28.4931 O   0  0  0  0  0  0  0  0  0  0  0  0
  2  1  1  6
  2  3  1  0
  3  4  1  0
  4  8  1  0
  4  5  2  0
  5  6  1  0
  7  6  1  0
  8  7  2  0
  9  2  1  0
  9 11  1  0
 10  9  2  0
 12 11  1  0
 12 13  1  6
 14 13  1  0
 15 14  1  0
 16 15  2  0
 17 12  1  0
 18 17  2  0
 19 15  1  0
 20 17  1  0
 21 20  1  0
 21 22  1  1
 23 22  1  0
 24 23  2  0
 25 24  1  0
 26 27  1  0
 26 25  2  0
 27 28  2  0
 28 23  1  0
 29 21  1  0
 30 29  1  0
 31 29  2  0
M  END
$$$$
