HEF.pdb
     RDKit          3D

 31 32  0  0  1  0  0  0  0  0999 V2000
   -2.2257  -23.4592   22.8519 N   0  0  0  0  0  0  0  0  0  0  0  0
   -2.6745  -22.6906   23.9836 C   0  0  1  0  0  0  0  0  0  0  0  0
   -3.0403  -21.3130   23.5262 C   0  0  0  0  0  0  0  0  0  0  0  0
   -1.7995  -20.6739   23.0167 C   0  0  0  0  0  0  0  0  0  0  0  0
   -0.7816  -20.0816   23.7347 C   0  0  0  0  0  0  0  0  0  0  0  0
    0.1497  -19.6349   22.8489 N   0  0  0  0  0  0  0  0  0  0  0  0
   -0.2677  -19.9355   21.6156 C   0  0  0  0  0  0  0  0  0  0  0  0
   -1.4431  -20.5621   21.7227 N   0  0  0  0  0  0  0  0  0  0  0  0
   -3.7813  -23.3931   24.6868 C   0  0  0  0  0  0  0  0  0  0  0  0
   -4.7874  -23.7763   24.0433 O   0  0  0  0  0  0  0  0  0  0  0  0
   -3.7269  -23.6394   26.0670 N   0  0  0  0  0  0  0  0  0  0  0  0
   -4.7788  -24.1874   26.8767 C   0  0  1  0  0  0  0  0  0  0  0  0
   -4.2659  -24.5367   28.2515 C   0  0  0  0  0  0  0  0  0  0  0  0
   -5.3543  -25.0685   29.1561 C   0  0  0  0  0  0  0  0  0  0  0  0
   -4.7405  -25.4754   30.4344 C   0  0  0  0  0  0  0  0  0  0  0  0
   -3.5166  -25.3184   30.6133 O   0  0  0  0  0  0  0  0  0  0  0  0
   -5.8939  -23.1974   27.0579 C   0  0  0  0  0  0  0  0  0  0  0  0
   -5.6446  -21.9896   27.3305 O   0  0  0  0  0  0  0  0  0  0  0  0
   -5.5450  -26.0268   31.4107 O   0  0  0  0  0  0  0  0  0  0  0  0
   -7.2521  -23.5920   26.9288 N   0  0  0  0  0  0  0  0  0  0  0  0
   -8.3304  -22.5976   27.0833 C   0  0  1  0  0  0  0  0  0  0  0  0
   -9.3884  -22.9915   26.1065 C   0  0  0  0  0  0  0  0  0  0  0  0
  -10.5595  -22.0992   26.2662 C   0  0  0  0  0  0  0  0  0  0  0  0
  -11.6438  -22.4880   27.0549 C   0  0  0  0  0  0  0  0  0  0  0  0
  -12.7559  -21.6901   27.2359 C   0  0  0  0  0  0  0  0  0  0  0  0
  -12.7665  -20.4601   26.5961 C   0  0  0  0  0  0  0  0  0  0  0  0
  -11.7298  -20.0298   25.8108 C   0  0  0  0  0  0  0  0  0  0  0  0
  -10.6412  -20.8560   25.6572 C   0  0  0  0  0  0  0  0  0  0  0  0
   -8.7465  -22.5772   28.4895 C   0  0  0  0  0  0  0  0  0  0  0  0
   -8.9196  -23.7207   29.2558 O   0  0  0  0  0  0  0  0  0  0  0  0
   -8.9650  -21.4793   29.0551 O   0  0  0  0  0  0  0  0  0  0  0  0
  2  1  1  6
  2  3  1  0
  3  4  1  0
  4  8  1  0
  4  5  2  0
  5  6  1  0
  7  6  1  0
  8  7  2  0
  9  2  1  0
  9 11  1  0
 10  9  2  0
 12 11  1  0
 12 13  1  1
 14 13  1  0
 15 14  1  0
 16 15  2  0
 17 12  1  0
 18 17  2  0
 19 15  1  0
 20 17  1  0
 21 20  1  0
 21 22  1  6
 23 22  1  0
 24 23  2  0
 25 24  1  0
 26 27  1  0
 26 25  2  0
 27 28  2  0
 28 23  1  0
 29 21  1  0
 30 29  1  0
 31 29  2  0
M  END
$$$$
