HEF.pdb
     RDKit          3D

 31 32  0  0  1  0  0  0  0  0999 V2000
    8.4837  -16.4616   19.7480 N   0  0  0  0  0  0  0  0  0  0  0  0
    8.7630  -15.5342   20.8132 C   0  0  1  0  0  0  0  0  0  0  0  0
    7.6800  -14.5019   20.8605 C   0  0  0  0  0  0  0  0  0  0  0  0
    7.6672  -13.8158   19.5427 C   0  0  0  0  0  0  0  0  0  0  0  0
    8.3546  -12.6838   19.1574 C   0  0  0  0  0  0  0  0  0  0  0  0
    8.0374  -12.4235   17.8601 N   0  0  0  0  0  0  0  0  0  0  0  0
    7.1795  -13.3592   17.4431 C   0  0  0  0  0  0  0  0  0  0  0  0
    6.9601  -14.1963   18.4614 N   0  0  0  0  0  0  0  0  0  0  0  0
    8.9475  -16.2565   22.1004 C   0  0  0  0  0  0  0  0  0  0  0  0
    7.9763  -16.8468   22.6311 O   0  0  0  0  0  0  0  0  0  0  0  0
   10.1944  -16.2936   22.7426 N   0  0  0  0  0  0  0  0  0  0  0  0
   10.5540  -17.1236   23.8579 C   0  0  1  0  0  0  0  0  0  0  0  0
   11.9932  -17.5629   23.7530 C   0  0  0  0  0  0  0  0  0  0  0  0
   12.2332  -18.4788   22.5743 C   0  0  0  0  0  0  0  0  0  0  0  0
   13.6653  -18.8312   22.5419 C   0  0  0  0  0  0  0  0  0  0  0  0
   14.0550  -19.8950   23.0626 O   0  0  0  0  0  0  0  0  0  0  0  0
   10.4111  -16.3793   25.1548 C   0  0  0  0  0  0  0  0  0  0  0  0
   10.9560  -15.2509   25.3130 O   0  0  0  0  0  0  0  0  0  0  0  0
   14.5480  -17.9645   21.9303 O   0  0  0  0  0  0  0  0  0  0  0  0
    9.6633  -16.9228   26.2329 N   0  0  0  0  0  0  0  0  0  0  0  0
    9.5169  -16.1647   27.4897 C   0  0  1  0  0  0  0  0  0  0  0  0
    8.0492  -15.9635   27.6735 C   0  0  0  0  0  0  0  0  0  0  0  0
    7.6395  -14.7066   27.0061 C   0  0  0  0  0  0  0  0  0  0  0  0
    6.4894  -14.6667   26.2158 C   0  0  0  0  0  0  0  0  0  0  0  0
    6.0658  -13.5188   25.5762 C   0  0  0  0  0  0  0  0  0  0  0  0
    6.8343  -12.3772   25.7446 C   0  0  0  0  0  0  0  0  0  0  0  0
    7.9714  -12.3611   26.5084 C   0  0  0  0  0  0  0  0  0  0  0  0
    8.3575  -13.5265   27.1280 C   0  0  0  0  0  0  0  0  0  0  0  0
   10.1910  -16.9056   28.5610 C   0  0  0  0  0  0  0  0  0  0  0  0
   10.7611  -18.1585   28.3873 O   0  0  0  0  0  0  0  0  0  0  0  0
   10.2701  -16.4026   29.7072 O   0  0  0  0  0  0  0  0  0  0  0  0
  2  1  1  6
  2  3  1  0
  3  4  1  0
  4  8  1  0
  4  5  2  0
  5  6  1  0
  7  6  1  0
  8  7  2  0
  9  2  1  0
  9 11  1  0
 10  9  2  0
 12 11  1  0
 12 13  1  6
 14 13  1  0
 15 14  1  0
 16 15  2  0
 17 12  1  0
 18 17  2  0
 19 15  1  0
 20 17  1  0
 21 20  1  0
 21 22  1  1
 23 22  1  0
 24 23  2  0
 25 24  1  0
 26 27  1  0
 26 25  2  0
 27 28  2  0
 28 23  1  0
 29 21  1  0
 30 29  1  0
 31 29  2  0
M  END
$$$$
