HEF.pdb
     RDKit          3D

 31 32  0  0  1  0  0  0  0  0999 V2000
    8.5057  -16.9062   18.9358 N   0  0  0  0  0  0  0  0  0  0  0  0
    8.6153  -15.8666   19.9258 C   0  0  1  0  0  0  0  0  0  0  0  0
    7.3604  -15.0505   19.9201 C   0  0  0  0  0  0  0  0  0  0  0  0
    7.3006  -14.3434   18.6147 C   0  0  0  0  0  0  0  0  0  0  0  0
    7.7813  -13.0911   18.2937 C   0  0  0  0  0  0  0  0  0  0  0  0
    7.5035  -12.8604   16.9818 N   0  0  0  0  0  0  0  0  0  0  0  0
    6.8694  -13.9305   16.4937 C   0  0  0  0  0  0  0  0  0  0  0  0
    6.7501  -14.8217   17.4824 N   0  0  0  0  0  0  0  0  0  0  0  0
    8.9379  -16.4450   21.2578 C   0  0  0  0  0  0  0  0  0  0  0  0
    8.1918  -17.3213   21.7564 O   0  0  0  0  0  0  0  0  0  0  0  0
   10.0681  -16.0294   21.9779 N   0  0  0  0  0  0  0  0  0  0  0  0
   10.6059  -16.6536   23.1541 C   0  0  1  0  0  0  0  0  0  0  0  0
   12.1038  -16.4855   23.2089 C   0  0  0  0  0  0  0  0  0  0  0  0
   12.7286  -17.2448   24.3574 C   0  0  0  0  0  0  0  0  0  0  0  0
   14.1884  -17.0365   24.3145 C   0  0  0  0  0  0  0  0  0  0  0  0
   14.7235  -16.2273   25.0978 O   0  0  0  0  0  0  0  0  0  0  0  0
   10.0441  -16.0328   24.4012 C   0  0  0  0  0  0  0  0  0  0  0  0
    9.8473  -14.7869   24.4678 O   0  0  0  0  0  0  0  0  0  0  0  0
   14.9335  -17.7495   23.3975 O   0  0  0  0  0  0  0  0  0  0  0  0
    9.7216  -16.8268   25.5337 N   0  0  0  0  0  0  0  0  0  0  0  0
    9.2046  -16.1921   26.7607 C   0  0  1  0  0  0  0  0  0  0  0  0
    7.7789  -15.8554   26.4735 C   0  0  0  0  0  0  0  0  0  0  0  0
    7.6446  -14.3895   26.3116 C   0  0  0  0  0  0  0  0  0  0  0  0
    7.3952  -13.8357   25.0547 C   0  0  0  0  0  0  0  0  0  0  0  0
    7.2596  -12.4764   24.8543 C   0  0  0  0  0  0  0  0  0  0  0  0
    7.3813  -11.6552   25.9648 C   0  0  0  0  0  0  0  0  0  0  0  0
    7.6260  -12.1459   27.2201 C   0  0  0  0  0  0  0  0  0  0  0  0
    7.7543  -13.5063   27.3752 C   0  0  0  0  0  0  0  0  0  0  0  0
    9.4221  -17.1080   27.8853 C   0  0  0  0  0  0  0  0  0  0  0  0
   10.0439  -18.3421   27.7615 O   0  0  0  0  0  0  0  0  0  0  0  0
    9.0340  -16.7832   29.0328 O   0  0  0  0  0  0  0  0  0  0  0  0
  2  1  1  6
  2  3  1  0
  3  4  1  0
  4  8  1  0
  4  5  2  0
  5  6  1  0
  7  6  1  0
  8  7  2  0
  9  2  1  0
  9 11  1  0
 10  9  2  0
 12 11  1  0
 12 13  1  1
 14 13  1  0
 15 14  1  0
 16 15  2  0
 17 12  1  0
 18 17  2  0
 19 15  1  0
 20 17  1  0
 21 20  1  0
 21 22  1  6
 23 22  1  0
 24 23  2  0
 25 24  1  0
 26 27  1  0
 26 25  2  0
 27 28  2  0
 28 23  1  0
 29 21  1  0
 30 29  1  0
 31 29  2  0
M  END
$$$$
