HEF.pdb
     RDKit          3D

 31 32  0  0  1  0  0  0  0  0999 V2000
    7.8181  -16.7248   20.2657 N   0  0  0  0  0  0  0  0  0  0  0  0
    8.5132  -15.7816   21.1024 C   0  0  1  0  0  0  0  0  0  0  0  0
    7.7349  -14.5039   21.1514 C   0  0  0  0  0  0  0  0  0  0  0  0
    7.8102  -13.8898   19.8006 C   0  0  0  0  0  0  0  0  0  0  0  0
    8.3193  -12.6585   19.4443 C   0  0  0  0  0  0  0  0  0  0  0  0
    8.1796  -12.5221   18.0978 N   0  0  0  0  0  0  0  0  0  0  0  0
    7.6020  -13.6294   17.6226 C   0  0  0  0  0  0  0  0  0  0  0  0
    7.3818  -14.4507   18.6535 N   0  0  0  0  0  0  0  0  0  0  0  0
    8.7739  -16.3667   22.4450 C   0  0  0  0  0  0  0  0  0  0  0  0
    7.8133  -16.7110   23.1743 O   0  0  0  0  0  0  0  0  0  0  0  0
   10.0819  -16.5440   22.9207 N   0  0  0  0  0  0  0  0  0  0  0  0
   10.4623  -17.1821   24.1496 C   0  0  1  0  0  0  0  0  0  0  0  0
   11.8505  -17.7621   24.0414 C   0  0  0  0  0  0  0  0  0  0  0  0
   12.2357  -18.5696   25.2601 C   0  0  0  0  0  0  0  0  0  0  0  0
   12.5869  -19.9341   24.8231 C   0  0  0  0  0  0  0  0  0  0  0  0
   13.7461  -20.1838   24.4379 O   0  0  0  0  0  0  0  0  0  0  0  0
   10.4793  -16.2005   25.2865 C   0  0  0  0  0  0  0  0  0  0  0  0
   11.1678  -15.1441   25.2147 O   0  0  0  0  0  0  0  0  0  0  0  0
   11.6124  -20.9109   24.8509 O   0  0  0  0  0  0  0  0  0  0  0  0
    9.7255  -16.4338   26.4673 N   0  0  0  0  0  0  0  0  0  0  0  0
    9.8888  -15.5506   27.6373 C   0  0  1  0  0  0  0  0  0  0  0  0
    8.5068  -15.1714   28.0553 C   0  0  0  0  0  0  0  0  0  0  0  0
    8.0034  -14.0982   27.1678 C   0  0  0  0  0  0  0  0  0  0  0  0
    8.5497  -12.8149   27.2280 C   0  0  0  0  0  0  0  0  0  0  0  0
    8.1159  -11.7830   26.4198 C   0  0  0  0  0  0  0  0  0  0  0  0
    7.0960  -12.0637   25.5235 C   0  0  0  0  0  0  0  0  0  0  0  0
    6.5246  -13.3047   25.4234 C   0  0  0  0  0  0  0  0  0  0  0  0
    6.9867  -14.3041   26.2474 C   0  0  0  0  0  0  0  0  0  0  0  0
   10.6814  -16.2589   28.6478 C   0  0  0  0  0  0  0  0  0  0  0  0
   11.1364  -17.5604   28.4933 O   0  0  0  0  0  0  0  0  0  0  0  0
   10.9778  -15.6801   29.7202 O   0  0  0  0  0  0  0  0  0  0  0  0
  2  1  1  6
  2  3  1  0
  3  4  1  0
  4  8  1  0
  4  5  2  0
  5  6  1  0
  7  6  1  0
  8  7  2  0
  9  2  1  0
  9 11  1  0
 10  9  2  0
 12 11  1  0
 12 13  1  6
 14 13  1  0
 15 14  1  0
 16 15  2  0
 17 12  1  0
 18 17  2  0
 19 15  1  0
 20 17  1  0
 21 20  1  0
 21 22  1  1
 23 22  1  0
 24 23  2  0
 25 24  1  0
 26 27  1  0
 26 25  2  0
 27 28  2  0
 28 23  1  0
 29 21  1  0
 30 29  1  0
 31 29  2  0
M  END
$$$$
