HEF.pdb
     RDKit          3D

 31 32  0  0  1  0  0  0  0  0999 V2000
    7.7087  -17.3294   18.2910 N   0  0  0  0  0  0  0  0  0  0  0  0
    8.6686  -16.6029   19.0806 C   0  0  1  0  0  0  0  0  0  0  0  0
    8.2436  -15.1705   19.1725 C   0  0  0  0  0  0  0  0  0  0  0  0
    8.3455  -14.5921   17.8077 C   0  0  0  0  0  0  0  0  0  0  0  0
    8.7648  -15.2041   16.6449 C   0  0  0  0  0  0  0  0  0  0  0  0
    8.6899  -14.2893   15.6406 N   0  0  0  0  0  0  0  0  0  0  0  0
    8.2393  -13.1406   16.1534 C   0  0  0  0  0  0  0  0  0  0  0  0
    8.0329  -13.3290   17.4602 N   0  0  0  0  0  0  0  0  0  0  0  0
    8.8523  -17.2510   20.4069 C   0  0  0  0  0  0  0  0  0  0  0  0
    7.8551  -17.4927   21.1283 O   0  0  0  0  0  0  0  0  0  0  0  0
   10.1273  -17.6017   20.8758 N   0  0  0  0  0  0  0  0  0  0  0  0
   10.4859  -17.8866   22.2368 C   0  0  1  0  0  0  0  0  0  0  0  0
   11.9511  -18.2292   22.3413 C   0  0  0  0  0  0  0  0  0  0  0  0
   12.3832  -18.4900   23.7664 C   0  0  0  0  0  0  0  0  0  0  0  0
   13.7990  -18.9043   23.7558 C   0  0  0  0  0  0  0  0  0  0  0  0
   14.3723  -19.1838   24.8271 O   0  0  0  0  0  0  0  0  0  0  0  0
   10.2449  -16.6960   23.1205 C   0  0  0  0  0  0  0  0  0  0  0  0
   10.6588  -15.5509   22.7850 O   0  0  0  0  0  0  0  0  0  0  0  0
   14.4613  -18.9718   22.5470 O   0  0  0  0  0  0  0  0  0  0  0  0
    9.5492  -16.8263   24.3518 N   0  0  0  0  0  0  0  0  0  0  0  0
    9.2318  -15.6298   25.1537 C   0  0  1  0  0  0  0  0  0  0  0  0
    8.0289  -15.0198   24.5138 C   0  0  0  0  0  0  0  0  0  0  0  0
    7.5848  -13.8561   25.3147 C   0  0  0  0  0  0  0  0  0  0  0  0
    8.3292  -12.6751   25.3209 C   0  0  0  0  0  0  0  0  0  0  0  0
    7.9546  -11.5635   26.0491 C   0  0  0  0  0  0  0  0  0  0  0  0
    6.7885  -11.6548   26.7935 C   0  0  0  0  0  0  0  0  0  0  0  0
    6.0210  -12.7892   26.8232 C   0  0  0  0  0  0  0  0  0  0  0  0
    6.4306  -13.8736   26.0832 C   0  0  0  0  0  0  0  0  0  0  0  0
    9.0633  -16.0384   26.5522 C   0  0  0  0  0  0  0  0  0  0  0  0
    9.4080  -15.2393   27.6327 O   0  0  0  0  0  0  0  0  0  0  0  0
    8.5841  -17.1674   26.8143 O   0  0  0  0  0  0  0  0  0  0  0  0
  2  1  1  6
  2  3  1  0
  3  4  1  0
  4  8  1  0
  4  5  2  0
  5  6  1  0
  7  6  1  0
  8  7  2  0
  9  2  1  0
  9 11  1  0
 10  9  2  0
 12 11  1  0
 12 13  1  6
 14 13  1  0
 15 14  1  0
 16 15  2  0
 17 12  1  0
 18 17  2  0
 19 15  1  0
 20 17  1  0
 21 20  1  0
 21 22  1  6
 23 22  1  0
 24 23  2  0
 25 24  1  0
 26 27  1  0
 26 25  2  0
 27 28  2  0
 28 23  1  0
 29 21  1  0
 30 29  1  0
 31 29  2  0
M  END
$$$$
