HEF.pdb
     RDKit          3D

 31 32  0  0  1  0  0  0  0  0999 V2000
    7.8138  -17.4567   19.1720 N   0  0  0  0  0  0  0  0  0  0  0  0
    8.2875  -16.6149   20.2396 C   0  0  1  0  0  0  0  0  0  0  0  0
    7.2790  -15.5397   20.4998 C   0  0  0  0  0  0  0  0  0  0  0  0
    7.6604  -14.3676   19.6702 C   0  0  0  0  0  0  0  0  0  0  0  0
    8.7421  -14.2289   18.8258 C   0  0  0  0  0  0  0  0  0  0  0  0
    8.6856  -12.9862   18.2747 N   0  0  0  0  0  0  0  0  0  0  0  0
    7.6056  -12.3636   18.7559 C   0  0  0  0  0  0  0  0  0  0  0  0
    6.9910  -13.2013   19.5965 N   0  0  0  0  0  0  0  0  0  0  0  0
    8.6084  -17.4279   21.4432 C   0  0  0  0  0  0  0  0  0  0  0  0
    8.1977  -18.6101   21.5271 O   0  0  0  0  0  0  0  0  0  0  0  0
    9.3667  -16.8988   22.4985 N   0  0  0  0  0  0  0  0  0  0  0  0
    9.8800  -17.6246   23.6263 C   0  0  1  0  0  0  0  0  0  0  0  0
   10.7944  -18.7355   23.1735 C   0  0  0  0  0  0  0  0  0  0  0  0
   11.5743  -18.3713   21.9306 C   0  0  0  0  0  0  0  0  0  0  0  0
   12.6828  -19.3325   21.7775 C   0  0  0  0  0  0  0  0  0  0  0  0
   12.8382  -20.2403   22.6180 O   0  0  0  0  0  0  0  0  0  0  0  0
   10.6825  -16.7291   24.5265 C   0  0  0  0  0  0  0  0  0  0  0  0
   11.9359  -16.8587   24.6125 O   0  0  0  0  0  0  0  0  0  0  0  0
   13.5304  -19.2009   20.6964 O   0  0  0  0  0  0  0  0  0  0  0  0
   10.0554  -15.7179   25.3020 N   0  0  0  0  0  0  0  0  0  0  0  0
    9.5275  -16.0329   26.6428 C   0  0  1  0  0  0  0  0  0  0  0  0
    8.0438  -15.9089   26.5340 C   0  0  0  0  0  0  0  0  0  0  0  0
    7.6677  -14.4770   26.5709 C   0  0  0  0  0  0  0  0  0  0  0  0
    6.3256  -14.0988   26.6372 C   0  0  0  0  0  0  0  0  0  0  0  0
    5.9260  -12.7778   26.6763 C   0  0  0  0  0  0  0  0  0  0  0  0
    6.9205  -11.8120   26.6469 C   0  0  0  0  0  0  0  0  0  0  0  0
    8.2519  -12.1280   26.5817 C   0  0  0  0  0  0  0  0  0  0  0  0
    8.6061  -13.4562   26.5445 C   0  0  0  0  0  0  0  0  0  0  0  0
   10.0224  -17.3556   27.0387 C   0  0  0  0  0  0  0  0  0  0  0  0
   10.6049  -17.6207   28.2697 O   0  0  0  0  0  0  0  0  0  0  0  0
    9.9270  -18.3174   26.2395 O   0  0  0  0  0  0  0  0  0  0  0  0
  2  1  1  6
  2  3  1  0
  3  4  1  0
  4  8  1  0
  4  5  2  0
  5  6  1  0
  7  6  1  0
  8  7  2  0
  9  2  1  0
  9 11  1  0
 10  9  2  0
 12 11  1  0
 12 13  1  6
 14 13  1  0
 15 14  1  0
 16 15  2  0
 17 12  1  0
 18 17  2  0
 19 15  1  0
 20 17  1  0
 21 20  1  0
 21 22  1  6
 23 22  1  0
 24 23  2  0
 25 24  1  0
 26 27  1  0
 26 25  2  0
 27 28  2  0
 28 23  1  0
 29 21  1  0
 30 29  1  0
 31 29  2  0
M  END
$$$$
