HEF.pdb
     RDKit          3D

 31 32  0  0  1  0  0  0  0  0999 V2000
    8.7408  -16.1128   20.5789 N   0  0  0  0  0  0  0  0  0  0  0  0
    8.0150  -15.0277   21.1859 C   0  0  1  0  0  0  0  0  0  0  0  0
    6.9331  -14.5797   20.2534 C   0  0  0  0  0  0  0  0  0  0  0  0
    7.5823  -14.2167   18.9672 C   0  0  0  0  0  0  0  0  0  0  0  0
    8.2674  -13.0634   18.6466 C   0  0  0  0  0  0  0  0  0  0  0  0
    8.6884  -13.1721   17.3573 N   0  0  0  0  0  0  0  0  0  0  0  0
    8.2820  -14.3531   16.8823 C   0  0  0  0  0  0  0  0  0  0  0  0
    7.6159  -14.9789   17.8573 N   0  0  0  0  0  0  0  0  0  0  0  0
    7.5117  -15.4220   22.5291 C   0  0  0  0  0  0  0  0  0  0  0  0
    6.7344  -14.6612   23.1538 O   0  0  0  0  0  0  0  0  0  0  0  0
    7.8898  -16.6368   23.1207 N   0  0  0  0  0  0  0  0  0  0  0  0
    7.5953  -17.0596   24.4611 C   0  0  1  0  0  0  0  0  0  0  0  0
    7.6882  -18.5605   24.5788 C   0  0  0  0  0  0  0  0  0  0  0  0
    7.3849  -19.0501   25.9767 C   0  0  0  0  0  0  0  0  0  0  0  0
    7.4592  -20.5234   25.9809 C   0  0  0  0  0  0  0  0  0  0  0  0
    6.4108  -21.1982   25.9708 O   0  0  0  0  0  0  0  0  0  0  0  0
    8.5744  -16.4767   25.4399 C   0  0  0  0  0  0  0  0  0  0  0  0
    9.8008  -16.3912   25.1503 O   0  0  0  0  0  0  0  0  0  0  0  0
    8.7012  -21.1249   25.9972 O   0  0  0  0  0  0  0  0  0  0  0  0
    8.1488  -16.0092   26.7116 N   0  0  0  0  0  0  0  0  0  0  0  0
    9.1189  -15.3968   27.6386 C   0  0  1  0  0  0  0  0  0  0  0  0
    8.3489  -14.3858   28.4219 C   0  0  0  0  0  0  0  0  0  0  0  0
    7.7571  -13.3944   27.4946 C   0  0  0  0  0  0  0  0  0  0  0  0
    6.4117  -13.4790   27.1319 C   0  0  0  0  0  0  0  0  0  0  0  0
    5.8146  -12.5775   26.2734 C   0  0  0  0  0  0  0  0  0  0  0  0
    6.6088  -11.5595   25.7681 C   0  0  0  0  0  0  0  0  0  0  0  0
    7.9339  -11.4303   26.0909 C   0  0  0  0  0  0  0  0  0  0  0  0
    8.4888  -12.3501   26.9496 C   0  0  0  0  0  0  0  0  0  0  0  0
    9.7450  -16.4627   28.4278 C   0  0  0  0  0  0  0  0  0  0  0  0
    9.4349  -17.8074   28.2848 O   0  0  0  0  0  0  0  0  0  0  0  0
   10.6109  -16.1706   29.2867 O   0  0  0  0  0  0  0  0  0  0  0  0
  2  1  1  6
  2  3  1  0
  3  4  1  0
  4  8  1  0
  4  5  2  0
  5  6  1  0
  7  6  1  0
  8  7  2  0
  9  2  1  0
  9 11  1  0
 10  9  2  0
 12 11  1  0
 12 13  1  6
 14 13  1  0
 15 14  1  0
 16 15  2  0
 17 12  1  0
 18 17  2  0
 19 15  1  0
 20 17  1  0
 21 20  1  0
 21 22  1  1
 23 22  1  0
 24 23  2  0
 25 24  1  0
 26 27  1  0
 26 25  2  0
 27 28  2  0
 28 23  1  0
 29 21  1  0
 30 29  1  0
 31 29  2  0
M  END
$$$$
