YIY.pdb
     RDKit          3D

 33 34  0  0  1  0  0  0  0  0999 V2000
   23.0798  -17.7937  -18.3351 O   0  0  0  0  0  0  0  0  0  0  0  0
   23.3123  -18.3919  -17.0883 C   0  0  0  0  0  0  0  0  0  0  0  0
   23.4797  -17.6366  -15.9483 C   0  0  0  0  0  0  0  0  0  0  0  0
   23.7090  -18.2532  -14.7238 C   0  0  0  0  0  0  0  0  0  0  0  0
   23.7760  -19.6259  -14.6085 C   0  0  0  0  0  0  0  0  0  0  0  0
   24.0190  -20.2269  -13.3001 C   0  0  0  0  0  0  0  0  0  0  0  0
   25.4801  -20.3294  -12.9414 C   0  0  2  0  0  0  0  0  0  0  0  0
   26.1761  -21.2633  -13.8065 N   0  0  0  0  0  0  0  0  0  0  0  0
   25.5325  -20.9230  -11.5587 C   0  0  0  0  0  0  0  0  0  0  0  0
   25.4259  -22.1798  -11.4907 O   0  0  0  0  0  0  0  0  0  0  0  0
   23.6039  -20.3500  -15.7697 C   0  0  0  0  0  0  0  0  0  0  0  0
   23.3758  -19.7486  -16.9901 C   0  0  0  0  0  0  0  0  0  0  0  0
   27.7581  -19.7905   -5.9457 C   0  0  0  0  0  0  0  0  0  0  0  0
   26.7658  -20.4878   -6.7992 C   0  0  0  0  0  0  0  0  0  0  0  0
   26.5657  -20.0595   -8.1851 C   0  0  2  0  0  0  0  0  0  0  0  0
   26.2850  -18.5399   -8.1423 C   0  0  0  0  0  0  0  0  0  0  0  0
   25.6064  -20.7603   -9.0375 C   0  0  2  0  0  0  0  0  0  0  0  0
   25.6874  -20.1660  -10.4092 N   0  0  0  0  0  0  0  0  0  0  0  0
   24.2030  -20.6422   -8.6900 C   0  0  0  0  0  0  0  0  0  0  0  0
   23.4799  -19.7275   -9.2487 O   0  0  0  0  0  0  0  0  0  0  0  0
   16.4158  -23.4682  -10.4459 O   0  0  0  0  0  0  0  0  0  0  0  0
   17.7243  -23.1174  -10.1894 C   0  0  0  0  0  0  0  0  0  0  0  0
   18.2172  -21.8418  -10.4078 C   0  0  0  0  0  0  0  0  0  0  0  0
   19.5282  -21.5056  -10.1467 C   0  0  0  0  0  0  0  0  0  0  0  0
   20.3950  -22.4362   -9.6567 C   0  0  0  0  0  0  0  0  0  0  0  0
   21.8073  -22.1275   -9.3653 C   0  0  0  0  0  0  0  0  0  0  0  0
   22.0311  -21.6110   -7.9426 C   0  0  2  0  0  0  0  0  0  0  0  0
   23.4644  -21.4552   -7.7725 N   0  0  0  0  0  0  0  0  0  0  0  0
   21.4517  -22.5267   -6.9816 C   0  0  0  0  0  0  0  0  0  0  0  0
   20.3164  -22.3808   -6.4892 O   0  0  0  0  0  0  0  0  0  0  0  0
   19.9407  -23.7148   -9.4270 C   0  0  0  0  0  0  0  0  0  0  0  0
   18.6206  -24.0582   -9.6885 C   0  0  0  0  0  0  0  0  0  0  0  0
   22.1548  -23.6555   -6.5450 O   0  0  0  0  0  0  0  0  0  0  0  0
  2 12  2  0
  2  1  1  0
  3  2  1  0
  4  5  1  0
  4  3  2  0
  5 11  2  0
  6  5  1  0
  7  6  1  0
  7  8  1  6
  9  7  1  0
 10  9  2  0
 11 12  1  0
 13 14  1  0
 14 15  1  0
 15 17  1  0
 15 16  1  1
 17 19  1  0
 17 18  1  6
 18  9  1  0
 19 28  1  0
 20 19  2  0
 22 21  1  0
 23 22  2  0
 24 23  1  0
 25 24  2  0
 25 31  1  0
 26 25  1  0
 27 29  1  0
 27 26  1  6
 28 27  1  0
 29 30  2  0
 29 33  1  0
 31 32  2  0
 32 22  1  0
M  END
$$$$
