YIY.pdb
     RDKit          3D

 33 34  0  0  1  0  0  0  0  0999 V2000
   14.2513  -16.4500  -16.8070 O   0  0  0  0  0  0  0  0  0  0  0  0
   14.8667  -15.3290  -16.2316 C   0  0  0  0  0  0  0  0  0  0  0  0
   14.4807  -14.0483  -16.5612 C   0  0  0  0  0  0  0  0  0  0  0  0
   15.1063  -12.9531  -15.9769 C   0  0  0  0  0  0  0  0  0  0  0  0
   16.1229  -13.1083  -15.0579 C   0  0  0  0  0  0  0  0  0  0  0  0
   16.7493  -11.9267  -14.4717 C   0  0  0  0  0  0  0  0  0  0  0  0
   17.7291  -11.2407  -15.3899 C   0  0  2  0  0  0  0  0  0  0  0  0
   18.9065  -12.0573  -15.6174 N   0  0  0  0  0  0  0  0  0  0  0  0
   18.2062  -10.0160  -14.6556 C   0  0  0  0  0  0  0  0  0  0  0  0
   19.1897  -10.1825  -13.8807 O   0  0  0  0  0  0  0  0  0  0  0  0
   16.4832  -14.4041  -14.7519 C   0  0  0  0  0  0  0  0  0  0  0  0
   15.8692  -15.4981  -15.3257 C   0  0  0  0  0  0  0  0  0  0  0  0
   19.7678   -5.7309  -17.1345 C   0  0  0  0  0  0  0  0  0  0  0  0
   19.4840   -6.7635  -16.1085 C   0  0  0  0  0  0  0  0  0  0  0  0
   18.4327   -6.5360  -15.1150 C   0  0  2  0  0  0  0  0  0  0  0  0
   18.7182   -5.1572  -14.4767 C   0  0  0  0  0  0  0  0  0  0  0  0
   18.1509   -7.5508  -14.1006 C   0  0  2  0  0  0  0  0  0  0  0  0
   17.6250   -8.7668  -14.7978 N   0  0  0  0  0  0  0  0  0  0  0  0
   17.1261   -7.2410  -13.1219 C   0  0  0  0  0  0  0  0  0  0  0  0
   15.8820   -7.2470  -13.4738 O   0  0  0  0  0  0  0  0  0  0  0  0
   11.4097   -6.6439   -6.6487 O   0  0  0  0  0  0  0  0  0  0  0  0
   12.5308   -6.8673   -7.4197 C   0  0  0  0  0  0  0  0  0  0  0  0
   13.8029   -6.4894   -7.0236 C   0  0  0  0  0  0  0  0  0  0  0  0
   14.9148   -6.7193   -7.8053 C   0  0  0  0  0  0  0  0  0  0  0  0
   14.7931   -7.3368   -9.0141 C   0  0  0  0  0  0  0  0  0  0  0  0
   15.9506   -7.6015   -9.8886 C   0  0  0  0  0  0  0  0  0  0  0  0
   16.1785   -6.5091  -10.9354 C   0  0  2  0  0  0  0  0  0  0  0  0
   17.3137   -6.9264  -11.7383 N   0  0  0  0  0  0  0  0  0  0  0  0
   16.3936   -5.2322  -10.2864 C   0  0  0  0  0  0  0  0  0  0  0  0
   17.5067   -4.8434   -9.8835 O   0  0  0  0  0  0  0  0  0  0  0  0
   13.5441   -7.7267   -9.4409 C   0  0  0  0  0  0  0  0  0  0  0  0
   12.4210   -7.4973   -8.6568 C   0  0  0  0  0  0  0  0  0  0  0  0
   15.3339   -4.3429  -10.0737 O   0  0  0  0  0  0  0  0  0  0  0  0
  2 12  2  0
  2  1  1  0
  3  2  1  0
  4  5  1  0
  4  3  2  0
  5 11  2  0
  6  5  1  0
  7  6  1  0
  7  8  1  1
  9  7  1  0
 10  9  2  0
 11 12  1  0
 13 14  1  0
 14 15  1  0
 15 17  1  0
 15 16  1  1
 17 19  1  0
 17 18  1  6
 18  9  1  0
 19 28  1  0
 20 19  2  0
 22 21  1  0
 23 22  2  0
 24 23  1  0
 25 24  2  0
 25 31  1  0
 26 25  1  0
 27 29  1  0
 27 26  1  1
 28 27  1  0
 29 30  2  0
 29 33  1  0
 31 32  2  0
 32 22  1  0
M  END
$$$$
