YIY.pdb
     RDKit          3D

 33 34  0  0  1  0  0  0  0  0999 V2000
   15.8353  -23.4686  -13.0294 O   0  0  0  0  0  0  0  0  0  0  0  0
   17.1835  -23.0932  -13.1167 C   0  0  0  0  0  0  0  0  0  0  0  0
   17.7477  -22.7116  -14.3141 C   0  0  0  0  0  0  0  0  0  0  0  0
   19.0869  -22.3437  -14.3748 C   0  0  0  0  0  0  0  0  0  0  0  0
   19.8879  -22.3479  -13.2521 C   0  0  0  0  0  0  0  0  0  0  0  0
   21.2891  -21.9533  -13.3666 C   0  0  0  0  0  0  0  0  0  0  0  0
   21.6270  -20.6901  -12.6156 C   0  0  2  0  0  0  0  0  0  0  0  0
   20.9900  -19.5305  -13.2111 N   0  0  0  0  0  0  0  0  0  0  0  0
   23.1089  -20.4847  -12.7845 C   0  0  0  0  0  0  0  0  0  0  0  0
   23.4553  -19.6347  -13.6523 O   0  0  0  0  0  0  0  0  0  0  0  0
   19.2899  -22.7354  -12.0711 C   0  0  0  0  0  0  0  0  0  0  0  0
   17.9620  -23.1023  -11.9994 C   0  0  0  0  0  0  0  0  0  0  0  0
   25.7932  -20.2344   -8.1908 C   0  0  0  0  0  0  0  0  0  0  0  0
   25.3665  -20.0625   -9.6007 C   0  0  0  0  0  0  0  0  0  0  0  0
   25.9842  -20.8706  -10.6541 C   0  0  2  0  0  0  0  0  0  0  0  0
   27.5081  -20.6269  -10.5623 C   0  0  0  0  0  0  0  0  0  0  0  0
   25.5049  -20.7692  -12.0318 C   0  0  2  0  0  0  0  0  0  0  0  0
   24.0624  -21.1694  -12.0493 N   0  0  0  0  0  0  0  0  0  0  0  0
   26.1200  -21.6435  -13.0123 C   0  0  0  0  0  0  0  0  0  0  0  0
   26.5361  -22.8142  -12.6544 O   0  0  0  0  0  0  0  0  0  0  0  0
   24.4651  -27.6802  -18.6029 O   0  0  0  0  0  0  0  0  0  0  0  0
   24.5923  -26.6001  -17.7553 C   0  0  0  0  0  0  0  0  0  0  0  0
   23.8731  -25.4279  -17.9185 C   0  0  0  0  0  0  0  0  0  0  0  0
   24.0108  -24.3560  -17.0629 C   0  0  0  0  0  0  0  0  0  0  0  0
   24.8751  -24.4189  -16.0110 C   0  0  0  0  0  0  0  0  0  0  0  0
   25.0613  -23.2983  -15.0706 C   0  0  0  0  0  0  0  0  0  0  0  0
   26.3198  -22.4755  -15.3537 C   0  0  2  0  0  0  0  0  0  0  0  0
   26.3273  -21.3782  -14.4033 N   0  0  0  0  0  0  0  0  0  0  0  0
   26.3214  -22.0221  -16.7293 C   0  0  0  0  0  0  0  0  0  0  0  0
   26.9184  -22.6142  -17.6488 O   0  0  0  0  0  0  0  0  0  0  0  0
   25.6069  -25.5682  -15.8172 C   0  0  0  0  0  0  0  0  0  0  0  0
   25.4715  -26.6508  -16.6766 C   0  0  0  0  0  0  0  0  0  0  0  0
   25.6322  -20.8644  -17.1087 O   0  0  0  0  0  0  0  0  0  0  0  0
  2 12  2  0
  2  1  1  0
  3  2  1  0
  4  5  1  0
  4  3  2  0
  5 11  2  0
  6  5  1  0
  7  6  1  0
  7  8  1  6
  9  7  1  0
 10  9  2  0
 11 12  1  0
 13 14  1  0
 14 15  1  0
 15 17  1  0
 15 16  1  6
 17 19  1  0
 17 18  1  1
 18  9  1  0
 19 28  1  0
 20 19  2  0
 22 21  1  0
 23 22  2  0
 24 23  1  0
 25 24  2  0
 25 31  1  0
 26 25  1  0
 27 29  1  0
 27 26  1  1
 28 27  1  0
 29 30  2  0
 29 33  1  0
 31 32  2  0
 32 22  1  0
M  END
$$$$
