YIY.pdb
     RDKit          3D

 33 34  0  0  1  0  0  0  0  0999 V2000
   17.3675  -16.3847  -21.5831 O   0  0  0  0  0  0  0  0  0  0  0  0
   18.1254  -15.6961  -20.6250 C   0  0  0  0  0  0  0  0  0  0  0  0
   19.2971  -15.0540  -20.9608 C   0  0  0  0  0  0  0  0  0  0  0  0
   20.0307  -14.3780  -19.9928 C   0  0  0  0  0  0  0  0  0  0  0  0
   19.6163  -14.3270  -18.6783 C   0  0  0  0  0  0  0  0  0  0  0  0
   20.4215  -13.6042  -17.6978 C   0  0  0  0  0  0  0  0  0  0  0  0
   21.6444  -14.3593  -17.2418 C   0  0  2  0  0  0  0  0  0  0  0  0
   21.2866  -15.5796  -16.5433 N   0  0  0  0  0  0  0  0  0  0  0  0
   22.3256  -13.4815  -16.2258 C   0  0  0  0  0  0  0  0  0  0  0  0
   21.9751  -13.6498  -15.0240 O   0  0  0  0  0  0  0  0  0  0  0  0
   18.4393  -14.9807  -18.3784 C   0  0  0  0  0  0  0  0  0  0  0  0
   17.7035  -15.6545  -19.3310 C   0  0  0  0  0  0  0  0  0  0  0  0
   27.3309  -13.5636  -15.1727 C   0  0  0  0  0  0  0  0  0  0  0  0
   25.8733  -13.2904  -15.1850 C   0  0  0  0  0  0  0  0  0  0  0  0
   25.3826  -11.9622  -15.5584 C   0  0  2  0  0  0  0  0  0  0  0  0
   26.1861  -10.9420  -14.7197 C   0  0  0  0  0  0  0  0  0  0  0  0
   23.9493  -11.6749  -15.5269 C   0  0  2  0  0  0  0  0  0  0  0  0
   23.2832  -12.5362  -16.5544 N   0  0  0  0  0  0  0  0  0  0  0  0
   23.5362  -10.3301  -15.8803 C   0  0  0  0  0  0  0  0  0  0  0  0
   23.7386   -9.8926  -17.0800 O   0  0  0  0  0  0  0  0  0  0  0  0
   16.2446   -9.4957  -15.2385 O   0  0  0  0  0  0  0  0  0  0  0  0
   17.5391   -9.1915  -15.6031 C   0  0  0  0  0  0  0  0  0  0  0  0
   18.0491   -7.9046  -15.5611 C   0  0  0  0  0  0  0  0  0  0  0  0
   19.3457   -7.6154  -15.9287 C   0  0  0  0  0  0  0  0  0  0  0  0
   20.1802   -8.6060  -16.3526 C   0  0  0  0  0  0  0  0  0  0  0  0
   21.5736   -8.3474  -16.7606 C   0  0  0  0  0  0  0  0  0  0  0  0
   22.5084   -8.0789  -15.5795 C   0  0  2  0  0  0  0  0  0  0  0  0
   22.8853   -9.3725  -15.0390 N   0  0  0  0  0  0  0  0  0  0  0  0
   21.8500   -7.2365  -14.6025 C   0  0  0  0  0  0  0  0  0  0  0  0
   21.5245   -6.0538  -14.8208 O   0  0  0  0  0  0  0  0  0  0  0  0
   19.7082   -9.8975  -16.4074 C   0  0  0  0  0  0  0  0  0  0  0  0
   18.4026  -10.1938  -16.0380 C   0  0  0  0  0  0  0  0  0  0  0  0
   21.5344   -7.7205  -13.3276 O   0  0  0  0  0  0  0  0  0  0  0  0
  2 12  2  0
  2  1  1  0
  3  2  1  0
  4  5  1  0
  4  3  2  0
  5 11  2  0
  6  5  1  0
  7  6  1  0
  7  8  1  1
  9  7  1  0
 10  9  2  0
 11 12  1  0
 13 14  1  0
 14 15  1  0
 15 17  1  0
 15 16  1  1
 17 19  1  0
 17 18  1  6
 18  9  1  0
 19 28  1  0
 20 19  2  0
 22 21  1  0
 23 22  2  0
 24 23  1  0
 25 24  2  0
 25 31  1  0
 26 25  1  0
 27 29  1  0
 27 26  1  6
 28 27  1  0
 29 30  2  0
 29 33  1  0
 31 32  2  0
 32 22  1  0
M  END
$$$$
