YIY.pdb
     RDKit          3D

 33 34  0  0  1  0  0  0  0  0999 V2000
   28.8586  -18.2082  -20.9707 O   0  0  0  0  0  0  0  0  0  0  0  0
   28.2369  -18.7673  -19.8449 C   0  0  0  0  0  0  0  0  0  0  0  0
   27.7705  -17.9795  -18.8154 C   0  0  0  0  0  0  0  0  0  0  0  0
   27.1576  -18.5577  -17.7098 C   0  0  0  0  0  0  0  0  0  0  0  0
   26.9970  -19.9236  -17.6060 C   0  0  0  0  0  0  0  0  0  0  0  0
   26.3467  -20.4836  -16.4246 C   0  0  0  0  0  0  0  0  0  0  0  0
   27.3109  -20.9162  -15.3490 C   0  0  2  0  0  0  0  0  0  0  0  0
   28.1090  -22.0506  -15.7748 N   0  0  0  0  0  0  0  0  0  0  0  0
   26.4681  -21.4063  -14.2017 C   0  0  0  0  0  0  0  0  0  0  0  0
   26.0885  -22.6092  -14.2670 O   0  0  0  0  0  0  0  0  0  0  0  0
   27.4757  -20.6809  -18.6547 C   0  0  0  0  0  0  0  0  0  0  0  0
   28.0854  -20.1177  -19.7565 C   0  0  0  0  0  0  0  0  0  0  0  0
   27.9653  -20.6063   -9.2216 C   0  0  0  0  0  0  0  0  0  0  0  0
   27.2577  -21.1734  -10.3951 C   0  0  0  0  0  0  0  0  0  0  0  0
   25.9167  -20.6967  -10.7395 C   0  0  2  0  0  0  0  0  0  0  0  0
   25.0168  -20.9857   -9.5162 C   0  0  0  0  0  0  0  0  0  0  0  0
   25.2843  -21.1253  -11.9863 C   0  0  2  0  0  0  0  0  0  0  0  0
   26.1119  -20.6129  -13.1237 N   0  0  0  0  0  0  0  0  0  0  0  0
   23.9561  -20.6129  -12.2646 C   0  0  0  0  0  0  0  0  0  0  0  0
   23.8205  -19.5203  -12.9424 O   0  0  0  0  0  0  0  0  0  0  0  0
   21.2476  -25.8730  -15.9267 O   0  0  0  0  0  0  0  0  0  0  0  0
   21.3259  -24.5912  -15.4246 C   0  0  0  0  0  0  0  0  0  0  0  0
   22.5219  -23.9041  -15.3010 C   0  0  0  0  0  0  0  0  0  0  0  0
   22.5848  -22.6226  -14.7971 C   0  0  0  0  0  0  0  0  0  0  0  0
   21.4503  -21.9815  -14.3977 C   0  0  0  0  0  0  0  0  0  0  0  0
   21.4654  -20.6131  -13.8483 C   0  0  0  0  0  0  0  0  0  0  0  0
   21.4641  -20.5767  -12.3188 C   0  0  2  0  0  0  0  0  0  0  0  0
   22.7044  -21.1922  -11.8824 N   0  0  0  0  0  0  0  0  0  0  0  0
   20.2930  -21.2558  -11.8037 C   0  0  0  0  0  0  0  0  0  0  0  0
   20.3449  -22.3018  -11.1287 O   0  0  0  0  0  0  0  0  0  0  0  0
   20.2430  -22.6332  -14.5058 C   0  0  0  0  0  0  0  0  0  0  0  0
   20.1747  -23.9243  -15.0130 C   0  0  0  0  0  0  0  0  0  0  0  0
   19.0067  -20.7583  -12.0421 O   0  0  0  0  0  0  0  0  0  0  0  0
  2 12  2  0
  2  1  1  0
  3  2  1  0
  4  5  1  0
  4  3  2  0
  5 11  2  0
  6  5  1  0
  7  6  1  0
  7  8  1  6
  9  7  1  0
 10  9  2  0
 11 12  1  0
 13 14  1  0
 14 15  1  0
 15 17  1  0
 15 16  1  1
 17 19  1  0
 17 18  1  6
 18  9  1  0
 19 28  1  0
 20 19  2  0
 22 21  1  0
 23 22  2  0
 24 23  1  0
 25 24  2  0
 25 31  1  0
 26 25  1  0
 27 29  1  0
 27 26  1  6
 28 27  1  0
 29 30  2  0
 29 33  1  0
 31 32  2  0
 32 22  1  0
M  END
$$$$
