YIY.pdb
     RDKit          3D

 33 34  0  0  1  0  0  0  0  0999 V2000
   24.4439  -16.7076  -21.7468 O   0  0  0  0  0  0  0  0  0  0  0  0
   24.2821  -17.4768  -20.5856 C   0  0  0  0  0  0  0  0  0  0  0  0
   24.0629  -18.8355  -20.6477 C   0  0  0  0  0  0  0  0  0  0  0  0
   23.9056  -19.5763  -19.4820 C   0  0  0  0  0  0  0  0  0  0  0  0
   23.9629  -18.9843  -18.2376 C   0  0  0  0  0  0  0  0  0  0  0  0
   23.7916  -19.8050  -17.0421 C   0  0  0  0  0  0  0  0  0  0  0  0
   25.0907  -20.2729  -16.4361 C   0  0  2  0  0  0  0  0  0  0  0  0
   25.7723  -21.2167  -17.3019 N   0  0  0  0  0  0  0  0  0  0  0  0
   24.7228  -21.0380  -15.1927 C   0  0  0  0  0  0  0  0  0  0  0  0
   24.4839  -22.2684  -15.3494 O   0  0  0  0  0  0  0  0  0  0  0  0
   24.1838  -17.6231  -18.2134 C   0  0  0  0  0  0  0  0  0  0  0  0
   24.3412  -16.8783  -19.3639 C   0  0  0  0  0  0  0  0  0  0  0  0
   27.5829  -20.8758  -10.7571 C   0  0  0  0  0  0  0  0  0  0  0  0
   26.6028  -21.2925  -11.7892 C   0  0  0  0  0  0  0  0  0  0  0  0
   25.1944  -20.9153  -11.6532 C   0  0  2  0  0  0  0  0  0  0  0  0
   24.7204  -21.4609  -10.2867 C   0  0  0  0  0  0  0  0  0  0  0  0
   24.2445  -21.2329  -12.7185 C   0  0  2  0  0  0  0  0  0  0  0  0
   24.6417  -20.4591  -13.9370 N   0  0  0  0  0  0  0  0  0  0  0  0
   22.8601  -20.8567  -12.5041 C   0  0  0  0  0  0  0  0  0  0  0  0
   22.5425  -19.6064  -12.4165 O   0  0  0  0  0  0  0  0  0  0  0  0
   18.5486  -23.4976  -17.8696 O   0  0  0  0  0  0  0  0  0  0  0  0
   18.9480  -22.7262  -16.7988 C   0  0  0  0  0  0  0  0  0  0  0  0
   20.2518  -22.2904  -16.6313 C   0  0  0  0  0  0  0  0  0  0  0  0
   20.6367  -21.5196  -15.5553 C   0  0  0  0  0  0  0  0  0  0  0  0
   19.7284  -21.1565  -14.6063 C   0  0  0  0  0  0  0  0  0  0  0  0
   20.0911  -20.3369  -13.4352 C   0  0  0  0  0  0  0  0  0  0  0  0
   20.4068  -21.1689  -12.1906 C   0  0  2  0  0  0  0  0  0  0  0  0
   21.7319  -21.7292  -12.3844 N   0  0  0  0  0  0  0  0  0  0  0  0
   19.3936  -22.1860  -11.9993 C   0  0  0  0  0  0  0  0  0  0  0  0
   18.2101  -21.9321  -11.7036 O   0  0  0  0  0  0  0  0  0  0  0  0
   18.4229  -21.5711  -14.7396 C   0  0  0  0  0  0  0  0  0  0  0  0
   18.0305  -22.3479  -15.8219 C   0  0  0  0  0  0  0  0  0  0  0  0
   19.6984  -23.5447  -12.1421 O   0  0  0  0  0  0  0  0  0  0  0  0
  2 12  2  0
  2  1  1  0
  3  2  1  0
  4  5  1  0
  4  3  2  0
  5 11  2  0
  6  5  1  0
  7  6  1  0
  7  8  1  6
  9  7  1  0
 10  9  2  0
 11 12  1  0
 13 14  1  0
 14 15  1  0
 15 17  1  0
 15 16  1  1
 17 19  1  0
 17 18  1  6
 18  9  1  0
 19 28  1  0
 20 19  2  0
 22 21  1  0
 23 22  2  0
 24 23  1  0
 25 24  2  0
 25 31  1  0
 26 25  1  0
 27 29  1  0
 27 26  1  6
 28 27  1  0
 29 30  2  0
 29 33  1  0
 31 32  2  0
 32 22  1  0
M  END
$$$$
