YIY.pdb
     RDKit          3D

 33 34  0  0  1  0  0  0  0  0999 V2000
   28.8549  -15.3737  -17.8557 O   0  0  0  0  0  0  0  0  0  0  0  0
   28.2394  -16.2796  -16.9798 C   0  0  0  0  0  0  0  0  0  0  0  0
   27.9147  -15.9242  -15.6890 C   0  0  0  0  0  0  0  0  0  0  0  0
   27.3050  -16.8403  -14.8398 C   0  0  0  0  0  0  0  0  0  0  0  0
   27.0073  -18.1215  -15.2547 C   0  0  0  0  0  0  0  0  0  0  0  0
   26.3664  -19.0478  -14.3255 C   0  0  0  0  0  0  0  0  0  0  0  0
   27.3368  -19.9332  -13.5852 C   0  0  2  0  0  0  0  0  0  0  0  0
   27.9219  -20.9307  -14.4614 N   0  0  0  0  0  0  0  0  0  0  0  0
   26.5231  -20.6936  -12.5721 C   0  0  0  0  0  0  0  0  0  0  0  0
   26.0930  -21.8224  -12.9411 O   0  0  0  0  0  0  0  0  0  0  0  0
   27.3463  -18.4424  -16.5525 C   0  0  0  0  0  0  0  0  0  0  0  0
   27.9516  -17.5412  -17.4037 C   0  0  0  0  0  0  0  0  0  0  0  0
   27.3547  -20.0085   -7.1757 C   0  0  0  0  0  0  0  0  0  0  0  0
   26.9878  -20.6416   -8.4657 C   0  0  0  0  0  0  0  0  0  0  0  0
   25.6358  -20.4742   -9.0026 C   0  0  2  0  0  0  0  0  0  0  0  0
   24.6685  -21.0866   -7.9638 C   0  0  0  0  0  0  0  0  0  0  0  0
   25.3248  -20.9244  -10.3587 C   0  0  2  0  0  0  0  0  0  0  0  0
   26.2438  -20.2139  -11.3030 N   0  0  0  0  0  0  0  0  0  0  0  0
   24.0010  -20.6221  -10.8687 C   0  0  0  0  0  0  0  0  0  0  0  0
   23.5746  -19.4016  -10.8593 O   0  0  0  0  0  0  0  0  0  0  0  0
   23.4404  -17.6695  -16.9926 O   0  0  0  0  0  0  0  0  0  0  0  0
   22.9974  -18.6178  -16.0950 C   0  0  0  0  0  0  0  0  0  0  0  0
   23.6123  -19.8486  -15.9373 C   0  0  0  0  0  0  0  0  0  0  0  0
   23.1580  -20.7871  -15.0356 C   0  0  0  0  0  0  0  0  0  0  0  0
   22.0694  -20.5268  -14.2579 C   0  0  0  0  0  0  0  0  0  0  0  0
   21.5423  -21.4989  -13.2823 C   0  0  0  0  0  0  0  0  0  0  0  0
   21.7436  -21.0651  -11.8290 C   0  0  2  0  0  0  0  0  0  0  0  0
   23.0549  -21.5400  -11.4261 N   0  0  0  0  0  0  0  0  0  0  0  0
   20.6802  -21.5916  -10.9984 C   0  0  0  0  0  0  0  0  0  0  0  0
   19.5002  -21.1958  -11.0574 O   0  0  0  0  0  0  0  0  0  0  0  0
   21.4324  -19.3138  -14.3871 C   0  0  0  0  0  0  0  0  0  0  0  0
   21.8865  -18.3651  -15.2941 C   0  0  0  0  0  0  0  0  0  0  0  0
   20.9285  -22.6015  -10.0616 O   0  0  0  0  0  0  0  0  0  0  0  0
  2 12  2  0
  2  1  1  0
  3  2  1  0
  4  5  1  0
  4  3  2  0
  5 11  2  0
  6  5  1  0
  7  6  1  0
  7  8  1  6
  9  7  1  0
 10  9  2  0
 11 12  1  0
 13 14  1  0
 14 15  1  0
 15 17  1  0
 15 16  1  1
 17 19  1  0
 17 18  1  6
 18  9  1  0
 19 28  1  0
 20 19  2  0
 22 21  1  0
 23 22  2  0
 24 23  1  0
 25 24  2  0
 25 31  1  0
 26 25  1  0
 27 29  1  0
 27 26  1  6
 28 27  1  0
 29 30  2  0
 29 33  1  0
 31 32  2  0
 32 22  1  0
M  END
$$$$
