YIY.pdb
     RDKit          3D

 33 34  0  0  1  0  0  0  0  0999 V2000
   27.6848  -14.6088  -20.5771 O   0  0  0  0  0  0  0  0  0  0  0  0
   27.4258  -15.5967  -19.6162 C   0  0  0  0  0  0  0  0  0  0  0  0
   28.4316  -16.3933  -19.1146 C   0  0  0  0  0  0  0  0  0  0  0  0
   28.1494  -17.3659  -18.1624 C   0  0  0  0  0  0  0  0  0  0  0  0
   26.8682  -17.5651  -17.6922 C   0  0  0  0  0  0  0  0  0  0  0  0
   26.6219  -18.5997  -16.6916 C   0  0  0  0  0  0  0  0  0  0  0  0
   27.8787  -19.2424  -16.1613 C   0  0  2  0  0  0  0  0  0  0  0  0
   28.5438  -20.0316  -17.1810 N   0  0  0  0  0  0  0  0  0  0  0  0
   27.4374  -20.2166  -15.1016 C   0  0  0  0  0  0  0  0  0  0  0  0
   27.0535  -21.3473  -15.5135 O   0  0  0  0  0  0  0  0  0  0  0  0
   25.8868  -16.7500  -18.2163 C   0  0  0  0  0  0  0  0  0  0  0  0
   26.1556  -15.7818  -19.1615 C   0  0  0  0  0  0  0  0  0  0  0  0
   29.2118  -19.7243   -9.7324 C   0  0  0  0  0  0  0  0  0  0  0  0
   28.2863  -19.6899  -10.8908 C   0  0  0  0  0  0  0  0  0  0  0  0
   28.0175  -20.9146  -11.6471 C   0  0  2  0  0  0  0  0  0  0  0  0
   29.3837  -21.4292  -12.1557 C   0  0  0  0  0  0  0  0  0  0  0  0
   27.0130  -20.9143  -12.7096 C   0  0  2  0  0  0  0  0  0  0  0  0
   27.4396  -19.9236  -13.7478 N   0  0  0  0  0  0  0  0  0  0  0  0
   25.6730  -20.4884  -12.3529 C   0  0  0  0  0  0  0  0  0  0  0  0
   25.0611  -19.6177  -13.0872 O   0  0  0  0  0  0  0  0  0  0  0  0
   17.3819  -18.9178  -11.9741 O   0  0  0  0  0  0  0  0  0  0  0  0
   18.6707  -19.4054  -12.0222 C   0  0  0  0  0  0  0  0  0  0  0  0
   19.0434  -20.6033  -11.4357 C   0  0  0  0  0  0  0  0  0  0  0  0
   20.3362  -21.0784  -11.4920 C   0  0  0  0  0  0  0  0  0  0  0  0
   21.3044  -20.3700  -12.1386 C   0  0  0  0  0  0  0  0  0  0  0  0
   22.7019  -20.8331  -12.2229 C   0  0  0  0  0  0  0  0  0  0  0  0
   23.5585  -20.3865  -11.0365 C   0  0  2  0  0  0  0  0  0  0  0  0
   24.8856  -20.9369  -11.2451 N   0  0  0  0  0  0  0  0  0  0  0  0
   22.9603  -20.8287   -9.7937 C   0  0  0  0  0  0  0  0  0  0  0  0
   23.2832  -21.8812   -9.2103 O   0  0  0  0  0  0  0  0  0  0  0  0
   20.9710  -19.1747  -12.7336 C   0  0  0  0  0  0  0  0  0  0  0  0
   19.6698  -18.6920  -12.6796 C   0  0  0  0  0  0  0  0  0  0  0  0
   21.9621  -20.0755   -9.1648 O   0  0  0  0  0  0  0  0  0  0  0  0
  2 12  2  0
  2  1  1  0
  3  2  1  0
  4  5  1  0
  4  3  2  0
  5 11  2  0
  6  5  1  0
  7  6  1  0
  7  8  1  6
  9  7  1  0
 10  9  2  0
 11 12  1  0
 13 14  1  0
 14 15  1  0
 15 17  1  0
 15 16  1  6
 17 19  1  0
 17 18  1  6
 18  9  1  0
 19 28  1  0
 20 19  2  0
 22 21  1  0
 23 22  2  0
 24 23  1  0
 25 24  2  0
 25 31  1  0
 26 25  1  0
 27 29  1  0
 27 26  1  6
 28 27  1  0
 29 30  2  0
 29 33  1  0
 31 32  2  0
 32 22  1  0
M  END
$$$$
