YIY.pdb
     RDKit          3D

 33 34  0  0  1  0  0  0  0  0999 V2000
   26.9561    0.3697  -25.9568 O   0  0  0  0  0  0  0  0  0  0  0  0
   26.5134    0.3845  -24.6263 C   0  0  0  0  0  0  0  0  0  0  0  0
   26.1828   -0.7781  -23.9654 C   0  0  0  0  0  0  0  0  0  0  0  0
   25.7463   -0.7372  -22.6462 C   0  0  0  0  0  0  0  0  0  0  0  0
   25.6304    0.4543  -21.9613 C   0  0  0  0  0  0  0  0  0  0  0  0
   25.1672    0.4457  -20.5765 C   0  0  0  0  0  0  0  0  0  0  0  0
   26.2017    0.9211  -19.5877 C   0  0  2  0  0  0  0  0  0  0  0  0
   27.2991   -0.0209  -19.4716 N   0  0  0  0  0  0  0  0  0  0  0  0
   25.5224    0.9378  -18.2443 C   0  0  0  0  0  0  0  0  0  0  0  0
   25.8793    0.0391  -17.4315 O   0  0  0  0  0  0  0  0  0  0  0  0
   25.9697    1.5977  -22.6539 C   0  0  0  0  0  0  0  0  0  0  0  0
   26.4040    1.5687  -23.9629 C   0  0  0  0  0  0  0  0  0  0  0  0
   25.4996    5.1648  -15.1252 C   0  0  0  0  0  0  0  0  0  0  0  0
   25.3698    3.7709  -15.6148 C   0  0  0  0  0  0  0  0  0  0  0  0
   24.0562    3.2522  -16.0013 C   0  0  2  0  0  0  0  0  0  0  0  0
   23.1173    3.4823  -14.7948 C   0  0  0  0  0  0  0  0  0  0  0  0
   23.9308    1.8945  -16.5296 C   0  0  2  0  0  0  0  0  0  0  0  0
   24.5599    1.8679  -17.8879 N   0  0  0  0  0  0  0  0  0  0  0  0
   22.5883    1.3951  -16.7587 C   0  0  0  0  0  0  0  0  0  0  0  0
   21.9635    1.7134  -17.8449 O   0  0  0  0  0  0  0  0  0  0  0  0
   15.5807   -2.3599  -19.5689 O   0  0  0  0  0  0  0  0  0  0  0  0
   16.8078   -1.9559  -19.0870 C   0  0  0  0  0  0  0  0  0  0  0  0
   17.7200   -2.8327  -18.5241 C   0  0  0  0  0  0  0  0  0  0  0  0
   18.9434   -2.4142  -18.0464 C   0  0  0  0  0  0  0  0  0  0  0  0
   19.2985   -1.1001  -18.1150 C   0  0  0  0  0  0  0  0  0  0  0  0
   20.5930   -0.6021  -17.6143 C   0  0  0  0  0  0  0  0  0  0  0  0
   20.4771    0.1552  -16.2900 C   0  0  2  0  0  0  0  0  0  0  0  0
   21.8236    0.5379  -15.9051 N   0  0  0  0  0  0  0  0  0  0  0  0
   19.8270   -0.6734  -15.2957 C   0  0  0  0  0  0  0  0  0  0  0  0
   20.4458   -1.3760  -14.4736 O   0  0  0  0  0  0  0  0  0  0  0  0
   18.4172   -0.1994  -18.6683 C   0  0  0  0  0  0  0  0  0  0  0  0
   17.1835   -0.6164  -19.1509 C   0  0  0  0  0  0  0  0  0  0  0  0
   18.4315   -0.7287  -15.2025 O   0  0  0  0  0  0  0  0  0  0  0  0
  2 12  2  0
  2  1  1  0
  3  2  1  0
  4  5  1  0
  4  3  2  0
  5 11  2  0
  6  5  1  0
  7  6  1  0
  7  8  1  1
  9  7  1  0
 10  9  2  0
 11 12  1  0
 13 14  1  0
 14 15  1  0
 15 17  1  0
 15 16  1  1
 17 19  1  0
 17 18  1  6
 18  9  1  0
 19 28  1  0
 20 19  2  0
 22 21  1  0
 23 22  2  0
 24 23  1  0
 25 24  2  0
 25 31  1  0
 26 25  1  0
 27 29  1  0
 27 26  1  6
 28 27  1  0
 29 30  2  0
 29 33  1  0
 31 32  2  0
 32 22  1  0
M  END
$$$$
