YIY.pdb
     RDKit          3D

 33 34  0  0  1  0  0  0  0  0999 V2000
   21.3199  -18.7322  -22.8072 O   0  0  0  0  0  0  0  0  0  0  0  0
   21.5706  -18.6122  -21.4327 C   0  0  0  0  0  0  0  0  0  0  0  0
   21.9688  -19.6933  -20.6772 C   0  0  0  0  0  0  0  0  0  0  0  0
   22.2111  -19.5488  -19.3161 C   0  0  0  0  0  0  0  0  0  0  0  0
   22.0633  -18.3330  -18.6820 C   0  0  0  0  0  0  0  0  0  0  0  0
   22.3297  -18.2316  -17.2499 C   0  0  0  0  0  0  0  0  0  0  0  0
   21.1299  -18.5303  -16.3868 C   0  0  2  0  0  0  0  0  0  0  0  0
   20.1474  -17.4649  -16.4543 N   0  0  0  0  0  0  0  0  0  0  0  0
   21.6283  -18.5488  -14.9663 C   0  0  0  0  0  0  0  0  0  0  0  0
   21.5848  -17.4475  -14.3493 O   0  0  0  0  0  0  0  0  0  0  0  0
   21.6636  -17.2731  -19.4690 C   0  0  0  0  0  0  0  0  0  0  0  0
   21.4203  -17.4052  -20.8204 C   0  0  0  0  0  0  0  0  0  0  0  0
   20.5139  -21.0720   -9.8864 C   0  0  0  0  0  0  0  0  0  0  0  0
   21.6177  -20.4787  -10.6796 C   0  0  0  0  0  0  0  0  0  0  0  0
   21.4375  -20.2334  -12.1119 C   0  0  2  0  0  0  0  0  0  0  0  0
   20.8809  -21.5420  -12.7182 C   0  0  0  0  0  0  0  0  0  0  0  0
   22.5407  -19.6977  -12.9082 C   0  0  2  0  0  0  0  0  0  0  0  0
   22.1120  -19.6870  -14.3425 N   0  0  0  0  0  0  0  0  0  0  0  0
   23.7769  -20.4566  -12.9207 C   0  0  0  0  0  0  0  0  0  0  0  0
   23.8650  -21.5249  -13.6437 O   0  0  0  0  0  0  0  0  0  0  0  0
   27.4971  -19.0739   -6.3991 O   0  0  0  0  0  0  0  0  0  0  0  0
   27.4495  -19.3317   -7.7528 C   0  0  0  0  0  0  0  0  0  0  0  0
   26.6967  -18.5759   -8.6359 C   0  0  0  0  0  0  0  0  0  0  0  0
   26.6588  -18.8455   -9.9872 C   0  0  0  0  0  0  0  0  0  0  0  0
   27.3745  -19.8837  -10.5042 C   0  0  0  0  0  0  0  0  0  0  0  0
   27.3638  -20.2154  -11.9410 C   0  0  0  0  0  0  0  0  0  0  0  0
   26.1385  -21.0283  -12.3638 C   0  0  2  0  0  0  0  0  0  0  0  0
   24.9853  -20.1594  -12.2138 N   0  0  0  0  0  0  0  0  0  0  0  0
   26.0375  -22.2322  -11.5648 C   0  0  0  0  0  0  0  0  0  0  0  0
   25.2095  -22.3813  -10.6458 O   0  0  0  0  0  0  0  0  0  0  0  0
   28.1346  -20.6571   -9.6567 C   0  0  0  0  0  0  0  0  0  0  0  0
   28.1759  -20.3892   -8.2945 C   0  0  0  0  0  0  0  0  0  0  0  0
   26.8867  -23.3218  -11.7904 O   0  0  0  0  0  0  0  0  0  0  0  0
  2 12  2  0
  2  1  1  0
  3  2  1  0
  4  5  1  0
  4  3  2  0
  5 11  2  0
  6  5  1  0
  7  6  1  0
  7  8  1  1
  9  7  1  0
 10  9  2  0
 11 12  1  0
 13 14  1  0
 14 15  1  0
 15 17  1  0
 15 16  1  6
 17 19  1  0
 17 18  1  6
 18  9  1  0
 19 28  1  0
 20 19  2  0
 22 21  1  0
 23 22  2  0
 24 23  1  0
 25 24  2  0
 25 31  1  0
 26 25  1  0
 27 29  1  0
 27 26  1  1
 28 27  1  0
 29 30  2  0
 29 33  1  0
 31 32  2  0
 32 22  1  0
M  END
$$$$
