YIY.pdb
     RDKit          3D

 33 34  0  0  1  0  0  0  0  0999 V2000
   27.2665  -14.8545  -19.5869 O   0  0  0  0  0  0  0  0  0  0  0  0
   27.1738  -15.7811  -18.5385 C   0  0  0  0  0  0  0  0  0  0  0  0
   26.3642  -16.8920  -18.6299 C   0  0  0  0  0  0  0  0  0  0  0  0
   26.2894  -17.7961  -17.5767 C   0  0  0  0  0  0  0  0  0  0  0  0
   27.0143  -17.6149  -16.4174 C   0  0  0  0  0  0  0  0  0  0  0  0
   26.9021  -18.5926  -15.3387 C   0  0  0  0  0  0  0  0  0  0  0  0
   28.0770  -19.5334  -15.2478 C   0  0  2  0  0  0  0  0  0  0  0  0
   28.1354  -20.4239  -16.3917 N   0  0  0  0  0  0  0  0  0  0  0  0
   27.8223  -20.4092  -14.0499 C   0  0  0  0  0  0  0  0  0  0  0  0
   27.1099  -21.4323  -14.2528 O   0  0  0  0  0  0  0  0  0  0  0  0
   27.8138  -16.4925  -16.3608 C   0  0  0  0  0  0  0  0  0  0  0  0
   27.8956  -15.5888  -17.3999 C   0  0  0  0  0  0  0  0  0  0  0  0
   31.7217  -21.9234  -10.7011 C   0  0  0  0  0  0  0  0  0  0  0  0
   30.4383  -21.8524  -11.4409 C   0  0  0  0  0  0  0  0  0  0  0  0
   29.2925  -21.1578  -10.8502 C   0  0  2  0  0  0  0  0  0  0  0  0
   29.0475  -21.8052   -9.4679 C   0  0  0  0  0  0  0  0  0  0  0  0
   28.0495  -21.0190  -11.6076 C   0  0  2  0  0  0  0  0  0  0  0  0
   28.3236  -20.1390  -12.7873 N   0  0  0  0  0  0  0  0  0  0  0  0
   26.9373  -20.3694  -10.9404 C   0  0  0  0  0  0  0  0  0  0  0  0
   26.8498  -19.0794  -10.9503 O   0  0  0  0  0  0  0  0  0  0  0  0
   20.8880  -22.5362  -13.9643 O   0  0  0  0  0  0  0  0  0  0  0  0
   21.6979  -21.7717  -13.1515 C   0  0  0  0  0  0  0  0  0  0  0  0
   23.0734  -21.7143  -13.3011 C   0  0  0  0  0  0  0  0  0  0  0  0
   23.8707  -20.9453  -12.4806 C   0  0  0  0  0  0  0  0  0  0  0  0
   23.3185  -20.2047  -11.4786 C   0  0  0  0  0  0  0  0  0  0  0  0
   24.1283  -19.3699  -10.5720 C   0  0  0  0  0  0  0  0  0  0  0  0
   24.8935  -20.1824   -9.5255 C   0  0  2  0  0  0  0  0  0  0  0  0
   25.8547  -20.9973  -10.2463 N   0  0  0  0  0  0  0  0  0  0  0  0
   23.9725  -20.9735   -8.7357 C   0  0  0  0  0  0  0  0  0  0  0  0
   24.0271  -22.2156   -8.6533 O   0  0  0  0  0  0  0  0  0  0  0  0
   21.9543  -20.2369  -11.2997 C   0  0  0  0  0  0  0  0  0  0  0  0
   21.1470  -21.0101  -12.1239 C   0  0  0  0  0  0  0  0  0  0  0  0
   22.9459  -20.3678   -8.0020 O   0  0  0  0  0  0  0  0  0  0  0  0
  2 12  2  0
  2  1  1  0
  3  2  1  0
  4  5  1  0
  4  3  2  0
  5 11  2  0
  6  5  1  0
  7  6  1  0
  7  8  1  6
  9  7  1  0
 10  9  2  0
 11 12  1  0
 13 14  1  0
 14 15  1  0
 15 17  1  0
 15 16  1  1
 17 19  1  0
 17 18  1  6
 18  9  1  0
 19 28  1  0
 20 19  2  0
 22 21  1  0
 23 22  2  0
 24 23  1  0
 25 24  2  0
 25 31  1  0
 26 25  1  0
 27 29  1  0
 27 26  1  6
 28 27  1  0
 29 30  2  0
 29 33  1  0
 31 32  2  0
 32 22  1  0
M  END
$$$$
