YIY.pdb
     RDKit          3D

 33 34  0  0  1  0  0  0  0  0999 V2000
   28.4242  -16.3056  -20.4827 O   0  0  0  0  0  0  0  0  0  0  0  0
   28.1347  -17.0550  -19.3334 C   0  0  0  0  0  0  0  0  0  0  0  0
   28.6689  -16.7261  -18.1069 C   0  0  0  0  0  0  0  0  0  0  0  0
   28.3667  -17.4848  -16.9821 C   0  0  0  0  0  0  0  0  0  0  0  0
   27.5315  -18.5801  -17.0536 C   0  0  0  0  0  0  0  0  0  0  0  0
   27.2441  -19.3457  -15.8439 C   0  0  0  0  0  0  0  0  0  0  0  0
   28.3897  -20.2144  -15.3891 C   0  0  2  0  0  0  0  0  0  0  0  0
   28.6471  -21.2901  -16.3280 N   0  0  0  0  0  0  0  0  0  0  0  0
   27.9366  -20.8734  -14.1136 C   0  0  0  0  0  0  0  0  0  0  0  0
   27.1570  -21.8585  -14.2453 O   0  0  0  0  0  0  0  0  0  0  0  0
   27.0151  -18.8799  -18.2969 C   0  0  0  0  0  0  0  0  0  0  0  0
   27.3083  -18.1339  -19.4196 C   0  0  0  0  0  0  0  0  0  0  0  0
   31.1658  -20.8666   -9.6649 C   0  0  0  0  0  0  0  0  0  0  0  0
   30.1339  -21.3169  -10.6302 C   0  0  0  0  0  0  0  0  0  0  0  0
   28.7657  -20.8053  -10.5279 C   0  0  2  0  0  0  0  0  0  0  0  0
   28.2257  -21.2588   -9.1522 C   0  0  0  0  0  0  0  0  0  0  0  0
   27.8033  -21.0676  -11.5970 C   0  0  2  0  0  0  0  0  0  0  0  0
   28.3313  -20.4509  -12.8549 N   0  0  0  0  0  0  0  0  0  0  0  0
   26.4814  -20.4876  -11.4541 C   0  0  0  0  0  0  0  0  0  0  0  0
   26.2169  -19.3516  -12.0121 O   0  0  0  0  0  0  0  0  0  0  0  0
   18.5299  -19.4561  -14.1842 O   0  0  0  0  0  0  0  0  0  0  0  0
   19.8136  -19.7589  -13.7822 C   0  0  0  0  0  0  0  0  0  0  0  0
   20.8161  -18.8080  -13.6894 C   0  0  0  0  0  0  0  0  0  0  0  0
   22.0953  -19.1255  -13.2858 C   0  0  0  0  0  0  0  0  0  0  0  0
   22.4177  -20.4090  -12.9600 C   0  0  0  0  0  0  0  0  0  0  0  0
   23.7721  -20.8000  -12.5271 C   0  0  0  0  0  0  0  0  0  0  0  0
   24.0244  -20.5541  -11.0382 C   0  0  2  0  0  0  0  0  0  0  0  0
   25.3625  -21.0393  -10.7527 N   0  0  0  0  0  0  0  0  0  0  0  0
   23.0099  -21.2153  -10.2436 C   0  0  0  0  0  0  0  0  0  0  0  0
   21.8711  -20.7471  -10.0527 O   0  0  0  0  0  0  0  0  0  0  0  0
   21.4470  -21.3812  -13.0402 C   0  0  0  0  0  0  0  0  0  0  0  0
   20.1567  -21.0661  -13.4463 C   0  0  0  0  0  0  0  0  0  0  0  0
   23.2616  -22.4495   -9.6332 O   0  0  0  0  0  0  0  0  0  0  0  0
  2 12  2  0
  2  1  1  0
  3  2  1  0
  4  5  1  0
  4  3  2  0
  5 11  2  0
  6  5  1  0
  7  6  1  0
  7  8  1  6
  9  7  1  0
 10  9  2  0
 11 12  1  0
 13 14  1  0
 14 15  1  0
 15 17  1  0
 15 16  1  1
 17 19  1  0
 17 18  1  6
 18  9  1  0
 19 28  1  0
 20 19  2  0
 22 21  1  0
 23 22  2  0
 24 23  1  0
 25 24  2  0
 25 31  1  0
 26 25  1  0
 27 29  1  0
 27 26  1  6
 28 27  1  0
 29 30  2  0
 29 33  1  0
 31 32  2  0
 32 22  1  0
M  END
$$$$
