KTS.pdb
     RDKit          3D

 23 22  0  0  1  0  0  0  0  0999 V2000
   21.7501  -14.0686  -17.6474 N   0  0  0  0  0  0  0  0  0  0  0  0
   20.8871  -12.9118  -17.7924 C   0  0  1  0  0  0  0  0  0  0  0  0
   19.4878  -13.3793  -18.0113 C   0  0  0  0  0  0  0  0  0  0  0  0
   19.3730  -14.1700  -19.2764 C   0  0  0  0  0  0  0  0  0  0  0  0
   17.9622  -14.5697  -19.5833 C   0  0  0  0  0  0  0  0  0  0  0  0
   17.9236  -15.2806  -20.9344 C   0  0  0  0  0  0  0  0  0  0  0  0
   16.6078  -15.7294  -21.2772 N   0  0  0  0  0  0  0  0  0  0  0  0
   21.0357  -12.0738  -16.5860 C   0  0  0  0  0  0  0  0  0  0  0  0
   20.5629  -12.3898  -15.4630 O   0  0  0  0  0  0  0  0  0  0  0  0
   24.0217  -11.1199  -14.8939 C   0  0  0  0  0  0  0  0  0  0  0  0
   23.4167   -9.8036  -15.3250 C   0  0  1  0  0  0  0  0  0  0  0  0
   23.9645   -9.4267  -16.5396 O   0  0  0  0  0  0  0  0  0  0  0  0
   21.9177   -9.9850  -15.4954 C   0  0  2  0  0  0  0  0  0  0  0  0
   21.7358  -10.8530  -16.6603 N   0  0  0  0  0  0  0  0  0  0  0  0
   21.2663   -8.6904  -15.7894 C   0  0  0  0  0  0  0  0  0  0  0  0
   21.2519   -8.2405  -16.9586 O   0  0  0  0  0  0  0  0  0  0  0  0
   17.8844   -7.5291  -14.9187 O   0  0  0  0  0  0  0  0  0  0  0  0
   18.7173   -6.5255  -14.4254 C   0  0  0  0  0  0  0  0  0  0  0  0
   20.0429   -6.6287  -15.1463 C   0  0  2  0  0  0  0  0  0  0  0  0
   20.6348   -7.9036  -14.7821 N   0  0  0  0  0  0  0  0  0  0  0  0
   20.9512   -5.5351  -14.7240 C   0  0  0  0  0  0  0  0  0  0  0  0
   20.6665   -4.3322  -14.9711 O   0  0  0  0  0  0  0  0  0  0  0  0
   22.1275   -5.8181  -14.0510 O   0  0  0  0  0  0  0  0  0  0  0  0
  2  1  1  1
  2  3  1  0
  2  8  1  0
  4  3  1  0
  5  4  1  0
  5  6  1  0
  6  7  1  0
  8  9  2  0
 11 10  1  6
 11 13  1  0
 12 11  1  0
 13 15  1  0
 13 14  1  6
 14  8  1  0
 15 20  1  0
 15 16  2  0
 18 17  1  0
 19 18  1  1
 19 21  1  0
 20 19  1  0
 21 22  2  0
 21 23  1  0
M  END
$$$$
