KTS.pdb
     RDKit          3D

 23 22  0  0  1  0  0  0  0  0999 V2000
   22.6693  -20.8718   -8.9746 N   0  0  0  0  0  0  0  0  0  0  0  0
   22.3331  -21.2876  -10.3229 C   0  0  1  0  0  0  0  0  0  0  0  0
   20.8778  -21.0538  -10.5502 C   0  0  0  0  0  0  0  0  0  0  0  0
   20.1209  -22.3442  -10.5828 C   0  0  0  0  0  0  0  0  0  0  0  0
   18.6413  -22.1447  -10.7058 C   0  0  0  0  0  0  0  0  0  0  0  0
   17.9444  -23.5023  -10.6480 C   0  0  0  0  0  0  0  0  0  0  0  0
   16.5213  -23.3902  -10.7613 N   0  0  0  0  0  0  0  0  0  0  0  0
   23.1932  -20.5405  -11.2619 C   0  0  0  0  0  0  0  0  0  0  0  0
   23.6360  -19.3863  -11.0241 O   0  0  0  0  0  0  0  0  0  0  0  0
   26.3810  -21.5402  -12.4120 C   0  0  0  0  0  0  0  0  0  0  0  0
   25.6042  -21.3755  -13.6981 C   0  0  1  0  0  0  0  0  0  0  0  0
   25.1151  -22.6085  -14.0956 O   0  0  0  0  0  0  0  0  0  0  0  0
   24.4344  -20.4385  -13.4482 C   0  0  2  0  0  0  0  0  0  0  0  0
   23.5558  -21.1188  -12.4949 N   0  0  0  0  0  0  0  0  0  0  0  0
   23.6676  -20.2188  -14.6934 C   0  0  0  0  0  0  0  0  0  0  0  0
   22.7239  -20.9842  -14.9986 O   0  0  0  0  0  0  0  0  0  0  0  0
   22.5291  -20.1691  -18.7371 O   0  0  0  0  0  0  0  0  0  0  0  0
   23.1671  -20.3369  -17.5086 C   0  0  0  0  0  0  0  0  0  0  0  0
   23.1562  -19.0028  -16.7959 C   0  0  2  0  0  0  0  0  0  0  0  0
   23.9543  -19.1497  -15.5917 N   0  0  0  0  0  0  0  0  0  0  0  0
   21.7727  -18.6269  -16.4169 C   0  0  0  0  0  0  0  0  0  0  0  0
   21.2205  -19.1426  -15.4077 O   0  0  0  0  0  0  0  0  0  0  0  0
   21.0646  -17.7027  -17.1661 O   0  0  0  0  0  0  0  0  0  0  0  0
  2  1  1  1
  2  3  1  0
  2  8  1  0
  4  3  1  0
  5  4  1  0
  5  6  1  0
  6  7  1  0
  8  9  2  0
 11 10  1  1
 11 13  1  0
 12 11  1  0
 13 15  1  0
 13 14  1  1
 14  8  1  0
 15 20  1  0
 15 16  2  0
 18 17  1  0
 19 18  1  1
 19 21  1  0
 20 19  1  0
 21 22  2  0
 21 23  1  0
M  END
$$$$
