KTS.pdb
     RDKit          3D

 23 22  0  0  1  0  0  0  0  0999 V2000
   19.7152  -12.3345  -18.6132 N   0  0  0  0  0  0  0  0  0  0  0  0
   19.9708  -10.9112  -18.5007 C   0  0  1  0  0  0  0  0  0  0  0  0
   18.6915  -10.1740  -18.7110 C   0  0  0  0  0  0  0  0  0  0  0  0
   17.8055  -10.8927  -19.6792 C   0  0  0  0  0  0  0  0  0  0  0  0
   16.5478  -10.1380  -19.9835 C   0  0  0  0  0  0  0  0  0  0  0  0
   15.6781  -10.9686  -20.9246 C   0  0  0  0  0  0  0  0  0  0  0  0
   14.9100  -11.9563  -20.2281 N   0  0  0  0  0  0  0  0  0  0  0  0
   20.5754  -10.6562  -17.1781 C   0  0  0  0  0  0  0  0  0  0  0  0
   20.4648  -11.4462  -16.2042 O   0  0  0  0  0  0  0  0  0  0  0  0
   24.0893  -10.2042  -16.4363 C   0  0  0  0  0  0  0  0  0  0  0  0
   23.4322   -8.9161  -15.9964 C   0  0  1  0  0  0  0  0  0  0  0  0
   23.5025   -7.9940  -17.0270 O   0  0  0  0  0  0  0  0  0  0  0  0
   21.9717   -9.1930  -15.6815 C   0  0  2  0  0  0  0  0  0  0  0  0
   21.3198   -9.4795  -16.9607 N   0  0  0  0  0  0  0  0  0  0  0  0
   21.3271   -7.9943  -15.1033 C   0  0  0  0  0  0  0  0  0  0  0  0
   20.8000   -7.1372  -15.8498 O   0  0  0  0  0  0  0  0  0  0  0  0
   19.2906   -7.8511  -11.8167 O   0  0  0  0  0  0  0  0  0  0  0  0
   20.2035   -6.7973  -11.7901 C   0  0  0  0  0  0  0  0  0  0  0  0
   20.6507   -6.5370  -13.2114 C   0  0  2  0  0  0  0  0  0  0  0  0
   21.2720   -7.7555  -13.6990 N   0  0  0  0  0  0  0  0  0  0  0  0
   21.6450   -5.4374  -13.2506 C   0  0  0  0  0  0  0  0  0  0  0  0
   22.8445   -5.6669  -13.5632 O   0  0  0  0  0  0  0  0  0  0  0  0
   21.2714   -4.1400  -12.9443 O   0  0  0  0  0  0  0  0  0  0  0  0
  2  1  1  1
  2  3  1  0
  2  8  1  0
  4  3  1  0
  5  4  1  0
  5  6  1  0
  6  7  1  0
  8  9  2  0
 11 10  1  6
 11 13  1  0
 12 11  1  0
 13 15  1  0
 13 14  1  6
 14  8  1  0
 15 20  1  0
 15 16  2  0
 18 17  1  0
 19 18  1  1
 19 21  1  0
 20 19  1  0
 21 22  2  0
 21 23  1  0
M  END
$$$$
