KTS.pdb
     RDKit          3D

 23 22  0  0  1  0  0  0  0  0999 V2000
   29.6864  -23.3324  -16.2348 N   0  0  0  0  0  0  0  0  0  0  0  0
   28.3335  -23.2045  -16.7421 C   0  0  1  0  0  0  0  0  0  0  0  0
   27.8033  -24.5644  -17.0480 C   0  0  0  0  0  0  0  0  0  0  0  0
   28.6573  -25.2637  -18.0583 C   0  0  0  0  0  0  0  0  0  0  0  0
   29.3741  -26.4496  -17.4891 C   0  0  0  0  0  0  0  0  0  0  0  0
   30.1144  -27.1754  -18.6103 C   0  0  0  0  0  0  0  0  0  0  0  0
   30.9654  -28.2164  -18.1175 N   0  0  0  0  0  0  0  0  0  0  0  0
   27.5313  -22.4833  -15.7341 C   0  0  0  0  0  0  0  0  0  0  0  0
   27.8763  -22.3702  -14.5288 O   0  0  0  0  0  0  0  0  0  0  0  0
   27.4446  -19.3996  -15.0533 C   0  0  0  0  0  0  0  0  0  0  0  0
   26.0204  -19.5803  -15.5262 C   0  0  1  0  0  0  0  0  0  0  0  0
   25.9688  -19.3939  -16.8973 O   0  0  0  0  0  0  0  0  0  0  0  0
   25.5723  -20.9960  -15.2041 C   0  0  2  0  0  0  0  0  0  0  0  0
   26.3133  -21.8798  -16.1060 N   0  0  0  0  0  0  0  0  0  0  0  0
   24.1310  -21.1638  -15.4890 C   0  0  0  0  0  0  0  0  0  0  0  0
   23.7459  -21.4797  -16.6386 O   0  0  0  0  0  0  0  0  0  0  0  0
   21.1339  -22.2964  -12.9647 O   0  0  0  0  0  0  0  0  0  0  0  0
   20.9136  -21.0754  -13.6013 C   0  0  0  0  0  0  0  0  0  0  0  0
   21.7279  -21.0648  -14.8758 C   0  0  2  0  0  0  0  0  0  0  0  0
   23.1264  -20.9797  -14.4945 N   0  0  0  0  0  0  0  0  0  0  0  0
   21.3798  -19.8860  -15.7056 C   0  0  0  0  0  0  0  0  0  0  0  0
   21.9923  -18.7940  -15.5592 O   0  0  0  0  0  0  0  0  0  0  0  0
   20.3754  -19.9661  -16.6552 O   0  0  0  0  0  0  0  0  0  0  0  0
  2  1  1  1
  2  3  1  0
  2  8  1  0
  4  3  1  0
  5  4  1  0
  5  6  1  0
  6  7  1  0
  8  9  2  0
 11 10  1  6
 11 13  1  0
 12 11  1  0
 13 15  1  0
 13 14  1  6
 14  8  1  0
 15 20  1  0
 15 16  2  0
 18 17  1  0
 19 18  1  1
 19 21  1  0
 20 19  1  0
 21 22  2  0
 21 23  1  0
M  END
$$$$
