KTS.pdb
     RDKit          3D

 23 22  0  0  1  0  0  0  0  0999 V2000
   24.2232  -22.5540  -10.5994 N   0  0  0  0  0  0  0  0  0  0  0  0
   24.1547  -21.1638  -11.0074 C   0  0  1  0  0  0  0  0  0  0  0  0
   24.1665  -20.3033   -9.7893 C   0  0  0  0  0  0  0  0  0  0  0  0
   22.8227  -20.2775   -9.1317 C   0  0  0  0  0  0  0  0  0  0  0  0
   22.5887  -21.4626   -8.2458 C   0  0  0  0  0  0  0  0  0  0  0  0
   21.1494  -21.4332   -7.7364 C   0  0  0  0  0  0  0  0  0  0  0  0
   20.8504  -22.5427   -6.8819 N   0  0  0  0  0  0  0  0  0  0  0  0
   25.2863  -20.8957  -11.9169 C   0  0  0  0  0  0  0  0  0  0  0  0
   26.4871  -21.1133  -11.6082 O   0  0  0  0  0  0  0  0  0  0  0  0
   26.5588  -22.6834  -14.2263 C   0  0  0  0  0  0  0  0  0  0  0  0
   26.0287  -21.5293  -15.0458 C   0  0  1  0  0  0  0  0  0  0  0  0
   24.7067  -21.7750  -15.3764 O   0  0  0  0  0  0  0  0  0  0  0  0
   26.1005  -20.2613  -14.2115 C   0  0  2  0  0  0  0  0  0  0  0  0
   25.0456  -20.3699  -13.2021 N   0  0  0  0  0  0  0  0  0  0  0  0
   25.8109  -19.0733  -15.0431 C   0  0  0  0  0  0  0  0  0  0  0  0
   24.6651  -18.5666  -15.0450 O   0  0  0  0  0  0  0  0  0  0  0  0
   27.3689  -15.6362  -18.0375 O   0  0  0  0  0  0  0  0  0  0  0  0
   27.7059  -16.7528  -17.2731 C   0  0  0  0  0  0  0  0  0  0  0  0
   26.4369  -17.2819  -16.6428 C   0  0  2  0  0  0  0  0  0  0  0  0
   26.7964  -18.4557  -15.8674 N   0  0  0  0  0  0  0  0  0  0  0  0
   25.4606  -17.6728  -17.6885 C   0  0  0  0  0  0  0  0  0  0  0  0
   25.5185  -18.8105  -18.2282 O   0  0  0  0  0  0  0  0  0  0  0  0
   24.4690  -16.7934  -18.0889 O   0  0  0  0  0  0  0  0  0  0  0  0
  2  1  1  1
  2  3  1  0
  2  8  1  0
  4  3  1  0
  5  4  1  0
  5  6  1  0
  6  7  1  0
  8  9  2  0
 11 10  1  1
 11 13  1  0
 12 11  1  0
 13 15  1  0
 13 14  1  1
 14  8  1  0
 15 20  1  0
 15 16  2  0
 18 17  1  0
 19 18  1  6
 19 21  1  0
 20 19  1  0
 21 22  2  0
 21 23  1  0
M  END
$$$$
