KTS.pdb
     RDKit          3D

 23 22  0  0  1  0  0  0  0  0999 V2000
   16.8244  -14.7608  -15.3339 N   0  0  0  0  0  0  0  0  0  0  0  0
   16.3703  -13.4903  -15.8664 C   0  0  1  0  0  0  0  0  0  0  0  0
   14.9057  -13.3595  -15.6172 C   0  0  0  0  0  0  0  0  0  0  0  0
   14.1448  -14.4728  -16.2657 C   0  0  0  0  0  0  0  0  0  0  0  0
   12.6678  -14.3761  -16.0347 C   0  0  0  0  0  0  0  0  0  0  0  0
   11.9673  -15.5120  -16.7770 C   0  0  0  0  0  0  0  0  0  0  0  0
   11.7347  -16.6496  -15.9389 N   0  0  0  0  0  0  0  0  0  0  0  0
   17.1634  -12.4174  -15.2342 C   0  0  0  0  0  0  0  0  0  0  0  0
   17.3763  -12.3544  -13.9952 O   0  0  0  0  0  0  0  0  0  0  0  0
   20.5766  -11.6953  -15.6455 C   0  0  0  0  0  0  0  0  0  0  0  0
   19.9054  -10.4245  -16.1131 C   0  0  1  0  0  0  0  0  0  0  0  0
   19.7423  -10.4747  -17.4872 O   0  0  0  0  0  0  0  0  0  0  0  0
   18.5382  -10.3221  -15.4579 C   0  0  2  0  0  0  0  0  0  0  0  0
   17.7245  -11.3972  -16.0283 N   0  0  0  0  0  0  0  0  0  0  0  0
   17.8922   -9.0361  -15.7984 C   0  0  0  0  0  0  0  0  0  0  0  0
   17.1549   -8.9462  -16.8073 O   0  0  0  0  0  0  0  0  0  0  0  0
   15.4783   -5.3561  -15.1047 O   0  0  0  0  0  0  0  0  0  0  0  0
   16.0773   -6.5667  -14.7580 C   0  0  0  0  0  0  0  0  0  0  0  0
   17.4282   -6.6250  -15.4357 C   0  0  2  0  0  0  0  0  0  0  0  0
   18.0696   -7.8581  -15.0155 N   0  0  0  0  0  0  0  0  0  0  0  0
   18.2687   -5.4761  -15.0199 C   0  0  0  0  0  0  0  0  0  0  0  0
   19.1685   -5.6204  -14.1489 O   0  0  0  0  0  0  0  0  0  0  0  0
   18.0784   -4.2254  -15.5824 O   0  0  0  0  0  0  0  0  0  0  0  0
  2  1  1  1
  2  3  1  0
  2  8  1  0
  4  3  1  0
  5  4  1  0
  5  6  1  0
  6  7  1  0
  8  9  2  0
 11 10  1  1
 11 13  1  0
 12 11  1  0
 13 15  1  0
 13 14  1  6
 14  8  1  0
 15 20  1  0
 15 16  2  0
 18 17  1  0
 19 18  1  1
 19 21  1  0
 20 19  1  0
 21 22  2  0
 21 23  1  0
M  END
$$$$
