KTS.pdb
     RDKit          3D

 23 22  0  0  1  0  0  0  0  0999 V2000
   19.3233  -12.3357  -17.2883 N   0  0  0  0  0  0  0  0  0  0  0  0
   20.1333  -11.1702  -17.5872 C   0  0  1  0  0  0  0  0  0  0  0  0
   20.2493  -11.0313  -19.0676 C   0  0  0  0  0  0  0  0  0  0  0  0
   21.5070  -11.6646  -19.5738 C   0  0  0  0  0  0  0  0  0  0  0  0
   21.4570  -13.1613  -19.5370 C   0  0  0  0  0  0  0  0  0  0  0  0
   22.7821  -13.7214  -20.0493 C   0  0  0  0  0  0  0  0  0  0  0  0
   22.7629  -15.1486  -20.1650 N   0  0  0  0  0  0  0  0  0  0  0  0
   19.5076   -9.9984  -16.9429 C   0  0  0  0  0  0  0  0  0  0  0  0
   18.3504   -9.5910  -17.2249 O   0  0  0  0  0  0  0  0  0  0  0  0
   18.0590   -9.6998  -14.1420 C   0  0  0  0  0  0  0  0  0  0  0  0
   19.1491   -8.6802  -13.9044 C   0  0  1  0  0  0  0  0  0  0  0  0
   20.2143   -9.2929  -13.2661 O   0  0  0  0  0  0  0  0  0  0  0  0
   19.6205   -8.1443  -15.2459 C   0  0  2  0  0  0  0  0  0  0  0  0
   20.2132   -9.2773  -15.9589 N   0  0  0  0  0  0  0  0  0  0  0  0
   20.6758   -7.1254  -15.0582 C   0  0  0  0  0  0  0  0  0  0  0  0
   21.8818   -7.4629  -15.0221 O   0  0  0  0  0  0  0  0  0  0  0  0
   21.9582   -2.5067  -14.6614 O   0  0  0  0  0  0  0  0  0  0  0  0
   20.9472   -3.4175  -14.9663 C   0  0  0  0  0  0  0  0  0  0  0  0
   21.4730   -4.8060  -14.6776 C   0  0  2  0  0  0  0  0  0  0  0  0
   20.3843   -5.7377  -14.9118 N   0  0  0  0  0  0  0  0  0  0  0  0
   21.9070   -4.9142  -13.2637 C   0  0  0  0  0  0  0  0  0  0  0  0
   21.1556   -5.4413  -12.3997 O   0  0  0  0  0  0  0  0  0  0  0  0
   23.1458   -4.4374  -12.8697 O   0  0  0  0  0  0  0  0  0  0  0  0
  2  1  1  6
  2  3  1  0
  2  8  1  0
  4  3  1  0
  5  4  1  0
  5  6  1  0
  6  7  1  0
  8  9  2  0
 11 10  1  6
 11 13  1  0
 12 11  1  0
 13 15  1  0
 13 14  1  6
 14  8  1  0
 15 20  1  0
 15 16  2  0
 18 17  1  0
 19 18  1  1
 19 21  1  0
 20 19  1  0
 21 22  2  0
 21 23  1  0
M  END
$$$$
