KTS.pdb
     RDKit          3D

 23 22  0  0  1  0  0  0  0  0999 V2000
   14.1964  -13.3317  -12.7727 N   0  0  0  0  0  0  0  0  0  0  0  0
   15.3025  -12.6014  -13.3617 C   0  0  1  0  0  0  0  0  0  0  0  0
   15.4647  -13.0342  -14.7797 C   0  0  0  0  0  0  0  0  0  0  0  0
   15.7206  -14.5057  -14.8706 C   0  0  0  0  0  0  0  0  0  0  0  0
   16.6069  -14.8692  -16.0224 C   0  0  0  0  0  0  0  0  0  0  0  0
   16.7999  -16.3838  -16.0498 C   0  0  0  0  0  0  0  0  0  0  0  0
   17.5900  -16.8130  -17.1643 N   0  0  0  0  0  0  0  0  0  0  0  0
   15.0246  -11.1579  -13.2250 C   0  0  0  0  0  0  0  0  0  0  0  0
   13.9042  -10.6431  -13.4785 O   0  0  0  0  0  0  0  0  0  0  0  0
   15.0108   -9.0245  -10.3349 C   0  0  0  0  0  0  0  0  0  0  0  0
   16.1300   -8.4999  -11.2048 C   0  0  1  0  0  0  0  0  0  0  0  0
   17.3170   -9.1110  -10.8373 O   0  0  0  0  0  0  0  0  0  0  0  0
   15.8271   -8.8427  -12.6538 C   0  0  2  0  0  0  0  0  0  0  0  0
   16.0420  -10.2843  -12.7915 N   0  0  0  0  0  0  0  0  0  0  0  0
   16.7721   -8.1555  -13.5602 C   0  0  0  0  0  0  0  0  0  0  0  0
   17.9157   -8.6276  -13.7580 O   0  0  0  0  0  0  0  0  0  0  0  0
   17.5278   -5.0373  -17.0968 O   0  0  0  0  0  0  0  0  0  0  0  0
   16.6146   -5.6227  -16.2205 C   0  0  0  0  0  0  0  0  0  0  0  0
   17.3997   -6.3691  -15.1650 C   0  0  2  0  0  0  0  0  0  0  0  0
   16.4404   -6.9480  -14.2414 N   0  0  0  0  0  0  0  0  0  0  0  0
   18.2865   -5.4406  -14.4229 C   0  0  0  0  0  0  0  0  0  0  0  0
   17.8905   -4.8825  -13.3642 O   0  0  0  0  0  0  0  0  0  0  0  0
   19.5649   -5.1716  -14.8814 O   0  0  0  0  0  0  0  0  0  0  0  0
  2  1  1  6
  2  3  1  0
  2  8  1  0
  4  3  1  0
  5  4  1  0
  5  6  1  0
  6  7  1  0
  8  9  2  0
 11 10  1  1
 11 13  1  0
 12 11  1  0
 13 15  1  0
 13 14  1  1
 14  8  1  0
 15 20  1  0
 15 16  2  0
 18 17  1  0
 19 18  1  6
 19 21  1  0
 20 19  1  0
 21 22  2  0
 21 23  1  0
M  END
$$$$
