KTS.pdb
     RDKit          3D

 23 22  0  0  1  0  0  0  0  0999 V2000
   16.0282  -12.1583  -16.2667 N   0  0  0  0  0  0  0  0  0  0  0  0
   17.3106  -11.7982  -15.6923 C   0  0  1  0  0  0  0  0  0  0  0  0
   18.3884  -12.5146  -16.4335 C   0  0  0  0  0  0  0  0  0  0  0  0
   18.2904  -13.9944  -16.2348 C   0  0  0  0  0  0  0  0  0  0  0  0
   19.3657  -14.7479  -16.9560 C   0  0  0  0  0  0  0  0  0  0  0  0
   19.2795  -16.2266  -16.5841 C   0  0  0  0  0  0  0  0  0  0  0  0
   20.2347  -17.0240  -17.2929 N   0  0  0  0  0  0  0  0  0  0  0  0
   17.4444  -10.3291  -15.7523 C   0  0  0  0  0  0  0  0  0  0  0  0
   17.1539   -9.6501  -16.7717 O   0  0  0  0  0  0  0  0  0  0  0  0
   15.7193   -7.8067  -14.2648 C   0  0  0  0  0  0  0  0  0  0  0  0
   17.1025   -7.5755  -13.7008 C   0  0  1  0  0  0  0  0  0  0  0  0
   17.2062   -8.2106  -12.4747 O   0  0  0  0  0  0  0  0  0  0  0  0
   18.1263   -8.1712  -14.6527 C   0  0  2  0  0  0  0  0  0  0  0  0
   17.9181   -9.6202  -14.6301 N   0  0  0  0  0  0  0  0  0  0  0  0
   19.4998   -7.9037  -14.1745 C   0  0  0  0  0  0  0  0  0  0  0  0
   20.2299   -8.8457  -13.7882 O   0  0  0  0  0  0  0  0  0  0  0  0
   23.5817   -6.9483  -14.7697 O   0  0  0  0  0  0  0  0  0  0  0  0
   22.2158   -7.1091  -15.0000 C   0  0  0  0  0  0  0  0  0  0  0  0
   21.4734   -6.4295  -13.8710 C   0  0  2  0  0  0  0  0  0  0  0  0
   20.0535   -6.5909  -14.1286 N   0  0  0  0  0  0  0  0  0  0  0  0
   21.7970   -4.9827  -13.8323 C   0  0  0  0  0  0  0  0  0  0  0  0
   21.1199   -4.1550  -14.4997 O   0  0  0  0  0  0  0  0  0  0  0  0
   22.8490   -4.5176  -13.0617 O   0  0  0  0  0  0  0  0  0  0  0  0
  2  1  1  6
  2  3  1  0
  2  8  1  0
  4  3  1  0
  5  4  1  0
  5  6  1  0
  6  7  1  0
  8  9  2  0
 11 10  1  6
 11 13  1  0
 12 11  1  0
 13 15  1  0
 13 14  1  1
 14  8  1  0
 15 20  1  0
 15 16  2  0
 18 17  1  0
 19 18  1  6
 19 21  1  0
 20 19  1  0
 21 22  2  0
 21 23  1  0
M  END
$$$$
