KTS.pdb
     RDKit          3D

 23 22  0  0  1  0  0  0  0  0999 V2000
   19.6873  -13.6109  -16.4250 N   0  0  0  0  0  0  0  0  0  0  0  0
   19.1749  -12.3238  -16.8548 C   0  0  1  0  0  0  0  0  0  0  0  0
   17.9457  -12.0087  -16.0710 C   0  0  0  0  0  0  0  0  0  0  0  0
   16.8732  -13.0233  -16.3152 C   0  0  0  0  0  0  0  0  0  0  0  0
   15.6092  -12.7203  -15.5703 C   0  0  0  0  0  0  0  0  0  0  0  0
   14.5164  -13.6875  -16.0203 C   0  0  0  0  0  0  0  0  0  0  0  0
   13.2653  -13.4375  -15.3701 N   0  0  0  0  0  0  0  0  0  0  0  0
   20.2452  -11.3219  -16.6808 C   0  0  0  0  0  0  0  0  0  0  0  0
   21.2513  -11.5063  -15.9470 O   0  0  0  0  0  0  0  0  0  0  0  0
   22.4617   -7.4622  -18.6709 C   0  0  0  0  0  0  0  0  0  0  0  0
   21.4614   -8.5948  -18.7010 C   0  0  1  0  0  0  0  0  0  0  0  0
   21.9714   -9.6326  -19.4627 O   0  0  0  0  0  0  0  0  0  0  0  0
   21.2369   -9.0890  -17.2818 C   0  0  2  0  0  0  0  0  0  0  0  0
   20.1682  -10.0869  -17.3553 N   0  0  0  0  0  0  0  0  0  0  0  0
   20.7683   -7.9869  -16.4143 C   0  0  0  0  0  0  0  0  0  0  0  0
   19.6135   -7.5209  -16.5517 O   0  0  0  0  0  0  0  0  0  0  0  0
   21.9033   -7.4378  -12.6643 O   0  0  0  0  0  0  0  0  0  0  0  0
   21.9398   -6.2268  -13.3548 C   0  0  0  0  0  0  0  0  0  0  0  0
   21.0390   -6.3560  -14.5629 C   0  0  2  0  0  0  0  0  0  0  0  0
   21.5859   -7.4095  -15.3992 N   0  0  0  0  0  0  0  0  0  0  0  0
   21.0168   -5.0889  -15.3330 C   0  0  0  0  0  0  0  0  0  0  0  0
   21.7671   -4.9322  -16.3338 O   0  0  0  0  0  0  0  0  0  0  0  0
   20.1707   -4.0567  -14.9648 O   0  0  0  0  0  0  0  0  0  0  0  0
  2  1  1  1
  2  3  1  0
  2  8  1  0
  4  3  1  0
  5  4  1  0
  5  6  1  0
  6  7  1  0
  8  9  2  0
 11 10  1  1
 11 13  1  0
 12 11  1  0
 13 15  1  0
 13 14  1  6
 14  8  1  0
 15 20  1  0
 15 16  2  0
 18 17  1  0
 19 18  1  1
 19 21  1  0
 20 19  1  0
 21 22  2  0
 21 23  1  0
M  END
$$$$
