KTS.pdb
     RDKit          3D

 23 22  0  0  1  0  0  0  0  0999 V2000
   18.1424  -12.0003  -16.6000 N   0  0  0  0  0  0  0  0  0  0  0  0
   19.4884  -11.4912  -16.4184 C   0  0  1  0  0  0  0  0  0  0  0  0
   20.4251  -12.2979  -17.2528 C   0  0  0  0  0  0  0  0  0  0  0  0
   20.6519  -13.6516  -16.6570 C   0  0  0  0  0  0  0  0  0  0  0  0
   20.1511  -14.7603  -17.5312 C   0  0  0  0  0  0  0  0  0  0  0  0
   20.5444  -16.1019  -16.9167 C   0  0  0  0  0  0  0  0  0  0  0  0
   20.1185  -17.2127  -17.7136 N   0  0  0  0  0  0  0  0  0  0  0  0
   19.4885  -10.0572  -16.7695 C   0  0  0  0  0  0  0  0  0  0  0  0
   19.3141   -9.6331  -17.9418 O   0  0  0  0  0  0  0  0  0  0  0  0
   17.1929   -7.7019  -16.3419 C   0  0  0  0  0  0  0  0  0  0  0  0
   18.3158   -7.1536  -15.4917 C   0  0  1  0  0  0  0  0  0  0  0  0
   18.1708   -7.6140  -14.1939 O   0  0  0  0  0  0  0  0  0  0  0  0
   19.6397   -7.6520  -16.0465 C   0  0  2  0  0  0  0  0  0  0  0  0
   19.6911   -9.0881  -15.7665 N   0  0  0  0  0  0  0  0  0  0  0  0
   20.7729   -7.0129  -15.3436 C   0  0  0  0  0  0  0  0  0  0  0  0
   21.2217   -7.5095  -14.2846 O   0  0  0  0  0  0  0  0  0  0  0  0
   24.0362   -3.4748  -15.1308 O   0  0  0  0  0  0  0  0  0  0  0  0
   23.1020   -4.1523  -15.9135 C   0  0  0  0  0  0  0  0  0  0  0  0
   22.5007   -5.2525  -15.0674 C   0  0  2  0  0  0  0  0  0  0  0  0
   21.4006   -5.8257  -15.8220 N   0  0  0  0  0  0  0  0  0  0  0  0
   21.9789   -4.7023  -13.7930 C   0  0  0  0  0  0  0  0  0  0  0  0
   20.8133   -4.2267  -13.7282 O   0  0  0  0  0  0  0  0  0  0  0  0
   22.7644   -4.7023  -12.6529 O   0  0  0  0  0  0  0  0  0  0  0  0
  2  1  1  6
  2  3  1  0
  2  8  1  0
  4  3  1  0
  5  4  1  0
  5  6  1  0
  6  7  1  0
  8  9  2  0
 11 10  1  6
 11 13  1  0
 12 11  1  0
 13 15  1  0
 13 14  1  1
 14  8  1  0
 15 20  1  0
 15 16  2  0
 18 17  1  0
 19 18  1  6
 19 21  1  0
 20 19  1  0
 21 22  2  0
 21 23  1  0
M  END
$$$$
