KTS.pdb
     RDKit          3D

 23 22  0  0  1  0  0  0  0  0999 V2000
   18.8045  -12.4899  -16.6694 N   0  0  0  0  0  0  0  0  0  0  0  0
   19.0267  -11.1023  -17.0286 C   0  0  1  0  0  0  0  0  0  0  0  0
   17.7237  -10.4917  -17.4207 C   0  0  0  0  0  0  0  0  0  0  0  0
   17.0931  -11.2416  -18.5516 C   0  0  0  0  0  0  0  0  0  0  0  0
   15.8290  -10.6012  -19.0375 C   0  0  0  0  0  0  0  0  0  0  0  0
   15.3005  -11.3803  -20.2398 C   0  0  0  0  0  0  0  0  0  0  0  0
   14.1199  -10.7907  -20.7958 N   0  0  0  0  0  0  0  0  0  0  0  0
   19.6605  -10.4262  -15.8793 C   0  0  0  0  0  0  0  0  0  0  0  0
   19.2674  -10.5678  -14.6919 O   0  0  0  0  0  0  0  0  0  0  0  0
   22.7808  -11.0417  -14.6977 C   0  0  0  0  0  0  0  0  0  0  0  0
   22.8874   -9.5633  -14.9930 C   0  0  1  0  0  0  0  0  0  0  0  0
   23.4383   -9.3889  -16.2513 O   0  0  0  0  0  0  0  0  0  0  0  0
   21.4937   -8.9580  -14.9769 C   0  0  2  0  0  0  0  0  0  0  0  0
   20.7628   -9.5729  -16.0865 N   0  0  0  0  0  0  0  0  0  0  0  0
   21.5552   -7.5018  -15.2270 C   0  0  0  0  0  0  0  0  0  0  0  0
   21.8154   -7.0672  -16.3729 O   0  0  0  0  0  0  0  0  0  0  0  0
   19.6002   -4.8968  -13.1469 O   0  0  0  0  0  0  0  0  0  0  0  0
   20.1568   -4.4609  -14.3488 C   0  0  0  0  0  0  0  0  0  0  0  0
   21.5054   -5.1283  -14.5029 C   0  0  2  0  0  0  0  0  0  0  0  0
   21.3270   -6.5376  -14.2022 N   0  0  0  0  0  0  0  0  0  0  0  0
   22.4838   -4.5500  -13.5502 C   0  0  0  0  0  0  0  0  0  0  0  0
   22.9354   -5.2389  -12.5960 O   0  0  0  0  0  0  0  0  0  0  0  0
   22.9172   -3.2430  -13.6938 O   0  0  0  0  0  0  0  0  0  0  0  0
  2  1  1  1
  2  3  1  0
  2  8  1  0
  4  3  1  0
  5  4  1  0
  5  6  1  0
  6  7  1  0
  8  9  2  0
 11 10  1  6
 11 13  1  0
 12 11  1  0
 13 15  1  0
 13 14  1  6
 14  8  1  0
 15 20  1  0
 15 16  2  0
 18 17  1  0
 19 18  1  1
 19 21  1  0
 20 19  1  0
 21 22  2  0
 21 23  1  0
M  END
$$$$
