KTS.pdb
     RDKit          3D

 23 22  0  0  1  0  0  0  0  0999 V2000
   17.9711  -12.5279  -16.0396 N   0  0  0  0  0  0  0  0  0  0  0  0
   17.8717  -11.0861  -16.1631 C   0  0  1  0  0  0  0  0  0  0  0  0
   16.7291  -10.6091  -15.3318 C   0  0  0  0  0  0  0  0  0  0  0  0
   15.4407  -11.2255  -15.7780 C   0  0  0  0  0  0  0  0  0  0  0  0
   14.2530  -10.6768  -15.0484 C   0  0  0  0  0  0  0  0  0  0  0  0
   12.9807  -11.3000  -15.6184 C   0  0  0  0  0  0  0  0  0  0  0  0
   11.8224  -10.9868  -14.8368 N   0  0  0  0  0  0  0  0  0  0  0  0
   19.1655  -10.5003  -15.7598 C   0  0  0  0  0  0  0  0  0  0  0  0
   19.9281  -11.0292  -14.9092 O   0  0  0  0  0  0  0  0  0  0  0  0
   22.1343  -10.1414  -17.6177 C   0  0  0  0  0  0  0  0  0  0  0  0
   21.6954   -8.7234  -17.3332 C   0  0  1  0  0  0  0  0  0  0  0  0
   20.8778   -8.2849  -18.3611 O   0  0  0  0  0  0  0  0  0  0  0  0
   20.9069   -8.7051  -16.0344 C   0  0  2  0  0  0  0  0  0  0  0  0
   19.5989   -9.2895  -16.3362 N   0  0  0  0  0  0  0  0  0  0  0  0
   20.6875   -7.3158  -15.5776 C   0  0  0  0  0  0  0  0  0  0  0  0
   19.6582   -6.6911  -15.9240 O   0  0  0  0  0  0  0  0  0  0  0  0
   21.8856   -5.7497  -12.1583 O   0  0  0  0  0  0  0  0  0  0  0  0
   22.2429   -4.9062  -13.2097 C   0  0  0  0  0  0  0  0  0  0  0  0
   21.3614   -5.2420  -14.3920 C   0  0  2  0  0  0  0  0  0  0  0  0
   21.6132   -6.6294  -14.7385 N   0  0  0  0  0  0  0  0  0  0  0  0
   21.6996   -4.3840  -15.5533 C   0  0  0  0  0  0  0  0  0  0  0  0
   22.5746   -4.7453  -16.3857 O   0  0  0  0  0  0  0  0  0  0  0  0
   21.0591   -3.1710  -15.7419 O   0  0  0  0  0  0  0  0  0  0  0  0
  2  1  1  1
  2  3  1  0
  2  8  1  0
  4  3  1  0
  5  4  1  0
  5  6  1  0
  6  7  1  0
  8  9  2  0
 11 10  1  6
 11 13  1  0
 12 11  1  0
 13 15  1  0
 13 14  1  6
 14  8  1  0
 15 20  1  0
 15 16  2  0
 18 17  1  0
 19 18  1  1
 19 21  1  0
 20 19  1  0
 21 22  2  0
 21 23  1  0
M  END
$$$$
