PPH.pdb
     RDKit          3D

 25 27  0  0  1  0  0  0  0  0999 V2000
   28.7134  -19.0879  -15.8683 N   0  0  0  0  0  0  0  0  0  0  0  0
   27.8643  -18.1445  -16.5481 C   0  0  0  0  0  0  0  0  0  0  0  0
   27.2195  -17.2883  -15.5045 C   0  0  0  0  0  0  0  0  0  0  0  0
   27.8964  -17.7568  -14.2061 C   0  0  0  0  0  0  0  0  0  0  0  0
   28.1639  -19.2109  -14.5314 C   0  0  1  0  0  0  0  0  0  0  0  0
   26.8844  -19.9840  -14.5366 C   0  0  0  0  0  0  0  0  0  0  0  0
   26.5147  -20.4524  -15.6775 O   0  0  0  0  0  0  0  0  0  0  0  0
   26.1135  -20.2022  -13.3816 N   0  0  0  0  0  0  0  0  0  0  0  0
   26.3317  -19.5730  -12.1016 C   0  0  0  0  0  0  0  0  0  0  0  0
   26.2437  -20.8112  -11.1937 C   0  0  0  0  0  0  0  0  0  0  0  0
   25.1918  -21.6694  -11.8624 C   0  0  0  0  0  0  0  0  0  0  0  0
   24.9693  -21.0423  -13.2287 C   0  0  1  0  0  0  0  0  0  0  0  0
   23.6862  -20.2864  -13.2974 C   0  0  0  0  0  0  0  0  0  0  0  0
   23.4915  -19.4150  -12.4102 O   0  0  0  0  0  0  0  0  0  0  0  0
   22.6841  -20.4692  -14.2666 N   0  0  0  0  0  0  0  0  0  0  0  0
   21.5399  -19.5874  -14.4201 C   0  0  1  0  0  0  0  0  0  0  0  0
   21.4285  -19.1027  -15.8602 C   0  0  0  0  0  0  0  0  0  0  0  0
   20.2576  -18.2284  -16.0801 C   0  0  0  0  0  0  0  0  0  0  0  0
   19.6334  -17.4317  -15.1556 C   0  0  0  0  0  0  0  0  0  0  0  0
   18.6091  -16.7939  -15.7258 N   0  0  0  0  0  0  0  0  0  0  0  0
   18.5678  -17.1706  -17.0030 C   0  0  0  0  0  0  0  0  0  0  0  0
   19.5692  -18.0457  -17.2298 N   0  0  0  0  0  0  0  0  0  0  0  0
   20.3021  -20.1792  -13.9042 C   0  0  0  0  0  0  0  0  0  0  0  0
   19.1883  -19.4919  -13.5198 O   0  0  0  0  0  0  0  0  0  0  0  0
   20.2690  -21.4505  -13.8077 O   0  0  0  0  0  0  0  0  0  0  0  0
  1  2  1  0
  2  3  1  0
  4  3  1  0
  5  1  1  0
  5  4  1  0
  6  7  2  0
  5  6  1  6
  8  6  1  0
  9  8  1  0
  9 10  1  0
 11 10  1  0
 12  8  1  0
 12 11  1  0
 12 13  1  1
 14 13  2  0
 15 13  1  0
 16 15  1  0
 17 18  1  0
 16 17  1  6
 18 22  1  0
 19 20  1  0
 19 18  2  0
 20 21  1  0
 21 22  2  0
 23 16  1  0
 23 24  1  0
 25 23  2  0
M  END
$$$$
