PPH.pdb
     RDKit          3D

 25 27  0  0  1  0  0  0  0  0999 V2000
   27.9873  -18.5108  -16.1616 N   0  0  0  0  0  0  0  0  0  0  0  0
   26.9160  -17.6516  -16.5940 C   0  0  0  0  0  0  0  0  0  0  0  0
   26.3752  -16.9636  -15.3806 C   0  0  0  0  0  0  0  0  0  0  0  0
   27.3349  -17.4182  -14.2689 C   0  0  0  0  0  0  0  0  0  0  0  0
   27.7158  -18.7965  -14.7656 C   0  0  1  0  0  0  0  0  0  0  0  0
   26.5639  -19.7376  -14.6154 C   0  0  0  0  0  0  0  0  0  0  0  0
   26.0178  -20.1376  -15.7106 O   0  0  0  0  0  0  0  0  0  0  0  0
   26.0869  -20.1756  -13.3678 N   0  0  0  0  0  0  0  0  0  0  0  0
   26.4080  -19.5773  -12.0948 C   0  0  0  0  0  0  0  0  0  0  0  0
   26.7506  -20.8475  -11.2983 C   0  0  0  0  0  0  0  0  0  0  0  0
   25.7918  -21.8817  -11.8471 C   0  0  0  0  0  0  0  0  0  0  0  0
   25.1907  -21.2526  -13.0931 C   0  0  1  0  0  0  0  0  0  0  0  0
   23.7898  -20.7940  -12.8708 C   0  0  0  0  0  0  0  0  0  0  0  0
   23.6210  -19.8658  -12.0376 O   0  0  0  0  0  0  0  0  0  0  0  0
   22.6514  -21.3130  -13.5124 N   0  0  0  0  0  0  0  0  0  0  0  0
   21.3085  -20.7949  -13.3164 C   0  0  1  0  0  0  0  0  0  0  0  0
   20.7707  -20.2006  -14.6120 C   0  0  0  0  0  0  0  0  0  0  0  0
   21.7057  -19.2381  -15.2309 C   0  0  0  0  0  0  0  0  0  0  0  0
   21.9836  -17.9643  -14.8076 C   0  0  0  0  0  0  0  0  0  0  0  0
   22.8752  -17.4002  -15.6249 N   0  0  0  0  0  0  0  0  0  0  0  0
   23.1729  -18.2947  -16.5663 C   0  0  0  0  0  0  0  0  0  0  0  0
   22.4649  -19.4195  -16.3354 N   0  0  0  0  0  0  0  0  0  0  0  0
   20.4103  -21.7800  -12.7070 C   0  0  0  0  0  0  0  0  0  0  0  0
   20.6656  -23.1123  -12.5639 O   0  0  0  0  0  0  0  0  0  0  0  0
   19.2914  -21.3476  -12.2739 O   0  0  0  0  0  0  0  0  0  0  0  0
  1  2  1  0
  2  3  1  0
  4  3  1  0
  5  1  1  0
  5  4  1  0
  6  7  2  0
  5  6  1  6
  8  6  1  0
  9  8  1  0
  9 10  1  0
 11 10  1  0
 12  8  1  0
 12 11  1  0
 12 13  1  1
 14 13  2  0
 15 13  1  0
 16 15  1  0
 17 18  1  0
 16 17  1  6
 18 22  1  0
 19 20  1  0
 19 18  2  0
 20 21  1  0
 21 22  2  0
 23 16  1  0
 23 24  1  0
 25 23  2  0
M  END
$$$$
