PPH.pdb
     RDKit          3D

 25 27  0  0  1  0  0  0  0  0999 V2000
   28.5355  -19.4718  -14.8777 N   0  0  0  0  0  0  0  0  0  0  0  0
   27.5311  -19.0370  -15.8131 C   0  0  0  0  0  0  0  0  0  0  0  0
   26.6258  -18.0897  -15.0911 C   0  0  0  0  0  0  0  0  0  0  0  0
   27.3049  -17.9398  -13.7200 C   0  0  0  0  0  0  0  0  0  0  0  0
   27.9413  -19.3045  -13.5650 C   0  0  1  0  0  0  0  0  0  0  0  0
   26.8929  -20.3381  -13.3052 C   0  0  0  0  0  0  0  0  0  0  0  0
   26.8110  -21.2867  -14.1718 O   0  0  0  0  0  0  0  0  0  0  0  0
   26.0369  -20.3013  -12.1908 N   0  0  0  0  0  0  0  0  0  0  0  0
   25.8762  -19.1787  -11.2987 C   0  0  0  0  0  0  0  0  0  0  0  0
   25.9801  -19.9112   -9.9504 C   0  0  0  0  0  0  0  0  0  0  0  0
   25.3131  -21.2433  -10.2162 C   0  0  0  0  0  0  0  0  0  0  0  0
   25.1485  -21.3173  -11.7252 C   0  0  1  0  0  0  0  0  0  0  0  0
   23.7376  -21.0872  -12.1481 C   0  0  0  0  0  0  0  0  0  0  0  0
   23.3851  -19.8920  -12.3254 O   0  0  0  0  0  0  0  0  0  0  0  0
   22.7773  -22.0917  -12.3620 N   0  0  0  0  0  0  0  0  0  0  0  0
   21.4625  -21.8434  -12.9276 C   0  0  1  0  0  0  0  0  0  0  0  0
   20.8694  -23.1307  -13.4861 C   0  0  0  0  0  0  0  0  0  0  0  0
   21.7541  -23.7880  -14.4704 C   0  0  0  0  0  0  0  0  0  0  0  0
   22.9829  -23.3561  -14.8977 C   0  0  0  0  0  0  0  0  0  0  0  0
   23.4761  -24.2115  -15.7956 N   0  0  0  0  0  0  0  0  0  0  0  0
   22.5807  -25.1859  -15.9499 C   0  0  0  0  0  0  0  0  0  0  0  0
   21.5262  -24.9373  -15.1460 N   0  0  0  0  0  0  0  0  0  0  0  0
   20.5730  -21.1453  -11.9949 C   0  0  0  0  0  0  0  0  0  0  0  0
   19.5449  -20.3179  -12.3398 O   0  0  0  0  0  0  0  0  0  0  0  0
   20.7838  -21.3313  -10.7509 O   0  0  0  0  0  0  0  0  0  0  0  0
  1  2  1  0
  2  3  1  0
  4  3  1  0
  5  1  1  0
  5  4  1  0
  6  7  2  0
  5  6  1  6
  8  6  1  0
  9  8  1  0
  9 10  1  0
 11 10  1  0
 12  8  1  0
 12 11  1  0
 12 13  1  1
 14 13  2  0
 15 13  1  0
 16 15  1  0
 17 18  1  0
 16 17  1  1
 18 22  1  0
 19 20  1  0
 19 18  2  0
 20 21  1  0
 21 22  2  0
 23 16  1  0
 23 24  1  0
 25 23  2  0
M  END
$$$$
