PPH.pdb
     RDKit          3D

 25 27  0  0  1  0  0  0  0  0999 V2000
   19.4698  -13.9184  -17.7480 N   0  0  0  0  0  0  0  0  0  0  0  0
   18.0835  -13.5515  -17.6196 C   0  0  0  0  0  0  0  0  0  0  0  0
   17.8915  -12.2609  -18.3515 C   0  0  0  0  0  0  0  0  0  0  0  0
   19.2629  -12.0270  -19.0057 C   0  0  0  0  0  0  0  0  0  0  0  0
   20.1788  -12.6763  -17.9902 C   0  0  1  0  0  0  0  0  0  0  0  0
   20.2544  -11.8410  -16.7526 C   0  0  0  0  0  0  0  0  0  0  0  0
   19.6735  -12.3255  -15.7107 O   0  0  0  0  0  0  0  0  0  0  0  0
   20.9134  -10.6005  -16.7017 N   0  0  0  0  0  0  0  0  0  0  0  0
   21.3854   -9.8588  -17.8457 C   0  0  0  0  0  0  0  0  0  0  0  0
   22.8017   -9.5135  -17.3555 C   0  0  0  0  0  0  0  0  0  0  0  0
   22.6213   -9.2967  -15.8687 C   0  0  0  0  0  0  0  0  0  0  0  0
   21.2274   -9.8134  -15.5526 C   0  0  1  0  0  0  0  0  0  0  0  0
   20.2550   -8.7056  -15.3298 C   0  0  0  0  0  0  0  0  0  0  0  0
   19.6018   -8.3126  -16.3314 O   0  0  0  0  0  0  0  0  0  0  0  0
   20.0127   -8.0698  -14.0994 N   0  0  0  0  0  0  0  0  0  0  0  0
   19.0287   -7.0171  -13.9154 C   0  0  1  0  0  0  0  0  0  0  0  0
   18.4849   -7.0369  -12.4924 C   0  0  0  0  0  0  0  0  0  0  0  0
   17.8466   -8.3227  -12.1421 C   0  0  0  0  0  0  0  0  0  0  0  0
   17.1672   -9.1663  -12.9824 C   0  0  0  0  0  0  0  0  0  0  0  0
   16.7295  -10.2274  -12.3015 N   0  0  0  0  0  0  0  0  0  0  0  0
   17.1187  -10.0760  -11.0364 C   0  0  0  0  0  0  0  0  0  0  0  0
   17.8010   -8.9172  -10.9281 N   0  0  0  0  0  0  0  0  0  0  0  0
   19.5272   -5.7036  -14.3334 C   0  0  0  0  0  0  0  0  0  0  0  0
   20.8013   -5.4228  -14.7312 O   0  0  0  0  0  0  0  0  0  0  0  0
   18.6909   -4.7408  -14.3219 O   0  0  0  0  0  0  0  0  0  0  0  0
  1  2  1  0
  2  3  1  0
  4  3  1  0
  5  1  1  0
  5  4  1  0
  6  7  2  0
  5  6  1  1
  8  6  1  0
  9  8  1  0
  9 10  1  0
 11 10  1  0
 12  8  1  0
 12 11  1  0
 12 13  1  6
 14 13  2  0
 15 13  1  0
 16 15  1  0
 17 18  1  0
 16 17  1  1
 18 22  1  0
 19 20  1  0
 19 18  2  0
 20 21  1  0
 21 22  2  0
 23 16  1  0
 23 24  1  0
 25 23  2  0
M  END
$$$$
