PPH.pdb
     RDKit          3D

 25 27  0  0  1  0  0  0  0  0999 V2000
   26.9584  -16.9335  -17.2064 N   0  0  0  0  0  0  0  0  0  0  0  0
   25.6285  -16.4449  -16.9497 C   0  0  0  0  0  0  0  0  0  0  0  0
   25.4962  -16.2601  -15.4711 C   0  0  0  0  0  0  0  0  0  0  0  0
   26.9138  -16.5591  -14.9570 C   0  0  0  0  0  0  0  0  0  0  0  0
   27.3792  -17.5770  -15.9763 C   0  0  1  0  0  0  0  0  0  0  0  0
   26.6702  -18.8770  -15.7706 C   0  0  0  0  0  0  0  0  0  0  0  0
   25.9647  -19.2961  -16.7627 O   0  0  0  0  0  0  0  0  0  0  0  0
   26.7524  -19.6171  -14.5784 N   0  0  0  0  0  0  0  0  0  0  0  0
   27.1850  -19.0993  -13.3030 C   0  0  0  0  0  0  0  0  0  0  0  0
   28.1661  -20.2124  -12.8986 C   0  0  0  0  0  0  0  0  0  0  0  0
   27.5242  -21.4692  -13.4451 C   0  0  0  0  0  0  0  0  0  0  0  0
   26.4137  -20.9874  -14.3639 C   0  0  1  0  0  0  0  0  0  0  0  0
   25.0649  -21.1586  -13.7525 C   0  0  0  0  0  0  0  0  0  0  0  0
   24.7093  -22.3349  -13.4805 O   0  0  0  0  0  0  0  0  0  0  0  0
   24.1657  -20.1182  -13.4590 N   0  0  0  0  0  0  0  0  0  0  0  0
   22.8666  -20.3248  -12.8427 C   0  0  1  0  0  0  0  0  0  0  0  0
   22.8338  -19.7133  -11.4477 C   0  0  0  0  0  0  0  0  0  0  0  0
   23.9091  -20.2259  -10.5733 C   0  0  0  0  0  0  0  0  0  0  0  0
   25.1275  -19.6460  -10.3319 C   0  0  0  0  0  0  0  0  0  0  0  0
   25.8322  -20.4066   -9.4917 N   0  0  0  0  0  0  0  0  0  0  0  0
   25.0827  -21.4662   -9.1911 C   0  0  0  0  0  0  0  0  0  0  0  0
   23.9073  -21.3659   -9.8456 N   0  0  0  0  0  0  0  0  0  0  0  0
   21.7623  -19.8856  -13.7006 C   0  0  0  0  0  0  0  0  0  0  0  0
   20.4420  -20.1714  -13.5116 O   0  0  0  0  0  0  0  0  0  0  0  0
   22.0688  -19.1732  -14.7130 O   0  0  0  0  0  0  0  0  0  0  0  0
  1  2  1  0
  2  3  1  0
  4  3  1  0
  5  1  1  0
  5  4  1  0
  6  7  2  0
  5  6  1  1
  8  6  1  0
  9  8  1  0
  9 10  1  0
 11 10  1  0
 12  8  1  0
 12 11  1  0
 12 13  1  1
 14 13  2  0
 15 13  1  0
 16 15  1  0
 17 18  1  0
 16 17  1  1
 18 22  1  0
 19 20  1  0
 19 18  2  0
 20 21  1  0
 21 22  2  0
 23 16  1  0
 23 24  1  0
 25 23  2  0
M  END
$$$$
