PPH.pdb
     RDKit          3D

 25 27  0  0  1  0  0  0  0  0999 V2000
   28.4090  -19.3866  -15.3507 N   0  0  0  0  0  0  0  0  0  0  0  0
   27.4219  -18.7328  -16.1700 C   0  0  0  0  0  0  0  0  0  0  0  0
   26.6653  -17.7870  -15.2919 C   0  0  0  0  0  0  0  0  0  0  0  0
   27.4165  -17.8813  -13.9539 C   0  0  0  0  0  0  0  0  0  0  0  0
   27.8963  -19.3165  -13.9956 C   0  0  1  0  0  0  0  0  0  0  0  0
   26.7473  -20.2524  -13.7980 C   0  0  0  0  0  0  0  0  0  0  0  0
   26.4927  -21.0456  -14.7796 O   0  0  0  0  0  0  0  0  0  0  0  0
   25.9767  -20.2859  -12.6229 N   0  0  0  0  0  0  0  0  0  0  0  0
   26.0177  -19.3006  -11.5697 C   0  0  0  0  0  0  0  0  0  0  0  0
   26.1147  -20.2360  -10.3528 C   0  0  0  0  0  0  0  0  0  0  0  0
   25.2684  -21.4261  -10.7497 C   0  0  0  0  0  0  0  0  0  0  0  0
   24.9986  -21.2509  -12.2350 C   0  0  1  0  0  0  0  0  0  0  0  0
   23.6039  -20.7973  -12.5028 C   0  0  0  0  0  0  0  0  0  0  0  0
   23.3249  -19.6080  -12.1998 O   0  0  0  0  0  0  0  0  0  0  0  0
   22.5837  -21.5872  -13.0617 N   0  0  0  0  0  0  0  0  0  0  0  0
   21.2760  -21.0733  -13.4302 C   0  0  1  0  0  0  0  0  0  0  0  0
   20.9094  -21.5092  -14.8433 C   0  0  0  0  0  0  0  0  0  0  0  0
   21.8998  -21.0752  -15.8505 C   0  0  0  0  0  0  0  0  0  0  0  0
   22.4206  -19.8175  -16.0117 C   0  0  0  0  0  0  0  0  0  0  0  0
   23.2828  -19.8119  -17.0304 N   0  0  0  0  0  0  0  0  0  0  0  0
   23.3222  -21.0485  -17.5245 C   0  0  0  0  0  0  0  0  0  0  0  0
   22.4822  -21.8273  -16.8119 N   0  0  0  0  0  0  0  0  0  0  0  0
   20.2477  -21.3896  -12.4347 C   0  0  0  0  0  0  0  0  0  0  0  0
   18.9998  -20.8421  -12.3741 O   0  0  0  0  0  0  0  0  0  0  0  0
   20.5523  -22.2543  -11.5481 O   0  0  0  0  0  0  0  0  0  0  0  0
  1  2  1  0
  2  3  1  0
  4  3  1  0
  5  1  1  0
  5  4  1  0
  6  7  2  0
  5  6  1  6
  8  6  1  0
  9  8  1  0
  9 10  1  0
 11 10  1  0
 12  8  1  0
 12 11  1  0
 12 13  1  1
 14 13  2  0
 15 13  1  0
 16 15  1  0
 17 18  1  0
 16 17  1  6
 18 22  1  0
 19 20  1  0
 19 18  2  0
 20 21  1  0
 21 22  2  0
 23 16  1  0
 23 24  1  0
 25 23  2  0
M  END
$$$$
