PPH.pdb
     RDKit          3D

 25 27  0  0  1  0  0  0  0  0999 V2000
   28.2667  -19.5422  -15.7489 N   0  0  0  0  0  0  0  0  0  0  0  0
   27.3429  -18.6240  -16.3624 C   0  0  0  0  0  0  0  0  0  0  0  0
   26.8712  -17.6842  -15.2982 C   0  0  0  0  0  0  0  0  0  0  0  0
   27.7227  -18.0835  -14.0821 C   0  0  0  0  0  0  0  0  0  0  0  0
   27.9164  -19.5623  -14.3413 C   0  0  1  0  0  0  0  0  0  0  0  0
   26.6375  -20.3006  -14.1081 C   0  0  0  0  0  0  0  0  0  0  0  0
   26.1595  -20.9324  -15.1230 O   0  0  0  0  0  0  0  0  0  0  0  0
   25.9773  -20.3213  -12.8673 N   0  0  0  0  0  0  0  0  0  0  0  0
   26.2910  -19.4758  -11.7410 C   0  0  0  0  0  0  0  0  0  0  0  0
   26.3155  -20.5370  -10.6281 C   0  0  0  0  0  0  0  0  0  0  0  0
   25.2314  -21.5096  -11.0392 C   0  0  0  0  0  0  0  0  0  0  0  0
   24.8732  -21.1333  -12.4674 C   0  0  1  0  0  0  0  0  0  0  0  0
   23.5698  -20.4142  -12.5486 C   0  0  0  0  0  0  0  0  0  0  0  0
   23.5954  -19.1689  -12.3672 O   0  0  0  0  0  0  0  0  0  0  0  0
   22.3243  -21.0125  -12.8087 N   0  0  0  0  0  0  0  0  0  0  0  0
   21.1602  -20.2809  -13.2776 C   0  0  1  0  0  0  0  0  0  0  0  0
   21.2346  -18.8228  -12.8422 C   0  0  0  0  0  0  0  0  0  0  0  0
   20.1073  -18.0154  -13.3529 C   0  0  0  0  0  0  0  0  0  0  0  0
   19.0114  -18.4657  -14.0424 C   0  0  0  0  0  0  0  0  0  0  0  0
   18.2113  -17.4399  -14.3404 N   0  0  0  0  0  0  0  0  0  0  0  0
   18.7788  -16.3382  -13.8515 C   0  0  0  0  0  0  0  0  0  0  0  0
   19.9361  -16.6780  -13.2471 N   0  0  0  0  0  0  0  0  0  0  0  0
   20.9316  -20.4517  -14.7153 C   0  0  0  0  0  0  0  0  0  0  0  0
   19.7746  -20.8841  -15.2940 O   0  0  0  0  0  0  0  0  0  0  0  0
   21.9048  -20.1697  -15.4898 O   0  0  0  0  0  0  0  0  0  0  0  0
  1  2  1  0
  2  3  1  0
  4  3  1  0
  5  1  1  0
  5  4  1  0
  6  7  2  0
  5  6  1  6
  8  6  1  0
  9  8  1  0
  9 10  1  0
 11 10  1  0
 12  8  1  0
 12 11  1  0
 12 13  1  1
 14 13  2  0
 15 13  1  0
 16 15  1  0
 17 18  1  0
 16 17  1  6
 18 22  1  0
 19 20  1  0
 19 18  2  0
 20 21  1  0
 21 22  2  0
 23 16  1  0
 23 24  1  0
 25 23  2  0
M  END
$$$$
