PPH.pdb
     RDKit          3D

 25 27  0  0  1  0  0  0  0  0999 V2000
   26.9280  -16.7798  -17.2484 N   0  0  0  0  0  0  0  0  0  0  0  0
   25.7814  -16.1829  -16.6145 C   0  0  0  0  0  0  0  0  0  0  0  0
   25.9212  -16.3976  -15.1405 C   0  0  0  0  0  0  0  0  0  0  0  0
   27.3113  -17.0422  -15.0154 C   0  0  0  0  0  0  0  0  0  0  0  0
   27.3961  -17.7962  -16.3253 C   0  0  1  0  0  0  0  0  0  0  0  0
   26.4792  -18.9769  -16.3033 C   0  0  0  0  0  0  0  0  0  0  0  0
   25.6036  -19.0268  -17.2459 O   0  0  0  0  0  0  0  0  0  0  0  0
   26.5478  -19.9851  -15.3263 N   0  0  0  0  0  0  0  0  0  0  0  0
   27.2319  -19.8755  -14.0607 C   0  0  0  0  0  0  0  0  0  0  0  0
   27.9976  -21.2092  -14.0715 C   0  0  0  0  0  0  0  0  0  0  0  0
   27.0432  -22.1626  -14.7573 C   0  0  0  0  0  0  0  0  0  0  0  0
   25.9561  -21.2842  -15.3541 C   0  0  1  0  0  0  0  0  0  0  0  0
   24.6862  -21.3557  -14.5765 C   0  0  0  0  0  0  0  0  0  0  0  0
   24.2342  -22.5043  -14.3305 O   0  0  0  0  0  0  0  0  0  0  0  0
   23.9591  -20.2501  -14.1009 N   0  0  0  0  0  0  0  0  0  0  0  0
   22.7727  -20.3620  -13.2701 C   0  0  1  0  0  0  0  0  0  0  0  0
   22.9974  -19.6845  -11.9241 C   0  0  0  0  0  0  0  0  0  0  0  0
   24.1855  -20.2026  -11.2145 C   0  0  0  0  0  0  0  0  0  0  0  0
   24.2115  -21.1539  -10.2279 C   0  0  0  0  0  0  0  0  0  0  0  0
   25.4684  -21.3558   -9.8270 N   0  0  0  0  0  0  0  0  0  0  0  0
   26.2485  -20.5471  -10.5427 C   0  0  0  0  0  0  0  0  0  0  0  0
   25.4760  -19.8391  -11.3923 N   0  0  0  0  0  0  0  0  0  0  0  0
   21.5607  -19.9088  -13.9586 C   0  0  0  0  0  0  0  0  0  0  0  0
   20.2809  -20.0836  -13.5203 O   0  0  0  0  0  0  0  0  0  0  0  0
   21.7228  -19.2974  -15.0660 O   0  0  0  0  0  0  0  0  0  0  0  0
  1  2  1  0
  2  3  1  0
  4  3  1  0
  5  1  1  0
  5  4  1  0
  6  7  2  0
  5  6  1  1
  8  6  1  0
  9  8  1  0
  9 10  1  0
 11 10  1  0
 12  8  1  0
 12 11  1  0
 12 13  1  1
 14 13  2  0
 15 13  1  0
 16 15  1  0
 17 18  1  0
 16 17  1  1
 18 22  1  0
 19 20  1  0
 19 18  2  0
 20 21  1  0
 21 22  2  0
 23 16  1  0
 23 24  1  0
 25 23  2  0
M  END
$$$$
