PPH.pdb
     RDKit          3D

 25 27  0  0  1  0  0  0  0  0999 V2000
   36.2774  -35.3827   -2.7563 N   0  0  0  0  0  0  0  0  0  0  0  0
   35.6368  -36.3770   -1.9352 C   0  0  0  0  0  0  0  0  0  0  0  0
   34.8322  -37.2555   -2.8401 C   0  0  0  0  0  0  0  0  0  0  0  0
   35.1993  -36.7381   -4.2405 C   0  0  0  0  0  0  0  0  0  0  0  0
   35.4558  -35.2753   -3.9470 C   0  0  1  0  0  0  0  0  0  0  0  0
   34.1685  -34.5715   -3.6599 C   0  0  0  0  0  0  0  0  0  0  0  0
   34.0884  -33.9910   -2.5135 O   0  0  0  0  0  0  0  0  0  0  0  0
   33.0964  -34.5294   -4.5680 N   0  0  0  0  0  0  0  0  0  0  0  0
   32.9368  -35.3950   -5.7113 C   0  0  0  0  0  0  0  0  0  0  0  0
   32.5877  -34.3429   -6.7773 C   0  0  0  0  0  0  0  0  0  0  0  0
   31.7720  -33.3208   -6.0156 C   0  0  0  0  0  0  0  0  0  0  0  0
   31.9551  -33.6719   -4.5484 C   0  0  1  0  0  0  0  0  0  0  0  0
   30.7481  -34.3323   -3.9742 C   0  0  0  0  0  0  0  0  0  0  0  0
   29.7069  -33.6313   -3.8808 O   0  0  0  0  0  0  0  0  0  0  0  0
   30.6821  -35.6652   -3.5313 N   0  0  0  0  0  0  0  0  0  0  0  0
   29.4661  -36.2946   -3.0462 C   0  0  1  0  0  0  0  0  0  0  0  0
   29.2548  -37.6422   -3.7248 C   0  0  0  0  0  0  0  0  0  0  0  0
   29.2919  -37.5520   -5.1992 C   0  0  0  0  0  0  0  0  0  0  0  0
   28.2827  -37.1378   -6.0294 C   0  0  0  0  0  0  0  0  0  0  0  0
   28.6882  -37.1976   -7.2995 N   0  0  0  0  0  0  0  0  0  0  0  0
   29.9433  -37.6445   -7.2953 C   0  0  0  0  0  0  0  0  0  0  0  0
   30.3214  -37.8638   -6.0190 N   0  0  0  0  0  0  0  0  0  0  0  0
   29.4139  -36.3614   -1.5829 C   0  0  0  0  0  0  0  0  0  0  0  0
   30.3824  -35.9223   -0.7286 O   0  0  0  0  0  0  0  0  0  0  0  0
   28.3676  -36.8774   -1.0677 O   0  0  0  0  0  0  0  0  0  0  0  0
  1  2  1  0
  2  3  1  0
  4  3  1  0
  5  1  1  0
  5  4  1  0
  6  7  2  0
  5  6  1  1
  8  6  1  0
  9  8  1  0
  9 10  1  0
 11 10  1  0
 12  8  1  0
 12 11  1  0
 12 13  1  6
 14 13  2  0
 15 13  1  0
 16 15  1  0
 17 18  1  0
 16 17  1  6
 18 22  1  0
 19 20  1  0
 19 18  2  0
 20 21  1  0
 21 22  2  0
 23 16  1  0
 23 24  1  0
 25 23  2  0
M  END
$$$$
