PPH.pdb
     RDKit          3D

 25 27  0  0  1  0  0  0  0  0999 V2000
   16.8742  -16.0437    6.3693 N   0  0  0  0  0  0  0  0  0  0  0  0
   15.7606  -16.7096    6.9934 C   0  0  0  0  0  0  0  0  0  0  0  0
   16.2510  -17.2928    8.2809 C   0  0  0  0  0  0  0  0  0  0  0  0
   17.6938  -16.7695    8.3702 C   0  0  0  0  0  0  0  0  0  0  0  0
   18.0596  -16.6869    6.9035 C   0  0  1  0  0  0  0  0  0  0  0  0
   18.2383  -18.0586    6.3365 C   0  0  0  0  0  0  0  0  0  0  0  0
   17.3565  -18.4306    5.4753 O   0  0  0  0  0  0  0  0  0  0  0  0
   19.2952  -18.9099    6.7027 N   0  0  0  0  0  0  0  0  0  0  0  0
   20.1911  -18.6976    7.8136 C   0  0  0  0  0  0  0  0  0  0  0  0
   21.5326  -18.9635    7.1102 C   0  0  0  0  0  0  0  0  0  0  0  0
   21.2050  -20.0609    6.1210 C   0  0  0  0  0  0  0  0  0  0  0  0
   19.6876  -20.1420    6.0974 C   0  0  1  0  0  0  0  0  0  0  0  0
   19.1774  -21.3337    6.8334 C   0  0  0  0  0  0  0  0  0  0  0  0
   19.0172  -21.2090    8.0756 O   0  0  0  0  0  0  0  0  0  0  0  0
   18.8645  -22.5762    6.2543 N   0  0  0  0  0  0  0  0  0  0  0  0
   18.2702  -23.6808    6.9871 C   0  0  1  0  0  0  0  0  0  0  0  0
   16.8276  -23.8984    6.5480 C   0  0  0  0  0  0  0  0  0  0  0  0
   16.7168  -24.3138    5.1342 C   0  0  0  0  0  0  0  0  0  0  0  0
   17.4006  -25.3261    4.5123 C   0  0  0  0  0  0  0  0  0  0  0  0
   17.0371  -25.3967    3.2301 N   0  0  0  0  0  0  0  0  0  0  0  0
   16.1298  -24.4437    3.0212 C   0  0  0  0  0  0  0  0  0  0  0  0
   15.9270  -23.7772    4.1764 N   0  0  0  0  0  0  0  0  0  0  0  0
   19.0884  -24.8957    6.9321 C   0  0  0  0  0  0  0  0  0  0  0  0
   18.8390  -26.0574    7.6020 O   0  0  0  0  0  0  0  0  0  0  0  0
   20.1253  -24.8576    6.1904 O   0  0  0  0  0  0  0  0  0  0  0  0
  1  2  1  0
  2  3  1  0
  4  3  1  0
  5  1  1  0
  5  4  1  0
  6  7  2  0
  5  6  1  6
  8  6  1  0
  9  8  1  0
  9 10  1  0
 11 10  1  0
 12  8  1  0
 12 11  1  0
 12 13  1  1
 14 13  2  0
 15 13  1  0
 16 15  1  0
 17 18  1  0
 16 17  1  6
 18 22  1  0
 19 20  1  0
 19 18  2  0
 20 21  1  0
 21 22  2  0
 23 16  1  0
 23 24  1  0
 25 23  2  0
M  END
$$$$
