PPH.pdb
     RDKit          3D

 25 27  0  0  1  0  0  0  0  0999 V2000
   27.4576  -18.4615  -16.3626 N   0  0  0  0  0  0  0  0  0  0  0  0
   26.3750  -17.5332  -16.5610 C   0  0  0  0  0  0  0  0  0  0  0  0
   26.0994  -16.8776  -15.2449 C   0  0  0  0  0  0  0  0  0  0  0  0
   27.2163  -17.4285  -14.3435 C   0  0  0  0  0  0  0  0  0  0  0  0
   27.4255  -18.7987  -14.9521 C   0  0  1  0  0  0  0  0  0  0  0  0
   26.2692  -19.6900  -14.6305 C   0  0  0  0  0  0  0  0  0  0  0  0
   25.5532  -20.0661  -15.6322 O   0  0  0  0  0  0  0  0  0  0  0  0
   25.9609  -20.1077  -13.3242 N   0  0  0  0  0  0  0  0  0  0  0  0
   26.5178  -19.5491  -12.1161 C   0  0  0  0  0  0  0  0  0  0  0  0
   26.8869  -20.8499  -11.3835 C   0  0  0  0  0  0  0  0  0  0  0  0
   25.7823  -21.8064  -11.7773 C   0  0  0  0  0  0  0  0  0  0  0  0
   25.0425  -21.1212  -12.9143 C   0  0  1  0  0  0  0  0  0  0  0  0
   23.7299  -20.5664  -12.4766 C   0  0  0  0  0  0  0  0  0  0  0  0
   23.7356  -19.8317  -11.4546 O   0  0  0  0  0  0  0  0  0  0  0  0
   22.4959  -20.7980  -13.1096 N   0  0  0  0  0  0  0  0  0  0  0  0
   21.2367  -20.2366  -12.6519 C   0  0  1  0  0  0  0  0  0  0  0  0
   21.0399  -18.8354  -13.2167 C   0  0  0  0  0  0  0  0  0  0  0  0
   21.2245  -18.7784  -14.6817 C   0  0  0  0  0  0  0  0  0  0  0  0
   21.5928  -19.8060  -15.5108 C   0  0  0  0  0  0  0  0  0  0  0  0
   21.6607  -19.3694  -16.7701 N   0  0  0  0  0  0  0  0  0  0  0  0
   21.3411  -18.0761  -16.7601 C   0  0  0  0  0  0  0  0  0  0  0  0
   21.0732  -17.7053  -15.4909 N   0  0  0  0  0  0  0  0  0  0  0  0
   20.1016  -21.1311  -12.8964 C   0  0  0  0  0  0  0  0  0  0  0  0
   20.1266  -22.2633  -13.6568 O   0  0  0  0  0  0  0  0  0  0  0  0
   18.9940  -20.8181  -12.3471 O   0  0  0  0  0  0  0  0  0  0  0  0
  1  2  1  0
  2  3  1  0
  4  3  1  0
  5  1  1  0
  5  4  1  0
  6  7  2  0
  5  6  1  6
  8  6  1  0
  9  8  1  0
  9 10  1  0
 11 10  1  0
 12  8  1  0
 12 11  1  0
 12 13  1  1
 14 13  2  0
 15 13  1  0
 16 15  1  0
 17 18  1  0
 16 17  1  6
 18 22  1  0
 19 20  1  0
 19 18  2  0
 20 21  1  0
 21 22  2  0
 23 16  1  0
 23 24  1  0
 25 23  2  0
M  END
$$$$
