PPH.pdb
     RDKit          3D

 25 27  0  0  1  0  0  0  0  0999 V2000
   26.5588  -19.6478   -9.4895 N   0  0  0  0  0  0  0  0  0  0  0  0
   25.2311  -20.1059   -9.1724 C   0  0  0  0  0  0  0  0  0  0  0  0
   25.0118  -21.3897   -9.9086 C   0  0  0  0  0  0  0  0  0  0  0  0
   26.3845  -21.6621  -10.5450 C   0  0  0  0  0  0  0  0  0  0  0  0
   26.8814  -20.2498  -10.7692 C   0  0  1  0  0  0  0  0  0  0  0  0
   26.1211  -19.6042  -11.8829 C   0  0  0  0  0  0  0  0  0  0  0  0
   25.2708  -18.7023  -11.5347 O   0  0  0  0  0  0  0  0  0  0  0  0
   26.3044  -19.9413  -13.2352 N   0  0  0  0  0  0  0  0  0  0  0  0
   27.0045  -21.1072  -13.7170 C   0  0  0  0  0  0  0  0  0  0  0  0
   27.8890  -20.4459  -14.7874 C   0  0  0  0  0  0  0  0  0  0  0  0
   27.0105  -19.3480  -15.3470 C   0  0  0  0  0  0  0  0  0  0  0  0
   25.8339  -19.2467  -14.3904 C   0  0  1  0  0  0  0  0  0  0  0  0
   24.5942  -19.8484  -14.9593 C   0  0  0  0  0  0  0  0  0  0  0  0
   24.6269  -21.0798  -15.2177 O   0  0  0  0  0  0  0  0  0  0  0  0
   23.4015  -19.1542  -15.2287 N   0  0  0  0  0  0  0  0  0  0  0  0
   22.0986  -19.5687  -14.7381 C   0  0  1  0  0  0  0  0  0  0  0  0
   21.8962  -19.1043  -13.3013 C   0  0  0  0  0  0  0  0  0  0  0  0
   21.4670  -20.1960  -12.4027 C   0  0  0  0  0  0  0  0  0  0  0  0
   21.2066  -21.4973  -12.7459 C   0  0  0  0  0  0  0  0  0  0  0  0
   20.8386  -22.1859  -11.6635 N   0  0  0  0  0  0  0  0  0  0  0  0
   20.8594  -21.3442  -10.6310 C   0  0  0  0  0  0  0  0  0  0  0  0
   21.2414  -20.1274  -11.0709 N   0  0  0  0  0  0  0  0  0  0  0  0
   21.0097  -19.1783  -15.6384 C   0  0  0  0  0  0  0  0  0  0  0  0
   19.8088  -19.8133  -15.7612 O   0  0  0  0  0  0  0  0  0  0  0  0
   21.2083  -18.1529  -16.3703 O   0  0  0  0  0  0  0  0  0  0  0  0
  1  2  1  0
  2  3  1  0
  4  3  1  0
  5  1  1  0
  5  4  1  0
  6  7  2  0
  5  6  1  6
  8  6  1  0
  9  8  1  0
  9 10  1  0
 11 10  1  0
 12  8  1  0
 12 11  1  0
 12 13  1  6
 14 13  2  0
 15 13  1  0
 16 15  1  0
 17 18  1  0
 16 17  1  1
 18 22  1  0
 19 20  1  0
 19 18  2  0
 20 21  1  0
 21 22  2  0
 23 16  1  0
 23 24  1  0
 25 23  2  0
M  END
$$$$
