NNR.pdb
     RDKit          3D

 28 27  0  0  1  0  0  0  0  0999 V2000
   23.2144  -15.9535  -18.9934 N   0  0  0  0  0  0  0  0  0  0  0  0
   22.9272  -14.7034  -19.5957 C   0  0  0  0  0  0  0  0  0  0  0  0
   22.1837  -14.7247  -20.6333 O   0  0  0  0  0  0  0  0  0  0  0  0
   23.4645  -13.4519  -19.0435 C   0  0  0  0  0  0  0  0  0  0  0  0
   22.5191  -12.7545  -18.0813 C   0  0  2  0  0  0  0  0  0  0  0  0
   21.2457  -12.6366  -18.7646 N   0  0  0  0  0  0  0  0  0  0  0  0
   23.0639  -11.4055  -17.7329 C   0  0  0  0  0  0  0  0  0  0  0  0
   24.2622  -11.2536  -17.3900 O   0  0  0  0  0  0  0  0  0  0  0  0
   24.3283   -6.6624  -16.8301 N   0  0  0  0  0  0  0  0  0  0  0  0
   24.6393   -7.3685  -18.0148 C   0  0  0  0  0  0  0  0  0  0  0  0
   25.5307   -6.8508  -18.7419 O   0  0  0  0  0  0  0  0  0  0  0  0
   23.9384   -8.6390  -18.3500 C   0  0  0  0  0  0  0  0  0  0  0  0
   22.8053   -8.9500  -17.3899 C   0  0  2  0  0  0  0  0  0  0  0  0
   22.2380  -10.2253  -17.7753 N   0  0  0  0  0  0  0  0  0  0  0  0
   21.7936   -7.8729  -17.3686 C   0  0  0  0  0  0  0  0  0  0  0  0
   21.1399   -7.6599  -18.4164 O   0  0  0  0  0  0  0  0  0  0  0  0
   15.5171  -11.3468  -15.7533 N   0  0  0  0  0  0  0  0  0  0  0  0
   16.1073  -10.5499  -16.7962 C   0  0  0  0  0  0  0  0  0  0  0  0
   15.9958  -10.8917  -18.0315 N   0  0  0  0  0  0  0  0  0  0  0  0
   16.8282   -9.3635  -16.4926 N   0  0  0  0  0  0  0  0  0  0  0  0
   17.0783   -8.9190  -15.1391 C   0  0  0  0  0  0  0  0  0  0  0  0
   17.8801   -7.6083  -15.2838 C   0  0  0  0  0  0  0  0  0  0  0  0
   19.2914   -7.8972  -15.6753 C   0  0  0  0  0  0  0  0  0  0  0  0
   20.1263   -6.6816  -15.9113 C   0  0  2  0  0  0  0  0  0  0  0  0
   21.5140   -7.0633  -16.2391 N   0  0  0  0  0  0  0  0  0  0  0  0
   20.1839   -5.8707  -14.6801 C   0  0  0  0  0  0  0  0  0  0  0  0
   21.1644   -5.8883  -13.8755 O   0  0  0  0  0  0  0  0  0  0  0  0
   19.0851   -5.0352  -14.3934 O   0  0  0  0  0  0  0  0  0  0  0  0
  1  2  1  0
  2  3  2  0
  4  2  1  0
  4  5  1  0
  5  6  1  6
  7  5  1  0
  7  8  2  0
  9 10  1  0
 10 12  1  0
 11 10  2  0
 13 12  1  6
 13 14  1  0
 14  7  1  0
 15 13  1  0
 16 15  2  0
 18 17  1  0
 19 18  2  0
 20 18  1  0
 21 22  1  0
 21 20  1  0
 22 23  1  0
 24 23  1  1
 24 25  1  0
 24 26  1  0
 25 15  1  0
 26 28  1  0
 27 26  2  0
M  END
$$$$
