NNR.pdb
     RDKit          3D

 28 27  0  0  1  0  0  0  0  0999 V2000
   30.7492  -22.3416  -17.7533 N   0  0  0  0  0  0  0  0  0  0  0  0
   29.3346  -22.3446  -17.8369 C   0  0  0  0  0  0  0  0  0  0  0  0
   28.8281  -22.1180  -18.9866 O   0  0  0  0  0  0  0  0  0  0  0  0
   28.5033  -22.5973  -16.6516 C   0  0  0  0  0  0  0  0  0  0  0  0
   27.2041  -21.8114  -16.6391 C   0  0  2  0  0  0  0  0  0  0  0  0
   27.5686  -20.4085  -16.6724 N   0  0  0  0  0  0  0  0  0  0  0  0
   26.4356  -22.1332  -15.3966 C   0  0  0  0  0  0  0  0  0  0  0  0
   26.1133  -23.3136  -15.1152 O   0  0  0  0  0  0  0  0  0  0  0  0
   25.8551  -21.7079   -9.8017 N   0  0  0  0  0  0  0  0  0  0  0  0
   25.2242  -20.9616  -10.8233 C   0  0  0  0  0  0  0  0  0  0  0  0
   24.0608  -20.5502  -10.5612 O   0  0  0  0  0  0  0  0  0  0  0  0
   25.9193  -20.6981  -12.1137 C   0  0  0  0  0  0  0  0  0  0  0  0
   25.3152  -21.4735  -13.2698 C   0  0  2  0  0  0  0  0  0  0  0  0
   26.0329  -21.1039  -14.4719 N   0  0  0  0  0  0  0  0  0  0  0  0
   23.8621  -21.2330  -13.3912 C   0  0  0  0  0  0  0  0  0  0  0  0
   23.4785  -20.0668  -13.6430 O   0  0  0  0  0  0  0  0  0  0  0  0
   17.9616  -24.7504   -8.9555 N   0  0  0  0  0  0  0  0  0  0  0  0
   17.1229  -23.8267   -9.6726 C   0  0  0  0  0  0  0  0  0  0  0  0
   16.1022  -23.2855   -9.1067 N   0  0  0  0  0  0  0  0  0  0  0  0
   17.3980  -23.4849  -11.0243 N   0  0  0  0  0  0  0  0  0  0  0  0
   18.5632  -23.9632  -11.7356 C   0  0  0  0  0  0  0  0  0  0  0  0
   19.3636  -22.6956  -12.1024 C   0  0  0  0  0  0  0  0  0  0  0  0
   20.6096  -23.0573  -12.8408 C   0  0  0  0  0  0  0  0  0  0  0  0
   21.4379  -21.8879  -13.2612 C   0  0  2  0  0  0  0  0  0  0  0  0
   22.8721  -22.2364  -13.2410 N   0  0  0  0  0  0  0  0  0  0  0  0
   21.2527  -20.7781  -12.3067 C   0  0  0  0  0  0  0  0  0  0  0  0
   20.4929  -19.7862  -12.5253 O   0  0  0  0  0  0  0  0  0  0  0  0
   21.9629  -20.8345  -11.0901 O   0  0  0  0  0  0  0  0  0  0  0  0
  1  2  1  0
  2  3  2  0
  4  2  1  0
  4  5  1  0
  5  6  1  1
  7  5  1  0
  7  8  2  0
  9 10  1  0
 10 12  1  0
 11 10  2  0
 13 12  1  1
 13 14  1  0
 14  7  1  0
 15 13  1  0
 16 15  2  0
 18 17  1  0
 19 18  2  0
 20 18  1  0
 21 22  1  0
 21 20  1  0
 22 23  1  0
 24 23  1  1
 24 25  1  0
 24 26  1  0
 25 15  1  0
 26 28  1  0
 27 26  2  0
M  END
$$$$
