NNR.pdb
     RDKit          3D

 28 27  0  0  1  0  0  0  0  0999 V2000
   18.7201  -27.8499   -7.7390 N   0  0  0  0  0  0  0  0  0  0  0  0
   17.8393  -28.0574   -8.8294 C   0  0  0  0  0  0  0  0  0  0  0  0
   17.1687  -29.1437   -8.8256 O   0  0  0  0  0  0  0  0  0  0  0  0
   17.7133  -27.0637   -9.9049 C   0  0  0  0  0  0  0  0  0  0  0  0
   18.6309  -25.8653   -9.7384 C   0  0  2  0  0  0  0  0  0  0  0  0
   18.1440  -25.1276   -8.5890 N   0  0  0  0  0  0  0  0  0  0  0  0
   18.5825  -25.0216  -10.9728 C   0  0  0  0  0  0  0  0  0  0  0  0
   18.9738  -25.4628  -12.0813 O   0  0  0  0  0  0  0  0  0  0  0  0
   17.8207  -21.1967  -14.3687 N   0  0  0  0  0  0  0  0  0  0  0  0
   17.0772  -20.8748  -13.2101 C   0  0  0  0  0  0  0  0  0  0  0  0
   16.3316  -19.8615  -13.3028 O   0  0  0  0  0  0  0  0  0  0  0  0
   17.1927  -21.7020  -11.9771 C   0  0  0  0  0  0  0  0  0  0  0  0
   18.1580  -22.8612  -12.1417 C   0  0  2  0  0  0  0  0  0  0  0  0
   18.0860  -23.6691  -10.9422 N   0  0  0  0  0  0  0  0  0  0  0  0
   19.5327  -22.3947  -12.4185 C   0  0  0  0  0  0  0  0  0  0  0  0
   20.0675  -21.6186  -11.5925 O   0  0  0  0  0  0  0  0  0  0  0  0
   26.5931  -25.2436  -17.3871 N   0  0  0  0  0  0  0  0  0  0  0  0
   26.9146  -24.0502  -16.6500 C   0  0  0  0  0  0  0  0  0  0  0  0
   28.0963  -23.5437  -16.6964 N   0  0  0  0  0  0  0  0  0  0  0  0
   25.9373  -23.3965  -15.8517 N   0  0  0  0  0  0  0  0  0  0  0  0
   24.5903  -23.8977  -15.6891 C   0  0  0  0  0  0  0  0  0  0  0  0
   23.8663  -22.8434  -14.8253 C   0  0  0  0  0  0  0  0  0  0  0  0
   22.4494  -23.2466  -14.5835 C   0  0  0  0  0  0  0  0  0  0  0  0
   21.6754  -22.2957  -13.7309 C   0  0  2  0  0  0  0  0  0  0  0  0
   20.2874  -22.7677  -13.5591 N   0  0  0  0  0  0  0  0  0  0  0  0
   21.6019  -20.9796  -14.3938 C   0  0  0  0  0  0  0  0  0  0  0  0
   20.7656  -20.7009  -15.3058 O   0  0  0  0  0  0  0  0  0  0  0  0
   22.5146  -19.9868  -13.9827 O   0  0  0  0  0  0  0  0  0  0  0  0
  1  2  1  0
  2  3  2  0
  4  2  1  0
  4  5  1  0
  5  6  1  1
  7  5  1  0
  7  8  2  0
  9 10  1  0
 10 12  1  0
 11 10  2  0
 13 12  1  1
 13 14  1  0
 14  7  1  0
 15 13  1  0
 16 15  2  0
 18 17  1  0
 19 18  2  0
 20 18  1  0
 21 22  1  0
 21 20  1  0
 22 23  1  0
 24 23  1  6
 24 25  1  0
 24 26  1  0
 25 15  1  0
 26 28  1  0
 27 26  2  0
M  END
$$$$
