NNR.pdb
     RDKit          3D

 28 27  0  0  1  0  0  0  0  0999 V2000
   28.3485  -20.0166  -17.9609 N   0  0  0  0  0  0  0  0  0  0  0  0
   26.9349  -19.9176  -17.9615 C   0  0  0  0  0  0  0  0  0  0  0  0
   26.4046  -19.2937  -18.9410 O   0  0  0  0  0  0  0  0  0  0  0  0
   26.1308  -20.5082  -16.8824 C   0  0  0  0  0  0  0  0  0  0  0  0
   26.9486  -21.2938  -15.8725 C   0  0  2  0  0  0  0  0  0  0  0  0
   27.3915  -22.4989  -16.5461 N   0  0  0  0  0  0  0  0  0  0  0  0
   26.0970  -21.6272  -14.6886 C   0  0  0  0  0  0  0  0  0  0  0  0
   25.6650  -22.7912  -14.5017 O   0  0  0  0  0  0  0  0  0  0  0  0
   25.4361  -21.3750   -9.1663 N   0  0  0  0  0  0  0  0  0  0  0  0
   24.8084  -20.5117  -10.0934 C   0  0  0  0  0  0  0  0  0  0  0  0
   23.6747  -20.0753   -9.7533 O   0  0  0  0  0  0  0  0  0  0  0  0
   25.4732  -20.1625  -11.3794 C   0  0  0  0  0  0  0  0  0  0  0  0
   24.9976  -21.0249  -12.5339 C   0  0  2  0  0  0  0  0  0  0  0  0
   25.7365  -20.6282  -13.7144 N   0  0  0  0  0  0  0  0  0  0  0  0
   23.5364  -20.9218  -12.7295 C   0  0  0  0  0  0  0  0  0  0  0  0
   23.0824  -19.8613  -13.2195 O   0  0  0  0  0  0  0  0  0  0  0  0
   18.5475  -25.9038   -8.8883 N   0  0  0  0  0  0  0  0  0  0  0  0
   18.7785  -24.5128   -8.6006 C   0  0  0  0  0  0  0  0  0  0  0  0
   18.8025  -24.0845   -7.3878 N   0  0  0  0  0  0  0  0  0  0  0  0
   18.9878  -23.5734   -9.6462 N   0  0  0  0  0  0  0  0  0  0  0  0
   18.2192  -23.5752  -10.8716 C   0  0  0  0  0  0  0  0  0  0  0  0
   18.9152  -22.5478  -11.7890 C   0  0  0  0  0  0  0  0  0  0  0  0
   20.3981  -22.6276  -11.6360 C   0  0  0  0  0  0  0  0  0  0  0  0
   21.1611  -21.7273  -12.5511 C   0  0  2  0  0  0  0  0  0  0  0  0
   22.6130  -21.9451  -12.3984 N   0  0  0  0  0  0  0  0  0  0  0  0
   20.8990  -20.3193  -12.1966 C   0  0  0  0  0  0  0  0  0  0  0  0
   21.4286  -19.7377  -11.2015 O   0  0  0  0  0  0  0  0  0  0  0  0
   20.0112  -19.5916  -13.0152 O   0  0  0  0  0  0  0  0  0  0  0  0
  1  2  1  0
  2  3  2  0
  4  2  1  0
  4  5  1  0
  5  6  1  6
  7  5  1  0
  7  8  2  0
  9 10  1  0
 10 12  1  0
 11 10  2  0
 13 12  1  1
 13 14  1  0
 14  7  1  0
 15 13  1  0
 16 15  2  0
 18 17  1  0
 19 18  2  0
 20 18  1  0
 21 22  1  0
 21 20  1  0
 22 23  1  0
 24 23  1  1
 24 25  1  0
 24 26  1  0
 25 15  1  0
 26 28  1  0
 27 26  2  0
M  END
$$$$
