NNR.pdb
     RDKit          3D

 28 27  0  0  1  0  0  0  0  0999 V2000
   19.4260  -29.2760   -9.1250 N   0  0  0  0  0  0  0  0  0  0  0  0
   18.9149  -29.4490  -10.4353 C   0  0  0  0  0  0  0  0  0  0  0  0
   18.5227  -30.6233  -10.7469 O   0  0  0  0  0  0  0  0  0  0  0  0
   18.8451  -28.3244  -11.3789 C   0  0  0  0  0  0  0  0  0  0  0  0
   19.4457  -27.0381  -10.8399 C   0  0  2  0  0  0  0  0  0  0  0  0
   18.6100  -26.6244   -9.7296 N   0  0  0  0  0  0  0  0  0  0  0  0
   19.4543  -25.9994  -11.9165 C   0  0  0  0  0  0  0  0  0  0  0  0
   20.1754  -26.1224  -12.9371 O   0  0  0  0  0  0  0  0  0  0  0  0
   16.9714  -22.0969  -15.2019 N   0  0  0  0  0  0  0  0  0  0  0  0
   17.4418  -21.9273  -13.8795 C   0  0  0  0  0  0  0  0  0  0  0  0
   17.8676  -20.7747  -13.5942 O   0  0  0  0  0  0  0  0  0  0  0  0
   17.4209  -23.0600  -12.9129 C   0  0  0  0  0  0  0  0  0  0  0  0
   18.7422  -23.8044  -12.8592 C   0  0  2  0  0  0  0  0  0  0  0  0
   18.6373  -24.8156  -11.8281 N   0  0  0  0  0  0  0  0  0  0  0  0
   19.8785  -22.8881  -12.6285 C   0  0  0  0  0  0  0  0  0  0  0  0
   20.0457  -22.4389  -11.4705 O   0  0  0  0  0  0  0  0  0  0  0  0
   27.7989  -21.2625  -15.1921 N   0  0  0  0  0  0  0  0  0  0  0  0
   26.7856  -22.0992  -15.7786 C   0  0  0  0  0  0  0  0  0  0  0  0
   27.0883  -23.2353  -16.3008 N   0  0  0  0  0  0  0  0  0  0  0  0
   25.4229  -21.6962  -15.7968 N   0  0  0  0  0  0  0  0  0  0  0  0
   24.9431  -20.5122  -15.1185 C   0  0  0  0  0  0  0  0  0  0  0  0
   24.2939  -21.0256  -13.8158 C   0  0  0  0  0  0  0  0  0  0  0  0
   23.1052  -21.8753  -14.1216 C   0  0  0  0  0  0  0  0  0  0  0  0
   21.8897  -21.5458  -13.3188 C   0  0  2  0  0  0  0  0  0  0  0  0
   20.7932  -22.4828  -13.6328 N   0  0  0  0  0  0  0  0  0  0  0  0
   21.4128  -20.1944  -13.6697 C   0  0  0  0  0  0  0  0  0  0  0  0
   21.7243  -19.1512  -13.0188 O   0  0  0  0  0  0  0  0  0  0  0  0
   20.5668  -20.0684  -14.7904 O   0  0  0  0  0  0  0  0  0  0  0  0
  1  2  1  0
  2  3  2  0
  4  2  1  0
  4  5  1  0
  5  6  1  1
  7  5  1  0
  7  8  2  0
  9 10  1  0
 10 12  1  0
 11 10  2  0
 13 12  1  1
 13 14  1  0
 14  7  1  0
 15 13  1  0
 16 15  2  0
 18 17  1  0
 19 18  2  0
 20 18  1  0
 21 22  1  0
 21 20  1  0
 22 23  1  0
 24 23  1  6
 24 25  1  0
 24 26  1  0
 25 15  1  0
 26 28  1  0
 27 26  2  0
M  END
$$$$
