NNR.pdb
     RDKit          3D

 28 27  0  0  1  0  0  0  0  0999 V2000
   30.6515  -25.5503  -16.4351 N   0  0  0  0  0  0  0  0  0  0  0  0
   30.0257  -25.1484  -17.6412 C   0  0  0  0  0  0  0  0  0  0  0  0
   30.7961  -24.8045  -18.5994 O   0  0  0  0  0  0  0  0  0  0  0  0
   28.5618  -25.1326  -17.7699 C   0  0  0  0  0  0  0  0  0  0  0  0
   27.8324  -25.4367  -16.4732 C   0  0  2  0  0  0  0  0  0  0  0  0
   28.0906  -26.8308  -16.1701 N   0  0  0  0  0  0  0  0  0  0  0  0
   26.3675  -25.1927  -16.6531 C   0  0  0  0  0  0  0  0  0  0  0  0
   25.9233  -24.0483  -16.9169 O   0  0  0  0  0  0  0  0  0  0  0  0
   21.5677  -25.7955  -19.2337 N   0  0  0  0  0  0  0  0  0  0  0  0
   22.0435  -26.5562  -18.1411 C   0  0  0  0  0  0  0  0  0  0  0  0
   21.1570  -27.0616  -17.3993 O   0  0  0  0  0  0  0  0  0  0  0  0
   23.5049  -26.7277  -17.9118 C   0  0  0  0  0  0  0  0  0  0  0  0
   23.9974  -25.9641  -16.6964 C   0  0  2  0  0  0  0  0  0  0  0  0
   25.4055  -26.2588  -16.5310 N   0  0  0  0  0  0  0  0  0  0  0  0
   23.2129  -26.2924  -15.4878 C   0  0  0  0  0  0  0  0  0  0  0  0
   23.5348  -27.3145  -14.8379 O   0  0  0  0  0  0  0  0  0  0  0  0
   18.3207  -27.2270   -9.4465 N   0  0  0  0  0  0  0  0  0  0  0  0
   17.4842  -26.1333   -9.8648 C   0  0  0  0  0  0  0  0  0  0  0  0
   16.5545  -25.6824   -9.0984 N   0  0  0  0  0  0  0  0  0  0  0  0
   17.6613  -25.5194  -11.1342 N   0  0  0  0  0  0  0  0  0  0  0  0
   18.5854  -26.0195  -12.1283 C   0  0  0  0  0  0  0  0  0  0  0  0
   19.8158  -25.0919  -12.0420 C   0  0  0  0  0  0  0  0  0  0  0  0
   20.4108  -24.8824  -13.3950 C   0  0  0  0  0  0  0  0  0  0  0  0
   21.3583  -25.9541  -13.8239 C   0  0  2  0  0  0  0  0  0  0  0  0
   22.1181  -25.5261  -15.0147 N   0  0  0  0  0  0  0  0  0  0  0  0
   20.6026  -27.1616  -14.2085 C   0  0  0  0  0  0  0  0  0  0  0  0
   19.9302  -27.2550  -15.2799 O   0  0  0  0  0  0  0  0  0  0  0  0
   20.6379  -28.2642  -13.3306 O   0  0  0  0  0  0  0  0  0  0  0  0
  1  2  1  0
  2  3  2  0
  4  2  1  0
  4  5  1  0
  5  6  1  6
  7  5  1  0
  7  8  2  0
  9 10  1  0
 10 12  1  0
 11 10  2  0
 13 12  1  6
 13 14  1  0
 14  7  1  0
 15 13  1  0
 16 15  2  0
 18 17  1  0
 19 18  2  0
 20 18  1  0
 21 22  1  0
 21 20  1  0
 22 23  1  0
 24 23  1  6
 24 25  1  0
 24 26  1  0
 25 15  1  0
 26 28  1  0
 27 26  2  0
M  END
$$$$
