NNR.pdb
     RDKit          3D

 28 27  0  0  1  0  0  0  0  0999 V2000
   30.1947  -23.4925  -17.5633 N   0  0  0  0  0  0  0  0  0  0  0  0
   29.0614  -22.6447  -17.4934 C   0  0  0  0  0  0  0  0  0  0  0  0
   28.9425  -21.7698  -18.4155 O   0  0  0  0  0  0  0  0  0  0  0  0
   28.0791  -22.7763  -16.4081 C   0  0  0  0  0  0  0  0  0  0  0  0
   27.3937  -21.4710  -16.0445 C   0  0  2  0  0  0  0  0  0  0  0  0
   28.4454  -20.5298  -15.7122 N   0  0  0  0  0  0  0  0  0  0  0  0
   26.4858  -21.6903  -14.8759 C   0  0  0  0  0  0  0  0  0  0  0  0
   25.5809  -22.5602  -14.9059 O   0  0  0  0  0  0  0  0  0  0  0  0
   25.4590  -21.8014   -9.2796 N   0  0  0  0  0  0  0  0  0  0  0  0
   25.3269  -20.7047  -10.1619 C   0  0  0  0  0  0  0  0  0  0  0  0
   24.4027  -19.8909   -9.8882 O   0  0  0  0  0  0  0  0  0  0  0  0
   26.2386  -20.5528  -11.3296 C   0  0  0  0  0  0  0  0  0  0  0  0
   25.6292  -21.0776  -12.6165 C   0  0  2  0  0  0  0  0  0  0  0  0
   26.6107  -20.9136  -13.6684 N   0  0  0  0  0  0  0  0  0  0  0  0
   24.3533  -20.4027  -12.9338 C   0  0  0  0  0  0  0  0  0  0  0  0
   24.4033  -19.2419  -13.4035 O   0  0  0  0  0  0  0  0  0  0  0  0
   21.3217  -16.6994  -17.8130 N   0  0  0  0  0  0  0  0  0  0  0  0
   20.0862  -17.4330  -17.8916 C   0  0  0  0  0  0  0  0  0  0  0  0
   18.9920  -16.8488  -18.2328 N   0  0  0  0  0  0  0  0  0  0  0  0
   20.0391  -18.8224  -17.5964 N   0  0  0  0  0  0  0  0  0  0  0  0
   21.1613  -19.5479  -17.0429 C   0  0  0  0  0  0  0  0  0  0  0  0
   20.9272  -19.5556  -15.5174 C   0  0  0  0  0  0  0  0  0  0  0  0
   21.9735  -20.3691  -14.8303 C   0  0  0  0  0  0  0  0  0  0  0  0
   21.8720  -20.3713  -13.3403 C   0  0  2  0  0  0  0  0  0  0  0  0
   23.0743  -20.9831  -12.7412 N   0  0  0  0  0  0  0  0  0  0  0  0
   20.7193  -21.1914  -12.9212 C   0  0  0  0  0  0  0  0  0  0  0  0
   20.8264  -22.3758  -12.4798 O   0  0  0  0  0  0  0  0  0  0  0  0
   19.4356  -20.6172  -13.0206 O   0  0  0  0  0  0  0  0  0  0  0  0
  1  2  1  0
  2  3  2  0
  4  2  1  0
  4  5  1  0
  5  6  1  1
  7  5  1  0
  7  8  2  0
  9 10  1  0
 10 12  1  0
 11 10  2  0
 13 12  1  1
 13 14  1  0
 14  7  1  0
 15 13  1  0
 16 15  2  0
 18 17  1  0
 19 18  2  0
 20 18  1  0
 21 22  1  0
 21 20  1  0
 22 23  1  0
 24 23  1  6
 24 25  1  0
 24 26  1  0
 25 15  1  0
 26 28  1  0
 27 26  2  0
M  END
$$$$
