NNR.pdb
     RDKit          3D

 28 27  0  0  1  0  0  0  0  0999 V2000
   31.3611  -22.2748  -10.4342 N   0  0  0  0  0  0  0  0  0  0  0  0
   30.8352  -22.0452  -11.7298 C   0  0  0  0  0  0  0  0  0  0  0  0
   31.3787  -22.6863  -12.6907 O   0  0  0  0  0  0  0  0  0  0  0  0
   29.7194  -21.1128  -11.9433 C   0  0  0  0  0  0  0  0  0  0  0  0
   28.6899  -21.6123  -12.9415 C   0  0  2  0  0  0  0  0  0  0  0  0
   29.3642  -21.7019  -14.2219 N   0  0  0  0  0  0  0  0  0  0  0  0
   27.5471  -20.6491  -13.0071 C   0  0  0  0  0  0  0  0  0  0  0  0
   26.8854  -20.3498  -11.9829 O   0  0  0  0  0  0  0  0  0  0  0  0
   27.3744  -16.8885  -13.3865 N   0  0  0  0  0  0  0  0  0  0  0  0
   27.0296  -16.9383  -14.7567 C   0  0  0  0  0  0  0  0  0  0  0  0
   27.4289  -15.9679  -15.4567 O   0  0  0  0  0  0  0  0  0  0  0  0
   26.2437  -18.0793  -15.3030 C   0  0  0  0  0  0  0  0  0  0  0  0
   25.9948  -19.1627  -14.2700 C   0  0  2  0  0  0  0  0  0  0  0  0
   27.1575  -20.0254  -14.2465 N   0  0  0  0  0  0  0  0  0  0  0  0
   24.7508  -19.9104  -14.5488 C   0  0  0  0  0  0  0  0  0  0  0  0
   24.7561  -20.7261  -15.5002 O   0  0  0  0  0  0  0  0  0  0  0  0
   18.5055  -24.0086  -12.4668 N   0  0  0  0  0  0  0  0  0  0  0  0
   19.1736  -23.5559  -11.2753 C   0  0  0  0  0  0  0  0  0  0  0  0
   19.5128  -24.3857  -10.3526 N   0  0  0  0  0  0  0  0  0  0  0  0
   19.4788  -22.1811  -11.0840 N   0  0  0  0  0  0  0  0  0  0  0  0
   19.1559  -21.1604  -12.0567 C   0  0  0  0  0  0  0  0  0  0  0  0
   20.1600  -21.3668  -13.2104 C   0  0  0  0  0  0  0  0  0  0  0  0
   21.3751  -20.5242  -13.0054 C   0  0  0  0  0  0  0  0  0  0  0  0
   22.3725  -20.6014  -14.1143 C   0  0  2  0  0  0  0  0  0  0  0  0
   23.5499  -19.7650  -13.8097 N   0  0  0  0  0  0  0  0  0  0  0  0
   21.7784  -20.0698  -15.3558 C   0  0  0  0  0  0  0  0  0  0  0  0
   21.6688  -18.8309  -15.6049 O   0  0  0  0  0  0  0  0  0  0  0  0
   21.3117  -20.9980  -16.3089 O   0  0  0  0  0  0  0  0  0  0  0  0
  1  2  1  0
  2  3  2  0
  4  2  1  0
  4  5  1  0
  5  6  1  6
  7  5  1  0
  7  8  2  0
  9 10  1  0
 10 12  1  0
 11 10  2  0
 13 12  1  6
 13 14  1  0
 14  7  1  0
 15 13  1  0
 16 15  2  0
 18 17  1  0
 19 18  2  0
 20 18  1  0
 21 22  1  0
 21 20  1  0
 22 23  1  0
 24 23  1  1
 24 25  1  0
 24 26  1  0
 25 15  1  0
 26 28  1  0
 27 26  2  0
M  END
$$$$
