NNR.pdb
     RDKit          3D

 28 27  0  0  1  0  0  0  0  0999 V2000
   19.1305  -23.9229   -8.4494 N   0  0  0  0  0  0  0  0  0  0  0  0
   18.5742  -22.9524   -9.3193 C   0  0  0  0  0  0  0  0  0  0  0  0
   17.3001  -22.9033   -9.3832 O   0  0  0  0  0  0  0  0  0  0  0  0
   19.4323  -22.0531  -10.1034 C   0  0  0  0  0  0  0  0  0  0  0  0
   20.9174  -22.2964   -9.9002 C   0  0  2  0  0  0  0  0  0  0  0  0
   21.1795  -22.1003   -8.4877 N   0  0  0  0  0  0  0  0  0  0  0  0
   21.7017  -21.3276  -10.7274 C   0  0  0  0  0  0  0  0  0  0  0  0
   22.5731  -20.5846  -10.2124 O   0  0  0  0  0  0  0  0  0  0  0  0
   25.7721  -22.5388  -14.0406 N   0  0  0  0  0  0  0  0  0  0  0  0
   24.9572  -21.5093  -13.5166 C   0  0  0  0  0  0  0  0  0  0  0  0
   25.3475  -20.3321  -13.7471 O   0  0  0  0  0  0  0  0  0  0  0  0
   23.7240  -21.8319  -12.7465 C   0  0  0  0  0  0  0  0  0  0  0  0
   22.6030  -20.8411  -13.0000 C   0  0  2  0  0  0  0  0  0  0  0  0
   21.4906  -21.2059  -12.1477 N   0  0  0  0  0  0  0  0  0  0  0  0
   22.2217  -20.7982  -14.4272 C   0  0  0  0  0  0  0  0  0  0  0  0
   21.8441  -21.8644  -14.9669 O   0  0  0  0  0  0  0  0  0  0  0  0
   20.6114  -13.2020  -18.2232 N   0  0  0  0  0  0  0  0  0  0  0  0
   19.5808  -14.0199  -17.6402 C   0  0  0  0  0  0  0  0  0  0  0  0
   18.3642  -13.6059  -17.5803 N   0  0  0  0  0  0  0  0  0  0  0  0
   19.8762  -15.3072  -17.1156 N   0  0  0  0  0  0  0  0  0  0  0  0
   21.2226  -15.8260  -17.0146 C   0  0  0  0  0  0  0  0  0  0  0  0
   21.0748  -17.2129  -16.3538 C   0  0  0  0  0  0  0  0  0  0  0  0
   21.7400  -18.2620  -17.1817 C   0  0  0  0  0  0  0  0  0  0  0  0
   21.6934  -19.6333  -16.5921 C   0  0  2  0  0  0  0  0  0  0  0  0
   22.2555  -19.6285  -15.2273 N   0  0  0  0  0  0  0  0  0  0  0  0
   22.5258  -20.5490  -17.3955 C   0  0  0  0  0  0  0  0  0  0  0  0
   23.6276  -21.0303  -16.9911 O   0  0  0  0  0  0  0  0  0  0  0  0
   22.0613  -20.9011  -18.6792 O   0  0  0  0  0  0  0  0  0  0  0  0
  1  2  1  0
  2  3  2  0
  4  2  1  0
  4  5  1  0
  5  6  1  1
  7  5  1  0
  7  8  2  0
  9 10  1  0
 10 12  1  0
 11 10  2  0
 13 12  1  6
 13 14  1  0
 14  7  1  0
 15 13  1  0
 16 15  2  0
 18 17  1  0
 19 18  2  0
 20 18  1  0
 21 22  1  0
 21 20  1  0
 22 23  1  0
 24 23  1  6
 24 25  1  0
 24 26  1  0
 25 15  1  0
 26 28  1  0
 27 26  2  0
M  END
$$$$
