NNR.pdb
     RDKit          3D

 28 27  0  0  1  0  0  0  0  0999 V2000
   24.8937  -20.2045  -17.9088 N   0  0  0  0  0  0  0  0  0  0  0  0
   23.7657  -19.3626  -17.7451 C   0  0  0  0  0  0  0  0  0  0  0  0
   23.5214  -18.5415  -18.6917 O   0  0  0  0  0  0  0  0  0  0  0  0
   22.9269  -19.4406  -16.5409 C   0  0  0  0  0  0  0  0  0  0  0  0
   23.3892  -20.4873  -15.5426 C   0  0  2  0  0  0  0  0  0  0  0  0
   22.9369  -21.7690  -16.0474 N   0  0  0  0  0  0  0  0  0  0  0  0
   22.7898  -20.2007  -14.2022 C   0  0  0  0  0  0  0  0  0  0  0  0
   23.1685  -19.2218  -13.5131 O   0  0  0  0  0  0  0  0  0  0  0  0
   19.1001  -17.2084  -12.4883 N   0  0  0  0  0  0  0  0  0  0  0  0
   19.0698  -18.6040  -12.7121 C   0  0  0  0  0  0  0  0  0  0  0  0
   18.0940  -19.2188  -12.2010 O   0  0  0  0  0  0  0  0  0  0  0  0
   20.1392  -19.2712  -13.5052 C   0  0  0  0  0  0  0  0  0  0  0  0
   20.7631  -20.4438  -12.7713 C   0  0  2  0  0  0  0  0  0  0  0  0
   21.7545  -21.0346  -13.6458 N   0  0  0  0  0  0  0  0  0  0  0  0
   19.7453  -21.4241  -12.3389 C   0  0  0  0  0  0  0  0  0  0  0  0
   19.0306  -21.9567  -13.2200 O   0  0  0  0  0  0  0  0  0  0  0  0
   16.3360  -25.1352   -5.3368 N   0  0  0  0  0  0  0  0  0  0  0  0
   16.8133  -26.2754   -6.0739 C   0  0  0  0  0  0  0  0  0  0  0  0
   16.2778  -27.4345   -5.9169 N   0  0  0  0  0  0  0  0  0  0  0  0
   17.8877  -26.1540   -6.9962 N   0  0  0  0  0  0  0  0  0  0  0  0
   18.5461  -24.8970   -7.2768 C   0  0  0  0  0  0  0  0  0  0  0  0
   18.3601  -24.6706   -8.7920 C   0  0  0  0  0  0  0  0  0  0  0  0
   18.9843  -23.3806   -9.2102 C   0  0  0  0  0  0  0  0  0  0  0  0
   18.8538  -23.0768  -10.6666 C   0  0  2  0  0  0  0  0  0  0  0  0
   19.5235  -21.8020  -10.9907 N   0  0  0  0  0  0  0  0  0  0  0  0
   17.4294  -22.9138  -11.0153 C   0  0  0  0  0  0  0  0  0  0  0  0
   16.6512  -23.8867  -11.2536 O   0  0  0  0  0  0  0  0  0  0  0  0
   16.9174  -21.6020  -11.0837 O   0  0  0  0  0  0  0  0  0  0  0  0
  1  2  1  0
  2  3  2  0
  4  2  1  0
  4  5  1  0
  5  6  1  6
  7  5  1  0
  7  8  2  0
  9 10  1  0
 10 12  1  0
 11 10  2  0
 13 12  1  6
 13 14  1  0
 14  7  1  0
 15 13  1  0
 16 15  2  0
 18 17  1  0
 19 18  2  0
 20 18  1  0
 21 22  1  0
 21 20  1  0
 22 23  1  0
 24 23  1  1
 24 25  1  0
 24 26  1  0
 25 15  1  0
 26 28  1  0
 27 26  2  0
M  END
$$$$
