NNR.pdb
     RDKit          3D

 28 27  0  0  1  0  0  0  0  0999 V2000
   17.3638  -24.5128   -8.4384 N   0  0  0  0  0  0  0  0  0  0  0  0
   18.4460  -24.1295   -7.6078 C   0  0  0  0  0  0  0  0  0  0  0  0
   18.6496  -24.8407   -6.5673 O   0  0  0  0  0  0  0  0  0  0  0  0
   19.2848  -22.9691   -7.9390 C   0  0  0  0  0  0  0  0  0  0  0  0
   18.9012  -22.2916   -9.2427 C   0  0  2  0  0  0  0  0  0  0  0  0
   19.0294  -23.2933  -10.2831 N   0  0  0  0  0  0  0  0  0  0  0  0
   19.8193  -21.1382   -9.4973 C   0  0  0  0  0  0  0  0  0  0  0  0
   20.3744  -20.5245   -8.5530 O   0  0  0  0  0  0  0  0  0  0  0  0
   24.2603  -20.2129  -11.2024 N   0  0  0  0  0  0  0  0  0  0  0  0
   23.7455  -21.3546  -10.5463 C   0  0  0  0  0  0  0  0  0  0  0  0
   24.5992  -22.0928   -9.9828 O   0  0  0  0  0  0  0  0  0  0  0  0
   22.2830  -21.6355  -10.5420 C   0  0  0  0  0  0  0  0  0  0  0  0
   21.4826  -20.5675  -11.2641 C   0  0  2  0  0  0  0  0  0  0  0  0
   20.1046  -20.6830  -10.8345 N   0  0  0  0  0  0  0  0  0  0  0  0
   21.6207  -20.6772  -12.7314 C   0  0  0  0  0  0  0  0  0  0  0  0
   20.9868  -21.5873  -13.3149 O   0  0  0  0  0  0  0  0  0  0  0  0
   26.3041  -23.1070  -17.8970 N   0  0  0  0  0  0  0  0  0  0  0  0
   25.7994  -23.6577  -16.6670 C   0  0  0  0  0  0  0  0  0  0  0  0
   26.5325  -24.4207  -15.9352 N   0  0  0  0  0  0  0  0  0  0  0  0
   24.4789  -23.3742  -16.2248 N   0  0  0  0  0  0  0  0  0  0  0  0
   23.4037  -23.0274  -17.1281 C   0  0  0  0  0  0  0  0  0  0  0  0
   23.0939  -21.5432  -16.8397 C   0  0  0  0  0  0  0  0  0  0  0  0
   23.0273  -21.2974  -15.3688 C   0  0  0  0  0  0  0  0  0  0  0  0
   22.4634  -19.9670  -14.9915 C   0  0  2  0  0  0  0  0  0  0  0  0
   22.4248  -19.8194  -13.5234 N   0  0  0  0  0  0  0  0  0  0  0  0
   21.0715  -19.8627  -15.4698 C   0  0  0  0  0  0  0  0  0  0  0  0
   20.0733  -19.7374  -14.6972 O   0  0  0  0  0  0  0  0  0  0  0  0
   20.8518  -19.9053  -16.8618 O   0  0  0  0  0  0  0  0  0  0  0  0
  1  2  1  0
  2  3  2  0
  4  2  1  0
  4  5  1  0
  5  6  1  6
  7  5  1  0
  7  8  2  0
  9 10  1  0
 10 12  1  0
 11 10  2  0
 13 12  1  1
 13 14  1  0
 14  7  1  0
 15 13  1  0
 16 15  2  0
 18 17  1  0
 19 18  2  0
 20 18  1  0
 21 22  1  0
 21 20  1  0
 22 23  1  0
 24 23  1  1
 24 25  1  0
 24 26  1  0
 25 15  1  0
 26 28  1  0
 27 26  2  0
M  END
$$$$
