HLT.pdb
     RDKit          3D

 26 26  0  0  1  0  0  0  0  0999 V2000
    9.6731  -15.3701   20.9314 N   0  0  0  0  0  0  0  0  0  0  0  0
    8.7354  -16.0867   21.7779 C   0  0  1  0  0  0  0  0  0  0  0  0
    8.7175  -17.5606   21.4311 C   0  0  0  0  0  0  0  0  0  0  0  0
    8.3328  -17.8289   20.0406 C   0  0  0  0  0  0  0  0  0  0  0  0
    7.0641  -17.8682   19.5036 C   0  0  0  0  0  0  0  0  0  0  0  0
    7.1485  -18.1488   18.1770 N   0  0  0  0  0  0  0  0  0  0  0  0
    8.4407  -18.2791   17.9043 C   0  0  0  0  0  0  0  0  0  0  0  0
    9.1697  -18.0849   19.0381 N   0  0  0  0  0  0  0  0  0  0  0  0
    9.0545  -15.8344   23.1938 C   0  0  0  0  0  0  0  0  0  0  0  0
   10.2352  -15.9053   23.6132 O   0  0  0  0  0  0  0  0  0  0  0  0
    5.9532  -12.2721   26.1741 C   0  0  0  0  0  0  0  0  0  0  0  0
    7.1407  -13.0235   25.7152 C   0  0  1  0  0  0  0  0  0  0  0  0
    8.3837  -12.3432   26.3422 C   0  0  0  0  0  0  0  0  0  0  0  0
    7.2179  -14.4414   26.0870 C   0  0  0  0  0  0  0  0  0  0  0  0
    8.3138  -15.2789   25.5503 C   0  0  2  0  0  0  0  0  0  0  0  0
    8.0274  -15.5037   24.1208 N   0  0  0  0  0  0  0  0  0  0  0  0
    8.5683  -16.5552   26.2292 C   0  0  0  0  0  0  0  0  0  0  0  0
    7.5682  -17.3492   26.3624 O   0  0  0  0  0  0  0  0  0  0  0  0
   10.3079  -19.3853   25.0613 C   0  0  0  0  0  0  0  0  0  0  0  0
   10.8700  -19.1649   26.4392 C   0  0  1  0  0  0  0  0  0  0  0  0
   12.0767  -18.4517   26.3009 O   0  0  0  0  0  0  0  0  0  0  0  0
    9.9446  -18.3213   27.2961 C   0  0  2  0  0  0  0  0  0  0  0  0
    9.8229  -16.9800   26.7434 N   0  0  0  0  0  0  0  0  0  0  0  0
   10.5206  -18.2440   28.6531 C   0  0  0  0  0  0  0  0  0  0  0  0
   10.9220  -17.0681   29.2500 O   0  0  0  0  0  0  0  0  0  0  0  0
   10.6647  -19.3023   29.3272 O   0  0  0  0  0  0  0  0  0  0  0  0
  2  1  1  6
  3  2  1  0
  4  3  1  0
  5  4  2  0
  6  7  1  0
  6  5  1  0
  7  8  2  0
  8  4  1  0
  9 16  1  0
  9  2  1  0
 10  9  2  0
 12 11  1  1
 12 14  1  0
 12 13  1  0
 15 14  1  1
 15 17  1  0
 15 16  1  0
 17 18  2  0
 20 19  1  6
 20 22  1  0
 21 20  1  0
 22 24  1  0
 22 23  1  6
 23 17  1  0
 24 25  1  0
 26 24  2  0
M  END
$$$$
