HLT.pdb
     RDKit          3D

 26 26  0  0  1  0  0  0  0  0999 V2000
    9.1772  -15.8048   20.1125 N   0  0  0  0  0  0  0  0  0  0  0  0
    8.1272  -16.1140   21.0671 C   0  0  1  0  0  0  0  0  0  0  0  0
    7.7991  -17.5922   21.0438 C   0  0  0  0  0  0  0  0  0  0  0  0
    7.2820  -18.0554   19.7510 C   0  0  0  0  0  0  0  0  0  0  0  0
    7.1985  -17.3517   18.5689 C   0  0  0  0  0  0  0  0  0  0  0  0
    6.6594  -18.1495   17.6105 N   0  0  0  0  0  0  0  0  0  0  0  0
    6.4169  -19.3183   18.1906 C   0  0  0  0  0  0  0  0  0  0  0  0
    6.7947  -19.2677   19.4979 N   0  0  0  0  0  0  0  0  0  0  0  0
    8.5172  -15.6341   22.4042 C   0  0  0  0  0  0  0  0  0  0  0  0
    9.7003  -15.7392   22.8094 O   0  0  0  0  0  0  0  0  0  0  0  0
    8.2085  -12.1946   26.7017 C   0  0  0  0  0  0  0  0  0  0  0  0
    7.0142  -13.0098   26.3943 C   0  0  1  0  0  0  0  0  0  0  0  0
    5.7789  -12.0859   26.5407 C   0  0  0  0  0  0  0  0  0  0  0  0
    6.9327  -13.5936   25.0500 C   0  0  0  0  0  0  0  0  0  0  0  0
    7.8951  -14.6444   24.6501 C   0  0  2  0  0  0  0  0  0  0  0  0
    7.5576  -15.0386   23.2693 N   0  0  0  0  0  0  0  0  0  0  0  0
    7.9839  -15.8278   25.5140 C   0  0  0  0  0  0  0  0  0  0  0  0
    6.8753  -16.3676   25.8715 O   0  0  0  0  0  0  0  0  0  0  0  0
    9.1687  -19.1788   24.7727 C   0  0  0  0  0  0  0  0  0  0  0  0
    9.8629  -18.7665   26.0421 C   0  0  1  0  0  0  0  0  0  0  0  0
   11.1322  -18.2655   25.6932 O   0  0  0  0  0  0  0  0  0  0  0  0
    9.1192  -17.6516   26.7535 C   0  0  2  0  0  0  0  0  0  0  0  0
    9.1884  -16.4205   25.9796 N   0  0  0  0  0  0  0  0  0  0  0  0
    9.7562  -17.4426   28.0688 C   0  0  0  0  0  0  0  0  0  0  0  0
    9.7998  -18.3991   29.0604 O   0  0  0  0  0  0  0  0  0  0  0  0
   10.2996  -16.3317   28.3255 O   0  0  0  0  0  0  0  0  0  0  0  0
  2  1  1  6
  3  2  1  0
  4  3  1  0
  5  4  2  0
  6  7  1  0
  6  5  1  0
  7  8  2  0
  8  4  1  0
  9 16  1  0
  9  2  1  0
 10  9  2  0
 12 11  1  6
 12 14  1  0
 12 13  1  0
 15 14  1  1
 15 17  1  0
 15 16  1  0
 17 18  2  0
 20 19  1  6
 20 22  1  0
 21 20  1  0
 22 24  1  0
 22 23  1  6
 23 17  1  0
 24 25  1  0
 26 24  2  0
M  END
$$$$
