HLT.pdb
     RDKit          3D

 26 26  0  0  1  0  0  0  0  0999 V2000
   10.7188  -15.1166   21.7622 N   0  0  0  0  0  0  0  0  0  0  0  0
    9.4264  -14.6335   22.2157 C   0  0  1  0  0  0  0  0  0  0  0  0
    8.3082  -15.2407   21.3948 C   0  0  0  0  0  0  0  0  0  0  0  0
    8.0956  -14.5670   20.1086 C   0  0  0  0  0  0  0  0  0  0  0  0
    8.8093  -13.5170   19.5723 C   0  0  0  0  0  0  0  0  0  0  0  0
    8.2866  -13.1935   18.3608 N   0  0  0  0  0  0  0  0  0  0  0  0
    7.2737  -14.0263   18.1566 C   0  0  0  0  0  0  0  0  0  0  0  0
    7.1515  -14.8679   19.2201 N   0  0  0  0  0  0  0  0  0  0  0  0
    9.2817  -14.8886   23.6594 C   0  0  0  0  0  0  0  0  0  0  0  0
   10.2093  -15.4173   24.3189 O   0  0  0  0  0  0  0  0  0  0  0  0
    5.6904  -11.6477   26.3380 C   0  0  0  0  0  0  0  0  0  0  0  0
    6.8895  -12.4468   26.0080 C   0  0  1  0  0  0  0  0  0  0  0  0
    8.0468  -11.9246   26.8963 C   0  0  0  0  0  0  0  0  0  0  0  0
    6.8127  -13.8937   26.2433 C   0  0  0  0  0  0  0  0  0  0  0  0
    7.9174  -14.7675   25.7888 C   0  0  2  0  0  0  0  0  0  0  0  0
    8.0826  -14.5399   24.3408 N   0  0  0  0  0  0  0  0  0  0  0  0
    7.7888  -16.2023   26.0710 C   0  0  0  0  0  0  0  0  0  0  0  0
    7.5049  -16.5311   27.2791 O   0  0  0  0  0  0  0  0  0  0  0  0
    6.0767  -19.1458   23.7636 C   0  0  0  0  0  0  0  0  0  0  0  0
    7.4129  -19.5028   24.3551 C   0  0  1  0  0  0  0  0  0  0  0  0
    8.3933  -19.2701   23.3709 O   0  0  0  0  0  0  0  0  0  0  0  0
    7.7537  -18.6260   25.5457 C   0  0  2  0  0  0  0  0  0  0  0  0
    7.9488  -17.2471   25.1214 N   0  0  0  0  0  0  0  0  0  0  0  0
    9.0007  -19.1365   26.1485 C   0  0  0  0  0  0  0  0  0  0  0  0
    9.1278  -20.3941   26.6985 O   0  0  0  0  0  0  0  0  0  0  0  0
   10.0249  -18.3980   26.1747 O   0  0  0  0  0  0  0  0  0  0  0  0
  2  1  1  6
  3  2  1  0
  4  3  1  0
  5  4  2  0
  6  7  1  0
  6  5  1  0
  7  8  2  0
  8  4  1  0
  9 16  1  0
  9  2  1  0
 10  9  2  0
 12 11  1  1
 12 14  1  0
 12 13  1  0
 15 14  1  6
 15 17  1  0
 15 16  1  0
 17 18  2  0
 20 19  1  6
 20 22  1  0
 21 20  1  0
 22 24  1  0
 22 23  1  6
 23 17  1  0
 24 25  1  0
 26 24  2  0
M  END
$$$$
