HLT.pdb
     RDKit          3D

 26 26  0  0  1  0  0  0  0  0999 V2000
    9.7696  -15.3549   20.0306 N   0  0  0  0  0  0  0  0  0  0  0  0
    8.6517  -15.7855   20.8518 C   0  0  1  0  0  0  0  0  0  0  0  0
    8.3641  -17.2567   20.6380 C   0  0  0  0  0  0  0  0  0  0  0  0
    8.0392  -17.5922   19.2469 C   0  0  0  0  0  0  0  0  0  0  0  0
    6.9055  -17.2610   18.5365 C   0  0  0  0  0  0  0  0  0  0  0  0
    7.0024  -17.7656   17.2789 N   0  0  0  0  0  0  0  0  0  0  0  0
    8.1701  -18.3932   17.2172 C   0  0  0  0  0  0  0  0  0  0  0  0
    8.8085  -18.2912   18.4158 N   0  0  0  0  0  0  0  0  0  0  0  0
    8.9166  -15.4519   22.2621 C   0  0  0  0  0  0  0  0  0  0  0  0
   10.0311  -15.6941   22.7857 O   0  0  0  0  0  0  0  0  0  0  0  0
    8.1749  -12.3297   26.7843 C   0  0  0  0  0  0  0  0  0  0  0  0
    7.0177  -13.0971   26.2771 C   0  0  1  0  0  0  0  0  0  0  0  0
    5.7789  -12.1705   26.3659 C   0  0  0  0  0  0  0  0  0  0  0  0
    7.0832  -13.5623   24.8865 C   0  0  0  0  0  0  0  0  0  0  0  0
    8.1455  -14.5102   24.4822 C   0  0  2  0  0  0  0  0  0  0  0  0
    7.9109  -14.8455   23.0650 N   0  0  0  0  0  0  0  0  0  0  0  0
    8.2846  -15.7330   25.2823 C   0  0  0  0  0  0  0  0  0  0  0  0
    7.2178  -16.4192   25.4806 O   0  0  0  0  0  0  0  0  0  0  0  0
   10.0837  -18.7670   24.3764 C   0  0  0  0  0  0  0  0  0  0  0  0
   10.5116  -18.4351   25.7799 C   0  0  1  0  0  0  0  0  0  0  0  0
   11.7285  -17.7303   25.7016 O   0  0  0  0  0  0  0  0  0  0  0  0
    9.5111  -17.5295   26.4738 C   0  0  2  0  0  0  0  0  0  0  0  0
    9.4958  -16.2155   25.8472 N   0  0  0  0  0  0  0  0  0  0  0  0
    9.9172  -17.3963   27.8868 C   0  0  0  0  0  0  0  0  0  0  0  0
    9.9774  -18.4526   28.7704 O   0  0  0  0  0  0  0  0  0  0  0  0
   10.2323  -16.2592   28.3373 O   0  0  0  0  0  0  0  0  0  0  0  0
  2  1  1  6
  3  2  1  0
  4  3  1  0
  5  4  2  0
  6  7  1  0
  6  5  1  0
  7  8  2  0
  8  4  1  0
  9 16  1  0
  9  2  1  0
 10  9  2  0
 12 11  1  6
 12 14  1  0
 12 13  1  0
 15 14  1  1
 15 17  1  0
 15 16  1  0
 17 18  2  0
 20 19  1  6
 20 22  1  0
 21 20  1  0
 22 24  1  0
 22 23  1  6
 23 17  1  0
 24 25  1  0
 26 24  2  0
M  END
$$$$
