HLT.pdb
     RDKit          3D

 26 26  0  0  1  0  0  0  0  0999 V2000
    9.3993  -16.0232   20.0378 N   0  0  0  0  0  0  0  0  0  0  0  0
    8.2645  -16.1316   20.9378 C   0  0  1  0  0  0  0  0  0  0  0  0
    7.7635  -17.5593   21.0000 C   0  0  0  0  0  0  0  0  0  0  0  0
    7.2370  -18.0498   19.7211 C   0  0  0  0  0  0  0  0  0  0  0  0
    6.7176  -17.3130   18.6785 C   0  0  0  0  0  0  0  0  0  0  0  0
    6.3438  -18.1541   17.6792 N   0  0  0  0  0  0  0  0  0  0  0  0
    6.6272  -19.3810   18.0982 C   0  0  0  0  0  0  0  0  0  0  0  0
    7.1730  -19.3246   19.3445 N   0  0  0  0  0  0  0  0  0  0  0  0
    8.6285  -15.5933   22.2599 C   0  0  0  0  0  0  0  0  0  0  0  0
    9.8043  -15.6763   22.6906 O   0  0  0  0  0  0  0  0  0  0  0  0
    5.9178  -12.0264   26.5577 C   0  0  0  0  0  0  0  0  0  0  0  0
    7.1423  -12.5358   25.9047 C   0  0  1  0  0  0  0  0  0  0  0  0
    7.9017  -13.3857   26.9545 C   0  0  0  0  0  0  0  0  0  0  0  0
    6.9631  -13.3984   24.7307 C   0  0  0  0  0  0  0  0  0  0  0  0
    7.9884  -14.4156   24.4079 C   0  0  2  0  0  0  0  0  0  0  0  0
    7.6514  -14.9650   23.0810 N   0  0  0  0  0  0  0  0  0  0  0  0
    8.1775  -15.5000   25.3789 C   0  0  0  0  0  0  0  0  0  0  0  0
    7.1182  -15.9844   25.9188 O   0  0  0  0  0  0  0  0  0  0  0  0
    9.8725  -18.8582   24.7814 C   0  0  0  0  0  0  0  0  0  0  0  0
   10.3874  -18.2784   26.0704 C   0  0  1  0  0  0  0  0  0  0  0  0
   11.6130  -17.6415   25.7946 O   0  0  0  0  0  0  0  0  0  0  0  0
    9.4486  -17.2249   26.6282 C   0  0  2  0  0  0  0  0  0  0  0  0
    9.4282  -16.0539   25.7635 N   0  0  0  0  0  0  0  0  0  0  0  0
    9.9363  -16.8395   27.9672 C   0  0  0  0  0  0  0  0  0  0  0  0
    9.9868  -17.7009   29.0422 O   0  0  0  0  0  0  0  0  0  0  0  0
   10.3358  -15.6579   28.1657 O   0  0  0  0  0  0  0  0  0  0  0  0
  2  1  1  6
  3  2  1  0
  4  3  1  0
  5  4  2  0
  6  7  1  0
  6  5  1  0
  7  8  2  0
  8  4  1  0
  9 16  1  0
  9  2  1  0
 10  9  2  0
 12 11  1  1
 12 14  1  0
 12 13  1  0
 15 14  1  1
 15 17  1  0
 15 16  1  0
 17 18  2  0
 20 19  1  6
 20 22  1  0
 21 20  1  0
 22 24  1  0
 22 23  1  6
 23 17  1  0
 24 25  1  0
 26 24  2  0
M  END
$$$$
