HLT.pdb
     RDKit          3D

 26 26  0  0  1  0  0  0  0  0999 V2000
   10.3092  -17.9021   15.1748 N   0  0  0  0  0  0  0  0  0  0  0  0
    9.2949  -17.8328   16.2121 C   0  0  1  0  0  0  0  0  0  0  0  0
    8.9051  -19.2210   16.6749 C   0  0  0  0  0  0  0  0  0  0  0  0
    8.1278  -19.9711   15.6817 C   0  0  0  0  0  0  0  0  0  0  0  0
    7.4298  -19.4769   14.6009 C   0  0  0  0  0  0  0  0  0  0  0  0
    6.8496  -20.5084   13.9337 N   0  0  0  0  0  0  0  0  0  0  0  0
    7.1837  -21.6126   14.5898 C   0  0  0  0  0  0  0  0  0  0  0  0
    7.9643  -21.2917   15.6585 N   0  0  0  0  0  0  0  0  0  0  0  0
    9.7690  -16.9739   17.3110 C   0  0  0  0  0  0  0  0  0  0  0  0
   10.9853  -16.9269   17.6166 O   0  0  0  0  0  0  0  0  0  0  0  0
    7.5093  -11.9964   20.1809 C   0  0  0  0  0  0  0  0  0  0  0  0
    8.5728  -13.0182   20.0803 C   0  0  1  0  0  0  0  0  0  0  0  0
    8.7813  -13.6037   21.4997 C   0  0  0  0  0  0  0  0  0  0  0  0
    8.3170  -14.1630   19.1980 C   0  0  0  0  0  0  0  0  0  0  0  0
    9.3095  -15.2578   19.1150 C   0  0  2  0  0  0  0  0  0  0  0  0
    8.8551  -16.1754   18.0532 N   0  0  0  0  0  0  0  0  0  0  0  0
    9.5850  -16.0001   20.3510 C   0  0  0  0  0  0  0  0  0  0  0  0
    8.5767  -16.5254   20.9473 O   0  0  0  0  0  0  0  0  0  0  0  0
   11.8319  -19.0229   20.9691 C   0  0  0  0  0  0  0  0  0  0  0  0
   12.1239  -17.9794   22.0126 C   0  0  1  0  0  0  0  0  0  0  0  0
   13.2616  -17.2620   21.5948 O   0  0  0  0  0  0  0  0  0  0  0  0
   10.9873  -16.9829   22.1452 C   0  0  2  0  0  0  0  0  0  0  0  0
   10.8678  -16.1848   20.9335 N   0  0  0  0  0  0  0  0  0  0  0  0
   11.2845  -16.0988   23.2894 C   0  0  0  0  0  0  0  0  0  0  0  0
   11.2446  -16.5077   24.6052 O   0  0  0  0  0  0  0  0  0  0  0  0
   11.5957  -14.8932   23.0776 O   0  0  0  0  0  0  0  0  0  0  0  0
  2  1  1  6
  3  2  1  0
  4  3  1  0
  5  4  2  0
  6  7  1  0
  6  5  1  0
  7  8  2  0
  8  4  1  0
  9 16  1  0
  9  2  1  0
 10  9  2  0
 12 11  1  1
 12 14  1  0
 12 13  1  0
 15 14  1  1
 15 17  1  0
 15 16  1  0
 17 18  2  0
 20 19  1  6
 20 22  1  0
 21 20  1  0
 22 24  1  0
 22 23  1  6
 23 17  1  0
 24 25  1  0
 26 24  2  0
M  END
$$$$
