HLT.pdb
     RDKit          3D

 26 26  0  0  1  0  0  0  0  0999 V2000
   11.1783  -16.3404   15.5869 N   0  0  0  0  0  0  0  0  0  0  0  0
   10.4496  -17.0654   16.6129 C   0  0  1  0  0  0  0  0  0  0  0  0
   10.8474  -18.5266   16.6224 C   0  0  0  0  0  0  0  0  0  0  0  0
   10.5016  -19.2341   15.3842 C   0  0  0  0  0  0  0  0  0  0  0  0
    9.3613  -19.1023   14.6215 C   0  0  0  0  0  0  0  0  0  0  0  0
    9.4378  -19.9395   13.5543 N   0  0  0  0  0  0  0  0  0  0  0  0
   10.5998  -20.5721   13.6585 C   0  0  0  0  0  0  0  0  0  0  0  0
   11.2547  -20.1460   14.7738 N   0  0  0  0  0  0  0  0  0  0  0  0
   10.6465  -16.4089   17.9169 C   0  0  0  0  0  0  0  0  0  0  0  0
   11.7973  -16.2349   18.3862 O   0  0  0  0  0  0  0  0  0  0  0  0
    6.6533  -12.8716   19.4777 C   0  0  0  0  0  0  0  0  0  0  0  0
    7.9383  -13.5421   19.1871 C   0  0  1  0  0  0  0  0  0  0  0  0
    9.0141  -12.4345   19.0579 C   0  0  0  0  0  0  0  0  0  0  0  0
    8.4405  -14.4864   20.1925 C   0  0  0  0  0  0  0  0  0  0  0  0
    9.7026  -15.2177   19.9419 C   0  0  2  0  0  0  0  0  0  0  0  0
    9.5321  -15.9558   18.6763 N   0  0  0  0  0  0  0  0  0  0  0  0
   10.1701  -16.1189   21.0021 C   0  0  0  0  0  0  0  0  0  0  0  0
    9.4101  -17.1112   21.2948 O   0  0  0  0  0  0  0  0  0  0  0  0
   13.1585  -18.3431   21.3177 C   0  0  0  0  0  0  0  0  0  0  0  0
   13.0793  -17.5234   22.5766 C   0  0  1  0  0  0  0  0  0  0  0  0
   13.9753  -16.4449   22.4429 O   0  0  0  0  0  0  0  0  0  0  0  0
   11.6951  -16.9359   22.7794 C   0  0  2  0  0  0  0  0  0  0  0  0
   11.3878  -15.9836   21.7219 N   0  0  0  0  0  0  0  0  0  0  0  0
   11.6773  -16.2452   24.0840 C   0  0  0  0  0  0  0  0  0  0  0  0
   11.9072  -16.8751   25.2884 O   0  0  0  0  0  0  0  0  0  0  0  0
   11.4398  -15.0055   24.1265 O   0  0  0  0  0  0  0  0  0  0  0  0
  2  1  1  6
  3  2  1  0
  4  3  1  0
  5  4  2  0
  6  7  1  0
  6  5  1  0
  7  8  2  0
  8  4  1  0
  9 16  1  0
  9  2  1  0
 10  9  2  0
 12 11  1  1
 12 14  1  0
 12 13  1  0
 15 14  1  1
 15 17  1  0
 15 16  1  0
 17 18  2  0
 20 19  1  6
 20 22  1  0
 21 20  1  0
 22 24  1  0
 22 23  1  6
 23 17  1  0
 24 25  1  0
 26 24  2  0
M  END
$$$$
