HLT.pdb
     RDKit          3D

 26 26  0  0  1  0  0  0  0  0999 V2000
    9.2790  -15.7474   20.0693 N   0  0  0  0  0  0  0  0  0  0  0  0
    8.1285  -15.9323   20.9362 C   0  0  1  0  0  0  0  0  0  0  0  0
    7.6044  -17.3496   20.8371 C   0  0  0  0  0  0  0  0  0  0  0  0
    7.2821  -17.7586   19.4652 C   0  0  0  0  0  0  0  0  0  0  0  0
    6.4285  -17.1439   18.5747 C   0  0  0  0  0  0  0  0  0  0  0  0
    6.4159  -17.8447   17.4109 N   0  0  0  0  0  0  0  0  0  0  0  0
    7.2436  -18.8678   17.5821 C   0  0  0  0  0  0  0  0  0  0  0  0
    7.7762  -18.8213   18.8345 N   0  0  0  0  0  0  0  0  0  0  0  0
    8.4798  -15.5457   22.3136 C   0  0  0  0  0  0  0  0  0  0  0  0
    9.6085  -15.8131   22.7926 O   0  0  0  0  0  0  0  0  0  0  0  0
    8.0659  -12.3460   26.8422 C   0  0  0  0  0  0  0  0  0  0  0  0
    6.8556  -13.0458   26.3619 C   0  0  1  0  0  0  0  0  0  0  0  0
    5.6732  -12.0516   26.4828 C   0  0  0  0  0  0  0  0  0  0  0  0
    6.8611  -13.5090   24.9690 C   0  0  0  0  0  0  0  0  0  0  0  0
    7.8330  -14.5421   24.5463 C   0  0  2  0  0  0  0  0  0  0  0  0
    7.5436  -14.8578   23.1348 N   0  0  0  0  0  0  0  0  0  0  0  0
    7.8860  -15.7715   25.3464 C   0  0  0  0  0  0  0  0  0  0  0  0
    6.7726  -16.3772   25.5509 O   0  0  0  0  0  0  0  0  0  0  0  0
    8.8945  -18.9872   24.5290 C   0  0  0  0  0  0  0  0  0  0  0  0
    9.6259  -18.7159   25.8153 C   0  0  1  0  0  0  0  0  0  0  0  0
   10.9230  -18.2762   25.4863 O   0  0  0  0  0  0  0  0  0  0  0  0
    8.9652  -17.6090   26.6156 C   0  0  2  0  0  0  0  0  0  0  0  0
    9.0613  -16.3419   25.9052 N   0  0  0  0  0  0  0  0  0  0  0  0
    9.6640  -17.5009   27.9114 C   0  0  0  0  0  0  0  0  0  0  0  0
   10.3806  -16.3914   28.3061 O   0  0  0  0  0  0  0  0  0  0  0  0
    9.6184  -18.4671   28.7235 O   0  0  0  0  0  0  0  0  0  0  0  0
  2  1  1  6
  3  2  1  0
  4  3  1  0
  5  4  2  0
  6  7  1  0
  6  5  1  0
  7  8  2  0
  8  4  1  0
  9 16  1  0
  9  2  1  0
 10  9  2  0
 12 11  1  6
 12 14  1  0
 12 13  1  0
 15 14  1  1
 15 17  1  0
 15 16  1  0
 17 18  2  0
 20 19  1  6
 20 22  1  0
 21 20  1  0
 22 24  1  0
 22 23  1  6
 23 17  1  0
 24 25  1  0
 26 24  2  0
M  END
$$$$
