HLT.pdb
     RDKit          3D

 26 26  0  0  1  0  0  0  0  0999 V2000
   10.8228  -14.5759   21.4617 N   0  0  0  0  0  0  0  0  0  0  0  0
    9.4569  -14.3763   21.9133 C   0  0  1  0  0  0  0  0  0  0  0  0
    8.4963  -15.2275   21.1097 C   0  0  0  0  0  0  0  0  0  0  0  0
    8.1557  -14.6498   19.8045 C   0  0  0  0  0  0  0  0  0  0  0  0
    8.5965  -13.4626   19.2606 C   0  0  0  0  0  0  0  0  0  0  0  0
    8.0419  -13.3007   18.0311 N   0  0  0  0  0  0  0  0  0  0  0  0
    7.2768  -14.3650   17.8234 C   0  0  0  0  0  0  0  0  0  0  0  0
    7.3417  -15.1931   18.9025 N   0  0  0  0  0  0  0  0  0  0  0  0
    9.3730  -14.6292   23.3622 C   0  0  0  0  0  0  0  0  0  0  0  0
   10.3627  -15.0607   24.0018 O   0  0  0  0  0  0  0  0  0  0  0  0
    5.6248  -11.7065   26.4847 C   0  0  0  0  0  0  0  0  0  0  0  0
    6.8547  -12.3675   25.9994 C   0  0  1  0  0  0  0  0  0  0  0  0
    8.0069  -11.9418   26.9440 C   0  0  0  0  0  0  0  0  0  0  0  0
    6.8607  -13.8352   25.9808 C   0  0  0  0  0  0  0  0  0  0  0  0
    8.0741  -14.5555   25.5343 C   0  0  2  0  0  0  0  0  0  0  0  0
    8.1633  -14.3890   24.0713 N   0  0  0  0  0  0  0  0  0  0  0  0
    8.1754  -15.9744   25.8961 C   0  0  0  0  0  0  0  0  0  0  0  0
    8.1040  -16.2594   27.1458 O   0  0  0  0  0  0  0  0  0  0  0  0
    6.6794  -19.2492   23.7943 C   0  0  0  0  0  0  0  0  0  0  0  0
    8.0698  -19.3922   24.3505 C   0  0  1  0  0  0  0  0  0  0  0  0
    8.9779  -19.0833   23.3192 O   0  0  0  0  0  0  0  0  0  0  0  0
    8.3260  -18.4154   25.4831 C   0  0  2  0  0  0  0  0  0  0  0  0
    8.3416  -17.0489   24.9813 N   0  0  0  0  0  0  0  0  0  0  0  0
    9.6387  -18.7367   26.0769 C   0  0  0  0  0  0  0  0  0  0  0  0
    9.9244  -19.9291   26.7068 O   0  0  0  0  0  0  0  0  0  0  0  0
   10.5711  -17.8867   26.0181 O   0  0  0  0  0  0  0  0  0  0  0  0
  2  1  1  6
  3  2  1  0
  4  3  1  0
  5  4  2  0
  6  7  1  0
  6  5  1  0
  7  8  2  0
  8  4  1  0
  9 16  1  0
  9  2  1  0
 10  9  2  0
 12 11  1  1
 12 14  1  0
 12 13  1  0
 15 14  1  6
 15 17  1  0
 15 16  1  0
 17 18  2  0
 20 19  1  6
 20 22  1  0
 21 20  1  0
 22 24  1  0
 22 23  1  6
 23 17  1  0
 24 25  1  0
 26 24  2  0
M  END
$$$$
