HLT.pdb
     RDKit          3D

 26 26  0  0  1  0  0  0  0  0999 V2000
    9.0867  -15.6824   19.9587 N   0  0  0  0  0  0  0  0  0  0  0  0
    8.0809  -16.0537   20.9385 C   0  0  1  0  0  0  0  0  0  0  0  0
    7.7826  -17.5365   20.8658 C   0  0  0  0  0  0  0  0  0  0  0  0
    7.1859  -17.9503   19.5906 C   0  0  0  0  0  0  0  0  0  0  0  0
    7.6930  -17.7779   18.3207 C   0  0  0  0  0  0  0  0  0  0  0  0
    6.8272  -18.3076   17.4177 N   0  0  0  0  0  0  0  0  0  0  0  0
    5.8101  -18.7952   18.1170 C   0  0  0  0  0  0  0  0  0  0  0  0
    6.0227  -18.5804   19.4448 N   0  0  0  0  0  0  0  0  0  0  0  0
    8.5124  -15.6205   22.2788 C   0  0  0  0  0  0  0  0  0  0  0  0
    9.7026  -15.7595   22.6515 O   0  0  0  0  0  0  0  0  0  0  0  0
    8.3013  -12.2809   26.6996 C   0  0  0  0  0  0  0  0  0  0  0  0
    7.0998  -13.0727   26.3608 C   0  0  1  0  0  0  0  0  0  0  0  0
    5.8728  -12.1441   26.5429 C   0  0  0  0  0  0  0  0  0  0  0  0
    7.0136  -13.6031   24.9948 C   0  0  0  0  0  0  0  0  0  0  0  0
    7.9797  -14.6313   24.5478 C   0  0  2  0  0  0  0  0  0  0  0  0
    7.5858  -15.0327   23.1842 N   0  0  0  0  0  0  0  0  0  0  0  0
    8.1370  -15.8126   25.4048 C   0  0  0  0  0  0  0  0  0  0  0  0
    7.0646  -16.4403   25.7274 O   0  0  0  0  0  0  0  0  0  0  0  0
    9.4428  -19.0682   24.6974 C   0  0  0  0  0  0  0  0  0  0  0  0
   10.1457  -18.6297   25.9530 C   0  0  1  0  0  0  0  0  0  0  0  0
   11.3880  -18.0811   25.5795 O   0  0  0  0  0  0  0  0  0  0  0  0
    9.3744  -17.5435   26.6794 C   0  0  2  0  0  0  0  0  0  0  0  0
    9.3711  -16.3145   25.8989 N   0  0  0  0  0  0  0  0  0  0  0  0
   10.0364  -17.3009   27.9764 C   0  0  0  0  0  0  0  0  0  0  0  0
   10.1192  -18.2395   28.9826 O   0  0  0  0  0  0  0  0  0  0  0  0
   10.5653  -16.1765   28.2024 O   0  0  0  0  0  0  0  0  0  0  0  0
  2  1  1  6
  3  2  1  0
  4  3  1  0
  5  4  2  0
  6  7  1  0
  6  5  1  0
  7  8  2  0
  8  4  1  0
  9 16  1  0
  9  2  1  0
 10  9  2  0
 12 11  1  6
 12 14  1  0
 12 13  1  0
 15 14  1  1
 15 17  1  0
 15 16  1  0
 17 18  2  0
 20 19  1  6
 20 22  1  0
 21 20  1  0
 22 24  1  0
 22 23  1  6
 23 17  1  0
 24 25  1  0
 26 24  2  0
M  END
$$$$
