HLT.pdb
     RDKit          3D

 26 26  0  0  1  0  0  0  0  0999 V2000
   10.6269  -15.9029   21.8220 N   0  0  0  0  0  0  0  0  0  0  0  0
    9.5209  -15.0820   22.2828 C   0  0  1  0  0  0  0  0  0  0  0  0
    8.2727  -15.3586   21.4713 C   0  0  0  0  0  0  0  0  0  0  0  0
    8.0869  -14.4298   20.3506 C   0  0  0  0  0  0  0  0  0  0  0  0
    8.9194  -13.4077   19.9483 C   0  0  0  0  0  0  0  0  0  0  0  0
    8.3783  -12.7898   18.8662 N   0  0  0  0  0  0  0  0  0  0  0  0
    7.2382  -13.4182   18.6086 C   0  0  0  0  0  0  0  0  0  0  0  0
    7.0540  -14.4210   19.5114 N   0  0  0  0  0  0  0  0  0  0  0  0
    9.3222  -15.2858   23.7283 C   0  0  0  0  0  0  0  0  0  0  0  0
   10.2052  -15.8340   24.4315 O   0  0  0  0  0  0  0  0  0  0  0  0
    5.6985  -11.8085   26.1702 C   0  0  0  0  0  0  0  0  0  0  0  0
    6.8958  -12.6264   25.8824 C   0  0  1  0  0  0  0  0  0  0  0  0
    8.0488  -12.0749   26.7584 C   0  0  0  0  0  0  0  0  0  0  0  0
    6.8092  -14.0622   26.1748 C   0  0  0  0  0  0  0  0  0  0  0  0
    7.9407  -14.9491   25.8231 C   0  0  2  0  0  0  0  0  0  0  0  0
    8.1201  -14.8642   24.3615 N   0  0  0  0  0  0  0  0  0  0  0  0
    7.8429  -16.3510   26.2472 C   0  0  0  0  0  0  0  0  0  0  0  0
    7.6488  -16.5648   27.4982 O   0  0  0  0  0  0  0  0  0  0  0  0
    6.2045  -19.6915   24.3812 C   0  0  0  0  0  0  0  0  0  0  0  0
    7.6030  -19.8508   24.9119 C   0  0  1  0  0  0  0  0  0  0  0  0
    8.4941  -19.6417   23.8413 O   0  0  0  0  0  0  0  0  0  0  0  0
    7.9237  -18.8147   25.9730 C   0  0  2  0  0  0  0  0  0  0  0  0
    7.9417  -17.4805   25.3908 N   0  0  0  0  0  0  0  0  0  0  0  0
    9.2546  -19.1265   26.5303 C   0  0  0  0  0  0  0  0  0  0  0  0
    9.5654  -20.3158   27.1542 O   0  0  0  0  0  0  0  0  0  0  0  0
   10.1796  -18.2709   26.4436 O   0  0  0  0  0  0  0  0  0  0  0  0
  2  1  1  6
  3  2  1  0
  4  3  1  0
  5  4  2  0
  6  7  1  0
  6  5  1  0
  7  8  2  0
  8  4  1  0
  9 16  1  0
  9  2  1  0
 10  9  2  0
 12 11  1  1
 12 14  1  0
 12 13  1  0
 15 14  1  6
 15 17  1  0
 15 16  1  0
 17 18  2  0
 20 19  1  6
 20 22  1  0
 21 20  1  0
 22 24  1  0
 22 23  1  6
 23 17  1  0
 24 25  1  0
 26 24  2  0
M  END
$$$$
