HLT.pdb
     RDKit          3D

 26 26  0  0  1  0  0  0  0  0999 V2000
    9.7432  -14.8206   20.7199 N   0  0  0  0  0  0  0  0  0  0  0  0
    8.6478  -15.4102   21.4695 C   0  0  1  0  0  0  0  0  0  0  0  0
    8.4322  -16.8521   21.0600 C   0  0  0  0  0  0  0  0  0  0  0  0
    7.9858  -17.0040   19.6703 C   0  0  0  0  0  0  0  0  0  0  0  0
    8.7098  -16.7870   18.5178 C   0  0  0  0  0  0  0  0  0  0  0  0
    7.9231  -17.0442   17.4405 N   0  0  0  0  0  0  0  0  0  0  0  0
    6.7414  -17.4114   17.9200 C   0  0  0  0  0  0  0  0  0  0  0  0
    6.7727  -17.3891   19.2813 N   0  0  0  0  0  0  0  0  0  0  0  0
    8.8965  -15.2551   22.9133 C   0  0  0  0  0  0  0  0  0  0  0  0
   10.0556  -15.3534   23.3841 O   0  0  0  0  0  0  0  0  0  0  0  0
    5.5449  -12.0691   26.0798 C   0  0  0  0  0  0  0  0  0  0  0  0
    6.7500  -12.7458   25.5554 C   0  0  1  0  0  0  0  0  0  0  0  0
    7.9792  -12.0586   26.2019 C   0  0  0  0  0  0  0  0  0  0  0  0
    6.8863  -14.1798   25.8378 C   0  0  0  0  0  0  0  0  0  0  0  0
    8.0274  -14.9314   25.2692 C   0  0  2  0  0  0  0  0  0  0  0  0
    7.8240  -14.9895   23.8093 N   0  0  0  0  0  0  0  0  0  0  0  0
    8.2721  -16.2751   25.8068 C   0  0  0  0  0  0  0  0  0  0  0  0
    7.2598  -17.0610   25.8829 O   0  0  0  0  0  0  0  0  0  0  0  0
   10.0455  -19.1341   24.4690 C   0  0  0  0  0  0  0  0  0  0  0  0
   10.5766  -18.9457   25.8638 C   0  0  1  0  0  0  0  0  0  0  0  0
   11.7738  -18.2095   25.7708 O   0  0  0  0  0  0  0  0  0  0  0  0
    9.6206  -18.1428   26.7262 C   0  0  2  0  0  0  0  0  0  0  0  0
    9.5297  -16.7725   26.2429 N   0  0  0  0  0  0  0  0  0  0  0  0
   10.1395  -18.1438   28.1082 C   0  0  0  0  0  0  0  0  0  0  0  0
   10.2471  -19.2766   28.8861 O   0  0  0  0  0  0  0  0  0  0  0  0
   10.5128  -17.0566   28.6316 O   0  0  0  0  0  0  0  0  0  0  0  0
  2  1  1  6
  3  2  1  0
  4  3  1  0
  5  4  2  0
  6  7  1  0
  6  5  1  0
  7  8  2  0
  8  4  1  0
  9 16  1  0
  9  2  1  0
 10  9  2  0
 12 11  1  1
 12 14  1  0
 12 13  1  0
 15 14  1  1
 15 17  1  0
 15 16  1  0
 17 18  2  0
 20 19  1  6
 20 22  1  0
 21 20  1  0
 22 24  1  0
 22 23  1  6
 23 17  1  0
 24 25  1  0
 26 24  2  0
M  END
$$$$
