HLT.pdb
     RDKit          3D

 26 26  0  0  1  0  0  0  0  0999 V2000
   10.3361  -14.1131   20.2569 N   0  0  0  0  0  0  0  0  0  0  0  0
    9.0028  -14.0422   20.8286 C   0  0  1  0  0  0  0  0  0  0  0  0
    8.0510  -14.9560   20.0854 C   0  0  0  0  0  0  0  0  0  0  0  0
    7.9377  -14.6434   18.6562 C   0  0  0  0  0  0  0  0  0  0  0  0
    8.0972  -13.4213   18.0394 C   0  0  0  0  0  0  0  0  0  0  0  0
    7.9083  -13.5672   16.7019 N   0  0  0  0  0  0  0  0  0  0  0  0
    7.6387  -14.8510   16.5008 C   0  0  0  0  0  0  0  0  0  0  0  0
    7.6550  -15.5141   17.6901 N   0  0  0  0  0  0  0  0  0  0  0  0
    9.0672  -14.3323   22.2715 C   0  0  0  0  0  0  0  0  0  0  0  0
   10.0509  -14.9338   22.7670 O   0  0  0  0  0  0  0  0  0  0  0  0
    8.1204  -12.4656   27.3841 C   0  0  0  0  0  0  0  0  0  0  0  0
    6.9713  -13.0241   26.6406 C   0  0  1  0  0  0  0  0  0  0  0  0
    5.7617  -12.0904   26.8979 C   0  0  0  0  0  0  0  0  0  0  0  0
    7.1065  -13.1277   25.1826 C   0  0  0  0  0  0  0  0  0  0  0  0
    8.1390  -14.0176   24.6060 C   0  0  2  0  0  0  0  0  0  0  0  0
    8.0116  -13.9356   23.1387 N   0  0  0  0  0  0  0  0  0  0  0  0
    8.1288  -15.4185   25.0441 C   0  0  0  0  0  0  0  0  0  0  0  0
    7.0261  -16.0607   24.9034 O   0  0  0  0  0  0  0  0  0  0  0  0
    9.4147  -18.2758   23.5210 C   0  0  0  0  0  0  0  0  0  0  0  0
    9.9451  -18.3513   24.9267 C   0  0  1  0  0  0  0  0  0  0  0  0
   11.2379  -17.7925   24.9276 O   0  0  0  0  0  0  0  0  0  0  0  0
    9.1023  -17.5369   25.8905 C   0  0  2  0  0  0  0  0  0  0  0  0
    9.2333  -16.1157   25.6036 N   0  0  0  0  0  0  0  0  0  0  0  0
    9.5814  -17.8087   27.2601 C   0  0  0  0  0  0  0  0  0  0  0  0
    9.5559  -19.0551   27.8483 O   0  0  0  0  0  0  0  0  0  0  0  0
   10.0461  -16.8614   27.9543 O   0  0  0  0  0  0  0  0  0  0  0  0
  2  1  1  6
  3  2  1  0
  4  3  1  0
  5  4  2  0
  6  7  1  0
  6  5  1  0
  7  8  2  0
  8  4  1  0
  9 16  1  0
  9  2  1  0
 10  9  2  0
 12 11  1  1
 12 14  1  0
 12 13  1  0
 15 14  1  1
 15 17  1  0
 15 16  1  0
 17 18  2  0
 20 19  1  6
 20 22  1  0
 21 20  1  0
 22 24  1  0
 22 23  1  6
 23 17  1  0
 24 25  1  0
 26 24  2  0
M  END
$$$$
