RDI.pdb
     RDKit          3D

 28 27  0  0  1  0  0  0  0  0999 V2000
    8.7333  -12.8246   16.8926 N   0  0  0  0  0  0  0  0  0  0  0  0
    8.9206  -12.5451   18.2728 C   0  0  0  0  0  0  0  0  0  0  0  0
   10.0453  -12.0815   18.6281 N   0  0  0  0  0  0  0  0  0  0  0  0
    7.9256  -12.7496   19.2345 N   0  0  0  0  0  0  0  0  0  0  0  0
    6.7032  -13.4648   19.1061 C   0  0  0  0  0  0  0  0  0  0  0  0
    6.7361  -14.9075   19.4367 C   0  0  0  0  0  0  0  0  0  0  0  0
    7.1468  -15.3516   20.7810 C   0  0  0  0  0  0  0  0  0  0  0  0
    7.2230  -16.8424   20.9856 C   0  0  2  0  0  0  0  0  0  0  0  0
    5.9837  -17.4935   20.7970 N   0  0  0  0  0  0  0  0  0  0  0  0
    7.8632  -17.0968   22.3194 C   0  0  0  0  0  0  0  0  0  0  0  0
    7.0992  -17.1833   23.3323 O   0  0  0  0  0  0  0  0  0  0  0  0
   10.2939  -11.8626   19.5992 N   0  0  0  0  0  0  0  0  0  0  0  0
    9.2365  -17.2469   22.5464 C   0  0  2  0  0  0  0  0  0  0  0  0
    9.8066  -17.4893   23.8605 C   0  0  0  0  0  0  0  0  0  0  0  0
   11.1876  -18.0411   23.8348 C   0  0  0  0  0  0  0  0  0  0  0  0
   11.7166  -18.3994   25.1685 O   0  0  0  0  0  0  0  0  0  0  0  0
   10.9324  -18.4515   26.1447 C   0  0  0  0  0  0  0  0  0  0  0  0
    9.7426  -16.1818   24.6126 O   0  0  0  0  0  0  0  0  0  0  0  0
   10.4295  -15.2007   24.2379 O   0  0  0  0  0  0  0  0  0  0  0  0
   13.0795  -18.6825   25.3630 C   0  0  0  0  0  0  0  0  0  0  0  0
    7.1752  -11.8094   26.6916 C   0  0  0  0  0  0  0  0  0  0  0  0
    7.4312  -13.0333   27.5456 C   0  0  2  0  0  0  0  0  0  0  0  0
    7.4202  -14.3031   26.7153 C   0  0  0  0  0  0  0  0  0  0  0  0
    6.3891  -15.2797   27.1879 C   0  0  2  0  0  0  0  0  0  0  0  0
    8.7841  -14.8832   26.5746 N   0  0  0  0  0  0  0  0  0  0  0  0
    8.9124  -16.0318   25.7499 C   0  0  0  0  0  0  0  0  0  0  0  0
    9.4820  -14.9423   27.8895 O   0  0  0  0  0  0  0  0  0  0  0  0
    9.8410  -13.7880   28.5340 O   0  0  0  0  0  0  0  0  0  0  0  0
  2  3  2  0
  2  1  1  0
  4  2  1  0
  5  4  1  0
  6  5  1  0
  7  6  1  0
  8  7  1  0
  8  9  1  1
 10 11  2  0
 10  8  1  0
 12 10  1  0
 13 12  1  0
 13 14  1  6
 15 16  2  0
 15 14  1  0
 17 13  1  0
 18 17  2  0
 19 15  1  0
 20 21  1  0
 21 22  1  0
 22 24  1  0
 22 23  1  6
 24 26  1  0
 24 25  1  1
 25 17  1  0
 26 27  1  0
 28 26  2  0
M  END
$$$$
