RDI.pdb
     RDKit          3D

 28 27  0  0  1  0  0  0  0  0999 V2000
    8.3487  -12.5725   15.8990 N   0  0  0  0  0  0  0  0  0  0  0  0
    7.9514  -13.9253   15.7252 C   0  0  0  0  0  0  0  0  0  0  0  0
    8.3121  -14.5083   14.6593 N   0  0  0  0  0  0  0  0  0  0  0  0
    7.1992  -14.6273   16.6730 N   0  0  0  0  0  0  0  0  0  0  0  0
    6.7626  -14.1937   17.9550 C   0  0  0  0  0  0  0  0  0  0  0  0
    7.8100  -13.7462   18.9007 C   0  0  0  0  0  0  0  0  0  0  0  0
    7.9784  -14.4263   20.1977 C   0  0  0  0  0  0  0  0  0  0  0  0
    8.3547  -15.8838   20.1311 C   0  0  2  0  0  0  0  0  0  0  0  0
    7.3366  -16.6966   19.5850 N   0  0  0  0  0  0  0  0  0  0  0  0
    8.8247  -16.3056   21.4930 C   0  0  0  0  0  0  0  0  0  0  0  0
    7.9410  -16.6479   22.3409 O   0  0  0  0  0  0  0  0  0  0  0  0
    8.1317  -15.4982   14.4585 N   0  0  0  0  0  0  0  0  0  0  0  0
   10.1592  -16.3540   21.9134 C   0  0  1  0  0  0  0  0  0  0  0  0
   10.5668  -16.8350   23.2223 C   0  0  0  0  0  0  0  0  0  0  0  0
   11.9896  -17.2619   23.3002 C   0  0  0  0  0  0  0  0  0  0  0  0
   12.3286  -18.3895   22.4054 O   0  0  0  0  0  0  0  0  0  0  0  0
   13.4229  -18.3793   21.7947 C   0  0  0  0  0  0  0  0  0  0  0  0
   10.2607  -15.7329   24.2077 O   0  0  0  0  0  0  0  0  0  0  0  0
   10.7424  -14.5856   24.0454 O   0  0  0  0  0  0  0  0  0  0  0  0
   11.4492  -19.4713   22.2266 C   0  0  0  0  0  0  0  0  0  0  0  0
    6.8159  -11.9824   26.7571 C   0  0  0  0  0  0  0  0  0  0  0  0
    7.9224  -12.9650   27.0784 C   0  0  2  0  0  0  0  0  0  0  0  0
    7.9850  -14.0856   26.0574 C   0  0  0  0  0  0  0  0  0  0  0  0
    6.6538  -14.7378   25.8502 C   0  0  2  0  0  0  0  0  0  0  0  0
    9.0881  -15.0410   26.3526 N   0  0  0  0  0  0  0  0  0  0  0  0
    9.4291  -15.9651   25.3300 C   0  0  0  0  0  0  0  0  0  0  0  0
    8.9587  -15.6048   27.7255 O   0  0  0  0  0  0  0  0  0  0  0  0
    9.2025  -14.8194   28.8210 O   0  0  0  0  0  0  0  0  0  0  0  0
  2  3  2  0
  2  1  1  0
  4  2  1  0
  5  4  1  0
  6  5  1  0
  7  6  1  0
  8  7  1  0
  8  9  1  1
 10 11  2  0
 10  8  1  0
 12 10  1  0
 13 12  1  0
 13 14  1  1
 15 16  2  0
 15 14  1  0
 17 13  1  0
 18 17  2  0
 19 15  1  0
 20 21  1  0
 21 22  1  0
 22 24  1  0
 22 23  1  6
 24 26  1  0
 24 25  1  1
 25 17  1  0
 26 27  1  0
 28 26  2  0
M  END
$$$$
