RDI.pdb
     RDKit          3D

 28 27  0  0  1  0  0  0  0  0999 V2000
    8.3437  -12.6741   17.2041 N   0  0  0  0  0  0  0  0  0  0  0  0
    8.5468  -13.0261   18.5653 C   0  0  0  0  0  0  0  0  0  0  0  0
    9.7431  -13.1214   18.9725 N   0  0  0  0  0  0  0  0  0  0  0  0
    7.4953  -13.2579   19.4584 N   0  0  0  0  0  0  0  0  0  0  0  0
    7.5625  -13.6630   20.8199 C   0  0  0  0  0  0  0  0  0  0  0  0
    7.8934  -15.0827   21.0784 C   0  0  0  0  0  0  0  0  0  0  0  0
    6.8407  -16.1128   21.0182 C   0  0  0  0  0  0  0  0  0  0  0  0
    7.2776  -17.5182   21.3407 C   0  0  2  0  0  0  0  0  0  0  0  0
    6.2498  -18.4725   21.1723 N   0  0  0  0  0  0  0  0  0  0  0  0
    7.9015  -17.5097   22.7061 C   0  0  0  0  0  0  0  0  0  0  0  0
    7.1429  -17.7346   23.7015 O   0  0  0  0  0  0  0  0  0  0  0  0
   10.0037  -13.3959   19.9261 N   0  0  0  0  0  0  0  0  0  0  0  0
    9.2538  -17.2730   22.9803 C   0  0  2  0  0  0  0  0  0  0  0  0
    9.8671  -17.5474   24.2684 C   0  0  0  0  0  0  0  0  0  0  0  0
   11.1994  -18.2034   24.1833 C   0  0  0  0  0  0  0  0  0  0  0  0
   11.8308  -18.4541   25.4968 O   0  0  0  0  0  0  0  0  0  0  0  0
   13.0732  -18.3366   25.6118 C   0  0  0  0  0  0  0  0  0  0  0  0
    9.9393  -16.2326   25.0070 O   0  0  0  0  0  0  0  0  0  0  0  0
   10.6647  -15.3032   24.5773 O   0  0  0  0  0  0  0  0  0  0  0  0
   11.0664  -18.8210   26.6178 C   0  0  0  0  0  0  0  0  0  0  0  0
    6.4771  -12.6673   26.0138 C   0  0  0  0  0  0  0  0  0  0  0  0
    7.6995  -13.5516   25.8848 C   0  0  2  0  0  0  0  0  0  0  0  0
    8.2066  -14.0011   27.2423 C   0  0  0  0  0  0  0  0  0  0  0  0
    8.4735  -12.8473   28.1575 C   0  0  2  0  0  0  0  0  0  0  0  0
    9.3453  -14.9526   27.1195 N   0  0  0  0  0  0  0  0  0  0  0  0
    9.1959  -16.0178   26.1929 C   0  0  0  0  0  0  0  0  0  0  0  0
    9.8842  -15.3224   28.4583 O   0  0  0  0  0  0  0  0  0  0  0  0
   10.5023  -14.3813   29.2386 O   0  0  0  0  0  0  0  0  0  0  0  0
  2  3  2  0
  2  1  1  0
  4  2  1  0
  5  4  1  0
  6  5  1  0
  7  6  1  0
  8  7  1  0
  8  9  1  1
 10 11  2  0
 10  8  1  0
 12 10  1  0
 13 12  1  0
 13 14  1  6
 15 16  2  0
 15 14  1  0
 17 13  1  0
 18 17  2  0
 19 15  1  0
 20 21  1  0
 21 22  1  0
 22 24  1  0
 22 23  1  1
 24 26  1  0
 24 25  1  6
 25 17  1  0
 26 27  1  0
 28 26  2  0
M  END
$$$$
