RDI.pdb
     RDKit          3D

 28 27  0  0  1  0  0  0  0  0999 V2000
    8.6247  -12.2187   18.4207 N   0  0  0  0  0  0  0  0  0  0  0  0
    8.4700  -13.4529   17.7344 C   0  0  0  0  0  0  0  0  0  0  0  0
    8.3854  -13.4126   16.4705 N   0  0  0  0  0  0  0  0  0  0  0  0
    8.4179  -14.6883   18.3886 N   0  0  0  0  0  0  0  0  0  0  0  0
    8.3758  -14.9496   19.7858 C   0  0  0  0  0  0  0  0  0  0  0  0
    7.2267  -14.3925   20.5347 C   0  0  0  0  0  0  0  0  0  0  0  0
    6.4442  -15.2526   21.4408 C   0  0  0  0  0  0  0  0  0  0  0  0
    6.8449  -16.7046   21.4772 C   0  0  2  0  0  0  0  0  0  0  0  0
    5.8015  -17.5790   21.1004 N   0  0  0  0  0  0  0  0  0  0  0  0
    7.4393  -16.9895   22.8260 C   0  0  0  0  0  0  0  0  0  0  0  0
    6.6538  -16.9969   23.8259 O   0  0  0  0  0  0  0  0  0  0  0  0
    8.3367  -14.2451   15.8727 N   0  0  0  0  0  0  0  0  0  0  0  0
    8.7916  -17.2480   23.0801 C   0  0  2  0  0  0  0  0  0  0  0  0
    9.3092  -17.5666   24.3996 C   0  0  0  0  0  0  0  0  0  0  0  0
   10.5023  -18.4547   24.3897 C   0  0  0  0  0  0  0  0  0  0  0  0
   11.1007  -18.6723   25.7244 O   0  0  0  0  0  0  0  0  0  0  0  0
   10.4795  -19.3579   26.5699 C   0  0  0  0  0  0  0  0  0  0  0  0
    9.5981  -16.2525   25.0846 O   0  0  0  0  0  0  0  0  0  0  0  0
   10.4236  -15.4475   24.5894 O   0  0  0  0  0  0  0  0  0  0  0  0
   12.3507  -18.1265   26.0635 C   0  0  0  0  0  0  0  0  0  0  0  0
    6.3425  -12.4770   26.2094 C   0  0  0  0  0  0  0  0  0  0  0  0
    7.5107  -13.4180   26.0026 C   0  0  2  0  0  0  0  0  0  0  0  0
    8.1735  -13.7796   27.3186 C   0  0  0  0  0  0  0  0  0  0  0  0
    8.6061  -12.5695   28.0860 C   0  0  2  0  0  0  0  0  0  0  0  0
    9.2459  -14.7962   27.1363 N   0  0  0  0  0  0  0  0  0  0  0  0
    8.9495  -15.8991   26.2928 C   0  0  0  0  0  0  0  0  0  0  0  0
    9.9029  -15.1237   28.4327 O   0  0  0  0  0  0  0  0  0  0  0  0
    9.8888  -16.4078   28.9098 O   0  0  0  0  0  0  0  0  0  0  0  0
  2  3  2  0
  2  1  1  0
  4  2  1  0
  5  4  1  0
  6  5  1  0
  7  6  1  0
  8  7  1  0
  8  9  1  1
 10 11  2  0
 10  8  1  0
 12 10  1  0
 13 12  1  0
 13 14  1  6
 15 16  2  0
 15 14  1  0
 17 13  1  0
 18 17  2  0
 19 15  1  0
 20 21  1  0
 21 22  1  0
 22 24  1  0
 22 23  1  1
 24 26  1  0
 24 25  1  6
 25 17  1  0
 26 27  1  0
 28 26  2  0
M  END
$$$$
