RDI.pdb
     RDKit          3D

 28 27  0  0  1  0  0  0  0  0999 V2000
    8.3206  -15.5070   14.9232 N   0  0  0  0  0  0  0  0  0  0  0  0
    8.0513  -14.1573   15.2752 C   0  0  0  0  0  0  0  0  0  0  0  0
    8.0353  -13.3013   14.3408 N   0  0  0  0  0  0  0  0  0  0  0  0
    7.7986  -13.7473   16.5886 N   0  0  0  0  0  0  0  0  0  0  0  0
    8.0684  -14.4407   17.8004 C   0  0  0  0  0  0  0  0  0  0  0  0
    7.6482  -13.7785   19.0561 C   0  0  0  0  0  0  0  0  0  0  0  0
    7.8385  -14.4554   20.3517 C   0  0  0  0  0  0  0  0  0  0  0  0
    9.1900  -14.2775   20.9935 C   0  0  2  0  0  0  0  0  0  0  0  0
   10.2370  -14.1383   20.0556 N   0  0  0  0  0  0  0  0  0  0  0  0
    9.3848  -15.3889   21.9836 C   0  0  0  0  0  0  0  0  0  0  0  0
    8.4246  -15.6460   22.7767 O   0  0  0  0  0  0  0  0  0  0  0  0
    7.9352  -12.2912   14.4907 N   0  0  0  0  0  0  0  0  0  0  0  0
   10.5391  -16.1707   22.1112 C   0  0  1  0  0  0  0  0  0  0  0  0
   10.6749  -17.2410   23.0841 C   0  0  0  0  0  0  0  0  0  0  0  0
   11.6176  -18.3182   22.6796 C   0  0  0  0  0  0  0  0  0  0  0  0
   11.3335  -19.6299   23.3007 O   0  0  0  0  0  0  0  0  0  0  0  0
   11.1998  -19.7026   24.5447 C   0  0  0  0  0  0  0  0  0  0  0  0
   11.0885  -16.5982   24.3861 O   0  0  0  0  0  0  0  0  0  0  0  0
   12.1205  -15.8865   24.4420 O   0  0  0  0  0  0  0  0  0  0  0  0
   11.2104  -20.7953   22.5247 C   0  0  0  0  0  0  0  0  0  0  0  0
    9.8956  -12.9956   28.7677 C   0  0  0  0  0  0  0  0  0  0  0  0
   10.4921  -14.3565   28.4767 C   0  0  2  0  0  0  0  0  0  0  0  0
    9.9683  -14.9261   27.1716 C   0  0  0  0  0  0  0  0  0  0  0  0
    8.4726  -14.9337   27.1171 C   0  0  2  0  0  0  0  0  0  0  0  0
   10.5926  -16.2393   26.8517 N   0  0  0  0  0  0  0  0  0  0  0  0
   10.3278  -16.7810   25.5664 C   0  0  0  0  0  0  0  0  0  0  0  0
   10.4724  -17.1853   27.9964 O   0  0  0  0  0  0  0  0  0  0  0  0
   11.2146  -16.9943   29.1318 O   0  0  0  0  0  0  0  0  0  0  0  0
  2  3  2  0
  2  1  1  0
  4  2  1  0
  5  4  1  0
  6  5  1  0
  7  6  1  0
  8  7  1  0
  8  9  1  6
 10 11  2  0
 10  8  1  0
 12 10  1  0
 13 12  1  0
 13 14  1  1
 15 16  2  0
 15 14  1  0
 17 13  1  0
 18 17  2  0
 19 15  1  0
 20 21  1  0
 21 22  1  0
 22 24  1  0
 22 23  1  6
 24 26  1  0
 24 25  1  1
 25 17  1  0
 26 27  1  0
 28 26  2  0
M  END
$$$$
