RDI.pdb
     RDKit          3D

 28 27  0  0  1  0  0  0  0  0999 V2000
    7.2949  -12.1061   18.1887 N   0  0  0  0  0  0  0  0  0  0  0  0
    7.8028  -13.1487   17.3683 C   0  0  0  0  0  0  0  0  0  0  0  0
    7.3342  -13.2506   16.1953 N   0  0  0  0  0  0  0  0  0  0  0  0
    8.7888  -14.0442   17.7958 N   0  0  0  0  0  0  0  0  0  0  0  0
    8.8852  -14.7285   19.0387 C   0  0  0  0  0  0  0  0  0  0  0  0
    7.7126  -14.6460   19.9387 C   0  0  0  0  0  0  0  0  0  0  0  0
    7.7601  -15.2612   21.2775 C   0  0  0  0  0  0  0  0  0  0  0  0
    8.2488  -16.6855   21.3289 C   0  0  2  0  0  0  0  0  0  0  0  0
    7.2923  -17.6185   20.8705 N   0  0  0  0  0  0  0  0  0  0  0  0
    8.7634  -16.9511   22.7140 C   0  0  0  0  0  0  0  0  0  0  0  0
    7.9095  -17.0433   23.6517 O   0  0  0  0  0  0  0  0  0  0  0  0
    7.6385  -13.9570   15.5161 N   0  0  0  0  0  0  0  0  0  0  0  0
   10.1098  -17.1059   23.0650 C   0  0  2  0  0  0  0  0  0  0  0  0
   10.5550  -17.3784   24.4207 C   0  0  0  0  0  0  0  0  0  0  0  0
   11.8811  -18.0468   24.5054 C   0  0  0  0  0  0  0  0  0  0  0  0
   12.2683  -18.7718   23.2760 O   0  0  0  0  0  0  0  0  0  0  0  0
   11.7530  -19.8887   23.0355 C   0  0  0  0  0  0  0  0  0  0  0  0
   10.5471  -16.0602   25.1566 O   0  0  0  0  0  0  0  0  0  0  0  0
   11.3300  -15.1400   24.8173 O   0  0  0  0  0  0  0  0  0  0  0  0
   13.2013  -18.2341   22.3727 C   0  0  0  0  0  0  0  0  0  0  0  0
    6.8881  -12.6169   25.8318 C   0  0  0  0  0  0  0  0  0  0  0  0
    8.1554  -13.4454   25.8111 C   0  0  2  0  0  0  0  0  0  0  0  0
    8.6020  -13.8139   27.2136 C   0  0  0  0  0  0  0  0  0  0  0  0
    8.8506  -12.6076   28.0639 C   0  0  2  0  0  0  0  0  0  0  0  0
    9.7298  -14.7859   27.1968 N   0  0  0  0  0  0  0  0  0  0  0  0
    9.6631  -15.8317   26.2390 C   0  0  0  0  0  0  0  0  0  0  0  0
   10.1127  -15.1896   28.5788 O   0  0  0  0  0  0  0  0  0  0  0  0
    9.7840  -16.4325   29.0519 O   0  0  0  0  0  0  0  0  0  0  0  0
  2  3  2  0
  2  1  1  0
  4  2  1  0
  5  4  1  0
  6  5  1  0
  7  6  1  0
  8  7  1  0
  8  9  1  1
 10 11  2  0
 10  8  1  0
 12 10  1  0
 13 12  1  0
 13 14  1  1
 15 16  2  0
 15 14  1  0
 17 13  1  0
 18 17  2  0
 19 15  1  0
 20 21  1  0
 21 22  1  0
 22 24  1  0
 22 23  1  1
 24 26  1  0
 24 25  1  6
 25 17  1  0
 26 27  1  0
 28 26  2  0
M  END
$$$$
