RDI.pdb
     RDKit          3D

 28 27  0  0  1  0  0  0  0  0999 V2000
    7.6868  -12.7012   14.9095 N   0  0  0  0  0  0  0  0  0  0  0  0
    7.8844  -14.0919   14.6973 C   0  0  0  0  0  0  0  0  0  0  0  0
    8.3647  -14.4506   13.5807 N   0  0  0  0  0  0  0  0  0  0  0  0
    7.5830  -15.0610   15.6600 N   0  0  0  0  0  0  0  0  0  0  0  0
    7.2711  -14.8765   17.0351 C   0  0  0  0  0  0  0  0  0  0  0  0
    8.3994  -14.9484   17.9910 C   0  0  0  0  0  0  0  0  0  0  0  0
    8.7172  -13.7949   18.8519 C   0  0  0  0  0  0  0  0  0  0  0  0
    9.8598  -13.9888   19.8147 C   0  0  2  0  0  0  0  0  0  0  0  0
   10.9720  -14.6379   19.2341 N   0  0  0  0  0  0  0  0  0  0  0  0
    9.3220  -14.6575   21.0465 C   0  0  0  0  0  0  0  0  0  0  0  0
    8.2884  -14.1515   21.5874 O   0  0  0  0  0  0  0  0  0  0  0  0
    8.5440  -15.4269   13.3211 N   0  0  0  0  0  0  0  0  0  0  0  0
    9.8636  -15.7958   21.6555 C   0  0  1  0  0  0  0  0  0  0  0  0
    9.2589  -16.4517   22.8021 C   0  0  0  0  0  0  0  0  0  0  0  0
    9.8280  -17.7911   23.1099 C   0  0  0  0  0  0  0  0  0  0  0  0
   11.2797  -17.7770   23.3912 O   0  0  0  0  0  0  0  0  0  0  0  0
   11.8855  -16.6806   23.4305 C   0  0  0  0  0  0  0  0  0  0  0  0
    9.3973  -15.5053   23.9703 O   0  0  0  0  0  0  0  0  0  0  0  0
   10.3261  -14.6618   23.9961 O   0  0  0  0  0  0  0  0  0  0  0  0
   11.9930  -18.9672   23.6154 C   0  0  0  0  0  0  0  0  0  0  0  0
    6.7851  -11.1705   25.7061 C   0  0  0  0  0  0  0  0  0  0  0  0
    7.8751  -12.1911   25.9573 C   0  0  2  0  0  0  0  0  0  0  0  0
    7.3120  -13.5977   26.0385 C   0  0  0  0  0  0  0  0  0  0  0  0
    6.2611  -13.7268   27.0963 C   0  0  2  0  0  0  0  0  0  0  0  0
    8.3905  -14.6203   26.1283 N   0  0  0  0  0  0  0  0  0  0  0  0
    8.4897  -15.5460   25.0564 C   0  0  0  0  0  0  0  0  0  0  0  0
    8.4716  -15.1977   27.4993 O   0  0  0  0  0  0  0  0  0  0  0  0
    8.2100  -16.5263   27.7064 O   0  0  0  0  0  0  0  0  0  0  0  0
  2  3  2  0
  2  1  1  0
  4  2  1  0
  5  4  1  0
  6  5  1  0
  7  6  1  0
  8  7  1  0
  8  9  1  6
 10 11  2  0
 10  8  1  0
 12 10  1  0
 13 12  1  0
 13 14  1  1
 15 16  2  0
 15 14  1  0
 17 13  1  0
 18 17  2  0
 19 15  1  0
 20 21  1  0
 21 22  1  0
 22 24  1  0
 22 23  1  6
 24 26  1  0
 24 25  1  1
 25 17  1  0
 26 27  1  0
 28 26  2  0
M  END
$$$$
