RDI.pdb
     RDKit          3D

 28 27  0  0  1  0  0  0  0  0999 V2000
    7.9486  -12.7218   16.6101 N   0  0  0  0  0  0  0  0  0  0  0  0
    8.3526  -14.0561   16.3373 C   0  0  0  0  0  0  0  0  0  0  0  0
    9.3757  -14.2197   15.6076 N   0  0  0  0  0  0  0  0  0  0  0  0
    7.6813  -15.1748   16.8423 N   0  0  0  0  0  0  0  0  0  0  0  0
    6.5939  -15.2168   17.7576 C   0  0  0  0  0  0  0  0  0  0  0  0
    6.7353  -16.1212   18.9211 C   0  0  0  0  0  0  0  0  0  0  0  0
    6.4469  -15.6314   20.2812 C   0  0  0  0  0  0  0  0  0  0  0  0
    7.5705  -14.8990   20.9676 C   0  0  2  0  0  0  0  0  0  0  0  0
    8.6089  -14.5228   20.0870 N   0  0  0  0  0  0  0  0  0  0  0  0
    8.0166  -15.7245   22.1395 C   0  0  0  0  0  0  0  0  0  0  0  0
    7.1443  -16.0238   23.0149 O   0  0  0  0  0  0  0  0  0  0  0  0
    9.7506  -15.1377   15.3440 N   0  0  0  0  0  0  0  0  0  0  0  0
    9.3176  -16.1951   22.3539 C   0  0  1  0  0  0  0  0  0  0  0  0
    9.7293  -16.8784   23.5681 C   0  0  0  0  0  0  0  0  0  0  0  0
   10.8789  -17.8049   23.3877 C   0  0  0  0  0  0  0  0  0  0  0  0
   11.1584  -18.6524   24.5669 O   0  0  0  0  0  0  0  0  0  0  0  0
   12.1273  -19.4467   24.5347 C   0  0  0  0  0  0  0  0  0  0  0  0
   10.0302  -15.8091   24.5906 O   0  0  0  0  0  0  0  0  0  0  0  0
   11.0192  -15.0510   24.4428 O   0  0  0  0  0  0  0  0  0  0  0  0
   10.3602  -18.5850   25.7219 C   0  0  0  0  0  0  0  0  0  0  0  0
    6.5452  -12.3324   25.8773 C   0  0  0  0  0  0  0  0  0  0  0  0
    7.8070  -13.1466   25.6822 C   0  0  2  0  0  0  0  0  0  0  0  0
    8.3215  -13.6992   26.9982 C   0  0  0  0  0  0  0  0  0  0  0  0
    8.6837  -12.6152   27.9646 C   0  0  2  0  0  0  0  0  0  0  0  0
    9.3954  -14.7095   26.7911 N   0  0  0  0  0  0  0  0  0  0  0  0
    9.2102  -15.6369   25.7321 C   0  0  0  0  0  0  0  0  0  0  0  0
    9.8526  -15.2823   28.0882 O   0  0  0  0  0  0  0  0  0  0  0  0
   10.7452  -14.5976   28.8698 O   0  0  0  0  0  0  0  0  0  0  0  0
  2  3  2  0
  2  1  1  0
  4  2  1  0
  5  4  1  0
  6  5  1  0
  7  6  1  0
  8  7  1  0
  8  9  1  6
 10 11  2  0
 10  8  1  0
 12 10  1  0
 13 12  1  0
 13 14  1  6
 15 16  2  0
 15 14  1  0
 17 13  1  0
 18 17  2  0
 19 15  1  0
 20 21  1  0
 21 22  1  0
 22 24  1  0
 22 23  1  1
 24 26  1  0
 24 25  1  6
 25 17  1  0
 26 27  1  0
 28 26  2  0
M  END
$$$$
