THF.pdb
     RDKit          3D

 29 30  0  0  1  0  0  0  0  0999 V2000
   18.7031  -13.3209  -18.2004 C   0  0  0  0  0  0  0  0  0  0  0  0
   18.5867  -11.8932  -17.7580 C   0  0  1  0  0  0  0  0  0  0  0  0
   17.2522  -11.4967  -17.8208 O   0  0  0  0  0  0  0  0  0  0  0  0
   19.1108  -11.6441  -16.3799 C   0  0  2  0  0  0  0  0  0  0  0  0
   18.4120  -12.4423  -15.4091 N   0  0  0  0  0  0  0  0  0  0  0  0
   18.9926  -10.1786  -16.0469 C   0  0  0  0  0  0  0  0  0  0  0  0
   19.5809   -9.3137  -16.7449 O   0  0  0  0  0  0  0  0  0  0  0  0
   18.2248   -9.7225  -14.9494 N   0  0  0  0  0  0  0  0  0  0  0  0
   18.1590   -8.3079  -14.6474 C   0  0  1  0  0  0  0  0  0  0  0  0
   16.8567   -8.0109  -13.9412 C   0  0  0  0  0  0  0  0  0  0  0  0
   15.6954   -7.9082  -14.8263 C   0  0  0  0  0  0  0  0  0  0  0  0
   15.6950   -7.8383  -16.2011 C   0  0  0  0  0  0  0  0  0  0  0  0
   14.4216   -7.7544  -16.6081 N   0  0  0  0  0  0  0  0  0  0  0  0
   13.6383   -7.7700  -15.5326 C   0  0  0  0  0  0  0  0  0  0  0  0
   14.4146   -7.8646  -14.4310 N   0  0  0  0  0  0  0  0  0  0  0  0
   19.2792   -7.8477  -13.8293 C   0  0  0  0  0  0  0  0  0  0  0  0
   19.4371   -8.3053  -12.6714 O   0  0  0  0  0  0  0  0  0  0  0  0
   20.2400   -6.8884  -14.2539 N   0  0  0  0  0  0  0  0  0  0  0  0
   21.4044   -6.5241  -13.4699 C   0  0  1  0  0  0  0  0  0  0  0  0
   22.6055   -7.3504  -13.8590 C   0  0  0  0  0  0  0  0  0  0  0  0
   23.0224   -7.1615  -15.2687 C   0  0  0  0  0  0  0  0  0  0  0  0
   23.7497   -6.0361  -15.6508 C   0  0  0  0  0  0  0  0  0  0  0  0
   24.1582   -5.8368  -16.9526 C   0  0  0  0  0  0  0  0  0  0  0  0
   23.8629   -6.7499  -17.9427 C   0  0  0  0  0  0  0  0  0  0  0  0
   23.1437   -7.8674  -17.5759 C   0  0  0  0  0  0  0  0  0  0  0  0
   22.7349   -8.0668  -16.2728 C   0  0  0  0  0  0  0  0  0  0  0  0
   21.6417   -5.0677  -13.5385 C   0  0  0  0  0  0  0  0  0  0  0  0
   22.5443   -4.3966  -12.7319 O   0  0  0  0  0  0  0  0  0  0  0  0
   20.9894   -4.3939  -14.3743 O   0  0  0  0  0  0  0  0  0  0  0  0
  2  1  1  1
  3  2  1  0
  4  2  1  0
  4  5  1  1
  6  7  2  0
  6  4  1  0
  8  6  1  0
  9  8  1  0
  9 10  1  1
 11 15  1  0
 11 10  1  0
 12 11  2  0
 13 12  1  0
 13 14  1  0
 14 15  2  0
 16 18  1  0
 16  9  1  0
 17 16  2  0
 19 20  1  6
 19 18  1  0
 21 26  1  0
 21 20  1  0
 22 21  2  0
 23 24  2  0
 23 22  1  0
 24 25  1  0
 25 26  2  0
 27 19  1  0
 28 27  1  0
 29 27  2  0
M  END
$$$$
