THF.pdb
     RDKit          3D

 29 30  0  0  1  0  0  0  0  0999 V2000
   27.3856  -35.4077  -15.0748 C   0  0  0  0  0  0  0  0  0  0  0  0
   28.4679  -34.3725  -15.1421 C   0  0  1  0  0  0  0  0  0  0  0  0
   29.5900  -34.9160  -15.7645 O   0  0  0  0  0  0  0  0  0  0  0  0
   28.0640  -33.1231  -15.8575 C   0  0  2  0  0  0  0  0  0  0  0  0
   29.1216  -32.1491  -15.8339 N   0  0  0  0  0  0  0  0  0  0  0  0
   26.8109  -32.5619  -15.2350 C   0  0  0  0  0  0  0  0  0  0  0  0
   26.8769  -31.6417  -14.3805 O   0  0  0  0  0  0  0  0  0  0  0  0
   25.5259  -33.0416  -15.5827 N   0  0  0  0  0  0  0  0  0  0  0  0
   24.3445  -32.4405  -14.9999 C   0  0  1  0  0  0  0  0  0  0  0  0
   23.4700  -31.8929  -16.1036 C   0  0  0  0  0  0  0  0  0  0  0  0
   23.9485  -30.6416  -16.6934 C   0  0  0  0  0  0  0  0  0  0  0  0
   25.0823  -29.9376  -16.3560 C   0  0  0  0  0  0  0  0  0  0  0  0
   25.1423  -28.8541  -17.1412 N   0  0  0  0  0  0  0  0  0  0  0  0
   24.0856  -28.8662  -17.9499 C   0  0  0  0  0  0  0  0  0  0  0  0
   23.3452  -29.9637  -17.6808 N   0  0  0  0  0  0  0  0  0  0  0  0
   23.5758  -33.3749  -14.1801 C   0  0  0  0  0  0  0  0  0  0  0  0
   23.3323  -34.5288  -14.6092 O   0  0  0  0  0  0  0  0  0  0  0  0
   23.0626  -33.0719  -12.8884 N   0  0  0  0  0  0  0  0  0  0  0  0
   22.2903  -34.0097  -12.0964 C   0  0  1  0  0  0  0  0  0  0  0  0
   23.1446  -34.6660  -11.0398 C   0  0  0  0  0  0  0  0  0  0  0  0
   23.7729  -33.7032  -10.1044 C   0  0  0  0  0  0  0  0  0  0  0  0
   23.0125  -33.0564   -9.1323 C   0  0  0  0  0  0  0  0  0  0  0  0
   23.5702  -32.1619   -8.2433 C   0  0  0  0  0  0  0  0  0  0  0  0
   24.9163  -31.8652   -8.2768 C   0  0  0  0  0  0  0  0  0  0  0  0
   25.6783  -32.4995   -9.2346 C   0  0  0  0  0  0  0  0  0  0  0  0
   25.1200  -33.3949  -10.1244 C   0  0  0  0  0  0  0  0  0  0  0  0
   21.0787  -33.3593  -11.5567 C   0  0  0  0  0  0  0  0  0  0  0  0
   20.8484  -31.9957  -11.6115 O   0  0  0  0  0  0  0  0  0  0  0  0
   20.2038  -34.0798  -11.0149 O   0  0  0  0  0  0  0  0  0  0  0  0
  2  1  1  6
  3  2  1  0
  4  2  1  0
  4  5  1  1
  6  7  2  0
  6  4  1  0
  8  6  1  0
  9  8  1  0
  9 10  1  6
 11 15  1  0
 11 10  1  0
 12 11  2  0
 13 12  1  0
 13 14  1  0
 14 15  2  0
 16 18  1  0
 16  9  1  0
 17 16  2  0
 19 20  1  1
 19 18  1  0
 21 26  1  0
 21 20  1  0
 22 21  2  0
 23 24  2  0
 23 22  1  0
 24 25  1  0
 25 26  2  0
 27 19  1  0
 28 27  1  0
 29 27  2  0
M  END
$$$$
