THF.pdb
     RDKit          3D

 29 30  0  0  1  0  0  0  0  0999 V2000
   29.4658  -20.4991  -12.9809 C   0  0  0  0  0  0  0  0  0  0  0  0
   29.1971  -19.7013  -14.2214 C   0  0  1  0  0  0  0  0  0  0  0  0
   30.1743  -19.9838  -15.1739 O   0  0  0  0  0  0  0  0  0  0  0  0
   27.8460  -19.9444  -14.8142 C   0  0  2  0  0  0  0  0  0  0  0  0
   27.6232  -19.0998  -15.9564 N   0  0  0  0  0  0  0  0  0  0  0  0
   26.7829  -19.7170  -13.7698 C   0  0  0  0  0  0  0  0  0  0  0  0
   26.4660  -18.5509  -13.4217 O   0  0  0  0  0  0  0  0  0  0  0  0
   26.1070  -20.7927  -13.1468 N   0  0  0  0  0  0  0  0  0  0  0  0
   25.0778  -20.5308  -12.1625 C   0  0  1  0  0  0  0  0  0  0  0  0
   23.8001  -21.2176  -12.5851 C   0  0  0  0  0  0  0  0  0  0  0  0
   22.9558  -20.4299  -13.4847 C   0  0  0  0  0  0  0  0  0  0  0  0
   23.2022  -19.1653  -13.9697 C   0  0  0  0  0  0  0  0  0  0  0  0
   22.1754  -18.8198  -14.7573 N   0  0  0  0  0  0  0  0  0  0  0  0
   21.3058  -19.8268  -14.7743 C   0  0  0  0  0  0  0  0  0  0  0  0
   21.7786  -20.8225  -13.9931 N   0  0  0  0  0  0  0  0  0  0  0  0
   25.4508  -20.9679  -10.8187 C   0  0  0  0  0  0  0  0  0  0  0  0
   25.9500  -22.1066  -10.6478 O   0  0  0  0  0  0  0  0  0  0  0  0
   25.2882  -20.1791   -9.6461 N   0  0  0  0  0  0  0  0  0  0  0  0
   25.5118  -20.6861   -8.3059 C   0  0  1  0  0  0  0  0  0  0  0  0
   25.9634  -19.5882   -7.3745 C   0  0  0  0  0  0  0  0  0  0  0  0
   27.3172  -19.8082   -6.8127 C   0  0  0  0  0  0  0  0  0  0  0  0
   27.8721  -21.0857   -6.7736 C   0  0  0  0  0  0  0  0  0  0  0  0
   29.1319  -21.3204   -6.2644 C   0  0  0  0  0  0  0  0  0  0  0  0
   29.9052  -20.2928   -5.7671 C   0  0  0  0  0  0  0  0  0  0  0  0
   29.3660  -19.0245   -5.8008 C   0  0  0  0  0  0  0  0  0  0  0  0
   28.1050  -18.7897   -6.3105 C   0  0  0  0  0  0  0  0  0  0  0  0
   24.3236  -21.4192   -7.8231 C   0  0  0  0  0  0  0  0  0  0  0  0
   23.0723  -21.3259   -8.4071 O   0  0  0  0  0  0  0  0  0  0  0  0
   24.4495  -22.1714   -6.8248 O   0  0  0  0  0  0  0  0  0  0  0  0
  2  1  1  1
  3  2  1  0
  4  2  1  0
  4  5  1  6
  6  7  2  0
  6  4  1  0
  8  6  1  0
  9  8  1  0
  9 10  1  6
 11 15  1  0
 11 10  1  0
 12 11  2  0
 13 12  1  0
 13 14  1  0
 14 15  2  0
 16 18  1  0
 16  9  1  0
 17 16  2  0
 19 20  1  1
 19 18  1  0
 21 26  1  0
 21 20  1  0
 22 21  2  0
 23 24  2  0
 23 22  1  0
 24 25  1  0
 25 26  2  0
 27 19  1  0
 28 27  1  0
 29 27  2  0
M  END
$$$$
