THF.pdb
     RDKit          3D

 29 30  0  0  1  0  0  0  0  0999 V2000
   25.6021  -10.1062  -15.0027 C   0  0  0  0  0  0  0  0  0  0  0  0
   25.5166  -11.0813  -16.1382 C   0  0  1  0  0  0  0  0  0  0  0  0
   26.5006  -12.0562  -15.9860 O   0  0  0  0  0  0  0  0  0  0  0  0
   24.1820  -11.7434  -16.2656 C   0  0  2  0  0  0  0  0  0  0  0  0
   24.1718  -12.6800  -17.3567 N   0  0  0  0  0  0  0  0  0  0  0  0
   23.1107  -10.6993  -16.4516 C   0  0  0  0  0  0  0  0  0  0  0  0
   22.9004  -10.1917  -17.5828 O   0  0  0  0  0  0  0  0  0  0  0  0
   22.3084  -10.2535  -15.3747 N   0  0  0  0  0  0  0  0  0  0  0  0
   21.3503   -9.1867  -15.5762 C   0  0  1  0  0  0  0  0  0  0  0  0
   19.9665   -9.6920  -15.2403 C   0  0  0  0  0  0  0  0  0  0  0  0
   19.4467  -10.7000  -16.1656 C   0  0  0  0  0  0  0  0  0  0  0  0
   19.3582  -12.0582  -15.9596 C   0  0  0  0  0  0  0  0  0  0  0  0
   18.8244  -12.6068  -17.0588 N   0  0  0  0  0  0  0  0  0  0  0  0
   18.5811  -11.6344  -17.9339 C   0  0  0  0  0  0  0  0  0  0  0  0
   18.9613  -10.4568  -17.3919 N   0  0  0  0  0  0  0  0  0  0  0  0
   21.6470   -7.9972  -14.7807 C   0  0  0  0  0  0  0  0  0  0  0  0
   22.0018   -8.1187  -13.5830 O   0  0  0  0  0  0  0  0  0  0  0  0
   21.5633   -6.6645  -15.2711 N   0  0  0  0  0  0  0  0  0  0  0  0
   21.9962   -5.5065  -14.5129 C   0  0  1  0  0  0  0  0  0  0  0  0
   23.4859   -5.5354  -14.2740 C   0  0  0  0  0  0  0  0  0  0  0  0
   24.2858   -5.5228  -15.5217 C   0  0  0  0  0  0  0  0  0  0  0  0
   24.7765   -6.7087  -16.0641 C   0  0  0  0  0  0  0  0  0  0  0  0
   25.5166   -6.7296  -17.2273 C   0  0  0  0  0  0  0  0  0  0  0  0
   25.8066   -5.5680  -17.9114 C   0  0  0  0  0  0  0  0  0  0  0  0
   25.3260   -4.3886  -17.3838 C   0  0  0  0  0  0  0  0  0  0  0  0
   24.5851   -4.3679  -16.2195 C   0  0  0  0  0  0  0  0  0  0  0  0
   21.5243   -4.2612  -15.1522 C   0  0  0  0  0  0  0  0  0  0  0  0
   21.6101   -3.0127  -14.5610 O   0  0  0  0  0  0  0  0  0  0  0  0
   21.0141   -4.3330  -16.2979 O   0  0  0  0  0  0  0  0  0  0  0  0
  2  1  1  1
  3  2  1  0
  4  2  1  0
  4  5  1  6
  6  7  2  0
  6  4  1  0
  8  6  1  0
  9  8  1  0
  9 10  1  1
 11 15  1  0
 11 10  1  0
 12 11  2  0
 13 12  1  0
 13 14  1  0
 14 15  2  0
 16 18  1  0
 16  9  1  0
 17 16  2  0
 19 20  1  6
 19 18  1  0
 21 26  1  0
 21 20  1  0
 22 21  2  0
 23 24  2  0
 23 22  1  0
 24 25  1  0
 25 26  2  0
 27 19  1  0
 28 27  1  0
 29 27  2  0
M  END
$$$$
