THF.pdb
     RDKit          3D

 29 30  0  0  1  0  0  0  0  0999 V2000
   19.5276  -13.2566  -14.5444 C   0  0  0  0  0  0  0  0  0  0  0  0
   18.6875  -13.6344  -15.7272 C   0  0  1  0  0  0  0  0  0  0  0  0
   18.0257  -14.8316  -15.4613 O   0  0  0  0  0  0  0  0  0  0  0  0
   17.6864  -12.5929  -16.1134 C   0  0  2  0  0  0  0  0  0  0  0  0
   16.8377  -13.0607  -17.1758 N   0  0  0  0  0  0  0  0  0  0  0  0
   18.3983  -11.3278  -16.5200 C   0  0  0  0  0  0  0  0  0  0  0  0
   19.2045  -11.3283  -17.4851 O   0  0  0  0  0  0  0  0  0  0  0  0
   18.1908  -10.1039  -15.8408 N   0  0  0  0  0  0  0  0  0  0  0  0
   18.9406   -8.9255  -16.2229 C   0  0  1  0  0  0  0  0  0  0  0  0
   18.2615   -7.6999  -15.6575 C   0  0  0  0  0  0  0  0  0  0  0  0
   18.9010   -6.4324  -16.0138 C   0  0  0  0  0  0  0  0  0  0  0  0
   20.0232   -6.2508  -16.7902 C   0  0  0  0  0  0  0  0  0  0  0  0
   20.2645   -4.9352  -16.8627 N   0  0  0  0  0  0  0  0  0  0  0  0
   19.3306   -4.3007  -16.1585 C   0  0  0  0  0  0  0  0  0  0  0  0
   18.4869   -5.2153  -15.6323 N   0  0  0  0  0  0  0  0  0  0  0  0
   20.3321   -8.9671  -15.7781 C   0  0  0  0  0  0  0  0  0  0  0  0
   20.6045   -9.3410  -14.6114 O   0  0  0  0  0  0  0  0  0  0  0  0
   21.4433   -8.6052  -16.5892 N   0  0  0  0  0  0  0  0  0  0  0  0
   22.8196   -8.6855  -16.1393 C   0  0  1  0  0  0  0  0  0  0  0  0
   23.4786   -9.9549  -16.6200 C   0  0  0  0  0  0  0  0  0  0  0  0
   24.9319  -10.0120  -16.3349 C   0  0  0  0  0  0  0  0  0  0  0  0
   25.4104  -10.6795  -15.2093 C   0  0  0  0  0  0  0  0  0  0  0  0
   26.7568  -10.7563  -14.9221 C   0  0  0  0  0  0  0  0  0  0  0  0
   27.6977  -10.1712  -15.7428 C   0  0  0  0  0  0  0  0  0  0  0  0
   27.2356   -9.5081  -16.8596 C   0  0  0  0  0  0  0  0  0  0  0  0
   25.8878   -9.4313  -17.1470 C   0  0  0  0  0  0  0  0  0  0  0  0
   23.5584   -7.4603  -16.5069 C   0  0  0  0  0  0  0  0  0  0  0  0
   24.5491   -6.8950  -15.7230 O   0  0  0  0  0  0  0  0  0  0  0  0
   23.2754   -6.8938  -17.5919 O   0  0  0  0  0  0  0  0  0  0  0  0
  2  1  1  1
  3  2  1  0
  4  2  1  0
  4  5  1  6
  6  7  2  0
  6  4  1  0
  8  6  1  0
  9  8  1  0
  9 10  1  1
 11 15  1  0
 11 10  1  0
 12 11  2  0
 13 12  1  0
 13 14  1  0
 14 15  2  0
 16 18  1  0
 16  9  1  0
 17 16  2  0
 19 20  1  6
 19 18  1  0
 21 26  1  0
 21 20  1  0
 22 21  2  0
 23 24  2  0
 23 22  1  0
 24 25  1  0
 25 26  2  0
 27 19  1  0
 28 27  1  0
 29 27  2  0
M  END
$$$$
