THF.pdb
     RDKit          3D

 29 30  0  0  1  0  0  0  0  0999 V2000
   14.2379   -8.0913  -16.2076 C   0  0  0  0  0  0  0  0  0  0  0  0
   13.5158   -9.1876  -15.4836 C   0  0  1  0  0  0  0  0  0  0  0  0
   12.1808   -9.2048  -15.8828 O   0  0  0  0  0  0  0  0  0  0  0  0
   14.1108  -10.5433  -15.6938 C   0  0  2  0  0  0  0  0  0  0  0  0
   13.3504  -11.5533  -15.0086 N   0  0  0  0  0  0  0  0  0  0  0  0
   15.5440  -10.5489  -15.2267 C   0  0  0  0  0  0  0  0  0  0  0  0
   15.8178  -10.5306  -13.9995 O   0  0  0  0  0  0  0  0  0  0  0  0
   16.6257  -10.5745  -16.1385 N   0  0  0  0  0  0  0  0  0  0  0  0
   17.9819  -10.4033  -15.6609 C   0  0  1  0  0  0  0  0  0  0  0  0
   18.8947  -11.3469  -16.4088 C   0  0  0  0  0  0  0  0  0  0  0  0
   18.8145  -12.7421  -15.9734 C   0  0  0  0  0  0  0  0  0  0  0  0
   18.0953  -13.2479  -14.9142 C   0  0  0  0  0  0  0  0  0  0  0  0
   18.3022  -14.5706  -14.8710 N   0  0  0  0  0  0  0  0  0  0  0  0
   19.1233  -14.8968  -15.8660 C   0  0  0  0  0  0  0  0  0  0  0  0
   19.4437  -13.7767  -16.5499 N   0  0  0  0  0  0  0  0  0  0  0  0
   18.4670   -9.0321  -15.8038 C   0  0  0  0  0  0  0  0  0  0  0  0
   18.0600   -8.3209  -16.7545 O   0  0  0  0  0  0  0  0  0  0  0  0
   19.3966   -8.4154  -14.9211 N   0  0  0  0  0  0  0  0  0  0  0  0
   19.8718   -7.0552  -15.0857 C   0  0  1  0  0  0  0  0  0  0  0  0
   20.6133   -6.5831  -13.8592 C   0  0  0  0  0  0  0  0  0  0  0  0
   21.1844   -5.2227  -13.9999 C   0  0  0  0  0  0  0  0  0  0  0  0
   22.4821   -5.0415  -14.4741 C   0  0  0  0  0  0  0  0  0  0  0  0
   23.0377   -3.7884  -14.6232 C   0  0  0  0  0  0  0  0  0  0  0  0
   22.3282   -2.6491  -14.3073 C   0  0  0  0  0  0  0  0  0  0  0  0
   21.0431   -2.8165  -13.8373 C   0  0  0  0  0  0  0  0  0  0  0  0
   20.4870   -4.0709  -13.6880 C   0  0  0  0  0  0  0  0  0  0  0  0
   20.6510   -6.9247  -16.3339 C   0  0  0  0  0  0  0  0  0  0  0  0
   20.5093   -5.8735  -17.2229 O   0  0  0  0  0  0  0  0  0  0  0  0
   21.4916   -7.8164  -16.6104 O   0  0  0  0  0  0  0  0  0  0  0  0
  2  1  1  6
  3  2  1  0
  4  2  1  0
  4  5  1  1
  6  7  2  0
  6  4  1  0
  8  6  1  0
  9  8  1  0
  9 10  1  6
 11 15  1  0
 11 10  1  0
 12 11  2  0
 13 12  1  0
 13 14  1  0
 14 15  2  0
 16 18  1  0
 16  9  1  0
 17 16  2  0
 19 20  1  1
 19 18  1  0
 21 26  1  0
 21 20  1  0
 22 21  2  0
 23 24  2  0
 23 22  1  0
 24 25  1  0
 25 26  2  0
 27 19  1  0
 28 27  1  0
 29 27  2  0
M  END
$$$$
