THF.pdb
     RDKit          3D

 29 30  0  0  1  0  0  0  0  0999 V2000
   40.8525  -24.0538    7.5149 C   0  0  0  0  0  0  0  0  0  0  0  0
   41.9548  -23.6803    6.5700 C   0  0  1  0  0  0  0  0  0  0  0  0
   43.1791  -23.7656    7.2303 O   0  0  0  0  0  0  0  0  0  0  0  0
   42.0013  -24.5215    5.3346 C   0  0  2  0  0  0  0  0  0  0  0  0
   43.0294  -24.0666    4.4379 N   0  0  0  0  0  0  0  0  0  0  0  0
   40.6563  -24.5024    4.6541 C   0  0  0  0  0  0  0  0  0  0  0  0
   40.3409  -23.5589    3.8848 O   0  0  0  0  0  0  0  0  0  0  0  0
   39.7061  -25.5322    4.8508 N   0  0  0  0  0  0  0  0  0  0  0  0
   38.3553  -25.3785    4.3523 C   0  0  1  0  0  0  0  0  0  0  0  0
   38.1153  -26.3837    3.2501 C   0  0  0  0  0  0  0  0  0  0  0  0
   39.1081  -27.4569    3.1800 C   0  0  0  0  0  0  0  0  0  0  0  0
   40.2103  -27.6308    3.9862 C   0  0  0  0  0  0  0  0  0  0  0  0
   40.8473  -28.7365    3.5788 N   0  0  0  0  0  0  0  0  0  0  0  0
   40.1762  -29.2492    2.5505 C   0  0  0  0  0  0  0  0  0  0  0  0
   39.1037  -28.4674    2.2983 N   0  0  0  0  0  0  0  0  0  0  0  0
   37.3425  -25.5381    5.3938 C   0  0  0  0  0  0  0  0  0  0  0  0
   37.6475  -25.3496    6.5965 O   0  0  0  0  0  0  0  0  0  0  0  0
   35.9900  -25.9031    5.1464 N   0  0  0  0  0  0  0  0  0  0  0  0
   34.8706  -25.0042    5.3510 C   0  0  1  0  0  0  0  0  0  0  0  0
   35.1396  -23.6492    4.7439 C   0  0  0  0  0  0  0  0  0  0  0  0
   34.0231  -22.6902    4.9183 C   0  0  0  0  0  0  0  0  0  0  0  0
   33.8169  -22.0532    6.1403 C   0  0  0  0  0  0  0  0  0  0  0  0
   32.7920  -21.1506    6.3305 C   0  0  0  0  0  0  0  0  0  0  0  0
   31.9182  -20.8353    5.3115 C   0  0  0  0  0  0  0  0  0  0  0  0
   32.1130  -21.4596    4.0980 C   0  0  0  0  0  0  0  0  0  0  0  0
   33.1389  -22.3631    3.9077 C   0  0  0  0  0  0  0  0  0  0  0  0
   33.6145  -25.6235    4.8809 C   0  0  0  0  0  0  0  0  0  0  0  0
   32.4813  -25.7548    5.6645 O   0  0  0  0  0  0  0  0  0  0  0  0
   33.5661  -26.0587    3.7034 O   0  0  0  0  0  0  0  0  0  0  0  0
  2  1  1  1
  3  2  1  0
  4  2  1  0
  4  5  1  6
  6  7  2  0
  6  4  1  0
  8  6  1  0
  9  8  1  0
  9 10  1  6
 11 15  1  0
 11 10  1  0
 12 11  2  0
 13 12  1  0
 13 14  1  0
 14 15  2  0
 16 18  1  0
 16  9  1  0
 17 16  2  0
 19 20  1  6
 19 18  1  0
 21 26  1  0
 21 20  1  0
 22 21  2  0
 23 24  2  0
 23 22  1  0
 24 25  1  0
 25 26  2  0
 27 19  1  0
 28 27  1  0
 29 27  2  0
M  END
$$$$
