THF.pdb
     RDKit          3D

 29 30  0  0  1  0  0  0  0  0999 V2000
   25.4085  -13.0510  -16.2824 C   0  0  0  0  0  0  0  0  0  0  0  0
   25.7167  -13.4822  -17.6848 C   0  0  1  0  0  0  0  0  0  0  0  0
   26.4071  -14.6923  -17.6557 O   0  0  0  0  0  0  0  0  0  0  0  0
   24.5066  -13.6257  -18.5515 C   0  0  2  0  0  0  0  0  0  0  0  0
   24.8635  -14.0912  -19.8644 N   0  0  0  0  0  0  0  0  0  0  0  0
   23.7800  -12.3074  -18.6346 C   0  0  0  0  0  0  0  0  0  0  0  0
   24.1607  -11.4155  -19.4352 O   0  0  0  0  0  0  0  0  0  0  0  0
   22.6544  -12.0238  -17.8254 N   0  0  0  0  0  0  0  0  0  0  0  0
   21.9152  -10.7933  -18.0157 C   0  0  1  0  0  0  0  0  0  0  0  0
   20.4487  -11.1159  -18.1836 C   0  0  0  0  0  0  0  0  0  0  0  0
   20.1192  -11.8159  -19.4261 C   0  0  0  0  0  0  0  0  0  0  0  0
   20.3552  -11.3905  -20.7139 C   0  0  0  0  0  0  0  0  0  0  0  0
   19.8971  -12.3326  -21.5486 N   0  0  0  0  0  0  0  0  0  0  0  0
   19.3874  -13.3228  -20.8202 C   0  0  0  0  0  0  0  0  0  0  0  0
   19.5201  -13.0127  -19.5120 N   0  0  0  0  0  0  0  0  0  0  0  0
   22.0888   -9.8488  -16.9140 C   0  0  0  0  0  0  0  0  0  0  0  0
   21.7931  -10.1922  -15.7437 O   0  0  0  0  0  0  0  0  0  0  0  0
   22.5837   -8.5237  -17.0657 N   0  0  0  0  0  0  0  0  0  0  0  0
   22.8310   -7.6314  -15.9496 C   0  0  1  0  0  0  0  0  0  0  0  0
   24.2811   -7.2181  -15.8912 C   0  0  0  0  0  0  0  0  0  0  0  0
   25.2203   -8.3625  -15.8209 C   0  0  0  0  0  0  0  0  0  0  0  0
   26.2017   -8.5381  -16.7943 C   0  0  0  0  0  0  0  0  0  0  0  0
   27.0945   -9.5881  -16.7514 C   0  0  0  0  0  0  0  0  0  0  0  0
   27.0557  -10.5189  -15.7349 C   0  0  0  0  0  0  0  0  0  0  0  0
   26.0887  -10.3548  -14.7661 C   0  0  0  0  0  0  0  0  0  0  0  0
   25.1951   -9.3038  -14.8092 C   0  0  0  0  0  0  0  0  0  0  0  0
   21.8922   -6.4913  -15.9783 C   0  0  0  0  0  0  0  0  0  0  0  0
   21.7282   -5.6032  -14.9294 O   0  0  0  0  0  0  0  0  0  0  0  0
   21.1994   -6.3125  -17.0109 O   0  0  0  0  0  0  0  0  0  0  0  0
  2  1  1  1
  3  2  1  0
  4  2  1  0
  4  5  1  6
  6  7  2  0
  6  4  1  0
  8  6  1  0
  9  8  1  0
  9 10  1  1
 11 15  1  0
 11 10  1  0
 12 11  2  0
 13 12  1  0
 13 14  1  0
 14 15  2  0
 16 18  1  0
 16  9  1  0
 17 16  2  0
 19 20  1  6
 19 18  1  0
 21 26  1  0
 21 20  1  0
 22 21  2  0
 23 24  2  0
 23 22  1  0
 24 25  1  0
 25 26  2  0
 27 19  1  0
 28 27  1  0
 29 27  2  0
M  END
$$$$
