THF.pdb
     RDKit          3D

 29 30  0  0  1  0  0  0  0  0999 V2000
   21.8738   -6.8941  -18.8870 C   0  0  0  0  0  0  0  0  0  0  0  0
   20.8564   -7.4169  -19.8561 C   0  0  1  0  0  0  0  0  0  0  0  0
   21.4715   -7.6720  -21.0801 O   0  0  0  0  0  0  0  0  0  0  0  0
   20.1573   -8.6533  -19.3884 C   0  0  2  0  0  0  0  0  0  0  0  0
   19.3650   -9.2287  -20.4415 N   0  0  0  0  0  0  0  0  0  0  0  0
   19.2980   -8.3314  -18.1923 C   0  0  0  0  0  0  0  0  0  0  0  0
   18.2712   -7.6159  -18.3152 O   0  0  0  0  0  0  0  0  0  0  0  0
   19.6080   -8.8151  -16.8992 N   0  0  0  0  0  0  0  0  0  0  0  0
   18.8077   -8.4115  -15.7620 C   0  0  1  0  0  0  0  0  0  0  0  0
   18.6471   -9.5864  -14.8257 C   0  0  0  0  0  0  0  0  0  0  0  0
   17.7226  -10.6180  -15.2985 C   0  0  0  0  0  0  0  0  0  0  0  0
   16.9505  -10.5908  -16.4379 C   0  0  0  0  0  0  0  0  0  0  0  0
   16.2532  -11.7333  -16.4893 N   0  0  0  0  0  0  0  0  0  0  0  0
   16.5687  -12.4627  -15.4220 C   0  0  0  0  0  0  0  0  0  0  0  0
   17.4730  -11.7832  -14.6833 N   0  0  0  0  0  0  0  0  0  0  0  0
   19.3791   -7.2784  -15.0372 C   0  0  0  0  0  0  0  0  0  0  0  0
   18.7343   -6.7453  -14.1018 O   0  0  0  0  0  0  0  0  0  0  0  0
   20.6531   -6.7099  -15.3157 N   0  0  0  0  0  0  0  0  0  0  0  0
   21.2320   -5.6301  -14.5397 C   0  0  1  0  0  0  0  0  0  0  0  0
   22.2081   -6.1553  -13.5158 C   0  0  0  0  0  0  0  0  0  0  0  0
   23.1939   -7.1112  -14.0736 C   0  0  0  0  0  0  0  0  0  0  0  0
   24.0767   -6.7181  -15.0774 C   0  0  0  0  0  0  0  0  0  0  0  0
   25.0098   -7.5822  -15.6102 C   0  0  0  0  0  0  0  0  0  0  0  0
   25.1117   -8.8849  -15.1699 C   0  0  0  0  0  0  0  0  0  0  0  0
   24.2431   -9.2848  -14.1769 C   0  0  0  0  0  0  0  0  0  0  0  0
   23.3093   -8.4196  -13.6435 C   0  0  0  0  0  0  0  0  0  0  0  0
   21.8062   -4.6007  -15.4300 C   0  0  0  0  0  0  0  0  0  0  0  0
   22.3804   -3.4256  -14.9773 O   0  0  0  0  0  0  0  0  0  0  0  0
   21.7738   -4.7969  -16.6705 O   0  0  0  0  0  0  0  0  0  0  0  0
  2  1  1  1
  3  2  1  0
  4  2  1  0
  4  5  1  6
  6  7  2  0
  6  4  1  0
  8  6  1  0
  9  8  1  0
  9 10  1  1
 11 15  1  0
 11 10  1  0
 12 11  2  0
 13 12  1  0
 13 14  1  0
 14 15  2  0
 16 18  1  0
 16  9  1  0
 17 16  2  0
 19 20  1  1
 19 18  1  0
 21 26  1  0
 21 20  1  0
 22 21  2  0
 23 24  2  0
 23 22  1  0
 24 25  1  0
 25 26  2  0
 27 19  1  0
 28 27  1  0
 29 27  2  0
M  END
$$$$
