THF.pdb
     RDKit          3D

 29 30  0  0  1  0  0  0  0  0999 V2000
   23.3857   -5.6040  -20.2515 C   0  0  0  0  0  0  0  0  0  0  0  0
   22.9893   -4.2424  -20.7377 C   0  0  1  0  0  0  0  0  0  0  0  0
   24.0140   -3.7140  -21.5204 O   0  0  0  0  0  0  0  0  0  0  0  0
   21.7145   -4.2284  -21.5192 C   0  0  2  0  0  0  0  0  0  0  0  0
   21.3845   -2.8954  -21.9459 N   0  0  0  0  0  0  0  0  0  0  0  0
   20.6004   -4.8111  -20.6875 C   0  0  0  0  0  0  0  0  0  0  0  0
   19.8590   -4.0658  -19.9975 O   0  0  0  0  0  0  0  0  0  0  0  0
   20.3468   -6.2027  -20.6501 N   0  0  0  0  0  0  0  0  0  0  0  0
   19.3269   -6.7312  -19.7686 C   0  0  1  0  0  0  0  0  0  0  0  0
   18.4620   -7.7035  -20.5365 C   0  0  0  0  0  0  0  0  0  0  0  0
   17.3859   -7.0804  -21.3086 C   0  0  0  0  0  0  0  0  0  0  0  0
   17.0381   -5.7487  -21.3351 C   0  0  0  0  0  0  0  0  0  0  0  0
   16.0005   -5.6113  -22.1710 N   0  0  0  0  0  0  0  0  0  0  0  0
   15.6974   -6.8112  -22.6599 C   0  0  0  0  0  0  0  0  0  0  0  0
   16.5456   -7.7217  -22.1340 N   0  0  0  0  0  0  0  0  0  0  0  0
   19.8809   -7.3909  -18.5880 C   0  0  0  0  0  0  0  0  0  0  0  0
   20.8743   -8.1490  -18.7039 O   0  0  0  0  0  0  0  0  0  0  0  0
   19.3671   -7.2381  -17.2702 N   0  0  0  0  0  0  0  0  0  0  0  0
   19.9677   -7.8547  -16.1031 C   0  0  1  0  0  0  0  0  0  0  0  0
   21.4060   -7.4287  -15.9391 C   0  0  0  0  0  0  0  0  0  0  0  0
   22.0617   -8.0066  -14.7421 C   0  0  0  0  0  0  0  0  0  0  0  0
   22.8352   -9.1612  -14.8425 C   0  0  0  0  0  0  0  0  0  0  0  0
   23.4637   -9.7176  -13.7485 C   0  0  0  0  0  0  0  0  0  0  0  0
   23.3539   -9.1516  -12.4960 C   0  0  0  0  0  0  0  0  0  0  0  0
   22.5909   -8.0088  -12.3850 C   0  0  0  0  0  0  0  0  0  0  0  0
   21.9619   -7.4519  -13.4801 C   0  0  0  0  0  0  0  0  0  0  0  0
   19.1395   -7.6131  -14.9040 C   0  0  0  0  0  0  0  0  0  0  0  0
   18.6030   -6.3804  -14.5752 O   0  0  0  0  0  0  0  0  0  0  0  0
   18.9057   -8.5779  -14.1340 O   0  0  0  0  0  0  0  0  0  0  0  0
  2  1  1  6
  3  2  1  0
  4  2  1  0
  4  5  1  1
  6  7  2  0
  6  4  1  0
  8  6  1  0
  9  8  1  0
  9 10  1  6
 11 15  1  0
 11 10  1  0
 12 11  2  0
 13 12  1  0
 13 14  1  0
 14 15  2  0
 16 18  1  0
 16  9  1  0
 17 16  2  0
 19 20  1  1
 19 18  1  0
 21 26  1  0
 21 20  1  0
 22 21  2  0
 23 24  2  0
 23 22  1  0
 24 25  1  0
 25 26  2  0
 27 19  1  0
 28 27  1  0
 29 27  2  0
M  END
$$$$
