THF.pdb
     RDKit          3D

 29 30  0  0  1  0  0  0  0  0999 V2000
   31.9847  -31.2313  -21.1134 C   0  0  0  0  0  0  0  0  0  0  0  0
   33.0581  -31.6777  -20.1668 C   0  0  1  0  0  0  0  0  0  0  0  0
   34.1608  -32.1219  -20.8938 O   0  0  0  0  0  0  0  0  0  0  0  0
   33.4949  -30.6178  -19.2068 C   0  0  2  0  0  0  0  0  0  0  0  0
   34.5010  -31.1167  -18.3086 N   0  0  0  0  0  0  0  0  0  0  0  0
   32.3041  -30.1041  -18.4382 C   0  0  0  0  0  0  0  0  0  0  0  0
   31.8873  -30.7136  -17.4203 O   0  0  0  0  0  0  0  0  0  0  0  0
   31.6158  -28.9302  -18.8260 N   0  0  0  0  0  0  0  0  0  0  0  0
   30.4443  -28.4996  -18.0918 C   0  0  1  0  0  0  0  0  0  0  0  0
   30.0599  -27.1093  -18.5412 C   0  0  0  0  0  0  0  0  0  0  0  0
   28.8873  -26.5543  -17.8634 C   0  0  0  0  0  0  0  0  0  0  0  0
   28.6456  -26.5132  -16.5088 C   0  0  0  0  0  0  0  0  0  0  0  0
   27.4587  -25.9214  -16.3208 N   0  0  0  0  0  0  0  0  0  0  0  0
   26.9614  -25.5968  -17.5116 C   0  0  0  0  0  0  0  0  0  0  0  0
   27.8348  -25.9830  -18.4671 N   0  0  0  0  0  0  0  0  0  0  0  0
   29.3066  -29.4023  -18.2551 C   0  0  0  0  0  0  0  0  0  0  0  0
   29.0564  -29.8953  -19.3817 O   0  0  0  0  0  0  0  0  0  0  0  0
   28.4277  -29.7814  -17.2026 N   0  0  0  0  0  0  0  0  0  0  0  0
   27.2629  -30.6225  -17.3996 C   0  0  1  0  0  0  0  0  0  0  0  0
   27.0364  -31.5287  -16.2144 C   0  0  0  0  0  0  0  0  0  0  0  0
   25.8304  -32.3806  -16.3427 C   0  0  0  0  0  0  0  0  0  0  0  0
   25.8865  -33.5952  -17.0233 C   0  0  0  0  0  0  0  0  0  0  0  0
   24.7837  -34.4127  -17.1523 C   0  0  0  0  0  0  0  0  0  0  0  0
   23.5659  -34.0619  -16.6089 C   0  0  0  0  0  0  0  0  0  0  0  0
   23.4988  -32.8622  -15.9332 C   0  0  0  0  0  0  0  0  0  0  0  0
   24.6029  -32.0440  -15.8041 C   0  0  0  0  0  0  0  0  0  0  0  0
   26.0846  -29.8039  -17.7512 C   0  0  0  0  0  0  0  0  0  0  0  0
   25.1277  -30.1894  -18.6738 O   0  0  0  0  0  0  0  0  0  0  0  0
   25.9375  -28.6925  -17.1842 O   0  0  0  0  0  0  0  0  0  0  0  0
  2  1  1  6
  3  2  1  0
  4  2  1  0
  4  5  1  1
  6  7  2  0
  6  4  1  0
  8  6  1  0
  9  8  1  0
  9 10  1  6
 11 15  1  0
 11 10  1  0
 12 11  2  0
 13 12  1  0
 13 14  1  0
 14 15  2  0
 16 18  1  0
 16  9  1  0
 17 16  2  0
 19 20  1  1
 19 18  1  0
 21 26  1  0
 21 20  1  0
 22 21  2  0
 23 24  2  0
 23 22  1  0
 24 25  1  0
 25 26  2  0
 27 19  1  0
 28 27  1  0
 29 27  2  0
M  END
$$$$
