THF.pdb
     RDKit          3D

 29 30  0  0  1  0  0  0  0  0999 V2000
   28.9541  -23.9707  -17.9775 C   0  0  0  0  0  0  0  0  0  0  0  0
   27.9757  -23.1160  -17.2293 C   0  0  1  0  0  0  0  0  0  0  0  0
   28.2948  -23.1263  -15.8729 O   0  0  0  0  0  0  0  0  0  0  0  0
   27.9180  -21.7018  -17.7116 C   0  0  2  0  0  0  0  0  0  0  0  0
   29.2202  -21.0923  -17.6826 N   0  0  0  0  0  0  0  0  0  0  0  0
   26.9448  -20.9158  -16.8704 C   0  0  0  0  0  0  0  0  0  0  0  0
   27.3507  -20.2100  -15.9121 O   0  0  0  0  0  0  0  0  0  0  0  0
   25.5525  -20.9400  -17.1219 N   0  0  0  0  0  0  0  0  0  0  0  0
   24.6577  -20.1213  -16.3309 C   0  0  1  0  0  0  0  0  0  0  0  0
   23.8914  -19.1955  -17.2467 C   0  0  0  0  0  0  0  0  0  0  0  0
   24.6952  -18.1256  -17.8398 C   0  0  0  0  0  0  0  0  0  0  0  0
   25.1554  -18.0447  -19.1346 C   0  0  0  0  0  0  0  0  0  0  0  0
   25.8481  -16.9045  -19.2543 N   0  0  0  0  0  0  0  0  0  0  0  0
   25.8306  -16.2808  -18.0789 C   0  0  0  0  0  0  0  0  0  0  0  0
   25.1227  -17.0260  -17.2022 N   0  0  0  0  0  0  0  0  0  0  0  0
   23.7217  -20.9095  -15.5318 C   0  0  0  0  0  0  0  0  0  0  0  0
   23.5532  -22.1268  -15.7867 O   0  0  0  0  0  0  0  0  0  0  0  0
   22.9582  -20.3906  -14.4494 N   0  0  0  0  0  0  0  0  0  0  0  0
   22.2144  -21.2246  -13.5253 C   0  0  1  0  0  0  0  0  0  0  0  0
   23.1231  -22.1966  -12.8134 C   0  0  0  0  0  0  0  0  0  0  0  0
   24.1265  -21.5396  -11.9427 C   0  0  0  0  0  0  0  0  0  0  0  0
   23.7311  -20.8368  -10.8064 C   0  0  0  0  0  0  0  0  0  0  0  0
   24.6416  -20.2222   -9.9731 C   0  0  0  0  0  0  0  0  0  0  0  0
   25.9954  -20.2760  -10.2291 C   0  0  0  0  0  0  0  0  0  0  0  0
   26.3981  -20.9688  -11.3509 C   0  0  0  0  0  0  0  0  0  0  0  0
   25.4865  -21.5841  -12.1849 C   0  0  0  0  0  0  0  0  0  0  0  0
   21.4060  -20.3930  -12.6104 C   0  0  0  0  0  0  0  0  0  0  0  0
   20.4424  -20.9019  -11.7572 O   0  0  0  0  0  0  0  0  0  0  0  0
   21.5989  -19.1516  -12.6023 O   0  0  0  0  0  0  0  0  0  0  0  0
  2  1  1  6
  3  2  1  0
  4  2  1  0
  4  5  1  1
  6  7  2  0
  6  4  1  0
  8  6  1  0
  9  8  1  0
  9 10  1  6
 11 15  1  0
 11 10  1  0
 12 11  2  0
 13 12  1  0
 13 14  1  0
 14 15  2  0
 16 18  1  0
 16  9  1  0
 17 16  2  0
 19 20  1  1
 19 18  1  0
 21 26  1  0
 21 20  1  0
 22 21  2  0
 23 24  2  0
 23 22  1  0
 24 25  1  0
 25 26  2  0
 27 19  1  0
 28 27  1  0
 29 27  2  0
M  END
$$$$
