THF.pdb
     RDKit          3D

 29 30  0  0  1  0  0  0  0  0999 V2000
   29.0031  -20.7141  -15.8011 C   0  0  0  0  0  0  0  0  0  0  0  0
   28.1803  -20.6551  -14.5493 C   0  0  1  0  0  0  0  0  0  0  0  0
   29.0227  -20.5186  -13.4477 O   0  0  0  0  0  0  0  0  0  0  0  0
   27.1740  -19.5491  -14.5405 C   0  0  2  0  0  0  0  0  0  0  0  0
   27.7870  -18.2900  -14.8671 N   0  0  0  0  0  0  0  0  0  0  0  0
   26.5045  -19.4799  -13.1915 C   0  0  0  0  0  0  0  0  0  0  0  0
   26.7243  -18.5146  -12.4161 O   0  0  0  0  0  0  0  0  0  0  0  0
   25.6130  -20.4855  -12.7488 N   0  0  0  0  0  0  0  0  0  0  0  0
   24.9529  -20.3570  -11.4664 C   0  0  1  0  0  0  0  0  0  0  0  0
   23.6357  -21.0961  -11.5097 C   0  0  0  0  0  0  0  0  0  0  0  0
   22.6248  -20.4857  -12.3746 C   0  0  0  0  0  0  0  0  0  0  0  0
   22.7245  -19.3031  -13.0721 C   0  0  0  0  0  0  0  0  0  0  0  0
   21.5751  -19.1185  -13.7347 N   0  0  0  0  0  0  0  0  0  0  0  0
   20.7716  -20.1455  -13.4697 C   0  0  0  0  0  0  0  0  0  0  0  0
   21.4102  -20.9922  -12.6328 N   0  0  0  0  0  0  0  0  0  0  0  0
   25.7621  -20.8571  -10.3569 C   0  0  0  0  0  0  0  0  0  0  0  0
   26.9777  -21.1129  -10.5354 O   0  0  0  0  0  0  0  0  0  0  0  0
   25.2660  -21.0858   -9.0434 N   0  0  0  0  0  0  0  0  0  0  0  0
   26.1021  -21.0593   -7.8587 C   0  0  1  0  0  0  0  0  0  0  0  0
   26.7775  -19.7198   -7.6963 C   0  0  0  0  0  0  0  0  0  0  0  0
   27.5522  -19.5962   -6.4388 C   0  0  0  0  0  0  0  0  0  0  0  0
   28.5117  -18.5968   -6.2897 C   0  0  0  0  0  0  0  0  0  0  0  0
   29.2422  -18.4519   -5.1292 C   0  0  0  0  0  0  0  0  0  0  0  0
   29.0544  -19.2965   -4.0556 C   0  0  0  0  0  0  0  0  0  0  0  0
   28.1075  -20.2891   -4.1921 C   0  0  0  0  0  0  0  0  0  0  0  0
   27.3762  -20.4339   -5.3537 C   0  0  0  0  0  0  0  0  0  0  0  0
   25.3325  -21.4810   -6.6704 C   0  0  0  0  0  0  0  0  0  0  0  0
   25.8251  -22.3334   -5.6976 O   0  0  0  0  0  0  0  0  0  0  0  0
   24.1628  -21.0449   -6.5295 O   0  0  0  0  0  0  0  0  0  0  0  0
  2  1  1  6
  3  2  1  0
  4  2  1  0
  4  5  1  1
  6  7  2  0
  6  4  1  0
  8  6  1  0
  9  8  1  0
  9 10  1  6
 11 15  1  0
 11 10  1  0
 12 11  2  0
 13 12  1  0
 13 14  1  0
 14 15  2  0
 16 18  1  0
 16  9  1  0
 17 16  2  0
 19 20  1  1
 19 18  1  0
 21 26  1  0
 21 20  1  0
 22 21  2  0
 23 24  2  0
 23 22  1  0
 24 25  1  0
 25 26  2  0
 27 19  1  0
 28 27  1  0
 29 27  2  0
M  END
$$$$
