DDW.pdb
     RDKit          3D

 31 32  0  0  1  0  0  0  0  0999 V2000
   28.8738  -29.6034  -16.7540 N   0  0  0  0  0  0  0  0  0  0  0  0
   27.9232  -30.4588  -17.4549 C   0  0  1  0  0  0  0  0  0  0  0  0
   28.2817  -31.8780  -17.2568 C   0  0  0  0  0  0  0  0  0  0  0  0
   29.6500  -32.1517  -17.7359 C   0  0  0  0  0  0  0  0  0  0  0  0
   29.8880  -31.9832  -18.9811 O   0  0  0  0  0  0  0  0  0  0  0  0
   26.5620  -30.0732  -16.9991 C   0  0  0  0  0  0  0  0  0  0  0  0
   26.4284  -28.9835  -16.3970 O   0  0  0  0  0  0  0  0  0  0  0  0
   30.6813  -32.5767  -16.9236 O   0  0  0  0  0  0  0  0  0  0  0  0
   25.4137  -30.8571  -17.1960 N   0  0  0  0  0  0  0  0  0  0  0  0
   24.1199  -30.3684  -16.7771 C   0  0  1  0  0  0  0  0  0  0  0  0
   23.2515  -29.9157  -17.8919 C   0  0  0  0  0  0  0  0  0  0  0  0
   21.9070  -29.4672  -17.5035 C   0  0  0  0  0  0  0  0  0  0  0  0
   20.9427  -29.5978  -18.2787 O   0  0  0  0  0  0  0  0  0  0  0  0
   23.4756  -31.4701  -15.9723 C   0  0  0  0  0  0  0  0  0  0  0  0
   22.9842  -32.4934  -16.5095 O   0  0  0  0  0  0  0  0  0  0  0  0
   21.6748  -28.8813  -16.2534 O   0  0  0  0  0  0  0  0  0  0  0  0
   23.4050  -31.3805  -14.5565 N   0  0  0  0  0  0  0  0  0  0  0  0
   22.7046  -32.3949  -13.7422 C   0  0  1  0  0  0  0  0  0  0  0  0
   23.1201  -32.0811  -12.3274 C   0  0  0  0  0  0  0  0  0  0  0  0
   22.6130  -33.0322  -11.3234 C   0  0  0  0  0  0  0  0  0  0  0  0
   23.3540  -34.0365  -10.6800 C   0  0  0  0  0  0  0  0  0  0  0  0
   22.5853  -34.6768   -9.7909 N   0  0  0  0  0  0  0  0  0  0  0  0
   21.3591  -34.1121   -9.8419 C   0  0  0  0  0  0  0  0  0  0  0  0
   20.2249  -34.4277   -9.1285 C   0  0  0  0  0  0  0  0  0  0  0  0
   19.0846  -33.7025   -9.3802 C   0  0  0  0  0  0  0  0  0  0  0  0
   19.0702  -32.6932  -10.3124 C   0  0  0  0  0  0  0  0  0  0  0  0
   20.1920  -32.3599  -11.0363 C   0  0  0  0  0  0  0  0  0  0  0  0
   21.3567  -33.0894  -10.7884 C   0  0  0  0  0  0  0  0  0  0  0  0
   21.2788  -32.4013  -14.0237 C   0  0  0  0  0  0  0  0  0  0  0  0
   20.4673  -33.5308  -13.9017 O   0  0  0  0  0  0  0  0  0  0  0  0
   20.6876  -31.3587  -14.4020 O   0  0  0  0  0  0  0  0  0  0  0  0
  2  3  1  0
  2  1  1  1
  3  4  1  0
  4  8  1  0
  4  5  2  0
  6  2  1  0
  7  6  2  0
  9  6  1  0
 10  9  1  0
 10 11  1  6
 12 11  1  0
 12 13  2  0
 14 10  1  0
 14 17  1  0
 15 14  2  0
 16 12  1  0
 18 17  1  0
 18 19  1  1
 18 29  1  0
 20 21  2  0
 20 19  1  0
 22 21  1  0
 23 28  2  0
 23 22  1  0
 24 23  1  0
 25 26  1  0
 25 24  2  0
 26 27  2  0
 27 28  1  0
 28 20  1  0
 29 30  1  0
 31 29  2  0
M  END
$$$$
