DDW.pdb
     RDKit          3D

 31 32  0  0  1  0  0  0  0  0999 V2000
   18.1561  -10.6899  -17.0104 N   0  0  0  0  0  0  0  0  0  0  0  0
   19.6045  -10.5521  -17.1091 C   0  0  1  0  0  0  0  0  0  0  0  0
   20.1348  -11.5089  -18.1017 C   0  0  0  0  0  0  0  0  0  0  0  0
   19.1446  -12.5588  -18.4084 C   0  0  0  0  0  0  0  0  0  0  0  0
   18.7351  -12.6541  -19.6163 O   0  0  0  0  0  0  0  0  0  0  0  0
   19.8946   -9.1201  -17.3825 C   0  0  0  0  0  0  0  0  0  0  0  0
   21.0930   -8.7636  -17.4493 O   0  0  0  0  0  0  0  0  0  0  0  0
   18.6377  -13.4381  -17.4737 O   0  0  0  0  0  0  0  0  0  0  0  0
   18.9083   -8.1375  -17.5662 N   0  0  0  0  0  0  0  0  0  0  0  0
   19.2873   -6.7639  -17.8065 C   0  0  1  0  0  0  0  0  0  0  0  0
   18.2467   -5.9576  -18.4912 C   0  0  0  0  0  0  0  0  0  0  0  0
   17.9710   -6.3340  -19.8848 C   0  0  0  0  0  0  0  0  0  0  0  0
   18.8823   -6.7415  -20.6273 O   0  0  0  0  0  0  0  0  0  0  0  0
   19.6685   -6.1750  -16.4706 C   0  0  0  0  0  0  0  0  0  0  0  0
   18.9540   -6.3159  -15.4474 O   0  0  0  0  0  0  0  0  0  0  0  0
   16.6782   -6.2440  -20.4143 O   0  0  0  0  0  0  0  0  0  0  0  0
   20.8696   -5.4303  -16.3285 N   0  0  0  0  0  0  0  0  0  0  0  0
   21.2447   -4.7865  -15.0528 C   0  0  1  0  0  0  0  0  0  0  0  0
   22.6369   -5.2962  -14.7796 C   0  0  0  0  0  0  0  0  0  0  0  0
   22.7141   -6.7487  -14.5473 C   0  0  0  0  0  0  0  0  0  0  0  0
   23.4732   -7.6702  -15.2865 C   0  0  0  0  0  0  0  0  0  0  0  0
   23.3456   -8.8955  -14.7634 N   0  0  0  0  0  0  0  0  0  0  0  0
   22.5189   -8.7926  -13.7000 C   0  0  0  0  0  0  0  0  0  0  0  0
   22.0733   -9.7753  -12.8452 C   0  0  0  0  0  0  0  0  0  0  0  0
   21.2137   -9.4091  -11.8369 C   0  0  0  0  0  0  0  0  0  0  0  0
   20.8082   -8.1055  -11.6812 C   0  0  0  0  0  0  0  0  0  0  0  0
   21.2414   -7.1069  -12.5229 C   0  0  0  0  0  0  0  0  0  0  0  0
   22.1158   -7.4670  -13.5505 C   0  0  0  0  0  0  0  0  0  0  0  0
   21.0730   -3.3449  -15.1216 C   0  0  0  0  0  0  0  0  0  0  0  0
   21.1806   -2.4957  -14.0187 O   0  0  0  0  0  0  0  0  0  0  0  0
   20.8116   -2.7740  -16.2103 O   0  0  0  0  0  0  0  0  0  0  0  0
  2  3  1  0
  2  1  1  6
  3  4  1  0
  4  8  1  0
  4  5  2  0
  6  2  1  0
  7  6  2  0
  9  6  1  0
 10  9  1  0
 10 11  1  1
 12 11  1  0
 12 13  2  0
 14 10  1  0
 14 17  1  0
 15 14  2  0
 16 12  1  0
 18 17  1  0
 18 19  1  6
 18 29  1  0
 20 21  2  0
 20 19  1  0
 22 21  1  0
 23 28  2  0
 23 22  1  0
 24 23  1  0
 25 26  1  0
 25 24  2  0
 26 27  2  0
 27 28  1  0
 28 20  1  0
 29 30  1  0
 31 29  2  0
M  END
$$$$
