DDW.pdb
     RDKit          3D

 31 32  0  0  1  0  0  0  0  0999 V2000
   27.5619  -22.4388  -16.3124 N   0  0  0  0  0  0  0  0  0  0  0  0
   27.9003  -21.0269  -16.1760 C   0  0  1  0  0  0  0  0  0  0  0  0
   27.8614  -20.3698  -17.4983 C   0  0  0  0  0  0  0  0  0  0  0  0
   28.8581  -20.9584  -18.4131 C   0  0  0  0  0  0  0  0  0  0  0  0
   30.0501  -20.4969  -18.3690 O   0  0  0  0  0  0  0  0  0  0  0  0
   26.9924  -20.4520  -15.1490 C   0  0  0  0  0  0  0  0  0  0  0  0
   27.0594  -19.2220  -14.9249 O   0  0  0  0  0  0  0  0  0  0  0  0
   28.5806  -21.9713  -19.3081 O   0  0  0  0  0  0  0  0  0  0  0  0
   26.0653  -21.2027  -14.4080 N   0  0  0  0  0  0  0  0  0  0  0  0
   25.1853  -20.5468  -13.4680 C   0  0  1  0  0  0  0  0  0  0  0  0
   23.7469  -20.6300  -13.8229 C   0  0  0  0  0  0  0  0  0  0  0  0
   23.3850  -20.0649  -15.1303 C   0  0  0  0  0  0  0  0  0  0  0  0
   22.7094  -20.7209  -15.9434 O   0  0  0  0  0  0  0  0  0  0  0  0
   25.4671  -21.1471  -12.1127 C   0  0  0  0  0  0  0  0  0  0  0  0
   25.6718  -22.3759  -11.9531 O   0  0  0  0  0  0  0  0  0  0  0  0
   23.7901  -18.7757  -15.4965 O   0  0  0  0  0  0  0  0  0  0  0  0
   25.5103  -20.3243  -10.9557 N   0  0  0  0  0  0  0  0  0  0  0  0
   25.5472  -20.8924   -9.5925 C   0  0  1  0  0  0  0  0  0  0  0  0
   26.8304  -20.3598   -9.0072 C   0  0  0  0  0  0  0  0  0  0  0  0
   27.0078  -20.6510   -7.5742 C   0  0  0  0  0  0  0  0  0  0  0  0
   26.5547  -21.7936   -6.8952 C   0  0  0  0  0  0  0  0  0  0  0  0
   26.9384  -21.7492   -5.6137 N   0  0  0  0  0  0  0  0  0  0  0  0
   27.6308  -20.6019   -5.4428 C   0  0  0  0  0  0  0  0  0  0  0  0
   28.2181  -20.1010   -4.3030 C   0  0  0  0  0  0  0  0  0  0  0  0
   28.8593  -18.8882   -4.3900 C   0  0  0  0  0  0  0  0  0  0  0  0
   28.9163  -18.1927   -5.5736 C   0  0  0  0  0  0  0  0  0  0  0  0
   28.3373  -18.6743   -6.7252 C   0  0  0  0  0  0  0  0  0  0  0  0
   27.6838  -19.9061   -6.6491 C   0  0  0  0  0  0  0  0  0  0  0  0
   24.3217  -20.5995   -8.8681 C   0  0  0  0  0  0  0  0  0  0  0  0
   23.2959  -19.7957   -9.3688 O   0  0  0  0  0  0  0  0  0  0  0  0
   24.1183  -21.0700   -7.7206 O   0  0  0  0  0  0  0  0  0  0  0  0
  2  3  1  0
  2  1  1  6
  3  4  1  0
  4  8  1  0
  4  5  2  0
  6  2  1  0
  7  6  2  0
  9  6  1  0
 10  9  1  0
 10 11  1  6
 12 11  1  0
 12 13  2  0
 14 10  1  0
 14 17  1  0
 15 14  2  0
 16 12  1  0
 18 17  1  0
 18 19  1  1
 18 29  1  0
 20 21  2  0
 20 19  1  0
 22 21  1  0
 23 28  2  0
 23 22  1  0
 24 23  1  0
 25 26  1  0
 25 24  2  0
 26 27  2  0
 27 28  1  0
 28 20  1  0
 29 30  1  0
 31 29  2  0
M  END
$$$$
