DDW.pdb
     RDKit          3D

 31 32  0  0  1  0  0  0  0  0999 V2000
   16.8281  -13.0745  -21.3565 N   0  0  0  0  0  0  0  0  0  0  0  0
   18.1099  -12.5569  -20.8921 C   0  0  1  0  0  0  0  0  0  0  0  0
   18.7290  -11.7265  -21.9452 C   0  0  0  0  0  0  0  0  0  0  0  0
   19.1555  -12.5529  -23.0906 C   0  0  0  0  0  0  0  0  0  0  0  0
   18.5979  -12.3345  -24.2207 O   0  0  0  0  0  0  0  0  0  0  0  0
   17.8660  -11.8700  -19.5967 C   0  0  0  0  0  0  0  0  0  0  0  0
   17.1564  -10.8384  -19.6007 O   0  0  0  0  0  0  0  0  0  0  0  0
   20.1147  -13.5418  -23.0138 O   0  0  0  0  0  0  0  0  0  0  0  0
   18.3860  -12.3018  -18.3657 N   0  0  0  0  0  0  0  0  0  0  0  0
   18.0882  -11.5713  -17.1549 C   0  0  1  0  0  0  0  0  0  0  0  0
   18.1317  -12.3957  -15.9220 C   0  0  0  0  0  0  0  0  0  0  0  0
   17.1739  -13.5092  -15.8722 C   0  0  0  0  0  0  0  0  0  0  0  0
   15.9685  -13.3247  -16.1191 O   0  0  0  0  0  0  0  0  0  0  0  0
   19.0541  -10.4138  -17.0935 C   0  0  0  0  0  0  0  0  0  0  0  0
   20.2034  -10.4721  -17.5965 O   0  0  0  0  0  0  0  0  0  0  0  0
   17.5904  -14.8053  -15.5458 O   0  0  0  0  0  0  0  0  0  0  0  0
   18.6845   -9.2010  -16.4531 N   0  0  0  0  0  0  0  0  0  0  0  0
   19.6294   -8.0751  -16.3047 C   0  0  1  0  0  0  0  0  0  0  0  0
   18.7821   -6.9541  -15.7585 C   0  0  0  0  0  0  0  0  0  0  0  0
   19.5255   -5.7118  -15.4866 C   0  0  0  0  0  0  0  0  0  0  0  0
   19.3652   -4.4844  -16.1495 C   0  0  0  0  0  0  0  0  0  0  0  0
   20.1675   -3.5607  -15.6070 N   0  0  0  0  0  0  0  0  0  0  0  0
   20.8479   -4.1600  -14.6055 C   0  0  0  0  0  0  0  0  0  0  0  0
   21.7970   -3.6318  -13.7599 C   0  0  0  0  0  0  0  0  0  0  0  0
   22.3579   -4.4658  -12.8220 C   0  0  0  0  0  0  0  0  0  0  0  0
   21.9875   -5.7855  -12.7259 C   0  0  0  0  0  0  0  0  0  0  0  0
   21.0405   -6.3344  -13.5598 C   0  0  0  0  0  0  0  0  0  0  0  0
   20.4631   -5.4963  -14.5160 C   0  0  0  0  0  0  0  0  0  0  0  0
   20.7909   -8.4638  -15.5224 C   0  0  0  0  0  0  0  0  0  0  0  0
   22.0942   -8.0537  -15.8094 O   0  0  0  0  0  0  0  0  0  0  0  0
   20.6762   -9.2108  -14.5181 O   0  0  0  0  0  0  0  0  0  0  0  0
  2  3  1  0
  2  1  1  6
  3  4  1  0
  4  8  1  0
  4  5  2  0
  6  2  1  0
  7  6  2  0
  9  6  1  0
 10  9  1  0
 10 11  1  1
 12 11  1  0
 12 13  2  0
 14 10  1  0
 14 17  1  0
 15 14  2  0
 16 12  1  0
 18 17  1  0
 18 19  1  1
 18 29  1  0
 20 21  2  0
 20 19  1  0
 22 21  1  0
 23 28  2  0
 23 22  1  0
 24 23  1  0
 25 26  1  0
 25 24  2  0
 26 27  2  0
 27 28  1  0
 28 20  1  0
 29 30  1  0
 31 29  2  0
M  END
$$$$
