DDW.pdb
     RDKit          3D

 31 32  0  0  1  0  0  0  0  0999 V2000
   25.6463  -20.7042  -16.5566 N   0  0  0  0  0  0  0  0  0  0  0  0
   25.6571  -19.2863  -16.2159 C   0  0  1  0  0  0  0  0  0  0  0  0
   25.0867  -18.4972  -17.3268 C   0  0  0  0  0  0  0  0  0  0  0  0
   25.8552  -18.6985  -18.5700 C   0  0  0  0  0  0  0  0  0  0  0  0
   25.2306  -19.1603  -19.5861 O   0  0  0  0  0  0  0  0  0  0  0  0
   24.9667  -19.1407  -14.9076 C   0  0  0  0  0  0  0  0  0  0  0  0
   24.9404  -18.0066  -14.3777 O   0  0  0  0  0  0  0  0  0  0  0  0
   27.2004  -18.4195  -18.6994 O   0  0  0  0  0  0  0  0  0  0  0  0
   24.3448  -20.1975  -14.2231 N   0  0  0  0  0  0  0  0  0  0  0  0
   23.6560  -19.9503  -12.9770 C   0  0  1  0  0  0  0  0  0  0  0  0
   22.2198  -20.3228  -12.9927 C   0  0  0  0  0  0  0  0  0  0  0  0
   21.5159  -20.1798  -11.7105 C   0  0  0  0  0  0  0  0  0  0  0  0
   21.7515  -19.2176  -10.9578 O   0  0  0  0  0  0  0  0  0  0  0  0
   24.4176  -20.6866  -11.9025 C   0  0  0  0  0  0  0  0  0  0  0  0
   24.7568  -21.8895  -12.0257 O   0  0  0  0  0  0  0  0  0  0  0  0
   20.5633  -21.1206  -11.3014 O   0  0  0  0  0  0  0  0  0  0  0  0
   24.7805  -20.0280  -10.6975 N   0  0  0  0  0  0  0  0  0  0  0  0
   25.3653  -20.7566   -9.5531 C   0  0  1  0  0  0  0  0  0  0  0  0
   26.4056  -19.8111   -9.0085 C   0  0  0  0  0  0  0  0  0  0  0  0
   27.1357  -20.3253   -7.8370 C   0  0  0  0  0  0  0  0  0  0  0  0
   27.3267  -21.6757   -7.5029 C   0  0  0  0  0  0  0  0  0  0  0  0
   28.0817  -21.7745   -6.4021 N   0  0  0  0  0  0  0  0  0  0  0  0
   28.3858  -20.5176   -6.0112 C   0  0  0  0  0  0  0  0  0  0  0  0
   29.1278  -20.0975   -4.9306 C   0  0  0  0  0  0  0  0  0  0  0  0
   29.2793  -18.7443   -4.7418 C   0  0  0  0  0  0  0  0  0  0  0  0
   28.7111  -17.8345   -5.6006 C   0  0  0  0  0  0  0  0  0  0  0  0
   27.9664  -18.2316   -6.6873 C   0  0  0  0  0  0  0  0  0  0  0  0
   27.8065  -19.6040   -6.8897 C   0  0  0  0  0  0  0  0  0  0  0  0
   24.3335  -21.2020   -8.6314 C   0  0  0  0  0  0  0  0  0  0  0  0
   24.4139  -22.3785   -7.8842 O   0  0  0  0  0  0  0  0  0  0  0  0
   23.2864  -20.5296   -8.4559 O   0  0  0  0  0  0  0  0  0  0  0  0
  2  3  1  0
  2  1  1  6
  3  4  1  0
  4  8  1  0
  4  5  2  0
  6  2  1  0
  7  6  2  0
  9  6  1  0
 10  9  1  0
 10 11  1  6
 12 11  1  0
 12 13  2  0
 14 10  1  0
 14 17  1  0
 15 14  2  0
 16 12  1  0
 18 17  1  0
 18 19  1  1
 18 29  1  0
 20 21  2  0
 20 19  1  0
 22 21  1  0
 23 28  2  0
 23 22  1  0
 24 23  1  0
 25 26  1  0
 25 24  2  0
 26 27  2  0
 27 28  1  0
 28 20  1  0
 29 30  1  0
 31 29  2  0
M  END
$$$$
