DDW.pdb
     RDKit          3D

 31 32  0  0  1  0  0  0  0  0999 V2000
   16.7999  -10.4362  -14.5784 N   0  0  0  0  0  0  0  0  0  0  0  0
   17.9123  -10.2596  -15.5046 C   0  0  1  0  0  0  0  0  0  0  0  0
   17.6544  -11.0106  -16.7502 C   0  0  0  0  0  0  0  0  0  0  0  0
   17.4422  -12.4439  -16.4716 C   0  0  0  0  0  0  0  0  0  0  0  0
   16.4740  -13.0279  -17.0692 O   0  0  0  0  0  0  0  0  0  0  0  0
   18.1212   -8.7974  -15.6709 C   0  0  0  0  0  0  0  0  0  0  0  0
   18.9529   -8.4139  -16.5246 O   0  0  0  0  0  0  0  0  0  0  0  0
   18.2225  -13.1859  -15.6088 O   0  0  0  0  0  0  0  0  0  0  0  0
   17.4475   -7.8156  -14.9263 N   0  0  0  0  0  0  0  0  0  0  0  0
   17.6352   -6.4158  -15.2323 C   0  0  1  0  0  0  0  0  0  0  0  0
   16.4258   -5.5814  -15.0254 C   0  0  0  0  0  0  0  0  0  0  0  0
   15.2319   -6.0033  -15.7713 C   0  0  0  0  0  0  0  0  0  0  0  0
   14.1357   -6.1353  -15.1980 O   0  0  0  0  0  0  0  0  0  0  0  0
   18.7990   -5.9380  -14.3991 C   0  0  0  0  0  0  0  0  0  0  0  0
   18.8035   -6.0175  -13.1457 O   0  0  0  0  0  0  0  0  0  0  0  0
   15.2952   -6.2683  -17.1445 O   0  0  0  0  0  0  0  0  0  0  0  0
   19.9453   -5.3741  -15.0198 N   0  0  0  0  0  0  0  0  0  0  0  0
   21.0990   -4.8863  -14.2366 C   0  0  1  0  0  0  0  0  0  0  0  0
   22.2835   -5.5870  -14.8521 C   0  0  0  0  0  0  0  0  0  0  0  0
   22.2487   -7.0544  -14.7291 C   0  0  0  0  0  0  0  0  0  0  0  0
   22.0597   -7.7858  -13.5454 C   0  0  0  0  0  0  0  0  0  0  0  0
   22.0323   -9.0966  -13.8143 N   0  0  0  0  0  0  0  0  0  0  0  0
   22.2004   -9.2353  -15.1475 C   0  0  0  0  0  0  0  0  0  0  0  0
   22.2557  -10.3845  -15.9031 C   0  0  0  0  0  0  0  0  0  0  0  0
   22.4530  -10.2546  -17.2574 C   0  0  0  0  0  0  0  0  0  0  0  0
   22.5910   -9.0201  -17.8447 C   0  0  0  0  0  0  0  0  0  0  0  0
   22.5382   -7.8583  -17.1093 C   0  0  0  0  0  0  0  0  0  0  0  0
   22.3373   -7.9779  -15.7326 C   0  0  0  0  0  0  0  0  0  0  0  0
   21.1363   -3.4337  -14.2055 C   0  0  0  0  0  0  0  0  0  0  0  0
   22.0648   -2.6956  -13.4693 O   0  0  0  0  0  0  0  0  0  0  0  0
   20.3098   -2.7495  -14.8599 O   0  0  0  0  0  0  0  0  0  0  0  0
  2  3  1  0
  2  1  1  1
  3  4  1  0
  4  8  1  0
  4  5  2  0
  6  2  1  0
  7  6  2  0
  9  6  1  0
 10  9  1  0
 10 11  1  1
 12 11  1  0
 12 13  2  0
 14 10  1  0
 14 17  1  0
 15 14  2  0
 16 12  1  0
 18 17  1  0
 18 19  1  6
 18 29  1  0
 20 21  2  0
 20 19  1  0
 22 21  1  0
 23 28  2  0
 23 22  1  0
 24 23  1  0
 25 26  1  0
 25 24  2  0
 26 27  2  0
 27 28  1  0
 28 20  1  0
 29 30  1  0
 31 29  2  0
M  END
$$$$
