DDW.pdb
     RDKit          3D

 31 32  0  0  1  0  0  0  0  0999 V2000
   14.8907  -20.0123    3.9938 N   0  0  0  0  0  0  0  0  0  0  0  0
   16.3028  -19.8774    4.3320 C   0  0  1  0  0  0  0  0  0  0  0  0
   16.9979  -19.0958    3.2890 C   0  0  0  0  0  0  0  0  0  0  0  0
   17.1514  -19.8823    2.0502 C   0  0  0  0  0  0  0  0  0  0  0  0
   16.6966  -21.0777    2.0455 O   0  0  0  0  0  0  0  0  0  0  0  0
   16.3766  -19.3172    5.7068 C   0  0  0  0  0  0  0  0  0  0  0  0
   15.8004  -18.2286    5.9316 O   0  0  0  0  0  0  0  0  0  0  0  0
   17.7537  -19.4063    0.9036 O   0  0  0  0  0  0  0  0  0  0  0  0
   17.0573  -19.9295    6.7716 N   0  0  0  0  0  0  0  0  0  0  0  0
   17.0322  -19.3341    8.0881 C   0  0  1  0  0  0  0  0  0  0  0  0
   17.3045  -20.2881    9.1914 C   0  0  0  0  0  0  0  0  0  0  0  0
   17.1038  -19.7593   10.5478 C   0  0  0  0  0  0  0  0  0  0  0  0
   16.6400  -18.6185   10.7252 O   0  0  0  0  0  0  0  0  0  0  0  0
   18.0208  -18.1942    8.0716 C   0  0  0  0  0  0  0  0  0  0  0  0
   19.1638  -18.3053    7.5632 O   0  0  0  0  0  0  0  0  0  0  0  0
   17.4287  -20.5228   11.6754 O   0  0  0  0  0  0  0  0  0  0  0  0
   17.6808  -16.9382    8.6410 N   0  0  0  0  0  0  0  0  0  0  0  0
   18.6285  -15.8050    8.6590 C   0  0  1  0  0  0  0  0  0  0  0  0
   17.7573  -14.5941    8.4407 C   0  0  0  0  0  0  0  0  0  0  0  0
   17.7202  -14.1196    7.0467 C   0  0  0  0  0  0  0  0  0  0  0  0
   16.7191  -14.3937    6.1010 C   0  0  0  0  0  0  0  0  0  0  0  0
   16.9838  -13.7572    4.9537 N   0  0  0  0  0  0  0  0  0  0  0  0
   18.1363  -13.0751    5.1311 C   0  0  0  0  0  0  0  0  0  0  0  0
   18.8233  -12.2804    4.2417 C   0  0  0  0  0  0  0  0  0  0  0  0
   19.9956  -11.7029    4.6682 C   0  0  0  0  0  0  0  0  0  0  0  0
   20.4720  -11.9078    5.9406 C   0  0  0  0  0  0  0  0  0  0  0  0
   19.8017  -12.6973    6.8465 C   0  0  0  0  0  0  0  0  0  0  0  0
   18.6090  -13.2885    6.4246 C   0  0  0  0  0  0  0  0  0  0  0  0
   19.4439  -15.8213    9.8620 C   0  0  0  0  0  0  0  0  0  0  0  0
   19.2977  -16.7571   10.8876 O   0  0  0  0  0  0  0  0  0  0  0  0
   20.3486  -14.9681   10.0440 O   0  0  0  0  0  0  0  0  0  0  0  0
  2  3  1  0
  2  1  1  6
  3  4  1  0
  4  8  1  0
  4  5  2  0
  6  2  1  0
  7  6  2  0
  9  6  1  0
 10  9  1  0
 10 11  1  1
 12 11  1  0
 12 13  2  0
 14 10  1  0
 14 17  1  0
 15 14  2  0
 16 12  1  0
 18 17  1  0
 18 19  1  1
 18 29  1  0
 20 21  2  0
 20 19  1  0
 22 21  1  0
 23 28  2  0
 23 22  1  0
 24 23  1  0
 25 26  1  0
 25 24  2  0
 26 27  2  0
 27 28  1  0
 28 20  1  0
 29 30  1  0
 31 29  2  0
M  END
$$$$
