DDW.pdb
     RDKit          3D

 31 32  0  0  1  0  0  0  0  0999 V2000
   26.2305  -20.0497  -18.2591 N   0  0  0  0  0  0  0  0  0  0  0  0
   26.6355  -19.1368  -17.1964 C   0  0  1  0  0  0  0  0  0  0  0  0
   26.9134  -17.7999  -17.7597 C   0  0  0  0  0  0  0  0  0  0  0  0
   28.1365  -17.8154  -18.5847 C   0  0  0  0  0  0  0  0  0  0  0  0
   28.5684  -18.9507  -18.9850 O   0  0  0  0  0  0  0  0  0  0  0  0
   25.5821  -19.1831  -16.1487 C   0  0  0  0  0  0  0  0  0  0  0  0
   25.3325  -18.1314  -15.5166 O   0  0  0  0  0  0  0  0  0  0  0  0
   28.8373  -16.6832  -18.9467 O   0  0  0  0  0  0  0  0  0  0  0  0
   24.8503  -20.3350  -15.8174 N   0  0  0  0  0  0  0  0  0  0  0  0
   23.7904  -20.2655  -14.8376 C   0  0  1  0  0  0  0  0  0  0  0  0
   22.5162  -20.8866  -15.2762 C   0  0  0  0  0  0  0  0  0  0  0  0
   22.0070  -20.4324  -16.5778 C   0  0  0  0  0  0  0  0  0  0  0  0
   21.5399  -19.2875  -16.7153 O   0  0  0  0  0  0  0  0  0  0  0  0
   24.3203  -20.8980  -13.5743 C   0  0  0  0  0  0  0  0  0  0  0  0
   24.7117  -22.0907  -13.5348 O   0  0  0  0  0  0  0  0  0  0  0  0
   22.0329  -21.2739  -17.6964 O   0  0  0  0  0  0  0  0  0  0  0  0
   24.3937  -20.1484  -12.3700 N   0  0  0  0  0  0  0  0  0  0  0  0
   24.7954  -20.7640  -11.0885 C   0  0  1  0  0  0  0  0  0  0  0  0
   25.9402  -19.9065  -10.6120 C   0  0  0  0  0  0  0  0  0  0  0  0
   27.2261  -20.1950  -11.2699 C   0  0  0  0  0  0  0  0  0  0  0  0
   27.5568  -19.9199  -12.6066 C   0  0  0  0  0  0  0  0  0  0  0  0
   28.8267  -20.2677  -12.8469 N   0  0  0  0  0  0  0  0  0  0  0  0
   29.3303  -20.7644  -11.6960 C   0  0  0  0  0  0  0  0  0  0  0  0
   30.5874  -21.2631  -11.4393 C   0  0  0  0  0  0  0  0  0  0  0  0
   30.8483  -21.7281  -10.1723 C   0  0  0  0  0  0  0  0  0  0  0  0
   29.8895  -21.6988   -9.1884 C   0  0  0  0  0  0  0  0  0  0  0  0
   28.6270  -21.2041   -9.4220 C   0  0  0  0  0  0  0  0  0  0  0  0
   28.3508  -20.7280  -10.7055 C   0  0  0  0  0  0  0  0  0  0  0  0
   23.6589  -20.9021  -10.1931 C   0  0  0  0  0  0  0  0  0  0  0  0
   23.7176  -21.5469   -8.9563 O   0  0  0  0  0  0  0  0  0  0  0  0
   22.5331  -20.4333  -10.4969 O   0  0  0  0  0  0  0  0  0  0  0  0
  2  3  1  0
  2  1  1  6
  3  4  1  0
  4  8  1  0
  4  5  2  0
  6  2  1  0
  7  6  2  0
  9  6  1  0
 10  9  1  0
 10 11  1  6
 12 11  1  0
 12 13  2  0
 14 10  1  0
 14 17  1  0
 15 14  2  0
 16 12  1  0
 18 17  1  0
 18 19  1  1
 18 29  1  0
 20 21  2  0
 20 19  1  0
 22 21  1  0
 23 28  2  0
 23 22  1  0
 24 23  1  0
 25 26  1  0
 25 24  2  0
 26 27  2  0
 27 28  1  0
 28 20  1  0
 29 30  1  0
 31 29  2  0
M  END
$$$$
