DDW.pdb
     RDKit          3D

 31 32  0  0  1  0  0  0  0  0999 V2000
   28.2137  -20.3707  -17.8066 N   0  0  0  0  0  0  0  0  0  0  0  0
   27.5997  -21.3020  -16.8673 C   0  0  1  0  0  0  0  0  0  0  0  0
   28.6467  -22.0034  -16.0968 C   0  0  0  0  0  0  0  0  0  0  0  0
   28.7769  -23.4067  -16.5337 C   0  0  0  0  0  0  0  0  0  0  0  0
   29.6355  -24.1388  -15.9316 O   0  0  0  0  0  0  0  0  0  0  0  0
   26.6184  -20.5319  -16.0589 C   0  0  0  0  0  0  0  0  0  0  0  0
   26.3490  -19.3624  -16.4159 O   0  0  0  0  0  0  0  0  0  0  0  0
   28.0310  -23.9713  -17.5479 O   0  0  0  0  0  0  0  0  0  0  0  0
   25.9761  -21.0312  -14.9143 N   0  0  0  0  0  0  0  0  0  0  0  0
   24.9091  -20.2795  -14.2940 C   0  0  1  0  0  0  0  0  0  0  0  0
   23.7217  -20.0814  -15.1616 C   0  0  0  0  0  0  0  0  0  0  0  0
   22.5499  -19.4878  -14.5028 C   0  0  0  0  0  0  0  0  0  0  0  0
   21.5203  -20.1584  -14.3077 O   0  0  0  0  0  0  0  0  0  0  0  0
   24.5579  -20.9944  -13.0125 C   0  0  0  0  0  0  0  0  0  0  0  0
   24.0860  -22.1582  -13.0016 O   0  0  0  0  0  0  0  0  0  0  0  0
   22.5595  -18.1538  -14.0779 O   0  0  0  0  0  0  0  0  0  0  0  0
   24.7550  -20.3601  -11.7570 N   0  0  0  0  0  0  0  0  0  0  0  0
   24.3591  -21.0007  -10.4859 C   0  0  1  0  0  0  0  0  0  0  0  0
   25.1486  -20.2574   -9.4385 C   0  0  0  0  0  0  0  0  0  0  0  0
   26.5446  -20.7071   -9.3016 C   0  0  0  0  0  0  0  0  0  0  0  0
   27.2554  -21.5033  -10.2140 C   0  0  0  0  0  0  0  0  0  0  0  0
   28.5147  -21.6721   -9.7933 N   0  0  0  0  0  0  0  0  0  0  0  0
   28.6395  -21.0038   -8.6258 C   0  0  0  0  0  0  0  0  0  0  0  0
   29.7366  -20.8865   -7.8028 C   0  0  0  0  0  0  0  0  0  0  0  0
   29.5987  -20.1537   -6.6480 C   0  0  0  0  0  0  0  0  0  0  0  0
   28.4066  -19.5543   -6.3197 C   0  0  0  0  0  0  0  0  0  0  0  0
   27.2975  -19.6573   -7.1275 C   0  0  0  0  0  0  0  0  0  0  0  0
   27.4261  -20.3988   -8.3039 C   0  0  0  0  0  0  0  0  0  0  0  0
   22.9139  -21.0162  -10.3334 C   0  0  0  0  0  0  0  0  0  0  0  0
   22.2137  -22.0206   -9.6627 O   0  0  0  0  0  0  0  0  0  0  0  0
   22.2012  -20.0982  -10.8119 O   0  0  0  0  0  0  0  0  0  0  0  0
  2  3  1  0
  2  1  1  6
  3  4  1  0
  4  8  1  0
  4  5  2  0
  6  2  1  0
  7  6  2  0
  9  6  1  0
 10  9  1  0
 10 11  1  6
 12 11  1  0
 12 13  2  0
 14 10  1  0
 14 17  1  0
 15 14  2  0
 16 12  1  0
 18 17  1  0
 18 19  1  1
 18 29  1  0
 20 21  2  0
 20 19  1  0
 22 21  1  0
 23 28  2  0
 23 22  1  0
 24 23  1  0
 25 26  1  0
 25 24  2  0
 26 27  2  0
 27 28  1  0
 28 20  1  0
 29 30  1  0
 31 29  2  0
M  END
$$$$
