DDW.pdb
     RDKit          3D

 31 32  0  0  1  0  0  0  0  0999 V2000
   28.6584  -19.6700  -17.9194 N   0  0  0  0  0  0  0  0  0  0  0  0
   29.0631  -18.7403  -16.8713 C   0  0  1  0  0  0  0  0  0  0  0  0
   29.7089  -17.5551  -17.4714 C   0  0  0  0  0  0  0  0  0  0  0  0
   30.3509  -17.8938  -18.7560 C   0  0  0  0  0  0  0  0  0  0  0  0
   31.0445  -18.9671  -18.8083 O   0  0  0  0  0  0  0  0  0  0  0  0
   27.8631  -18.4624  -16.0394 C   0  0  0  0  0  0  0  0  0  0  0  0
   27.9618  -17.6091  -15.1284 O   0  0  0  0  0  0  0  0  0  0  0  0
   30.2473  -17.1246  -19.8968 O   0  0  0  0  0  0  0  0  0  0  0  0
   26.6235  -19.1008  -16.2066 N   0  0  0  0  0  0  0  0  0  0  0  0
   25.5205  -18.7873  -15.3271 C   0  0  1  0  0  0  0  0  0  0  0  0
   24.4543  -17.9702  -15.9575 C   0  0  0  0  0  0  0  0  0  0  0  0
   23.2412  -17.7824  -15.1496 C   0  0  0  0  0  0  0  0  0  0  0  0
   23.3165  -17.5736  -13.9254 O   0  0  0  0  0  0  0  0  0  0  0  0
   24.9904  -20.1000  -14.8051 C   0  0  0  0  0  0  0  0  0  0  0  0
   24.6845  -21.0502  -15.5672 O   0  0  0  0  0  0  0  0  0  0  0  0
   21.9699  -17.8337  -15.7338 O   0  0  0  0  0  0  0  0  0  0  0  0
   24.8190  -20.3034  -13.4098 N   0  0  0  0  0  0  0  0  0  0  0  0
   24.1963  -21.5288  -12.8684 C   0  0  1  0  0  0  0  0  0  0  0  0
   25.3050  -22.1917  -12.0912 C   0  0  0  0  0  0  0  0  0  0  0  0
   25.8745  -21.3570  -11.0193 C   0  0  0  0  0  0  0  0  0  0  0  0
   25.1581  -20.7081  -10.0008 C   0  0  0  0  0  0  0  0  0  0  0  0
   26.0024  -20.0825   -9.1718 N   0  0  0  0  0  0  0  0  0  0  0  0
   27.2533  -20.3090   -9.6287 C   0  0  0  0  0  0  0  0  0  0  0  0
   28.4568  -19.8687   -9.1261 C   0  0  0  0  0  0  0  0  0  0  0  0
   29.6031  -20.2301   -9.7934 C   0  0  0  0  0  0  0  0  0  0  0  0
   29.5564  -21.0062  -10.9263 C   0  0  0  0  0  0  0  0  0  0  0  0
   28.3652  -21.4582  -11.4459 C   0  0  0  0  0  0  0  0  0  0  0  0
   27.1941  -21.0980  -10.7758 C   0  0  0  0  0  0  0  0  0  0  0  0
   22.9758  -21.2208  -12.1419 C   0  0  0  0  0  0  0  0  0  0  0  0
   22.0489  -22.1827  -11.7361 O   0  0  0  0  0  0  0  0  0  0  0  0
   22.6857  -20.0375  -11.8332 O   0  0  0  0  0  0  0  0  0  0  0  0
  2  3  1  0
  2  1  1  6
  3  4  1  0
  4  8  1  0
  4  5  2  0
  6  2  1  0
  7  6  2  0
  9  6  1  0
 10  9  1  0
 10 11  1  6
 12 11  1  0
 12 13  2  0
 14 10  1  0
 14 17  1  0
 15 14  2  0
 16 12  1  0
 18 17  1  0
 18 19  1  1
 18 29  1  0
 20 21  2  0
 20 19  1  0
 22 21  1  0
 23 28  2  0
 23 22  1  0
 24 23  1  0
 25 26  1  0
 25 24  2  0
 26 27  2  0
 27 28  1  0
 28 20  1  0
 29 30  1  0
 31 29  2  0
M  END
$$$$
