DDW.pdb
     RDKit          3D

 31 32  0  0  1  0  0  0  0  0999 V2000
   25.6074  -35.3009    1.1713 N   0  0  0  0  0  0  0  0  0  0  0  0
   25.7393  -34.0174    0.4918 C   0  0  1  0  0  0  0  0  0  0  0  0
   26.5269  -34.1820   -0.7469 C   0  0  0  0  0  0  0  0  0  0  0  0
   27.9394  -34.4799   -0.4422 C   0  0  0  0  0  0  0  0  0  0  0  0
   28.6799  -34.8903   -1.4009 O   0  0  0  0  0  0  0  0  0  0  0  0
   24.3692  -33.4703    0.3107 C   0  0  0  0  0  0  0  0  0  0  0  0
   24.2358  -32.4272   -0.3690 O   0  0  0  0  0  0  0  0  0  0  0  0
   28.5043  -34.3428    0.8092 O   0  0  0  0  0  0  0  0  0  0  0  0
   23.2118  -34.0466    0.8589 N   0  0  0  0  0  0  0  0  0  0  0  0
   21.9219  -33.4320    0.6427 C   0  0  1  0  0  0  0  0  0  0  0  0
   20.8385  -34.3922    0.3173 C   0  0  0  0  0  0  0  0  0  0  0  0
   19.5184  -33.7955    0.0706 C   0  0  0  0  0  0  0  0  0  0  0  0
   18.5050  -34.2288    0.6478 O   0  0  0  0  0  0  0  0  0  0  0  0
   21.6085  -32.6263    1.8793 C   0  0  0  0  0  0  0  0  0  0  0  0
   21.2592  -33.1640    2.9592 O   0  0  0  0  0  0  0  0  0  0  0  0
   19.3649  -32.7255   -0.8191 O   0  0  0  0  0  0  0  0  0  0  0  0
   21.7014  -31.2091    1.8579 N   0  0  0  0  0  0  0  0  0  0  0  0
   21.1691  -30.3734    2.9537 C   0  0  1  0  0  0  0  0  0  0  0  0
   22.1439  -29.2273    3.0484 C   0  0  0  0  0  0  0  0  0  0  0  0
   21.5642  -27.9834    3.5836 C   0  0  0  0  0  0  0  0  0  0  0  0
   21.4219  -27.6481    4.9397 C   0  0  0  0  0  0  0  0  0  0  0  0
   20.9040  -26.4196    5.0577 N   0  0  0  0  0  0  0  0  0  0  0  0
   20.7047  -25.9476    3.8077 C   0  0  0  0  0  0  0  0  0  0  0  0
   20.1829  -24.7386    3.4064 C   0  0  0  0  0  0  0  0  0  0  0  0
   20.0690  -24.5037    2.0568 C   0  0  0  0  0  0  0  0  0  0  0  0
   20.4619  -25.4411    1.1322 C   0  0  0  0  0  0  0  0  0  0  0  0
   20.9868  -26.6555    1.5102 C   0  0  0  0  0  0  0  0  0  0  0  0
   21.1081  -26.9050    2.8789 C   0  0  0  0  0  0  0  0  0  0  0  0
   19.7743  -30.0343    2.7255 C   0  0  0  0  0  0  0  0  0  0  0  0
   19.1939  -29.9416    1.4592 O   0  0  0  0  0  0  0  0  0  0  0  0
   18.9980  -29.8012    3.6860 O   0  0  0  0  0  0  0  0  0  0  0  0
  2  3  1  0
  2  1  1  6
  3  4  1  0
  4  8  1  0
  4  5  2  0
  6  2  1  0
  7  6  2  0
  9  6  1  0
 10  9  1  0
 10 11  1  1
 12 11  1  0
 12 13  2  0
 14 10  1  0
 14 17  1  0
 15 14  2  0
 16 12  1  0
 18 17  1  0
 18 19  1  6
 18 29  1  0
 20 21  2  0
 20 19  1  0
 22 21  1  0
 23 28  2  0
 23 22  1  0
 24 23  1  0
 25 26  1  0
 25 24  2  0
 26 27  2  0
 27 28  1  0
 28 20  1  0
 29 30  1  0
 31 29  2  0
M  END
$$$$
