DDW.pdb
     RDKit          3D

 31 32  0  0  1  0  0  0  0  0999 V2000
   49.3113  -10.2633   -5.1209 N   0  0  0  0  0  0  0  0  0  0  0  0
   48.0121  -10.8792   -5.3644 C   0  0  1  0  0  0  0  0  0  0  0  0
   46.9423  -10.0470   -4.7771 C   0  0  0  0  0  0  0  0  0  0  0  0
   47.1064   -9.9253   -3.3159 C   0  0  0  0  0  0  0  0  0  0  0  0
   47.6268  -10.9133   -2.6924 O   0  0  0  0  0  0  0  0  0  0  0  0
   47.9045  -11.1206   -6.8271 C   0  0  0  0  0  0  0  0  0  0  0  0
   48.5715  -10.3912   -7.5957 O   0  0  0  0  0  0  0  0  0  0  0  0
   46.7329   -8.8145   -2.5874 O   0  0  0  0  0  0  0  0  0  0  0  0
   47.0964  -12.1135   -7.4044 N   0  0  0  0  0  0  0  0  0  0  0  0
   47.0406  -12.2601   -8.8410 C   0  0  1  0  0  0  0  0  0  0  0  0
   47.8590  -13.3793   -9.3695 C   0  0  0  0  0  0  0  0  0  0  0  0
   47.8607  -13.5251  -10.8319 C   0  0  0  0  0  0  0  0  0  0  0  0
   47.4717  -14.5783  -11.3680 O   0  0  0  0  0  0  0  0  0  0  0  0
   45.5845  -12.4032   -9.2099 C   0  0  0  0  0  0  0  0  0  0  0  0
   44.9856  -13.5060   -9.1605 O   0  0  0  0  0  0  0  0  0  0  0  0
   48.2996  -12.4853  -11.6603 O   0  0  0  0  0  0  0  0  0  0  0  0
   44.8342  -11.2733   -9.6314 N   0  0  0  0  0  0  0  0  0  0  0  0
   43.4811  -11.4039  -10.2098 C   0  0  1  0  0  0  0  0  0  0  0  0
   42.5786  -10.7754   -9.1786 C   0  0  0  0  0  0  0  0  0  0  0  0
   42.1131  -11.7055   -8.1354 C   0  0  0  0  0  0  0  0  0  0  0  0
   41.5804  -11.3536   -6.8848 C   0  0  0  0  0  0  0  0  0  0  0  0
   41.2145  -12.4532   -6.2152 N   0  0  0  0  0  0  0  0  0  0  0  0
   41.4983  -13.5140   -7.0020 C   0  0  0  0  0  0  0  0  0  0  0  0
   41.3166  -14.8557   -6.7536 C   0  0  0  0  0  0  0  0  0  0  0  0
   41.7071  -15.7478   -7.7237 C   0  0  0  0  0  0  0  0  0  0  0  0
   42.2614  -15.3209   -8.9063 C   0  0  0  0  0  0  0  0  0  0  0  0
   42.4515  -13.9852   -9.1765 C   0  0  0  0  0  0  0  0  0  0  0  0
   42.0577  -13.0695   -8.1985 C   0  0  0  0  0  0  0  0  0  0  0  0
   43.4289  -10.8531  -11.5538 C   0  0  0  0  0  0  0  0  0  0  0  0
   44.4660  -10.1209  -12.1346 O   0  0  0  0  0  0  0  0  0  0  0  0
   42.4172  -11.0140  -12.2818 O   0  0  0  0  0  0  0  0  0  0  0  0
  2  3  1  0
  2  1  1  6
  3  4  1  0
  4  8  1  0
  4  5  2  0
  6  2  1  0
  7  6  2  0
  9  6  1  0
 10  9  1  0
 10 11  1  1
 12 11  1  0
 12 13  2  0
 14 10  1  0
 14 17  1  0
 15 14  2  0
 16 12  1  0
 18 17  1  0
 18 19  1  1
 18 29  1  0
 20 21  2  0
 20 19  1  0
 22 21  1  0
 23 28  2  0
 23 22  1  0
 24 23  1  0
 25 26  1  0
 25 24  2  0
 26 27  2  0
 27 28  1  0
 28 20  1  0
 29 30  1  0
 31 29  2  0
M  END
$$$$
