DDW.pdb
     RDKit          3D

 31 32  0  0  1  0  0  0  0  0999 V2000
   25.1941  -34.8980  -14.1707 N   0  0  0  0  0  0  0  0  0  0  0  0
   24.0110  -34.2895  -14.7680 C   0  0  1  0  0  0  0  0  0  0  0  0
   23.5064  -35.1405  -15.8647 C   0  0  0  0  0  0  0  0  0  0  0  0
   22.9223  -34.3230  -16.9452 C   0  0  0  0  0  0  0  0  0  0  0  0
   22.9482  -33.0516  -16.8081 O   0  0  0  0  0  0  0  0  0  0  0  0
   23.0469  -34.0252  -13.6680 C   0  0  0  0  0  0  0  0  0  0  0  0
   22.0647  -33.2870  -13.9095 O   0  0  0  0  0  0  0  0  0  0  0  0
   22.3529  -34.8471  -18.0876 O   0  0  0  0  0  0  0  0  0  0  0  0
   23.1697  -34.5473  -12.3701 N   0  0  0  0  0  0  0  0  0  0  0  0
   22.2145  -34.1851  -11.3480 C   0  0  1  0  0  0  0  0  0  0  0  0
   21.2917  -35.2815  -10.9632 C   0  0  0  0  0  0  0  0  0  0  0  0
   21.7233  -36.6336  -11.3443 C   0  0  0  0  0  0  0  0  0  0  0  0
   21.7296  -36.9884  -12.5368 O   0  0  0  0  0  0  0  0  0  0  0  0
   23.0070  -33.6755  -10.1694 C   0  0  0  0  0  0  0  0  0  0  0  0
   24.0729  -34.2216   -9.7917 O   0  0  0  0  0  0  0  0  0  0  0  0
   22.1379  -37.5580  -10.3781 O   0  0  0  0  0  0  0  0  0  0  0  0
   22.5622  -32.5413   -9.4392 N   0  0  0  0  0  0  0  0  0  0  0  0
   23.3402  -31.9796   -8.3158 C   0  0  1  0  0  0  0  0  0  0  0  0
   23.3252  -30.4930   -8.5657 C   0  0  0  0  0  0  0  0  0  0  0  0
   21.9765  -29.9039   -8.6266 C   0  0  0  0  0  0  0  0  0  0  0  0
   20.9226  -30.1438   -7.7302 C   0  0  0  0  0  0  0  0  0  0  0  0
   19.8599  -29.4002   -8.0603 N   0  0  0  0  0  0  0  0  0  0  0  0
   20.1982  -28.6816   -9.1531 C   0  0  0  0  0  0  0  0  0  0  0  0
   19.4434  -27.7823   -9.8717 C   0  0  0  0  0  0  0  0  0  0  0  0
   20.0223  -27.1881  -10.9678 C   0  0  0  0  0  0  0  0  0  0  0  0
   21.3130  -27.4776  -11.3398 C   0  0  0  0  0  0  0  0  0  0  0  0
   22.0861  -28.3723  -10.6361 C   0  0  0  0  0  0  0  0  0  0  0  0
   21.5087  -28.9816   -9.5200 C   0  0  0  0  0  0  0  0  0  0  0  0
   22.8224  -32.4377   -7.0374 C   0  0  0  0  0  0  0  0  0  0  0  0
   23.4719  -32.2359   -5.8182 O   0  0  0  0  0  0  0  0  0  0  0  0
   21.7310  -33.0566   -6.9638 O   0  0  0  0  0  0  0  0  0  0  0  0
  2  3  1  0
  2  1  1  1
  3  4  1  0
  4  8  1  0
  4  5  2  0
  6  2  1  0
  7  6  2  0
  9  6  1  0
 10  9  1  0
 10 11  1  1
 12 11  1  0
 12 13  2  0
 14 10  1  0
 14 17  1  0
 15 14  2  0
 16 12  1  0
 18 17  1  0
 18 19  1  1
 18 29  1  0
 20 21  2  0
 20 19  1  0
 22 21  1  0
 23 28  2  0
 23 22  1  0
 24 23  1  0
 25 26  1  0
 25 24  2  0
 26 27  2  0
 27 28  1  0
 28 20  1  0
 29 30  1  0
 31 29  2  0
M  END
$$$$
