HGV.pdb
     RDKit          3D

 22 22  0  0  1  0  0  0  0  0999 V2000
   24.9490  -17.9249  -18.1687 N   0  0  0  0  0  0  0  0  0  0  0  0
   23.6542  -17.6260  -17.5877 C   0  0  1  0  0  0  0  0  0  0  0  0
   22.6625  -17.5307  -18.7031 C   0  0  0  0  0  0  0  0  0  0  0  0
   22.9655  -16.3258  -19.5131 C   0  0  0  0  0  0  0  0  0  0  0  0
   23.4882  -16.2258  -20.8005 C   0  0  0  0  0  0  0  0  0  0  0  0
   23.6003  -14.9329  -21.1370 N   0  0  0  0  0  0  0  0  0  0  0  0
   23.1662  -14.1965  -20.1062 C   0  0  0  0  0  0  0  0  0  0  0  0
   22.7831  -15.0278  -19.1267 N   0  0  0  0  0  0  0  0  0  0  0  0
   23.3339  -18.7129  -16.6295 C   0  0  0  0  0  0  0  0  0  0  0  0
   23.4788  -19.9140  -16.9678 O   0  0  0  0  0  0  0  0  0  0  0  0
   22.8617  -18.4831  -15.3201 N   0  0  0  0  0  0  0  0  0  0  0  0
   22.6213  -19.5445  -14.3622 C   0  0  0  0  0  0  0  0  0  0  0  0
   23.9109  -20.1769  -13.9394 C   0  0  0  0  0  0  0  0  0  0  0  0
   24.7800  -20.4565  -14.7907 O   0  0  0  0  0  0  0  0  0  0  0  0
   26.7012  -19.2374  -13.0015 C   0  0  0  0  0  0  0  0  0  0  0  0
   26.4951  -20.1511  -11.8171 C   0  0  1  0  0  0  0  0  0  0  0  0
   26.0584  -19.2478  -10.6559 C   0  0  0  0  0  0  0  0  0  0  0  0
   25.3803  -21.1413  -12.1352 C   0  0  2  0  0  0  0  0  0  0  0  0
   24.1868  -20.4762  -12.5783 N   0  0  0  0  0  0  0  0  0  0  0  0
   25.1681  -22.0654  -11.0197 C   0  0  0  0  0  0  0  0  0  0  0  0
   24.1293  -21.9578  -10.3284 O   0  0  0  0  0  0  0  0  0  0  0  0
   26.0556  -23.0650  -10.6755 O   0  0  0  0  0  0  0  0  0  0  0  0
  2  1  1  6
  3  4  1  0
  3  2  1  0
  4  8  1  0
  5  6  1  0
  5  4  2  0
  6  7  1  0
  7  8  2  0
  9  2  1  0
  9 11  1  0
 10  9  2  0
 12 11  1  0
 12 13  1  0
 13 19  1  0
 14 13  2  0
 16 15  1  6
 16 17  1  0
 18 16  1  0
 18 19  1  1
 20 22  1  0
 20 18  1  0
 21 20  2  0
M  END
$$$$
