HGV.pdb
     RDKit          3D

 22 22  0  0  1  0  0  0  0  0999 V2000
   19.6161  -11.7618  -16.8985 N   0  0  0  0  0  0  0  0  0  0  0  0
   19.0445  -10.4753  -16.5497 C   0  0  1  0  0  0  0  0  0  0  0  0
   17.7046  -10.7214  -15.9327 C   0  0  0  0  0  0  0  0  0  0  0  0
   16.8256  -11.3694  -16.9363 C   0  0  0  0  0  0  0  0  0  0  0  0
   16.1094  -12.5616  -16.8562 C   0  0  0  0  0  0  0  0  0  0  0  0
   15.4494  -12.7632  -18.0056 N   0  0  0  0  0  0  0  0  0  0  0  0
   15.7182  -11.7380  -18.8240 C   0  0  0  0  0  0  0  0  0  0  0  0
   16.5450  -10.8965  -18.1872 N   0  0  0  0  0  0  0  0  0  0  0  0
   19.9876   -9.8057  -15.6200 C   0  0  0  0  0  0  0  0  0  0  0  0
   20.5006  -10.4495  -14.6711 O   0  0  0  0  0  0  0  0  0  0  0  0
   20.3607   -8.4498  -15.7316 N   0  0  0  0  0  0  0  0  0  0  0  0
   21.2626   -7.7928  -14.8058 C   0  0  0  0  0  0  0  0  0  0  0  0
   21.5357   -6.3868  -15.2419 C   0  0  0  0  0  0  0  0  0  0  0  0
   21.4368   -6.0743  -16.4464 O   0  0  0  0  0  0  0  0  0  0  0  0
   20.0748   -4.4659  -16.2487 C   0  0  0  0  0  0  0  0  0  0  0  0
   20.4879   -3.5482  -15.1229 C   0  0  1  0  0  0  0  0  0  0  0  0
   19.4462   -3.7432  -14.0131 C   0  0  0  0  0  0  0  0  0  0  0  0
   21.8599   -3.9704  -14.6093 C   0  0  2  0  0  0  0  0  0  0  0  0
   21.9105   -5.3757  -14.3169 N   0  0  0  0  0  0  0  0  0  0  0  0
   22.2888   -3.1155  -13.5009 C   0  0  0  0  0  0  0  0  0  0  0  0
   22.5666   -1.9157  -13.7289 O   0  0  0  0  0  0  0  0  0  0  0  0
   22.4084   -3.5554  -12.1980 O   0  0  0  0  0  0  0  0  0  0  0  0
  2  1  1  1
  3  4  1  0
  3  2  1  0
  4  8  1  0
  5  6  1  0
  5  4  2  0
  6  7  1  0
  7  8  2  0
  9  2  1  0
  9 11  1  0
 10  9  2  0
 12 11  1  0
 12 13  1  0
 13 19  1  0
 14 13  2  0
 16 15  1  6
 16 17  1  0
 18 16  1  0
 18 19  1  1
 20 22  1  0
 20 18  1  0
 21 20  2  0
M  END
$$$$
