HGV.pdb
     RDKit          3D

 22 22  0  0  1  0  0  0  0  0999 V2000
   17.3911  -10.5378  -15.8423 N   0  0  0  0  0  0  0  0  0  0  0  0
   16.9470  -10.8454  -14.4964 C   0  0  1  0  0  0  0  0  0  0  0  0
   17.5089  -12.1799  -14.1223 C   0  0  0  0  0  0  0  0  0  0  0  0
   16.7719  -13.2349  -14.8595 C   0  0  0  0  0  0  0  0  0  0  0  0
   17.1878  -14.0376  -15.9193 C   0  0  0  0  0  0  0  0  0  0  0  0
   16.1879  -14.8555  -16.2783 N   0  0  0  0  0  0  0  0  0  0  0  0
   15.1405  -14.6046  -15.4826 C   0  0  0  0  0  0  0  0  0  0  0  0
   15.4849  -13.6313  -14.6275 N   0  0  0  0  0  0  0  0  0  0  0  0
   17.4240   -9.7554  -13.6094 C   0  0  0  0  0  0  0  0  0  0  0  0
   18.6393   -9.4375  -13.5996 O   0  0  0  0  0  0  0  0  0  0  0  0
   16.5784   -9.0265  -12.7470 N   0  0  0  0  0  0  0  0  0  0  0  0
   17.0571   -7.9992  -11.8428 C   0  0  0  0  0  0  0  0  0  0  0  0
   15.9146   -7.3626  -11.1139 C   0  0  0  0  0  0  0  0  0  0  0  0
   14.7411   -7.5705  -11.4853 O   0  0  0  0  0  0  0  0  0  0  0  0
   13.6402   -5.6693   -7.3012 C   0  0  0  0  0  0  0  0  0  0  0  0
   14.8596   -6.3296   -7.8988 C   0  0  1  0  0  0  0  0  0  0  0  0
   14.5497   -7.8319   -7.9421 C   0  0  0  0  0  0  0  0  0  0  0  0
   15.0644   -5.8137   -9.3187 C   0  0  2  0  0  0  0  0  0  0  0  0
   16.1215   -6.5143   -9.9932 N   0  0  0  0  0  0  0  0  0  0  0  0
   15.2134   -4.3574   -9.3293 C   0  0  0  0  0  0  0  0  0  0  0  0
   16.3215   -3.8560   -9.0301 O   0  0  0  0  0  0  0  0  0  0  0  0
   14.1926   -3.4867   -9.6536 O   0  0  0  0  0  0  0  0  0  0  0  0
  2  1  1  6
  3  4  1  0
  3  2  1  0
  4  8  1  0
  5  6  1  0
  5  4  2  0
  6  7  1  0
  7  8  2  0
  9  2  1  0
  9 11  1  0
 10  9  2  0
 12 11  1  0
 12 13  1  0
 13 19  1  0
 14 13  2  0
 16 15  1  6
 16 17  1  0
 18 16  1  0
 18 19  1  1
 20 22  1  0
 20 18  1  0
 21 20  2  0
M  END
$$$$
