HGV.pdb
     RDKit          3D

 22 22  0  0  1  0  0  0  0  0999 V2000
   23.1160  -21.5594  -11.1538 N   0  0  0  0  0  0  0  0  0  0  0  0
   24.0261  -20.4942  -11.5287 C   0  0  1  0  0  0  0  0  0  0  0  0
   23.2601  -19.5040  -12.3468 C   0  0  0  0  0  0  0  0  0  0  0  0
   22.8680  -20.1405  -13.6278 C   0  0  0  0  0  0  0  0  0  0  0  0
   23.6542  -20.7862  -14.5794 C   0  0  0  0  0  0  0  0  0  0  0  0
   22.8776  -21.2076  -15.5877 N   0  0  0  0  0  0  0  0  0  0  0  0
   21.6153  -20.8534  -15.3154 C   0  0  0  0  0  0  0  0  0  0  0  0
   21.6026  -20.2115  -14.1385 N   0  0  0  0  0  0  0  0  0  0  0  0
   24.5645  -19.9066  -10.2769 C   0  0  0  0  0  0  0  0  0  0  0  0
   23.8138  -19.7460   -9.2825 O   0  0  0  0  0  0  0  0  0  0  0  0
   25.9069  -19.5020  -10.1207 N   0  0  0  0  0  0  0  0  0  0  0  0
   26.4004  -18.8162   -8.9425 C   0  0  0  0  0  0  0  0  0  0  0  0
   26.8795  -19.7999   -7.9204 C   0  0  0  0  0  0  0  0  0  0  0  0
   26.6992  -21.0227   -8.0952 O   0  0  0  0  0  0  0  0  0  0  0  0
   30.3490  -19.9066   -6.6887 C   0  0  0  0  0  0  0  0  0  0  0  0
   29.5327  -19.9572   -5.4193 C   0  0  1  0  0  0  0  0  0  0  0  0
   29.5971  -18.5469   -4.8176 C   0  0  0  0  0  0  0  0  0  0  0  0
   28.0867  -20.2942   -5.7657 C   0  0  2  0  0  0  0  0  0  0  0  0
   27.5448  -19.3843   -6.7359 N   0  0  0  0  0  0  0  0  0  0  0  0
   27.2760  -20.4253   -4.5538 C   0  0  0  0  0  0  0  0  0  0  0  0
   26.3626  -19.5956   -4.3390 O   0  0  0  0  0  0  0  0  0  0  0  0
   27.4573  -21.4223   -3.6166 O   0  0  0  0  0  0  0  0  0  0  0  0
  2  1  1  1
  3  4  1  0
  3  2  1  0
  4  8  1  0
  5  6  1  0
  5  4  2  0
  6  7  1  0
  7  8  2  0
  9  2  1  0
  9 11  1  0
 10  9  2  0
 12 11  1  0
 12 13  1  0
 13 19  1  0
 14 13  2  0
 16 15  1  6
 16 17  1  0
 18 16  1  0
 18 19  1  6
 20 22  1  0
 20 18  1  0
 21 20  2  0
M  END
$$$$
