HGV.pdb
     RDKit          3D

 22 22  0  0  1  0  0  0  0  0999 V2000
   37.1301   -9.9863  -16.3497 N   0  0  0  0  0  0  0  0  0  0  0  0
   36.6172   -8.7824  -16.9750 C   0  0  1  0  0  0  0  0  0  0  0  0
   37.0631   -8.7820  -18.4025 C   0  0  0  0  0  0  0  0  0  0  0  0
   38.5409   -8.6628  -18.4438 C   0  0  0  0  0  0  0  0  0  0  0  0
   39.3399   -7.5313  -18.5918 C   0  0  0  0  0  0  0  0  0  0  0  0
   40.6310   -7.8922  -18.5773 N   0  0  0  0  0  0  0  0  0  0  0  0
   40.6888   -9.2213  -18.4246 C   0  0  0  0  0  0  0  0  0  0  0  0
   39.4356   -9.6907  -18.3438 N   0  0  0  0  0  0  0  0  0  0  0  0
   35.1398   -8.8033  -16.8377 C   0  0  0  0  0  0  0  0  0  0  0  0
   34.5229   -9.8977  -16.8334 O   0  0  0  0  0  0  0  0  0  0  0  0
   34.3529   -7.6397  -16.7073 N   0  0  0  0  0  0  0  0  0  0  0  0
   32.9342   -7.6665  -16.4098 C   0  0  0  0  0  0  0  0  0  0  0  0
   32.1401   -7.9509  -17.6468 C   0  0  0  0  0  0  0  0  0  0  0  0
   32.6961   -7.9388  -18.7645 O   0  0  0  0  0  0  0  0  0  0  0  0
   30.6992  -10.8743  -18.8030 C   0  0  0  0  0  0  0  0  0  0  0  0
   29.4897   -9.9703  -18.7895 C   0  0  1  0  0  0  0  0  0  0  0  0
   28.7311  -10.2966  -17.4960 C   0  0  0  0  0  0  0  0  0  0  0  0
   29.9496   -8.5172  -18.7538 C   0  0  2  0  0  0  0  0  0  0  0  0
   30.7501   -8.2396  -17.5940 N   0  0  0  0  0  0  0  0  0  0  0  0
   28.8170   -7.6061  -18.9280 C   0  0  0  0  0  0  0  0  0  0  0  0
   28.3717   -6.9903  -17.9324 O   0  0  0  0  0  0  0  0  0  0  0  0
   28.1981   -7.3788  -20.1406 O   0  0  0  0  0  0  0  0  0  0  0  0
  2  1  1  1
  3  4  1  0
  3  2  1  0
  4  8  1  0
  5  6  1  0
  5  4  2  0
  6  7  1  0
  7  8  2  0
  9  2  1  0
  9 11  1  0
 10  9  2  0
 12 11  1  0
 12 13  1  0
 13 19  1  0
 14 13  2  0
 16 15  1  1
 16 17  1  0
 18 16  1  0
 18 19  1  1
 20 22  1  0
 20 18  1  0
 21 20  2  0
M  END
$$$$
