HGV.pdb
     RDKit          3D

 22 22  0  0  1  0  0  0  0  0999 V2000
   24.2722  -16.1854  -17.6939 N   0  0  0  0  0  0  0  0  0  0  0  0
   25.1155  -15.4076  -16.8065 C   0  0  1  0  0  0  0  0  0  0  0  0
   24.4453  -14.0908  -16.5750 C   0  0  0  0  0  0  0  0  0  0  0  0
   24.6350  -13.2382  -17.7737 C   0  0  0  0  0  0  0  0  0  0  0  0
   25.3220  -13.5035  -18.9562 C   0  0  0  0  0  0  0  0  0  0  0  0
   25.2367  -12.4409  -19.7692 N   0  0  0  0  0  0  0  0  0  0  0  0
   24.5162  -11.4990  -19.1473 C   0  0  0  0  0  0  0  0  0  0  0  0
   24.1514  -11.9721  -17.9471 N   0  0  0  0  0  0  0  0  0  0  0  0
   25.2877  -16.1888  -15.5566 C   0  0  0  0  0  0  0  0  0  0  0  0
   24.2814  -16.5753  -14.9116 O   0  0  0  0  0  0  0  0  0  0  0  0
   26.5462  -16.5396  -15.0243 N   0  0  0  0  0  0  0  0  0  0  0  0
   26.7109  -17.2576  -13.7756 C   0  0  0  0  0  0  0  0  0  0  0  0
   26.0995  -18.6214  -13.8655 C   0  0  0  0  0  0  0  0  0  0  0  0
   25.9923  -19.1879  -14.9726 O   0  0  0  0  0  0  0  0  0  0  0  0
   27.5260  -21.2650  -11.9094 C   0  0  0  0  0  0  0  0  0  0  0  0
   26.0505  -21.4907  -11.6811 C   0  0  1  0  0  0  0  0  0  0  0  0
   25.7513  -20.9492  -10.2768 C   0  0  0  0  0  0  0  0  0  0  0  0
   25.2560  -20.6947  -12.7105 C   0  0  2  0  0  0  0  0  0  0  0  0
   25.6277  -19.3074  -12.7143 N   0  0  0  0  0  0  0  0  0  0  0  0
   23.8189  -20.9261  -12.5541 C   0  0  0  0  0  0  0  0  0  0  0  0
   23.1222  -20.0620  -11.9739 O   0  0  0  0  0  0  0  0  0  0  0  0
   23.1718  -22.0555  -13.0134 O   0  0  0  0  0  0  0  0  0  0  0  0
  2  1  1  6
  3  4  1  0
  3  2  1  0
  4  8  1  0
  5  6  1  0
  5  4  2  0
  6  7  1  0
  7  8  2  0
  9  2  1  0
  9 11  1  0
 10  9  2  0
 12 11  1  0
 12 13  1  0
 13 19  1  0
 14 13  2  0
 16 15  1  6
 16 17  1  0
 18 16  1  0
 18 19  1  1
 20 22  1  0
 20 18  1  0
 21 20  2  0
M  END
$$$$
