HGV.pdb
     RDKit          3D

 22 22  0  0  1  0  0  0  0  0999 V2000
   25.3888  -20.8895  -13.0682 N   0  0  0  0  0  0  0  0  0  0  0  0
   25.3931  -20.6393  -11.6396 C   0  0  1  0  0  0  0  0  0  0  0  0
   24.4078  -21.5706  -11.0084 C   0  0  0  0  0  0  0  0  0  0  0  0
   23.0383  -21.1608  -11.4039 C   0  0  0  0  0  0  0  0  0  0  0  0
   22.4855  -19.8866  -11.5114 C   0  0  0  0  0  0  0  0  0  0  0  0
   21.2061  -19.9870  -11.8993 N   0  0  0  0  0  0  0  0  0  0  0  0
   20.9172  -21.2863  -12.0450 C   0  0  0  0  0  0  0  0  0  0  0  0
   22.0144  -21.9974  -11.7487 N   0  0  0  0  0  0  0  0  0  0  0  0
   26.7780  -20.8568  -11.1530 C   0  0  0  0  0  0  0  0  0  0  0  0
   27.7556  -20.5962  -11.8976 O   0  0  0  0  0  0  0  0  0  0  0  0
   27.0834  -21.3529   -9.8682 N   0  0  0  0  0  0  0  0  0  0  0  0
   28.2020  -20.8797   -9.0766 C   0  0  0  0  0  0  0  0  0  0  0  0
   27.7668  -20.5726   -7.6773 C   0  0  0  0  0  0  0  0  0  0  0  0
   26.5551  -20.5994   -7.3781 O   0  0  0  0  0  0  0  0  0  0  0  0
   30.5966  -20.8178   -4.7597 C   0  0  0  0  0  0  0  0  0  0  0  0
   29.5544  -19.7840   -4.4058 C   0  0  1  0  0  0  0  0  0  0  0  0
   30.1909  -18.4204   -4.7065 C   0  0  0  0  0  0  0  0  0  0  0  0
   28.3317  -19.9791   -5.2955 C   0  0  2  0  0  0  0  0  0  0  0  0
   28.7007  -20.2456   -6.6578 N   0  0  0  0  0  0  0  0  0  0  0  0
   27.3896  -18.8694   -5.1396 C   0  0  0  0  0  0  0  0  0  0  0  0
   27.2911  -18.0205   -6.0552 O   0  0  0  0  0  0  0  0  0  0  0  0
   26.5892  -18.6963   -4.0285 O   0  0  0  0  0  0  0  0  0  0  0  0
  2  1  1  6
  3  4  1  0
  3  2  1  0
  4  8  1  0
  5  6  1  0
  5  4  2  0
  6  7  1  0
  7  8  2  0
  9  2  1  0
  9 11  1  0
 10  9  2  0
 12 11  1  0
 12 13  1  0
 13 19  1  0
 14 13  2  0
 16 15  1  6
 16 17  1  0
 18 16  1  0
 18 19  1  6
 20 22  1  0
 20 18  1  0
 21 20  2  0
M  END
$$$$
