HGV.pdb
     RDKit          3D

 22 22  0  0  1  0  0  0  0  0999 V2000
   25.2058  -18.7904  -17.6407 N   0  0  0  0  0  0  0  0  0  0  0  0
   24.3798  -18.4956  -16.4855 C   0  0  1  0  0  0  0  0  0  0  0  0
   23.1009  -19.2572  -16.6304 C   0  0  0  0  0  0  0  0  0  0  0  0
   22.2929  -18.6380  -17.7090 C   0  0  0  0  0  0  0  0  0  0  0  0
   21.2912  -17.6731  -17.6299 C   0  0  0  0  0  0  0  0  0  0  0  0
   20.8283  -17.4093  -18.8602 N   0  0  0  0  0  0  0  0  0  0  0  0
   21.5005  -18.1744  -19.7296 C   0  0  0  0  0  0  0  0  0  0  0  0
   22.3825  -18.9155  -19.0439 N   0  0  0  0  0  0  0  0  0  0  0  0
   25.1460  -18.8895  -15.2773 C   0  0  0  0  0  0  0  0  0  0  0  0
   24.6069  -18.8346  -14.1439 O   0  0  0  0  0  0  0  0  0  0  0  0
   26.4834  -19.3367  -15.3143 N   0  0  0  0  0  0  0  0  0  0  0  0
   27.2315  -19.7106  -14.1300 C   0  0  0  0  0  0  0  0  0  0  0  0
   26.4402  -20.6575  -13.2821 C   0  0  0  0  0  0  0  0  0  0  0  0
   26.4204  -21.8755  -13.5549 O   0  0  0  0  0  0  0  0  0  0  0  0
   26.9340  -21.5221   -9.9554 C   0  0  0  0  0  0  0  0  0  0  0  0
   25.4719  -21.1485   -9.9015 C   0  0  1  0  0  0  0  0  0  0  0  0
   25.4142  -19.7527   -9.2665 C   0  0  0  0  0  0  0  0  0  0  0  0
   24.9183  -21.0824  -11.3205 C   0  0  2  0  0  0  0  0  0  0  0  0
   25.6967  -20.2117  -12.1565 N   0  0  0  0  0  0  0  0  0  0  0  0
   23.4871  -20.7748  -11.3093 C   0  0  0  0  0  0  0  0  0  0  0  0
   23.1030  -19.6477  -11.6977 O   0  0  0  0  0  0  0  0  0  0  0  0
   22.5173  -21.6633  -10.8906 O   0  0  0  0  0  0  0  0  0  0  0  0
  2  1  1  6
  3  4  1  0
  3  2  1  0
  4  8  1  0
  5  6  1  0
  5  4  2  0
  6  7  1  0
  7  8  2  0
  9  2  1  0
  9 11  1  0
 10  9  2  0
 12 11  1  0
 12 13  1  0
 13 19  1  0
 14 13  2  0
 16 15  1  6
 16 17  1  0
 18 16  1  0
 18 19  1  6
 20 22  1  0
 20 18  1  0
 21 20  2  0
M  END
$$$$
