HGV.pdb
     RDKit          3D

 22 22  0  0  1  0  0  0  0  0999 V2000
   22.4756  -21.1177  -12.6458 N   0  0  0  0  0  0  0  0  0  0  0  0
   23.7288  -20.3955  -12.7521 C   0  0  1  0  0  0  0  0  0  0  0  0
   23.5585  -19.3328  -13.7906 C   0  0  0  0  0  0  0  0  0  0  0  0
   23.2586  -19.9773  -15.0923 C   0  0  0  0  0  0  0  0  0  0  0  0
   24.0936  -20.6982  -15.9431 C   0  0  0  0  0  0  0  0  0  0  0  0
   23.3984  -21.0957  -17.0184 N   0  0  0  0  0  0  0  0  0  0  0  0
   22.1414  -20.6532  -16.8869 C   0  0  0  0  0  0  0  0  0  0  0  0
   22.0507  -19.9800  -15.7311 N   0  0  0  0  0  0  0  0  0  0  0  0
   24.0385  -19.8400  -11.4113 C   0  0  0  0  0  0  0  0  0  0  0  0
   23.1094  -19.4499  -10.6611 O   0  0  0  0  0  0  0  0  0  0  0  0
   25.3486  -19.7153  -10.9033 N   0  0  0  0  0  0  0  0  0  0  0  0
   25.6617  -19.0232   -9.6684 C   0  0  0  0  0  0  0  0  0  0  0  0
   26.3098  -19.9538   -8.6908 C   0  0  0  0  0  0  0  0  0  0  0  0
   26.3348  -21.1813   -8.9166 O   0  0  0  0  0  0  0  0  0  0  0  0
   28.8961  -20.5159   -4.4741 C   0  0  0  0  0  0  0  0  0  0  0  0
   28.2215  -19.5534   -5.4221 C   0  0  1  0  0  0  0  0  0  0  0  0
   29.3486  -18.7447   -6.0782 C   0  0  0  0  0  0  0  0  0  0  0  0
   27.4757  -20.3428   -6.4922 C   0  0  2  0  0  0  0  0  0  0  0  0
   26.9090  -19.4816   -7.4922 N   0  0  0  0  0  0  0  0  0  0  0  0
   26.5141  -21.2653   -5.8860 C   0  0  0  0  0  0  0  0  0  0  0  0
   25.3492  -20.8668   -5.6561 O   0  0  0  0  0  0  0  0  0  0  0  0
   26.8148  -22.5688   -5.5460 O   0  0  0  0  0  0  0  0  0  0  0  0
  2  1  1  1
  3  4  1  0
  3  2  1  0
  4  8  1  0
  5  6  1  0
  5  4  2  0
  6  7  1  0
  7  8  2  0
  9  2  1  0
  9 11  1  0
 10  9  2  0
 12 11  1  0
 12 13  1  0
 13 19  1  0
 14 13  2  0
 16 15  1  1
 16 17  1  0
 18 16  1  0
 18 19  1  6
 20 22  1  0
 20 18  1  0
 21 20  2  0
M  END
$$$$
