HGV.pdb
     RDKit          3D

 22 22  0  0  1  0  0  0  0  0999 V2000
   22.3312  -19.2719  -14.0234 N   0  0  0  0  0  0  0  0  0  0  0  0
   23.1694  -20.2982  -14.6129 C   0  0  1  0  0  0  0  0  0  0  0  0
   23.0550  -20.1851  -16.0997 C   0  0  0  0  0  0  0  0  0  0  0  0
   21.6392  -20.3936  -16.4895 C   0  0  0  0  0  0  0  0  0  0  0  0
   20.7627  -19.5386  -17.1538 C   0  0  0  0  0  0  0  0  0  0  0  0
   19.5728  -20.1406  -17.2934 N   0  0  0  0  0  0  0  0  0  0  0  0
   19.6555  -21.3569  -16.7395 C   0  0  0  0  0  0  0  0  0  0  0  0
   20.8952  -21.5154  -16.2544 N   0  0  0  0  0  0  0  0  0  0  0  0
   24.5541  -20.0761  -14.1277 C   0  0  0  0  0  0  0  0  0  0  0  0
   25.3414  -19.3475  -14.7814 O   0  0  0  0  0  0  0  0  0  0  0  0
   25.0652  -20.6459  -12.9427 N   0  0  0  0  0  0  0  0  0  0  0  0
   26.4292  -20.4538  -12.4902 C   0  0  0  0  0  0  0  0  0  0  0  0
   26.6438  -21.1141  -11.1636 C   0  0  0  0  0  0  0  0  0  0  0  0
   26.3786  -22.3250  -11.0166 O   0  0  0  0  0  0  0  0  0  0  0  0
   27.1017  -18.4997   -7.6706 C   0  0  0  0  0  0  0  0  0  0  0  0
   27.6621  -19.9016   -7.6989 C   0  0  1  0  0  0  0  0  0  0  0  0
   27.4806  -20.4592   -6.2808 C   0  0  0  0  0  0  0  0  0  0  0  0
   26.8563  -20.7443   -8.6812 C   0  0  2  0  0  0  0  0  0  0  0  0
   27.1480  -20.3988  -10.0445 N   0  0  0  0  0  0  0  0  0  0  0  0
   25.4305  -20.7120   -8.3504 C   0  0  0  0  0  0  0  0  0  0  0  0
   25.0182  -21.3681   -7.3665 O   0  0  0  0  0  0  0  0  0  0  0  0
   24.4957  -19.9918   -9.0665 O   0  0  0  0  0  0  0  0  0  0  0  0
  2  1  1  1
  3  4  1  0
  3  2  1  0
  4  8  1  0
  5  6  1  0
  5  4  2  0
  6  7  1  0
  7  8  2  0
  9  2  1  0
  9 11  1  0
 10  9  2  0
 12 11  1  0
 12 13  1  0
 13 19  1  0
 14 13  2  0
 16 15  1  1
 16 17  1  0
 18 16  1  0
 18 19  1  6
 20 22  1  0
 20 18  1  0
 21 20  2  0
M  END
$$$$
