HGV.pdb
     RDKit          3D

 22 22  0  0  1  0  0  0  0  0999 V2000
   23.0401  -18.9473  -16.7426 N   0  0  0  0  0  0  0  0  0  0  0  0
   22.0639  -18.4961  -15.7695 C   0  0  1  0  0  0  0  0  0  0  0  0
   20.7397  -18.4033  -16.4583 C   0  0  0  0  0  0  0  0  0  0  0  0
   20.8238  -17.3753  -17.5241 C   0  0  0  0  0  0  0  0  0  0  0  0
   21.7554  -16.3560  -17.7075 C   0  0  0  0  0  0  0  0  0  0  0  0
   21.4409  -15.6572  -18.8075 N   0  0  0  0  0  0  0  0  0  0  0  0
   20.3353  -16.1945  -19.3387 C   0  0  0  0  0  0  0  0  0  0  0  0
   19.9592  -17.2279  -18.5719 N   0  0  0  0  0  0  0  0  0  0  0  0
   22.0607  -19.4749  -14.6542 C   0  0  0  0  0  0  0  0  0  0  0  0
   21.7738  -20.6782  -14.8728 O   0  0  0  0  0  0  0  0  0  0  0  0
   22.3681  -19.1363  -13.3196 N   0  0  0  0  0  0  0  0  0  0  0  0
   22.4374  -20.1089  -12.2466 C   0  0  0  0  0  0  0  0  0  0  0  0
   23.8557  -20.3204  -11.8159 C   0  0  0  0  0  0  0  0  0  0  0  0
   24.7495  -20.4978  -12.6691 O   0  0  0  0  0  0  0  0  0  0  0  0
   27.3461  -20.0795   -8.3646 C   0  0  0  0  0  0  0  0  0  0  0  0
   25.8876  -19.8736   -8.6971 C   0  0  1  0  0  0  0  0  0  0  0  0
   25.7142  -18.3665   -8.9280 C   0  0  0  0  0  0  0  0  0  0  0  0
   25.5551  -20.6242   -9.9818 C   0  0  2  0  0  0  0  0  0  0  0  0
   24.2285  -20.3267  -10.4450 N   0  0  0  0  0  0  0  0  0  0  0  0
   25.8285  -22.0551   -9.8367 C   0  0  0  0  0  0  0  0  0  0  0  0
   24.9230  -22.8084   -9.4107 O   0  0  0  0  0  0  0  0  0  0  0  0
   27.0417  -22.6368  -10.1449 O   0  0  0  0  0  0  0  0  0  0  0  0
  2  1  1  6
  3  4  1  0
  3  2  1  0
  4  8  1  0
  5  6  1  0
  5  4  2  0
  6  7  1  0
  7  8  2  0
  9  2  1  0
  9 11  1  0
 10  9  2  0
 12 11  1  0
 12 13  1  0
 13 19  1  0
 14 13  2  0
 16 15  1  6
 16 17  1  0
 18 16  1  0
 18 19  1  1
 20 22  1  0
 20 18  1  0
 21 20  2  0
M  END
$$$$
