HGV.pdb
     RDKit          3D

 22 22  0  0  1  0  0  0  0  0999 V2000
   25.3586  -19.2126  -17.8434 N   0  0  0  0  0  0  0  0  0  0  0  0
   24.5008  -20.0657  -17.0436 C   0  0  1  0  0  0  0  0  0  0  0  0
   24.0221  -21.1817  -17.9166 C   0  0  0  0  0  0  0  0  0  0  0  0
   23.0451  -20.6421  -18.8933 C   0  0  0  0  0  0  0  0  0  0  0  0
   22.8637  -20.9560  -20.2384 C   0  0  0  0  0  0  0  0  0  0  0  0
   21.8617  -20.2179  -20.7372 N   0  0  0  0  0  0  0  0  0  0  0  0
   21.3919  -19.4381  -19.7552 C   0  0  0  0  0  0  0  0  0  0  0  0
   22.0991  -19.6882  -18.6441 N   0  0  0  0  0  0  0  0  0  0  0  0
   25.3004  -20.5457  -15.8893 C   0  0  0  0  0  0  0  0  0  0  0  0
   24.8106  -21.3784  -15.0864 O   0  0  0  0  0  0  0  0  0  0  0  0
   26.6175  -20.1170  -15.6220 N   0  0  0  0  0  0  0  0  0  0  0  0
   27.4003  -20.5994  -14.5010 C   0  0  0  0  0  0  0  0  0  0  0  0
   26.9140  -19.9979  -13.2190 C   0  0  0  0  0  0  0  0  0  0  0  0
   27.0630  -18.7774  -13.0038 O   0  0  0  0  0  0  0  0  0  0  0  0
   23.6455  -19.7861  -12.0630 C   0  0  0  0  0  0  0  0  0  0  0  0
   24.2999  -20.3624  -10.8302 C   0  0  1  0  0  0  0  0  0  0  0  0
   23.8997  -21.8433  -10.7909 C   0  0  0  0  0  0  0  0  0  0  0  0
   25.8142  -20.2506  -10.9672 C   0  0  2  0  0  0  0  0  0  0  0  0
   26.2768  -20.7808  -12.2193 N   0  0  0  0  0  0  0  0  0  0  0  0
   26.4878  -20.8146   -9.7961 C   0  0  0  0  0  0  0  0  0  0  0  0
   27.1428  -21.8747   -9.9217 O   0  0  0  0  0  0  0  0  0  0  0  0
   26.4463  -20.2422   -8.5407 O   0  0  0  0  0  0  0  0  0  0  0  0
  2  1  1  6
  3  4  1  0
  3  2  1  0
  4  8  1  0
  5  6  1  0
  5  4  2  0
  6  7  1  0
  7  8  2  0
  9  2  1  0
  9 11  1  0
 10  9  2  0
 12 11  1  0
 12 13  1  0
 13 19  1  0
 14 13  2  0
 16 15  1  6
 16 17  1  0
 18 16  1  0
 18 19  1  6
 20 22  1  0
 20 18  1  0
 21 20  2  0
M  END
$$$$
