HGV.pdb
     RDKit          3D

 22 22  0  0  1  0  0  0  0  0999 V2000
   24.4625  -21.9414  -12.1536 N   0  0  0  0  0  0  0  0  0  0  0  0
   25.3471  -20.7942  -12.0836 C   0  0  1  0  0  0  0  0  0  0  0  0
   24.8643  -19.7824  -13.0735 C   0  0  0  0  0  0  0  0  0  0  0  0
   24.9947  -20.3464  -14.4390 C   0  0  0  0  0  0  0  0  0  0  0  0
   25.9909  -21.1584  -14.9764 C   0  0  0  0  0  0  0  0  0  0  0  0
   25.7038  -21.4271  -16.2581 N   0  0  0  0  0  0  0  0  0  0  0  0
   24.5535  -20.8133  -16.5634 C   0  0  0  0  0  0  0  0  0  0  0  0
   24.1219  -20.1618  -15.4741 N   0  0  0  0  0  0  0  0  0  0  0  0
   25.3139  -20.2899  -10.6884 C   0  0  0  0  0  0  0  0  0  0  0  0
   24.2227  -20.2190  -10.0700 O   0  0  0  0  0  0  0  0  0  0  0  0
   26.4619  -19.8702   -9.9842 N   0  0  0  0  0  0  0  0  0  0  0  0
   26.4162  -19.3091   -8.6481 C   0  0  0  0  0  0  0  0  0  0  0  0
   27.3316  -20.0570   -7.7292 C   0  0  0  0  0  0  0  0  0  0  0  0
   27.9603  -21.0520   -8.1450 O   0  0  0  0  0  0  0  0  0  0  0  0
   30.1715  -18.6905   -6.0624 C   0  0  0  0  0  0  0  0  0  0  0  0
   29.4625  -19.3707   -4.9158 C   0  0  1  0  0  0  0  0  0  0  0  0
   28.7655  -18.2544   -4.1264 C   0  0  0  0  0  0  0  0  0  0  0  0
   28.4142  -20.3283   -5.4712 C   0  0  2  0  0  0  0  0  0  0  0  0
   27.5144  -19.6679   -6.3751 N   0  0  0  0  0  0  0  0  0  0  0  0
   27.7459  -21.0555   -4.3905 C   0  0  0  0  0  0  0  0  0  0  0  0
   26.5276  -20.8531   -4.1823 O   0  0  0  0  0  0  0  0  0  0  0  0
   28.3842  -21.9657   -3.5724 O   0  0  0  0  0  0  0  0  0  0  0  0
  2  1  1  1
  3  4  1  0
  3  2  1  0
  4  8  1  0
  5  6  1  0
  5  4  2  0
  6  7  1  0
  7  8  2  0
  9  2  1  0
  9 11  1  0
 10  9  2  0
 12 11  1  0
 12 13  1  0
 13 19  1  0
 14 13  2  0
 16 15  1  6
 16 17  1  0
 18 16  1  0
 18 19  1  1
 20 22  1  0
 20 18  1  0
 21 20  2  0
M  END
$$$$
