HGV.pdb
     RDKit          3D

 22 22  0  0  1  0  0  0  0  0999 V2000
   29.2495  -19.6529  -18.7178 N   0  0  0  0  0  0  0  0  0  0  0  0
   27.9841  -19.0559  -18.3357 C   0  0  1  0  0  0  0  0  0  0  0  0
   26.8981  -19.7740  -19.0717 C   0  0  0  0  0  0  0  0  0  0  0  0
   25.7444  -18.8571  -19.2394 C   0  0  0  0  0  0  0  0  0  0  0  0
   24.6762  -18.6029  -18.3821 C   0  0  0  0  0  0  0  0  0  0  0  0
   23.8596  -17.6997  -18.9431 N   0  0  0  0  0  0  0  0  0  0  0  0
   24.3684  -17.3639  -20.1354 C   0  0  0  0  0  0  0  0  0  0  0  0
   25.5016  -18.0562  -20.3196 N   0  0  0  0  0  0  0  0  0  0  0  0
   27.8575  -19.1837  -16.8627 C   0  0  0  0  0  0  0  0  0  0  0  0
   28.4854  -20.0844  -16.2522 O   0  0  0  0  0  0  0  0  0  0  0  0
   27.0535  -18.3349  -16.0734 N   0  0  0  0  0  0  0  0  0  0  0  0
   27.0623  -18.3506  -14.6236 C   0  0  0  0  0  0  0  0  0  0  0  0
   26.1055  -19.3766  -14.1005 C   0  0  0  0  0  0  0  0  0  0  0  0
   25.3775  -20.0139  -14.8893 O   0  0  0  0  0  0  0  0  0  0  0  0
   27.0573  -21.3200  -10.7184 C   0  0  0  0  0  0  0  0  0  0  0  0
   25.5683  -21.0713  -10.7549 C   0  0  1  0  0  0  0  0  0  0  0  0
   25.3138  -19.8840   -9.8166 C   0  0  0  0  0  0  0  0  0  0  0  0
   25.1575  -20.6927  -12.1734 C   0  0  2  0  0  0  0  0  0  0  0  0
   25.9937  -19.6566  -12.7121 N   0  0  0  0  0  0  0  0  0  0  0  0
   23.7251  -20.3978  -12.2415 C   0  0  0  0  0  0  0  0  0  0  0  0
   23.3471  -19.2040  -12.2216 O   0  0  0  0  0  0  0  0  0  0  0  0
   22.7479  -21.3689  -12.3278 O   0  0  0  0  0  0  0  0  0  0  0  0
  2  1  1  6
  3  4  1  0
  3  2  1  0
  4  8  1  0
  5  6  1  0
  5  4  2  0
  6  7  1  0
  7  8  2  0
  9  2  1  0
  9 11  1  0
 10  9  2  0
 12 11  1  0
 12 13  1  0
 13 19  1  0
 14 13  2  0
 16 15  1  6
 16 17  1  0
 18 16  1  0
 18 19  1  1
 20 22  1  0
 20 18  1  0
 21 20  2  0
M  END
$$$$
