KNA.pdb
     RDKit          3D

 23 22  0  0  1  0  0  0  0  0999 V2000
   18.2220  -15.2195  -18.3105 N   0  0  0  0  0  0  0  0  0  0  0  0
   19.2766  -14.5090  -17.6435 C   0  0  1  0  0  0  0  0  0  0  0  0
   20.5853  -14.6537  -18.3284 C   0  0  0  0  0  0  0  0  0  0  0  0
   20.9852  -16.0609  -18.5437 C   0  0  0  0  0  0  0  0  0  0  0  0
   22.3383  -16.2752  -19.1527 C   0  0  0  0  0  0  0  0  0  0  0  0
   22.5427  -17.7932  -19.3221 C   0  0  0  0  0  0  0  0  0  0  0  0
   23.8432  -18.0060  -19.8632 N   0  0  0  0  0  0  0  0  0  0  0  0
   18.8650  -13.0888  -17.4925 C   0  0  0  0  0  0  0  0  0  0  0  0
   18.2278  -12.5923  -18.4686 O   0  0  0  0  0  0  0  0  0  0  0  0
   17.7291   -8.3254  -15.8692 N   0  0  0  0  0  0  0  0  0  0  0  0
   17.0914   -9.4202  -15.2268 C   0  0  0  0  0  0  0  0  0  0  0  0
   16.1008   -9.1118  -14.4915 O   0  0  0  0  0  0  0  0  0  0  0  0
   17.5318  -10.8184  -15.3889 C   0  0  0  0  0  0  0  0  0  0  0  0
   18.7469  -10.9699  -16.2589 C   0  0  2  0  0  0  0  0  0  0  0  0
   19.1705  -12.3583  -16.3360 N   0  0  0  0  0  0  0  0  0  0  0  0
   19.8069  -10.0818  -15.7912 C   0  0  0  0  0  0  0  0  0  0  0  0
   20.3937  -10.3488  -14.7172 O   0  0  0  0  0  0  0  0  0  0  0  0
   21.7642   -7.0835  -17.0100 C   0  0  0  0  0  0  0  0  0  0  0  0
   21.2681   -8.0687  -15.9669 C   0  0  2  0  0  0  0  0  0  0  0  0
   20.2251   -8.9158  -16.4832 N   0  0  0  0  0  0  0  0  0  0  0  0
   20.6901   -7.2942  -14.8333 C   0  0  0  0  0  0  0  0  0  0  0  0
   21.4450   -6.6076  -13.9095 O   0  0  0  0  0  0  0  0  0  0  0  0
   19.4345   -7.2814  -14.7347 O   0  0  0  0  0  0  0  0  0  0  0  0
  2  1  1  6
  2  3  1  0
  4  3  1  0
  5  4  1  0
  6  5  1  0
  6  7  1  0
  8  2  1  0
  9  8  2  0
 10 11  1  0
 11 12  2  0
 13 11  1  0
 14 13  1  1
 14 15  1  0
 15  8  1  0
 16 14  1  0
 16 20  1  0
 17 16  2  0
 19 18  1  6
 19 21  1  0
 19 20  1  0
 21 22  1  0
 23 21  2  0
M  END
$$$$
