KNA.pdb
     RDKit          3D

 23 22  0  0  1  0  0  0  0  0999 V2000
   20.8383  -11.8639  -18.1411 N   0  0  0  0  0  0  0  0  0  0  0  0
   19.6351  -11.8779  -17.3576 C   0  0  1  0  0  0  0  0  0  0  0  0
   19.4309  -13.1646  -16.6468 C   0  0  0  0  0  0  0  0  0  0  0  0
   19.2580  -14.3185  -17.5552 C   0  0  0  0  0  0  0  0  0  0  0  0
   18.9568  -15.6330  -16.9001 C   0  0  0  0  0  0  0  0  0  0  0  0
   18.7095  -16.6681  -18.0147 C   0  0  0  0  0  0  0  0  0  0  0  0
   18.3596  -17.9044  -17.3994 N   0  0  0  0  0  0  0  0  0  0  0  0
   19.6612  -10.7133  -16.4343 C   0  0  0  0  0  0  0  0  0  0  0  0
   18.7114  -10.6509  -15.5980 O   0  0  0  0  0  0  0  0  0  0  0  0
   23.6392  -10.1400  -14.2662 N   0  0  0  0  0  0  0  0  0  0  0  0
   22.4882   -9.3364  -14.0487 C   0  0  0  0  0  0  0  0  0  0  0  0
   21.8897   -9.5386  -12.9451 O   0  0  0  0  0  0  0  0  0  0  0  0
   22.0076   -8.3361  -15.0201 C   0  0  0  0  0  0  0  0  0  0  0  0
   20.6415   -8.6365  -15.5677 C   0  0  2  0  0  0  0  0  0  0  0  0
   20.6799   -9.7528  -16.4979 N   0  0  0  0  0  0  0  0  0  0  0  0
   20.0660   -7.4310  -16.1565 C   0  0  0  0  0  0  0  0  0  0  0  0
   20.5120   -7.0171  -17.2514 O   0  0  0  0  0  0  0  0  0  0  0  0
   17.2174   -5.0206  -15.5937 C   0  0  0  0  0  0  0  0  0  0  0  0
   18.5862   -5.4244  -16.1113 C   0  0  2  0  0  0  0  0  0  0  0  0
   19.0169   -6.6832  -15.5620 N   0  0  0  0  0  0  0  0  0  0  0  0
   19.5699   -4.3923  -15.6797 C   0  0  0  0  0  0  0  0  0  0  0  0
   19.6400   -3.1271  -16.2174 O   0  0  0  0  0  0  0  0  0  0  0  0
   20.3746   -4.7196  -14.7678 O   0  0  0  0  0  0  0  0  0  0  0  0
  2  1  1  1
  2  3  1  0
  4  3  1  0
  5  4  1  0
  6  5  1  0
  6  7  1  0
  8  2  1  0
  9  8  2  0
 10 11  1  0
 11 12  2  0
 13 11  1  0
 14 13  1  6
 14 15  1  0
 15  8  1  0
 16 14  1  0
 16 20  1  0
 17 16  2  0
 19 18  1  1
 19 21  1  0
 19 20  1  0
 21 22  1  0
 23 21  2  0
M  END
$$$$
