KNA.pdb
     RDKit          3D

 23 22  0  0  1  0  0  0  0  0999 V2000
   10.5264  -18.4913    1.2122 N   0  0  0  0  0  0  0  0  0  0  0  0
   11.6333  -17.7407    1.7350 C   0  0  1  0  0  0  0  0  0  0  0  0
   11.2101  -16.4728    2.3801 C   0  0  0  0  0  0  0  0  0  0  0  0
   10.4389  -15.5847    1.4841 C   0  0  0  0  0  0  0  0  0  0  0  0
   10.6868  -14.1145    1.6413 C   0  0  0  0  0  0  0  0  0  0  0  0
    9.8272  -13.3781    0.5955 C   0  0  0  0  0  0  0  0  0  0  0  0
   10.1458  -11.9912    0.6595 N   0  0  0  0  0  0  0  0  0  0  0  0
   12.4056  -18.6184    2.6528 C   0  0  0  0  0  0  0  0  0  0  0  0
   11.7207  -19.4178    3.3581 O   0  0  0  0  0  0  0  0  0  0  0  0
   14.0810  -22.1994    2.9412 N   0  0  0  0  0  0  0  0  0  0  0  0
   15.2919  -21.5593    2.5644 C   0  0  0  0  0  0  0  0  0  0  0  0
   16.0878  -22.2729    1.8756 O   0  0  0  0  0  0  0  0  0  0  0  0
   15.6191  -20.1700    2.9357 C   0  0  0  0  0  0  0  0  0  0  0  0
   14.4972  -19.4522    3.6302 C   0  0  2  0  0  0  0  0  0  0  0  0
   13.8039  -18.5536    2.7220 N   0  0  0  0  0  0  0  0  0  0  0  0
   15.0025  -18.7730    4.8195 C   0  0  0  0  0  0  0  0  0  0  0  0
   15.7573  -17.7833    4.6795 O   0  0  0  0  0  0  0  0  0  0  0  0
   14.4253  -18.7581    8.5487 C   0  0  0  0  0  0  0  0  0  0  0  0
   15.2041  -18.4459    7.2834 C   0  0  2  0  0  0  0  0  0  0  0  0
   14.6909  -19.1652    6.1471 N   0  0  0  0  0  0  0  0  0  0  0  0
   16.6139  -18.8829    7.4852 C   0  0  0  0  0  0  0  0  0  0  0  0
   17.4916  -18.2676    8.3488 O   0  0  0  0  0  0  0  0  0  0  0  0
   17.0031  -19.8759    6.8152 O   0  0  0  0  0  0  0  0  0  0  0  0
  2  1  1  1
  2  3  1  0
  4  3  1  0
  5  4  1  0
  6  5  1  0
  6  7  1  0
  8  2  1  0
  9  8  2  0
 10 11  1  0
 11 12  2  0
 13 11  1  0
 14 13  1  6
 14 15  1  0
 15  8  1  0
 16 14  1  0
 16 20  1  0
 17 16  2  0
 19 18  1  1
 19 21  1  0
 19 20  1  0
 21 22  1  0
 23 21  2  0
M  END
$$$$
