KNA.pdb
     RDKit          3D

 23 22  0  0  1  0  0  0  0  0999 V2000
   27.1811  -19.9631  -15.8187 N   0  0  0  0  0  0  0  0  0  0  0  0
   25.8236  -20.1667  -16.2400 C   0  0  1  0  0  0  0  0  0  0  0  0
   25.6966  -21.2346  -17.2628 C   0  0  0  0  0  0  0  0  0  0  0  0
   26.5040  -22.4366  -16.9628 C   0  0  0  0  0  0  0  0  0  0  0  0
   26.1673  -23.1553  -15.6909 C   0  0  0  0  0  0  0  0  0  0  0  0
   25.0787  -24.1974  -16.0135 C   0  0  0  0  0  0  0  0  0  0  0  0
   25.6203  -25.4920  -15.7686 N   0  0  0  0  0  0  0  0  0  0  0  0
   24.9913  -20.4269  -15.0363 C   0  0  0  0  0  0  0  0  0  0  0  0
   25.4394  -19.9641  -13.9452 O   0  0  0  0  0  0  0  0  0  0  0  0
   21.5920  -18.9167  -11.8277 N   0  0  0  0  0  0  0  0  0  0  0  0
   21.3081  -19.0440  -13.2137 C   0  0  0  0  0  0  0  0  0  0  0  0
   20.0998  -18.8189  -13.5400 O   0  0  0  0  0  0  0  0  0  0  0  0
   22.3270  -19.4095  -14.2154 C   0  0  0  0  0  0  0  0  0  0  0  0
   22.7400  -20.8524  -14.1554 C   0  0  2  0  0  0  0  0  0  0  0  0
   23.7884  -21.1415  -15.1198 N   0  0  0  0  0  0  0  0  0  0  0  0
   21.5709  -21.7112  -14.3186 C   0  0  0  0  0  0  0  0  0  0  0  0
   20.9951  -21.7489  -15.4304 O   0  0  0  0  0  0  0  0  0  0  0  0
   19.7883  -24.4383  -12.4033 C   0  0  0  0  0  0  0  0  0  0  0  0
   19.9524  -23.4384  -13.5338 C   0  0  2  0  0  0  0  0  0  0  0  0
   21.0330  -22.5206  -13.2848 N   0  0  0  0  0  0  0  0  0  0  0  0
   18.7015  -22.6352  -13.6297 C   0  0  0  0  0  0  0  0  0  0  0  0
   17.5267  -23.1067  -14.1705 O   0  0  0  0  0  0  0  0  0  0  0  0
   18.7455  -21.4583  -13.1832 O   0  0  0  0  0  0  0  0  0  0  0  0
  2  1  1  1
  2  3  1  0
  4  3  1  0
  5  4  1  0
  6  5  1  0
  6  7  1  0
  8  2  1  0
  9  8  2  0
 10 11  1  0
 11 12  2  0
 13 11  1  0
 14 13  1  6
 14 15  1  0
 15  8  1  0
 16 14  1  0
 16 20  1  0
 17 16  2  0
 19 18  1  1
 19 21  1  0
 19 20  1  0
 21 22  1  0
 23 21  2  0
M  END
$$$$
