KNA.pdb
     RDKit          3D

 23 22  0  0  1  0  0  0  0  0999 V2000
   18.9110   -8.7000  -17.9636 N   0  0  0  0  0  0  0  0  0  0  0  0
   17.9451   -8.2793  -16.9878 C   0  0  1  0  0  0  0  0  0  0  0  0
   17.2921   -9.4214  -16.3008 C   0  0  0  0  0  0  0  0  0  0  0  0
   17.0672  -10.5879  -17.1813 C   0  0  0  0  0  0  0  0  0  0  0  0
   16.3137  -11.7341  -16.5761 C   0  0  0  0  0  0  0  0  0  0  0  0
   16.1489  -12.8146  -17.6626 C   0  0  0  0  0  0  0  0  0  0  0  0
   15.4585  -13.9191  -17.0858 N   0  0  0  0  0  0  0  0  0  0  0  0
   18.6091   -7.3467  -16.0400 C   0  0  0  0  0  0  0  0  0  0  0  0
   17.8695   -6.8643  -15.1313 O   0  0  0  0  0  0  0  0  0  0  0  0
   20.2653   -8.3346  -13.3790 N   0  0  0  0  0  0  0  0  0  0  0  0
   21.5655   -7.8431  -13.6718 C   0  0  0  0  0  0  0  0  0  0  0  0
   22.5162   -8.4462  -13.0805 O   0  0  0  0  0  0  0  0  0  0  0  0
   21.8140   -6.7171  -14.5913 C   0  0  0  0  0  0  0  0  0  0  0  0
   20.5616   -6.1327  -15.1799 C   0  0  2  0  0  0  0  0  0  0  0  0
   19.9696   -7.0308  -16.1576 N   0  0  0  0  0  0  0  0  0  0  0  0
   20.8403   -4.8081  -15.7264 C   0  0  0  0  0  0  0  0  0  0  0  0
   21.2705   -3.9137  -14.9623 O   0  0  0  0  0  0  0  0  0  0  0  0
   20.9585   -3.0485  -19.0693 C   0  0  0  0  0  0  0  0  0  0  0  0
   20.8621   -3.1133  -17.5556 C   0  0  2  0  0  0  0  0  0  0  0  0
   20.6537   -4.4590  -17.0890 N   0  0  0  0  0  0  0  0  0  0  0  0
   19.6831   -2.3086  -17.1296 C   0  0  0  0  0  0  0  0  0  0  0  0
   19.7156   -0.9471  -16.9292 O   0  0  0  0  0  0  0  0  0  0  0  0
   18.6041   -2.9324  -16.9482 O   0  0  0  0  0  0  0  0  0  0  0  0
  2  1  1  6
  2  3  1  0
  4  3  1  0
  5  4  1  0
  6  5  1  0
  6  7  1  0
  8  2  1  0
  9  8  2  0
 10 11  1  0
 11 12  2  0
 13 11  1  0
 14 13  1  6
 14 15  1  0
 15  8  1  0
 16 14  1  0
 16 20  1  0
 17 16  2  0
 19 18  1  6
 19 21  1  0
 19 20  1  0
 21 22  1  0
 23 21  2  0
M  END
$$$$
