KNA.pdb
     RDKit          3D

 23 22  0  0  1  0  0  0  0  0999 V2000
   26.3792  -18.4780  -15.8538 N   0  0  0  0  0  0  0  0  0  0  0  0
   26.8321  -19.8405  -15.8748 C   0  0  1  0  0  0  0  0  0  0  0  0
   28.2769  -19.9576  -16.1936 C   0  0  0  0  0  0  0  0  0  0  0  0
   28.7414  -18.9718  -17.1930 C   0  0  0  0  0  0  0  0  0  0  0  0
   28.8238  -19.4581  -18.6087 C   0  0  0  0  0  0  0  0  0  0  0  0
   29.4538  -18.3354  -19.4558 C   0  0  0  0  0  0  0  0  0  0  0  0
   29.4883  -18.7715  -20.8115 N   0  0  0  0  0  0  0  0  0  0  0  0
   26.4806  -20.4732  -14.5766 C   0  0  0  0  0  0  0  0  0  0  0  0
   26.7796  -21.6991  -14.4614 O   0  0  0  0  0  0  0  0  0  0  0  0
   25.0290  -21.7914   -9.8608 N   0  0  0  0  0  0  0  0  0  0  0  0
   25.7153  -20.5478   -9.8810 C   0  0  0  0  0  0  0  0  0  0  0  0
   26.1216  -20.1373   -8.7481 O   0  0  0  0  0  0  0  0  0  0  0  0
   25.9489  -19.7755  -11.1155 C   0  0  0  0  0  0  0  0  0  0  0  0
   25.4367  -20.4520  -12.3550 C   0  0  2  0  0  0  0  0  0  0  0  0
   25.8574  -19.7454  -13.5536 N   0  0  0  0  0  0  0  0  0  0  0  0
   23.9878  -20.6099  -12.2725 C   0  0  0  0  0  0  0  0  0  0  0  0
   23.4957  -21.1923  -11.2787 O   0  0  0  0  0  0  0  0  0  0  0  0
   20.8695  -19.1806  -13.6876 C   0  0  0  0  0  0  0  0  0  0  0  0
   21.6644  -20.3528  -13.1408 C   0  0  2  0  0  0  0  0  0  0  0  0
   23.0831  -20.1399  -13.2593 N   0  0  0  0  0  0  0  0  0  0  0  0
   21.3281  -21.5594  -13.9470 C   0  0  0  0  0  0  0  0  0  0  0  0
   20.1079  -22.1951  -13.9040 O   0  0  0  0  0  0  0  0  0  0  0  0
   22.2291  -22.0062  -14.7053 O   0  0  0  0  0  0  0  0  0  0  0  0
  2  1  1  1
  2  3  1  0
  4  3  1  0
  5  4  1  0
  6  5  1  0
  6  7  1  0
  8  2  1  0
  9  8  2  0
 10 11  1  0
 11 12  2  0
 13 11  1  0
 14 13  1  1
 14 15  1  0
 15  8  1  0
 16 14  1  0
 16 20  1  0
 17 16  2  0
 19 18  1  6
 19 21  1  0
 19 20  1  0
 21 22  1  0
 23 21  2  0
M  END
$$$$
