KNA.pdb
     RDKit          3D

 23 22  0  0  1  0  0  0  0  0999 V2000
   18.1188  -12.2181  -15.6907 N   0  0  0  0  0  0  0  0  0  0  0  0
   17.9218  -10.8668  -16.1345 C   0  0  1  0  0  0  0  0  0  0  0  0
   16.7688  -10.2095  -15.4701 C   0  0  0  0  0  0  0  0  0  0  0  0
   15.5389  -11.0303  -15.4764 C   0  0  0  0  0  0  0  0  0  0  0  0
   14.3078  -10.3761  -14.9251 C   0  0  0  0  0  0  0  0  0  0  0  0
   13.1105  -11.2990  -15.2247 C   0  0  0  0  0  0  0  0  0  0  0  0
   11.9423  -10.7005  -14.6711 N   0  0  0  0  0  0  0  0  0  0  0  0
   19.1924  -10.1192  -15.9448 C   0  0  0  0  0  0  0  0  0  0  0  0
   19.9482  -10.5416  -15.0197 O   0  0  0  0  0  0  0  0  0  0  0  0
   21.6349   -9.1450  -20.0095 N   0  0  0  0  0  0  0  0  0  0  0  0
   21.8776   -9.0555  -18.6127 C   0  0  0  0  0  0  0  0  0  0  0  0
   22.5138  -10.0361  -18.1117 O   0  0  0  0  0  0  0  0  0  0  0  0
   21.4321   -7.9169  -17.7880 C   0  0  0  0  0  0  0  0  0  0  0  0
   20.7740   -8.3264  -16.5014 C   0  0  2  0  0  0  0  0  0  0  0  0
   19.5193   -9.0177  -16.7475 N   0  0  0  0  0  0  0  0  0  0  0  0
   20.6168   -7.1646  -15.6317 C   0  0  0  0  0  0  0  0  0  0  0  0
   19.7044   -6.3418  -15.8758 O   0  0  0  0  0  0  0  0  0  0  0  0
   21.7607   -5.9493  -12.2725 C   0  0  0  0  0  0  0  0  0  0  0  0
   21.2369   -5.7390  -13.6818 C   0  0  2  0  0  0  0  0  0  0  0  0
   21.4423   -6.8994  -14.5085 N   0  0  0  0  0  0  0  0  0  0  0  0
   21.9969   -4.6156  -14.2978 C   0  0  0  0  0  0  0  0  0  0  0  0
   22.7717   -4.7425  -15.4284 O   0  0  0  0  0  0  0  0  0  0  0  0
   21.9102   -3.4930  -13.7332 O   0  0  0  0  0  0  0  0  0  0  0  0
  2  1  1  1
  2  3  1  0
  4  3  1  0
  5  4  1  0
  6  5  1  0
  6  7  1  0
  8  2  1  0
  9  8  2  0
 10 11  1  0
 11 12  2  0
 13 11  1  0
 14 13  1  6
 14 15  1  0
 15  8  1  0
 16 14  1  0
 16 20  1  0
 17 16  2  0
 19 18  1  1
 19 21  1  0
 19 20  1  0
 21 22  1  0
 23 21  2  0
M  END
$$$$
