KNA.pdb
     RDKit          3D

 23 22  0  0  1  0  0  0  0  0999 V2000
   16.9217  -14.0958  -16.3112 N   0  0  0  0  0  0  0  0  0  0  0  0
   18.2822  -14.5506  -16.3752 C   0  0  1  0  0  0  0  0  0  0  0  0
   18.4360  -15.7795  -17.1931 C   0  0  0  0  0  0  0  0  0  0  0  0
   17.3627  -16.7723  -16.9722 C   0  0  0  0  0  0  0  0  0  0  0  0
   17.8056  -18.1949  -16.8055 C   0  0  0  0  0  0  0  0  0  0  0  0
   16.5431  -19.0665  -16.6596 C   0  0  0  0  0  0  0  0  0  0  0  0
   16.9537  -20.4280  -16.5765 N   0  0  0  0  0  0  0  0  0  0  0  0
   19.1303  -13.4311  -16.8616 C   0  0  0  0  0  0  0  0  0  0  0  0
   20.3622  -13.6924  -17.0011 O   0  0  0  0  0  0  0  0  0  0  0  0
   20.6228   -9.0154  -20.0278 N   0  0  0  0  0  0  0  0  0  0  0  0
   19.7852   -9.0515  -18.8810 C   0  0  0  0  0  0  0  0  0  0  0  0
   19.8242   -8.0106  -18.1514 O   0  0  0  0  0  0  0  0  0  0  0  0
   18.9268  -10.2027  -18.5451 C   0  0  0  0  0  0  0  0  0  0  0  0
   19.4904  -11.0785  -17.4628 C   0  0  2  0  0  0  0  0  0  0  0  0
   18.5858  -12.1707  -17.1437 N   0  0  0  0  0  0  0  0  0  0  0  0
   19.8320  -10.2699  -16.2965 C   0  0  0  0  0  0  0  0  0  0  0  0
   18.9229   -9.9325  -15.5036 O   0  0  0  0  0  0  0  0  0  0  0  0
   22.8617   -9.3508  -14.3113 C   0  0  0  0  0  0  0  0  0  0  0  0
   21.4402   -9.1079  -14.7858 C   0  0  2  0  0  0  0  0  0  0  0  0
   21.1476   -9.8324  -15.9948 N   0  0  0  0  0  0  0  0  0  0  0  0
   21.2932   -7.6574  -15.0914 C   0  0  0  0  0  0  0  0  0  0  0  0
   20.9527   -7.1654  -16.3312 O   0  0  0  0  0  0  0  0  0  0  0  0
   21.4974   -6.8529  -14.1441 O   0  0  0  0  0  0  0  0  0  0  0  0
  2  1  1  6
  2  3  1  0
  4  3  1  0
  5  4  1  0
  6  5  1  0
  6  7  1  0
  8  2  1  0
  9  8  2  0
 10 11  1  0
 11 12  2  0
 13 11  1  0
 14 13  1  6
 14 15  1  0
 15  8  1  0
 16 14  1  0
 16 20  1  0
 17 16  2  0
 19 18  1  6
 19 21  1  0
 19 20  1  0
 21 22  1  0
 23 21  2  0
M  END
$$$$
