KNA.pdb
     RDKit          3D

 23 22  0  0  1  0  0  0  0  0999 V2000
   16.6832  -10.4068  -10.0284 N   0  0  0  0  0  0  0  0  0  0  0  0
   16.1945   -9.5725  -11.0900 C   0  0  1  0  0  0  0  0  0  0  0  0
   14.7911   -9.1392  -10.8764 C   0  0  0  0  0  0  0  0  0  0  0  0
   13.8583  -10.2610  -10.6362 C   0  0  0  0  0  0  0  0  0  0  0  0
   12.4408   -9.8839  -10.3262 C   0  0  0  0  0  0  0  0  0  0  0  0
   11.6350  -11.1860  -10.1519 C   0  0  0  0  0  0  0  0  0  0  0  0
   10.3050  -10.8359   -9.7806 N   0  0  0  0  0  0  0  0  0  0  0  0
   17.1269   -8.4269  -11.2556 C   0  0  0  0  0  0  0  0  0  0  0  0
   17.5625   -7.9107  -10.1837 O   0  0  0  0  0  0  0  0  0  0  0  0
   18.9031   -9.0406  -14.2683 N   0  0  0  0  0  0  0  0  0  0  0  0
   19.9731   -8.2731  -13.7355 C   0  0  0  0  0  0  0  0  0  0  0  0
   21.1339   -8.6324  -14.1105 O   0  0  0  0  0  0  0  0  0  0  0  0
   19.7718   -7.1394  -12.8139 C   0  0  0  0  0  0  0  0  0  0  0  0
   18.3285   -6.7738  -12.6154 C   0  0  2  0  0  0  0  0  0  0  0  0
   17.4917   -7.9590  -12.5254 N   0  0  0  0  0  0  0  0  0  0  0  0
   17.8984   -5.8581  -13.6678 C   0  0  0  0  0  0  0  0  0  0  0  0
   17.5806   -6.3241  -14.7862 O   0  0  0  0  0  0  0  0  0  0  0  0
   16.9576   -2.2181  -14.0401 C   0  0  0  0  0  0  0  0  0  0  0  0
   17.3068   -3.6034  -14.5538 C   0  0  2  0  0  0  0  0  0  0  0  0
   17.8145   -4.4509  -13.5068 N   0  0  0  0  0  0  0  0  0  0  0  0
   18.3843   -3.4637  -15.5729 C   0  0  0  0  0  0  0  0  0  0  0  0
   19.5980   -4.1090  -15.4994 O   0  0  0  0  0  0  0  0  0  0  0  0
   18.1479   -2.7053  -16.5504 O   0  0  0  0  0  0  0  0  0  0  0  0
  2  1  1  1
  2  3  1  0
  4  3  1  0
  5  4  1  0
  6  5  1  0
  6  7  1  0
  8  2  1  0
  9  8  2  0
 10 11  1  0
 11 12  2  0
 13 11  1  0
 14 13  1  6
 14 15  1  0
 15  8  1  0
 16 14  1  0
 16 20  1  0
 17 16  2  0
 19 18  1  1
 19 21  1  0
 19 20  1  0
 21 22  1  0
 23 21  2  0
M  END
$$$$
