KNA.pdb
     RDKit          3D

 23 22  0  0  1  0  0  0  0  0999 V2000
   14.0209  -12.1090  -12.9226 N   0  0  0  0  0  0  0  0  0  0  0  0
   15.3213  -11.5255  -13.0970 C   0  0  1  0  0  0  0  0  0  0  0  0
   15.8126  -11.6317  -14.4934 C   0  0  0  0  0  0  0  0  0  0  0  0
   16.0507  -13.0243  -14.9298 C   0  0  0  0  0  0  0  0  0  0  0  0
   17.4659  -13.5105  -14.8377 C   0  0  0  0  0  0  0  0  0  0  0  0
   17.5053  -14.9501  -15.3862 C   0  0  0  0  0  0  0  0  0  0  0  0
   18.8530  -15.4078  -15.3287 N   0  0  0  0  0  0  0  0  0  0  0  0
   15.2756  -10.1209  -12.6129 C   0  0  0  0  0  0  0  0  0  0  0  0
   14.4820   -9.3501  -13.2305 O   0  0  0  0  0  0  0  0  0  0  0  0
   15.6409   -5.7307   -9.9067 N   0  0  0  0  0  0  0  0  0  0  0  0
   16.2542   -6.7752   -9.1644 C   0  0  0  0  0  0  0  0  0  0  0  0
   16.6528   -6.4487   -8.0017 O   0  0  0  0  0  0  0  0  0  0  0  0
   16.4248   -8.1436   -9.6873 C   0  0  0  0  0  0  0  0  0  0  0  0
   15.9609   -8.3081  -11.1064 C   0  0  2  0  0  0  0  0  0  0  0  0
   16.0675   -9.6917  -11.5391 N   0  0  0  0  0  0  0  0  0  0  0  0
   16.6863   -7.3873  -11.9764 C   0  0  0  0  0  0  0  0  0  0  0  0
   17.9212   -7.5364  -12.1240 O   0  0  0  0  0  0  0  0  0  0  0  0
   15.9803   -5.0709  -14.7869 C   0  0  0  0  0  0  0  0  0  0  0  0
   16.8231   -5.4985  -13.5988 C   0  0  2  0  0  0  0  0  0  0  0  0
   16.0764   -6.3158  -12.6787 N   0  0  0  0  0  0  0  0  0  0  0  0
   17.2447   -4.2740  -12.8627 C   0  0  0  0  0  0  0  0  0  0  0  0
   16.9021   -4.0082  -11.5562 O   0  0  0  0  0  0  0  0  0  0  0  0
   17.9559   -3.4477  -13.4934 O   0  0  0  0  0  0  0  0  0  0  0  0
  2  1  1  6
  2  3  1  0
  4  3  1  0
  5  4  1  0
  6  5  1  0
  6  7  1  0
  8  2  1  0
  9  8  2  0
 10 11  1  0
 11 12  2  0
 13 11  1  0
 14 13  1  1
 14 15  1  0
 15  8  1  0
 16 14  1  0
 16 20  1  0
 17 16  2  0
 19 18  1  6
 19 21  1  0
 19 20  1  0
 21 22  1  0
 23 21  2  0
M  END
$$$$
