KNA.pdb
     RDKit          3D

 23 22  0  0  1  0  0  0  0  0999 V2000
   20.8732  -10.7059  -17.5097 N   0  0  0  0  0  0  0  0  0  0  0  0
   19.4770  -10.4942  -17.7700 C   0  0  1  0  0  0  0  0  0  0  0  0
   18.6678  -11.7241  -17.5819 C   0  0  0  0  0  0  0  0  0  0  0  0
   19.0179  -12.8094  -18.5231 C   0  0  0  0  0  0  0  0  0  0  0  0
   18.3622  -14.1343  -18.2738 C   0  0  0  0  0  0  0  0  0  0  0  0
   18.8262  -15.1039  -19.3781 C   0  0  0  0  0  0  0  0  0  0  0  0
   18.3985  -16.4154  -19.0225 N   0  0  0  0  0  0  0  0  0  0  0  0
   19.0064   -9.3661  -16.9244 C   0  0  0  0  0  0  0  0  0  0  0  0
   17.7712   -9.0952  -17.0033 O   0  0  0  0  0  0  0  0  0  0  0  0
   18.6478   -9.2914  -13.1821 N   0  0  0  0  0  0  0  0  0  0  0  0
   19.6838   -8.3393  -12.9869 C   0  0  0  0  0  0  0  0  0  0  0  0
   20.2316   -8.3655  -11.8396 O   0  0  0  0  0  0  0  0  0  0  0  0
   20.1066   -7.3828  -14.0269 C   0  0  0  0  0  0  0  0  0  0  0  0
   19.3673   -7.5392  -15.3251 C   0  0  2  0  0  0  0  0  0  0  0  0
   19.8870   -8.6561  -16.0967 N   0  0  0  0  0  0  0  0  0  0  0  0
   19.3923   -6.2815  -16.0659 C   0  0  0  0  0  0  0  0  0  0  0  0
   20.4494   -5.9370  -16.6427 O   0  0  0  0  0  0  0  0  0  0  0  0
   16.9011   -3.7749  -17.3773 C   0  0  0  0  0  0  0  0  0  0  0  0
   18.3004   -4.2766  -17.0692 C   0  0  2  0  0  0  0  0  0  0  0  0
   18.2803   -5.4074  -16.1788 N   0  0  0  0  0  0  0  0  0  0  0  0
   19.0454   -3.1846  -16.3824 C   0  0  0  0  0  0  0  0  0  0  0  0
   19.6052   -2.1096  -17.0350 O   0  0  0  0  0  0  0  0  0  0  0  0
   19.1568   -3.2716  -15.1308 O   0  0  0  0  0  0  0  0  0  0  0  0
  2  1  1  1
  2  3  1  0
  4  3  1  0
  5  4  1  0
  6  5  1  0
  6  7  1  0
  8  2  1  0
  9  8  2  0
 10 11  1  0
 11 12  2  0
 13 11  1  0
 14 13  1  1
 14 15  1  0
 15  8  1  0
 16 14  1  0
 16 20  1  0
 17 16  2  0
 19 18  1  1
 19 21  1  0
 19 20  1  0
 21 22  1  0
 23 21  2  0
M  END
$$$$
