KNA.pdb
     RDKit          3D

 23 22  0  0  1  0  0  0  0  0999 V2000
   34.0823  -10.5499  -19.0140 N   0  0  0  0  0  0  0  0  0  0  0  0
   34.3207  -10.3718  -17.6092 C   0  0  1  0  0  0  0  0  0  0  0  0
   35.5886  -10.9996  -17.1608 C   0  0  0  0  0  0  0  0  0  0  0  0
   36.7075  -10.8097  -18.1087 C   0  0  0  0  0  0  0  0  0  0  0  0
   37.2702  -12.0568  -18.7215 C   0  0  0  0  0  0  0  0  0  0  0  0
   38.4707  -11.6498  -19.5979 C   0  0  0  0  0  0  0  0  0  0  0  0
   38.9795  -12.8245  -20.2230 N   0  0  0  0  0  0  0  0  0  0  0  0
   34.2634   -8.9185  -17.3027 C   0  0  0  0  0  0  0  0  0  0  0  0
   34.8537   -8.1573  -18.1257 O   0  0  0  0  0  0  0  0  0  0  0  0
   31.7287   -4.5427  -14.0759 N   0  0  0  0  0  0  0  0  0  0  0  0
   32.0798   -5.0887  -15.3394 C   0  0  0  0  0  0  0  0  0  0  0  0
   32.3125   -4.2332  -16.2511 O   0  0  0  0  0  0  0  0  0  0  0  0
   32.1726   -6.5385  -15.5939 C   0  0  0  0  0  0  0  0  0  0  0  0
   33.5587   -7.0012  -15.9414 C   0  0  2  0  0  0  0  0  0  0  0  0
   33.5939   -8.4364  -16.1696 N   0  0  0  0  0  0  0  0  0  0  0  0
   34.4994   -6.5705  -14.9116 C   0  0  0  0  0  0  0  0  0  0  0  0
   34.5716   -7.2215  -13.8440 O   0  0  0  0  0  0  0  0  0  0  0  0
   37.6823   -4.8300  -14.5936 C   0  0  0  0  0  0  0  0  0  0  0  0
   36.3045   -5.1011  -14.0165 C   0  0  2  0  0  0  0  0  0  0  0  0
   35.3527   -5.4441  -15.0404 N   0  0  0  0  0  0  0  0  0  0  0  0
   35.8209   -3.8538  -13.3613 C   0  0  0  0  0  0  0  0  0  0  0  0
   34.7943   -3.0784  -13.8511 O   0  0  0  0  0  0  0  0  0  0  0  0
   36.4007   -3.5081  -12.2979 O   0  0  0  0  0  0  0  0  0  0  0  0
  2  1  1  6
  2  3  1  0
  4  3  1  0
  5  4  1  0
  6  5  1  0
  6  7  1  0
  8  2  1  0
  9  8  2  0
 10 11  1  0
 11 12  2  0
 13 11  1  0
 14 13  1  1
 14 15  1  0
 15  8  1  0
 16 14  1  0
 16 20  1  0
 17 16  2  0
 19 18  1  6
 19 21  1  0
 19 20  1  0
 21 22  1  0
 23 21  2  0
M  END
$$$$
