KNA.pdb
     RDKit          3D

 23 22  0  0  1  0  0  0  0  0999 V2000
   17.6458   -9.6463  -16.2094 N   0  0  0  0  0  0  0  0  0  0  0  0
   18.0441   -9.3808  -17.5632 C   0  0  1  0  0  0  0  0  0  0  0  0
   17.2862  -10.1888  -18.5508 C   0  0  0  0  0  0  0  0  0  0  0  0
   17.5234  -11.6432  -18.4281 C   0  0  0  0  0  0  0  0  0  0  0  0
   16.8069  -12.5130  -19.4170 C   0  0  0  0  0  0  0  0  0  0  0  0
   17.1873  -13.9762  -19.1186 C   0  0  0  0  0  0  0  0  0  0  0  0
   16.6141  -14.7970  -20.1321 N   0  0  0  0  0  0  0  0  0  0  0  0
   17.9269   -7.9198  -17.8104 C   0  0  0  0  0  0  0  0  0  0  0  0
   18.3615   -7.5129  -18.9288 O   0  0  0  0  0  0  0  0  0  0  0  0
   16.4983   -2.9637  -17.8627 N   0  0  0  0  0  0  0  0  0  0  0  0
   15.6434   -3.7169  -17.0142 C   0  0  0  0  0  0  0  0  0  0  0  0
   14.5914   -3.1121  -16.6340 O   0  0  0  0  0  0  0  0  0  0  0  0
   15.9380   -5.0997  -16.5946 C   0  0  0  0  0  0  0  0  0  0  0  0
   17.1943   -5.6579  -17.1999 C   0  0  2  0  0  0  0  0  0  0  0  0
   17.3681   -7.0594  -16.8554 N   0  0  0  0  0  0  0  0  0  0  0  0
   18.3385   -4.8366  -16.8160 C   0  0  0  0  0  0  0  0  0  0  0  0
   18.7344   -4.8634  -15.6280 O   0  0  0  0  0  0  0  0  0  0  0  0
   21.0563   -2.8454  -18.5118 C   0  0  0  0  0  0  0  0  0  0  0  0
   20.2474   -3.3115  -17.3146 C   0  0  2  0  0  0  0  0  0  0  0  0
   19.0451   -3.9950  -17.7137 N   0  0  0  0  0  0  0  0  0  0  0  0
   19.8368   -2.1107  -16.5346 C   0  0  0  0  0  0  0  0  0  0  0  0
   18.5346   -1.8296  -16.1879 O   0  0  0  0  0  0  0  0  0  0  0  0
   20.7523   -1.3205  -16.1826 O   0  0  0  0  0  0  0  0  0  0  0  0
  2  1  1  1
  2  3  1  0
  4  3  1  0
  5  4  1  0
  6  5  1  0
  6  7  1  0
  8  2  1  0
  9  8  2  0
 10 11  1  0
 11 12  2  0
 13 11  1  0
 14 13  1  1
 14 15  1  0
 15  8  1  0
 16 14  1  0
 16 20  1  0
 17 16  2  0
 19 18  1  6
 19 21  1  0
 19 20  1  0
 21 22  1  0
 23 21  2  0
M  END
$$$$
