KNA.pdb
     RDKit          3D

 23 22  0  0  1  0  0  0  0  0999 V2000
   18.2761  -11.8270  -15.3616 N   0  0  0  0  0  0  0  0  0  0  0  0
   19.0816  -10.9531  -16.1674 C   0  0  1  0  0  0  0  0  0  0  0  0
   18.5618  -10.8100  -17.5502 C   0  0  0  0  0  0  0  0  0  0  0  0
   18.5781  -12.0728  -18.3193 C   0  0  0  0  0  0  0  0  0  0  0  0
   18.0697  -11.9928  -19.7274 C   0  0  0  0  0  0  0  0  0  0  0  0
   18.2444  -13.3825  -20.3701 C   0  0  0  0  0  0  0  0  0  0  0  0
   17.7646  -13.3130  -21.7096 N   0  0  0  0  0  0  0  0  0  0  0  0
   19.2063   -9.6484  -15.4664 C   0  0  0  0  0  0  0  0  0  0  0  0
   18.2221   -9.3154  -14.7412 O   0  0  0  0  0  0  0  0  0  0  0  0
   22.7316   -5.1548  -13.7581 N   0  0  0  0  0  0  0  0  0  0  0  0
   21.9399   -6.2693  -13.3722 C   0  0  0  0  0  0  0  0  0  0  0  0
   21.3532   -6.1516  -12.2501 O   0  0  0  0  0  0  0  0  0  0  0  0
   21.7970   -7.4821  -14.1990 C   0  0  0  0  0  0  0  0  0  0  0  0
   20.4412   -7.6248  -14.8295 C   0  0  2  0  0  0  0  0  0  0  0  0
   20.3481   -8.8481  -15.6091 N   0  0  0  0  0  0  0  0  0  0  0  0
   20.1286   -6.4323  -15.6114 C   0  0  0  0  0  0  0  0  0  0  0  0
   20.7952   -6.1908  -16.6440 O   0  0  0  0  0  0  0  0  0  0  0  0
   17.3655   -3.9449  -16.0038 C   0  0  0  0  0  0  0  0  0  0  0  0
   18.8211   -4.3656  -16.0989 C   0  0  2  0  0  0  0  0  0  0  0  0
   19.1025   -5.5119  -15.2750 N   0  0  0  0  0  0  0  0  0  0  0  0
   19.6634   -3.2430  -15.5995 C   0  0  0  0  0  0  0  0  0  0  0  0
   20.4380   -3.3115  -14.4636 O   0  0  0  0  0  0  0  0  0  0  0  0
   19.6499   -2.1785  -16.2727 O   0  0  0  0  0  0  0  0  0  0  0  0
  2  1  1  1
  2  3  1  0
  4  3  1  0
  5  4  1  0
  6  5  1  0
  6  7  1  0
  8  2  1  0
  9  8  2  0
 10 11  1  0
 11 12  2  0
 13 11  1  0
 14 13  1  6
 14 15  1  0
 15  8  1  0
 16 14  1  0
 16 20  1  0
 17 16  2  0
 19 18  1  1
 19 21  1  0
 19 20  1  0
 21 22  1  0
 23 21  2  0
M  END
$$$$
