KNA.pdb
     RDKit          3D

 23 22  0  0  1  0  0  0  0  0999 V2000
   18.6487  -10.9048  -19.1310 N   0  0  0  0  0  0  0  0  0  0  0  0
   19.8205  -10.4951  -18.4092 C   0  0  1  0  0  0  0  0  0  0  0  0
   20.9509  -10.1463  -19.3054 C   0  0  0  0  0  0  0  0  0  0  0  0
   21.5800  -11.3216  -19.9450 C   0  0  0  0  0  0  0  0  0  0  0  0
   22.6239  -12.0315  -19.1362 C   0  0  0  0  0  0  0  0  0  0  0  0
   23.1714  -13.1920  -19.9897 C   0  0  0  0  0  0  0  0  0  0  0  0
   24.0317  -13.9762  -19.1686 N   0  0  0  0  0  0  0  0  0  0  0  0
   19.4473   -9.3800  -17.5000 C   0  0  0  0  0  0  0  0  0  0  0  0
   18.7554   -8.4537  -18.0183 O   0  0  0  0  0  0  0  0  0  0  0  0
   17.0563  -10.6759  -14.2984 N   0  0  0  0  0  0  0  0  0  0  0  0
   17.3535   -9.2989  -14.4815 C   0  0  0  0  0  0  0  0  0  0  0  0
   16.4092   -8.6039  -14.9740 O   0  0  0  0  0  0  0  0  0  0  0  0
   18.6557   -8.7014  -14.1320 C   0  0  0  0  0  0  0  0  0  0  0  0
   19.4480   -8.2448  -15.3236 C   0  0  2  0  0  0  0  0  0  0  0  0
   19.8441   -9.3688  -16.1558 N   0  0  0  0  0  0  0  0  0  0  0  0
   20.5838   -7.4388  -14.8863 C   0  0  0  0  0  0  0  0  0  0  0  0
   21.5927   -8.0144  -14.4176 O   0  0  0  0  0  0  0  0  0  0  0  0
   21.7142   -3.8284  -14.9709 C   0  0  0  0  0  0  0  0  0  0  0  0
   21.7800   -5.2799  -14.5306 C   0  0  2  0  0  0  0  0  0  0  0  0
   20.6229   -6.0222  -14.9573 N   0  0  0  0  0  0  0  0  0  0  0  0
   21.8044   -5.3137  -13.0416 C   0  0  0  0  0  0  0  0  0  0  0  0
   22.8677   -4.8814  -12.2817 O   0  0  0  0  0  0  0  0  0  0  0  0
   20.7806   -5.7689  -12.4661 O   0  0  0  0  0  0  0  0  0  0  0  0
  2  1  1  6
  2  3  1  0
  4  3  1  0
  5  4  1  0
  6  5  1  0
  6  7  1  0
  8  2  1  0
  9  8  2  0
 10 11  1  0
 11 12  2  0
 13 11  1  0
 14 13  1  1
 14 15  1  0
 15  8  1  0
 16 14  1  0
 16 20  1  0
 17 16  2  0
 19 18  1  1
 19 21  1  0
 19 20  1  0
 21 22  1  0
 23 21  2  0
M  END
$$$$
