VWR.pdb
     RDKit          3D

 33 34  0  0  1  0  0  0  0  0999 V2000
   29.2797  -18.7104  -15.6198 C   0  0  0  0  0  0  0  0  0  0  0  0
   28.1683  -19.0305  -14.6324 C   0  0  1  0  0  0  0  0  0  0  0  0
   26.8235  -18.5933  -15.1689 C   0  0  0  0  0  0  0  0  0  0  0  0
   28.2019  -20.4687  -14.2001 C   0  0  2  0  0  0  0  0  0  0  0  0
   27.8879  -21.2728  -15.3743 N   0  0  0  0  0  0  0  0  0  0  0  0
   27.3408  -20.8087  -13.0751 C   0  0  0  0  0  0  0  0  0  0  0  0
   26.1667  -21.2115  -13.2537 O   0  0  0  0  0  0  0  0  0  0  0  0
   27.8033  -20.6939  -11.7381 N   0  0  0  0  0  0  0  0  0  0  0  0
   26.9588  -20.9176  -10.5716 C   0  0  1  0  0  0  0  0  0  0  0  0
   27.8652  -20.8360   -9.3742 C   0  0  0  0  0  0  0  0  0  0  0  0
   27.2165  -20.8135   -8.0728 C   0  0  0  0  0  0  0  0  0  0  0  0
   25.8947  -21.2052   -7.8537 C   0  0  0  0  0  0  0  0  0  0  0  0
   25.5850  -21.0838   -6.5450 N   0  0  0  0  0  0  0  0  0  0  0  0
   26.6631  -20.6252   -5.9029 C   0  0  0  0  0  0  0  0  0  0  0  0
   26.8537  -20.3331   -4.5769 C   0  0  0  0  0  0  0  0  0  0  0  0
   28.0601  -19.8606   -4.1408 C   0  0  0  0  0  0  0  0  0  0  0  0
   29.0938  -19.6772   -5.0443 C   0  0  0  0  0  0  0  0  0  0  0  0
   28.8856  -19.9747   -6.3660 C   0  0  0  0  0  0  0  0  0  0  0  0
   27.6794  -20.4540   -6.8396 C   0  0  0  0  0  0  0  0  0  0  0  0
   25.7539  -20.1144  -10.5498 C   0  0  0  0  0  0  0  0  0  0  0  0
   25.8360  -18.8567  -10.7244 O   0  0  0  0  0  0  0  0  0  0  0  0
   22.6266  -19.5928  -17.3338 N   0  0  0  0  0  0  0  0  0  0  0  0
   21.8543  -20.5357  -16.5361 C   0  0  0  0  0  0  0  0  0  0  0  0
   21.2532  -21.4449  -17.0891 N   0  0  0  0  0  0  0  0  0  0  0  0
   21.8295  -20.3692  -15.1196 N   0  0  0  0  0  0  0  0  0  0  0  0
   22.4928  -19.2539  -14.5307 C   0  0  0  0  0  0  0  0  0  0  0  0
   22.2296  -19.2342  -13.0461 C   0  0  0  0  0  0  0  0  0  0  0  0
   23.4146  -19.9184  -12.3817 C   0  0  0  0  0  0  0  0  0  0  0  0
   23.2650  -19.9074  -10.8442 C   0  0  2  0  0  0  0  0  0  0  0  0
   24.4334  -20.6351  -10.3482 N   0  0  0  0  0  0  0  0  0  0  0  0
   21.9910  -20.5489  -10.4835 C   0  0  0  0  0  0  0  0  0  0  0  0
   21.9394  -21.7469  -10.1168 O   0  0  0  0  0  0  0  0  0  0  0  0
   20.8142  -19.8284  -10.5430 O   0  0  0  0  0  0  0  0  0  0  0  0
  2  1  1  6
  2  3  1  0
  2  4  1  0
  4  5  1  6
  4  6  1  0
  6  8  1  0
  6  7  2  0
  8  9  1  0
  9 20  1  0
  9 10  1  1
 10 11  1  0
 11 19  1  0
 11 12  2  0
 12 13  1  0
 14 15  2  0
 14 13  1  0
 16 15  1  0
 17 16  2  0
 18 17  1  0
 18 19  2  0
 19 14  1  0
 20 21  2  0
 22 23  1  0
 23 24  2  0
 25 26  1  0
 25 23  1  0
 27 26  1  0
 28 27  1  0
 29 28  1  6
 30 29  1  0
 30 20  1  0
 31 33  1  0
 31 29  1  0
 32 31  2  0
M  END
$$$$
