VWR.pdb
     RDKit          3D

 33 34  0  0  1  0  0  0  0  0999 V2000
   27.0496  -20.0349  -17.7708 C   0  0  0  0  0  0  0  0  0  0  0  0
   27.9939  -21.1873  -18.0755 C   0  0  1  0  0  0  0  0  0  0  0  0
   28.8921  -20.8574  -19.2468 C   0  0  0  0  0  0  0  0  0  0  0  0
   28.7437  -21.6338  -16.8528 C   0  0  2  0  0  0  0  0  0  0  0  0
   29.5012  -22.8208  -17.2287 N   0  0  0  0  0  0  0  0  0  0  0  0
   27.9308  -21.8731  -15.6677 C   0  0  0  0  0  0  0  0  0  0  0  0
   27.1700  -22.8670  -15.5911 O   0  0  0  0  0  0  0  0  0  0  0  0
   27.9731  -20.9870  -14.5597 N   0  0  0  0  0  0  0  0  0  0  0  0
   27.1996  -21.1845  -13.3404 C   0  0  1  0  0  0  0  0  0  0  0  0
   27.9077  -20.4100  -12.2630 C   0  0  0  0  0  0  0  0  0  0  0  0
   27.2608  -20.3746  -10.9609 C   0  0  0  0  0  0  0  0  0  0  0  0
   25.8997  -20.1280  -10.7730 C   0  0  0  0  0  0  0  0  0  0  0  0
   25.5969  -20.1715   -9.4578 N   0  0  0  0  0  0  0  0  0  0  0  0
   26.7176  -20.4387   -8.7812 C   0  0  0  0  0  0  0  0  0  0  0  0
   26.9337  -20.5789   -7.4346 C   0  0  0  0  0  0  0  0  0  0  0  0
   28.1875  -20.8491   -6.9614 C   0  0  0  0  0  0  0  0  0  0  0  0
   29.2431  -20.9820   -7.8482 C   0  0  0  0  0  0  0  0  0  0  0  0
   29.0086  -20.8390   -9.1910 C   0  0  0  0  0  0  0  0  0  0  0  0
   27.7543  -20.5662   -9.7023 C   0  0  0  0  0  0  0  0  0  0  0  0
   25.7779  -20.9577  -13.4975 C   0  0  0  0  0  0  0  0  0  0  0  0
   25.3641  -19.8185  -13.8849 O   0  0  0  0  0  0  0  0  0  0  0  0
   17.8074  -23.3801  -12.7378 N   0  0  0  0  0  0  0  0  0  0  0  0
   18.1574  -23.8827  -14.0595 C   0  0  0  0  0  0  0  0  0  0  0  0
   17.2906  -23.9901  -14.9143 N   0  0  0  0  0  0  0  0  0  0  0  0
   19.5164  -24.2310  -14.3178 N   0  0  0  0  0  0  0  0  0  0  0  0
   20.4812  -24.1210  -13.2749 C   0  0  0  0  0  0  0  0  0  0  0  0
   21.1037  -22.7479  -13.3035 C   0  0  0  0  0  0  0  0  0  0  0  0
   22.6088  -22.9507  -13.3897 C   0  0  0  0  0  0  0  0  0  0  0  0
   23.3489  -21.5949  -13.3637 C   0  0  2  0  0  0  0  0  0  0  0  0
   24.7656  -21.9428  -13.2519 N   0  0  0  0  0  0  0  0  0  0  0  0
   22.8581  -20.8045  -12.2239 C   0  0  0  0  0  0  0  0  0  0  0  0
   23.2710  -21.0074  -11.0574 O   0  0  0  0  0  0  0  0  0  0  0  0
   21.9212  -19.8100  -12.4259 O   0  0  0  0  0  0  0  0  0  0  0  0
  2  1  1  1
  2  3  1  0
  2  4  1  0
  4  5  1  6
  4  6  1  0
  6  8  1  0
  6  7  2  0
  8  9  1  0
  9 20  1  0
  9 10  1  1
 10 11  1  0
 11 19  1  0
 11 12  2  0
 12 13  1  0
 14 15  2  0
 14 13  1  0
 16 15  1  0
 17 16  2  0
 18 17  1  0
 18 19  2  0
 19 14  1  0
 20 21  2  0
 22 23  1  0
 23 24  2  0
 25 26  1  0
 25 23  1  0
 27 26  1  0
 28 27  1  0
 29 28  1  1
 30 29  1  0
 30 20  1  0
 31 33  1  0
 31 29  1  0
 32 31  2  0
M  END
$$$$
