VWR.pdb
     RDKit          3D

 33 34  0  0  1  0  0  0  0  0999 V2000
   19.1241  -20.9913  -13.6277 C   0  0  0  0  0  0  0  0  0  0  0  0
   20.6420  -20.9404  -13.5494 C   0  0  1  0  0  0  0  0  0  0  0  0
   21.2627  -21.1442  -14.9134 C   0  0  0  0  0  0  0  0  0  0  0  0
   21.1243  -19.7010  -12.8509 C   0  0  2  0  0  0  0  0  0  0  0  0
   20.5659  -18.5633  -13.5703 N   0  0  0  0  0  0  0  0  0  0  0  0
   22.5690  -19.5824  -12.7042 C   0  0  0  0  0  0  0  0  0  0  0  0
   23.2544  -18.9297  -13.5268 O   0  0  0  0  0  0  0  0  0  0  0  0
   23.2487  -20.2034  -11.6240 N   0  0  0  0  0  0  0  0  0  0  0  0
   24.7001  -20.3005  -11.5347 C   0  0  1  0  0  0  0  0  0  0  0  0
   25.0092  -20.6879  -10.1147 C   0  0  0  0  0  0  0  0  0  0  0  0
   26.4168  -20.7607   -9.7564 C   0  0  0  0  0  0  0  0  0  0  0  0
   27.4001  -21.3263  -10.5699 C   0  0  0  0  0  0  0  0  0  0  0  0
   28.6073  -21.2343   -9.9718 N   0  0  0  0  0  0  0  0  0  0  0  0
   28.4429  -20.6266   -8.7934 C   0  0  0  0  0  0  0  0  0  0  0  0
   29.3546  -20.3064   -7.8208 C   0  0  0  0  0  0  0  0  0  0  0  0
   28.9498  -19.6815   -6.6743 C   0  0  0  0  0  0  0  0  0  0  0  0
   27.6119  -19.3707   -6.4964 C   0  0  0  0  0  0  0  0  0  0  0  0
   26.7144  -19.6978   -7.4794 C   0  0  0  0  0  0  0  0  0  0  0  0
   27.0900  -20.3290   -8.6497 C   0  0  0  0  0  0  0  0  0  0  0  0
   25.3068  -21.0898  -12.5866 C   0  0  0  0  0  0  0  0  0  0  0  0
   24.7102  -22.1297  -13.0131 O   0  0  0  0  0  0  0  0  0  0  0  0
   31.9676  -22.4765  -10.9169 N   0  0  0  0  0  0  0  0  0  0  0  0
   32.2839  -22.6583  -12.3272 C   0  0  0  0  0  0  0  0  0  0  0  0
   33.1389  -23.4676  -12.6554 N   0  0  0  0  0  0  0  0  0  0  0  0
   31.5735  -21.8819  -13.2901 N   0  0  0  0  0  0  0  0  0  0  0  0
   30.3281  -21.2878  -12.9344 C   0  0  0  0  0  0  0  0  0  0  0  0
   29.1955  -22.1217  -13.4779 C   0  0  0  0  0  0  0  0  0  0  0  0
   28.4898  -21.2734  -14.5250 C   0  0  0  0  0  0  0  0  0  0  0  0
   26.9587  -21.4628  -14.4456 C   0  0  2  0  0  0  0  0  0  0  0  0
   26.5600  -20.7843  -13.2123 N   0  0  0  0  0  0  0  0  0  0  0  0
   26.6552  -22.9023  -14.4352 C   0  0  0  0  0  0  0  0  0  0  0  0
   26.4658  -23.5260  -13.3639 O   0  0  0  0  0  0  0  0  0  0  0  0
   26.5715  -23.5989  -15.6249 O   0  0  0  0  0  0  0  0  0  0  0  0
  2  1  1  6
  2  3  1  0
  2  4  1  0
  4  5  1  6
  4  6  1  0
  6  8  1  0
  6  7  2  0
  8  9  1  0
  9 20  1  0
  9 10  1  1
 10 11  1  0
 11 19  1  0
 11 12  2  0
 12 13  1  0
 14 15  2  0
 14 13  1  0
 16 15  1  0
 17 16  2  0
 18 17  1  0
 18 19  2  0
 19 14  1  0
 20 21  2  0
 22 23  1  0
 23 24  2  0
 25 26  1  0
 25 23  1  0
 27 26  1  0
 28 27  1  0
 29 28  1  1
 30 29  1  0
 30 20  1  0
 31 33  1  0
 31 29  1  0
 32 31  2  0
M  END
$$$$
