VWR.pdb
     RDKit          3D

 33 34  0  0  1  0  0  0  0  0999 V2000
   29.5232  -20.8110  -16.7894 C   0  0  0  0  0  0  0  0  0  0  0  0
   28.7970  -21.4357  -15.6083 C   0  0  1  0  0  0  0  0  0  0  0  0
   29.7650  -22.1530  -14.6941 C   0  0  0  0  0  0  0  0  0  0  0  0
   27.9273  -20.4391  -14.8963 C   0  0  2  0  0  0  0  0  0  0  0  0
   28.7792  -19.3131  -14.5353 N   0  0  0  0  0  0  0  0  0  0  0  0
   27.2000  -20.9492  -13.7415 C   0  0  0  0  0  0  0  0  0  0  0  0
   26.2367  -21.7405  -13.8777 O   0  0  0  0  0  0  0  0  0  0  0  0
   27.5583  -20.5658  -12.4227 N   0  0  0  0  0  0  0  0  0  0  0  0
   26.8143  -20.9694  -11.2363 C   0  0  1  0  0  0  0  0  0  0  0  0
   27.7352  -20.7506  -10.0676 C   0  0  0  0  0  0  0  0  0  0  0  0
   27.1158  -20.7273   -8.7520 C   0  0  0  0  0  0  0  0  0  0  0  0
   25.8040  -21.1333   -8.5006 C   0  0  0  0  0  0  0  0  0  0  0  0
   25.5225  -21.0071   -7.1861 N   0  0  0  0  0  0  0  0  0  0  0  0
   26.6092  -20.5313   -6.5713 C   0  0  0  0  0  0  0  0  0  0  0  0
   26.8261  -20.2283   -5.2519 C   0  0  0  0  0  0  0  0  0  0  0  0
   28.0362  -19.7386   -4.8462 C   0  0  0  0  0  0  0  0  0  0  0  0
   29.0470  -19.5488   -5.7739 C   0  0  0  0  0  0  0  0  0  0  0  0
   28.8127  -19.8575   -7.0887 C   0  0  0  0  0  0  0  0  0  0  0  0
   27.6020  -20.3542   -7.5319 C   0  0  0  0  0  0  0  0  0  0  0  0
   25.4841  -20.4031  -11.1501 C   0  0  0  0  0  0  0  0  0  0  0  0
   25.3360  -19.1404  -11.2035 O   0  0  0  0  0  0  0  0  0  0  0  0
   18.7456  -24.3501  -10.7766 N   0  0  0  0  0  0  0  0  0  0  0  0
   17.9534  -23.2660  -11.3416 C   0  0  0  0  0  0  0  0  0  0  0  0
   16.7954  -23.1128  -10.9821 N   0  0  0  0  0  0  0  0  0  0  0  0
   18.5635  -22.4056  -12.3019 N   0  0  0  0  0  0  0  0  0  0  0  0
   19.9681  -22.4875  -12.5279 C   0  0  0  0  0  0  0  0  0  0  0  0
   20.6826  -21.5021  -11.6379 C   0  0  0  0  0  0  0  0  0  0  0  0
   22.1541  -21.5533  -12.0200 C   0  0  0  0  0  0  0  0  0  0  0  0
   22.9734  -20.5396  -11.1907 C   0  0  2  0  0  0  0  0  0  0  0  0
   24.2811  -21.1708  -11.0121 N   0  0  0  0  0  0  0  0  0  0  0  0
   22.2765  -20.2883   -9.9195 C   0  0  0  0  0  0  0  0  0  0  0  0
   22.4177  -21.0476   -8.9317 O   0  0  0  0  0  0  0  0  0  0  0  0
   21.4443  -19.1933   -9.7933 O   0  0  0  0  0  0  0  0  0  0  0  0
  2  1  1  6
  2  3  1  0
  2  4  1  0
  4  5  1  1
  4  6  1  0
  6  8  1  0
  6  7  2  0
  8  9  1  0
  9 20  1  0
  9 10  1  1
 10 11  1  0
 11 19  1  0
 11 12  2  0
 12 13  1  0
 14 15  2  0
 14 13  1  0
 16 15  1  0
 17 16  2  0
 18 17  1  0
 18 19  2  0
 19 14  1  0
 20 21  2  0
 22 23  1  0
 23 24  2  0
 25 26  1  0
 25 23  1  0
 27 26  1  0
 28 27  1  0
 29 28  1  6
 30 29  1  0
 30 20  1  0
 31 33  1  0
 31 29  1  0
 32 31  2  0
M  END
$$$$
