VWR.pdb
     RDKit          3D

 33 34  0  0  1  0  0  0  0  0999 V2000
   26.0356  -19.3868  -15.3880 C   0  0  0  0  0  0  0  0  0  0  0  0
   26.9509  -20.5764  -15.6324 C   0  0  1  0  0  0  0  0  0  0  0  0
   27.9528  -20.2746  -16.7243 C   0  0  0  0  0  0  0  0  0  0  0  0
   27.5810  -21.0674  -14.3603 C   0  0  2  0  0  0  0  0  0  0  0  0
   28.3673  -22.2457  -14.7028 N   0  0  0  0  0  0  0  0  0  0  0  0
   26.6594  -21.3411  -13.2655 C   0  0  0  0  0  0  0  0  0  0  0  0
   26.0012  -22.4076  -13.2212 O   0  0  0  0  0  0  0  0  0  0  0  0
   26.4758  -20.4075  -12.2123 N   0  0  0  0  0  0  0  0  0  0  0  0
   25.5176  -20.5924  -11.1299 C   0  0  1  0  0  0  0  0  0  0  0  0
   26.0489  -19.8112   -9.9597 C   0  0  0  0  0  0  0  0  0  0  0  0
   27.2482  -20.3340   -9.3245 C   0  0  0  0  0  0  0  0  0  0  0  0
   28.1715  -21.1625   -9.9645 C   0  0  0  0  0  0  0  0  0  0  0  0
   29.1807  -21.4712   -9.1222 N   0  0  0  0  0  0  0  0  0  0  0  0
   28.9453  -20.8703   -7.9524 C   0  0  0  0  0  0  0  0  0  0  0  0
   29.6652  -20.8778   -6.7856 C   0  0  0  0  0  0  0  0  0  0  0  0
   29.2197  -20.1838   -5.6953 C   0  0  0  0  0  0  0  0  0  0  0  0
   28.0354  -19.4699   -5.7718 C   0  0  0  0  0  0  0  0  0  0  0  0
   27.3288  -19.4732   -6.9463 C   0  0  0  0  0  0  0  0  0  0  0  0
   27.7507  -20.1634   -8.0664 C   0  0  0  0  0  0  0  0  0  0  0  0
   24.1399  -20.3625  -11.5127 C   0  0  0  0  0  0  0  0  0  0  0  0
   23.6786  -19.1767  -11.5109 O   0  0  0  0  0  0  0  0  0  0  0  0
   23.9679  -24.9333  -16.0576 N   0  0  0  0  0  0  0  0  0  0  0  0
   22.9592  -25.2878  -15.0682 C   0  0  0  0  0  0  0  0  0  0  0  0
   23.0823  -26.3178  -14.4219 N   0  0  0  0  0  0  0  0  0  0  0  0
   21.8519  -24.4087  -14.8795 N   0  0  0  0  0  0  0  0  0  0  0  0
   21.8418  -23.1404  -15.5291 C   0  0  0  0  0  0  0  0  0  0  0  0
   22.3464  -22.0818  -14.5813 C   0  0  0  0  0  0  0  0  0  0  0  0
   21.4719  -22.1531  -13.3387 C   0  0  0  0  0  0  0  0  0  0  0  0
   21.8630  -21.0531  -12.3270 C   0  0  2  0  0  0  0  0  0  0  0  0
   23.2249  -21.3912  -11.9128 N   0  0  0  0  0  0  0  0  0  0  0  0
   20.9023  -21.0653  -11.2128 C   0  0  0  0  0  0  0  0  0  0  0  0
   19.7155  -20.6898  -11.3645 O   0  0  0  0  0  0  0  0  0  0  0  0
   21.2997  -21.4993   -9.9632 O   0  0  0  0  0  0  0  0  0  0  0  0
  2  1  1  1
  2  3  1  0
  2  4  1  0
  4  5  1  6
  4  6  1  0
  6  8  1  0
  6  7  2  0
  8  9  1  0
  9 20  1  0
  9 10  1  1
 10 11  1  0
 11 19  1  0
 11 12  2  0
 12 13  1  0
 14 15  2  0
 14 13  1  0
 16 15  1  0
 17 16  2  0
 18 17  1  0
 18 19  2  0
 19 14  1  0
 20 21  2  0
 22 23  1  0
 23 24  2  0
 25 26  1  0
 25 23  1  0
 27 26  1  0
 28 27  1  0
 29 28  1  6
 30 29  1  0
 30 20  1  0
 31 33  1  0
 31 29  1  0
 32 31  2  0
M  END
$$$$
