VWR.pdb
     RDKit          3D

 33 34  0  0  1  0  0  0  0  0999 V2000
   22.5290  -22.6951  -12.3587 C   0  0  0  0  0  0  0  0  0  0  0  0
   21.6664  -21.4479  -12.2443 C   0  0  1  0  0  0  0  0  0  0  0  0
   20.2100  -21.7711  -12.4928 C   0  0  0  0  0  0  0  0  0  0  0  0
   21.9063  -20.7189  -10.9530 C   0  0  2  0  0  0  0  0  0  0  0  0
   20.9717  -19.6012  -10.9161 N   0  0  0  0  0  0  0  0  0  0  0  0
   23.2756  -20.2768  -10.7241 C   0  0  0  0  0  0  0  0  0  0  0  0
   23.7743  -19.3362  -11.3868 O   0  0  0  0  0  0  0  0  0  0  0  0
   24.0911  -20.8981   -9.7426 N   0  0  0  0  0  0  0  0  0  0  0  0
   25.4794  -20.5287   -9.4975 C   0  0  1  0  0  0  0  0  0  0  0  0
   25.7219  -20.7536   -8.0303 C   0  0  0  0  0  0  0  0  0  0  0  0
   26.6331  -19.8279   -7.3765 C   0  0  0  0  0  0  0  0  0  0  0  0
   26.9411  -18.5585   -7.8688 C   0  0  0  0  0  0  0  0  0  0  0  0
   27.8037  -17.9346   -7.0380 N   0  0  0  0  0  0  0  0  0  0  0  0
   28.0686  -18.7569   -6.0189 C   0  0  0  0  0  0  0  0  0  0  0  0
   28.8819  -18.5907   -4.9277 C   0  0  0  0  0  0  0  0  0  0  0  0
   29.0063  -19.5884   -4.0014 C   0  0  0  0  0  0  0  0  0  0  0  0
   28.3062  -20.7718   -4.1675 C   0  0  0  0  0  0  0  0  0  0  0  0
   27.4974  -20.9205   -5.2641 C   0  0  0  0  0  0  0  0  0  0  0  0
   27.3490  -19.9325   -6.2185 C   0  0  0  0  0  0  0  0  0  0  0  0
   26.4220  -21.1185  -10.4255 C   0  0  0  0  0  0  0  0  0  0  0  0
   26.7995  -22.3217  -10.2552 O   0  0  0  0  0  0  0  0  0  0  0  0
   24.7636  -23.4099  -17.6040 N   0  0  0  0  0  0  0  0  0  0  0  0
   25.5508  -24.5537  -17.1633 C   0  0  0  0  0  0  0  0  0  0  0  0
   25.8840  -25.4061  -17.9733 N   0  0  0  0  0  0  0  0  0  0  0  0
   25.9163  -24.6393  -15.7872 N   0  0  0  0  0  0  0  0  0  0  0  0
   25.5427  -23.5940  -14.8937 C   0  0  0  0  0  0  0  0  0  0  0  0
   26.7770  -22.8751  -14.4107 C   0  0  0  0  0  0  0  0  0  0  0  0
   26.3697  -22.0860  -13.1757 C   0  0  0  0  0  0  0  0  0  0  0  0
   27.5347  -21.2014  -12.6792 C   0  0  2  0  0  0  0  0  0  0  0  0
   26.9780  -20.4410  -11.5601 N   0  0  0  0  0  0  0  0  0  0  0  0
   27.9910  -20.3465  -13.7862 C   0  0  0  0  0  0  0  0  0  0  0  0
   27.5831  -19.1680  -13.9174 O   0  0  0  0  0  0  0  0  0  0  0  0
   28.8915  -20.8372  -14.7115 O   0  0  0  0  0  0  0  0  0  0  0  0
  2  1  1  1
  2  3  1  0
  2  4  1  0
  4  5  1  6
  4  6  1  0
  6  8  1  0
  6  7  2  0
  8  9  1  0
  9 20  1  0
  9 10  1  1
 10 11  1  0
 11 19  1  0
 11 12  2  0
 12 13  1  0
 14 15  2  0
 14 13  1  0
 16 15  1  0
 17 16  2  0
 18 17  1  0
 18 19  2  0
 19 14  1  0
 20 21  2  0
 22 23  1  0
 23 24  2  0
 25 26  1  0
 25 23  1  0
 27 26  1  0
 28 27  1  0
 29 28  1  6
 30 29  1  0
 30 20  1  0
 31 33  1  0
 31 29  1  0
 32 31  2  0
M  END
$$$$
