VWR.pdb
     RDKit          3D

 33 34  0  0  1  0  0  0  0  0999 V2000
   26.9936  -18.6628  -15.5384 C   0  0  0  0  0  0  0  0  0  0  0  0
   27.8606  -19.7587  -16.1385 C   0  0  1  0  0  0  0  0  0  0  0  0
   28.7521  -19.2087  -17.2294 C   0  0  0  0  0  0  0  0  0  0  0  0
   28.6078  -20.5216  -15.0821 C   0  0  2  0  0  0  0  0  0  0  0  0
   29.2952  -21.6165  -15.7548 N   0  0  0  0  0  0  0  0  0  0  0  0
   27.8049  -21.0020  -13.9653 C   0  0  0  0  0  0  0  0  0  0  0  0
   27.0005  -21.9538  -14.1052 O   0  0  0  0  0  0  0  0  0  0  0  0
   27.9067  -20.4068  -12.6808 N   0  0  0  0  0  0  0  0  0  0  0  0
   27.0924  -20.8076  -11.5405 C   0  0  1  0  0  0  0  0  0  0  0  0
   27.7889  -20.2750  -10.3185 C   0  0  0  0  0  0  0  0  0  0  0  0
   27.0498  -20.3518   -9.0683 C   0  0  0  0  0  0  0  0  0  0  0  0
   25.7214  -20.7700   -8.9724 C   0  0  0  0  0  0  0  0  0  0  0  0
   25.3186  -20.7456   -7.6838 N   0  0  0  0  0  0  0  0  0  0  0  0
   26.3422  -20.3245   -6.9355 C   0  0  0  0  0  0  0  0  0  0  0  0
   26.4347  -20.1266   -5.5819 C   0  0  0  0  0  0  0  0  0  0  0  0
   27.6007  -19.6758   -5.0285 C   0  0  0  0  0  0  0  0  0  0  0  0
   28.6928  -19.4188   -5.8407 C   0  0  0  0  0  0  0  0  0  0  0  0
   28.5825  -19.6227   -7.1916 C   0  0  0  0  0  0  0  0  0  0  0  0
   27.4195  -20.0775   -7.7829 C   0  0  0  0  0  0  0  0  0  0  0  0
   25.6826  -20.5097  -11.6854 C   0  0  0  0  0  0  0  0  0  0  0  0
   25.3234  -19.3523  -12.0734 O   0  0  0  0  0  0  0  0  0  0  0  0
   19.7662  -26.4441  -12.8200 N   0  0  0  0  0  0  0  0  0  0  0  0
   19.8409  -25.7128  -14.0777 C   0  0  0  0  0  0  0  0  0  0  0  0
   19.3744  -26.2076  -15.0932 N   0  0  0  0  0  0  0  0  0  0  0  0
   20.4574  -24.4265  -14.0819 N   0  0  0  0  0  0  0  0  0  0  0  0
   20.7753  -23.7946  -12.8449 C   0  0  0  0  0  0  0  0  0  0  0  0
   21.4263  -22.4607  -13.1100 C   0  0  0  0  0  0  0  0  0  0  0  0
   22.8427  -22.5476  -12.5623 C   0  0  0  0  0  0  0  0  0  0  0  0
   23.2784  -21.1992  -11.9473 C   0  0  2  0  0  0  0  0  0  0  0  0
   24.6241  -21.4414  -11.4267 N   0  0  0  0  0  0  0  0  0  0  0  0
   22.3162  -20.8179  -10.9015 C   0  0  0  0  0  0  0  0  0  0  0  0
   21.2923  -20.1437  -11.1651 O   0  0  0  0  0  0  0  0  0  0  0  0
   22.5295  -21.2050   -9.5930 O   0  0  0  0  0  0  0  0  0  0  0  0
  2  1  1  1
  2  3  1  0
  2  4  1  0
  4  5  1  6
  4  6  1  0
  6  8  1  0
  6  7  2  0
  8  9  1  0
  9 20  1  0
  9 10  1  1
 10 11  1  0
 11 19  1  0
 11 12  2  0
 12 13  1  0
 14 15  2  0
 14 13  1  0
 16 15  1  0
 17 16  2  0
 18 17  1  0
 18 19  2  0
 19 14  1  0
 20 21  2  0
 22 23  1  0
 23 24  2  0
 25 26  1  0
 25 23  1  0
 27 26  1  0
 28 27  1  0
 29 28  1  1
 30 29  1  0
 30 20  1  0
 31 33  1  0
 31 29  1  0
 32 31  2  0
M  END
$$$$
