VWR.pdb
     RDKit          3D

 33 34  0  0  1  0  0  0  0  0999 V2000
   18.8968  -16.7533  -15.6986 C   0  0  0  0  0  0  0  0  0  0  0  0
   20.3491  -17.1813  -15.5557 C   0  0  1  0  0  0  0  0  0  0  0  0
   21.0324  -16.4188  -14.4427 C   0  0  0  0  0  0  0  0  0  0  0  0
   20.4826  -18.6723  -15.4301 C   0  0  2  0  0  0  0  0  0  0  0  0
   19.6362  -19.0824  -14.3168 N   0  0  0  0  0  0  0  0  0  0  0  0
   21.8426  -19.1725  -15.2785 C   0  0  0  0  0  0  0  0  0  0  0  0
   22.5956  -19.3191  -16.2705 O   0  0  0  0  0  0  0  0  0  0  0  0
   22.3599  -19.5113  -14.0009 N   0  0  0  0  0  0  0  0  0  0  0  0
   23.7212  -19.9836  -13.7826 C   0  0  1  0  0  0  0  0  0  0  0  0
   24.0171  -19.7552  -12.3258 C   0  0  0  0  0  0  0  0  0  0  0  0
   25.3079  -20.2241  -11.8471 C   0  0  0  0  0  0  0  0  0  0  0  0
   25.4724  -21.0631  -10.7437 C   0  0  0  0  0  0  0  0  0  0  0  0
   26.7822  -21.3317  -10.5555 N   0  0  0  0  0  0  0  0  0  0  0  0
   27.4781  -20.6944  -11.5014 C   0  0  0  0  0  0  0  0  0  0  0  0
   28.8283  -20.6462  -11.7347 C   0  0  0  0  0  0  0  0  0  0  0  0
   29.3230  -19.9103  -12.7751 C   0  0  0  0  0  0  0  0  0  0  0  0
   28.4544  -19.2111  -13.5967 C   0  0  0  0  0  0  0  0  0  0  0  0
   27.1076  -19.2710  -13.3490 C   0  0  0  0  0  0  0  0  0  0  0  0
   26.5748  -20.0051  -12.3067 C   0  0  0  0  0  0  0  0  0  0  0  0
   23.9824  -21.3049  -14.3151 C   0  0  0  0  0  0  0  0  0  0  0  0
   23.1819  -22.2574  -14.0486 O   0  0  0  0  0  0  0  0  0  0  0  0
   31.3193  -24.5226  -15.5164 N   0  0  0  0  0  0  0  0  0  0  0  0
   30.4542  -25.3649  -16.3314 C   0  0  0  0  0  0  0  0  0  0  0  0
   30.6546  -26.5696  -16.3793 N   0  0  0  0  0  0  0  0  0  0  0  0
   29.3861  -24.7505  -17.0500 N   0  0  0  0  0  0  0  0  0  0  0  0
   28.9387  -23.4517  -16.6710 C   0  0  0  0  0  0  0  0  0  0  0  0
   27.7463  -23.5737  -15.7561 C   0  0  0  0  0  0  0  0  0  0  0  0
   26.5654  -22.9575  -16.4907 C   0  0  0  0  0  0  0  0  0  0  0  0
   25.2890  -23.0104  -15.6221 C   0  0  2  0  0  0  0  0  0  0  0  0
   25.0993  -21.6387  -15.1497 N   0  0  0  0  0  0  0  0  0  0  0  0
   25.4947  -23.9729  -14.5286 C   0  0  0  0  0  0  0  0  0  0  0  0
   26.0102  -23.6286  -13.4385 O   0  0  0  0  0  0  0  0  0  0  0  0
   25.1154  -25.2913  -14.6889 O   0  0  0  0  0  0  0  0  0  0  0  0
  2  1  1  1
  2  3  1  0
  2  4  1  0
  4  5  1  1
  4  6  1  0
  6  8  1  0
  6  7  2  0
  8  9  1  0
  9 20  1  0
  9 10  1  1
 10 11  1  0
 11 19  1  0
 11 12  2  0
 12 13  1  0
 14 15  2  0
 14 13  1  0
 16 15  1  0
 17 16  2  0
 18 17  1  0
 18 19  2  0
 19 14  1  0
 20 21  2  0
 22 23  1  0
 23 24  2  0
 25 26  1  0
 25 23  1  0
 27 26  1  0
 28 27  1  0
 29 28  1  6
 30 29  1  0
 30 20  1  0
 31 33  1  0
 31 29  1  0
 32 31  2  0
M  END
$$$$
