VWR.pdb
     RDKit          3D

 33 34  0  0  1  0  0  0  0  0999 V2000
   29.1013  -20.9149  -20.0672 C   0  0  0  0  0  0  0  0  0  0  0  0
   28.7021  -21.7109  -18.8344 C   0  0  1  0  0  0  0  0  0  0  0  0
   29.8978  -21.9697  -17.9452 C   0  0  0  0  0  0  0  0  0  0  0  0
   27.5444  -21.0814  -18.1133 C   0  0  2  0  0  0  0  0  0  0  0  0
   27.8611  -19.6678  -17.9538 N   0  0  0  0  0  0  0  0  0  0  0  0
   27.1861  -21.6944  -16.8411 C   0  0  0  0  0  0  0  0  0  0  0  0
   26.7260  -22.8598  -16.7878 O   0  0  0  0  0  0  0  0  0  0  0  0
   27.3455  -20.9909  -15.6187 N   0  0  0  0  0  0  0  0  0  0  0  0
   26.9274  -21.5177  -14.3258 C   0  0  1  0  0  0  0  0  0  0  0  0
   27.7694  -20.8181  -13.2944 C   0  0  0  0  0  0  0  0  0  0  0  0
   27.0521  -20.0795  -12.2673 C   0  0  0  0  0  0  0  0  0  0  0  0
   26.3280  -18.9108  -12.5094 C   0  0  0  0  0  0  0  0  0  0  0  0
   25.7660  -18.4669  -11.3647 N   0  0  0  0  0  0  0  0  0  0  0  0
   26.1004  -19.3090  -10.3828 C   0  0  0  0  0  0  0  0  0  0  0  0
   25.7858  -19.2922   -9.0485 C   0  0  0  0  0  0  0  0  0  0  0  0
   26.2543  -20.2707   -8.2167 C   0  0  0  0  0  0  0  0  0  0  0  0
   27.0500  -21.2834   -8.7263 C   0  0  0  0  0  0  0  0  0  0  0  0
   27.3541  -21.2845  -10.0629 C   0  0  0  0  0  0  0  0  0  0  0  0
   26.8970  -20.3114  -10.9307 C   0  0  0  0  0  0  0  0  0  0  0  0
   25.4934  -21.5207  -14.1230 C   0  0  0  0  0  0  0  0  0  0  0  0
   24.7690  -20.6897  -14.7584 O   0  0  0  0  0  0  0  0  0  0  0  0
   18.5661  -18.8060  -15.0429 N   0  0  0  0  0  0  0  0  0  0  0  0
   19.7649  -18.8462  -15.8696 C   0  0  0  0  0  0  0  0  0  0  0  0
   19.7016  -18.5092  -17.0427 N   0  0  0  0  0  0  0  0  0  0  0  0
   20.9881  -19.2762  -15.2751 N   0  0  0  0  0  0  0  0  0  0  0  0
   21.0625  -19.4442  -13.8620 C   0  0  0  0  0  0  0  0  0  0  0  0
   21.3836  -20.8816  -13.5389 C   0  0  0  0  0  0  0  0  0  0  0  0
   22.9001  -20.9999  -13.5263 C   0  0  0  0  0  0  0  0  0  0  0  0
   23.3362  -22.4511  -13.2258 C   0  0  2  0  0  0  0  0  0  0  0  0
   24.7987  -22.4147  -13.2434 N   0  0  0  0  0  0  0  0  0  0  0  0
   22.7697  -23.3421  -14.2504 C   0  0  0  0  0  0  0  0  0  0  0  0
   23.3876  -23.6006  -15.3105 O   0  0  0  0  0  0  0  0  0  0  0  0
   21.5294  -23.9176  -14.0555 O   0  0  0  0  0  0  0  0  0  0  0  0
  2  1  1  6
  2  3  1  0
  2  4  1  0
  4  5  1  1
  4  6  1  0
  6  8  1  0
  6  7  2  0
  8  9  1  0
  9 20  1  0
  9 10  1  1
 10 11  1  0
 11 19  1  0
 11 12  2  0
 12 13  1  0
 14 15  2  0
 14 13  1  0
 16 15  1  0
 17 16  2  0
 18 17  1  0
 18 19  2  0
 19 14  1  0
 20 21  2  0
 22 23  1  0
 23 24  2  0
 25 26  1  0
 25 23  1  0
 27 26  1  0
 28 27  1  0
 29 28  1  6
 30 29  1  0
 30 20  1  0
 31 33  1  0
 31 29  1  0
 32 31  2  0
M  END
$$$$
