VWR.pdb
     RDKit          3D

 33 34  0  0  1  0  0  0  0  0999 V2000
   23.8940  -16.5177  -17.7048 C   0  0  0  0  0  0  0  0  0  0  0  0
   25.0447  -16.6514  -18.6901 C   0  0  1  0  0  0  0  0  0  0  0  0
   25.1669  -15.4150  -19.5524 C   0  0  0  0  0  0  0  0  0  0  0  0
   26.3259  -17.0327  -18.0047 C   0  0  2  0  0  0  0  0  0  0  0  0
   27.3309  -17.2022  -19.0465 N   0  0  0  0  0  0  0  0  0  0  0  0
   26.2532  -18.2020  -17.1386 C   0  0  0  0  0  0  0  0  0  0  0  0
   26.2190  -19.3619  -17.6139 O   0  0  0  0  0  0  0  0  0  0  0  0
   26.2179  -18.0658  -15.7262 N   0  0  0  0  0  0  0  0  0  0  0  0
   26.1474  -19.1966  -14.8095 C   0  0  1  0  0  0  0  0  0  0  0  0
   27.0712  -18.8710  -13.6682 C   0  0  0  0  0  0  0  0  0  0  0  0
   27.2108  -19.8891  -12.6390 C   0  0  0  0  0  0  0  0  0  0  0  0
   28.0770  -20.9797  -12.7337 C   0  0  0  0  0  0  0  0  0  0  0  0
   27.9911  -21.7391  -11.6204 N   0  0  0  0  0  0  0  0  0  0  0  0
   27.0961  -21.1786  -10.8020 C   0  0  0  0  0  0  0  0  0  0  0  0
   26.6544  -21.5673   -9.5637 C   0  0  0  0  0  0  0  0  0  0  0  0
   25.7112  -20.8293   -8.9044 C   0  0  0  0  0  0  0  0  0  0  0  0
   25.2008  -19.6835   -9.4917 C   0  0  0  0  0  0  0  0  0  0  0  0
   25.6542  -19.3097  -10.7301 C   0  0  0  0  0  0  0  0  0  0  0  0
   26.6063  -20.0322  -11.4231 C   0  0  0  0  0  0  0  0  0  0  0  0
   24.7987  -19.6068  -14.4774 C   0  0  0  0  0  0  0  0  0  0  0  0
   23.9681  -18.7425  -14.0506 O   0  0  0  0  0  0  0  0  0  0  0  0
   18.8995  -22.5150   -9.8414 N   0  0  0  0  0  0  0  0  0  0  0  0
   18.8966  -22.9087  -11.2439 C   0  0  0  0  0  0  0  0  0  0  0  0
   17.8587  -23.2945  -11.7612 N   0  0  0  0  0  0  0  0  0  0  0  0
   20.1171  -22.8243  -11.9774 N   0  0  0  0  0  0  0  0  0  0  0  0
   21.2533  -22.2025  -11.3834 C   0  0  0  0  0  0  0  0  0  0  0  0
   21.5444  -20.9012  -12.0873 C   0  0  0  0  0  0  0  0  0  0  0  0
   22.9625  -21.0031  -12.6283 C   0  0  0  0  0  0  0  0  0  0  0  0
   22.9529  -21.2825  -14.1476 C   0  0  2  0  0  0  0  0  0  0  0  0
   24.3032  -20.9466  -14.5995 N   0  0  0  0  0  0  0  0  0  0  0  0
   21.9119  -20.4563  -14.7788 C   0  0  0  0  0  0  0  0  0  0  0  0
   21.1630  -20.9141  -15.6743 O   0  0  0  0  0  0  0  0  0  0  0  0
   21.7406  -19.1431  -14.3865 O   0  0  0  0  0  0  0  0  0  0  0  0
  2  1  1  1
  2  3  1  0
  2  4  1  0
  4  5  1  6
  4  6  1  0
  6  8  1  0
  6  7  2  0
  8  9  1  0
  9 20  1  0
  9 10  1  1
 10 11  1  0
 11 19  1  0
 11 12  2  0
 12 13  1  0
 14 15  2  0
 14 13  1  0
 16 15  1  0
 17 16  2  0
 18 17  1  0
 18 19  2  0
 19 14  1  0
 20 21  2  0
 22 23  1  0
 23 24  2  0
 25 26  1  0
 25 23  1  0
 27 26  1  0
 28 27  1  0
 29 28  1  1
 30 29  1  0
 30 20  1  0
 31 33  1  0
 31 29  1  0
 32 31  2  0
M  END
$$$$
