MAK.pdb
     RDKit          3D

 23 22  0  0  1  0  0  0  0  0999 V2000
    8.4191  -12.5560   27.0823 C   0  0  0  0  0  0  0  0  0  0  0  0
    6.8361  -12.4398   26.2470 S   0  0  0  0  0  0  0  0  0  0  0  0
    6.8012  -13.6959   24.9113 C   0  0  0  0  0  0  0  0  0  0  0  0
    7.5617  -13.1474   23.7523 C   0  0  0  0  0  0  0  0  0  0  0  0
    7.6549  -14.0929   22.5667 C   0  0  2  0  0  0  0  0  0  0  0  0
    6.2705  -14.3908   22.1184 N   0  0  0  0  0  0  0  0  0  0  0  0
    8.2622  -15.3917   22.8892 C   0  0  0  0  0  0  0  0  0  0  0  0
    7.6701  -16.1842   23.6488 O   0  0  0  0  0  0  0  0  0  0  0  0
   11.1948  -17.3003   21.5808 C   0  0  0  0  0  0  0  0  0  0  0  0
   10.0996  -17.0931   22.6585 C   0  0  2  0  0  0  0  0  0  0  0  0
    9.5301  -15.8162   22.3637 N   0  0  0  0  0  0  0  0  0  0  0  0
   10.8014  -17.1734   23.9409 C   0  0  0  0  0  0  0  0  0  0  0  0
   11.3177  -16.1391   24.4893 O   0  0  0  0  0  0  0  0  0  0  0  0
   10.9427  -18.3784   24.6310 N   0  0  0  0  0  0  0  0  0  0  0  0
   11.6441  -18.5242   25.8975 C   0  0  1  0  0  0  0  0  0  0  0  0
   10.9604  -19.4491   26.8301 C   0  0  0  0  0  0  0  0  0  0  0  0
   11.6229  -19.7531   28.1123 C   0  0  0  0  0  0  0  0  0  0  0  0
   10.9642  -20.6354   29.0833 C   0  0  0  0  0  0  0  0  0  0  0  0
   11.6412  -20.8768   30.3822 C   0  0  0  0  0  0  0  0  0  0  0  0
   10.7760  -21.7858   31.1556 N   0  0  0  0  0  0  0  0  0  0  0  0
   13.0626  -18.7712   25.6208 C   0  0  0  0  0  0  0  0  0  0  0  0
   14.1150  -18.1800   26.3068 O   0  0  0  0  0  0  0  0  0  0  0  0
   13.3766  -19.5829   24.6839 O   0  0  0  0  0  0  0  0  0  0  0  0
  2  1  1  0
  2  3  1  0
  4  5  1  0
  4  3  1  0
  5  7  1  0
  5  6  1  1
  7  8  2  0
 10  9  1  6
 10 12  1  0
 11 10  1  0
 11  7  1  0
 12 14  1  0
 12 13  2  0
 14 15  1  0
 15 21  1  0
 15 16  1  6
 17 16  1  0
 18 17  1  0
 19 18  1  0
 20 19  1  0
 21 23  2  0
 21 22  1  0
M  END
$$$$
