MAK.pdb
     RDKit          3D

 23 22  0  0  1  0  0  0  0  0999 V2000
   10.0440  -16.5546   14.6871 C   0  0  0  0  0  0  0  0  0  0  0  0
    9.6367  -14.8537   14.2893 S   0  0  0  0  0  0  0  0  0  0  0  0
    8.2518  -14.3297   15.3712 C   0  0  0  0  0  0  0  0  0  0  0  0
    8.6494  -14.6029   16.7819 C   0  0  0  0  0  0  0  0  0  0  0  0
    7.5559  -14.3279   17.8001 C   0  0  2  0  0  0  0  0  0  0  0  0
    7.6232  -12.8871   18.1551 N   0  0  0  0  0  0  0  0  0  0  0  0
    7.7214  -15.0620   19.0624 C   0  0  0  0  0  0  0  0  0  0  0  0
    8.5481  -14.6665   19.9085 O   0  0  0  0  0  0  0  0  0  0  0  0
    6.0585  -18.0673   20.5819 C   0  0  0  0  0  0  0  0  0  0  0  0
    7.1048  -16.9245   20.6356 C   0  0  2  0  0  0  0  0  0  0  0  0
    6.9639  -16.2377   19.3905 N   0  0  0  0  0  0  0  0  0  0  0  0
    8.3937  -17.5914   20.8289 C   0  0  0  0  0  0  0  0  0  0  0  0
    9.1755  -17.8385   19.8466 O   0  0  0  0  0  0  0  0  0  0  0  0
    8.8366  -17.9903   22.0910 N   0  0  0  0  0  0  0  0  0  0  0  0
   10.1005  -18.6653   22.3444 C   0  0  1  0  0  0  0  0  0  0  0  0
   10.5835  -18.4795   23.7318 C   0  0  0  0  0  0  0  0  0  0  0  0
   11.0413  -19.6713   24.4701 C   0  0  0  0  0  0  0  0  0  0  0  0
   11.5875  -19.5256   25.8250 C   0  0  0  0  0  0  0  0  0  0  0  0
   12.1876  -20.7202   26.4704 C   0  0  0  0  0  0  0  0  0  0  0  0
   12.6372  -20.3041   27.8113 N   0  0  0  0  0  0  0  0  0  0  0  0
   10.0060  -20.0392   21.8410 C   0  0  0  0  0  0  0  0  0  0  0  0
   11.0799  -20.7824   21.3698 O   0  0  0  0  0  0  0  0  0  0  0  0
    8.8633  -20.6128   21.8226 O   0  0  0  0  0  0  0  0  0  0  0  0
  2  1  1  0
  2  3  1  0
  4  5  1  0
  4  3  1  0
  5  7  1  0
  5  6  1  1
  7  8  2  0
 10  9  1  6
 10 12  1  0
 11 10  1  0
 11  7  1  0
 12 14  1  0
 12 13  2  0
 14 15  1  0
 15 21  1  0
 15 16  1  1
 17 16  1  0
 18 17  1  0
 19 18  1  0
 20 19  1  0
 21 23  2  0
 21 22  1  0
M  END
$$$$
