MAK.pdb
     RDKit          3D

 23 22  0  0  1  0  0  0  0  0999 V2000
    6.7668  -11.3313   25.9333 C   0  0  0  0  0  0  0  0  0  0  0  0
    6.3086  -13.0630   25.8434 S   0  0  0  0  0  0  0  0  0  0  0  0
    6.7226  -13.6774   24.1658 C   0  0  0  0  0  0  0  0  0  0  0  0
    7.9722  -12.9926   23.7273 C   0  0  0  0  0  0  0  0  0  0  0  0
    8.8949  -13.8606   22.8886 C   0  0  2  0  0  0  0  0  0  0  0  0
    8.2392  -14.0748   21.5731 N   0  0  0  0  0  0  0  0  0  0  0  0
    9.1215  -15.2003   23.4486 C   0  0  0  0  0  0  0  0  0  0  0  0
    9.3679  -15.3334   24.6640 O   0  0  0  0  0  0  0  0  0  0  0  0
    9.4970  -18.6246   21.9865 C   0  0  0  0  0  0  0  0  0  0  0  0
    9.2869  -17.6985   23.2119 C   0  0  2  0  0  0  0  0  0  0  0  0
    9.0706  -16.3990   22.6584 N   0  0  0  0  0  0  0  0  0  0  0  0
   10.5070  -17.8330   24.0098 C   0  0  0  0  0  0  0  0  0  0  0  0
   11.5403  -17.1134   23.7825 O   0  0  0  0  0  0  0  0  0  0  0  0
   10.6066  -18.7496   25.0578 N   0  0  0  0  0  0  0  0  0  0  0  0
   11.7663  -18.8840   25.9262 C   0  0  1  0  0  0  0  0  0  0  0  0
   11.4043  -19.2369   27.3181 C   0  0  0  0  0  0  0  0  0  0  0  0
   12.4925  -19.6025   28.2441 C   0  0  0  0  0  0  0  0  0  0  0  0
   12.1773  -19.9868   29.6255 C   0  0  0  0  0  0  0  0  0  0  0  0
   13.2805  -20.4913   30.4811 C   0  0  0  0  0  0  0  0  0  0  0  0
   12.7341  -20.6436   31.8418 N   0  0  0  0  0  0  0  0  0  0  0  0
   12.7596  -19.7265   25.2530 C   0  0  0  0  0  0  0  0  0  0  0  0
   12.4562  -20.8370   24.4768 O   0  0  0  0  0  0  0  0  0  0  0  0
   13.9993  -19.4389   25.3775 O   0  0  0  0  0  0  0  0  0  0  0  0
  2  1  1  0
  2  3  1  0
  4  5  1  0
  4  3  1  0
  5  7  1  0
  5  6  1  6
  7  8  2  0
 10  9  1  6
 10 12  1  0
 11 10  1  0
 11  7  1  0
 12 14  1  0
 12 13  2  0
 14 15  1  0
 15 21  1  0
 15 16  1  1
 17 16  1  0
 18 17  1  0
 19 18  1  0
 20 19  1  0
 21 23  2  0
 21 22  1  0
M  END
$$$$
