MAK.pdb
     RDKit          3D

 23 22  0  0  1  0  0  0  0  0999 V2000
    7.7884  -11.4125   26.8881 C   0  0  0  0  0  0  0  0  0  0  0  0
    6.4642  -12.4970   27.4241 S   0  0  0  0  0  0  0  0  0  0  0  0
    5.9050  -13.4746   25.9768 C   0  0  0  0  0  0  0  0  0  0  0  0
    6.9922  -14.4339   25.6297 C   0  0  0  0  0  0  0  0  0  0  0  0
    6.6817  -15.3191   24.4346 C   0  0  2  0  0  0  0  0  0  0  0  0
    5.6004  -16.2551   24.8364 N   0  0  0  0  0  0  0  0  0  0  0  0
    7.8082  -16.1628   24.0117 C   0  0  0  0  0  0  0  0  0  0  0  0
    8.0939  -17.1899   24.6591 O   0  0  0  0  0  0  0  0  0  0  0  0
   10.2861  -16.0154   21.1935 C   0  0  0  0  0  0  0  0  0  0  0  0
    9.7922  -16.6165   22.5345 C   0  0  2  0  0  0  0  0  0  0  0  0
    8.6196  -15.8690   22.8631 N   0  0  0  0  0  0  0  0  0  0  0  0
   10.9097  -16.4504   23.4656 C   0  0  0  0  0  0  0  0  0  0  0  0
   11.1771  -15.3180   23.9979 O   0  0  0  0  0  0  0  0  0  0  0  0
   11.7389  -17.5153   23.8214 N   0  0  0  0  0  0  0  0  0  0  0  0
   12.7249  -17.4693   24.8904 C   0  0  1  0  0  0  0  0  0  0  0  0
   12.3965  -18.3752   26.0148 C   0  0  0  0  0  0  0  0  0  0  0  0
   13.3626  -18.4784   27.1244 C   0  0  0  0  0  0  0  0  0  0  0  0
   13.0672  -19.3464   28.2711 C   0  0  0  0  0  0  0  0  0  0  0  0
   14.1307  -19.5517   29.2863 C   0  0  0  0  0  0  0  0  0  0  0  0
   13.5492  -20.3827   30.3561 N   0  0  0  0  0  0  0  0  0  0  0  0
   14.0616  -17.5846   24.2990 C   0  0  0  0  0  0  0  0  0  0  0  0
   14.4451  -18.5731   23.4026 O   0  0  0  0  0  0  0  0  0  0  0  0
   14.9544  -16.7269   24.6190 O   0  0  0  0  0  0  0  0  0  0  0  0
  2  1  1  0
  2  3  1  0
  4  5  1  0
  4  3  1  0
  5  7  1  0
  5  6  1  1
  7  8  2  0
 10  9  1  6
 10 12  1  0
 11 10  1  0
 11  7  1  0
 12 14  1  0
 12 13  2  0
 14 15  1  0
 15 21  1  0
 15 16  1  1
 17 16  1  0
 18 17  1  0
 19 18  1  0
 20 19  1  0
 21 23  2  0
 21 22  1  0
M  END
$$$$
