MAK.pdb
     RDKit          3D

 23 22  0  0  1  0  0  0  0  0999 V2000
    8.6975  -11.5225   19.7004 C   0  0  0  0  0  0  0  0  0  0  0  0
    7.2586  -12.5467   19.3882 S   0  0  0  0  0  0  0  0  0  0  0  0
    7.3731  -14.0337   20.4554 C   0  0  0  0  0  0  0  0  0  0  0  0
    8.4952  -14.8727   19.9459 C   0  0  0  0  0  0  0  0  0  0  0  0
    8.7093  -16.1614   20.7215 C   0  0  2  0  0  0  0  0  0  0  0  0
    7.3941  -16.8427   20.8346 N   0  0  0  0  0  0  0  0  0  0  0  0
    9.1758  -15.9547   22.0997 C   0  0  0  0  0  0  0  0  0  0  0  0
   10.3883  -15.7686   22.3250 O   0  0  0  0  0  0  0  0  0  0  0  0
    7.5190  -15.1939   25.3346 C   0  0  0  0  0  0  0  0  0  0  0  0
    8.7536  -15.7354   24.5690 C   0  0  2  0  0  0  0  0  0  0  0  0
    8.2935  -15.9500   23.2334 N   0  0  0  0  0  0  0  0  0  0  0  0
    9.1499  -16.9486   25.2865 C   0  0  0  0  0  0  0  0  0  0  0  0
    8.3973  -17.9827   25.3230 O   0  0  0  0  0  0  0  0  0  0  0  0
   10.3659  -17.0409   25.9655 N   0  0  0  0  0  0  0  0  0  0  0  0
   10.8468  -18.2410   26.6331 C   0  0  1  0  0  0  0  0  0  0  0  0
   12.1505  -18.7076   26.1083 C   0  0  0  0  0  0  0  0  0  0  0  0
   12.2689  -18.9381   24.6563 C   0  0  0  0  0  0  0  0  0  0  0  0
   13.5383  -19.4155   24.0942 C   0  0  0  0  0  0  0  0  0  0  0  0
   13.6457  -19.5469   22.6194 C   0  0  0  0  0  0  0  0  0  0  0  0
   14.9978  -20.0584   22.3307 N   0  0  0  0  0  0  0  0  0  0  0  0
   10.7327  -18.0477   28.0820 C   0  0  0  0  0  0  0  0  0  0  0  0
   10.8191  -19.0650   29.0229 O   0  0  0  0  0  0  0  0  0  0  0  0
   10.5369  -16.8676   28.5339 O   0  0  0  0  0  0  0  0  0  0  0  0
  2  1  1  0
  2  3  1  0
  4  5  1  0
  4  3  1  0
  5  7  1  0
  5  6  1  1
  7  8  2  0
 10  9  1  1
 10 12  1  0
 11 10  1  0
 11  7  1  0
 12 14  1  0
 12 13  2  0
 14 15  1  0
 15 21  1  0
 15 16  1  1
 17 16  1  0
 18 17  1  0
 19 18  1  0
 20 19  1  0
 21 23  2  0
 21 22  1  0
M  END
$$$$
