MAK.pdb
     RDKit          3D

 23 22  0  0  1  0  0  0  0  0999 V2000
    8.8034  -11.4718   19.3592 C   0  0  0  0  0  0  0  0  0  0  0  0
    7.1869  -12.1667   19.0111 S   0  0  0  0  0  0  0  0  0  0  0  0
    7.1844  -13.9144   19.5666 C   0  0  0  0  0  0  0  0  0  0  0  0
    8.3808  -14.1170   20.4329 C   0  0  0  0  0  0  0  0  0  0  0  0
    8.3299  -15.3789   21.2774 C   0  0  2  0  0  0  0  0  0  0  0  0
    6.9055  -15.7826   21.3985 N   0  0  0  0  0  0  0  0  0  0  0  0
    8.8143  -15.1932   22.6524 C   0  0  0  0  0  0  0  0  0  0  0  0
   10.0321  -15.0298   22.8666 O   0  0  0  0  0  0  0  0  0  0  0  0
    7.2336  -14.5004   25.9435 C   0  0  0  0  0  0  0  0  0  0  0  0
    8.4292  -15.0655   25.1343 C   0  0  2  0  0  0  0  0  0  0  0  0
    7.9441  -15.1844   23.7955 N   0  0  0  0  0  0  0  0  0  0  0  0
    8.7672  -16.3343   25.7820 C   0  0  0  0  0  0  0  0  0  0  0  0
    7.8855  -17.2384   25.9880 O   0  0  0  0  0  0  0  0  0  0  0  0
   10.0649  -16.6238   26.2065 N   0  0  0  0  0  0  0  0  0  0  0  0
   10.4559  -17.8538   26.8785 C   0  0  1  0  0  0  0  0  0  0  0  0
   11.5274  -18.5840   26.1632 C   0  0  0  0  0  0  0  0  0  0  0  0
   11.3568  -18.8205   24.7175 C   0  0  0  0  0  0  0  0  0  0  0  0
   12.3891  -19.5495   23.9702 C   0  0  0  0  0  0  0  0  0  0  0  0
   12.1410  -19.8410   22.5359 C   0  0  0  0  0  0  0  0  0  0  0  0
   13.3404  -20.5276   22.0230 N   0  0  0  0  0  0  0  0  0  0  0  0
   10.6701  -17.5627   28.2994 C   0  0  0  0  0  0  0  0  0  0  0  0
   10.6732  -16.2890   28.8521 O   0  0  0  0  0  0  0  0  0  0  0  0
   10.8731  -18.5347   29.1050 O   0  0  0  0  0  0  0  0  0  0  0  0
  2  1  1  0
  2  3  1  0
  4  5  1  0
  4  3  1  0
  5  7  1  0
  5  6  1  1
  7  8  2  0
 10  9  1  1
 10 12  1  0
 11 10  1  0
 11  7  1  0
 12 14  1  0
 12 13  2  0
 14 15  1  0
 15 21  1  0
 15 16  1  6
 17 16  1  0
 18 17  1  0
 19 18  1  0
 20 19  1  0
 21 23  2  0
 21 22  1  0
M  END
$$$$
