MAK.pdb
     RDKit          3D

 23 22  0  0  1  0  0  0  0  0999 V2000
    6.0824  -11.4379   27.4067 C   0  0  0  0  0  0  0  0  0  0  0  0
    6.7349  -12.7054   26.3183 S   0  0  0  0  0  0  0  0  0  0  0  0
    7.6418  -13.9267   27.3424 C   0  0  0  0  0  0  0  0  0  0  0  0
    8.2134  -14.9533   26.4248 C   0  0  0  0  0  0  0  0  0  0  0  0
    7.2739  -16.1083   26.1223 C   0  0  2  0  0  0  0  0  0  0  0  0
    7.0655  -16.8619   27.3853 N   0  0  0  0  0  0  0  0  0  0  0  0
    7.8151  -17.0777   25.1594 C   0  0  0  0  0  0  0  0  0  0  0  0
    8.9334  -17.5934   25.3573 O   0  0  0  0  0  0  0  0  0  0  0  0
    6.5046  -18.7118   22.0493 C   0  0  0  0  0  0  0  0  0  0  0  0
    7.6759  -18.3663   23.0044 C   0  0  2  0  0  0  0  0  0  0  0  0
    7.1116  -17.4808   23.9735 N   0  0  0  0  0  0  0  0  0  0  0  0
    8.7056  -17.7704   22.1511 C   0  0  0  0  0  0  0  0  0  0  0  0
    8.9643  -18.2351   20.9873 O   0  0  0  0  0  0  0  0  0  0  0  0
    9.4559  -16.6669   22.5603 N   0  0  0  0  0  0  0  0  0  0  0  0
   10.5702  -16.1058   21.8114 C   0  0  1  0  0  0  0  0  0  0  0  0
   10.2125  -14.8597   21.0959 C   0  0  0  0  0  0  0  0  0  0  0  0
    9.1294  -14.9225   20.0968 C   0  0  0  0  0  0  0  0  0  0  0  0
    8.7457  -13.7126   19.3590 C   0  0  0  0  0  0  0  0  0  0  0  0
    7.6050  -13.8013   18.4132 C   0  0  0  0  0  0  0  0  0  0  0  0
    7.3183  -12.4297   17.9555 N   0  0  0  0  0  0  0  0  0  0  0  0
   11.7483  -16.0689   22.6834 C   0  0  0  0  0  0  0  0  0  0  0  0
   11.7383  -16.3792   24.0367 O   0  0  0  0  0  0  0  0  0  0  0  0
   12.8750  -15.7270   22.1848 O   0  0  0  0  0  0  0  0  0  0  0  0
  2  1  1  0
  2  3  1  0
  4  5  1  0
  4  3  1  0
  5  7  1  0
  5  6  1  1
  7  8  2  0
 10  9  1  6
 10 12  1  0
 11 10  1  0
 11  7  1  0
 12 14  1  0
 12 13  2  0
 14 15  1  0
 15 21  1  0
 15 16  1  1
 17 16  1  0
 18 17  1  0
 19 18  1  0
 20 19  1  0
 21 23  2  0
 21 22  1  0
M  END
$$$$
