MAK.pdb
     RDKit          3D

 23 22  0  0  1  0  0  0  0  0999 V2000
    9.7207  -12.0406   18.6743 C   0  0  0  0  0  0  0  0  0  0  0  0
    7.9746  -12.3926   18.4644 S   0  0  0  0  0  0  0  0  0  0  0  0
    7.7500  -14.2123   18.5017 C   0  0  0  0  0  0  0  0  0  0  0  0
    9.0971  -14.8386   18.3767 C   0  0  0  0  0  0  0  0  0  0  0  0
    9.0860  -16.3561   18.4492 C   0  0  2  0  0  0  0  0  0  0  0  0
    8.0126  -16.8423   17.5448 N   0  0  0  0  0  0  0  0  0  0  0  0
    8.7606  -16.8847   19.7812 C   0  0  0  0  0  0  0  0  0  0  0  0
    7.5793  -16.8793   20.1815 O   0  0  0  0  0  0  0  0  0  0  0  0
   10.4851  -18.8962   22.3705 C   0  0  0  0  0  0  0  0  0  0  0  0
    9.4537  -17.7925   22.0217 C   0  0  2  0  0  0  0  0  0  0  0  0
    9.7488  -17.4261   20.6725 N   0  0  0  0  0  0  0  0  0  0  0  0
    9.6731  -16.7345   23.0096 C   0  0  0  0  0  0  0  0  0  0  0  0
   10.6140  -15.8775   22.8773 O   0  0  0  0  0  0  0  0  0  0  0  0
    8.8694  -16.6047   24.1433 N   0  0  0  0  0  0  0  0  0  0  0  0
    8.9930  -15.5348   25.1217 C   0  0  1  0  0  0  0  0  0  0  0  0
    7.7526  -14.7383   25.2624 C   0  0  0  0  0  0  0  0  0  0  0  0
    7.7466  -13.6348   26.2409 C   0  0  0  0  0  0  0  0  0  0  0  0
    6.5576  -12.7842   26.3747 C   0  0  0  0  0  0  0  0  0  0  0  0
    6.5851  -11.6957   27.3838 C   0  0  0  0  0  0  0  0  0  0  0  0
    5.3102  -10.9654   27.2633 N   0  0  0  0  0  0  0  0  0  0  0  0
    9.5835  -16.0859   26.3453 C   0  0  0  0  0  0  0  0  0  0  0  0
   10.3651  -15.3651   27.2382 O   0  0  0  0  0  0  0  0  0  0  0  0
    9.3800  -17.3160   26.6293 O   0  0  0  0  0  0  0  0  0  0  0  0
  2  1  1  0
  2  3  1  0
  4  5  1  0
  4  3  1  0
  5  7  1  0
  5  6  1  6
  7  8  2  0
 10  9  1  1
 10 12  1  0
 11 10  1  0
 11  7  1  0
 12 14  1  0
 12 13  2  0
 14 15  1  0
 15 21  1  0
 15 16  1  1
 17 16  1  0
 18 17  1  0
 19 18  1  0
 20 19  1  0
 21 23  2  0
 21 22  1  0
M  END
$$$$
