MAK.pdb
     RDKit          3D

 23 22  0  0  1  0  0  0  0  0999 V2000
    6.8249  -11.4553   27.4561 C   0  0  0  0  0  0  0  0  0  0  0  0
    7.1512  -13.2063   27.6669 S   0  0  0  0  0  0  0  0  0  0  0  0
    6.1217  -14.1288   26.4618 C   0  0  0  0  0  0  0  0  0  0  0  0
    6.8417  -15.3888   26.1206 C   0  0  0  0  0  0  0  0  0  0  0  0
    6.2916  -16.1080   24.9005 C   0  0  2  0  0  0  0  0  0  0  0  0
    6.1018  -17.5351   25.2665 N   0  0  0  0  0  0  0  0  0  0  0  0
    7.2036  -16.1055   23.7482 C   0  0  0  0  0  0  0  0  0  0  0  0
    8.0906  -16.9774   23.6546 O   0  0  0  0  0  0  0  0  0  0  0  0
    7.7627  -13.7443   20.8884 C   0  0  0  0  0  0  0  0  0  0  0  0
    8.1041  -15.0505   21.6505 C   0  0  2  0  0  0  0  0  0  0  0  0
    7.1295  -15.1344   22.6920 N   0  0  0  0  0  0  0  0  0  0  0  0
    9.4835  -14.8788   22.1100 C   0  0  0  0  0  0  0  0  0  0  0  0
    9.8007  -13.9751   22.9584 O   0  0  0  0  0  0  0  0  0  0  0  0
   10.5217  -15.6899   21.6490 N   0  0  0  0  0  0  0  0  0  0  0  0
   11.6318  -16.1513   22.4687 C   0  0  1  0  0  0  0  0  0  0  0  0
   11.1900  -16.7679   23.7405 C   0  0  0  0  0  0  0  0  0  0  0  0
   12.2216  -17.3348   24.6292 C   0  0  0  0  0  0  0  0  0  0  0  0
   11.8305  -17.9426   25.9070 C   0  0  0  0  0  0  0  0  0  0  0  0
   12.9053  -18.4066   26.8199 C   0  0  0  0  0  0  0  0  0  0  0  0
   12.2448  -18.9475   28.0217 N   0  0  0  0  0  0  0  0  0  0  0  0
   12.5459  -16.9268   21.6245 C   0  0  0  0  0  0  0  0  0  0  0  0
   12.2462  -17.3813   20.3472 O   0  0  0  0  0  0  0  0  0  0  0  0
   13.7056  -17.2195   22.0767 O   0  0  0  0  0  0  0  0  0  0  0  0
  2  1  1  0
  2  3  1  0
  4  5  1  0
  4  3  1  0
  5  7  1  0
  5  6  1  1
  7  8  2  0
 10  9  1  6
 10 12  1  0
 11 10  1  0
 11  7  1  0
 12 14  1  0
 12 13  2  0
 14 15  1  0
 15 21  1  0
 15 16  1  1
 17 16  1  0
 18 17  1  0
 19 18  1  0
 20 19  1  0
 21 23  2  0
 21 22  1  0
M  END
$$$$
