MAK.pdb
     RDKit          3D

 23 22  0  0  1  0  0  0  0  0999 V2000
    8.7388  -11.8974   18.9566 C   0  0  0  0  0  0  0  0  0  0  0  0
    7.9082  -13.2325   19.8196 S   0  0  0  0  0  0  0  0  0  0  0  0
    7.3416  -12.5976   21.4441 C   0  0  0  0  0  0  0  0  0  0  0  0
    6.5121  -13.6595   22.0821 C   0  0  0  0  0  0  0  0  0  0  0  0
    7.3127  -14.8309   22.6255 C   0  0  2  0  0  0  0  0  0  0  0  0
    6.3512  -15.8018   23.2080 N   0  0  0  0  0  0  0  0  0  0  0  0
    8.2298  -14.4689   23.7152 C   0  0  0  0  0  0  0  0  0  0  0  0
    9.4405  -14.2881   23.4756 O   0  0  0  0  0  0  0  0  0  0  0  0
    7.9695  -13.1539   27.1356 C   0  0  0  0  0  0  0  0  0  0  0  0
    8.7180  -14.0907   26.1530 C   0  0  2  0  0  0  0  0  0  0  0  0
    7.8024  -14.3024   25.0766 N   0  0  0  0  0  0  0  0  0  0  0  0
    9.0402  -15.2877   26.9322 C   0  0  0  0  0  0  0  0  0  0  0  0
    8.1254  -16.0245   27.4394 O   0  0  0  0  0  0  0  0  0  0  0  0
   10.3578  -15.6872   27.1609 N   0  0  0  0  0  0  0  0  0  0  0  0
   10.7397  -16.9397   27.7955 C   0  0  1  0  0  0  0  0  0  0  0  0
   11.6467  -17.7560   26.9566 C   0  0  0  0  0  0  0  0  0  0  0  0
   11.2401  -18.0334   25.5663 C   0  0  0  0  0  0  0  0  0  0  0  0
   12.1189  -18.8197   24.6918 C   0  0  0  0  0  0  0  0  0  0  0  0
   11.6366  -19.1484   23.3269 C   0  0  0  0  0  0  0  0  0  0  0  0
   12.7602  -19.7843   22.6153 N   0  0  0  0  0  0  0  0  0  0  0  0
   11.1637  -16.6572   29.1703 C   0  0  0  0  0  0  0  0  0  0  0  0
   11.3656  -17.6223   30.1478 O   0  0  0  0  0  0  0  0  0  0  0  0
   11.3653  -15.4430   29.5171 O   0  0  0  0  0  0  0  0  0  0  0  0
  2  1  1  0
  2  3  1  0
  4  5  1  0
  4  3  1  0
  5  7  1  0
  5  6  1  1
  7  8  2  0
 10  9  1  1
 10 12  1  0
 11 10  1  0
 11  7  1  0
 12 14  1  0
 12 13  2  0
 14 15  1  0
 15 21  1  0
 15 16  1  6
 17 16  1  0
 18 17  1  0
 19 18  1  0
 20 19  1  0
 21 23  2  0
 21 22  1  0
M  END
$$$$
