MAK.pdb
     RDKit          3D

 23 22  0  0  1  0  0  0  0  0999 V2000
    5.4246  -11.8240   27.8121 C   0  0  0  0  0  0  0  0  0  0  0  0
    6.6173  -11.6678   26.4817 S   0  0  0  0  0  0  0  0  0  0  0  0
    5.9542  -12.5447   25.0138 C   0  0  0  0  0  0  0  0  0  0  0  0
    5.9518  -14.0038   25.3196 C   0  0  0  0  0  0  0  0  0  0  0  0
    7.2681  -14.7028   25.0245 C   0  0  2  0  0  0  0  0  0  0  0  0
    7.4368  -14.7410   23.5492 N   0  0  0  0  0  0  0  0  0  0  0  0
    7.3108  -16.1022   25.4712 C   0  0  0  0  0  0  0  0  0  0  0  0
    7.2757  -16.3680   26.6894 O   0  0  0  0  0  0  0  0  0  0  0  0
    6.9722  -19.4136   23.8085 C   0  0  0  0  0  0  0  0  0  0  0  0
    7.4747  -18.5683   25.0070 C   0  0  2  0  0  0  0  0  0  0  0  0
    7.3883  -17.2128   24.5633 N   0  0  0  0  0  0  0  0  0  0  0  0
    8.8337  -19.0446   25.2712 C   0  0  0  0  0  0  0  0  0  0  0  0
    9.2385  -20.1842   24.8534 O   0  0  0  0  0  0  0  0  0  0  0  0
    9.7565  -18.2827   25.9895 N   0  0  0  0  0  0  0  0  0  0  0  0
   11.0822  -18.7430   26.3739 C   0  0  1  0  0  0  0  0  0  0  0  0
   12.1662  -18.0540   25.6370 C   0  0  0  0  0  0  0  0  0  0  0  0
   12.2190  -18.2175   24.1722 C   0  0  0  0  0  0  0  0  0  0  0  0
   13.3060  -17.5946   23.4068 C   0  0  0  0  0  0  0  0  0  0  0  0
   13.3140  -17.7693   21.9327 C   0  0  0  0  0  0  0  0  0  0  0  0
   14.5230  -17.0948   21.4263 N   0  0  0  0  0  0  0  0  0  0  0  0
   11.1655  -18.7590   27.8376 C   0  0  0  0  0  0  0  0  0  0  0  0
   12.1926  -19.3478   28.5631 O   0  0  0  0  0  0  0  0  0  0  0  0
   10.2365  -18.1995   28.5151 O   0  0  0  0  0  0  0  0  0  0  0  0
  2  1  1  0
  2  3  1  0
  4  5  1  0
  4  3  1  0
  5  7  1  0
  5  6  1  6
  7  8  2  0
 10  9  1  6
 10 12  1  0
 11 10  1  0
 11  7  1  0
 12 14  1  0
 12 13  2  0
 14 15  1  0
 15 21  1  0
 15 16  1  6
 17 16  1  0
 18 17  1  0
 19 18  1  0
 20 19  1  0
 21 23  2  0
 21 22  1  0
M  END
$$$$
