MAK.pdb
     RDKit          3D

 23 22  0  0  1  0  0  0  0  0999 V2000
    7.7461  -11.5338   27.3391 C   0  0  0  0  0  0  0  0  0  0  0  0
    5.9680  -11.7222   27.1992 S   0  0  0  0  0  0  0  0  0  0  0  0
    5.6143  -13.4491   26.6932 C   0  0  0  0  0  0  0  0  0  0  0  0
    6.6207  -13.8354   25.6633 C   0  0  0  0  0  0  0  0  0  0  0  0
    6.3368  -15.1648   24.9850 C   0  0  2  0  0  0  0  0  0  0  0  0
    6.5230  -16.2358   25.9974 N   0  0  0  0  0  0  0  0  0  0  0  0
    7.2624  -15.4818   23.8884 C   0  0  0  0  0  0  0  0  0  0  0  0
    8.2879  -16.1548   24.1145 O   0  0  0  0  0  0  0  0  0  0  0  0
    7.6380  -14.3401   20.3592 C   0  0  0  0  0  0  0  0  0  0  0  0
    7.9489  -15.3743   21.4716 C   0  0  2  0  0  0  0  0  0  0  0  0
    7.0482  -15.0544   22.5337 N   0  0  0  0  0  0  0  0  0  0  0  0
    9.3659  -15.1855   21.7876 C   0  0  0  0  0  0  0  0  0  0  0  0
    9.7729  -14.1855   22.4743 O   0  0  0  0  0  0  0  0  0  0  0  0
   10.3442  -16.0840   21.3587 N   0  0  0  0  0  0  0  0  0  0  0  0
   11.3892  -16.6314   22.2105 C   0  0  1  0  0  0  0  0  0  0  0  0
   10.8549  -17.2941   23.4222 C   0  0  0  0  0  0  0  0  0  0  0  0
   11.7965  -18.0502   24.2689 C   0  0  0  0  0  0  0  0  0  0  0  0
   11.2896  -18.8459   25.3937 C   0  0  0  0  0  0  0  0  0  0  0  0
   12.2612  -19.6495   26.1772 C   0  0  0  0  0  0  0  0  0  0  0  0
   11.7806  -19.6662   27.5707 N   0  0  0  0  0  0  0  0  0  0  0  0
   12.3186  -17.3990   21.3758 C   0  0  0  0  0  0  0  0  0  0  0  0
   13.6780  -17.5316   21.6254 O   0  0  0  0  0  0  0  0  0  0  0  0
   11.8684  -17.9946   20.3377 O   0  0  0  0  0  0  0  0  0  0  0  0
  2  1  1  0
  2  3  1  0
  4  5  1  0
  4  3  1  0
  5  7  1  0
  5  6  1  1
  7  8  2  0
 10  9  1  6
 10 12  1  0
 11 10  1  0
 11  7  1  0
 12 14  1  0
 12 13  2  0
 14 15  1  0
 15 21  1  0
 15 16  1  1
 17 16  1  0
 18 17  1  0
 19 18  1  0
 20 19  1  0
 21 23  2  0
 21 22  1  0
M  END
$$$$
