MAK.pdb
     RDKit          3D

 23 22  0  0  1  0  0  0  0  0999 V2000
    7.1174  -10.8516   27.4005 C   0  0  0  0  0  0  0  0  0  0  0  0
    7.0457  -11.8889   25.9390 S   0  0  0  0  0  0  0  0  0  0  0  0
    6.7691  -13.6194   26.4794 C   0  0  0  0  0  0  0  0  0  0  0  0
    6.6536  -14.4639   25.2562 C   0  0  0  0  0  0  0  0  0  0  0  0
    7.9592  -14.6450   24.5007 C   0  0  2  0  0  0  0  0  0  0  0  0
    8.6530  -13.3317   24.4793 N   0  0  0  0  0  0  0  0  0  0  0  0
    7.7826  -15.0302   23.0935 C   0  0  0  0  0  0  0  0  0  0  0  0
    7.2019  -16.0967   22.8083 O   0  0  0  0  0  0  0  0  0  0  0  0
    8.2462  -13.3686   19.7948 C   0  0  0  0  0  0  0  0  0  0  0  0
    8.1905  -14.6679   20.6386 C   0  0  2  0  0  0  0  0  0  0  0  0
    8.2480  -14.2275   21.9967 N   0  0  0  0  0  0  0  0  0  0  0  0
    9.3395  -15.4619   20.1992 C   0  0  0  0  0  0  0  0  0  0  0  0
    9.4547  -15.8634   18.9898 O   0  0  0  0  0  0  0  0  0  0  0  0
   10.3668  -15.8204   21.0734 N   0  0  0  0  0  0  0  0  0  0  0  0
   11.5920  -16.4944   20.6712 C   0  0  1  0  0  0  0  0  0  0  0  0
   12.7734  -15.6018   20.6941 C   0  0  0  0  0  0  0  0  0  0  0  0
   13.0742  -14.8216   19.4792 C   0  0  0  0  0  0  0  0  0  0  0  0
   14.4301  -14.3022   19.2622 C   0  0  0  0  0  0  0  0  0  0  0  0
   14.6865  -13.5035   18.0375 C   0  0  0  0  0  0  0  0  0  0  0  0
   16.0247  -12.9038   18.1876 N   0  0  0  0  0  0  0  0  0  0  0  0
   11.6898  -17.7621   21.4014 C   0  0  0  0  0  0  0  0  0  0  0  0
   12.4558  -18.8477   20.9985 O   0  0  0  0  0  0  0  0  0  0  0  0
   11.0293  -17.9015   22.4874 O   0  0  0  0  0  0  0  0  0  0  0  0
  2  1  1  0
  2  3  1  0
  4  5  1  0
  4  3  1  0
  5  7  1  0
  5  6  1  6
  7  8  2  0
 10  9  1  6
 10 12  1  0
 11 10  1  0
 11  7  1  0
 12 14  1  0
 12 13  2  0
 14 15  1  0
 15 21  1  0
 15 16  1  1
 17 16  1  0
 18 17  1  0
 19 18  1  0
 20 19  1  0
 21 23  2  0
 21 22  1  0
M  END
$$$$
