WTT.pdb
     RDKit          3D

 29 30  0  0  1  0  0  0  0  0999 V2000
   27.3250  -20.0314  -11.8248 N   0  0  0  0  0  0  0  0  0  0  0  0
   26.2694  -20.9929  -11.7009 C   0  0  1  0  0  0  0  0  0  0  0  0
   26.2064  -21.4831  -10.2758 C   0  0  0  0  0  0  0  0  0  0  0  0
   27.4727  -21.1427   -9.5873 C   0  0  0  0  0  0  0  0  0  0  0  0
   28.7442  -21.4110  -10.0846 C   0  0  0  0  0  0  0  0  0  0  0  0
   29.6675  -20.9835   -9.2326 N   0  0  0  0  0  0  0  0  0  0  0  0
   29.0423  -20.4320   -8.1701 C   0  0  0  0  0  0  0  0  0  0  0  0
   29.5204  -19.8403   -7.0079 C   0  0  0  0  0  0  0  0  0  0  0  0
   28.6552  -19.3372   -6.0451 C   0  0  0  0  0  0  0  0  0  0  0  0
   27.2928  -19.4423   -6.2774 C   0  0  0  0  0  0  0  0  0  0  0  0
   26.7979  -20.0349   -7.4418 C   0  0  0  0  0  0  0  0  0  0  0  0
   27.6674  -20.5229   -8.3750 C   0  0  0  0  0  0  0  0  0  0  0  0
   24.9601  -20.4785  -12.1722 C   0  0  0  0  0  0  0  0  0  0  0  0
   24.5193  -19.3574  -11.8081 O   0  0  0  0  0  0  0  0  0  0  0  0
   24.2006  -19.3524  -15.3680 C   0  0  0  0  0  0  0  0  0  0  0  0
   23.0475  -20.2589  -15.0736 C   0  0  1  0  0  0  0  0  0  0  0  0
   23.3028  -21.4689  -15.7664 O   0  0  0  0  0  0  0  0  0  0  0  0
   22.9306  -20.6363  -13.6202 C   0  0  2  0  0  0  0  0  0  0  0  0
   24.1123  -21.1928  -13.0551 N   0  0  0  0  0  0  0  0  0  0  0  0
   21.7181  -21.4763  -13.3733 C   0  0  0  0  0  0  0  0  0  0  0  0
   21.7958  -22.7331  -13.3800 O   0  0  0  0  0  0  0  0  0  0  0  0
   19.2837  -21.4590  -10.3933 C   0  0  0  0  0  0  0  0  0  0  0  0
   18.5073  -21.2915  -11.6627 C   0  0  1  0  0  0  0  0  0  0  0  0
   18.1387  -19.9512  -11.7772 O   0  0  0  0  0  0  0  0  0  0  0  0
   19.2991  -21.7459  -12.8788 C   0  0  2  0  0  0  0  0  0  0  0  0
   20.4372  -20.9124  -13.1220 N   0  0  0  0  0  0  0  0  0  0  0  0
   18.4257  -21.9118  -14.0486 C   0  0  0  0  0  0  0  0  0  0  0  0
   18.6222  -21.2914  -15.1140 O   0  0  0  0  0  0  0  0  0  0  0  0
   17.3554  -22.7775  -13.9732 O   0  0  0  0  0  0  0  0  0  0  0  0
  2 13  1  0
  2  1  1  1
  3  2  1  0
  3  4  1  0
  4  5  2  0
  4 12  1  0
  5  6  1  0
  6  7  1  0
  7  8  2  0
  8  9  1  0
 10  9  2  0
 11 10  1  0
 12 11  2  0
 12  7  1  0
 13 19  1  0
 14 13  2  0
 16 17  1  0
 16 15  1  1
 18 19  1  6
 18 16  1  0
 20 21  2  0
 20 18  1  0
 23 22  1  1
 23 25  1  0
 24 23  1  0
 25 26  1  6
 25 27  1  0
 26 20  1  0
 27 28  2  0
 27 29  1  0
M  END
$$$$
