WTT.pdb
     RDKit          3D

 29 30  0  0  1  0  0  0  0  0999 V2000
   25.1179  -20.9317   -8.4310 N   0  0  0  0  0  0  0  0  0  0  0  0
   26.1076  -20.3677   -9.3006 C   0  0  1  0  0  0  0  0  0  0  0  0
   27.4801  -20.6426   -8.7385 C   0  0  0  0  0  0  0  0  0  0  0  0
   27.6911  -19.8037   -7.5365 C   0  0  0  0  0  0  0  0  0  0  0  0
   27.1636  -18.5290   -7.3548 C   0  0  0  0  0  0  0  0  0  0  0  0
   27.5354  -18.0444   -6.1767 N   0  0  0  0  0  0  0  0  0  0  0  0
   28.3037  -18.9685   -5.5604 C   0  0  0  0  0  0  0  0  0  0  0  0
   28.9446  -18.9800   -4.3282 C   0  0  0  0  0  0  0  0  0  0  0  0
   29.6918  -20.0745   -3.9130 C   0  0  0  0  0  0  0  0  0  0  0  0
   29.7809  -21.1621   -4.7676 C   0  0  0  0  0  0  0  0  0  0  0  0
   29.1415  -21.1643   -6.0099 C   0  0  0  0  0  0  0  0  0  0  0  0
   28.4120  -20.0769   -6.3974 C   0  0  0  0  0  0  0  0  0  0  0  0
   25.9764  -20.8309  -10.7039 C   0  0  0  0  0  0  0  0  0  0  0  0
   26.2064  -22.0241  -11.0314 O   0  0  0  0  0  0  0  0  0  0  0  0
   23.6154  -22.1510  -12.3739 C   0  0  0  0  0  0  0  0  0  0  0  0
   23.9503  -21.0219  -13.2963 C   0  0  1  0  0  0  0  0  0  0  0  0
   23.0562  -19.9682  -12.9803 O   0  0  0  0  0  0  0  0  0  0  0  0
   25.3329  -20.4613  -13.0892 C   0  0  2  0  0  0  0  0  0  0  0  0
   25.5885  -19.9850  -11.7726 N   0  0  0  0  0  0  0  0  0  0  0  0
   25.6766  -19.4599  -14.1455 C   0  0  0  0  0  0  0  0  0  0  0  0
   25.4447  -18.2351  -13.9684 O   0  0  0  0  0  0  0  0  0  0  0  0
   29.0973  -18.8646  -15.8078 C   0  0  0  0  0  0  0  0  0  0  0  0
   28.0615  -19.0654  -16.8703 C   0  0  1  0  0  0  0  0  0  0  0  0
   28.2032  -20.3552  -17.3821 O   0  0  0  0  0  0  0  0  0  0  0  0
   26.6533  -18.8388  -16.3430 C   0  0  2  0  0  0  0  0  0  0  0  0
   26.2725  -19.8295  -15.3825 N   0  0  0  0  0  0  0  0  0  0  0  0
   25.6934  -18.6820  -17.4443 C   0  0  0  0  0  0  0  0  0  0  0  0
   25.8230  -17.7951  -18.3134 O   0  0  0  0  0  0  0  0  0  0  0  0
   24.6151  -19.5372  -17.5254 O   0  0  0  0  0  0  0  0  0  0  0  0
  2 13  1  0
  2  1  1  1
  3  2  1  0
  3  4  1  0
  4  5  2  0
  4 12  1  0
  5  6  1  0
  6  7  1  0
  7  8  2  0
  8  9  1  0
 10  9  2  0
 11 10  1  0
 12 11  2  0
 12  7  1  0
 13 19  1  0
 14 13  2  0
 16 17  1  0
 16 15  1  1
 18 19  1  1
 18 16  1  0
 20 21  2  0
 20 18  1  0
 23 22  1  1
 23 25  1  0
 24 23  1  0
 25 26  1  6
 25 27  1  0
 26 20  1  0
 27 28  2  0
 27 29  1  0
M  END
$$$$
