WTT.pdb
     RDKit          3D

 29 30  0  0  1  0  0  0  0  0999 V2000
   27.1216  -22.4063  -11.9385 N   0  0  0  0  0  0  0  0  0  0  0  0
   26.2904  -21.2566  -11.7355 C   0  0  1  0  0  0  0  0  0  0  0  0
   27.1600  -20.0338  -11.5811 C   0  0  0  0  0  0  0  0  0  0  0  0
   28.0946  -20.2403  -10.4510 C   0  0  0  0  0  0  0  0  0  0  0  0
   29.4332  -20.5968  -10.5821 C   0  0  0  0  0  0  0  0  0  0  0  0
   29.9968  -20.7037   -9.3855 N   0  0  0  0  0  0  0  0  0  0  0  0
   29.0633  -20.4258   -8.4499 C   0  0  0  0  0  0  0  0  0  0  0  0
   29.1125  -20.3903   -7.0622 C   0  0  0  0  0  0  0  0  0  0  0  0
   27.9915  -20.0691   -6.3079 C   0  0  0  0  0  0  0  0  0  0  0  0
   26.8149  -19.7830   -6.9823 C   0  0  0  0  0  0  0  0  0  0  0  0
   26.7509  -19.8149   -8.3776 C   0  0  0  0  0  0  0  0  0  0  0  0
   27.8659  -20.1334   -9.0990 C   0  0  0  0  0  0  0  0  0  0  0  0
   25.2703  -21.0851  -12.7989 C   0  0  0  0  0  0  0  0  0  0  0  0
   25.5749  -21.1160  -14.0196 O   0  0  0  0  0  0  0  0  0  0  0  0
   22.5860  -23.3469  -13.5681 C   0  0  0  0  0  0  0  0  0  0  0  0
   21.9293  -22.0042  -13.5085 C   0  0  1  0  0  0  0  0  0  0  0  0
   21.2955  -21.9245  -12.2430 O   0  0  0  0  0  0  0  0  0  0  0  0
   22.9001  -20.8534  -13.5531 C   0  0  2  0  0  0  0  0  0  0  0  0
   23.8938  -20.8761  -12.5345 N   0  0  0  0  0  0  0  0  0  0  0  0
   22.1849  -19.5426  -13.6368 C   0  0  0  0  0  0  0  0  0  0  0  0
   22.0317  -18.8284  -12.6112 O   0  0  0  0  0  0  0  0  0  0  0  0
   22.8983  -16.5222  -16.0362 C   0  0  0  0  0  0  0  0  0  0  0  0
   21.4706  -16.9623  -16.1368 C   0  0  1  0  0  0  0  0  0  0  0  0
   21.3259  -17.7180  -17.3001 O   0  0  0  0  0  0  0  0  0  0  0  0
   21.0308  -17.7523  -14.9141 C   0  0  2  0  0  0  0  0  0  0  0  0
   21.6499  -19.0416  -14.8553 N   0  0  0  0  0  0  0  0  0  0  0  0
   19.5658  -17.7935  -14.8081 C   0  0  0  0  0  0  0  0  0  0  0  0
   18.8799  -16.7544  -14.7166 O   0  0  0  0  0  0  0  0  0  0  0  0
   18.9241  -19.0137  -14.8092 O   0  0  0  0  0  0  0  0  0  0  0  0
  2 13  1  0
  2  1  1  6
  3  2  1  0
  3  4  1  0
  4  5  2  0
  4 12  1  0
  5  6  1  0
  6  7  1  0
  7  8  2  0
  8  9  1  0
 10  9  2  0
 11 10  1  0
 12 11  2  0
 12  7  1  0
 13 19  1  0
 14 13  2  0
 16 17  1  0
 16 15  1  1
 18 19  1  1
 18 16  1  0
 20 21  2  0
 20 18  1  0
 23 22  1  1
 23 25  1  0
 24 23  1  0
 25 26  1  6
 25 27  1  0
 26 20  1  0
 27 28  2  0
 27 29  1  0
M  END
$$$$
