WTT.pdb
     RDKit          3D

 29 30  0  0  1  0  0  0  0  0999 V2000
   24.0024  -21.2247  -14.4743 N   0  0  0  0  0  0  0  0  0  0  0  0
   23.7046  -20.8979  -13.1110 C   0  0  1  0  0  0  0  0  0  0  0  0
   22.3492  -21.4527  -12.7501 C   0  0  0  0  0  0  0  0  0  0  0  0
   21.3029  -20.6843  -13.4628 C   0  0  0  0  0  0  0  0  0  0  0  0
   20.7319  -19.5024  -13.0010 C   0  0  0  0  0  0  0  0  0  0  0  0
   19.8277  -19.0630  -13.8672 N   0  0  0  0  0  0  0  0  0  0  0  0
   19.7782  -19.9264  -14.9045 C   0  0  0  0  0  0  0  0  0  0  0  0
   19.0191  -19.9477  -16.0675 C   0  0  0  0  0  0  0  0  0  0  0  0
   19.1558  -20.9673  -17.0004 C   0  0  0  0  0  0  0  0  0  0  0  0
   20.0763  -21.9694  -16.7374 C   0  0  0  0  0  0  0  0  0  0  0  0
   20.8466  -21.9608  -15.5717 C   0  0  0  0  0  0  0  0  0  0  0  0
   20.6953  -20.9480  -14.6682 C   0  0  0  0  0  0  0  0  0  0  0  0
   24.7588  -21.3418  -12.1662 C   0  0  0  0  0  0  0  0  0  0  0  0
   25.0976  -22.5501  -12.0725 O   0  0  0  0  0  0  0  0  0  0  0  0
   28.4194  -19.7138  -11.7855 C   0  0  0  0  0  0  0  0  0  0  0  0
   27.8625  -21.0102  -11.2884 C   0  0  1  0  0  0  0  0  0  0  0  0
   28.8060  -21.5224  -10.3629 O   0  0  0  0  0  0  0  0  0  0  0  0
   26.5755  -20.8607  -10.5204 C   0  0  2  0  0  0  0  0  0  0  0  0
   25.4590  -20.4592  -11.3064 N   0  0  0  0  0  0  0  0  0  0  0  0
   26.7644  -20.0110   -9.3042 C   0  0  0  0  0  0  0  0  0  0  0  0
   26.3213  -18.8329   -9.2693 O   0  0  0  0  0  0  0  0  0  0  0  0
   25.8631  -20.6200   -5.6412 C   0  0  0  0  0  0  0  0  0  0  0  0
   27.3160  -20.2642   -5.7078 C   0  0  1  0  0  0  0  0  0  0  0  0
   28.0612  -21.4245   -5.4987 O   0  0  0  0  0  0  0  0  0  0  0  0
   27.6823  -19.6110   -7.0313 C   0  0  2  0  0  0  0  0  0  0  0  0
   27.4412  -20.4783   -8.1443 N   0  0  0  0  0  0  0  0  0  0  0  0
   29.0447  -19.0620   -6.9926 C   0  0  0  0  0  0  0  0  0  0  0  0
   29.9286  -19.4288   -7.7943 O   0  0  0  0  0  0  0  0  0  0  0  0
   29.3621  -18.1129   -6.0445 O   0  0  0  0  0  0  0  0  0  0  0  0
  2 13  1  0
  2  1  1  6
  3  2  1  0
  3  4  1  0
  4  5  2  0
  4 12  1  0
  5  6  1  0
  6  7  1  0
  7  8  2  0
  8  9  1  0
 10  9  2  0
 11 10  1  0
 12 11  2  0
 12  7  1  0
 13 19  1  0
 14 13  2  0
 16 17  1  0
 16 15  1  1
 18 19  1  6
 18 16  1  0
 20 21  2  0
 20 18  1  0
 23 22  1  6
 23 25  1  0
 24 23  1  0
 25 26  1  6
 25 27  1  0
 26 20  1  0
 27 28  2  0
 27 29  1  0
M  END
$$$$
