WTT.pdb
     RDKit          3D

 29 30  0  0  1  0  0  0  0  0999 V2000
   27.5590  -22.3924  -12.4934 N   0  0  0  0  0  0  0  0  0  0  0  0
   26.5273  -21.5323  -11.9937 C   0  0  1  0  0  0  0  0  0  0  0  0
   27.1442  -20.2453  -11.5056 C   0  0  0  0  0  0  0  0  0  0  0  0
   27.9390  -20.5180  -10.2861 C   0  0  0  0  0  0  0  0  0  0  0  0
   29.2379  -21.0171  -10.2795 C   0  0  0  0  0  0  0  0  0  0  0  0
   29.6700  -21.1498   -9.0318 N   0  0  0  0  0  0  0  0  0  0  0  0
   28.6868  -20.7495   -8.1969 C   0  0  0  0  0  0  0  0  0  0  0  0
   28.6069  -20.6813   -6.8119 C   0  0  0  0  0  0  0  0  0  0  0  0
   27.4602  -20.2231   -6.1765 C   0  0  0  0  0  0  0  0  0  0  0  0
   26.3909  -19.8333   -6.9675 C   0  0  0  0  0  0  0  0  0  0  0  0
   26.4573  -19.8965   -8.3616 C   0  0  0  0  0  0  0  0  0  0  0  0
   27.5953  -20.3505   -8.9649 C   0  0  0  0  0  0  0  0  0  0  0  0
   25.4452  -21.2933  -12.9800 C   0  0  0  0  0  0  0  0  0  0  0  0
   25.6936  -20.9527  -14.1658 O   0  0  0  0  0  0  0  0  0  0  0  0
   23.3074  -23.6220  -14.4563 C   0  0  0  0  0  0  0  0  0  0  0  0
   22.3567  -22.5367  -14.0612 C   0  0  1  0  0  0  0  0  0  0  0  0
   21.6723  -23.0033  -12.9109 O   0  0  0  0  0  0  0  0  0  0  0  0
   23.0368  -21.2596  -13.6428 C   0  0  2  0  0  0  0  0  0  0  0  0
   24.0675  -21.4260  -12.6755 N   0  0  0  0  0  0  0  0  0  0  0  0
   22.0393  -20.2154  -13.2539 C   0  0  0  0  0  0  0  0  0  0  0  0
   21.9370  -19.8399  -12.0565 O   0  0  0  0  0  0  0  0  0  0  0  0
   21.6039  -16.6762  -14.8100 C   0  0  0  0  0  0  0  0  0  0  0  0
   20.2911  -17.3963  -14.7982 C   0  0  1  0  0  0  0  0  0  0  0  0
   20.0270  -17.8469  -16.0915 O   0  0  0  0  0  0  0  0  0  0  0  0
   20.2826  -18.5487  -13.8060 C   0  0  2  0  0  0  0  0  0  0  0  0
   21.1697  -19.6019  -14.1969 N   0  0  0  0  0  0  0  0  0  0  0  0
   18.9120  -19.0006  -13.5298 C   0  0  0  0  0  0  0  0  0  0  0  0
   18.5242  -20.1515  -13.8190 O   0  0  0  0  0  0  0  0  0  0  0  0
   18.0232  -18.1316  -12.9335 O   0  0  0  0  0  0  0  0  0  0  0  0
  2 13  1  0
  2  1  1  6
  3  2  1  0
  3  4  1  0
  4  5  2  0
  4 12  1  0
  5  6  1  0
  6  7  1  0
  7  8  2  0
  8  9  1  0
 10  9  2  0
 11 10  1  0
 12 11  2  0
 12  7  1  0
 13 19  1  0
 14 13  2  0
 16 17  1  0
 16 15  1  1
 18 19  1  1
 18 16  1  0
 20 21  2  0
 20 18  1  0
 23 22  1  6
 23 25  1  0
 24 23  1  0
 25 26  1  6
 25 27  1  0
 26 20  1  0
 27 28  2  0
 27 29  1  0
M  END
$$$$
