WTT.pdb
     RDKit          3D

 29 30  0  0  1  0  0  0  0  0999 V2000
   25.4570  -21.2424   -8.2428 N   0  0  0  0  0  0  0  0  0  0  0  0
   26.2354  -20.3587   -9.0596 C   0  0  1  0  0  0  0  0  0  0  0  0
   27.6387  -20.2803   -8.5121 C   0  0  0  0  0  0  0  0  0  0  0  0
   27.6212  -19.5364   -7.2317 C   0  0  0  0  0  0  0  0  0  0  0  0
   26.9704  -18.3237   -7.0264 C   0  0  0  0  0  0  0  0  0  0  0  0
   27.1442  -17.9182   -5.7748 N   0  0  0  0  0  0  0  0  0  0  0  0
   27.8999  -18.8347   -5.1323 C   0  0  0  0  0  0  0  0  0  0  0  0
   28.3738  -18.9073   -3.8287 C   0  0  0  0  0  0  0  0  0  0  0  0
   29.1490  -19.9771   -3.4007 C   0  0  0  0  0  0  0  0  0  0  0  0
   29.4386  -20.9767   -4.3160 C   0  0  0  0  0  0  0  0  0  0  0  0
   28.9687  -20.9168   -5.6304 C   0  0  0  0  0  0  0  0  0  0  0  0
   28.2079  -19.8551   -6.0292 C   0  0  0  0  0  0  0  0  0  0  0  0
   26.2167  -20.7312  -10.4955 C   0  0  0  0  0  0  0  0  0  0  0  0
   26.9440  -21.6521  -10.9500 O   0  0  0  0  0  0  0  0  0  0  0  0
   24.0235  -22.5807  -12.4069 C   0  0  0  0  0  0  0  0  0  0  0  0
   24.1484  -21.3173  -13.1981 C   0  0  1  0  0  0  0  0  0  0  0  0
   23.0163  -20.5283  -12.8736 O   0  0  0  0  0  0  0  0  0  0  0  0
   25.3473  -20.4857  -12.8245 C   0  0  2  0  0  0  0  0  0  0  0  0
   25.3941  -20.0934  -11.4572 N   0  0  0  0  0  0  0  0  0  0  0  0
   25.5248  -19.3360  -13.7644 C   0  0  0  0  0  0  0  0  0  0  0  0
   25.1735  -18.1739  -13.4304 O   0  0  0  0  0  0  0  0  0  0  0  0
   28.6684  -18.0305  -15.4595 C   0  0  0  0  0  0  0  0  0  0  0  0
   27.6390  -18.2774  -16.5185 C   0  0  1  0  0  0  0  0  0  0  0  0
   27.9789  -19.4487  -17.1952 O   0  0  0  0  0  0  0  0  0  0  0  0
   26.2362  -18.3692  -15.9387 C   0  0  2  0  0  0  0  0  0  0  0  0
   26.0893  -19.4899  -15.0603 N   0  0  0  0  0  0  0  0  0  0  0  0
   25.2197  -18.3097  -16.9980 C   0  0  0  0  0  0  0  0  0  0  0  0
   25.1653  -17.3631  -17.8101 O   0  0  0  0  0  0  0  0  0  0  0  0
   24.2954  -19.3272  -17.1029 O   0  0  0  0  0  0  0  0  0  0  0  0
  2 13  1  0
  2  1  1  1
  3  2  1  0
  3  4  1  0
  4  5  2  0
  4 12  1  0
  5  6  1  0
  6  7  1  0
  7  8  2  0
  8  9  1  0
 10  9  2  0
 11 10  1  0
 12 11  2  0
 12  7  1  0
 13 19  1  0
 14 13  2  0
 16 17  1  0
 16 15  1  1
 18 19  1  1
 18 16  1  0
 20 21  2  0
 20 18  1  0
 23 22  1  1
 23 25  1  0
 24 23  1  0
 25 26  1  6
 25 27  1  0
 26 20  1  0
 27 28  2  0
 27 29  1  0
M  END
$$$$
