WTT.pdb
     RDKit          3D

 29 30  0  0  1  0  0  0  0  0999 V2000
   24.8353  -20.7543   -8.1720 N   0  0  0  0  0  0  0  0  0  0  0  0
   26.0307  -20.4295   -8.8927 C   0  0  1  0  0  0  0  0  0  0  0  0
   27.2267  -20.9482   -8.1340 C   0  0  0  0  0  0  0  0  0  0  0  0
   27.6211  -19.9553   -7.1085 C   0  0  0  0  0  0  0  0  0  0  0  0
   27.1477  -18.6484   -7.0446 C   0  0  0  0  0  0  0  0  0  0  0  0
   27.6914  -18.0155   -6.0127 N   0  0  0  0  0  0  0  0  0  0  0  0
   28.5224  -18.8712   -5.3794 C   0  0  0  0  0  0  0  0  0  0  0  0
   29.3312  -18.7315   -4.2588 C   0  0  0  0  0  0  0  0  0  0  0  0
   30.1098  -19.7836   -3.7945 C   0  0  0  0  0  0  0  0  0  0  0  0
   30.0573  -20.9845   -4.4846 C   0  0  0  0  0  0  0  0  0  0  0  0
   29.2484  -21.1392   -5.6132 C   0  0  0  0  0  0  0  0  0  0  0  0
   28.4910  -20.0908   -6.0518 C   0  0  0  0  0  0  0  0  0  0  0  0
   26.0088  -20.9101  -10.2961 C   0  0  0  0  0  0  0  0  0  0  0  0
   26.3658  -22.0776  -10.6016 O   0  0  0  0  0  0  0  0  0  0  0  0
   23.4116  -21.9080  -12.4748 C   0  0  0  0  0  0  0  0  0  0  0  0
   24.1456  -20.8545  -13.2424 C   0  0  1  0  0  0  0  0  0  0  0  0
   23.4281  -19.6471  -13.0513 O   0  0  0  0  0  0  0  0  0  0  0  0
   25.5363  -20.5899  -12.7281 C   0  0  2  0  0  0  0  0  0  0  0  0
   25.5922  -20.1103  -11.3892 N   0  0  0  0  0  0  0  0  0  0  0  0
   26.3154  -19.7408  -13.6815 C   0  0  0  0  0  0  0  0  0  0  0  0
   27.1684  -18.9172  -13.2578 O   0  0  0  0  0  0  0  0  0  0  0  0
   28.1503  -21.8568  -15.7620 C   0  0  0  0  0  0  0  0  0  0  0  0
   28.4463  -20.3916  -15.6756 C   0  0  1  0  0  0  0  0  0  0  0  0
   29.4906  -20.1030  -16.5540 O   0  0  0  0  0  0  0  0  0  0  0  0
   27.2222  -19.5441  -15.9853 C   0  0  2  0  0  0  0  0  0  0  0  0
   26.1388  -19.8165  -15.0903 N   0  0  0  0  0  0  0  0  0  0  0  0
   26.8561  -19.6402  -17.4050 C   0  0  0  0  0  0  0  0  0  0  0  0
   25.7557  -20.0995  -17.7747 O   0  0  0  0  0  0  0  0  0  0  0  0
   27.7510  -19.2116  -18.3622 O   0  0  0  0  0  0  0  0  0  0  0  0
  2 13  1  0
  2  1  1  1
  3  2  1  0
  3  4  1  0
  4  5  2  0
  4 12  1  0
  5  6  1  0
  6  7  1  0
  7  8  2  0
  8  9  1  0
 10  9  2  0
 11 10  1  0
 12 11  2  0
 12  7  1  0
 13 19  1  0
 14 13  2  0
 16 17  1  0
 16 15  1  1
 18 19  1  1
 18 16  1  0
 20 21  2  0
 20 18  1  0
 23 22  1  6
 23 25  1  0
 24 23  1  0
 25 26  1  1
 25 27  1  0
 26 20  1  0
 27 28  2  0
 27 29  1  0
M  END
$$$$
