WTT.pdb
     RDKit          3D

 29 30  0  0  1  0  0  0  0  0999 V2000
   27.1143  -22.5681  -10.6780 N   0  0  0  0  0  0  0  0  0  0  0  0
   26.4032  -21.3300  -10.8027 C   0  0  1  0  0  0  0  0  0  0  0  0
   27.3919  -20.1969  -10.9200 C   0  0  0  0  0  0  0  0  0  0  0  0
   28.3122  -20.2316   -9.7603 C   0  0  0  0  0  0  0  0  0  0  0  0
   29.5926  -20.7759   -9.7782 C   0  0  0  0  0  0  0  0  0  0  0  0
   30.1588  -20.6514   -8.5845 N   0  0  0  0  0  0  0  0  0  0  0  0
   29.2841  -20.0332   -7.7618 C   0  0  0  0  0  0  0  0  0  0  0  0
   29.3612  -19.6594   -6.4263 C   0  0  0  0  0  0  0  0  0  0  0  0
   28.3029  -19.0211   -5.7929 C   0  0  0  0  0  0  0  0  0  0  0  0
   27.1603  -18.7658   -6.5348 C   0  0  0  0  0  0  0  0  0  0  0  0
   27.0688  -19.1362   -7.8788 C   0  0  0  0  0  0  0  0  0  0  0  0
   28.1221  -19.7629   -8.4812 C   0  0  0  0  0  0  0  0  0  0  0  0
   25.4249  -21.3346  -11.9180 C   0  0  0  0  0  0  0  0  0  0  0  0
   25.6544  -21.9395  -12.9974 O   0  0  0  0  0  0  0  0  0  0  0  0
   22.1489  -22.8669  -11.8464 C   0  0  0  0  0  0  0  0  0  0  0  0
   21.9154  -21.4987  -12.4041 C   0  0  1  0  0  0  0  0  0  0  0  0
   21.4146  -20.7115  -11.3369 O   0  0  0  0  0  0  0  0  0  0  0  0
   23.1734  -20.8105  -12.8649 C   0  0  2  0  0  0  0  0  0  0  0  0
   24.1741  -20.6708  -11.8625 N   0  0  0  0  0  0  0  0  0  0  0  0
   22.8645  -19.5227  -13.5598 C   0  0  0  0  0  0  0  0  0  0  0  0
   22.6649  -18.4691  -12.8999 O   0  0  0  0  0  0  0  0  0  0  0  0
   24.5718  -17.9147  -16.8918 C   0  0  0  0  0  0  0  0  0  0  0  0
   23.0826  -18.0442  -16.9790 C   0  0  1  0  0  0  0  0  0  0  0  0
   22.7849  -19.1442  -17.7832 O   0  0  0  0  0  0  0  0  0  0  0  0
   22.4415  -18.1814  -15.6069 C   0  0  2  0  0  0  0  0  0  0  0  0
   22.7816  -19.4203  -14.9756 N   0  0  0  0  0  0  0  0  0  0  0  0
   20.9960  -17.9255  -15.6689 C   0  0  0  0  0  0  0  0  0  0  0  0
   20.5341  -16.8277  -16.0434 O   0  0  0  0  0  0  0  0  0  0  0  0
   20.1185  -18.9241  -15.3037 O   0  0  0  0  0  0  0  0  0  0  0  0
  2 13  1  0
  2  1  1  6
  3  2  1  0
  3  4  1  0
  4  5  2  0
  4 12  1  0
  5  6  1  0
  6  7  1  0
  7  8  2  0
  8  9  1  0
 10  9  2  0
 11 10  1  0
 12 11  2  0
 12  7  1  0
 13 19  1  0
 14 13  2  0
 16 17  1  0
 16 15  1  1
 18 19  1  1
 18 16  1  0
 20 21  2  0
 20 18  1  0
 23 22  1  1
 23 25  1  0
 24 23  1  0
 25 26  1  6
 25 27  1  0
 26 20  1  0
 27 28  2  0
 27 29  1  0
M  END
$$$$
