WTT.pdb
     RDKit          3D

 29 30  0  0  1  0  0  0  0  0999 V2000
   23.8933  -19.8760  -17.9780 N   0  0  0  0  0  0  0  0  0  0  0  0
   22.8488  -19.1910  -17.2754 C   0  0  1  0  0  0  0  0  0  0  0  0
   22.1286  -18.2693  -18.2278 C   0  0  0  0  0  0  0  0  0  0  0  0
   23.1077  -17.6818  -19.1708 C   0  0  0  0  0  0  0  0  0  0  0  0
   24.1961  -16.8982  -18.8001 C   0  0  0  0  0  0  0  0  0  0  0  0
   24.8789  -16.5265  -19.8756 N   0  0  0  0  0  0  0  0  0  0  0  0
   24.2712  -17.0448  -20.9647 C   0  0  0  0  0  0  0  0  0  0  0  0
   24.5610  -16.9700  -22.3211 C   0  0  0  0  0  0  0  0  0  0  0  0
   23.7653  -17.6050  -23.2656 C   0  0  0  0  0  0  0  0  0  0  0  0
   22.6669  -18.3201  -22.8146 C   0  0  0  0  0  0  0  0  0  0  0  0
   22.3634  -18.4039  -21.4534 C   0  0  0  0  0  0  0  0  0  0  0  0
   23.1602  -17.7713  -20.5423 C   0  0  0  0  0  0  0  0  0  0  0  0
   21.9176  -20.1134  -16.5803 C   0  0  0  0  0  0  0  0  0  0  0  0
   21.6464  -21.2522  -17.0421 O   0  0  0  0  0  0  0  0  0  0  0  0
   22.4911  -21.4957  -13.2902 C   0  0  0  0  0  0  0  0  0  0  0  0
   21.0565  -21.0725  -13.2627 C   0  0  1  0  0  0  0  0  0  0  0  0
   21.0090  -19.8672  -12.5180 O   0  0  0  0  0  0  0  0  0  0  0  0
   20.4989  -20.7365  -14.6209 C   0  0  2  0  0  0  0  0  0  0  0  0
   21.2680  -19.7956  -15.3616 N   0  0  0  0  0  0  0  0  0  0  0  0
   19.0523  -20.3659  -14.5374 C   0  0  0  0  0  0  0  0  0  0  0  0
   18.6781  -19.1853  -14.7646 O   0  0  0  0  0  0  0  0  0  0  0  0
   14.3261  -21.6857  -14.7358 C   0  0  0  0  0  0  0  0  0  0  0  0
   15.7796  -22.0406  -14.7934 C   0  0  1  0  0  0  0  0  0  0  0  0
   16.1141  -22.3035  -16.1217 O   0  0  0  0  0  0  0  0  0  0  0  0
   16.6576  -20.9411  -14.2165 C   0  0  2  0  0  0  0  0  0  0  0  0
   18.0411  -21.3083  -14.2040 N   0  0  0  0  0  0  0  0  0  0  0  0
   16.1531  -20.4889  -12.9127 C   0  0  0  0  0  0  0  0  0  0  0  0
   16.7845  -20.6874  -11.8542 O   0  0  0  0  0  0  0  0  0  0  0  0
   14.9465  -19.8248  -12.8505 O   0  0  0  0  0  0  0  0  0  0  0  0
  2 13  1  0
  2  1  1  6
  3  2  1  0
  3  4  1  0
  4  5  2  0
  4 12  1  0
  5  6  1  0
  6  7  1  0
  7  8  2  0
  8  9  1  0
 10  9  2  0
 11 10  1  0
 12 11  2  0
 12  7  1  0
 13 19  1  0
 14 13  2  0
 16 17  1  0
 16 15  1  6
 18 19  1  1
 18 16  1  0
 20 21  2  0
 20 18  1  0
 23 22  1  6
 23 25  1  0
 24 23  1  0
 25 26  1  1
 25 27  1  0
 26 20  1  0
 27 28  2  0
 27 29  1  0
M  END
$$$$
