WTT.pdb
     RDKit          3D

 29 30  0  0  1  0  0  0  0  0999 V2000
   28.6808  -21.0345  -16.1663 N   0  0  0  0  0  0  0  0  0  0  0  0
   27.7046  -20.1774  -15.5607 C   0  0  1  0  0  0  0  0  0  0  0  0
   26.9924  -19.3953  -16.6360 C   0  0  0  0  0  0  0  0  0  0  0  0
   27.7510  -18.1554  -16.9198 C   0  0  0  0  0  0  0  0  0  0  0  0
   28.6351  -17.9905  -17.9815 C   0  0  0  0  0  0  0  0  0  0  0  0
   29.1524  -16.7686  -17.9597 N   0  0  0  0  0  0  0  0  0  0  0  0
   28.6336  -16.1065  -16.9031 C   0  0  0  0  0  0  0  0  0  0  0  0
   28.8270  -14.8184  -16.4207 C   0  0  0  0  0  0  0  0  0  0  0  0
   28.1609  -14.3631  -15.2903 C   0  0  0  0  0  0  0  0  0  0  0  0
   27.2924  -15.2349  -14.6528 C   0  0  0  0  0  0  0  0  0  0  0  0
   27.0881  -16.5332  -15.1269 C   0  0  0  0  0  0  0  0  0  0  0  0
   27.7540  -16.9595  -16.2404 C   0  0  0  0  0  0  0  0  0  0  0  0
   26.7580  -20.9084  -14.6829 C   0  0  0  0  0  0  0  0  0  0  0  0
   26.5662  -22.1464  -14.8019 O   0  0  0  0  0  0  0  0  0  0  0  0
   26.6790  -21.1302  -10.9887 C   0  0  0  0  0  0  0  0  0  0  0  0
   25.2554  -20.9089  -11.3915 C   0  0  1  0  0  0  0  0  0  0  0  0
   24.9332  -19.5822  -11.0103 O   0  0  0  0  0  0  0  0  0  0  0  0
   25.0307  -20.9732  -12.8794 C   0  0  2  0  0  0  0  0  0  0  0  0
   26.0049  -20.2858  -13.6565 N   0  0  0  0  0  0  0  0  0  0  0  0
   23.6294  -20.5893  -13.2340 C   0  0  0  0  0  0  0  0  0  0  0  0
   23.3685  -19.4328  -13.6579 O   0  0  0  0  0  0  0  0  0  0  0  0
   21.2695  -22.3233  -15.6490 C   0  0  0  0  0  0  0  0  0  0  0  0
   20.5267  -22.1171  -14.3653 C   0  0  1  0  0  0  0  0  0  0  0  0
   20.4136  -23.3494  -13.7218 O   0  0  0  0  0  0  0  0  0  0  0  0
   21.2091  -21.0943  -13.4705 C   0  0  2  0  0  0  0  0  0  0  0  0
   22.5373  -21.4921  -13.1144 N   0  0  0  0  0  0  0  0  0  0  0  0
   20.3648  -20.7507  -12.3181 C   0  0  0  0  0  0  0  0  0  0  0  0
   20.7559  -20.9040  -11.1425 O   0  0  0  0  0  0  0  0  0  0  0  0
   19.1014  -20.2434  -12.5358 O   0  0  0  0  0  0  0  0  0  0  0  0
  2 13  1  0
  2  1  1  6
  3  2  1  0
  3  4  1  0
  4  5  2  0
  4 12  1  0
  5  6  1  0
  6  7  1  0
  7  8  2  0
  8  9  1  0
 10  9  2  0
 11 10  1  0
 12 11  2  0
 12  7  1  0
 13 19  1  0
 14 13  2  0
 16 17  1  0
 16 15  1  6
 18 19  1  6
 18 16  1  0
 20 21  2  0
 20 18  1  0
 23 22  1  6
 23 25  1  0
 24 23  1  0
 25 26  1  1
 25 27  1  0
 26 20  1  0
 27 28  2  0
 27 29  1  0
M  END
$$$$
