WTT.pdb
     RDKit          3D

 29 30  0  0  1  0  0  0  0  0999 V2000
   28.3359  -22.2629  -13.3710 N   0  0  0  0  0  0  0  0  0  0  0  0
   27.2705  -21.4826  -12.8141 C   0  0  1  0  0  0  0  0  0  0  0  0
   27.8204  -20.1665  -12.3234 C   0  0  0  0  0  0  0  0  0  0  0  0
   28.4255  -20.3599  -10.9856 C   0  0  0  0  0  0  0  0  0  0  0  0
   29.7853  -20.5322  -10.7462 C   0  0  0  0  0  0  0  0  0  0  0  0
   30.0051  -20.6798   -9.4458 N   0  0  0  0  0  0  0  0  0  0  0  0
   28.8189  -20.6101   -8.8039 C   0  0  0  0  0  0  0  0  0  0  0  0
   28.4764  -20.6995   -7.4608 C   0  0  0  0  0  0  0  0  0  0  0  0
   27.1560  -20.5935   -7.0437 C   0  0  0  0  0  0  0  0  0  0  0  0
   26.1832  -20.3947   -8.0108 C   0  0  0  0  0  0  0  0  0  0  0  0
   26.5133  -20.3029   -9.3652 C   0  0  0  0  0  0  0  0  0  0  0  0
   27.8185  -20.4101   -9.7524 C   0  0  0  0  0  0  0  0  0  0  0  0
   26.1365  -21.2983  -13.7527 C   0  0  0  0  0  0  0  0  0  0  0  0
   26.3203  -21.0930  -14.9806 O   0  0  0  0  0  0  0  0  0  0  0  0
   23.7694  -23.7531  -14.6926 C   0  0  0  0  0  0  0  0  0  0  0  0
   22.9146  -22.5582  -14.4109 C   0  0  1  0  0  0  0  0  0  0  0  0
   22.3163  -22.7834  -13.1457 O   0  0  0  0  0  0  0  0  0  0  0  0
   23.6933  -21.2764  -14.2730 C   0  0  2  0  0  0  0  0  0  0  0  0
   24.7775  -21.3373  -13.3530 N   0  0  0  0  0  0  0  0  0  0  0  0
   22.7859  -20.1139  -14.0243 C   0  0  0  0  0  0  0  0  0  0  0  0
   22.6707  -19.6252  -12.8696 O   0  0  0  0  0  0  0  0  0  0  0  0
   22.4581  -16.6386  -15.9315 C   0  0  0  0  0  0  0  0  0  0  0  0
   21.1528  -17.3705  -15.8784 C   0  0  1  0  0  0  0  0  0  0  0  0
   20.9235  -17.9484  -17.1270 O   0  0  0  0  0  0  0  0  0  0  0  0
   21.1330  -18.4205  -14.7787 C   0  0  2  0  0  0  0  0  0  0  0  0
   22.0195  -19.5092  -15.0581 N   0  0  0  0  0  0  0  0  0  0  0  0
   19.7589  -18.8399  -14.4706 C   0  0  0  0  0  0  0  0  0  0  0  0
   19.3927  -20.0293  -14.5686 O   0  0  0  0  0  0  0  0  0  0  0  0
   18.8420  -17.8955  -14.0604 O   0  0  0  0  0  0  0  0  0  0  0  0
  2 13  1  0
  2  1  1  6
  3  2  1  0
  3  4  1  0
  4  5  2  0
  4 12  1  0
  5  6  1  0
  6  7  1  0
  7  8  2  0
  8  9  1  0
 10  9  2  0
 11 10  1  0
 12 11  2  0
 12  7  1  0
 13 19  1  0
 14 13  2  0
 16 17  1  0
 16 15  1  1
 18 19  1  1
 18 16  1  0
 20 21  2  0
 20 18  1  0
 23 22  1  6
 23 25  1  0
 24 23  1  0
 25 26  1  6
 25 27  1  0
 26 20  1  0
 27 28  2  0
 27 29  1  0
M  END
$$$$
