WTT.pdb
     RDKit          3D

 29 30  0  0  1  0  0  0  0  0999 V2000
   27.3105  -19.4099  -17.7486 N   0  0  0  0  0  0  0  0  0  0  0  0
   26.5235  -20.0577  -16.7412 C   0  0  1  0  0  0  0  0  0  0  0  0
   27.4112  -20.4365  -15.5820 C   0  0  0  0  0  0  0  0  0  0  0  0
   28.1247  -21.6933  -15.9053 C   0  0  0  0  0  0  0  0  0  0  0  0
   29.4056  -21.7635  -16.4443 C   0  0  0  0  0  0  0  0  0  0  0  0
   29.7596  -23.0308  -16.6172 N   0  0  0  0  0  0  0  0  0  0  0  0
   28.7415  -23.8164  -16.2048 C   0  0  0  0  0  0  0  0  0  0  0  0
   28.5825  -25.1956  -16.1640 C   0  0  0  0  0  0  0  0  0  0  0  0
   27.4145  -25.7740  -15.6844 C   0  0  0  0  0  0  0  0  0  0  0  0
   26.4054  -24.9316  -15.2448 C   0  0  0  0  0  0  0  0  0  0  0  0
   26.5516  -23.5426  -15.2800 C   0  0  0  0  0  0  0  0  0  0  0  0
   27.7091  -22.9959  -15.7558 C   0  0  0  0  0  0  0  0  0  0  0  0
   25.3569  -19.2491  -16.3096 C   0  0  0  0  0  0  0  0  0  0  0  0
   25.4924  -18.0883  -15.8428 O   0  0  0  0  0  0  0  0  0  0  0  0
   23.1148  -17.2681  -17.7776 C   0  0  0  0  0  0  0  0  0  0  0  0
   22.2027  -18.1500  -16.9850 C   0  0  1  0  0  0  0  0  0  0  0  0
   21.6763  -19.1017  -17.8941 O   0  0  0  0  0  0  0  0  0  0  0  0
   22.9079  -18.9480  -15.9198 C   0  0  2  0  0  0  0  0  0  0  0  0
   24.0180  -19.7073  -16.3852 N   0  0  0  0  0  0  0  0  0  0  0  0
   21.9404  -19.7635  -15.1226 C   0  0  0  0  0  0  0  0  0  0  0  0
   22.2513  -20.9151  -14.7193 O   0  0  0  0  0  0  0  0  0  0  0  0
   21.8877  -20.7294  -12.7276 C   0  0  0  0  0  0  0  0  0  0  0  0
   20.4560  -20.3206  -12.5684 C   0  0  1  0  0  0  0  0  0  0  0  0
   20.4100  -19.1990  -11.7406 O   0  0  0  0  0  0  0  0  0  0  0  0
   19.7920  -20.0388  -13.9072 C   0  0  2  0  0  0  0  0  0  0  0  0
   20.6428  -19.2917  -14.7831 N   0  0  0  0  0  0  0  0  0  0  0  0
   18.4612  -19.4436  -13.7242 C   0  0  0  0  0  0  0  0  0  0  0  0
   18.1891  -18.2946  -14.1297 O   0  0  0  0  0  0  0  0  0  0  0  0
   17.4794  -20.1713  -13.0860 O   0  0  0  0  0  0  0  0  0  0  0  0
  2 13  1  0
  2  1  1  6
  3  2  1  0
  3  4  1  0
  4  5  2  0
  4 12  1  0
  5  6  1  0
  6  7  1  0
  7  8  2  0
  8  9  1  0
 10  9  2  0
 11 10  1  0
 12 11  2  0
 12  7  1  0
 13 19  1  0
 14 13  2  0
 16 17  1  0
 16 15  1  6
 18 19  1  6
 18 16  1  0
 20 21  2  0
 20 18  1  0
 23 22  1  6
 23 25  1  0
 24 23  1  0
 25 26  1  6
 25 27  1  0
 26 20  1  0
 27 28  2  0
 27 29  1  0
M  END
$$$$
