YQD.pdb
     RDKit          3D

 30 30  0  0  1  0  0  0  0  0999 V2000
   21.8455   -4.3387  -14.0701 O   0  0  0  0  0  0  0  0  0  0  0  0
   21.5409   -5.6977  -14.0132 C   0  0  0  0  0  0  0  0  0  0  0  0
   22.2337   -6.5859  -14.7906 C   0  0  0  0  0  0  0  0  0  0  0  0
   21.9548   -7.9494  -14.7575 C   0  0  0  0  0  0  0  0  0  0  0  0
   20.9579   -8.4559  -13.9293 C   0  0  0  0  0  0  0  0  0  0  0  0
   20.6305   -9.9026  -13.8650 C   0  0  0  0  0  0  0  0  0  0  0  0
   19.5230  -10.2348  -14.7971 C   0  0  2  0  0  0  0  0  0  0  0  0
   19.8737   -9.8302  -16.1345 N   0  0  0  0  0  0  0  0  0  0  0  0
   18.2037   -9.7281  -14.3797 C   0  0  0  0  0  0  0  0  0  0  0  0
   17.6995   -8.8046  -15.1094 O   0  0  0  0  0  0  0  0  0  0  0  0
   20.2725   -7.5204  -13.1511 C   0  0  0  0  0  0  0  0  0  0  0  0
   20.5434   -6.1801  -13.1802 C   0  0  0  0  0  0  0  0  0  0  0  0
   14.0811  -12.7153  -10.9772 N   0  0  0  0  0  0  0  0  0  0  0  0
   13.3789  -11.4900  -10.9788 C   0  0  0  0  0  0  0  0  0  0  0  0
   12.2464  -11.4368  -10.4685 O   0  0  0  0  0  0  0  0  0  0  0  0
   14.0773  -10.3186  -11.6152 C   0  0  0  0  0  0  0  0  0  0  0  0
   15.4391  -10.6882  -12.0756 C   0  0  0  0  0  0  0  0  0  0  0  0
   16.1613   -9.6340  -12.8604 C   0  0  2  0  0  0  0  0  0  0  0  0
   17.4565  -10.1530  -13.2747 N   0  0  0  0  0  0  0  0  0  0  0  0
   16.2672   -8.3964  -12.0989 C   0  0  0  0  0  0  0  0  0  0  0  0
   17.3622   -8.1206  -11.5705 O   0  0  0  0  0  0  0  0  0  0  0  0
   15.2075   -7.4692  -11.9088 N   0  0  0  0  0  0  0  0  0  0  0  0
   15.3705   -6.2651  -11.0557 C   0  0  1  0  0  0  0  0  0  0  0  0
   15.9207   -6.6570   -9.7232 C   0  0  0  0  0  0  0  0  0  0  0  0
   16.2785   -5.5561   -8.8231 C   0  0  0  0  0  0  0  0  0  0  0  0
   15.7296   -4.4306   -8.9089 O   0  0  0  0  0  0  0  0  0  0  0  0
   16.2462   -5.3151  -11.7538 C   0  0  0  0  0  0  0  0  0  0  0  0
   16.8804   -5.5612  -12.9476 O   0  0  0  0  0  0  0  0  0  0  0  0
   17.2393   -5.7342   -7.8521 O   0  0  0  0  0  0  0  0  0  0  0  0
   16.4482   -4.1798  -11.2385 O   0  0  0  0  0  0  0  0  0  0  0  0
  2 12  2  0
  2  1  1  0
  3  2  1  0
  4  5  1  0
  4  3  2  0
  5 11  2  0
  6  5  1  0
  7  6  1  0
  7  8  1  6
  9 19  1  0
  9  7  1  0
 10  9  2  0
 11 12  1  0
 14 13  1  0
 14 15  2  0
 16 14  1  0
 17 16  1  0
 18 17  1  1
 18 19  1  0
 20 18  1  0
 20 21  2  0
 22 23  1  0
 22 20  1  0
 23 24  1  1
 25 24  1  0
 25 29  1  0
 26 25  2  0
 27 23  1  0
 28 27  1  0
 30 27  2  0
M  END
$$$$
