YQD.pdb
     RDKit          3D

 30 30  0  0  1  0  0  0  0  0999 V2000
   22.5909  -28.9568   -9.7654 O   0  0  0  0  0  0  0  0  0  0  0  0
   23.2643  -30.0324   -9.1887 C   0  0  0  0  0  0  0  0  0  0  0  0
   24.1655  -29.8134   -8.1822 C   0  0  0  0  0  0  0  0  0  0  0  0
   24.8547  -30.8650   -7.5847 C   0  0  0  0  0  0  0  0  0  0  0  0
   24.6490  -32.1791   -7.9935 C   0  0  0  0  0  0  0  0  0  0  0  0
   25.3636  -33.3278   -7.3818 C   0  0  0  0  0  0  0  0  0  0  0  0
   26.6651  -33.5603   -8.0584 C   0  0  2  0  0  0  0  0  0  0  0  0
   26.4394  -33.9837   -9.4167 N   0  0  0  0  0  0  0  0  0  0  0  0
   27.5779  -34.4585   -7.3295 C   0  0  0  0  0  0  0  0  0  0  0  0
   27.8215  -35.5855   -7.8865 O   0  0  0  0  0  0  0  0  0  0  0  0
   23.7228  -32.3640   -9.0224 C   0  0  0  0  0  0  0  0  0  0  0  0
   23.0433  -31.3337   -9.6120 C   0  0  0  0  0  0  0  0  0  0  0  0
   32.5095  -35.2183   -7.3325 N   0  0  0  0  0  0  0  0  0  0  0  0
   32.7101  -35.6422   -6.0004 C   0  0  0  0  0  0  0  0  0  0  0  0
   33.7290  -36.2958   -5.7166 O   0  0  0  0  0  0  0  0  0  0  0  0
   31.6461  -35.2582   -5.0078 C   0  0  0  0  0  0  0  0  0  0  0  0
   30.5443  -34.5087   -5.6617 C   0  0  0  0  0  0  0  0  0  0  0  0
   29.1677  -35.0569   -5.4312 C   0  0  2  0  0  0  0  0  0  0  0  0
   28.1974  -34.2028   -6.1003 N   0  0  0  0  0  0  0  0  0  0  0  0
   28.8975  -35.2095   -4.0077 C   0  0  0  0  0  0  0  0  0  0  0  0
   28.5060  -34.2115   -3.3711 O   0  0  0  0  0  0  0  0  0  0  0  0
   29.0480  -36.4205   -3.2799 N   0  0  0  0  0  0  0  0  0  0  0  0
   28.7743  -36.4919   -1.8226 C   0  0  1  0  0  0  0  0  0  0  0  0
   29.5780  -35.4582   -1.1032 C   0  0  0  0  0  0  0  0  0  0  0  0
   29.3930  -35.3922    0.3499 C   0  0  0  0  0  0  0  0  0  0  0  0
   28.5805  -36.1415    0.9449 O   0  0  0  0  0  0  0  0  0  0  0  0
   27.3323  -36.3123   -1.6104 C   0  0  0  0  0  0  0  0  0  0  0  0
   26.7259  -36.2014   -0.3825 O   0  0  0  0  0  0  0  0  0  0  0  0
   30.1145  -34.4931    1.1040 O   0  0  0  0  0  0  0  0  0  0  0  0
   26.5705  -36.2530   -2.6162 O   0  0  0  0  0  0  0  0  0  0  0  0
  2 12  2  0
  2  1  1  0
  3  2  1  0
  4  5  1  0
  4  3  2  0
  5 11  2  0
  6  5  1  0
  7  6  1  0
  7  8  1  6
  9 19  1  0
  9  7  1  0
 10  9  2  0
 11 12  1  0
 14 13  1  0
 14 15  2  0
 16 14  1  0
 17 16  1  0
 18 17  1  1
 18 19  1  0
 20 18  1  0
 20 21  2  0
 22 23  1  0
 22 20  1  0
 23 24  1  1
 25 24  1  0
 25 29  1  0
 26 25  2  0
 27 23  1  0
 28 27  1  0
 30 27  2  0
M  END
$$$$
