YQD.pdb
     RDKit          3D

 30 30  0  0  1  0  0  0  0  0999 V2000
   24.0603  -14.4605  -21.9036 O   0  0  0  0  0  0  0  0  0  0  0  0
   23.5635  -15.4642  -21.0737 C   0  0  0  0  0  0  0  0  0  0  0  0
   23.8854  -16.7722  -21.3160 C   0  0  0  0  0  0  0  0  0  0  0  0
   23.4064  -17.7984  -20.5065 C   0  0  0  0  0  0  0  0  0  0  0  0
   22.5808  -17.5266  -19.4200 C   0  0  0  0  0  0  0  0  0  0  0  0
   22.0497  -18.5923  -18.5330 C   0  0  0  0  0  0  0  0  0  0  0  0
   22.7241  -18.5622  -17.2101 C   0  0  2  0  0  0  0  0  0  0  0  0
   24.1218  -18.8730  -17.3684 N   0  0  0  0  0  0  0  0  0  0  0  0
   22.0739  -19.3874  -16.1768 C   0  0  0  0  0  0  0  0  0  0  0  0
   22.6330  -20.5104  -15.9199 O   0  0  0  0  0  0  0  0  0  0  0  0
   22.2738  -16.1813  -19.2038 C   0  0  0  0  0  0  0  0  0  0  0  0
   22.7424  -15.1699  -19.9963 C   0  0  0  0  0  0  0  0  0  0  0  0
   21.0779  -17.9367  -10.7718 N   0  0  0  0  0  0  0  0  0  0  0  0
   20.3920  -19.1619  -10.6203 C   0  0  0  0  0  0  0  0  0  0  0  0
   20.1147  -19.5670   -9.4780 O   0  0  0  0  0  0  0  0  0  0  0  0
   20.0443  -19.8961  -11.8872 C   0  0  0  0  0  0  0  0  0  0  0  0
   20.5184  -19.1586  -13.0849 C   0  0  0  0  0  0  0  0  0  0  0  0
   20.3165  -19.8605  -14.3946 C   0  0  2  0  0  0  0  0  0  0  0  0
   20.9166  -19.0671  -15.4571 N   0  0  0  0  0  0  0  0  0  0  0  0
   18.9051  -20.1380  -14.6266 C   0  0  0  0  0  0  0  0  0  0  0  0
   18.1667  -19.1937  -14.9693 O   0  0  0  0  0  0  0  0  0  0  0  0
   18.2977  -21.4152  -14.4904 N   0  0  0  0  0  0  0  0  0  0  0  0
   16.8379  -21.6070  -14.6806 C   0  0  1  0  0  0  0  0  0  0  0  0
   16.5127  -23.0652  -14.6815 C   0  0  0  0  0  0  0  0  0  0  0  0
   15.5144  -23.5037  -15.6620 C   0  0  0  0  0  0  0  0  0  0  0  0
   14.9472  -22.6911  -16.4325 O   0  0  0  0  0  0  0  0  0  0  0  0
   16.1308  -20.8872  -13.6135 C   0  0  0  0  0  0  0  0  0  0  0  0
   16.6239  -20.6730  -12.3491 O   0  0  0  0  0  0  0  0  0  0  0  0
   15.1706  -24.8340  -15.7590 O   0  0  0  0  0  0  0  0  0  0  0  0
   14.9811  -20.4209  -13.8504 O   0  0  0  0  0  0  0  0  0  0  0  0
  2 12  2  0
  2  1  1  0
  3  2  1  0
  4  5  1  0
  4  3  2  0
  5 11  2  0
  6  5  1  0
  7  6  1  0
  7  8  1  6
  9 19  1  0
  9  7  1  0
 10  9  2  0
 11 12  1  0
 14 13  1  0
 14 15  2  0
 16 14  1  0
 17 16  1  0
 18 17  1  1
 18 19  1  0
 20 18  1  0
 20 21  2  0
 22 23  1  0
 22 20  1  0
 23 24  1  1
 25 24  1  0
 25 29  1  0
 26 25  2  0
 27 23  1  0
 28 27  1  0
 30 27  2  0
M  END
$$$$
