YQD.pdb
     RDKit          3D

 30 30  0  0  1  0  0  0  0  0999 V2000
   18.8705  -16.6851  -24.1618 O   0  0  0  0  0  0  0  0  0  0  0  0
   18.8932  -15.8731  -23.0291 C   0  0  0  0  0  0  0  0  0  0  0  0
   19.8386  -14.8903  -22.9122 C   0  0  0  0  0  0  0  0  0  0  0  0
   19.8889  -14.0621  -21.7945 C   0  0  0  0  0  0  0  0  0  0  0  0
   18.9756  -14.2072  -20.7548 C   0  0  0  0  0  0  0  0  0  0  0  0
   18.9957  -13.3444  -19.5467 C   0  0  0  0  0  0  0  0  0  0  0  0
   19.9286  -13.8868  -18.5264 C   0  0  2  0  0  0  0  0  0  0  0  0
   19.4038  -15.1171  -17.9912 N   0  0  0  0  0  0  0  0  0  0  0  0
   20.3047  -12.9264  -17.4740 C   0  0  0  0  0  0  0  0  0  0  0  0
   19.4720  -12.7933  -16.5104 O   0  0  0  0  0  0  0  0  0  0  0  0
   18.0262  -15.2199  -20.9087 C   0  0  0  0  0  0  0  0  0  0  0  0
   17.9730  -16.0357  -22.0053 C   0  0  0  0  0  0  0  0  0  0  0  0
   25.9738  -11.4397  -15.8287 N   0  0  0  0  0  0  0  0  0  0  0  0
   25.3581  -10.4415  -15.0420 C   0  0  0  0  0  0  0  0  0  0  0  0
   26.0509   -9.7730  -14.2552 O   0  0  0  0  0  0  0  0  0  0  0  0
   23.8748  -10.2646  -15.2250 C   0  0  0  0  0  0  0  0  0  0  0  0
   23.3311  -11.2443  -16.1984 C   0  0  0  0  0  0  0  0  0  0  0  0
   21.8420  -11.2196  -16.3728 C   0  0  2  0  0  0  0  0  0  0  0  0
   21.4708  -12.1531  -17.4261 N   0  0  0  0  0  0  0  0  0  0  0  0
   21.3680   -9.8655  -16.6268 C   0  0  0  0  0  0  0  0  0  0  0  0
   21.5580   -9.3762  -17.7577 O   0  0  0  0  0  0  0  0  0  0  0  0
   20.6993   -9.0496  -15.6751 N   0  0  0  0  0  0  0  0  0  0  0  0
   20.3443   -7.6389  -15.9719 C   0  0  1  0  0  0  0  0  0  0  0  0
   19.0059   -7.3185  -15.3907 C   0  0  0  0  0  0  0  0  0  0  0  0
   18.5358   -5.9414  -15.5721 C   0  0  0  0  0  0  0  0  0  0  0  0
   18.6131   -5.3602  -16.6820 O   0  0  0  0  0  0  0  0  0  0  0  0
   21.3991   -6.7704  -15.4338 C   0  0  0  0  0  0  0  0  0  0  0  0
   21.7168   -5.5252  -15.9201 O   0  0  0  0  0  0  0  0  0  0  0  0
   17.9940   -5.2450  -14.5143 O   0  0  0  0  0  0  0  0  0  0  0  0
   22.0805   -7.1757  -14.4505 O   0  0  0  0  0  0  0  0  0  0  0  0
  2 12  2  0
  2  1  1  0
  3  2  1  0
  4  5  1  0
  4  3  2  0
  5 11  2  0
  6  5  1  0
  7  6  1  0
  7  8  1  1
  9 19  1  0
  9  7  1  0
 10  9  2  0
 11 12  1  0
 14 13  1  0
 14 15  2  0
 16 14  1  0
 17 16  1  0
 18 17  1  6
 18 19  1  0
 20 18  1  0
 20 21  2  0
 22 23  1  0
 22 20  1  0
 23 24  1  1
 25 24  1  0
 25 29  1  0
 26 25  2  0
 27 23  1  0
 28 27  1  0
 30 27  2  0
M  END
$$$$
