YQD.pdb
     RDKit          3D

 30 30  0  0  1  0  0  0  0  0999 V2000
   28.2462  -17.4027  -15.3615 O   0  0  0  0  0  0  0  0  0  0  0  0
   27.4409  -16.3068  -15.6670 C   0  0  0  0  0  0  0  0  0  0  0  0
   26.8187  -15.6154  -14.6630 C   0  0  0  0  0  0  0  0  0  0  0  0
   26.0081  -14.5166  -14.9338 C   0  0  0  0  0  0  0  0  0  0  0  0
   25.8030  -14.0835  -16.2401 C   0  0  0  0  0  0  0  0  0  0  0  0
   24.9466  -12.9164  -16.5704 C   0  0  0  0  0  0  0  0  0  0  0  0
   23.5147  -13.3083  -16.6138 C   0  0  2  0  0  0  0  0  0  0  0  0
   23.3208  -14.3368  -17.6037 N   0  0  0  0  0  0  0  0  0  0  0  0
   22.5800  -12.1810  -16.7777 C   0  0  0  0  0  0  0  0  0  0  0  0
   22.2172  -11.9213  -17.9780 O   0  0  0  0  0  0  0  0  0  0  0  0
   26.4534  -14.8129  -17.2379 C   0  0  0  0  0  0  0  0  0  0  0  0
   27.2509  -15.8929  -16.9763 C   0  0  0  0  0  0  0  0  0  0  0  0
   17.3852  -11.6319  -15.7762 N   0  0  0  0  0  0  0  0  0  0  0  0
   17.4274  -10.2553  -15.4639 C   0  0  0  0  0  0  0  0  0  0  0  0
   16.3888   -9.5780  -15.5562 O   0  0  0  0  0  0  0  0  0  0  0  0
   18.7613   -9.7065  -15.0343 C   0  0  0  0  0  0  0  0  0  0  0  0
   19.8234  -10.7393  -15.1245 C   0  0  0  0  0  0  0  0  0  0  0  0
   21.0363  -10.3478  -15.9145 C   0  0  2  0  0  0  0  0  0  0  0  0
   22.0564  -11.3746  -15.7601 N   0  0  0  0  0  0  0  0  0  0  0  0
   21.5062   -9.0238  -15.5289 C   0  0  0  0  0  0  0  0  0  0  0  0
   22.1181   -8.9061  -14.4490 O   0  0  0  0  0  0  0  0  0  0  0  0
   21.3186   -7.8425  -16.2959 N   0  0  0  0  0  0  0  0  0  0  0  0
   21.7021   -6.5066  -15.7742 C   0  0  1  0  0  0  0  0  0  0  0  0
   21.5084   -5.4721  -16.8344 C   0  0  0  0  0  0  0  0  0  0  0  0
   21.8670   -4.0979  -16.4692 C   0  0  0  0  0  0  0  0  0  0  0  0
   22.2595   -3.8050  -15.3135 O   0  0  0  0  0  0  0  0  0  0  0  0
   20.8974   -6.2252  -14.5784 C   0  0  0  0  0  0  0  0  0  0  0  0
   21.3835   -5.6843  -13.4127 O   0  0  0  0  0  0  0  0  0  0  0  0
   21.7777   -3.0844  -17.3977 O   0  0  0  0  0  0  0  0  0  0  0  0
   19.6629   -6.4921  -14.5973 O   0  0  0  0  0  0  0  0  0  0  0  0
  2 12  2  0
  2  1  1  0
  3  2  1  0
  4  5  1  0
  4  3  2  0
  5 11  2  0
  6  5  1  0
  7  6  1  0
  7  8  1  6
  9 19  1  0
  9  7  1  0
 10  9  2  0
 11 12  1  0
 14 13  1  0
 14 15  2  0
 16 14  1  0
 17 16  1  0
 18 17  1  1
 18 19  1  0
 20 18  1  0
 20 21  2  0
 22 23  1  0
 22 20  1  0
 23 24  1  6
 25 24  1  0
 25 29  1  0
 26 25  2  0
 27 23  1  0
 28 27  1  0
 30 27  2  0
M  END
$$$$
