YQD.pdb
     RDKit          3D

 30 30  0  0  1  0  0  0  0  0999 V2000
   16.6478  -27.2681   -8.5019 O   0  0  0  0  0  0  0  0  0  0  0  0
   17.1934  -26.6527   -9.6273 C   0  0  0  0  0  0  0  0  0  0  0  0
   16.4618  -25.7279  -10.3221 C   0  0  0  0  0  0  0  0  0  0  0  0
   16.9770  -25.0949  -11.4498 C   0  0  0  0  0  0  0  0  0  0  0  0
   18.2582  -25.3833  -11.9096 C   0  0  0  0  0  0  0  0  0  0  0  0
   18.8437  -24.7300  -13.1075 C   0  0  0  0  0  0  0  0  0  0  0  0
   19.8583  -23.7193  -12.7142 C   0  0  2  0  0  0  0  0  0  0  0  0
   19.2350  -22.6808  -11.9342 N   0  0  0  0  0  0  0  0  0  0  0  0
   20.6525  -23.1863  -13.8352 C   0  0  0  0  0  0  0  0  0  0  0  0
   20.2028  -22.1219  -14.3869 O   0  0  0  0  0  0  0  0  0  0  0  0
   18.9747  -26.3314  -11.1759 C   0  0  0  0  0  0  0  0  0  0  0  0
   18.4726  -26.9556  -10.0673 C   0  0  0  0  0  0  0  0  0  0  0  0
   26.3502  -24.9882  -15.3745 N   0  0  0  0  0  0  0  0  0  0  0  0
   26.1791  -24.1269  -16.4805 C   0  0  0  0  0  0  0  0  0  0  0  0
   27.1431  -23.9046  -17.2337 O   0  0  0  0  0  0  0  0  0  0  0  0
   24.8082  -23.5329  -16.6612 C   0  0  0  0  0  0  0  0  0  0  0  0
   23.8779  -23.9915  -15.5995 C   0  0  0  0  0  0  0  0  0  0  0  0
   22.6291  -23.1764  -15.4421 C   0  0  2  0  0  0  0  0  0  0  0  0
   21.8375  -23.7250  -14.3506 N   0  0  0  0  0  0  0  0  0  0  0  0
   21.8893  -23.1063  -16.6953 C   0  0  0  0  0  0  0  0  0  0  0  0
   21.1744  -24.0769  -17.0135 O   0  0  0  0  0  0  0  0  0  0  0  0
   21.9203  -22.0060  -17.5936 N   0  0  0  0  0  0  0  0  0  0  0  0
   21.0649  -21.9670  -18.8064 C   0  0  1  0  0  0  0  0  0  0  0  0
   20.2791  -20.6967  -18.8335 C   0  0  0  0  0  0  0  0  0  0  0  0
   21.0041  -19.4805  -18.4523 C   0  0  0  0  0  0  0  0  0  0  0  0
   22.0718  -19.1450  -19.0207 O   0  0  0  0  0  0  0  0  0  0  0  0
   21.9258  -22.1058  -19.9879 C   0  0  0  0  0  0  0  0  0  0  0  0
   21.4751  -22.3084  -21.2700 O   0  0  0  0  0  0  0  0  0  0  0  0
   20.5247  -18.6697  -17.4472 O   0  0  0  0  0  0  0  0  0  0  0  0
   23.1785  -22.0383  -19.8412 O   0  0  0  0  0  0  0  0  0  0  0  0
  2 12  2  0
  2  1  1  0
  3  2  1  0
  4  5  1  0
  4  3  2  0
  5 11  2  0
  6  5  1  0
  7  6  1  0
  7  8  1  6
  9 19  1  0
  9  7  1  0
 10  9  2  0
 11 12  1  0
 14 13  1  0
 14 15  2  0
 16 14  1  0
 17 16  1  0
 18 17  1  6
 18 19  1  0
 20 18  1  0
 20 21  2  0
 22 23  1  0
 22 20  1  0
 23 24  1  6
 25 24  1  0
 25 29  1  0
 26 25  2  0
 27 23  1  0
 28 27  1  0
 30 27  2  0
M  END
$$$$
