YQD.pdb
     RDKit          3D

 30 30  0  0  1  0  0  0  0  0999 V2000
   28.3725  -26.2357  -18.8181 O   0  0  0  0  0  0  0  0  0  0  0  0
   27.4266  -25.5865  -18.0264 C   0  0  0  0  0  0  0  0  0  0  0  0
   27.3823  -25.8271  -16.6798 C   0  0  0  0  0  0  0  0  0  0  0  0
   26.4506  -25.1955  -15.8608 C   0  0  0  0  0  0  0  0  0  0  0  0
   25.5295  -24.2950  -16.3871 C   0  0  0  0  0  0  0  0  0  0  0  0
   24.5206  -23.6009  -15.5476 C   0  0  0  0  0  0  0  0  0  0  0  0
   24.8396  -22.1555  -15.4264 C   0  0  2  0  0  0  0  0  0  0  0  0
   26.1446  -21.9920  -14.8386 N   0  0  0  0  0  0  0  0  0  0  0  0
   23.8060  -21.3597  -14.7409 C   0  0  0  0  0  0  0  0  0  0  0  0
   23.8773  -21.3267  -13.4629 O   0  0  0  0  0  0  0  0  0  0  0  0
   25.6046  -24.0747  -17.7642 C   0  0  0  0  0  0  0  0  0  0  0  0
   26.5185  -24.6928  -18.5725 C   0  0  0  0  0  0  0  0  0  0  0  0
   21.0219  -16.3382  -16.6891 N   0  0  0  0  0  0  0  0  0  0  0  0
   20.0415  -16.6232  -15.7134 C   0  0  0  0  0  0  0  0  0  0  0  0
   19.0885  -15.8392  -15.5610 O   0  0  0  0  0  0  0  0  0  0  0  0
   20.2360  -17.8853  -14.9171 C   0  0  0  0  0  0  0  0  0  0  0  0
   21.3730  -18.6830  -15.4406 C   0  0  0  0  0  0  0  0  0  0  0  0
   21.7088  -19.9162  -14.6563 C   0  0  2  0  0  0  0  0  0  0  0  0
   22.7646  -20.6447  -15.3444 N   0  0  0  0  0  0  0  0  0  0  0  0
   20.5215  -20.7284  -14.4257 C   0  0  0  0  0  0  0  0  0  0  0  0
   20.0766  -21.4056  -15.3732 O   0  0  0  0  0  0  0  0  0  0  0  0
   19.8225  -20.8090  -13.1912 N   0  0  0  0  0  0  0  0  0  0  0  0
   18.5720  -21.5974  -13.0549 C   0  0  1  0  0  0  0  0  0  0  0  0
   18.4176  -22.0657  -11.6447 C   0  0  0  0  0  0  0  0  0  0  0  0
   17.2273  -22.8731  -11.3589 C   0  0  0  0  0  0  0  0  0  0  0  0
   16.3455  -23.0767  -12.2287 O   0  0  0  0  0  0  0  0  0  0  0  0
   17.4443  -20.7592  -13.4820 C   0  0  0  0  0  0  0  0  0  0  0  0
   16.3623  -21.2042  -14.2024 O   0  0  0  0  0  0  0  0  0  0  0  0
   17.0470  -23.4315  -10.1126 O   0  0  0  0  0  0  0  0  0  0  0  0
   17.4458  -19.5334  -13.1775 O   0  0  0  0  0  0  0  0  0  0  0  0
  2 12  2  0
  2  1  1  0
  3  2  1  0
  4  5  1  0
  4  3  2  0
  5 11  2  0
  6  5  1  0
  7  6  1  0
  7  8  1  1
  9 19  1  0
  9  7  1  0
 10  9  2  0
 11 12  1  0
 14 13  1  0
 14 15  2  0
 16 14  1  0
 17 16  1  0
 18 17  1  6
 18 19  1  0
 20 18  1  0
 20 21  2  0
 22 23  1  0
 22 20  1  0
 23 24  1  1
 25 24  1  0
 25 29  1  0
 26 25  2  0
 27 23  1  0
 28 27  1  0
 30 27  2  0
M  END
$$$$
