YQD.pdb
     RDKit          3D

 30 30  0  0  1  0  0  0  0  0999 V2000
   16.8399  -17.6668  -20.3916 O   0  0  0  0  0  0  0  0  0  0  0  0
   17.3946  -16.4909  -19.8890 C   0  0  0  0  0  0  0  0  0  0  0  0
   17.0033  -16.0199  -18.6650 C   0  0  0  0  0  0  0  0  0  0  0  0
   17.5376  -14.8492  -18.1342 C   0  0  0  0  0  0  0  0  0  0  0  0
   18.4911  -14.1162  -18.8341 C   0  0  0  0  0  0  0  0  0  0  0  0
   19.0850  -12.8635  -18.3026 C   0  0  0  0  0  0  0  0  0  0  0  0
   20.4960  -13.0810  -17.8932 C   0  0  2  0  0  0  0  0  0  0  0  0
   20.5610  -14.1273  -16.9051 N   0  0  0  0  0  0  0  0  0  0  0  0
   21.2024  -11.8586  -17.4711 C   0  0  0  0  0  0  0  0  0  0  0  0
   20.9668  -11.4565  -16.2784 O   0  0  0  0  0  0  0  0  0  0  0  0
   18.8657  -14.6270  -20.0788 C   0  0  0  0  0  0  0  0  0  0  0  0
   18.3436  -15.7769  -20.6040 C   0  0  0  0  0  0  0  0  0  0  0  0
   26.5987   -9.9013  -19.5121 N   0  0  0  0  0  0  0  0  0  0  0  0
   26.2874   -8.6971  -18.8434 C   0  0  0  0  0  0  0  0  0  0  0  0
   27.1273   -7.7806  -18.8174 O   0  0  0  0  0  0  0  0  0  0  0  0
   24.9291   -8.6199  -18.1999 C   0  0  0  0  0  0  0  0  0  0  0  0
   24.1403   -9.8507  -18.4570 C   0  0  0  0  0  0  0  0  0  0  0  0
   22.7864   -9.8933  -17.8137 C   0  0  2  0  0  0  0  0  0  0  0  0
   22.0956  -11.1020  -18.2389 N   0  0  0  0  0  0  0  0  0  0  0  0
   22.0317   -8.6812  -18.1033 C   0  0  0  0  0  0  0  0  0  0  0  0
   21.5697   -8.5340  -19.2519 O   0  0  0  0  0  0  0  0  0  0  0  0
   21.7793   -7.6415  -17.1684 N   0  0  0  0  0  0  0  0  0  0  0  0
   20.9634   -6.4540  -17.5264 C   0  0  1  0  0  0  0  0  0  0  0  0
   19.6634   -6.4901  -16.7911 C   0  0  0  0  0  0  0  0  0  0  0  0
   19.7489   -6.4787  -15.3273 C   0  0  0  0  0  0  0  0  0  0  0  0
   18.8110   -6.0420  -14.6164 O   0  0  0  0  0  0  0  0  0  0  0  0
   21.7377   -5.2459  -17.2143 C   0  0  0  0  0  0  0  0  0  0  0  0
   22.9348   -5.2313  -16.5401 O   0  0  0  0  0  0  0  0  0  0  0  0
   20.8759   -6.9509  -14.6914 O   0  0  0  0  0  0  0  0  0  0  0  0
   21.2908   -4.1231  -17.5819 O   0  0  0  0  0  0  0  0  0  0  0  0
  2 12  2  0
  2  1  1  0
  3  2  1  0
  4  5  1  0
  4  3  2  0
  5 11  2  0
  6  5  1  0
  7  6  1  0
  7  8  1  1
  9 19  1  0
  9  7  1  0
 10  9  2  0
 11 12  1  0
 14 13  1  0
 14 15  2  0
 16 14  1  0
 17 16  1  0
 18 17  1  6
 18 19  1  0
 20 18  1  0
 20 21  2  0
 22 23  1  0
 22 20  1  0
 23 24  1  1
 25 24  1  0
 25 29  1  0
 26 25  2  0
 27 23  1  0
 28 27  1  0
 30 27  2  0
M  END
$$$$
