YQD.pdb
     RDKit          3D

 30 30  0  0  1  0  0  0  0  0999 V2000
   28.5387  -13.1132  -15.6841 O   0  0  0  0  0  0  0  0  0  0  0  0
   27.4276  -12.2825  -15.5485 C   0  0  0  0  0  0  0  0  0  0  0  0
   26.2781  -12.7662  -14.9847 C   0  0  0  0  0  0  0  0  0  0  0  0
   25.1509  -11.9633  -14.8343 C   0  0  0  0  0  0  0  0  0  0  0  0
   25.1561  -10.6368  -15.2546 C   0  0  0  0  0  0  0  0  0  0  0  0
   23.9753   -9.7482  -15.1117 C   0  0  0  0  0  0  0  0  0  0  0  0
   22.8176  -10.2827  -15.8731 C   0  0  2  0  0  0  0  0  0  0  0  0
   23.2028  -10.5236  -17.2402 N   0  0  0  0  0  0  0  0  0  0  0  0
   21.5915   -9.4726  -15.7645 C   0  0  0  0  0  0  0  0  0  0  0  0
   21.2318   -8.8520  -16.8252 O   0  0  0  0  0  0  0  0  0  0  0  0
   26.3458  -10.1784  -15.8250 C   0  0  0  0  0  0  0  0  0  0  0  0
   27.4556  -10.9637  -15.9743 C   0  0  0  0  0  0  0  0  0  0  0  0
   17.5478   -9.4414  -10.9854 N   0  0  0  0  0  0  0  0  0  0  0  0
   17.3687  -10.4245  -11.9833 C   0  0  0  0  0  0  0  0  0  0  0  0
   16.6914  -11.4353  -11.7272 O   0  0  0  0  0  0  0  0  0  0  0  0
   18.0300  -10.1614  -13.3093 C   0  0  0  0  0  0  0  0  0  0  0  0
   18.8430   -8.9202  -13.2693 C   0  0  0  0  0  0  0  0  0  0  0  0
   19.5444   -8.5690  -14.5473 C   0  0  2  0  0  0  0  0  0  0  0  0
   20.7909   -9.3165  -14.6267 N   0  0  0  0  0  0  0  0  0  0  0  0
   19.7423   -7.1296  -14.6563 C   0  0  0  0  0  0  0  0  0  0  0  0
   20.6477   -6.6054  -13.9782 O   0  0  0  0  0  0  0  0  0  0  0  0
   18.9744   -6.2669  -15.4838 N   0  0  0  0  0  0  0  0  0  0  0  0
   19.2351   -4.8064  -15.5395 C   0  0  1  0  0  0  0  0  0  0  0  0
   19.3917   -4.3719  -16.9603 C   0  0  0  0  0  0  0  0  0  0  0  0
   19.5948   -2.9361  -17.1779 C   0  0  0  0  0  0  0  0  0  0  0  0
   19.6528   -2.1267  -16.2202 O   0  0  0  0  0  0  0  0  0  0  0  0
   18.1285   -4.1102  -14.8708 C   0  0  0  0  0  0  0  0  0  0  0  0
   18.2542   -2.9534  -14.1402 O   0  0  0  0  0  0  0  0  0  0  0  0
   19.7260   -2.4366  -18.4549 O   0  0  0  0  0  0  0  0  0  0  0  0
   16.9638   -4.5910  -14.9581 O   0  0  0  0  0  0  0  0  0  0  0  0
  2 12  2  0
  2  1  1  0
  3  2  1  0
  4  5  1  0
  4  3  2  0
  5 11  2  0
  6  5  1  0
  7  6  1  0
  7  8  1  6
  9 19  1  0
  9  7  1  0
 10  9  2  0
 11 12  1  0
 14 13  1  0
 14 15  2  0
 16 14  1  0
 17 16  1  0
 18 17  1  1
 18 19  1  0
 20 18  1  0
 20 21  2  0
 22 23  1  0
 22 20  1  0
 23 24  1  6
 25 24  1  0
 25 29  1  0
 26 25  2  0
 27 23  1  0
 28 27  1  0
 30 27  2  0
M  END
$$$$
