YQD.pdb
     RDKit          3D

 30 30  0  0  1  0  0  0  0  0999 V2000
   28.0670  -17.1074  -16.0586 O   0  0  0  0  0  0  0  0  0  0  0  0
   27.3308  -15.9678  -16.3784 C   0  0  0  0  0  0  0  0  0  0  0  0
   26.9838  -15.0808  -15.3955 C   0  0  0  0  0  0  0  0  0  0  0  0
   26.2495  -13.9332  -15.6810 C   0  0  0  0  0  0  0  0  0  0  0  0
   25.8422  -13.6494  -16.9809 C   0  0  0  0  0  0  0  0  0  0  0  0
   25.0584  -12.4366  -17.3263 C   0  0  0  0  0  0  0  0  0  0  0  0
   23.6112  -12.6540  -17.0734 C   0  0  2  0  0  0  0  0  0  0  0  0
   23.1687  -13.8394  -17.7622 N   0  0  0  0  0  0  0  0  0  0  0  0
   22.7614  -11.4840  -17.3567 C   0  0  0  0  0  0  0  0  0  0  0  0
   22.1079  -11.5169  -18.4574 O   0  0  0  0  0  0  0  0  0  0  0  0
   26.2142  -14.5765  -17.9569 C   0  0  0  0  0  0  0  0  0  0  0  0
   26.9359  -15.7051  -17.6809 C   0  0  0  0  0  0  0  0  0  0  0  0
   17.8671  -11.2806  -16.1537 N   0  0  0  0  0  0  0  0  0  0  0  0
   17.7806   -9.8743  -16.0571 C   0  0  0  0  0  0  0  0  0  0  0  0
   16.6792   -9.3470  -15.8228 O   0  0  0  0  0  0  0  0  0  0  0  0
   19.0620   -9.1094  -16.2513 C   0  0  0  0  0  0  0  0  0  0  0  0
   20.2227  -10.0257  -16.3781 C   0  0  0  0  0  0  0  0  0  0  0  0
   21.5390   -9.3624  -16.6541 C   0  0  2  0  0  0  0  0  0  0  0  0
   22.6015  -10.3518  -16.5489 N   0  0  0  0  0  0  0  0  0  0  0  0
   21.7433   -8.2199  -15.7734 C   0  0  0  0  0  0  0  0  0  0  0  0
   22.0750   -8.4378  -14.5915 O   0  0  0  0  0  0  0  0  0  0  0  0
   21.5914   -6.8613  -16.1607 N   0  0  0  0  0  0  0  0  0  0  0  0
   21.9552   -5.7470  -15.2498 C   0  0  1  0  0  0  0  0  0  0  0  0
   21.7829   -4.4396  -15.9519 C   0  0  0  0  0  0  0  0  0  0  0  0
   22.1082   -3.2405  -15.1732 C   0  0  0  0  0  0  0  0  0  0  0  0
   22.6085   -3.3170  -14.0246 O   0  0  0  0  0  0  0  0  0  0  0  0
   21.1195   -5.8382  -14.0457 C   0  0  0  0  0  0  0  0  0  0  0  0
   21.5611   -5.6181  -12.7634 O   0  0  0  0  0  0  0  0  0  0  0  0
   21.8668   -1.9869  -15.6907 O   0  0  0  0  0  0  0  0  0  0  0  0
   19.8997   -6.1410  -14.1714 O   0  0  0  0  0  0  0  0  0  0  0  0
  2 12  2  0
  2  1  1  0
  3  2  1  0
  4  5  1  0
  4  3  2  0
  5 11  2  0
  6  5  1  0
  7  6  1  0
  7  8  1  6
  9 19  1  0
  9  7  1  0
 10  9  2  0
 11 12  1  0
 14 13  1  0
 14 15  2  0
 16 14  1  0
 17 16  1  0
 18 17  1  1
 18 19  1  0
 20 18  1  0
 20 21  2  0
 22 23  1  0
 22 20  1  0
 23 24  1  6
 25 24  1  0
 25 29  1  0
 26 25  2  0
 27 23  1  0
 28 27  1  0
 30 27  2  0
M  END
$$$$
