LIG.pdb
     RDKit          3D

 21 20  0  0  1  0  0  0  0  0999 V2000
    7.4600  -11.9547   19.7608 C   0  0  0  0  0  0  0  0  0  0  0  0
    8.1631  -13.2789   20.1055 C   0  0  2  0  0  0  0  0  0  0  0  0
    8.7943  -13.8507   18.8555 C   0  0  0  0  0  0  0  0  0  0  0  0
    7.1808  -14.2413   20.7117 C   0  0  0  0  0  0  0  0  0  0  0  0
    7.8659  -15.2447   21.5584 C   0  0  2  0  0  0  0  0  0  0  0  0
    7.0105  -16.3203   21.9909 N   0  0  0  0  0  0  0  0  0  0  0  0
    8.4752  -14.6553   22.7811 C   0  0  0  0  0  0  0  0  0  0  0  0
    9.6171  -14.1566   22.7318 O   0  0  0  0  0  0  0  0  0  0  0  0
    7.4980  -11.2773   26.6378 C   0  0  0  0  0  0  0  0  0  0  0  0
    7.1158  -12.6788   27.0684 C   0  0  0  0  0  0  0  0  0  0  0  0
    6.9390  -13.5809   25.8940 C   0  0  2  0  0  0  0  0  0  0  0  0
    6.0278  -14.7276   26.1964 C   0  0  0  0  0  0  0  0  0  0  0  0
    8.2118  -14.0029   25.2061 C   0  0  2  0  0  0  0  0  0  0  0  0
    7.7476  -14.6722   23.9750 N   0  0  0  0  0  0  0  0  0  0  0  0
    9.0038  -14.9963   25.9688 C   0  0  0  0  0  0  0  0  0  0  0  0
    9.5333  -14.6813   27.0661 O   0  0  0  0  0  0  0  0  0  0  0  0
    9.2280  -16.3382   25.5510 N   0  0  0  0  0  0  0  0  0  0  0  0
    9.8506  -17.3145   26.4258 C   0  0  0  0  0  0  0  0  0  0  0  0
   11.2113  -17.6729   25.9641 C   0  0  0  0  0  0  0  0  0  0  0  0
   11.9433  -18.7147   26.5032 O   0  0  0  0  0  0  0  0  0  0  0  0
   11.7149  -16.9898   25.0366 O   0  0  0  0  0  0  0  0  0  0  0  0
  2  1  1  6
  3  2  1  0
  4  5  1  0
  4  2  1  0
  5  7  1  0
  5  6  1  1
  7 14  1  0
  7  8  2  0
  9 10  1  0
 10 11  1  0
 11 12  1  1
 13 15  1  0
 13 11  1  0
 13 14  1  6
 15 16  2  0
 17 18  1  0
 17 15  1  0
 19 18  1  0
 20 19  1  0
 21 19  2  0
M  END
$$$$
