LIG.pdb
     RDKit          3D

 21 20  0  0  1  0  0  0  0  0999 V2000
    8.7517  -14.8119   18.7277 C   0  0  0  0  0  0  0  0  0  0  0  0
    7.5515  -14.0463   19.3108 C   0  0  2  0  0  0  0  0  0  0  0  0
    7.2267  -12.8695   18.4177 C   0  0  0  0  0  0  0  0  0  0  0  0
    7.8563  -13.6010   20.7134 C   0  0  0  0  0  0  0  0  0  0  0  0
    8.1060  -14.7594   21.6016 C   0  0  2  0  0  0  0  0  0  0  0  0
    6.9180  -15.5049   21.9307 N   0  0  0  0  0  0  0  0  0  0  0  0
    8.7503  -14.3780   22.8874 C   0  0  0  0  0  0  0  0  0  0  0  0
    9.9074  -13.9135   22.8926 O   0  0  0  0  0  0  0  0  0  0  0  0
    5.5531  -11.7483   26.0436 C   0  0  0  0  0  0  0  0  0  0  0  0
    6.8259  -12.2379   25.3832 C   0  0  0  0  0  0  0  0  0  0  0  0
    7.3466  -13.4675   26.0473 C   0  0  2  0  0  0  0  0  0  0  0  0
    7.5168  -13.2825   27.5216 C   0  0  0  0  0  0  0  0  0  0  0  0
    8.5460  -14.0990   25.3886 C   0  0  2  0  0  0  0  0  0  0  0  0
    8.0377  -14.5499   24.0781 N   0  0  0  0  0  0  0  0  0  0  0  0
    9.0543  -15.2989   26.0940 C   0  0  0  0  0  0  0  0  0  0  0  0
    9.4945  -15.2075   27.2694 O   0  0  0  0  0  0  0  0  0  0  0  0
    9.0892  -16.6068   25.5340 N   0  0  0  0  0  0  0  0  0  0  0  0
    9.5563  -17.7498   26.2964 C   0  0  0  0  0  0  0  0  0  0  0  0
   11.0056  -17.9823   26.1002 C   0  0  0  0  0  0  0  0  0  0  0  0
   11.6997  -19.0024   26.7244 O   0  0  0  0  0  0  0  0  0  0  0  0
   11.6244  -17.2085   25.3263 O   0  0  0  0  0  0  0  0  0  0  0  0
  2  1  1  6
  3  2  1  0
  4  5  1  0
  4  2  1  0
  5  7  1  0
  5  6  1  1
  7 14  1  0
  7  8  2  0
  9 10  1  0
 10 11  1  0
 11 12  1  1
 13 15  1  0
 13 11  1  0
 13 14  1  6
 15 16  2  0
 17 18  1  0
 17 15  1  0
 19 18  1  0
 20 19  1  0
 21 19  2  0
M  END
$$$$
