LIG.pdb
     RDKit          3D

 21 20  0  0  1  0  0  0  0  0999 V2000
    8.3273  -15.1204   18.7682 C   0  0  0  0  0  0  0  0  0  0  0  0
    7.4983  -14.0654   19.5207 C   0  0  2  0  0  0  0  0  0  0  0  0
    7.3271  -12.8447   18.6441 C   0  0  0  0  0  0  0  0  0  0  0  0
    8.1665  -13.7161   20.8207 C   0  0  0  0  0  0  0  0  0  0  0  0
    8.2478  -14.8935   21.7154 C   0  0  2  0  0  0  0  0  0  0  0  0
    6.9720  -15.5054   21.9866 N   0  0  0  0  0  0  0  0  0  0  0  0
    8.8693  -14.5824   23.0309 C   0  0  0  0  0  0  0  0  0  0  0  0
   10.0569  -14.2066   23.0874 O   0  0  0  0  0  0  0  0  0  0  0  0
    5.5498  -11.9138   26.0254 C   0  0  0  0  0  0  0  0  0  0  0  0
    6.8312  -12.4276   25.4012 C   0  0  0  0  0  0  0  0  0  0  0  0
    7.3529  -13.6196   26.1299 C   0  0  2  0  0  0  0  0  0  0  0  0
    7.5009  -13.3635   27.5960 C   0  0  0  0  0  0  0  0  0  0  0  0
    8.5668  -14.2706   25.5182 C   0  0  2  0  0  0  0  0  0  0  0  0
    8.1010  -14.7191   24.1911 N   0  0  0  0  0  0  0  0  0  0  0  0
    9.0312  -15.4750   26.2459 C   0  0  0  0  0  0  0  0  0  0  0  0
    9.4037  -15.3901   27.4450 O   0  0  0  0  0  0  0  0  0  0  0  0
    9.0951  -16.7803   25.6826 N   0  0  0  0  0  0  0  0  0  0  0  0
    9.5111  -17.9288   26.4663 C   0  0  0  0  0  0  0  0  0  0  0  0
   10.9202  -18.2944   26.1948 C   0  0  0  0  0  0  0  0  0  0  0  0
   11.5436  -19.3854   26.7719 O   0  0  0  0  0  0  0  0  0  0  0  0
   11.5712  -17.5705   25.3994 O   0  0  0  0  0  0  0  0  0  0  0  0
  2  1  1  6
  3  2  1  0
  4  5  1  0
  4  2  1  0
  5  7  1  0
  5  6  1  1
  7 14  1  0
  7  8  2  0
  9 10  1  0
 10 11  1  0
 11 12  1  1
 13 15  1  0
 13 11  1  0
 13 14  1  6
 15 16  2  0
 17 18  1  0
 17 15  1  0
 19 18  1  0
 20 19  1  0
 21 19  2  0
M  END
$$$$
