LIG.pdb
     RDKit          3D

 21 20  0  0  1  0  0  0  0  0999 V2000
    9.1592  -14.2039   29.0971 C   0  0  0  0  0  0  0  0  0  0  0  0
    9.6917  -15.5523   29.6117 C   0  0  2  0  0  0  0  0  0  0  0  0
   11.0455  -15.3438   30.2532 C   0  0  0  0  0  0  0  0  0  0  0  0
    9.7679  -16.5411   28.4825 C   0  0  0  0  0  0  0  0  0  0  0  0
    8.4580  -17.1918   28.2501 C   0  0  2  0  0  0  0  0  0  0  0  0
    8.4890  -18.6252   28.3906 N   0  0  0  0  0  0  0  0  0  0  0  0
    7.8936  -16.8988   26.9050 C   0  0  0  0  0  0  0  0  0  0  0  0
    7.2882  -17.7881   26.2744 O   0  0  0  0  0  0  0  0  0  0  0  0
    6.4657  -11.6337   26.4276 C   0  0  0  0  0  0  0  0  0  0  0  0
    6.2157  -13.0874   26.0812 C   0  0  0  0  0  0  0  0  0  0  0  0
    7.3388  -13.6587   25.2834 C   0  0  2  0  0  0  0  0  0  0  0  0
    7.5109  -12.9602   23.9722 C   0  0  0  0  0  0  0  0  0  0  0  0
    7.3436  -15.1606   25.1581 C   0  0  2  0  0  0  0  0  0  0  0  0
    8.0547  -15.6178   26.3683 N   0  0  0  0  0  0  0  0  0  0  0  0
    8.1060  -15.6618   23.9904 C   0  0  0  0  0  0  0  0  0  0  0  0
    7.6870  -15.4578   22.8214 O   0  0  0  0  0  0  0  0  0  0  0  0
    9.3279  -16.3861   24.0783 N   0  0  0  0  0  0  0  0  0  0  0  0
   10.0012  -16.8905   22.8958 C   0  0  0  0  0  0  0  0  0  0  0  0
   10.9560  -15.9008   22.3465 C   0  0  0  0  0  0  0  0  0  0  0  0
   10.8849  -15.4182   21.0526 O   0  0  0  0  0  0  0  0  0  0  0  0
   11.8712  -15.4864   23.1022 O   0  0  0  0  0  0  0  0  0  0  0  0
  2  1  1  6
  3  2  1  0
  4  5  1  0
  4  2  1  0
  5  7  1  0
  5  6  1  6
  7 14  1  0
  7  8  2  0
  9 10  1  0
 10 11  1  0
 11 12  1  6
 13 15  1  0
 13 11  1  0
 13 14  1  1
 15 16  2  0
 17 18  1  0
 17 15  1  0
 19 18  1  0
 20 19  1  0
 21 19  2  0
M  END
$$$$
