LIG.pdb
     RDKit          3D

 21 20  0  0  1  0  0  0  0  0999 V2000
    4.7793  -19.6295   21.7656 C   0  0  0  0  0  0  0  0  0  0  0  0
    3.6859  -18.9871   22.6364 C   0  0  2  0  0  0  0  0  0  0  0  0
    2.4372  -18.7883   21.8064 C   0  0  0  0  0  0  0  0  0  0  0  0
    4.1781  -17.6857   23.2046 C   0  0  0  0  0  0  0  0  0  0  0  0
    5.5396  -17.8279   23.7696 C   0  0  2  0  0  0  0  0  0  0  0  0
    5.5551  -18.2464   25.1481 N   0  0  0  0  0  0  0  0  0  0  0  0
    6.3374  -16.5747   23.6867 C   0  0  0  0  0  0  0  0  0  0  0  0
    6.5613  -16.0490   22.5783 O   0  0  0  0  0  0  0  0  0  0  0  0
    5.5970  -12.5158   26.8743 C   0  0  0  0  0  0  0  0  0  0  0  0
    6.0837  -13.2933   25.6683 C   0  0  0  0  0  0  0  0  0  0  0  0
    7.3701  -13.9921   25.9530 C   0  0  2  0  0  0  0  0  0  0  0  0
    8.4338  -13.0480   26.4154 C   0  0  0  0  0  0  0  0  0  0  0  0
    7.8443  -14.9360   24.8780 C   0  0  2  0  0  0  0  0  0  0  0  0
    6.8259  -16.0046   24.8662 N   0  0  0  0  0  0  0  0  0  0  0  0
    9.1456  -15.5788   25.1767 C   0  0  0  0  0  0  0  0  0  0  0  0
    9.3368  -16.1446   26.2844 O   0  0  0  0  0  0  0  0  0  0  0  0
   10.2493  -15.6158   24.2790 N   0  0  0  0  0  0  0  0  0  0  0  0
   11.5084  -16.2377   24.6450 C   0  0  0  0  0  0  0  0  0  0  0  0
   12.4680  -16.2341   23.5171 C   0  0  0  0  0  0  0  0  0  0  0  0
   12.1446  -15.7848   22.2500 O   0  0  0  0  0  0  0  0  0  0  0  0
   13.6299  -16.6624   23.7340 O   0  0  0  0  0  0  0  0  0  0  0  0
  2  1  1  6
  3  2  1  0
  4  5  1  0
  4  2  1  0
  5  7  1  0
  5  6  1  1
  7 14  1  0
  7  8  2  0
  9 10  1  0
 10 11  1  0
 11 12  1  6
 13 15  1  0
 13 11  1  0
 13 14  1  1
 15 16  2  0
 17 18  1  0
 17 15  1  0
 19 18  1  0
 20 19  1  0
 21 19  2  0
M  END
$$$$
