LIG.pdb
     RDKit          3D

 21 20  0  0  1  0  0  0  0  0999 V2000
    5.5957  -12.3493   26.4868 C   0  0  0  0  0  0  0  0  0  0  0  0
    6.7591  -13.1963   27.0306 C   0  0  2  0  0  0  0  0  0  0  0  0
    7.7346  -12.2983   27.7585 C   0  0  0  0  0  0  0  0  0  0  0  0
    7.4292  -13.9340   25.9058 C   0  0  0  0  0  0  0  0  0  0  0  0
    6.4890  -14.8639   25.2389 C   0  0  2  0  0  0  0  0  0  0  0  0
    5.8547  -15.7926   26.1394 N   0  0  0  0  0  0  0  0  0  0  0  0
    7.1311  -15.6691   24.1651 C   0  0  0  0  0  0  0  0  0  0  0  0
    6.9710  -16.9053   24.1309 O   0  0  0  0  0  0  0  0  0  0  0  0
    7.1544  -12.4307   21.1561 C   0  0  0  0  0  0  0  0  0  0  0  0
    7.2295  -13.8337   20.5890 C   0  0  0  0  0  0  0  0  0  0  0  0
    8.4963  -14.5143   20.9839 C   0  0  2  0  0  0  0  0  0  0  0  0
    9.3458  -14.8542   19.8008 C   0  0  0  0  0  0  0  0  0  0  0  0
    8.3398  -15.6619   21.9482 C   0  0  2  0  0  0  0  0  0  0  0  0
    7.9100  -15.0167   23.2045 N   0  0  0  0  0  0  0  0  0  0  0  0
    9.6044  -16.3779   22.2377 C   0  0  0  0  0  0  0  0  0  0  0  0
   10.0567  -17.2252   21.4245 O   0  0  0  0  0  0  0  0  0  0  0  0
   10.3900  -16.1819   23.4080 N   0  0  0  0  0  0  0  0  0  0  0  0
   11.6050  -16.9392   23.6456 C   0  0  0  0  0  0  0  0  0  0  0  0
   12.7889  -16.2716   23.0577 C   0  0  0  0  0  0  0  0  0  0  0  0
   14.0887  -16.5991   23.3972 O   0  0  0  0  0  0  0  0  0  0  0  0
   12.5903  -15.3647   22.2099 O   0  0  0  0  0  0  0  0  0  0  0  0
  2  1  1  6
  3  2  1  0
  4  5  1  0
  4  2  1  0
  5  7  1  0
  5  6  1  1
  7 14  1  0
  7  8  2  0
  9 10  1  0
 10 11  1  0
 11 12  1  6
 13 15  1  0
 13 11  1  0
 13 14  1  1
 15 16  2  0
 17 18  1  0
 17 15  1  0
 19 18  1  0
 20 19  1  0
 21 19  2  0
M  END
$$$$
