LIG.pdb
     RDKit          3D

 21 20  0  0  1  0  0  0  0  0999 V2000
    5.9739  -20.4492   26.7562 C   0  0  0  0  0  0  0  0  0  0  0  0
    6.6119  -20.6242   25.3673 C   0  0  2  0  0  0  0  0  0  0  0  0
    7.5989  -21.7695   25.4106 C   0  0  0  0  0  0  0  0  0  0  0  0
    7.2761  -19.3454   24.9405 C   0  0  0  0  0  0  0  0  0  0  0  0
    6.2753  -18.3210   24.5637 C   0  0  2  0  0  0  0  0  0  0  0  0
    5.4622  -18.6920   23.4337 N   0  0  0  0  0  0  0  0  0  0  0  0
    6.8850  -17.0015   24.2460 C   0  0  0  0  0  0  0  0  0  0  0  0
    7.1135  -16.6880   23.0610 O   0  0  0  0  0  0  0  0  0  0  0  0
    5.3772  -12.8362   27.0457 C   0  0  0  0  0  0  0  0  0  0  0  0
    6.0062  -13.4814   25.8276 C   0  0  0  0  0  0  0  0  0  0  0  0
    7.3996  -13.9329   26.1081 C   0  0  2  0  0  0  0  0  0  0  0  0
    8.3107  -12.7885   26.4196 C   0  0  0  0  0  0  0  0  0  0  0  0
    7.9813  -14.8952   25.1045 C   0  0  2  0  0  0  0  0  0  0  0  0
    7.1932  -16.1289   25.2942 N   0  0  0  0  0  0  0  0  0  0  0  0
    9.3994  -15.2416   25.3591 C   0  0  0  0  0  0  0  0  0  0  0  0
    9.7672  -15.6194   26.5018 O   0  0  0  0  0  0  0  0  0  0  0  0
   10.4300  -15.1834   24.3794 N   0  0  0  0  0  0  0  0  0  0  0  0
   11.8233  -15.3956   24.7258 C   0  0  0  0  0  0  0  0  0  0  0  0
   12.2757  -16.7577   24.3614 C   0  0  0  0  0  0  0  0  0  0  0  0
   13.4209  -17.0033   23.6263 O   0  0  0  0  0  0  0  0  0  0  0  0
   11.5769  -17.7301   24.7444 O   0  0  0  0  0  0  0  0  0  0  0  0
  2  1  1  1
  3  2  1  0
  4  5  1  0
  4  2  1  0
  5  7  1  0
  5  6  1  6
  7 14  1  0
  7  8  2  0
  9 10  1  0
 10 11  1  0
 11 12  1  6
 13 15  1  0
 13 11  1  0
 13 14  1  1
 15 16  2  0
 17 18  1  0
 17 15  1  0
 19 18  1  0
 20 19  1  0
 21 19  2  0
M  END
$$$$
