LIG.pdb
     RDKit          3D

 21 20  0  0  1  0  0  0  0  0999 V2000
    5.6100  -12.4340   26.3639 C   0  0  0  0  0  0  0  0  0  0  0  0
    6.7856  -13.0755   27.1208 C   0  0  2  0  0  0  0  0  0  0  0  0
    7.6177  -11.9897   27.7661 C   0  0  0  0  0  0  0  0  0  0  0  0
    7.6093  -13.9105   26.1812 C   0  0  0  0  0  0  0  0  0  0  0  0
    6.7803  -14.9368   25.5085 C   0  0  2  0  0  0  0  0  0  0  0  0
    6.3423  -15.9940   26.3837 N   0  0  0  0  0  0  0  0  0  0  0  0
    7.4719  -15.5817   24.3599 C   0  0  0  0  0  0  0  0  0  0  0  0
    7.5691  -16.8237   24.3067 O   0  0  0  0  0  0  0  0  0  0  0  0
    6.8509  -12.4638   20.1027 C   0  0  0  0  0  0  0  0  0  0  0  0
    6.9229  -13.7551   20.8922 C   0  0  0  0  0  0  0  0  0  0  0  0
    8.3343  -14.1907   21.0975 C   0  0  2  0  0  0  0  0  0  0  0  0
    9.0488  -14.4149   19.8028 C   0  0  0  0  0  0  0  0  0  0  0  0
    8.5266  -15.3162   22.0811 C   0  0  2  0  0  0  0  0  0  0  0  0
    8.0053  -14.7736   23.3512 N   0  0  0  0  0  0  0  0  0  0  0  0
    9.9458  -15.6746   22.3114 C   0  0  0  0  0  0  0  0  0  0  0  0
   10.5986  -16.2893   21.4283 O   0  0  0  0  0  0  0  0  0  0  0  0
   10.6701  -15.3698   23.4980 N   0  0  0  0  0  0  0  0  0  0  0  0
   12.0983  -15.6062   23.6007 C   0  0  0  0  0  0  0  0  0  0  0  0
   12.3932  -16.9919   24.0318 C   0  0  0  0  0  0  0  0  0  0  0  0
   13.6111  -17.3764   24.5619 O   0  0  0  0  0  0  0  0  0  0  0  0
   11.4849  -17.8517   23.9048 O   0  0  0  0  0  0  0  0  0  0  0  0
  2  1  1  6
  3  2  1  0
  4  5  1  0
  4  2  1  0
  5  7  1  0
  5  6  1  1
  7 14  1  0
  7  8  2  0
  9 10  1  0
 10 11  1  0
 11 12  1  6
 13 15  1  0
 13 11  1  0
 13 14  1  1
 15 16  2  0
 17 18  1  0
 17 15  1  0
 19 18  1  0
 20 19  1  0
 21 19  2  0
M  END
$$$$
