LIG.pdb
     RDKit          3D

 21 20  0  0  1  0  0  0  0  0999 V2000
    7.7454  -18.7818   19.7398 C   0  0  0  0  0  0  0  0  0  0  0  0
    6.7074  -17.6478   19.6864 C   0  0  2  0  0  0  0  0  0  0  0  0
    6.4163  -17.3032   18.2426 C   0  0  0  0  0  0  0  0  0  0  0  0
    7.2116  -16.4514   20.4434 C   0  0  0  0  0  0  0  0  0  0  0  0
    7.5280  -16.7996   21.8476 C   0  0  2  0  0  0  0  0  0  0  0  0
    6.3840  -17.2285   22.6111 N   0  0  0  0  0  0  0  0  0  0  0  0
    8.1556  -15.6783   22.5976 C   0  0  0  0  0  0  0  0  0  0  0  0
    9.1254  -15.0655   22.1090 O   0  0  0  0  0  0  0  0  0  0  0  0
    6.2381  -11.8254   26.8522 C   0  0  0  0  0  0  0  0  0  0  0  0
    7.4712  -12.4696   26.2518 C   0  0  0  0  0  0  0  0  0  0  0  0
    7.1136  -13.6321   25.3888 C   0  0  2  0  0  0  0  0  0  0  0  0
    6.1783  -14.5764   26.0746 C   0  0  0  0  0  0  0  0  0  0  0  0
    8.2757  -14.3275   24.7275 C   0  0  2  0  0  0  0  0  0  0  0  0
    7.6399  -15.3296   23.8496 N   0  0  0  0  0  0  0  0  0  0  0  0
    9.1473  -15.0665   25.6709 C   0  0  0  0  0  0  0  0  0  0  0  0
    8.7612  -15.2980   26.8461 O   0  0  0  0  0  0  0  0  0  0  0  0
   10.4423  -15.5618   25.3500 N   0  0  0  0  0  0  0  0  0  0  0  0
   11.2556  -16.2588   26.3293 C   0  0  0  0  0  0  0  0  0  0  0  0
   12.5148  -16.7627   25.7348 C   0  0  0  0  0  0  0  0  0  0  0  0
   13.4482  -17.4936   26.4466 O   0  0  0  0  0  0  0  0  0  0  0  0
   12.7350  -16.5076   24.5237 O   0  0  0  0  0  0  0  0  0  0  0  0
  2  1  1  6
  3  2  1  0
  4  5  1  0
  4  2  1  0
  5  7  1  0
  5  6  1  1
  7 14  1  0
  7  8  2  0
  9 10  1  0
 10 11  1  0
 11 12  1  1
 13 15  1  0
 13 11  1  0
 13 14  1  6
 15 16  2  0
 17 18  1  0
 17 15  1  0
 19 18  1  0
 20 19  1  0
 21 19  2  0
M  END
$$$$
