LIG.pdb
     RDKit          3D

 21 20  0  0  1  0  0  0  0  0999 V2000
   11.7190  -15.3442   29.2387 C   0  0  0  0  0  0  0  0  0  0  0  0
   10.2795  -15.5411   28.7332 C   0  0  2  0  0  0  0  0  0  0  0  0
    9.3346  -14.7172   29.5795 C   0  0  0  0  0  0  0  0  0  0  0  0
    9.9157  -16.9988   28.7684 C   0  0  0  0  0  0  0  0  0  0  0  0
    8.5572  -17.2260   28.2242 C   0  0  2  0  0  0  0  0  0  0  0  0
    8.0923  -18.5816   28.3713 N   0  0  0  0  0  0  0  0  0  0  0  0
    8.4438  -16.8815   26.7812 C   0  0  0  0  0  0  0  0  0  0  0  0
    8.5275  -17.7765   25.9170 O   0  0  0  0  0  0  0  0  0  0  0  0
    5.9369  -12.2495   26.4016 C   0  0  0  0  0  0  0  0  0  0  0  0
    6.2217  -13.6699   25.9575 C   0  0  0  0  0  0  0  0  0  0  0  0
    7.4589  -13.7440   25.1282 C   0  0  2  0  0  0  0  0  0  0  0  0
    7.2922  -13.0661   23.8055 C   0  0  0  0  0  0  0  0  0  0  0  0
    8.0809  -15.1123   25.0167 C   0  0  2  0  0  0  0  0  0  0  0  0
    8.2434  -15.5462   26.4183 N   0  0  0  0  0  0  0  0  0  0  0  0
    9.4299  -15.1089   24.4034 C   0  0  0  0  0  0  0  0  0  0  0  0
   10.2576  -14.2056   24.6908 O   0  0  0  0  0  0  0  0  0  0  0  0
    9.8942  -16.0833   23.4758 N   0  0  0  0  0  0  0  0  0  0  0  0
   11.0663  -15.8528   22.6517 C   0  0  0  0  0  0  0  0  0  0  0  0
   11.3822  -17.0293   21.8095 C   0  0  0  0  0  0  0  0  0  0  0  0
   12.6652  -17.5161   21.6404 O   0  0  0  0  0  0  0  0  0  0  0  0
   10.4296  -17.6050   21.2250 O   0  0  0  0  0  0  0  0  0  0  0  0
  2  1  1  1
  3  2  1  0
  4  5  1  0
  4  2  1  0
  5  7  1  0
  5  6  1  6
  7 14  1  0
  7  8  2  0
  9 10  1  0
 10 11  1  0
 11 12  1  6
 13 15  1  0
 13 11  1  0
 13 14  1  1
 15 16  2  0
 17 18  1  0
 17 15  1  0
 19 18  1  0
 20 19  1  0
 21 19  2  0
M  END
$$$$
