LIG.pdb
     RDKit          3D

 21 20  0  0  1  0  0  0  0  0999 V2000
   10.0903  -14.2926   29.8414 C   0  0  0  0  0  0  0  0  0  0  0  0
    9.9298  -15.7986   30.1108 C   0  0  2  0  0  0  0  0  0  0  0  0
   11.2275  -16.5058   29.7889 C   0  0  0  0  0  0  0  0  0  0  0  0
    8.7910  -16.3488   29.2990 C   0  0  0  0  0  0  0  0  0  0  0  0
    9.2176  -16.6536   27.9140 C   0  0  2  0  0  0  0  0  0  0  0  0
   10.4371  -15.9932   27.5238 N   0  0  0  0  0  0  0  0  0  0  0  0
    8.1889  -16.3026   26.8980 C   0  0  0  0  0  0  0  0  0  0  0  0
    7.0718  -16.8562   26.9232 O   0  0  0  0  0  0  0  0  0  0  0  0
    6.2980  -11.6300   26.5873 C   0  0  0  0  0  0  0  0  0  0  0  0
    6.2491  -13.0855   26.1691 C   0  0  0  0  0  0  0  0  0  0  0  0
    7.3529  -13.4184   25.2231 C   0  0  2  0  0  0  0  0  0  0  0  0
    7.3203  -12.5640   23.9960 C   0  0  0  0  0  0  0  0  0  0  0  0
    7.5223  -14.8846   24.9181 C   0  0  2  0  0  0  0  0  0  0  0  0
    8.4981  -15.3483   25.9240 N   0  0  0  0  0  0  0  0  0  0  0  0
    8.1102  -15.1550   23.5851 C   0  0  0  0  0  0  0  0  0  0  0  0
    7.4420  -14.9437   22.5398 O   0  0  0  0  0  0  0  0  0  0  0  0
    9.4257  -15.6548   23.3724 N   0  0  0  0  0  0  0  0  0  0  0  0
    9.9405  -15.9015   22.0382 C   0  0  0  0  0  0  0  0  0  0  0  0
   11.3349  -16.3988   22.0737 C   0  0  0  0  0  0  0  0  0  0  0  0
   12.1080  -16.5655   20.9395 O   0  0  0  0  0  0  0  0  0  0  0  0
   11.8292  -16.6797   23.1950 O   0  0  0  0  0  0  0  0  0  0  0  0
  2  1  1  6
  3  2  1  0
  4  5  1  0
  4  2  1  0
  5  7  1  0
  5  6  1  6
  7 14  1  0
  7  8  2  0
  9 10  1  0
 10 11  1  0
 11 12  1  6
 13 15  1  0
 13 11  1  0
 13 14  1  1
 15 16  2  0
 17 18  1  0
 17 15  1  0
 19 18  1  0
 20 19  1  0
 21 19  2  0
M  END
$$$$
