LIG.pdb
     RDKit          3D

 21 20  0  0  1  0  0  0  0  0999 V2000
    8.0412  -12.8318   18.5242 C   0  0  0  0  0  0  0  0  0  0  0  0
    7.5296  -13.6722   19.7069 C   0  0  2  0  0  0  0  0  0  0  0  0
    6.5285  -12.8623   20.5004 C   0  0  0  0  0  0  0  0  0  0  0  0
    8.6829  -14.1095   20.5654 C   0  0  0  0  0  0  0  0  0  0  0  0
    8.2431  -15.0639   21.6089 C   0  0  2  0  0  0  0  0  0  0  0  0
    6.8127  -15.1347   21.7648 N   0  0  0  0  0  0  0  0  0  0  0  0
    8.8122  -14.7620   22.9501 C   0  0  0  0  0  0  0  0  0  0  0  0
    9.9783  -14.3321   23.0515 O   0  0  0  0  0  0  0  0  0  0  0  0
    6.1082  -11.7675   25.9225 C   0  0  0  0  0  0  0  0  0  0  0  0
    7.2720  -12.5435   25.3400 C   0  0  0  0  0  0  0  0  0  0  0  0
    7.4917  -13.8258   26.0690 C   0  0  2  0  0  0  0  0  0  0  0  0
    7.6975  -13.6124   27.5349 C   0  0  0  0  0  0  0  0  0  0  0  0
    8.5130  -14.7500   25.4573 C   0  0  2  0  0  0  0  0  0  0  0  0
    8.0195  -14.9685   24.0833 N   0  0  0  0  0  0  0  0  0  0  0  0
    8.5855  -16.0785   26.1096 C   0  0  0  0  0  0  0  0  0  0  0  0
    7.5345  -16.7264   26.3530 O   0  0  0  0  0  0  0  0  0  0  0  0
    9.7954  -16.7168   26.5023 N   0  0  0  0  0  0  0  0  0  0  0  0
    9.7982  -18.0301   27.1199 C   0  0  0  0  0  0  0  0  0  0  0  0
   11.1748  -18.5036   27.3912 C   0  0  0  0  0  0  0  0  0  0  0  0
   12.3045  -17.7951   27.0253 O   0  0  0  0  0  0  0  0  0  0  0  0
   11.3107  -19.6042   27.9833 O   0  0  0  0  0  0  0  0  0  0  0  0
  2  1  1  6
  3  2  1  0
  4  5  1  0
  4  2  1  0
  5  7  1  0
  5  6  1  1
  7 14  1  0
  7  8  2  0
  9 10  1  0
 10 11  1  0
 11 12  1  1
 13 15  1  0
 13 11  1  0
 13 14  1  6
 15 16  2  0
 17 18  1  0
 17 15  1  0
 19 18  1  0
 20 19  1  0
 21 19  2  0
M  END
$$$$
