LIG.pdb
     RDKit          3D

 21 20  0  0  1  0  0  0  0  0999 V2000
    8.2482  -14.9226   18.7241 C   0  0  0  0  0  0  0  0  0  0  0  0
    7.4755  -13.7868   19.4166 C   0  0  2  0  0  0  0  0  0  0  0  0
    7.4944  -12.5582   18.5346 C   0  0  0  0  0  0  0  0  0  0  0  0
    8.0760  -13.5020   20.7645 C   0  0  0  0  0  0  0  0  0  0  0  0
    8.1130  -14.7217   21.6038 C   0  0  2  0  0  0  0  0  0  0  0  0
    6.8096  -15.2431   21.9274 N   0  0  0  0  0  0  0  0  0  0  0  0
    8.8326  -14.5206   22.8904 C   0  0  0  0  0  0  0  0  0  0  0  0
   10.0384  -14.2029   22.8887 O   0  0  0  0  0  0  0  0  0  0  0  0
    6.1052  -11.8951   26.2807 C   0  0  0  0  0  0  0  0  0  0  0  0
    7.2593  -12.5126   25.5176 C   0  0  0  0  0  0  0  0  0  0  0  0
    7.7775  -13.7307   26.2045 C   0  0  2  0  0  0  0  0  0  0  0  0
    8.2354  -13.4399   27.5982 C   0  0  0  0  0  0  0  0  0  0  0  0
    8.7693  -14.5454   25.4145 C   0  0  2  0  0  0  0  0  0  0  0  0
    8.1350  -14.6938   24.0898 N   0  0  0  0  0  0  0  0  0  0  0  0
    8.9841  -15.9106   25.9491 C   0  0  0  0  0  0  0  0  0  0  0  0
    8.1240  -16.4439   26.6972 O   0  0  0  0  0  0  0  0  0  0  0  0
   10.1300  -16.7097   25.6776 N   0  0  0  0  0  0  0  0  0  0  0  0
   10.2658  -18.0527   26.2106 C   0  0  0  0  0  0  0  0  0  0  0  0
   11.6464  -18.3192   26.6753 C   0  0  0  0  0  0  0  0  0  0  0  0
   12.0145  -19.4827   27.3255 O   0  0  0  0  0  0  0  0  0  0  0  0
   12.5173  -17.4378   26.4629 O   0  0  0  0  0  0  0  0  0  0  0  0
  2  1  1  6
  3  2  1  0
  4  5  1  0
  4  2  1  0
  5  7  1  0
  5  6  1  1
  7 14  1  0
  7  8  2  0
  9 10  1  0
 10 11  1  0
 11 12  1  1
 13 15  1  0
 13 11  1  0
 13 14  1  6
 15 16  2  0
 17 18  1  0
 17 15  1  0
 19 18  1  0
 20 19  1  0
 21 19  2  0
M  END
$$$$
