LIG.pdb
     RDKit          3D

 21 20  0  0  1  0  0  0  0  0999 V2000
    4.3761  -19.8013   23.3755 C   0  0  0  0  0  0  0  0  0  0  0  0
    5.8720  -19.9025   23.0311 C   0  0  2  0  0  0  0  0  0  0  0  0
    6.4353  -21.1783   23.6167 C   0  0  0  0  0  0  0  0  0  0  0  0
    6.6025  -18.6946   23.5469 C   0  0  0  0  0  0  0  0  0  0  0  0
    6.1092  -17.4547   22.9047 C   0  0  2  0  0  0  0  0  0  0  0  0
    5.9107  -17.5770   21.4830 N   0  0  0  0  0  0  0  0  0  0  0  0
    7.0103  -16.2904   23.1193 C   0  0  0  0  0  0  0  0  0  0  0  0
    7.8625  -15.9932   22.2590 O   0  0  0  0  0  0  0  0  0  0  0  0
    6.6437  -11.4268   26.7989 C   0  0  0  0  0  0  0  0  0  0  0  0
    7.5821  -12.2658   25.9557 C   0  0  0  0  0  0  0  0  0  0  0  0
    6.9112  -13.5015   25.4588 C   0  0  2  0  0  0  0  0  0  0  0  0
    6.1729  -14.2173   26.5448 C   0  0  0  0  0  0  0  0  0  0  0  0
    7.7749  -14.4165   24.6291 C   0  0  2  0  0  0  0  0  0  0  0  0
    6.8825  -15.5439   24.2947 N   0  0  0  0  0  0  0  0  0  0  0  0
    8.9305  -14.9803   25.3656 C   0  0  0  0  0  0  0  0  0  0  0  0
    8.8272  -15.2717   26.5855 O   0  0  0  0  0  0  0  0  0  0  0  0
   10.2061  -15.2343   24.7879 N   0  0  0  0  0  0  0  0  0  0  0  0
   11.3338  -15.6680   25.5919 C   0  0  0  0  0  0  0  0  0  0  0  0
   12.5200  -15.9626   24.7558 C   0  0  0  0  0  0  0  0  0  0  0  0
   13.6982  -16.4745   25.2675 O   0  0  0  0  0  0  0  0  0  0  0  0
   12.4402  -15.7322   23.5225 O   0  0  0  0  0  0  0  0  0  0  0  0
  2  1  1  1
  3  2  1  0
  4  5  1  0
  4  2  1  0
  5  7  1  0
  5  6  1  6
  7 14  1  0
  7  8  2  0
  9 10  1  0
 10 11  1  0
 11 12  1  1
 13 15  1  0
 13 11  1  0
 13 14  1  1
 15 16  2  0
 17 18  1  0
 17 15  1  0
 19 18  1  0
 20 19  1  0
 21 19  2  0
M  END
$$$$
