LIG.pdb
     RDKit          3D

 21 20  0  0  1  0  0  0  0  0999 V2000
    9.5739  -14.6409   29.8636 C   0  0  0  0  0  0  0  0  0  0  0  0
   10.2233  -16.0096   29.5965 C   0  0  2  0  0  0  0  0  0  0  0  0
   11.7125  -15.9138   29.8431 C   0  0  0  0  0  0  0  0  0  0  0  0
    9.9289  -16.4544   28.1915 C   0  0  0  0  0  0  0  0  0  0  0  0
    8.5296  -16.9207   28.0585 C   0  0  2  0  0  0  0  0  0  0  0  0
    8.3706  -18.3402   28.2464 N   0  0  0  0  0  0  0  0  0  0  0  0
    7.9282  -16.5866   26.7393 C   0  0  0  0  0  0  0  0  0  0  0  0
    7.4119  -17.4832   26.0432 O   0  0  0  0  0  0  0  0  0  0  0  0
    6.0164  -11.5243   26.6819 C   0  0  0  0  0  0  0  0  0  0  0  0
    5.9204  -12.9654   26.2239 C   0  0  0  0  0  0  0  0  0  0  0  0
    7.0482  -13.3255   25.3169 C   0  0  2  0  0  0  0  0  0  0  0  0
    7.0262  -12.5333   24.0486 C   0  0  0  0  0  0  0  0  0  0  0  0
    7.2472  -14.8018   25.0882 C   0  0  2  0  0  0  0  0  0  0  0  0
    7.9538  -15.2591   26.3009 N   0  0  0  0  0  0  0  0  0  0  0  0
    8.1191  -15.1166   23.9321 C   0  0  0  0  0  0  0  0  0  0  0  0
    7.6614  -15.0784   22.7605 O   0  0  0  0  0  0  0  0  0  0  0  0
    9.4929  -15.4739   24.0345 N   0  0  0  0  0  0  0  0  0  0  0  0
   10.3217  -15.6591   22.8577 C   0  0  0  0  0  0  0  0  0  0  0  0
   11.7445  -15.8576   23.2170 C   0  0  0  0  0  0  0  0  0  0  0  0
   12.7914  -15.5020   22.3865 O   0  0  0  0  0  0  0  0  0  0  0  0
   12.0009  -16.3753   24.3335 O   0  0  0  0  0  0  0  0  0  0  0  0
  2  1  1  6
  3  2  1  0
  4  5  1  0
  4  2  1  0
  5  7  1  0
  5  6  1  6
  7 14  1  0
  7  8  2  0
  9 10  1  0
 10 11  1  0
 11 12  1  6
 13 15  1  0
 13 11  1  0
 13 14  1  1
 15 16  2  0
 17 18  1  0
 17 15  1  0
 19 18  1  0
 20 19  1  0
 21 19  2  0
M  END
$$$$
