LIG.pdb
     RDKit          3D

 21 20  0  0  1  0  0  0  0  0999 V2000
    8.1257  -15.0664   18.6586 C   0  0  0  0  0  0  0  0  0  0  0  0
    7.4447  -14.0023   19.5364 C   0  0  2  0  0  0  0  0  0  0  0  0
    7.1807  -12.7644   18.7083 C   0  0  0  0  0  0  0  0  0  0  0  0
    8.3051  -13.6899   20.7284 C   0  0  0  0  0  0  0  0  0  0  0  0
    8.3088  -14.8112   21.6958 C   0  0  2  0  0  0  0  0  0  0  0  0
    7.0012  -15.3566   21.9569 N   0  0  0  0  0  0  0  0  0  0  0  0
    8.8965  -14.4418   23.0118 C   0  0  0  0  0  0  0  0  0  0  0  0
   10.0210  -13.9055   23.0653 O   0  0  0  0  0  0  0  0  0  0  0  0
    5.7899  -11.7511   26.4502 C   0  0  0  0  0  0  0  0  0  0  0  0
    7.1058  -12.2157   25.8600 C   0  0  0  0  0  0  0  0  0  0  0  0
    7.3346  -13.6674   26.1132 C   0  0  2  0  0  0  0  0  0  0  0  0
    7.1631  -14.0216   27.5561 C   0  0  0  0  0  0  0  0  0  0  0  0
    8.5925  -14.2380   25.5101 C   0  0  2  0  0  0  0  0  0  0  0  0
    8.1685  -14.7062   24.1759 N   0  0  0  0  0  0  0  0  0  0  0  0
    9.1237  -15.4158   26.2356 C   0  0  0  0  0  0  0  0  0  0  0  0
    9.6712  -15.2771   27.3603 O   0  0  0  0  0  0  0  0  0  0  0  0
    9.0656  -16.7526   25.7509 N   0  0  0  0  0  0  0  0  0  0  0  0
    9.6771  -17.8524   26.4738 C   0  0  0  0  0  0  0  0  0  0  0  0
    8.6829  -18.5958   27.2813 C   0  0  0  0  0  0  0  0  0  0  0  0
    9.0292  -19.5756   28.1934 O   0  0  0  0  0  0  0  0  0  0  0  0
    7.4683  -18.3138   27.1211 O   0  0  0  0  0  0  0  0  0  0  0  0
  2  1  1  6
  3  2  1  0
  4  5  1  0
  4  2  1  0
  5  7  1  0
  5  6  1  1
  7 14  1  0
  7  8  2  0
  9 10  1  0
 10 11  1  0
 11 12  1  1
 13 15  1  0
 13 11  1  0
 13 14  1  6
 15 16  2  0
 17 18  1  0
 17 15  1  0
 19 18  1  0
 20 19  1  0
 21 19  2  0
M  END
$$$$
