LIG.pdb
     RDKit          3D

 21 20  0  0  1  0  0  0  0  0999 V2000
    5.8295  -16.6047   20.2000 C   0  0  0  0  0  0  0  0  0  0  0  0
    7.0556  -17.3943   20.6895 C   0  0  2  0  0  0  0  0  0  0  0  0
    6.6944  -18.8585   20.8056 C   0  0  0  0  0  0  0  0  0  0  0  0
    7.5328  -16.8426   22.0035 C   0  0  0  0  0  0  0  0  0  0  0  0
    7.8855  -15.4090   21.8870 C   0  0  2  0  0  0  0  0  0  0  0  0
    8.6853  -15.1004   20.7292 N   0  0  0  0  0  0  0  0  0  0  0  0
    8.6202  -14.8927   23.0733 C   0  0  0  0  0  0  0  0  0  0  0  0
    9.8475  -14.6824   23.0051 O   0  0  0  0  0  0  0  0  0  0  0  0
    5.6135  -11.5832   26.0340 C   0  0  0  0  0  0  0  0  0  0  0  0
    6.7996  -12.1999   25.3208 C   0  0  0  0  0  0  0  0  0  0  0  0
    7.3969  -13.3108   26.1166 C   0  0  2  0  0  0  0  0  0  0  0  0
    7.7106  -12.8945   27.5183 C   0  0  0  0  0  0  0  0  0  0  0  0
    8.5318  -14.0453   25.4502 C   0  0  2  0  0  0  0  0  0  0  0  0
    7.9125  -14.6505   24.2546 N   0  0  0  0  0  0  0  0  0  0  0  0
    9.0858  -15.1546   26.2616 C   0  0  0  0  0  0  0  0  0  0  0  0
    9.6535  -14.9183   27.3596 O   0  0  0  0  0  0  0  0  0  0  0  0
    9.0287  -16.5278   25.8922 N   0  0  0  0  0  0  0  0  0  0  0  0
    9.4501  -17.5789   26.7998 C   0  0  0  0  0  0  0  0  0  0  0  0
   10.9009  -17.8523   26.6834 C   0  0  0  0  0  0  0  0  0  0  0  0
   11.4763  -19.0544   27.0519 O   0  0  0  0  0  0  0  0  0  0  0  0
   11.6350  -16.9399   26.2260 O   0  0  0  0  0  0  0  0  0  0  0  0
  2  1  1  1
  3  2  1  0
  4  5  1  0
  4  2  1  0
  5  7  1  0
  5  6  1  6
  7 14  1  0
  7  8  2  0
  9 10  1  0
 10 11  1  0
 11 12  1  1
 13 15  1  0
 13 11  1  0
 13 14  1  6
 15 16  2  0
 17 18  1  0
 17 15  1  0
 19 18  1  0
 20 19  1  0
 21 19  2  0
M  END
$$$$
