WHK.pdb
     RDKit          3D

 34 36  0  0  1  0  0  0  0  0999 V2000
   27.0601  -21.9451  -12.0924 N   0  0  0  0  0  0  0  0  0  0  0  0
   26.6081  -21.4983  -10.7911 C   0  0  1  0  0  0  0  0  0  0  0  0
   27.2893  -20.2840  -10.2917 C   0  0  0  0  0  0  0  0  0  0  0  0
   28.3343  -20.4190   -9.2900 C   0  0  0  0  0  0  0  0  0  0  0  0
   29.5995  -20.9418   -9.6328 C   0  0  0  0  0  0  0  0  0  0  0  0
   30.3670  -20.9515   -8.5526 N   0  0  0  0  0  0  0  0  0  0  0  0
   29.7063  -20.4662   -7.4847 C   0  0  0  0  0  0  0  0  0  0  0  0
   30.0619  -20.2769   -6.1665 C   0  0  0  0  0  0  0  0  0  0  0  0
   29.1337  -19.7466   -5.2924 C   0  0  0  0  0  0  0  0  0  0  0  0
   27.8699  -19.4176   -5.7585 C   0  0  0  0  0  0  0  0  0  0  0  0
   27.5050  -19.6037   -7.0778 C   0  0  0  0  0  0  0  0  0  0  0  0
   28.4243  -20.1308   -7.9515 C   0  0  0  0  0  0  0  0  0  0  0  0
   25.1315  -21.1209  -10.9458 C   0  0  0  0  0  0  0  0  0  0  0  0
   24.7608  -20.7492  -12.0683 O   0  0  0  0  0  0  0  0  0  0  0  0
   24.2171  -21.1842   -9.8783 N   0  0  0  0  0  0  0  0  0  0  0  0
   22.8326  -21.5043  -10.0368 C   0  0  1  0  0  0  0  0  0  0  0  0
   22.1258  -21.8009   -8.7770 C   0  0  0  0  0  0  0  0  0  0  0  0
   20.7162  -22.1920   -8.8659 C   0  0  0  0  0  0  0  0  0  0  0  0
   19.7957  -22.2495   -9.8617 C   0  0  0  0  0  0  0  0  0  0  0  0
   18.6298  -22.7177   -9.3901 N   0  0  0  0  0  0  0  0  0  0  0  0
   18.8164  -22.9564   -8.0932 C   0  0  0  0  0  0  0  0  0  0  0  0
   20.0583  -22.6510   -7.7488 N   0  0  0  0  0  0  0  0  0  0  0  0
   22.0906  -20.4270  -10.7688 C   0  0  0  0  0  0  0  0  0  0  0  0
   22.0518  -19.2901  -10.2550 O   0  0  0  0  0  0  0  0  0  0  0  0
   21.4375  -20.6324  -12.0045 N   0  0  0  0  0  0  0  0  0  0  0  0
   20.7602  -19.5373  -12.7332 C   0  0  1  0  0  0  0  0  0  0  0  0
   21.0666  -19.6588  -14.2001 C   0  0  0  0  0  0  0  0  0  0  0  0
   21.8119  -18.4713  -14.6950 C   0  0  0  0  0  0  0  0  0  0  0  0
   22.0739  -18.5377  -16.1962 C   0  0  0  0  0  0  0  0  0  0  0  0
   22.8217  -17.3305  -16.6770 C   0  0  0  0  0  0  0  0  0  0  0  0
   23.0206  -17.4287  -18.1213 N   0  0  0  0  0  0  0  0  0  0  0  0
   19.3284  -19.7331  -12.4907 C   0  0  0  0  0  0  0  0  0  0  0  0
   18.7390  -20.9616  -12.6292 O   0  0  0  0  0  0  0  0  0  0  0  0
   18.5918  -18.7785  -12.1498 O   0  0  0  0  0  0  0  0  0  0  0  0
  2  1  1  6
  2  3  1  0
  4  5  2  0
  4  3  1  0
  6  5  1  0
  7 12  2  0
  7  6  1  0
  8  7  1  0
  9 10  1  0
  9  8  2  0
 10 11  2  0
 11 12  1  0
 12  4  1  0
 13  2  1  0
 14 13  2  0
 15 13  1  0
 16 17  1  1
 16 15  1  0
 17 18  1  0
 18 22  1  0
 19 18  2  0
 19 20  1  0
 20 21  1  0
 22 21  2  0
 23 24  2  0
 23 16  1  0
 25 23  1  0
 26 27  1  6
 26 25  1  0
 27 28  1  0
 29 28  1  0
 30 29  1  0
 31 30  1  0
 32 26  1  0
 33 32  1  0
 34 32  2  0
M  END
$$$$
