WHK.pdb
     RDKit          3D

 34 36  0  0  1  0  0  0  0  0999 V2000
   26.2867  -22.1435  -12.0934 N   0  0  0  0  0  0  0  0  0  0  0  0
   25.6687  -20.9143  -11.6413 C   0  0  1  0  0  0  0  0  0  0  0  0
   26.6048  -19.9533  -11.0182 C   0  0  0  0  0  0  0  0  0  0  0  0
   27.3726  -20.3650   -9.8544 C   0  0  0  0  0  0  0  0  0  0  0  0
   26.8465  -20.2167   -8.5533 C   0  0  0  0  0  0  0  0  0  0  0  0
   27.7314  -20.6715   -7.6780 N   0  0  0  0  0  0  0  0  0  0  0  0
   28.8370  -21.1248   -8.2982 C   0  0  0  0  0  0  0  0  0  0  0  0
   30.0116  -21.6799   -7.8376 C   0  0  0  0  0  0  0  0  0  0  0  0
   30.9798  -22.0503   -8.7499 C   0  0  0  0  0  0  0  0  0  0  0  0
   30.7495  -21.8563  -10.1034 C   0  0  0  0  0  0  0  0  0  0  0  0
   29.5754  -21.3009  -10.5739 C   0  0  0  0  0  0  0  0  0  0  0  0
   28.6091  -20.9307   -9.6708 C   0  0  0  0  0  0  0  0  0  0  0  0
   25.1157  -20.2174  -12.8884 C   0  0  0  0  0  0  0  0  0  0  0  0
   24.5529  -19.1264  -12.7199 O   0  0  0  0  0  0  0  0  0  0  0  0
   25.2283  -20.7693  -14.1778 N   0  0  0  0  0  0  0  0  0  0  0  0
   24.7289  -20.1364  -15.3587 C   0  0  1  0  0  0  0  0  0  0  0  0
   25.7519  -19.8635  -16.3850 C   0  0  0  0  0  0  0  0  0  0  0  0
   26.5940  -18.6776  -16.2050 C   0  0  0  0  0  0  0  0  0  0  0  0
   26.6101  -17.6330  -15.3387 C   0  0  0  0  0  0  0  0  0  0  0  0
   27.6415  -16.8189  -15.6117 N   0  0  0  0  0  0  0  0  0  0  0  0
   28.2775  -17.3527  -16.6530 C   0  0  0  0  0  0  0  0  0  0  0  0
   27.6730  -18.4686  -17.0316 N   0  0  0  0  0  0  0  0  0  0  0  0
   23.6117  -20.9183  -15.9813 C   0  0  0  0  0  0  0  0  0  0  0  0
   23.8386  -22.0996  -16.3145 O   0  0  0  0  0  0  0  0  0  0  0  0
   22.3219  -20.3884  -16.2079 N   0  0  0  0  0  0  0  0  0  0  0  0
   21.0898  -21.1571  -15.9251 C   0  0  1  0  0  0  0  0  0  0  0  0
   21.0651  -21.5294  -14.4686 C   0  0  0  0  0  0  0  0  0  0  0  0
   19.9062  -22.4067  -14.1564 C   0  0  0  0  0  0  0  0  0  0  0  0
   19.9459  -22.9289  -12.7238 C   0  0  0  0  0  0  0  0  0  0  0  0
   18.5709  -23.0168  -12.1329 C   0  0  0  0  0  0  0  0  0  0  0  0
   18.6486  -23.6547  -10.8205 N   0  0  0  0  0  0  0  0  0  0  0  0
   19.9823  -20.2511  -16.2413 C   0  0  0  0  0  0  0  0  0  0  0  0
   18.8101  -20.7118  -16.7792 O   0  0  0  0  0  0  0  0  0  0  0  0
   20.0723  -19.0190  -16.0319 O   0  0  0  0  0  0  0  0  0  0  0  0
  2  1  1  6
  2  3  1  0
  4  5  2  0
  4  3  1  0
  6  5  1  0
  7 12  2  0
  7  6  1  0
  8  7  1  0
  9 10  1  0
  9  8  2  0
 10 11  2  0
 11 12  1  0
 12  4  1  0
 13  2  1  0
 14 13  2  0
 15 13  1  0
 16 17  1  6
 16 15  1  0
 17 18  1  0
 18 22  1  0
 19 18  2  0
 19 20  1  0
 20 21  1  0
 22 21  2  0
 23 24  2  0
 23 16  1  0
 25 23  1  0
 26 27  1  1
 26 25  1  0
 27 28  1  0
 29 28  1  0
 30 29  1  0
 31 30  1  0
 32 26  1  0
 33 32  1  0
 34 32  2  0
M  END
$$$$
