WHK.pdb
     RDKit          3D

 34 36  0  0  1  0  0  0  0  0999 V2000
   24.8230   -7.7036  -16.3905 N   0  0  0  0  0  0  0  0  0  0  0  0
   24.2793   -9.0311  -16.1916 C   0  0  1  0  0  0  0  0  0  0  0  0
   22.8078   -9.0730  -16.0470 C   0  0  0  0  0  0  0  0  0  0  0  0
   22.1996   -8.5485  -14.8353 C   0  0  0  0  0  0  0  0  0  0  0  0
   21.5360   -7.3030  -14.8416 C   0  0  0  0  0  0  0  0  0  0  0  0
   21.0667   -7.0604  -13.6263 N   0  0  0  0  0  0  0  0  0  0  0  0
   21.3672   -8.0648  -12.7818 C   0  0  0  0  0  0  0  0  0  0  0  0
   21.1084   -8.2769  -11.4447 C   0  0  0  0  0  0  0  0  0  0  0  0
   21.5641   -9.4372  -10.8505 C   0  0  0  0  0  0  0  0  0  0  0  0
   22.2690  -10.3592  -11.6094 C   0  0  0  0  0  0  0  0  0  0  0  0
   22.5328  -10.1548  -12.9499 C   0  0  0  0  0  0  0  0  0  0  0  0
   22.0818   -9.0026  -13.5459 C   0  0  0  0  0  0  0  0  0  0  0  0
   24.6025   -9.8311  -17.4574 C   0  0  0  0  0  0  0  0  0  0  0  0
   24.5854   -9.2144  -18.5321 O   0  0  0  0  0  0  0  0  0  0  0  0
   24.9077  -11.2044  -17.4288 N   0  0  0  0  0  0  0  0  0  0  0  0
   25.2250  -11.9716  -18.5929 C   0  0  1  0  0  0  0  0  0  0  0  0
   26.5514  -12.6149  -18.5580 C   0  0  0  0  0  0  0  0  0  0  0  0
   27.7236  -11.7457  -18.4219 C   0  0  0  0  0  0  0  0  0  0  0  0
   27.9258  -10.4042  -18.3826 C   0  0  0  0  0  0  0  0  0  0  0  0
   29.2296  -10.1357  -18.2124 N   0  0  0  0  0  0  0  0  0  0  0  0
   29.8508  -11.3119  -18.1438 C   0  0  0  0  0  0  0  0  0  0  0  0
   28.9739  -12.2969  -18.2661 N   0  0  0  0  0  0  0  0  0  0  0  0
   24.1858  -13.0145  -18.8747 C   0  0  0  0  0  0  0  0  0  0  0  0
   23.3363  -13.2482  -17.9906 O   0  0  0  0  0  0  0  0  0  0  0  0
   24.1196  -13.7415  -20.0841 N   0  0  0  0  0  0  0  0  0  0  0  0
   23.0159  -14.6801  -20.3836 C   0  0  1  0  0  0  0  0  0  0  0  0
   21.7144  -13.9274  -20.3784 C   0  0  0  0  0  0  0  0  0  0  0  0
   20.5855  -14.8004  -20.7954 C   0  0  0  0  0  0  0  0  0  0  0  0
   20.0122  -15.6002  -19.6299 C   0  0  0  0  0  0  0  0  0  0  0  0
   18.5468  -15.8603  -19.8105 C   0  0  0  0  0  0  0  0  0  0  0  0
   18.0584  -16.6687  -18.6955 N   0  0  0  0  0  0  0  0  0  0  0  0
   23.3000  -15.2033  -21.7227 C   0  0  0  0  0  0  0  0  0  0  0  0
   24.3360  -14.7197  -22.4766 O   0  0  0  0  0  0  0  0  0  0  0  0
   22.5998  -16.1125  -22.2257 O   0  0  0  0  0  0  0  0  0  0  0  0
  2  1  1  6
  2  3  1  0
  4  5  2  0
  4  3  1  0
  6  5  1  0
  7 12  2  0
  7  6  1  0
  8  7  1  0
  9 10  1  0
  9  8  2  0
 10 11  2  0
 11 12  1  0
 12  4  1  0
 13  2  1  0
 14 13  2  0
 15 13  1  0
 16 17  1  1
 16 15  1  0
 17 18  1  0
 18 22  1  0
 19 18  2  0
 19 20  1  0
 20 21  1  0
 22 21  2  0
 23 24  2  0
 23 16  1  0
 25 23  1  0
 26 27  1  6
 26 25  1  0
 27 28  1  0
 29 28  1  0
 30 29  1  0
 31 30  1  0
 32 26  1  0
 33 32  1  0
 34 32  2  0
M  END
$$$$
