WHK.pdb
     RDKit          3D

 34 36  0  0  1  0  0  0  0  0999 V2000
   28.7454  -21.9197  -13.7790 N   0  0  0  0  0  0  0  0  0  0  0  0
   27.7103  -21.7441  -12.7815 C   0  0  1  0  0  0  0  0  0  0  0  0
   27.8547  -20.5226  -11.9599 C   0  0  0  0  0  0  0  0  0  0  0  0
   28.4259  -20.6283  -10.6272 C   0  0  0  0  0  0  0  0  0  0  0  0
   29.8002  -20.8959  -10.4502 C   0  0  0  0  0  0  0  0  0  0  0  0
   30.0667  -20.9329   -9.1527 N   0  0  0  0  0  0  0  0  0  0  0  0
   28.9576  -20.7067   -8.4239 C   0  0  0  0  0  0  0  0  0  0  0  0
   28.7213  -20.6458   -7.0673 C   0  0  0  0  0  0  0  0  0  0  0  0
   27.4393  -20.3908   -6.6220 C   0  0  0  0  0  0  0  0  0  0  0  0
   26.4226  -20.2024   -7.5459 C   0  0  0  0  0  0  0  0  0  0  0  0
   26.6504  -20.2615   -8.9071 C   0  0  0  0  0  0  0  0  0  0  0  0
   27.9236  -20.5148   -9.3555 C   0  0  0  0  0  0  0  0  0  0  0  0
   26.3901  -21.5878  -13.5427 C   0  0  0  0  0  0  0  0  0  0  0  0
   26.4408  -21.0287  -14.6473 O   0  0  0  0  0  0  0  0  0  0  0  0
   25.1622  -22.0487  -13.0332 N   0  0  0  0  0  0  0  0  0  0  0  0
   23.9506  -22.0829  -13.7916 C   0  0  1  0  0  0  0  0  0  0  0  0
   23.3991  -23.4343  -14.0017 C   0  0  0  0  0  0  0  0  0  0  0  0
   23.9423  -24.2238  -15.1106 C   0  0  0  0  0  0  0  0  0  0  0  0
   24.8974  -24.0253  -16.0542 C   0  0  0  0  0  0  0  0  0  0  0  0
   25.0160  -25.1130  -16.8312 N   0  0  0  0  0  0  0  0  0  0  0  0
   24.1332  -25.9999  -16.3753 C   0  0  0  0  0  0  0  0  0  0  0  0
   23.4739  -25.4957  -15.3432 N   0  0  0  0  0  0  0  0  0  0  0  0
   22.8894  -21.2129  -13.1883 C   0  0  0  0  0  0  0  0  0  0  0  0
   22.8112  -21.1629  -11.9435 O   0  0  0  0  0  0  0  0  0  0  0  0
   21.9791  -20.4504  -13.9534 N   0  0  0  0  0  0  0  0  0  0  0  0
   20.9809  -19.5524  -13.3319 C   0  0  1  0  0  0  0  0  0  0  0  0
   20.5396  -18.5314  -14.3435 C   0  0  0  0  0  0  0  0  0  0  0  0
   19.5748  -17.5680  -13.7509 C   0  0  0  0  0  0  0  0  0  0  0  0
   19.1548  -16.4871  -14.7418 C   0  0  0  0  0  0  0  0  0  0  0  0
   18.2510  -15.4765  -14.1018 C   0  0  0  0  0  0  0  0  0  0  0  0
   17.9807  -14.3996  -15.0517 N   0  0  0  0  0  0  0  0  0  0  0  0
   19.8597  -20.4166  -12.9532 C   0  0  0  0  0  0  0  0  0  0  0  0
   19.0872  -20.1490  -11.8544 O   0  0  0  0  0  0  0  0  0  0  0  0
   19.5707  -21.4351  -13.6234 O   0  0  0  0  0  0  0  0  0  0  0  0
  2  1  1  6
  2  3  1  0
  4  5  2  0
  4  3  1  0
  6  5  1  0
  7 12  2  0
  7  6  1  0
  8  7  1  0
  9 10  1  0
  9  8  2  0
 10 11  2  0
 11 12  1  0
 12  4  1  0
 13  2  1  0
 14 13  2  0
 15 13  1  0
 16 17  1  1
 16 15  1  0
 17 18  1  0
 18 22  1  0
 19 18  2  0
 19 20  1  0
 20 21  1  0
 22 21  2  0
 23 24  2  0
 23 16  1  0
 25 23  1  0
 26 27  1  6
 26 25  1  0
 27 28  1  0
 29 28  1  0
 30 29  1  0
 31 30  1  0
 32 26  1  0
 33 32  1  0
 34 32  2  0
M  END
$$$$
