WHK.pdb
     RDKit          3D

 34 36  0  0  1  0  0  0  0  0999 V2000
   27.6930  -22.0786  -13.9811 N   0  0  0  0  0  0  0  0  0  0  0  0
   26.6772  -21.9961  -12.9522 C   0  0  1  0  0  0  0  0  0  0  0  0
   26.7740  -20.7958  -12.0932 C   0  0  0  0  0  0  0  0  0  0  0  0
   27.6846  -20.8069  -10.9599 C   0  0  0  0  0  0  0  0  0  0  0  0
   29.0817  -20.7758  -11.1564 C   0  0  0  0  0  0  0  0  0  0  0  0
   29.6818  -20.7848   -9.9749 N   0  0  0  0  0  0  0  0  0  0  0  0
   28.7812  -20.8202   -8.9748 C   0  0  0  0  0  0  0  0  0  0  0  0
   28.9025  -20.8434   -7.6020 C   0  0  0  0  0  0  0  0  0  0  0  0
   27.7586  -20.8813   -6.8295 C   0  0  0  0  0  0  0  0  0  0  0  0
   26.5185  -20.8951   -7.4497 C   0  0  0  0  0  0  0  0  0  0  0  0
   26.3876  -20.8719   -8.8247 C   0  0  0  0  0  0  0  0  0  0  0  0
   27.5221  -20.8341   -9.5978 C   0  0  0  0  0  0  0  0  0  0  0  0
   25.3300  -21.8918  -13.6738 C   0  0  0  0  0  0  0  0  0  0  0  0
   25.2574  -21.0901  -14.6159 O   0  0  0  0  0  0  0  0  0  0  0  0
   24.2103  -22.6593  -13.3036 N   0  0  0  0  0  0  0  0  0  0  0  0
   23.0988  -22.9100  -14.1674 C   0  0  1  0  0  0  0  0  0  0  0  0
   23.0757  -24.2614  -14.7570 C   0  0  0  0  0  0  0  0  0  0  0  0
   24.2109  -24.6548  -15.5964 C   0  0  0  0  0  0  0  0  0  0  0  0
   25.1273  -25.6555  -15.5660 C   0  0  0  0  0  0  0  0  0  0  0  0
   25.9525  -25.5619  -16.6202 N   0  0  0  0  0  0  0  0  0  0  0  0
   25.5544  -24.4992  -17.3172 C   0  0  0  0  0  0  0  0  0  0  0  0
   24.5114  -23.9339  -16.7283 N   0  0  0  0  0  0  0  0  0  0  0  0
   21.7903  -22.6561  -13.4816 C   0  0  0  0  0  0  0  0  0  0  0  0
   21.6230  -23.1386  -12.3426 O   0  0  0  0  0  0  0  0  0  0  0  0
   20.7432  -21.9016  -14.0560 N   0  0  0  0  0  0  0  0  0  0  0  0
   19.4593  -21.6706  -13.3581 C   0  0  1  0  0  0  0  0  0  0  0  0
   18.5205  -20.9449  -14.2814 C   0  0  0  0  0  0  0  0  0  0  0  0
   17.1977  -20.7237  -13.6398 C   0  0  0  0  0  0  0  0  0  0  0  0
   16.2137  -20.0225  -14.5708 C   0  0  0  0  0  0  0  0  0  0  0  0
   14.9116  -19.7416  -13.8829 C   0  0  0  0  0  0  0  0  0  0  0  0
   14.0089  -19.0673  -14.8134 N   0  0  0  0  0  0  0  0  0  0  0  0
   18.9397  -23.0042  -13.0434 C   0  0  0  0  0  0  0  0  0  0  0  0
   19.0725  -24.0502  -13.9174 O   0  0  0  0  0  0  0  0  0  0  0  0
   18.3516  -23.2323  -11.9607 O   0  0  0  0  0  0  0  0  0  0  0  0
  2  1  1  6
  2  3  1  0
  4  5  2  0
  4  3  1  0
  6  5  1  0
  7 12  2  0
  7  6  1  0
  8  7  1  0
  9 10  1  0
  9  8  2  0
 10 11  2  0
 11 12  1  0
 12  4  1  0
 13  2  1  0
 14 13  2  0
 15 13  1  0
 16 17  1  1
 16 15  1  0
 17 18  1  0
 18 22  1  0
 19 18  2  0
 19 20  1  0
 20 21  1  0
 22 21  2  0
 23 24  2  0
 23 16  1  0
 25 23  1  0
 26 27  1  6
 26 25  1  0
 27 28  1  0
 29 28  1  0
 30 29  1  0
 31 30  1  0
 32 26  1  0
 33 32  1  0
 34 32  2  0
M  END
$$$$
