WHK.pdb
     RDKit          3D

 34 36  0  0  1  0  0  0  0  0999 V2000
   20.2592  -11.2375  -17.6229 N   0  0  0  0  0  0  0  0  0  0  0  0
   20.7691   -9.9915  -18.1568 C   0  0  1  0  0  0  0  0  0  0  0  0
   20.3478   -9.7042  -19.5453 C   0  0  0  0  0  0  0  0  0  0  0  0
   20.8143  -10.5650  -20.6200 C   0  0  0  0  0  0  0  0  0  0  0  0
   19.9393  -11.4802  -21.2431 C   0  0  0  0  0  0  0  0  0  0  0  0
   20.6015  -12.1322  -22.1878 N   0  0  0  0  0  0  0  0  0  0  0  0
   21.8817  -11.7210  -22.2533 C   0  0  0  0  0  0  0  0  0  0  0  0
   22.9459  -12.0858  -23.0498 C   0  0  0  0  0  0  0  0  0  0  0  0
   24.1644  -11.4627  -22.8656 C   0  0  0  0  0  0  0  0  0  0  0  0
   24.2895  -10.4880  -21.8873 C   0  0  0  0  0  0  0  0  0  0  0  0
   23.2285  -10.1161  -21.0847 C   0  0  0  0  0  0  0  0  0  0  0  0
   22.0143  -10.7326  -21.2637 C   0  0  0  0  0  0  0  0  0  0  0  0
   20.1779   -8.8712  -17.2955 C   0  0  0  0  0  0  0  0  0  0  0  0
   18.9637   -8.9284  -17.0544 O   0  0  0  0  0  0  0  0  0  0  0  0
   20.9558   -7.8137  -16.7889 N   0  0  0  0  0  0  0  0  0  0  0  0
   20.4137   -6.7026  -16.0706 C   0  0  1  0  0  0  0  0  0  0  0  0
   20.8169   -6.6355  -14.6538 C   0  0  0  0  0  0  0  0  0  0  0  0
   20.2554   -7.6349  -13.7406 C   0  0  0  0  0  0  0  0  0  0  0  0
   19.3542   -8.6431  -13.8559 C   0  0  0  0  0  0  0  0  0  0  0  0
   19.2213   -9.2837  -12.6842 N   0  0  0  0  0  0  0  0  0  0  0  0
   20.0419   -8.6774  -11.8281 C   0  0  0  0  0  0  0  0  0  0  0  0
   20.6763   -7.6842  -12.4323 N   0  0  0  0  0  0  0  0  0  0  0  0
   20.7403   -5.3974  -16.7317 C   0  0  0  0  0  0  0  0  0  0  0  0
   21.8955   -5.2399  -17.1773 O   0  0  0  0  0  0  0  0  0  0  0  0
   19.8112   -4.3430  -16.8754 N   0  0  0  0  0  0  0  0  0  0  0  0
   20.1581   -3.0681  -17.5411 C   0  0  1  0  0  0  0  0  0  0  0  0
   19.4135   -2.9745  -18.8440 C   0  0  0  0  0  0  0  0  0  0  0  0
   19.6797   -1.6798  -19.5247 C   0  0  0  0  0  0  0  0  0  0  0  0
   19.0231   -1.6038  -20.8994 C   0  0  0  0  0  0  0  0  0  0  0  0
   19.4271   -0.3604  -21.6331 C   0  0  0  0  0  0  0  0  0  0  0  0
   18.9653   -0.4439  -23.0169 N   0  0  0  0  0  0  0  0  0  0  0  0
   19.7178   -2.0148  -16.6224 C   0  0  0  0  0  0  0  0  0  0  0  0
   20.2606   -0.7580  -16.6594 O   0  0  0  0  0  0  0  0  0  0  0  0
   18.8282   -2.2306  -15.7668 O   0  0  0  0  0  0  0  0  0  0  0  0
  2  1  1  1
  2  3  1  0
  4  5  2  0
  4  3  1  0
  6  5  1  0
  7 12  2  0
  7  6  1  0
  8  7  1  0
  9 10  1  0
  9  8  2  0
 10 11  2  0
 11 12  1  0
 12  4  1  0
 13  2  1  0
 14 13  2  0
 15 13  1  0
 16 17  1  1
 16 15  1  0
 17 18  1  0
 18 22  1  0
 19 18  2  0
 19 20  1  0
 20 21  1  0
 22 21  2  0
 23 24  2  0
 23 16  1  0
 25 23  1  0
 26 27  1  6
 26 25  1  0
 27 28  1  0
 29 28  1  0
 30 29  1  0
 31 30  1  0
 32 26  1  0
 33 32  1  0
 34 32  2  0
M  END
$$$$
