WHK.pdb
     RDKit          3D

 34 36  0  0  1  0  0  0  0  0999 V2000
   23.3095  -14.3955  -20.0600 N   0  0  0  0  0  0  0  0  0  0  0  0
   22.7625  -14.5115  -18.7241 C   0  0  1  0  0  0  0  0  0  0  0  0
   21.3268  -14.1711  -18.6203 C   0  0  0  0  0  0  0  0  0  0  0  0
   20.8883  -12.8320  -18.9780 C   0  0  0  0  0  0  0  0  0  0  0  0
   21.5435  -11.6952  -18.4583 C   0  0  0  0  0  0  0  0  0  0  0  0
   20.9621  -10.6065  -18.9409 N   0  0  0  0  0  0  0  0  0  0  0  0
   19.9446  -10.9249  -19.7629 C   0  0  0  0  0  0  0  0  0  0  0  0
   19.0534  -10.1669  -20.4917 C   0  0  0  0  0  0  0  0  0  0  0  0
   18.0990  -10.8076  -21.2570 C   0  0  0  0  0  0  0  0  0  0  0  0
   18.0589  -12.1935  -21.2750 C   0  0  0  0  0  0  0  0  0  0  0  0
   18.9481  -12.9610  -20.5479 C   0  0  0  0  0  0  0  0  0  0  0  0
   19.8994  -12.3289  -19.7852 C   0  0  0  0  0  0  0  0  0  0  0  0
   22.8763  -15.9876  -18.3306 C   0  0  0  0  0  0  0  0  0  0  0  0
   22.5688  -16.8243  -19.1913 O   0  0  0  0  0  0  0  0  0  0  0  0
   23.3072  -16.4014  -17.0567 N   0  0  0  0  0  0  0  0  0  0  0  0
   23.3719  -17.7695  -16.6460 C   0  0  1  0  0  0  0  0  0  0  0  0
   24.7043  -18.2089  -16.1920 C   0  0  0  0  0  0  0  0  0  0  0  0
   25.7139  -18.4845  -17.2181 C   0  0  0  0  0  0  0  0  0  0  0  0
   25.7317  -18.4768  -18.5752 C   0  0  0  0  0  0  0  0  0  0  0  0
   26.9566  -18.7896  -19.0254 N   0  0  0  0  0  0  0  0  0  0  0  0
   27.7130  -18.9945  -17.9485 C   0  0  0  0  0  0  0  0  0  0  0  0
   26.9958  -18.8187  -16.8491 N   0  0  0  0  0  0  0  0  0  0  0  0
   22.3671  -18.0799  -15.5778 C   0  0  0  0  0  0  0  0  0  0  0  0
   21.8009  -17.1228  -15.0109 O   0  0  0  0  0  0  0  0  0  0  0  0
   22.0303  -19.3939  -15.1833 N   0  0  0  0  0  0  0  0  0  0  0  0
   21.0052  -19.6725  -14.1535 C   0  0  1  0  0  0  0  0  0  0  0  0
   19.6823  -19.1273  -14.6153 C   0  0  0  0  0  0  0  0  0  0  0  0
   18.6209  -19.3569  -13.6000 C   0  0  0  0  0  0  0  0  0  0  0  0
   17.2334  -18.9993  -14.1232 C   0  0  0  0  0  0  0  0  0  0  0  0
   16.1764  -19.2436  -13.0884 C   0  0  0  0  0  0  0  0  0  0  0  0
   14.8641  -18.9470  -13.6584 N   0  0  0  0  0  0  0  0  0  0  0  0
   20.9476  -21.1327  -14.0440 C   0  0  0  0  0  0  0  0  0  0  0  0
   20.3844  -21.7488  -12.9583 O   0  0  0  0  0  0  0  0  0  0  0  0
   21.4164  -21.8694  -14.9426 O   0  0  0  0  0  0  0  0  0  0  0  0
  2  1  1  6
  2  3  1  0
  4  5  2  0
  4  3  1  0
  6  5  1  0
  7 12  2  0
  7  6  1  0
  8  7  1  0
  9 10  1  0
  9  8  2  0
 10 11  2  0
 11 12  1  0
 12  4  1  0
 13  2  1  0
 14 13  2  0
 15 13  1  0
 16 17  1  1
 16 15  1  0
 17 18  1  0
 18 22  1  0
 19 18  2  0
 19 20  1  0
 20 21  1  0
 22 21  2  0
 23 24  2  0
 23 16  1  0
 25 23  1  0
 26 27  1  6
 26 25  1  0
 27 28  1  0
 29 28  1  0
 30 29  1  0
 31 30  1  0
 32 26  1  0
 33 32  1  0
 34 32  2  0
M  END
$$$$
