WHK.pdb
     RDKit          3D

 34 36  0  0  1  0  0  0  0  0999 V2000
   25.2407  -20.4364  -16.7204 N   0  0  0  0  0  0  0  0  0  0  0  0
   23.9556  -19.7925  -16.5432 C   0  0  1  0  0  0  0  0  0  0  0  0
   23.1406  -19.7066  -17.7745 C   0  0  0  0  0  0  0  0  0  0  0  0
   23.2806  -18.5451  -18.6375 C   0  0  0  0  0  0  0  0  0  0  0  0
   24.1740  -18.5611  -19.7298 C   0  0  0  0  0  0  0  0  0  0  0  0
   24.1075  -17.3951  -20.3560 N   0  0  0  0  0  0  0  0  0  0  0  0
   23.2209  -16.5756  -19.7604 C   0  0  0  0  0  0  0  0  0  0  0  0
   22.8051  -15.2887  -20.0269 C   0  0  0  0  0  0  0  0  0  0  0  0
   21.8573  -14.7082  -19.2074 C   0  0  0  0  0  0  0  0  0  0  0  0
   21.3471  -15.4302  -18.1391 C   0  0  0  0  0  0  0  0  0  0  0  0
   21.7579  -16.7203  -17.8647 C   0  0  0  0  0  0  0  0  0  0  0  0
   22.7004  -17.3023  -18.6766 C   0  0  0  0  0  0  0  0  0  0  0  0
   23.1586  -20.6657  -15.5690 C   0  0  0  0  0  0  0  0  0  0  0  0
   23.2860  -21.8932  -15.6808 O   0  0  0  0  0  0  0  0  0  0  0  0
   22.3132  -20.1240  -14.5832 N   0  0  0  0  0  0  0  0  0  0  0  0
   21.6016  -20.9132  -13.6266 C   0  0  1  0  0  0  0  0  0  0  0  0
   22.0158  -20.6982  -12.2278 C   0  0  0  0  0  0  0  0  0  0  0  0
   23.3546  -21.1508  -11.8395 C   0  0  0  0  0  0  0  0  0  0  0  0
   24.4121  -21.6953  -12.4931 C   0  0  0  0  0  0  0  0  0  0  0  0
   25.4290  -21.9003  -11.6417 N   0  0  0  0  0  0  0  0  0  0  0  0
   25.0110  -21.4831  -10.4480 C   0  0  0  0  0  0  0  0  0  0  0  0
   23.7703  -21.0278  -10.5344 N   0  0  0  0  0  0  0  0  0  0  0  0
   20.1194  -20.7150  -13.7309 C   0  0  0  0  0  0  0  0  0  0  0  0
   19.6895  -19.5461  -13.8130 O   0  0  0  0  0  0  0  0  0  0  0  0
   19.1900  -21.7789  -13.7418 N   0  0  0  0  0  0  0  0  0  0  0  0
   17.7372  -21.5586  -13.9144 C   0  0  1  0  0  0  0  0  0  0  0  0
   17.0652  -22.8800  -14.1650 C   0  0  0  0  0  0  0  0  0  0  0  0
   17.2484  -23.8042  -13.0149 C   0  0  0  0  0  0  0  0  0  0  0  0
   16.7937  -25.2243  -13.3364 C   0  0  0  0  0  0  0  0  0  0  0  0
   16.8706  -26.1118  -12.1306 C   0  0  0  0  0  0  0  0  0  0  0  0
   15.9653  -25.6072  -11.1005 N   0  0  0  0  0  0  0  0  0  0  0  0
   17.2762  -20.9809  -12.6491 C   0  0  0  0  0  0  0  0  0  0  0  0
   16.0443  -20.3934  -12.5356 O   0  0  0  0  0  0  0  0  0  0  0  0
   17.9979  -21.0027  -11.6251 O   0  0  0  0  0  0  0  0  0  0  0  0
  2  1  1  6
  2  3  1  0
  4  5  2  0
  4  3  1  0
  6  5  1  0
  7 12  2  0
  7  6  1  0
  8  7  1  0
  9 10  1  0
  9  8  2  0
 10 11  2  0
 11 12  1  0
 12  4  1  0
 13  2  1  0
 14 13  2  0
 15 13  1  0
 16 17  1  1
 16 15  1  0
 17 18  1  0
 18 22  1  0
 19 18  2  0
 19 20  1  0
 20 21  1  0
 22 21  2  0
 23 24  2  0
 23 16  1  0
 25 23  1  0
 26 27  1  1
 26 25  1  0
 27 28  1  0
 29 28  1  0
 30 29  1  0
 31 30  1  0
 32 26  1  0
 33 32  1  0
 34 32  2  0
M  END
$$$$
