WHK.pdb
     RDKit          3D

 34 36  0  0  1  0  0  0  0  0999 V2000
   27.6968  -22.6525  -12.1111 N   0  0  0  0  0  0  0  0  0  0  0  0
   26.7161  -21.7993  -11.4726 C   0  0  1  0  0  0  0  0  0  0  0  0
   27.2581  -20.5205  -10.9638 C   0  0  0  0  0  0  0  0  0  0  0  0
   28.1180  -20.5316   -9.7916 C   0  0  0  0  0  0  0  0  0  0  0  0
   29.4695  -20.9253   -9.8918 C   0  0  0  0  0  0  0  0  0  0  0  0
   30.0315  -20.8395   -8.6948 N   0  0  0  0  0  0  0  0  0  0  0  0
   29.1478  -20.4098   -7.7746 C   0  0  0  0  0  0  0  0  0  0  0  0
   29.2445  -20.1655   -6.4215 C   0  0  0  0  0  0  0  0  0  0  0  0
   28.1285  -19.7216   -5.7400 C   0  0  0  0  0  0  0  0  0  0  0  0
   26.9404  -19.5324   -6.4295 C   0  0  0  0  0  0  0  0  0  0  0  0
   26.8344  -19.7746   -7.7854 C   0  0  0  0  0  0  0  0  0  0  0  0
   27.9413  -20.2162   -8.4680 C   0  0  0  0  0  0  0  0  0  0  0  0
   25.6927  -21.4258  -12.5496 C   0  0  0  0  0  0  0  0  0  0  0  0
   26.1337  -20.9320  -13.5971 O   0  0  0  0  0  0  0  0  0  0  0  0
   24.3097  -21.6236  -12.3822 N   0  0  0  0  0  0  0  0  0  0  0  0
   23.3345  -21.2920  -13.3738 C   0  0  1  0  0  0  0  0  0  0  0  0
   22.6382  -22.4529  -13.9584 C   0  0  0  0  0  0  0  0  0  0  0  0
   23.4376  -23.4004  -14.7403 C   0  0  0  0  0  0  0  0  0  0  0  0
   24.7365  -23.4713  -15.1277 C   0  0  0  0  0  0  0  0  0  0  0  0
   24.9517  -24.5959  -15.8276 N   0  0  0  0  0  0  0  0  0  0  0  0
   23.7849  -25.2358  -15.8809 C   0  0  0  0  0  0  0  0  0  0  0  0
   22.8570  -24.5436  -15.2374 N   0  0  0  0  0  0  0  0  0  0  0  0
   22.3146  -20.3249  -12.8526 C   0  0  0  0  0  0  0  0  0  0  0  0
   22.0227  -20.3789  -11.6402 O   0  0  0  0  0  0  0  0  0  0  0  0
   21.6715  -19.3604  -13.6599 N   0  0  0  0  0  0  0  0  0  0  0  0
   20.6515  -18.4327  -13.1235 C   0  0  1  0  0  0  0  0  0  0  0  0
   20.3547  -17.3783  -14.1534 C   0  0  0  0  0  0  0  0  0  0  0  0
   18.9164  -17.3828  -14.5300 C   0  0  0  0  0  0  0  0  0  0  0  0
   18.7091  -17.1487  -16.0230 C   0  0  0  0  0  0  0  0  0  0  0  0
   17.2539  -17.1591  -16.3836 C   0  0  0  0  0  0  0  0  0  0  0  0
   17.1097  -16.9196  -17.8178 N   0  0  0  0  0  0  0  0  0  0  0  0
   19.4649  -19.2563  -12.8766 C   0  0  0  0  0  0  0  0  0  0  0  0
   18.5072  -18.8815  -11.9722 O   0  0  0  0  0  0  0  0  0  0  0  0
   19.2875  -20.3371  -13.4853 O   0  0  0  0  0  0  0  0  0  0  0  0
  2  1  1  6
  2  3  1  0
  4  5  2  0
  4  3  1  0
  6  5  1  0
  7 12  2  0
  7  6  1  0
  8  7  1  0
  9 10  1  0
  9  8  2  0
 10 11  2  0
 11 12  1  0
 12  4  1  0
 13  2  1  0
 14 13  2  0
 15 13  1  0
 16 17  1  1
 16 15  1  0
 17 18  1  0
 18 22  1  0
 19 18  2  0
 19 20  1  0
 20 21  1  0
 22 21  2  0
 23 24  2  0
 23 16  1  0
 25 23  1  0
 26 27  1  6
 26 25  1  0
 27 28  1  0
 29 28  1  0
 30 29  1  0
 31 30  1  0
 32 26  1  0
 33 32  1  0
 34 32  2  0
M  END
$$$$
