NCV.pdb
     RDKit          3D

 22 21  0  0  1  0  0  0  0  0999 V2000
   21.1512  -12.9080  -20.6996 N   0  0  0  0  0  0  0  0  0  0  0  0
   20.9050  -11.5040  -20.7280 C   0  0  0  0  0  0  0  0  0  0  0  0
   20.7881  -10.9400  -21.8340 O   0  0  0  0  0  0  0  0  0  0  0  0
   20.7903  -10.7326  -19.4866 C   0  0  0  0  0  0  0  0  0  0  0  0
   21.1054  -11.6114  -18.2989 C   0  0  2  0  0  0  0  0  0  0  0  0
   20.1203  -12.6751  -18.2591 N   0  0  0  0  0  0  0  0  0  0  0  0
   21.1762  -10.8693  -17.0403 C   0  0  0  0  0  0  0  0  0  0  0  0
   20.2087  -10.6808  -16.2616 O   0  0  0  0  0  0  0  0  0  0  0  0
   22.4271  -10.3132  -16.6551 N   0  0  0  0  0  0  0  0  0  0  0  0
   22.6371   -9.5695  -15.4551 C   0  0  1  0  0  0  0  0  0  0  0  0
   23.8321  -10.1364  -14.7440 C   0  0  0  0  0  0  0  0  0  0  0  0
   23.4368  -11.8105  -14.1622 S   0  0  0  0  0  0  0  0  0  0  0  0
   22.6780   -8.1183  -15.6394 C   0  0  0  0  0  0  0  0  0  0  0  0
   23.4781   -7.6379  -16.4827 O   0  0  0  0  0  0  0  0  0  0  0  0
   19.4025   -6.0101  -14.8079 C   0  0  0  0  0  0  0  0  0  0  0  0
   20.5180   -5.4135  -15.6353 C   0  0  2  0  0  0  0  0  0  0  0  0
   20.4449   -6.0355  -17.0052 C   0  0  0  0  0  0  0  0  0  0  0  0
   21.8650   -5.8078  -15.0214 C   0  0  2  0  0  0  0  0  0  0  0  0
   21.8561   -7.2487  -14.9079 N   0  0  0  0  0  0  0  0  0  0  0  0
   22.0693   -5.1448  -13.7199 C   0  0  0  0  0  0  0  0  0  0  0  0
   22.5152   -3.8387  -13.5977 O   0  0  0  0  0  0  0  0  0  0  0  0
   21.8289   -5.7908  -12.6700 O   0  0  0  0  0  0  0  0  0  0  0  0
  1  2  1  0
  2  3  2  0
  2  4  1  0
  5  7  1  0
  5  4  1  0
  5  6  1  1
  7  8  2  0
  7  9  1  0
  9 10  1  0
 10 13  1  0
 11 12  1  0
 10 11  1  6
 13 14  2  0
 13 19  1  0
 16 15  1  1
 16 18  1  0
 16 17  1  0
 18 20  1  0
 18 19  1  1
 20 21  1  0
 22 20  2  0
M  END
$$$$
