NCV.pdb
     RDKit          3D

 22 21  0  0  1  0  0  0  0  0999 V2000
   16.4381  -13.5221  -15.2529 N   0  0  0  0  0  0  0  0  0  0  0  0
   17.8331  -13.2500  -15.1399 C   0  0  0  0  0  0  0  0  0  0  0  0
   18.5960  -14.1734  -14.7928 O   0  0  0  0  0  0  0  0  0  0  0  0
   18.3669  -11.9146  -15.4244 C   0  0  0  0  0  0  0  0  0  0  0  0
   17.2364  -10.9541  -15.7098 C   0  0  2  0  0  0  0  0  0  0  0  0
   16.5959  -11.3744  -16.9412 N   0  0  0  0  0  0  0  0  0  0  0  0
   17.6692   -9.5574  -15.7548 C   0  0  0  0  0  0  0  0  0  0  0  0
   18.0888   -8.9677  -16.7815 O   0  0  0  0  0  0  0  0  0  0  0  0
   17.6171   -8.7967  -14.5544 N   0  0  0  0  0  0  0  0  0  0  0  0
   17.9336   -7.4072  -14.4729 C   0  0  1  0  0  0  0  0  0  0  0  0
   16.7144   -6.6656  -14.0054 C   0  0  0  0  0  0  0  0  0  0  0  0
   15.4328   -6.7633  -15.2881 S   0  0  0  0  0  0  0  0  0  0  0  0
   19.1496   -7.1048  -13.7169 C   0  0  0  0  0  0  0  0  0  0  0  0
   19.2590   -7.5478  -12.5447 O   0  0  0  0  0  0  0  0  0  0  0  0
   22.4443   -6.0106  -15.8466 C   0  0  0  0  0  0  0  0  0  0  0  0
   22.5546   -6.6059  -14.4615 C   0  0  2  0  0  0  0  0  0  0  0  0
   22.3242   -8.0889  -14.5891 C   0  0  0  0  0  0  0  0  0  0  0  0
   21.4362   -6.0398  -13.5810 C   0  0  2  0  0  0  0  0  0  0  0  0
   20.1937   -6.3392  -14.2558 N   0  0  0  0  0  0  0  0  0  0  0  0
   21.6177   -4.5933  -13.3574 C   0  0  0  0  0  0  0  0  0  0  0  0
   20.8187   -3.6297  -13.9513 O   0  0  0  0  0  0  0  0  0  0  0  0
   22.5389   -4.2123  -12.5934 O   0  0  0  0  0  0  0  0  0  0  0  0
  1  2  1  0
  2  3  2  0
  2  4  1  0
  5  7  1  0
  5  4  1  0
  5  6  1  6
  7  8  2  0
  7  9  1  0
  9 10  1  0
 10 13  1  0
 11 12  1  0
 10 11  1  1
 13 14  2  0
 13 19  1  0
 16 15  1  6
 16 18  1  0
 16 17  1  0
 18 20  1  0
 18 19  1  6
 20 21  1  0
 22 20  2  0
M  END
$$$$
