NCV.pdb
     RDKit          3D

 22 21  0  0  1  0  0  0  0  0999 V2000
   21.5044  -13.5333  -17.8977 N   0  0  0  0  0  0  0  0  0  0  0  0
   21.6662  -12.2609  -18.5200 C   0  0  0  0  0  0  0  0  0  0  0  0
   22.4274  -12.1689  -19.5035 O   0  0  0  0  0  0  0  0  0  0  0  0
   20.9554  -11.0802  -18.0197 C   0  0  0  0  0  0  0  0  0  0  0  0
   20.1681  -11.4354  -16.7803 C   0  0  2  0  0  0  0  0  0  0  0  0
   19.2111  -12.4638  -17.1410 N   0  0  0  0  0  0  0  0  0  0  0  0
   19.5319  -10.2764  -16.1544 C   0  0  0  0  0  0  0  0  0  0  0  0
   18.2985  -10.0388  -16.1680 O   0  0  0  0  0  0  0  0  0  0  0  0
   20.3582   -9.3389  -15.4756 N   0  0  0  0  0  0  0  0  0  0  0  0
   19.8614   -8.2634  -14.6792 C   0  0  1  0  0  0  0  0  0  0  0  0
   18.9042   -8.8214  -13.6656 C   0  0  0  0  0  0  0  0  0  0  0  0
   17.2903   -9.0835  -14.4556 S   0  0  0  0  0  0  0  0  0  0  0  0
   20.8969   -7.3960  -14.1164 C   0  0  0  0  0  0  0  0  0  0  0  0
   21.7367   -7.8928  -13.3225 O   0  0  0  0  0  0  0  0  0  0  0  0
   21.6919   -4.1649  -16.3330 C   0  0  0  0  0  0  0  0  0  0  0  0
   22.7438   -4.7741  -15.4345 C   0  0  2  0  0  0  0  0  0  0  0  0
   23.2287   -6.0355  -16.0996 C   0  0  0  0  0  0  0  0  0  0  0  0
   22.0978   -5.1735  -14.1041 C   0  0  2  0  0  0  0  0  0  0  0  0
   20.9828   -6.0324  -14.4329 N   0  0  0  0  0  0  0  0  0  0  0  0
   21.6814   -3.9839  -13.3382 C   0  0  0  0  0  0  0  0  0  0  0  0
   20.3590   -3.5911  -13.2098 O   0  0  0  0  0  0  0  0  0  0  0  0
   22.5640   -3.2910  -12.7738 O   0  0  0  0  0  0  0  0  0  0  0  0
  1  2  1  0
  2  3  2  0
  2  4  1  0
  5  7  1  0
  5  4  1  0
  5  6  1  6
  7  8  2  0
  7  9  1  0
  9 10  1  0
 10 13  1  0
 11 12  1  0
 10 11  1  1
 13 14  2  0
 13 19  1  0
 16 15  1  6
 16 18  1  0
 16 17  1  0
 18 20  1  0
 18 19  1  6
 20 21  1  0
 22 20  2  0
M  END
$$$$
