NCV.pdb
     RDKit          3D

 22 21  0  0  1  0  0  0  0  0999 V2000
   20.7842  -13.9595  -17.9766 N   0  0  0  0  0  0  0  0  0  0  0  0
   21.2002  -12.8040  -18.7007 C   0  0  0  0  0  0  0  0  0  0  0  0
   21.7521  -12.9592  -19.8082 O   0  0  0  0  0  0  0  0  0  0  0  0
   20.9870  -11.4577  -18.1608 C   0  0  0  0  0  0  0  0  0  0  0  0
   19.7640  -11.4422  -17.2742 C   0  0  2  0  0  0  0  0  0  0  0  0
   18.6335  -11.8838  -18.0681 N   0  0  0  0  0  0  0  0  0  0  0  0
   19.5298  -10.1429  -16.6443 C   0  0  0  0  0  0  0  0  0  0  0  0
   19.2446   -9.0862  -17.2609 O   0  0  0  0  0  0  0  0  0  0  0  0
   19.6286  -10.0525  -15.2285 N   0  0  0  0  0  0  0  0  0  0  0  0
   19.3839   -8.8599  -14.4835 C   0  0  1  0  0  0  0  0  0  0  0  0
   18.5575   -9.2093  -13.2793 C   0  0  0  0  0  0  0  0  0  0  0  0
   18.6440   -7.8446  -12.0846 S   0  0  0  0  0  0  0  0  0  0  0  0
   20.5817   -8.0740  -14.1849 C   0  0  0  0  0  0  0  0  0  0  0  0
   21.5529   -8.6416  -13.6220 O   0  0  0  0  0  0  0  0  0  0  0  0
   21.2652   -4.7835  -16.4157 C   0  0  0  0  0  0  0  0  0  0  0  0
   22.3693   -5.4798  -15.6535 C   0  0  2  0  0  0  0  0  0  0  0  0
   22.7068   -6.7423  -16.4026 C   0  0  0  0  0  0  0  0  0  0  0  0
   21.8461   -5.8888  -14.2731 C   0  0  2  0  0  0  0  0  0  0  0  0
   20.6812   -6.7123  -14.5052 N   0  0  0  0  0  0  0  0  0  0  0  0
   21.5396   -4.7043  -13.4496 C   0  0  0  0  0  0  0  0  0  0  0  0
   22.5128   -3.9596  -12.8033 O   0  0  0  0  0  0  0  0  0  0  0  0
   20.3409   -4.3502  -13.3253 O   0  0  0  0  0  0  0  0  0  0  0  0
  1  2  1  0
  2  3  2  0
  2  4  1  0
  5  7  1  0
  5  4  1  0
  5  6  1  6
  7  8  2  0
  7  9  1  0
  9 10  1  0
 10 13  1  0
 11 12  1  0
 10 11  1  1
 13 14  2  0
 13 19  1  0
 16 15  1  6
 16 18  1  0
 16 17  1  0
 18 20  1  0
 18 19  1  6
 20 21  1  0
 22 20  2  0
M  END
$$$$
