NCV.pdb
     RDKit          3D

 22 21  0  0  1  0  0  0  0  0999 V2000
   20.0894  -10.5274  -15.1083 N   0  0  0  0  0  0  0  0  0  0  0  0
   18.7267  -10.6668  -15.5038 C   0  0  0  0  0  0  0  0  0  0  0  0
   18.0697  -11.6275  -15.0561 O   0  0  0  0  0  0  0  0  0  0  0  0
   18.1039   -9.7043  -16.4176 C   0  0  0  0  0  0  0  0  0  0  0  0
   19.1398   -8.7329  -16.9326 C   0  0  2  0  0  0  0  0  0  0  0  0
   20.3682   -9.4705  -17.1574 N   0  0  0  0  0  0  0  0  0  0  0  0
   19.3338   -7.5819  -16.0510 C   0  0  0  0  0  0  0  0  0  0  0  0
   18.4368   -6.7632  -15.7299 O   0  0  0  0  0  0  0  0  0  0  0  0
   20.6294   -7.3592  -15.5085 N   0  0  0  0  0  0  0  0  0  0  0  0
   20.9680   -6.2525  -14.6730 C   0  0  1  0  0  0  0  0  0  0  0  0
   22.0462   -6.6843  -13.7211 C   0  0  0  0  0  0  0  0  0  0  0  0
   22.5728   -5.2543  -12.7336 S   0  0  0  0  0  0  0  0  0  0  0  0
   21.2621   -5.0142  -15.3951 C   0  0  0  0  0  0  0  0  0  0  0  0
   22.1360   -5.0343  -16.2997 O   0  0  0  0  0  0  0  0  0  0  0  0
   19.5057   -3.2593  -17.7376 C   0  0  0  0  0  0  0  0  0  0  0  0
   19.6044   -2.2509  -16.6158 C   0  0  2  0  0  0  0  0  0  0  0  0
   19.7959   -0.8955  -17.2441 C   0  0  0  0  0  0  0  0  0  0  0  0
   20.8516   -2.5513  -15.7787 C   0  0  2  0  0  0  0  0  0  0  0  0
   20.6029   -3.8092  -15.1118 N   0  0  0  0  0  0  0  0  0  0  0  0
   21.1283   -1.4584  -14.8278 C   0  0  0  0  0  0  0  0  0  0  0  0
   22.1001   -0.4949  -15.0442 O   0  0  0  0  0  0  0  0  0  0  0  0
   20.4535   -1.3940  -13.7705 O   0  0  0  0  0  0  0  0  0  0  0  0
  1  2  1  0
  2  3  2  0
  2  4  1  0
  5  7  1  0
  5  4  1  0
  5  6  1  1
  7  8  2  0
  7  9  1  0
  9 10  1  0
 10 13  1  0
 11 12  1  0
 10 11  1  6
 13 14  2  0
 13 19  1  0
 16 15  1  6
 16 18  1  0
 16 17  1  0
 18 20  1  0
 18 19  1  1
 20 21  1  0
 22 20  2  0
M  END
$$$$
