NCV.pdb
     RDKit          3D

 22 21  0  0  1  0  0  0  0  0999 V2000
   18.3778  -17.3063  -17.9940 N   0  0  0  0  0  0  0  0  0  0  0  0
   18.7651  -15.9752  -18.3268 C   0  0  0  0  0  0  0  0  0  0  0  0
   18.8653  -15.6650  -19.5304 O   0  0  0  0  0  0  0  0  0  0  0  0
   19.0415  -14.9858  -17.2807 C   0  0  0  0  0  0  0  0  0  0  0  0
   20.1540  -14.0633  -17.7203 C   0  0  2  0  0  0  0  0  0  0  0  0
   21.3502  -14.8635  -17.9005 N   0  0  0  0  0  0  0  0  0  0  0  0
   20.3651  -12.9433  -16.8033 C   0  0  0  0  0  0  0  0  0  0  0  0
   19.4933  -12.4721  -16.0315 O   0  0  0  0  0  0  0  0  0  0  0  0
   21.6483  -12.3311  -16.7714 N   0  0  0  0  0  0  0  0  0  0  0  0
   21.9915  -11.2353  -15.9235 C   0  0  1  0  0  0  0  0  0  0  0  0
   23.4042  -11.4217  -15.4495 C   0  0  0  0  0  0  0  0  0  0  0  0
   23.8563  -10.0318  -14.3719 S   0  0  0  0  0  0  0  0  0  0  0  0
   21.7167   -9.9163  -16.4946 C   0  0  0  0  0  0  0  0  0  0  0  0
   22.2006   -9.6316  -17.6202 O   0  0  0  0  0  0  0  0  0  0  0  0
   18.3745   -7.8968  -15.3365 C   0  0  0  0  0  0  0  0  0  0  0  0
   19.1272   -7.6193  -16.6177 C   0  0  2  0  0  0  0  0  0  0  0  0
   18.8307   -8.7497  -17.5680 C   0  0  0  0  0  0  0  0  0  0  0  0
   20.6318   -7.6409  -16.3309 C   0  0  2  0  0  0  0  0  0  0  0  0
   20.9333   -8.9623  -15.8291 N   0  0  0  0  0  0  0  0  0  0  0  0
   21.0052   -6.5805  -15.3762 C   0  0  0  0  0  0  0  0  0  0  0  0
   21.1501   -5.2515  -15.7399 O   0  0  0  0  0  0  0  0  0  0  0  0
   21.2022   -6.8924  -14.1756 O   0  0  0  0  0  0  0  0  0  0  0  0
  1  2  1  0
  2  3  2  0
  2  4  1  0
  5  7  1  0
  5  4  1  0
  5  6  1  1
  7  8  2  0
  7  9  1  0
  9 10  1  0
 10 13  1  0
 11 12  1  0
 10 11  1  6
 13 14  2  0
 13 19  1  0
 16 15  1  1
 16 18  1  0
 16 17  1  0
 18 20  1  0
 18 19  1  1
 20 21  1  0
 22 20  2  0
M  END
$$$$
