NCV.pdb
     RDKit          3D

 22 21  0  0  1  0  0  0  0  0999 V2000
   23.5817  -12.1550  -17.2949 N   0  0  0  0  0  0  0  0  0  0  0  0
   22.5039  -12.2585  -16.3674 C   0  0  0  0  0  0  0  0  0  0  0  0
   21.8289  -13.3069  -16.3500 O   0  0  0  0  0  0  0  0  0  0  0  0
   22.1896  -11.1591  -15.4499 C   0  0  0  0  0  0  0  0  0  0  0  0
   23.2672  -10.1026  -15.5180 C   0  0  2  0  0  0  0  0  0  0  0  0
   24.4666  -10.6513  -14.9148 N   0  0  0  0  0  0  0  0  0  0  0  0
   22.8658   -8.8351  -14.9079 C   0  0  0  0  0  0  0  0  0  0  0  0
   22.7208   -8.6450  -13.6747 O   0  0  0  0  0  0  0  0  0  0  0  0
   22.6173   -7.7251  -15.7614 N   0  0  0  0  0  0  0  0  0  0  0  0
   22.1621   -6.4512  -15.3060 C   0  0  1  0  0  0  0  0  0  0  0  0
   23.1885   -5.4178  -15.6717 C   0  0  0  0  0  0  0  0  0  0  0  0
   22.6284   -3.7928  -15.0863 S   0  0  0  0  0  0  0  0  0  0  0  0
   20.7968   -6.1140  -15.7107 C   0  0  0  0  0  0  0  0  0  0  0  0
   20.4899   -6.1925  -16.9281 O   0  0  0  0  0  0  0  0  0  0  0  0
   17.7153   -7.6246  -14.7636 C   0  0  0  0  0  0  0  0  0  0  0  0
   17.5339   -6.1903  -14.3223 C   0  0  2  0  0  0  0  0  0  0  0  0
   16.1243   -5.7875  -14.6681 C   0  0  0  0  0  0  0  0  0  0  0  0
   18.4800   -5.2937  -15.1271 C   0  0  2  0  0  0  0  0  0  0  0  0
   19.8225   -5.7075  -14.7876 N   0  0  0  0  0  0  0  0  0  0  0  0
   18.2412   -3.8688  -14.8304 C   0  0  0  0  0  0  0  0  0  0  0  0
   17.3104   -3.1000  -15.5101 O   0  0  0  0  0  0  0  0  0  0  0  0
   18.9109   -3.3223  -13.9192 O   0  0  0  0  0  0  0  0  0  0  0  0
  1  2  1  0
  2  3  2  0
  2  4  1  0
  5  7  1  0
  5  4  1  0
  5  6  1  1
  7  8  2  0
  7  9  1  0
  9 10  1  0
 10 13  1  0
 11 12  1  0
 10 11  1  6
 13 14  2  0
 13 19  1  0
 16 15  1  6
 16 18  1  0
 16 17  1  0
 18 20  1  0
 18 19  1  1
 20 21  1  0
 22 20  2  0
M  END
$$$$
