NCV.pdb
     RDKit          3D

 22 21  0  0  1  0  0  0  0  0999 V2000
   29.2181  -19.9970  -19.3001 N   0  0  0  0  0  0  0  0  0  0  0  0
   29.2305  -18.6447  -18.8488 C   0  0  0  0  0  0  0  0  0  0  0  0
   30.1403  -17.8901  -19.2462 O   0  0  0  0  0  0  0  0  0  0  0  0
   28.1980  -18.1442  -17.9361 C   0  0  0  0  0  0  0  0  0  0  0  0
   27.2402  -19.2558  -17.5769 C   0  0  2  0  0  0  0  0  0  0  0  0
   26.3933  -19.5024  -18.7282 N   0  0  0  0  0  0  0  0  0  0  0  0
   26.4682  -18.9775  -16.3660 C   0  0  0  0  0  0  0  0  0  0  0  0
   26.9575  -18.5989  -15.2727 O   0  0  0  0  0  0  0  0  0  0  0  0
   25.0566  -19.1432  -16.4136 N   0  0  0  0  0  0  0  0  0  0  0  0
   24.1880  -18.9342  -15.3004 C   0  0  1  0  0  0  0  0  0  0  0  0
   22.8717  -18.4220  -15.8104 C   0  0  0  0  0  0  0  0  0  0  0  0
   22.8775  -16.6073  -15.7486 S   0  0  0  0  0  0  0  0  0  0  0  0
   24.0790  -20.0767  -14.3924 C   0  0  0  0  0  0  0  0  0  0  0  0
   23.7844  -21.2027  -14.8695 O   0  0  0  0  0  0  0  0  0  0  0  0
   25.1740  -21.8523   -9.9318 C   0  0  0  0  0  0  0  0  0  0  0  0
   25.2183  -20.7455  -10.9603 C   0  0  2  0  0  0  0  0  0  0  0  0
   24.7925  -19.4747  -10.2730 C   0  0  0  0  0  0  0  0  0  0  0  0
   24.1935  -21.0403  -12.0601 C   0  0  2  0  0  0  0  0  0  0  0  0
   24.2919  -19.9567  -13.0115 N   0  0  0  0  0  0  0  0  0  0  0  0
   22.8359  -21.1713  -11.4989 C   0  0  0  0  0  0  0  0  0  0  0  0
   22.3148  -22.3747  -11.0517 O   0  0  0  0  0  0  0  0  0  0  0  0
   22.1144  -20.1463  -11.4208 O   0  0  0  0  0  0  0  0  0  0  0  0
  1  2  1  0
  2  3  2  0
  2  4  1  0
  5  7  1  0
  5  4  1  0
  5  6  1  6
  7  8  2  0
  7  9  1  0
  9 10  1  0
 10 13  1  0
 11 12  1  0
 10 11  1  6
 13 14  2  0
 13 19  1  0
 16 15  1  1
 16 18  1  0
 16 17  1  0
 18 20  1  0
 18 19  1  6
 20 21  1  0
 22 20  2  0
M  END
$$$$
