NCV.pdb
     RDKit          3D

 22 21  0  0  1  0  0  0  0  0999 V2000
   18.4005  -13.2849  -18.5580 N   0  0  0  0  0  0  0  0  0  0  0  0
   17.3896  -13.2719  -17.5528 C   0  0  0  0  0  0  0  0  0  0  0  0
   16.3013  -13.8318  -17.7922 O   0  0  0  0  0  0  0  0  0  0  0  0
   17.6176  -12.6160  -16.2616 C   0  0  0  0  0  0  0  0  0  0  0  0
   19.0190  -12.0550  -16.2052 C   0  0  2  0  0  0  0  0  0  0  0  0
   19.9052  -13.1154  -15.7650 N   0  0  0  0  0  0  0  0  0  0  0  0
   19.1236  -10.8582  -15.3706 C   0  0  0  0  0  0  0  0  0  0  0  0
   18.7624  -10.7856  -14.1696 O   0  0  0  0  0  0  0  0  0  0  0  0
   19.6734   -9.6802  -15.9472 N   0  0  0  0  0  0  0  0  0  0  0  0
   19.8743   -8.4593  -15.2356 C   0  0  1  0  0  0  0  0  0  0  0  0
   21.2769   -8.4435  -14.6994 C   0  0  0  0  0  0  0  0  0  0  0  0
   22.4421   -8.6090  -16.0822 S   0  0  0  0  0  0  0  0  0  0  0  0
   19.4994   -7.2551  -15.9779 C   0  0  0  0  0  0  0  0  0  0  0  0
   19.7387   -7.2060  -17.2118 O   0  0  0  0  0  0  0  0  0  0  0  0
   16.1814   -6.0069  -16.3223 C   0  0  0  0  0  0  0  0  0  0  0  0
   16.9279   -4.8403  -15.7167 C   0  0  2  0  0  0  0  0  0  0  0  0
   16.4261   -3.5880  -16.3864 C   0  0  0  0  0  0  0  0  0  0  0  0
   18.4183   -4.9729  -16.0447 C   0  0  2  0  0  0  0  0  0  0  0  0
   18.8837   -6.1573  -15.3594 N   0  0  0  0  0  0  0  0  0  0  0  0
   19.1602   -3.7640  -15.6405 C   0  0  0  0  0  0  0  0  0  0  0  0
   19.4950   -2.7508  -16.5241 O   0  0  0  0  0  0  0  0  0  0  0  0
   19.5068   -3.6429  -14.4393 O   0  0  0  0  0  0  0  0  0  0  0  0
  1  2  1  0
  2  3  2  0
  2  4  1  0
  5  7  1  0
  5  4  1  0
  5  6  1  1
  7  8  2  0
  7  9  1  0
  9 10  1  0
 10 13  1  0
 11 12  1  0
 10 11  1  6
 13 14  2  0
 13 19  1  0
 16 15  1  6
 16 18  1  0
 16 17  1  0
 18 20  1  0
 18 19  1  1
 20 21  1  0
 22 20  2  0
M  END
$$$$
