NCV.pdb
     RDKit          3D

 22 21  0  0  1  0  0  0  0  0999 V2000
   19.3899  -14.5829  -18.9949 N   0  0  0  0  0  0  0  0  0  0  0  0
   19.1659  -14.7421  -17.5959 C   0  0  0  0  0  0  0  0  0  0  0  0
   18.9096  -15.8810  -17.1574 O   0  0  0  0  0  0  0  0  0  0  0  0
   19.2339  -13.5950  -16.6854 C   0  0  0  0  0  0  0  0  0  0  0  0
   19.5784  -12.3416  -17.4551 C   0  0  2  0  0  0  0  0  0  0  0  0
   20.9450  -12.4692  -17.9238 N   0  0  0  0  0  0  0  0  0  0  0  0
   19.3659  -11.1182  -16.6818 C   0  0  0  0  0  0  0  0  0  0  0  0
   18.2647  -10.7557  -16.1983 O   0  0  0  0  0  0  0  0  0  0  0  0
   20.4797  -10.2645  -16.4514 N   0  0  0  0  0  0  0  0  0  0  0  0
   20.4151   -9.0472  -15.7088 C   0  0  1  0  0  0  0  0  0  0  0  0
   21.6776   -8.9081  -14.9077 C   0  0  0  0  0  0  0  0  0  0  0  0
   21.6691   -7.3015  -14.0617 S   0  0  0  0  0  0  0  0  0  0  0  0
   20.0735   -7.8677  -16.5048 C   0  0  0  0  0  0  0  0  0  0  0  0
   20.8033   -7.5668  -17.4842 O   0  0  0  0  0  0  0  0  0  0  0  0
   16.3155   -6.2738  -16.0366 C   0  0  0  0  0  0  0  0  0  0  0  0
   17.1131   -6.0177  -17.2948 C   0  0  2  0  0  0  0  0  0  0  0  0
   16.9848   -7.2397  -18.1659 C   0  0  0  0  0  0  0  0  0  0  0  0
   18.5929   -5.8655  -16.9293 C   0  0  2  0  0  0  0  0  0  0  0  0
   18.9619   -7.0646  -16.2116 N   0  0  0  0  0  0  0  0  0  0  0  0
   18.8201   -4.6444  -16.1339 C   0  0  0  0  0  0  0  0  0  0  0  0
   18.9977   -3.3933  -16.7021 O   0  0  0  0  0  0  0  0  0  0  0  0
   18.8550   -4.7383  -14.8819 O   0  0  0  0  0  0  0  0  0  0  0  0
  1  2  1  0
  2  3  2  0
  2  4  1  0
  5  7  1  0
  5  4  1  0
  5  6  1  1
  7  8  2  0
  7  9  1  0
  9 10  1  0
 10 13  1  0
 11 12  1  0
 10 11  1  6
 13 14  2  0
 13 19  1  0
 16 15  1  1
 16 18  1  0
 16 17  1  0
 18 20  1  0
 18 19  1  1
 20 21  1  0
 22 20  2  0
M  END
$$$$
