TWK.pdb
     RDKit          3D

 31 32  0  0  1  0  0  0  0  0999 V2000
    6.3626  -16.2711   19.2991 C   0  0  0  0  0  0  0  0  0  0  0  0
    7.3593  -16.1694   20.4208 C   0  0  1  0  0  0  0  0  0  0  0  0
    8.6446  -16.4408   19.9827 O   0  0  0  0  0  0  0  0  0  0  0  0
    7.2563  -14.8258   21.1141 C   0  0  2  0  0  0  0  0  0  0  0  0
    7.4538  -13.7354   20.2091 N   0  0  0  0  0  0  0  0  0  0  0  0
    8.3198  -14.7952   22.1768 C   0  0  0  0  0  0  0  0  0  0  0  0
    9.2826  -14.0359   21.9967 O   0  0  0  0  0  0  0  0  0  0  0  0
    8.1897  -15.6137   23.3189 N   0  0  0  0  0  0  0  0  0  0  0  0
    9.1214  -15.6637   24.4148 C   0  0  1  0  0  0  0  0  0  0  0  0
    8.3608  -15.8466   25.7182 C   0  0  0  0  0  0  0  0  0  0  0  0
    7.2948  -14.8231   25.8233 C   0  0  0  0  0  0  0  0  0  0  0  0
    5.9448  -14.9188   25.7216 C   0  0  0  0  0  0  0  0  0  0  0  0
    5.3627  -13.6975   25.8912 N   0  0  0  0  0  0  0  0  0  0  0  0
    6.3507  -12.8228   26.1021 C   0  0  0  0  0  0  0  0  0  0  0  0
    6.2829  -11.4669   26.3289 C   0  0  0  0  0  0  0  0  0  0  0  0
    7.4479  -10.7732   26.5225 C   0  0  0  0  0  0  0  0  0  0  0  0
    8.6719  -11.3999   26.4948 C   0  0  0  0  0  0  0  0  0  0  0  0
    8.7301  -12.7748   26.2641 C   0  0  0  0  0  0  0  0  0  0  0  0
    7.5553  -13.4659   26.0700 C   0  0  0  0  0  0  0  0  0  0  0  0
   10.1222  -16.7001   24.1578 C   0  0  0  0  0  0  0  0  0  0  0  0
   10.2303  -17.7353   24.9047 O   0  0  0  0  0  0  0  0  0  0  0  0
   11.0504  -16.6563   23.0762 N   0  0  0  0  0  0  0  0  0  0  0  0
   12.0616  -17.7125   22.8987 C   0  0  1  0  0  0  0  0  0  0  0  0
   12.6112  -17.6844   21.5160 C   0  0  0  0  0  0  0  0  0  0  0  0
   11.5380  -17.7850   20.4841 C   0  0  0  0  0  0  0  0  0  0  0  0
   12.0994  -17.6804   19.0713 C   0  0  0  0  0  0  0  0  0  0  0  0
   10.9099  -17.6573   18.1275 C   0  0  0  0  0  0  0  0  0  0  0  0
   11.2957  -17.3257   16.7763 N   0  0  0  0  0  0  0  0  0  0  0  0
   13.0679  -17.4631   23.9548 C   0  0  0  0  0  0  0  0  0  0  0  0
   14.0660  -18.2332   24.1356 O   0  0  0  0  0  0  0  0  0  0  0  0
   13.0217  -16.3828   24.8323 O   0  0  0  0  0  0  0  0  0  0  0  0
  2  1  1  6
  3  2  1  0
  4  5  1  6
  4  6  1  0
  4  2  1  0
  6  8  1  0
  7  6  2  0
  8  9  1  0
  9 10  1  1
 10 11  1  0
 11 19  1  0
 11 12  2  0
 12 13  1  0
 14 13  1  0
 14 15  2  0
 16 15  1  0
 17 16  2  0
 18 19  2  0
 18 17  1  0
 19 14  1  0
 20 21  2  0
 20  9  1  0
 22 20  1  0
 23 24  1  6
 23 22  1  0
 25 26  1  0
 25 24  1  0
 27 26  1  0
 28 27  1  0
 29 23  1  0
 30 29  2  0
 31 29  1  0
M  END
$$$$
