TWK.pdb
     RDKit          3D

 31 32  0  0  1  0  0  0  0  0999 V2000
    7.0163  -15.4757   18.8498 C   0  0  0  0  0  0  0  0  0  0  0  0
    7.7491  -15.3047   20.1520 C   0  0  1  0  0  0  0  0  0  0  0  0
    6.9384  -14.7336   21.1185 O   0  0  0  0  0  0  0  0  0  0  0  0
    8.3545  -16.6174   20.6069 C   0  0  2  0  0  0  0  0  0  0  0  0
    7.3576  -17.6115   20.8616 N   0  0  0  0  0  0  0  0  0  0  0  0
    9.1177  -16.3361   21.8717 C   0  0  0  0  0  0  0  0  0  0  0  0
   10.1739  -15.6960   21.7687 O   0  0  0  0  0  0  0  0  0  0  0  0
    8.6175  -16.7999   23.1071 N   0  0  0  0  0  0  0  0  0  0  0  0
    9.2330  -16.5755   24.3887 C   0  0  1  0  0  0  0  0  0  0  0  0
    8.1778  -16.6632   25.4794 C   0  0  0  0  0  0  0  0  0  0  0  0
    7.2547  -15.5090   25.3766 C   0  0  0  0  0  0  0  0  0  0  0  0
    6.0083  -15.4000   24.8508 C   0  0  0  0  0  0  0  0  0  0  0  0
    5.5409  -14.1260   24.9834 N   0  0  0  0  0  0  0  0  0  0  0  0
    6.4975  -13.4239   25.5979 C   0  0  0  0  0  0  0  0  0  0  0  0
    6.5097  -12.0961   25.9606 C   0  0  0  0  0  0  0  0  0  0  0  0
    7.6184  -11.5965   26.5908 C   0  0  0  0  0  0  0  0  0  0  0  0
    8.7087  -12.3887   26.8653 C   0  0  0  0  0  0  0  0  0  0  0  0
    8.6866  -13.7334   26.4935 C   0  0  0  0  0  0  0  0  0  0  0  0
    7.5692  -14.2291   25.8600 C   0  0  0  0  0  0  0  0  0  0  0  0
   10.3500  -17.5047   24.5633 C   0  0  0  0  0  0  0  0  0  0  0  0
   10.2015  -18.7710   24.4389 O   0  0  0  0  0  0  0  0  0  0  0  0
   11.6790  -17.0973   24.8810 N   0  0  0  0  0  0  0  0  0  0  0  0
   12.7665  -18.0827   25.0085 C   0  0  1  0  0  0  0  0  0  0  0  0
   14.0584  -17.4985   24.5563 C   0  0  0  0  0  0  0  0  0  0  0  0
   15.1731  -18.4887   24.6176 C   0  0  0  0  0  0  0  0  0  0  0  0
   16.5054  -17.8669   24.2168 C   0  0  0  0  0  0  0  0  0  0  0  0
   17.4694  -19.0148   23.9737 C   0  0  0  0  0  0  0  0  0  0  0  0
   18.8162  -18.5514   23.7370 N   0  0  0  0  0  0  0  0  0  0  0  0
   12.7518  -18.4898   26.4314 C   0  0  0  0  0  0  0  0  0  0  0  0
   13.5210  -19.3979   26.8846 O   0  0  0  0  0  0  0  0  0  0  0  0
   11.9140  -17.9280   27.3915 O   0  0  0  0  0  0  0  0  0  0  0  0
  2  1  1  6
  3  2  1  0
  4  5  1  1
  4  6  1  0
  4  2  1  0
  6  8  1  0
  7  6  2  0
  8  9  1  0
  9 10  1  1
 10 11  1  0
 11 19  1  0
 11 12  2  0
 12 13  1  0
 14 13  1  0
 14 15  2  0
 16 15  1  0
 17 16  2  0
 18 19  2  0
 18 17  1  0
 19 14  1  0
 20 21  2  0
 20  9  1  0
 22 20  1  0
 23 24  1  1
 23 22  1  0
 25 26  1  0
 25 24  1  0
 27 26  1  0
 28 27  1  0
 29 23  1  0
 30 29  2  0
 31 29  1  0
M  END
$$$$
