TWK.pdb
     RDKit          3D

 31 32  0  0  1  0  0  0  0  0999 V2000
    7.7192  -16.2466   19.3589 C   0  0  0  0  0  0  0  0  0  0  0  0
    8.2190  -14.8610   19.0548 C   0  0  1  0  0  0  0  0  0  0  0  0
    7.9199  -14.4885   17.7550 O   0  0  0  0  0  0  0  0  0  0  0  0
    7.7039  -13.8656   20.0747 C   0  0  2  0  0  0  0  0  0  0  0  0
    7.9906  -12.5144   19.7021 N   0  0  0  0  0  0  0  0  0  0  0  0
    8.3811  -14.1810   21.3798 C   0  0  0  0  0  0  0  0  0  0  0  0
    9.5524  -13.8010   21.5197 O   0  0  0  0  0  0  0  0  0  0  0  0
    7.6765  -14.8838   22.3803 N   0  0  0  0  0  0  0  0  0  0  0  0
    8.2421  -15.3587   23.6158 C   0  0  1  0  0  0  0  0  0  0  0  0
    7.1343  -15.5517   24.6386 C   0  0  0  0  0  0  0  0  0  0  0  0
    7.0817  -14.3818   25.5461 C   0  0  0  0  0  0  0  0  0  0  0  0
    6.2291  -13.3274   25.6035 C   0  0  0  0  0  0  0  0  0  0  0  0
    6.5742  -12.4855   26.6190 N   0  0  0  0  0  0  0  0  0  0  0  0
    7.6522  -13.0106   27.2088 C   0  0  0  0  0  0  0  0  0  0  0  0
    8.3767  -12.5412   28.2809 C   0  0  0  0  0  0  0  0  0  0  0  0
    9.4563  -13.2650   28.7129 C   0  0  0  0  0  0  0  0  0  0  0  0
    9.8261  -14.4403   28.1016 C   0  0  0  0  0  0  0  0  0  0  0  0
    9.0854  -14.9077   27.0154 C   0  0  0  0  0  0  0  0  0  0  0  0
    8.0016  -14.1750   26.5862 C   0  0  0  0  0  0  0  0  0  0  0  0
    9.0336  -16.5626   23.3595 C   0  0  0  0  0  0  0  0  0  0  0  0
    8.5115  -17.6215   22.8621 O   0  0  0  0  0  0  0  0  0  0  0  0
   10.4291  -16.6681   23.6328 N   0  0  0  0  0  0  0  0  0  0  0  0
   11.1419  -17.9464   23.4672 C   0  0  1  0  0  0  0  0  0  0  0  0
   12.3389  -17.7703   22.6006 C   0  0  0  0  0  0  0  0  0  0  0  0
   11.9774  -17.6907   21.1550 C   0  0  0  0  0  0  0  0  0  0  0  0
   13.2125  -17.6086   20.2662 C   0  0  0  0  0  0  0  0  0  0  0  0
   12.7174  -17.3986   18.8461 C   0  0  0  0  0  0  0  0  0  0  0  0
   13.7967  -17.1052   17.9330 N   0  0  0  0  0  0  0  0  0  0  0  0
   11.4520  -18.3951   24.8431 C   0  0  0  0  0  0  0  0  0  0  0  0
   12.0773  -19.4794   25.0778 O   0  0  0  0  0  0  0  0  0  0  0  0
   11.0988  -17.6872   25.9891 O   0  0  0  0  0  0  0  0  0  0  0  0
  2  1  1  1
  3  2  1  0
  4  5  1  6
  4  6  1  0
  4  2  1  0
  6  8  1  0
  7  6  2  0
  8  9  1  0
  9 10  1  1
 10 11  1  0
 11 19  1  0
 11 12  2  0
 12 13  1  0
 14 13  1  0
 14 15  2  0
 16 15  1  0
 17 16  2  0
 18 19  2  0
 18 17  1  0
 19 14  1  0
 20 21  2  0
 20  9  1  0
 22 20  1  0
 23 24  1  6
 23 22  1  0
 25 26  1  0
 25 24  1  0
 27 26  1  0
 28 27  1  0
 29 23  1  0
 30 29  2  0
 31 29  1  0
M  END
$$$$
