TWK.pdb
     RDKit          3D

 31 32  0  0  1  0  0  0  0  0999 V2000
   11.2042  -17.3241   18.0677 C   0  0  0  0  0  0  0  0  0  0  0  0
   10.7507  -16.6338   19.3247 C   0  0  1  0  0  0  0  0  0  0  0  0
    9.4448  -16.1864   19.2141 O   0  0  0  0  0  0  0  0  0  0  0  0
   10.9564  -17.5241   20.5335 C   0  0  2  0  0  0  0  0  0  0  0  0
   10.1284  -18.6901   20.4919 N   0  0  0  0  0  0  0  0  0  0  0  0
   10.6112  -16.7064   21.7474 C   0  0  0  0  0  0  0  0  0  0  0  0
   11.3844  -15.7873   22.0532 O   0  0  0  0  0  0  0  0  0  0  0  0
    9.4443  -17.0055   22.4823 N   0  0  0  0  0  0  0  0  0  0  0  0
    8.9815  -16.2805   23.6365 C   0  0  1  0  0  0  0  0  0  0  0  0
    7.4960  -15.9927   23.4915 C   0  0  0  0  0  0  0  0  0  0  0  0
    7.0093  -15.2613   24.6846 C   0  0  0  0  0  0  0  0  0  0  0  0
    6.2809  -15.6712   25.7538 C   0  0  0  0  0  0  0  0  0  0  0  0
    6.0688  -14.6361   26.6156 N   0  0  0  0  0  0  0  0  0  0  0  0
    6.6674  -13.5638   26.0887 C   0  0  0  0  0  0  0  0  0  0  0  0
    6.7425  -12.2784   26.5753 C   0  0  0  0  0  0  0  0  0  0  0  0
    7.4227  -11.3383   25.8477 C   0  0  0  0  0  0  0  0  0  0  0  0
    8.0262  -11.6515   24.6521 C   0  0  0  0  0  0  0  0  0  0  0  0
    7.9444  -12.9574   24.1673 C   0  0  0  0  0  0  0  0  0  0  0  0
    7.2588  -13.8973   24.9035 C   0  0  0  0  0  0  0  0  0  0  0  0
    9.3301  -17.0207   24.8499 C   0  0  0  0  0  0  0  0  0  0  0  0
    8.6582  -16.8968   25.9336 O   0  0  0  0  0  0  0  0  0  0  0  0
   10.4256  -17.9290   24.9383 N   0  0  0  0  0  0  0  0  0  0  0  0
   10.7392  -18.6217   26.1999 C   0  0  1  0  0  0  0  0  0  0  0  0
   11.3848  -19.9351   25.9299 C   0  0  0  0  0  0  0  0  0  0  0  0
   10.4000  -20.9616   25.4790 C   0  0  0  0  0  0  0  0  0  0  0  0
   11.0708  -22.2967   25.1798 C   0  0  0  0  0  0  0  0  0  0  0  0
    9.9589  -23.2947   24.9080 C   0  0  0  0  0  0  0  0  0  0  0  0
   10.4669  -24.6307   24.7040 N   0  0  0  0  0  0  0  0  0  0  0  0
   11.5876  -17.6751   26.9579 C   0  0  0  0  0  0  0  0  0  0  0  0
   11.6774  -17.7125   28.2277 O   0  0  0  0  0  0  0  0  0  0  0  0
   12.3553  -16.6750   26.3664 O   0  0  0  0  0  0  0  0  0  0  0  0
  2  1  1  6
  3  2  1  0
  4  5  1  6
  4  6  1  0
  4  2  1  0
  6  8  1  0
  7  6  2  0
  8  9  1  0
  9 10  1  6
 10 11  1  0
 11 19  1  0
 11 12  2  0
 12 13  1  0
 14 13  1  0
 14 15  2  0
 16 15  1  0
 17 16  2  0
 18 19  2  0
 18 17  1  0
 19 14  1  0
 20 21  2  0
 20  9  1  0
 22 20  1  0
 23 24  1  6
 23 22  1  0
 25 26  1  0
 25 24  1  0
 27 26  1  0
 28 27  1  0
 29 23  1  0
 30 29  2  0
 31 29  1  0
M  END
$$$$
