TWK.pdb
     RDKit          3D

 31 32  0  0  1  0  0  0  0  0999 V2000
    7.6336  -17.5896   18.5719 C   0  0  0  0  0  0  0  0  0  0  0  0
    8.3482  -17.4423   19.8870 C   0  0  1  0  0  0  0  0  0  0  0  0
    9.6664  -17.8570   19.7967 O   0  0  0  0  0  0  0  0  0  0  0  0
    8.2221  -16.0272   20.4142 C   0  0  2  0  0  0  0  0  0  0  0  0
    8.8635  -15.0746   19.5610 N   0  0  0  0  0  0  0  0  0  0  0  0
    8.8704  -16.0026   21.7709 C   0  0  0  0  0  0  0  0  0  0  0  0
   10.0334  -15.5799   21.8384 O   0  0  0  0  0  0  0  0  0  0  0  0
    8.1492  -16.4515   22.8978 N   0  0  0  0  0  0  0  0  0  0  0  0
    8.6537  -16.4883   24.2454 C   0  0  1  0  0  0  0  0  0  0  0  0
    7.4890  -16.4810   25.2223 C   0  0  0  0  0  0  0  0  0  0  0  0
    6.8798  -15.1311   25.2645 C   0  0  0  0  0  0  0  0  0  0  0  0
    5.7109  -14.6574   24.7634 C   0  0  0  0  0  0  0  0  0  0  0  0
    5.5672  -13.3323   25.0509 N   0  0  0  0  0  0  0  0  0  0  0  0
    6.6522  -12.9648   25.7391 C   0  0  0  0  0  0  0  0  0  0  0  0
    6.9811  -11.7333   26.2584 C   0  0  0  0  0  0  0  0  0  0  0  0
    8.1633  -11.5999   26.9370 C   0  0  0  0  0  0  0  0  0  0  0  0
    9.0192  -12.6629   27.1075 C   0  0  0  0  0  0  0  0  0  0  0  0
    8.6768  -13.9073   26.5772 C   0  0  0  0  0  0  0  0  0  0  0  0
    7.4872  -14.0342   25.8960 C   0  0  0  0  0  0  0  0  0  0  0  0
    9.5536  -17.6321   24.3987 C   0  0  0  0  0  0  0  0  0  0  0  0
    9.3786  -18.7218   23.7483 O   0  0  0  0  0  0  0  0  0  0  0  0
   10.6847  -17.6412   25.2668 N   0  0  0  0  0  0  0  0  0  0  0  0
   11.5793  -18.8092   25.3381 C   0  0  1  0  0  0  0  0  0  0  0  0
   12.8509  -18.5403   24.6131 C   0  0  0  0  0  0  0  0  0  0  0  0
   13.8298  -19.6561   24.7656 C   0  0  0  0  0  0  0  0  0  0  0  0
   15.2121  -19.2707   24.2529 C   0  0  0  0  0  0  0  0  0  0  0  0
   15.9346  -20.5654   23.9246 C   0  0  0  0  0  0  0  0  0  0  0  0
   17.3036  -20.3369   23.5268 N   0  0  0  0  0  0  0  0  0  0  0  0
   11.7517  -19.0741   26.7840 C   0  0  0  0  0  0  0  0  0  0  0  0
   11.9301  -20.2492   27.2413 O   0  0  0  0  0  0  0  0  0  0  0  0
   11.7384  -18.0831   27.7622 O   0  0  0  0  0  0  0  0  0  0  0  0
  2  1  1  6
  3  2  1  0
  4  5  1  6
  4  6  1  0
  4  2  1  0
  6  8  1  0
  7  6  2  0
  8  9  1  0
  9 10  1  1
 10 11  1  0
 11 19  1  0
 11 12  2  0
 12 13  1  0
 14 13  1  0
 14 15  2  0
 16 15  1  0
 17 16  2  0
 18 19  2  0
 18 17  1  0
 19 14  1  0
 20 21  2  0
 20  9  1  0
 22 20  1  0
 23 24  1  1
 23 22  1  0
 25 26  1  0
 25 24  1  0
 27 26  1  0
 28 27  1  0
 29 23  1  0
 30 29  2  0
 31 29  1  0
M  END
$$$$
