TWK.pdb
     RDKit          3D

 31 32  0  0  1  0  0  0  0  0999 V2000
    8.0757  -17.3698   19.5731 C   0  0  0  0  0  0  0  0  0  0  0  0
    8.0420  -15.9072   19.2246 C   0  0  1  0  0  0  0  0  0  0  0  0
    7.3993  -15.6885   18.0177 O   0  0  0  0  0  0  0  0  0  0  0  0
    7.4405  -15.0968   20.3551 C   0  0  2  0  0  0  0  0  0  0  0  0
    7.2287  -13.7309   19.9863 N   0  0  0  0  0  0  0  0  0  0  0  0
    8.4056  -15.1621   21.5065 C   0  0  0  0  0  0  0  0  0  0  0  0
    9.4632  -14.5249   21.3995 O   0  0  0  0  0  0  0  0  0  0  0  0
    8.0827  -15.9296   22.6458 N   0  0  0  0  0  0  0  0  0  0  0  0
    8.8979  -16.0463   23.8264 C   0  0  1  0  0  0  0  0  0  0  0  0
    8.0244  -16.4339   25.0085 C   0  0  0  0  0  0  0  0  0  0  0  0
    7.1177  -15.3130   25.3496 C   0  0  0  0  0  0  0  0  0  0  0  0
    5.7670  -15.1985   25.2833 C   0  0  0  0  0  0  0  0  0  0  0  0
    5.3682  -13.9655   25.7071 N   0  0  0  0  0  0  0  0  0  0  0  0
    6.4738  -13.2949   26.0444 C   0  0  0  0  0  0  0  0  0  0  0  0
    6.6038  -12.0137   26.5305 C   0  0  0  0  0  0  0  0  0  0  0  0
    7.8584  -11.5400   26.8092 C   0  0  0  0  0  0  0  0  0  0  0  0
    8.9793  -12.3129   26.6144 C   0  0  0  0  0  0  0  0  0  0  0  0
    8.8370  -13.6104   26.1212 C   0  0  0  0  0  0  0  0  0  0  0  0
    7.5730  -14.0801   25.8428 C   0  0  0  0  0  0  0  0  0  0  0  0
    9.9997  -16.9745   23.5691 C   0  0  0  0  0  0  0  0  0  0  0  0
    9.8598  -17.9949   22.8072 O   0  0  0  0  0  0  0  0  0  0  0  0
   11.3032  -16.8338   24.1294 N   0  0  0  0  0  0  0  0  0  0  0  0
   12.3677  -17.8078   23.8328 C   0  0  1  0  0  0  0  0  0  0  0  0
   13.4246  -17.1879   22.9881 C   0  0  0  0  0  0  0  0  0  0  0  0
   13.8373  -18.0779   21.8637 C   0  0  0  0  0  0  0  0  0  0  0  0
   15.0416  -17.5215   21.1140 C   0  0  0  0  0  0  0  0  0  0  0  0
   15.3091  -18.4638   19.9536 C   0  0  0  0  0  0  0  0  0  0  0  0
   16.2897  -17.9315   19.0373 N   0  0  0  0  0  0  0  0  0  0  0  0
   12.8444  -18.2712   25.1550 C   0  0  0  0  0  0  0  0  0  0  0  0
   12.4598  -17.7304   26.2420 O   0  0  0  0  0  0  0  0  0  0  0  0
   13.7390  -19.3234   25.3332 O   0  0  0  0  0  0  0  0  0  0  0  0
  2  1  1  1
  3  2  1  0
  4  5  1  6
  4  6  1  0
  4  2  1  0
  6  8  1  0
  7  6  2  0
  8  9  1  0
  9 10  1  1
 10 11  1  0
 11 19  1  0
 11 12  2  0
 12 13  1  0
 14 13  1  0
 14 15  2  0
 16 15  1  0
 17 16  2  0
 18 19  2  0
 18 17  1  0
 19 14  1  0
 20 21  2  0
 20  9  1  0
 22 20  1  0
 23 24  1  1
 23 22  1  0
 25 26  1  0
 25 24  1  0
 27 26  1  0
 28 27  1  0
 29 23  1  0
 30 29  2  0
 31 29  1  0
M  END
$$$$
