TWK.pdb
     RDKit          3D

 31 32  0  0  1  0  0  0  0  0999 V2000
    6.5411  -16.6906   18.6135 C   0  0  0  0  0  0  0  0  0  0  0  0
    7.4314  -16.4854   19.8081 C   0  0  1  0  0  0  0  0  0  0  0  0
    8.7663  -16.4372   19.4429 O   0  0  0  0  0  0  0  0  0  0  0  0
    7.0033  -15.2643   20.5968 C   0  0  2  0  0  0  0  0  0  0  0  0
    7.0990  -14.0632   19.8254 N   0  0  0  0  0  0  0  0  0  0  0  0
    7.9135  -15.1685   21.7900 C   0  0  0  0  0  0  0  0  0  0  0  0
    8.8159  -14.3199   21.7508 O   0  0  0  0  0  0  0  0  0  0  0  0
    7.7148  -16.0288   22.8908 N   0  0  0  0  0  0  0  0  0  0  0  0
    8.5292  -16.0603   24.0772 C   0  0  1  0  0  0  0  0  0  0  0  0
    7.6381  -16.2136   25.2991 C   0  0  0  0  0  0  0  0  0  0  0  0
    6.8958  -14.9539   25.5384 C   0  0  0  0  0  0  0  0  0  0  0  0
    5.6132  -14.6022   25.2682 C   0  0  0  0  0  0  0  0  0  0  0  0
    5.3708  -13.3226   25.6720 N   0  0  0  0  0  0  0  0  0  0  0  0
    6.5076  -12.8613   26.2019 C   0  0  0  0  0  0  0  0  0  0  0  0
    6.7778  -11.6283   26.7509 C   0  0  0  0  0  0  0  0  0  0  0  0
    8.0347  -11.3864   27.2384 C   0  0  0  0  0  0  0  0  0  0  0  0
    9.0219  -12.3428   27.1900 C   0  0  0  0  0  0  0  0  0  0  0  0
    8.7381  -13.5896   26.6314 C   0  0  0  0  0  0  0  0  0  0  0  0
    7.4727  -13.8259   26.1430 C   0  0  0  0  0  0  0  0  0  0  0  0
    9.5447  -17.1057   23.9446 C   0  0  0  0  0  0  0  0  0  0  0  0
    9.5806  -17.8884   22.9311 O   0  0  0  0  0  0  0  0  0  0  0  0
   10.5670  -17.3461   24.9092 N   0  0  0  0  0  0  0  0  0  0  0  0
   11.7956  -18.0746   24.5496 C   0  0  1  0  0  0  0  0  0  0  0  0
   12.5092  -17.3836   23.4415 C   0  0  0  0  0  0  0  0  0  0  0  0
   13.8046  -18.0459   23.1099 C   0  0  0  0  0  0  0  0  0  0  0  0
   14.5363  -17.3264   21.9833 C   0  0  0  0  0  0  0  0  0  0  0  0
   15.7930  -18.1284   21.6944 C   0  0  0  0  0  0  0  0  0  0  0  0
   16.6127  -17.5064   20.6816 N   0  0  0  0  0  0  0  0  0  0  0  0
   12.5720  -18.1634   25.8065 C   0  0  0  0  0  0  0  0  0  0  0  0
   12.2749  -17.4762   26.8368 O   0  0  0  0  0  0  0  0  0  0  0  0
   13.6776  -18.9921   25.9798 O   0  0  0  0  0  0  0  0  0  0  0  0
  2  1  1  6
  3  2  1  0
  4  5  1  6
  4  6  1  0
  4  2  1  0
  6  8  1  0
  7  6  2  0
  8  9  1  0
  9 10  1  1
 10 11  1  0
 11 19  1  0
 11 12  2  0
 12 13  1  0
 14 13  1  0
 14 15  2  0
 16 15  1  0
 17 16  2  0
 18 19  2  0
 18 17  1  0
 19 14  1  0
 20 21  2  0
 20  9  1  0
 22 20  1  0
 23 24  1  6
 23 22  1  0
 25 26  1  0
 25 24  1  0
 27 26  1  0
 28 27  1  0
 29 23  1  0
 30 29  2  0
 31 29  1  0
M  END
$$$$
