TWK.pdb
     RDKit          3D

 31 32  0  0  1  0  0  0  0  0999 V2000
    8.1944  -19.2628   20.8302 C   0  0  0  0  0  0  0  0  0  0  0  0
    7.7148  -18.0854   20.0266 C   0  0  1  0  0  0  0  0  0  0  0  0
    6.9351  -18.4872   18.9550 O   0  0  0  0  0  0  0  0  0  0  0  0
    7.0066  -17.0801   20.9122 C   0  0  2  0  0  0  0  0  0  0  0  0
    6.3761  -16.0435   20.1542 N   0  0  0  0  0  0  0  0  0  0  0  0
    8.0470  -16.4790   21.8164 C   0  0  0  0  0  0  0  0  0  0  0  0
    8.8294  -15.6579   21.3167 O   0  0  0  0  0  0  0  0  0  0  0  0
    8.0973  -16.8609   23.1739 N   0  0  0  0  0  0  0  0  0  0  0  0
    9.0889  -16.4260   24.1224 C   0  0  1  0  0  0  0  0  0  0  0  0
    8.5017  -16.4677   25.5238 C   0  0  0  0  0  0  0  0  0  0  0  0
    7.4468  -15.4357   25.6553 C   0  0  0  0  0  0  0  0  0  0  0  0
    6.0946  -15.5184   25.5749 C   0  0  0  0  0  0  0  0  0  0  0  0
    5.5263  -14.2936   25.7647 N   0  0  0  0  0  0  0  0  0  0  0  0
    6.5256  -13.4297   25.9672 C   0  0  0  0  0  0  0  0  0  0  0  0
    6.4737  -12.0753   26.2071 C   0  0  0  0  0  0  0  0  0  0  0  0
    7.6479  -11.3937   26.3878 C   0  0  0  0  0  0  0  0  0  0  0  0
    8.8656  -12.0311   26.3347 C   0  0  0  0  0  0  0  0  0  0  0  0
    8.9076  -13.4043   26.0909 C   0  0  0  0  0  0  0  0  0  0  0  0
    7.7236  -14.0831   25.9098 C   0  0  0  0  0  0  0  0  0  0  0  0
   10.3034  -17.2262   23.9604 C   0  0  0  0  0  0  0  0  0  0  0  0
   10.2586  -18.4940   23.7813 O   0  0  0  0  0  0  0  0  0  0  0  0
   11.6214  -16.6826   23.9861 N   0  0  0  0  0  0  0  0  0  0  0  0
   12.7966  -17.5239   23.7020 C   0  0  1  0  0  0  0  0  0  0  0  0
   13.7334  -16.8221   22.7829 C   0  0  0  0  0  0  0  0  0  0  0  0
   14.9830  -17.6042   22.5517 C   0  0  0  0  0  0  0  0  0  0  0  0
   15.9688  -16.8485   21.6691 C   0  0  0  0  0  0  0  0  0  0  0  0
   17.1385  -17.7839   21.4178 C   0  0  0  0  0  0  0  0  0  0  0  0
   18.2163  -17.1284   20.7154 N   0  0  0  0  0  0  0  0  0  0  0  0
   13.3732  -17.8398   25.0279 C   0  0  0  0  0  0  0  0  0  0  0  0
   14.3765  -18.6123   25.1642 O   0  0  0  0  0  0  0  0  0  0  0  0
   12.8851  -17.3305   26.2286 O   0  0  0  0  0  0  0  0  0  0  0  0
  2  1  1  1
  3  2  1  0
  4  5  1  6
  4  6  1  0
  4  2  1  0
  6  8  1  0
  7  6  2  0
  8  9  1  0
  9 10  1  1
 10 11  1  0
 11 19  1  0
 11 12  2  0
 12 13  1  0
 14 13  1  0
 14 15  2  0
 16 15  1  0
 17 16  2  0
 18 19  2  0
 18 17  1  0
 19 14  1  0
 20 21  2  0
 20  9  1  0
 22 20  1  0
 23 24  1  6
 23 22  1  0
 25 26  1  0
 25 24  1  0
 27 26  1  0
 28 27  1  0
 29 23  1  0
 30 29  2  0
 31 29  1  0
M  END
$$$$
