TWK.pdb
     RDKit          3D

 31 32  0  0  1  0  0  0  0  0999 V2000
    7.3483  -18.7841   21.2469 C   0  0  0  0  0  0  0  0  0  0  0  0
    7.1213  -17.4831   20.5274 C   0  0  1  0  0  0  0  0  0  0  0  0
    6.3475  -17.6599   19.3927 O   0  0  0  0  0  0  0  0  0  0  0  0
    6.5438  -16.4417   21.4646 C   0  0  2  0  0  0  0  0  0  0  0  0
    6.1328  -15.2601   20.7705 N   0  0  0  0  0  0  0  0  0  0  0  0
    7.6211  -16.0935   22.4544 C   0  0  0  0  0  0  0  0  0  0  0  0
    8.4026  -15.1818   22.1478 O   0  0  0  0  0  0  0  0  0  0  0  0
    7.7049  -16.8003   23.6729 N   0  0  0  0  0  0  0  0  0  0  0  0
    8.6220  -16.5052   24.7423 C   0  0  1  0  0  0  0  0  0  0  0  0
    7.8461  -16.3064   26.0343 C   0  0  0  0  0  0  0  0  0  0  0  0
    6.9913  -15.1013   25.9242 C   0  0  0  0  0  0  0  0  0  0  0  0
    5.6666  -14.9607   25.6649 C   0  0  0  0  0  0  0  0  0  0  0  0
    5.3150  -13.6433   25.6624 N   0  0  0  0  0  0  0  0  0  0  0  0
    6.4244  -12.9453   25.9223 C   0  0  0  0  0  0  0  0  0  0  0  0
    6.5943  -11.5835   26.0289 C   0  0  0  0  0  0  0  0  0  0  0  0
    7.8436  -11.0963   26.3081 C   0  0  0  0  0  0  0  0  0  0  0  0
    8.9205  -11.9339   26.4823 C   0  0  0  0  0  0  0  0  0  0  0  0
    8.7380  -13.3129   26.3721 C   0  0  0  0  0  0  0  0  0  0  0  0
    7.4797  -13.7958   26.0909 C   0  0  0  0  0  0  0  0  0  0  0  0
    9.6416  -17.5526   24.8140 C   0  0  0  0  0  0  0  0  0  0  0  0
    9.3375  -18.7783   25.0297 O   0  0  0  0  0  0  0  0  0  0  0  0
   11.0381  -17.3131   24.6541 N   0  0  0  0  0  0  0  0  0  0  0  0
   12.0141  -18.4121   24.7503 C   0  0  1  0  0  0  0  0  0  0  0  0
   13.2156  -18.1197   23.9223 C   0  0  0  0  0  0  0  0  0  0  0  0
   12.8766  -17.9658   22.4773 C   0  0  0  0  0  0  0  0  0  0  0  0
   14.1157  -17.7043   21.6298 C   0  0  0  0  0  0  0  0  0  0  0  0
   13.6267  -17.3462   20.2374 C   0  0  0  0  0  0  0  0  0  0  0  0
   14.7010  -16.8958   19.3842 N   0  0  0  0  0  0  0  0  0  0  0  0
   12.2954  -18.5511   26.1967 C   0  0  0  0  0  0  0  0  0  0  0  0
   11.8701  -17.7107   27.0538 O   0  0  0  0  0  0  0  0  0  0  0  0
   13.0349  -19.5947   26.7474 O   0  0  0  0  0  0  0  0  0  0  0  0
  2  1  1  1
  3  2  1  0
  4  5  1  6
  4  6  1  0
  4  2  1  0
  6  8  1  0
  7  6  2  0
  8  9  1  0
  9 10  1  1
 10 11  1  0
 11 19  1  0
 11 12  2  0
 12 13  1  0
 14 13  1  0
 14 15  2  0
 16 15  1  0
 17 16  2  0
 18 19  2  0
 18 17  1  0
 19 14  1  0
 20 21  2  0
 20  9  1  0
 22 20  1  0
 23 24  1  6
 23 22  1  0
 25 26  1  0
 25 24  1  0
 27 26  1  0
 28 27  1  0
 29 23  1  0
 30 29  2  0
 31 29  1  0
M  END
$$$$
