TWK.pdb
     RDKit          3D

 31 32  0  0  1  0  0  0  0  0999 V2000
    8.8397  -19.1538   17.9322 C   0  0  0  0  0  0  0  0  0  0  0  0
    9.1117  -18.3957   19.2024 C   0  0  1  0  0  0  0  0  0  0  0  0
   10.4090  -18.5955   19.6438 O   0  0  0  0  0  0  0  0  0  0  0  0
    8.7772  -16.9270   19.0364 C   0  0  2  0  0  0  0  0  0  0  0  0
    9.6072  -16.2918   18.0595 N   0  0  0  0  0  0  0  0  0  0  0  0
    8.9862  -16.2732   20.3744 C   0  0  0  0  0  0  0  0  0  0  0  0
   10.0889  -15.7484   20.5854 O   0  0  0  0  0  0  0  0  0  0  0  0
    7.9431  -16.2784   21.3249 N   0  0  0  0  0  0  0  0  0  0  0  0
    8.0446  -15.7801   22.6714 C   0  0  1  0  0  0  0  0  0  0  0  0
    6.6529  -15.6467   23.2682 C   0  0  0  0  0  0  0  0  0  0  0  0
    6.7552  -15.2653   24.6962 C   0  0  0  0  0  0  0  0  0  0  0  0
    6.7576  -16.0145   25.8278 C   0  0  0  0  0  0  0  0  0  0  0  0
    6.8745  -15.2199   26.9296 N   0  0  0  0  0  0  0  0  0  0  0  0
    6.9471  -13.9591   26.4925 C   0  0  0  0  0  0  0  0  0  0  0  0
    7.0740  -12.7919   27.2109 C   0  0  0  0  0  0  0  0  0  0  0  0
    7.1307  -11.6040   26.5314 C   0  0  0  0  0  0  0  0  0  0  0  0
    7.0639  -11.5563   25.1584 C   0  0  0  0  0  0  0  0  0  0  0  0
    6.9352  -12.7451   24.4392 C   0  0  0  0  0  0  0  0  0  0  0  0
    6.8785  -13.9355   25.1286 C   0  0  0  0  0  0  0  0  0  0  0  0
    8.9447  -16.6382   23.4429 C   0  0  0  0  0  0  0  0  0  0  0  0
    8.7866  -17.9084   23.4968 O   0  0  0  0  0  0  0  0  0  0  0  0
   10.0575  -16.1524   24.1905 N   0  0  0  0  0  0  0  0  0  0  0  0
   10.9730  -17.0779   24.8796 C   0  0  1  0  0  0  0  0  0  0  0  0
   12.3812  -16.8224   24.4716 C   0  0  0  0  0  0  0  0  0  0  0  0
   12.6846  -17.3838   23.1227 C   0  0  0  0  0  0  0  0  0  0  0  0
   14.1125  -17.0754   22.6891 C   0  0  0  0  0  0  0  0  0  0  0  0
   14.3169  -17.7481   21.3432 C   0  0  0  0  0  0  0  0  0  0  0  0
   15.6402  -17.5142   20.8150 N   0  0  0  0  0  0  0  0  0  0  0  0
   10.7143  -16.8719   26.3222 C   0  0  0  0  0  0  0  0  0  0  0  0
   11.0666  -17.7223   27.2023 O   0  0  0  0  0  0  0  0  0  0  0  0
   10.0762  -15.7498   26.8445 O   0  0  0  0  0  0  0  0  0  0  0  0
  2  1  1  6
  3  2  1  0
  4  5  1  6
  4  6  1  0
  4  2  1  0
  6  8  1  0
  7  6  2  0
  8  9  1  0
  9 10  1  1
 10 11  1  0
 11 19  1  0
 11 12  2  0
 12 13  1  0
 14 13  1  0
 14 15  2  0
 16 15  1  0
 17 16  2  0
 18 19  2  0
 18 17  1  0
 19 14  1  0
 20 21  2  0
 20  9  1  0
 22 20  1  0
 23 24  1  1
 23 22  1  0
 25 26  1  0
 25 24  1  0
 27 26  1  0
 28 27  1  0
 29 23  1  0
 30 29  2  0
 31 29  1  0
M  END
$$$$
