TWK.pdb
     RDKit          3D

 31 32  0  0  1  0  0  0  0  0999 V2000
    9.8077  -19.0321   18.0241 C   0  0  0  0  0  0  0  0  0  0  0  0
    9.8780  -18.3149   19.3442 C   0  0  1  0  0  0  0  0  0  0  0  0
   11.0185  -18.6615   20.0490 O   0  0  0  0  0  0  0  0  0  0  0  0
    9.7497  -16.8172   19.1521 C   0  0  2  0  0  0  0  0  0  0  0  0
   10.8250  -16.2788   18.3771 N   0  0  0  0  0  0  0  0  0  0  0  0
    9.7567  -16.1949   20.5210 C   0  0  0  0  0  0  0  0  0  0  0  0
   10.8452  -15.7960   20.9593 O   0  0  0  0  0  0  0  0  0  0  0  0
    8.5506  -16.0876   21.2457 N   0  0  0  0  0  0  0  0  0  0  0  0
    8.4404  -15.6581   22.6151 C   0  0  1  0  0  0  0  0  0  0  0  0
    6.9758  -15.4475   22.9633 C   0  0  0  0  0  0  0  0  0  0  0  0
    6.8482  -15.0915   24.3958 C   0  0  0  0  0  0  0  0  0  0  0  0
    6.6178  -15.8551   25.4938 C   0  0  0  0  0  0  0  0  0  0  0  0
    6.5814  -15.0827   26.6169 N   0  0  0  0  0  0  0  0  0  0  0  0
    6.7906  -13.8217   26.2273 C   0  0  0  0  0  0  0  0  0  0  0  0
    6.8487  -12.6726   26.9828 C   0  0  0  0  0  0  0  0  0  0  0  0
    7.0804  -11.4802   26.3500 C   0  0  0  0  0  0  0  0  0  0  0  0
    7.2545  -11.4104   24.9874 C   0  0  0  0  0  0  0  0  0  0  0  0
    7.1938  -12.5808   24.2303 C   0  0  0  0  0  0  0  0  0  0  0  0
    6.9601  -13.7759   24.8728 C   0  0  0  0  0  0  0  0  0  0  0  0
    9.1285  -16.6141   23.4835 C   0  0  0  0  0  0  0  0  0  0  0  0
    8.8625  -17.8669   23.4541 O   0  0  0  0  0  0  0  0  0  0  0  0
   10.1372  -16.2495   24.4230 N   0  0  0  0  0  0  0  0  0  0  0  0
   10.7947  -17.2638   25.2649 C   0  0  1  0  0  0  0  0  0  0  0  0
   12.2586  -17.2961   24.9994 C   0  0  0  0  0  0  0  0  0  0  0  0
   12.5688  -17.7983   23.6288 C   0  0  0  0  0  0  0  0  0  0  0  0
   14.0702  -17.8988   23.3890 C   0  0  0  0  0  0  0  0  0  0  0  0
   14.2563  -18.2964   21.9352 C   0  0  0  0  0  0  0  0  0  0  0  0
   15.6506  -18.4021   21.5758 N   0  0  0  0  0  0  0  0  0  0  0  0
   10.4398  -16.8989   26.6546 C   0  0  0  0  0  0  0  0  0  0  0  0
   10.8626  -17.5596   27.6579 O   0  0  0  0  0  0  0  0  0  0  0  0
    9.6282  -15.8185   26.9910 O   0  0  0  0  0  0  0  0  0  0  0  0
  2  1  1  6
  3  2  1  0
  4  5  1  6
  4  6  1  0
  4  2  1  0
  6  8  1  0
  7  6  2  0
  8  9  1  0
  9 10  1  1
 10 11  1  0
 11 19  1  0
 11 12  2  0
 12 13  1  0
 14 13  1  0
 14 15  2  0
 16 15  1  0
 17 16  2  0
 18 19  2  0
 18 17  1  0
 19 14  1  0
 20 21  2  0
 20  9  1  0
 22 20  1  0
 23 24  1  1
 23 22  1  0
 25 26  1  0
 25 24  1  0
 27 26  1  0
 28 27  1  0
 29 23  1  0
 30 29  2  0
 31 29  1  0
M  END
$$$$
