TWK.pdb
     RDKit          3D

 31 32  0  0  1  0  0  0  0  0999 V2000
    9.3259  -18.6688   17.5725 C   0  0  0  0  0  0  0  0  0  0  0  0
    9.4612  -18.1434   18.9752 C   0  0  1  0  0  0  0  0  0  0  0  0
   10.5339  -18.7226   19.6319 O   0  0  0  0  0  0  0  0  0  0  0  0
    9.5292  -16.6295   18.9802 C   0  0  2  0  0  0  0  0  0  0  0  0
   10.6626  -16.1381   18.2587 N   0  0  0  0  0  0  0  0  0  0  0  0
    9.6228  -16.1970   20.4174 C   0  0  0  0  0  0  0  0  0  0  0  0
   10.7558  -16.1029   20.9107 O   0  0  0  0  0  0  0  0  0  0  0  0
    8.4438  -15.9187   21.1412 N   0  0  0  0  0  0  0  0  0  0  0  0
    8.3913  -15.5454   22.5303 C   0  0  1  0  0  0  0  0  0  0  0  0
    6.9722  -15.1373   22.8916 C   0  0  0  0  0  0  0  0  0  0  0  0
    6.8842  -14.8667   24.3456 C   0  0  0  0  0  0  0  0  0  0  0  0
    6.5402  -15.6644   25.3883 C   0  0  0  0  0  0  0  0  0  0  0  0
    6.6033  -14.9740   26.5624 N   0  0  0  0  0  0  0  0  0  0  0  0
    6.9902  -13.7310   26.2610 C   0  0  0  0  0  0  0  0  0  0  0  0
    7.2026  -12.6563   27.0945 C   0  0  0  0  0  0  0  0  0  0  0  0
    7.6043  -11.4674   26.5457 C   0  0  0  0  0  0  0  0  0  0  0  0
    7.7975  -11.3288   25.1911 C   0  0  0  0  0  0  0  0  0  0  0  0
    7.5795  -12.4240   24.3545 C   0  0  0  0  0  0  0  0  0  0  0  0
    7.1755  -13.6160   24.9127 C   0  0  0  0  0  0  0  0  0  0  0  0
    8.9256  -16.6343   23.3490 C   0  0  0  0  0  0  0  0  0  0  0  0
    8.7463  -17.8642   23.0383 O   0  0  0  0  0  0  0  0  0  0  0  0
    9.6791  -16.4338   24.5428 N   0  0  0  0  0  0  0  0  0  0  0  0
   10.3976  -17.5479   25.1848 C   0  0  1  0  0  0  0  0  0  0  0  0
   11.7925  -17.6356   24.6734 C   0  0  0  0  0  0  0  0  0  0  0  0
   11.8964  -18.5230   23.4782 C   0  0  0  0  0  0  0  0  0  0  0  0
   13.2259  -19.2666   23.4390 C   0  0  0  0  0  0  0  0  0  0  0  0
   13.2414  -20.0693   22.1500 C   0  0  0  0  0  0  0  0  0  0  0  0
   13.6928  -19.2829   21.0265 N   0  0  0  0  0  0  0  0  0  0  0  0
   10.3016  -17.2814   26.6374 C   0  0  0  0  0  0  0  0  0  0  0  0
   10.0479  -16.1217   27.0985 O   0  0  0  0  0  0  0  0  0  0  0  0
   10.4735  -18.2543   27.6187 O   0  0  0  0  0  0  0  0  0  0  0  0
  2  1  1  6
  3  2  1  0
  4  5  1  6
  4  6  1  0
  4  2  1  0
  6  8  1  0
  7  6  2  0
  8  9  1  0
  9 10  1  1
 10 11  1  0
 11 19  1  0
 11 12  2  0
 12 13  1  0
 14 13  1  0
 14 15  2  0
 16 15  1  0
 17 16  2  0
 18 19  2  0
 18 17  1  0
 19 14  1  0
 20 21  2  0
 20  9  1  0
 22 20  1  0
 23 24  1  6
 23 22  1  0
 25 26  1  0
 25 24  1  0
 27 26  1  0
 28 27  1  0
 29 23  1  0
 30 29  2  0
 31 29  1  0
M  END
$$$$
