TWK.pdb
     RDKit          3D

 31 32  0  0  1  0  0  0  0  0999 V2000
    6.7162  -17.6346   19.3311 C   0  0  0  0  0  0  0  0  0  0  0  0
    7.6490  -17.1274   20.3963 C   0  0  1  0  0  0  0  0  0  0  0  0
    8.9190  -16.9020   19.8922 O   0  0  0  0  0  0  0  0  0  0  0  0
    7.0728  -15.9040   21.0803 C   0  0  2  0  0  0  0  0  0  0  0  0
    6.9311  -14.8001   20.1814 N   0  0  0  0  0  0  0  0  0  0  0  0
    8.0193  -15.5313   22.1878 C   0  0  0  0  0  0  0  0  0  0  0  0
    8.7090  -14.5140   22.0288 O   0  0  0  0  0  0  0  0  0  0  0  0
    8.0895  -16.3340   23.3463 N   0  0  0  0  0  0  0  0  0  0  0  0
    8.9586  -16.0971   24.4689 C   0  0  1  0  0  0  0  0  0  0  0  0
    8.1663  -16.2296   25.7594 C   0  0  0  0  0  0  0  0  0  0  0  0
    7.1216  -15.1805   25.8152 C   0  0  0  0  0  0  0  0  0  0  0  0
    5.7899  -15.2246   25.5573 C   0  0  0  0  0  0  0  0  0  0  0  0
    5.2236  -13.9985   25.7446 N   0  0  0  0  0  0  0  0  0  0  0  0
    6.2033  -13.1727   26.1240 C   0  0  0  0  0  0  0  0  0  0  0  0
    6.1447  -11.8330   26.4346 C   0  0  0  0  0  0  0  0  0  0  0  0
    7.2975  -11.1923   26.8041 C   0  0  0  0  0  0  0  0  0  0  0  0
    8.5004  -11.8560   26.8700 C   0  0  0  0  0  0  0  0  0  0  0  0
    8.5494  -13.2140   26.5532 C   0  0  0  0  0  0  0  0  0  0  0  0
    7.3869  -13.8517   26.1822 C   0  0  0  0  0  0  0  0  0  0  0  0
   10.1169  -16.9876   24.3861 C   0  0  0  0  0  0  0  0  0  0  0  0
    9.9870  -18.2542   24.2440 O   0  0  0  0  0  0  0  0  0  0  0  0
   11.4689  -16.5396   24.4541 N   0  0  0  0  0  0  0  0  0  0  0  0
   12.5892  -17.4955   24.4238 C   0  0  1  0  0  0  0  0  0  0  0  0
   13.7700  -16.8974   23.7435 C   0  0  0  0  0  0  0  0  0  0  0  0
   13.4279  -16.3646   22.3922 C   0  0  0  0  0  0  0  0  0  0  0  0
   14.6546  -15.8184   21.6718 C   0  0  0  0  0  0  0  0  0  0  0  0
   14.1574  -15.1605   20.3967 C   0  0  0  0  0  0  0  0  0  0  0  0
   15.2369  -14.6000   19.6187 N   0  0  0  0  0  0  0  0  0  0  0  0
   12.8253  -17.8564   25.8396 C   0  0  0  0  0  0  0  0  0  0  0  0
   12.2775  -17.2252   26.8004 O   0  0  0  0  0  0  0  0  0  0  0  0
   13.6504  -18.9014   26.2476 O   0  0  0  0  0  0  0  0  0  0  0  0
  2  1  1  6
  3  2  1  0
  4  5  1  6
  4  6  1  0
  4  2  1  0
  6  8  1  0
  7  6  2  0
  8  9  1  0
  9 10  1  1
 10 11  1  0
 11 19  1  0
 11 12  2  0
 12 13  1  0
 14 13  1  0
 14 15  2  0
 16 15  1  0
 17 16  2  0
 18 19  2  0
 18 17  1  0
 19 14  1  0
 20 21  2  0
 20  9  1  0
 22 20  1  0
 23 24  1  1
 23 22  1  0
 25 26  1  0
 25 24  1  0
 27 26  1  0
 28 27  1  0
 29 23  1  0
 30 29  2  0
 31 29  1  0
M  END
$$$$
