TWK.pdb
     RDKit          3D

 31 32  0  0  1  0  0  0  0  0999 V2000
    8.8194  -18.4622   18.9245 C   0  0  0  0  0  0  0  0  0  0  0  0
    9.4222  -17.7157   20.0826 C   0  0  1  0  0  0  0  0  0  0  0  0
   10.6030  -17.0885   19.7217 O   0  0  0  0  0  0  0  0  0  0  0  0
    8.4182  -16.7546   20.6865 C   0  0  2  0  0  0  0  0  0  0  0  0
    8.0101  -15.7465   19.7571 N   0  0  0  0  0  0  0  0  0  0  0  0
    9.0839  -16.1071   21.8693 C   0  0  0  0  0  0  0  0  0  0  0  0
    9.6142  -15.0015   21.6893 O   0  0  0  0  0  0  0  0  0  0  0  0
    9.0830  -16.7648   23.1178 N   0  0  0  0  0  0  0  0  0  0  0  0
    9.7188  -16.2770   24.3135 C   0  0  1  0  0  0  0  0  0  0  0  0
    8.8152  -16.5344   25.5085 C   0  0  0  0  0  0  0  0  0  0  0  0
    7.6840  -15.5777   25.4958 C   0  0  0  0  0  0  0  0  0  0  0  0
    6.3835  -15.7295   25.1388 C   0  0  0  0  0  0  0  0  0  0  0  0
    5.7028  -14.5584   25.2945 N   0  0  0  0  0  0  0  0  0  0  0  0
    6.5782  -13.6592   25.7537 C   0  0  0  0  0  0  0  0  0  0  0  0
    6.3834  -12.3341   26.0714 C   0  0  0  0  0  0  0  0  0  0  0  0
    7.4473  -11.6047   26.5320 C   0  0  0  0  0  0  0  0  0  0  0  0
    8.6940  -12.1660   26.6814 C   0  0  0  0  0  0  0  0  0  0  0  0
    8.8814  -13.5100   26.3566 C   0  0  0  0  0  0  0  0  0  0  0  0
    7.8078  -14.2372   25.8939 C   0  0  0  0  0  0  0  0  0  0  0  0
   11.0512  -16.8698   24.4346 C   0  0  0  0  0  0  0  0  0  0  0  0
   11.4168  -17.8637   23.7136 O   0  0  0  0  0  0  0  0  0  0  0  0
   12.0458  -16.4075   25.3457 N   0  0  0  0  0  0  0  0  0  0  0  0
   12.5784  -17.2869   26.4006 C   0  0  1  0  0  0  0  0  0  0  0  0
   11.5028  -17.6720   27.3542 C   0  0  0  0  0  0  0  0  0  0  0  0
   11.9512  -18.7281   28.3083 C   0  0  0  0  0  0  0  0  0  0  0  0
   11.4466  -18.4654   29.7219 C   0  0  0  0  0  0  0  0  0  0  0  0
   11.6267  -19.7576   30.4989 C   0  0  0  0  0  0  0  0  0  0  0  0
   11.3245  -19.5941   31.9012 N   0  0  0  0  0  0  0  0  0  0  0  0
   13.1851  -18.4284   25.6799 C   0  0  0  0  0  0  0  0  0  0  0  0
   12.4878  -19.2473   24.9980 O   0  0  0  0  0  0  0  0  0  0  0  0
   14.5491  -18.7086   25.6766 O   0  0  0  0  0  0  0  0  0  0  0  0
  2  1  1  6
  3  2  1  0
  4  5  1  6
  4  6  1  0
  4  2  1  0
  6  8  1  0
  7  6  2  0
  8  9  1  0
  9 10  1  1
 10 11  1  0
 11 19  1  0
 11 12  2  0
 12 13  1  0
 14 13  1  0
 14 15  2  0
 16 15  1  0
 17 16  2  0
 18 19  2  0
 18 17  1  0
 19 14  1  0
 20 21  2  0
 20  9  1  0
 22 20  1  0
 23 24  1  1
 23 22  1  0
 25 26  1  0
 25 24  1  0
 27 26  1  0
 28 27  1  0
 29 23  1  0
 30 29  2  0
 31 29  1  0
M  END
$$$$
