TWK.pdb
     RDKit          3D

 31 32  0  0  1  0  0  0  0  0999 V2000
    6.5228  -18.2656   20.3278 C   0  0  0  0  0  0  0  0  0  0  0  0
    8.0226  -18.3579   20.3929 C   0  0  1  0  0  0  0  0  0  0  0  0
    8.5510  -18.8580   19.2147 O   0  0  0  0  0  0  0  0  0  0  0  0
    8.6292  -17.0238   20.7784 C   0  0  2  0  0  0  0  0  0  0  0  0
   10.0593  -17.0537   20.7519 N   0  0  0  0  0  0  0  0  0  0  0  0
    8.1593  -16.7120   22.1724 C   0  0  0  0  0  0  0  0  0  0  0  0
    6.9359  -16.6912   22.3693 O   0  0  0  0  0  0  0  0  0  0  0  0
    9.1056  -16.4589   23.1882 N   0  0  0  0  0  0  0  0  0  0  0  0
    8.7968  -16.2638   24.5804 C   0  0  1  0  0  0  0  0  0  0  0  0
    7.3219  -15.9273   24.7296 C   0  0  0  0  0  0  0  0  0  0  0  0
    7.1062  -14.4885   24.4494 C   0  0  0  0  0  0  0  0  0  0  0  0
    7.0282  -13.8031   23.2807 C   0  0  0  0  0  0  0  0  0  0  0  0
    6.8170  -12.4766   23.5151 N   0  0  0  0  0  0  0  0  0  0  0  0
    6.7604  -12.3213   24.8412 C   0  0  0  0  0  0  0  0  0  0  0  0
    6.5632  -11.1758   25.5785 C   0  0  0  0  0  0  0  0  0  0  0  0
    6.5421  -11.2684   26.9449 C   0  0  0  0  0  0  0  0  0  0  0  0
    6.7124  -12.4725   27.5874 C   0  0  0  0  0  0  0  0  0  0  0  0
    6.9117  -13.6280   26.8310 C   0  0  0  0  0  0  0  0  0  0  0  0
    6.9322  -13.5277   25.4580 C   0  0  0  0  0  0  0  0  0  0  0  0
    9.2208  -17.4383   25.3437 C   0  0  0  0  0  0  0  0  0  0  0  0
    8.4481  -18.4449   25.5199 O   0  0  0  0  0  0  0  0  0  0  0  0
   10.5048  -17.5701   25.9494 N   0  0  0  0  0  0  0  0  0  0  0  0
   10.8459  -18.7521   26.7595 C   0  0  1  0  0  0  0  0  0  0  0  0
   12.1781  -19.2882   26.3689 C   0  0  0  0  0  0  0  0  0  0  0  0
   12.2097  -19.7265   24.9428 C   0  0  0  0  0  0  0  0  0  0  0  0
   13.5861  -20.2408   24.5390 C   0  0  0  0  0  0  0  0  0  0  0  0
   13.4476  -20.8102   23.1381 C   0  0  0  0  0  0  0  0  0  0  0  0
   14.7031  -21.3091   22.6286 N   0  0  0  0  0  0  0  0  0  0  0  0
   10.7671  -18.2917   28.1638 C   0  0  0  0  0  0  0  0  0  0  0  0
   10.6647  -17.0594   28.4685 O   0  0  0  0  0  0  0  0  0  0  0  0
   10.7943  -19.1453   29.2638 O   0  0  0  0  0  0  0  0  0  0  0  0
  2  1  1  6
  3  2  1  0
  4  5  1  1
  4  6  1  0
  4  2  1  0
  6  8  1  0
  7  6  2  0
  8  9  1  0
  9 10  1  6
 10 11  1  0
 11 19  1  0
 11 12  2  0
 12 13  1  0
 14 13  1  0
 14 15  2  0
 16 15  1  0
 17 16  2  0
 18 19  2  0
 18 17  1  0
 19 14  1  0
 20 21  2  0
 20  9  1  0
 22 20  1  0
 23 24  1  6
 23 22  1  0
 25 26  1  0
 25 24  1  0
 27 26  1  0
 28 27  1  0
 29 23  1  0
 30 29  2  0
 31 29  1  0
M  END
$$$$
