SNS.pdb
     RDKit          3D

 21 20  0  0  1  0  0  0  0  0999 V2000
    7.3592  -20.1651   20.2329 O   0  0  0  0  0  0  0  0  0  0  0  0
    6.4626  -19.2857   19.6490 C   0  0  0  0  0  0  0  0  0  0  0  0
    7.1235  -18.4056   18.6151 C   0  0  2  0  0  0  0  0  0  0  0  0
    7.7406  -19.2257   17.6257 N   0  0  0  0  0  0  0  0  0  0  0  0
    8.1285  -17.4966   19.2094 C   0  0  0  0  0  0  0  0  0  0  0  0
    9.3612  -17.7745   19.2236 O   0  0  0  0  0  0  0  0  0  0  0  0
    6.5538  -12.5858   18.9332 N   0  0  0  0  0  0  0  0  0  0  0  0
    7.7518  -13.3813   19.1215 C   0  0  0  0  0  0  0  0  0  0  0  0
    8.4348  -13.5091   18.0825 O   0  0  0  0  0  0  0  0  0  0  0  0
    8.0380  -13.9365   20.4525 C   0  0  0  0  0  0  0  0  0  0  0  0
    8.5963  -15.2928   20.3791 C   0  0  2  0  0  0  0  0  0  0  0  0
    7.7196  -16.2800   19.7826 N   0  0  0  0  0  0  0  0  0  0  0  0
    8.9817  -15.7814   21.7223 C   0  0  0  0  0  0  0  0  0  0  0  0
    8.2108  -16.0177   22.6785 O   0  0  0  0  0  0  0  0  0  0  0  0
   11.3756  -18.4990   21.9228 O   0  0  0  0  0  0  0  0  0  0  0  0
   10.7103  -18.1338   23.1132 C   0  0  0  0  0  0  0  0  0  0  0  0
   10.7902  -16.6130   23.2976 C   0  0  2  0  0  0  0  0  0  0  0  0
   10.3788  -16.0319   22.0309 N   0  0  0  0  0  0  0  0  0  0  0  0
   12.1761  -16.2814   23.6277 C   0  0  0  0  0  0  0  0  0  0  0  0
   12.8929  -15.6919   22.7950 O   0  0  0  0  0  0  0  0  0  0  0  0
   12.6909  -16.6219   24.8646 O   0  0  0  0  0  0  0  0  0  0  0  0
  2  1  1  0
  3  2  1  0
  3  4  1  6
  3  5  1  0
  5  6  2  0
  8  7  1  0
  8 10  1  0
  9  8  2  0
 11 10  1  1
 11 13  1  0
 12  5  1  0
 12 11  1  0
 13 18  1  0
 13 14  2  0
 15 16  1  0
 17 16  1  6
 17 19  1  0
 18 17  1  0
 19 20  2  0
 19 21  1  0
M  END
$$$$
