SNS.pdb
     RDKit          3D

 21 20  0  0  1  0  0  0  0  0999 V2000
   -2.2290  -22.9192   23.7019 O   0  0  0  0  0  0  0  0  0  0  0  0
   -2.8571  -23.4038   24.8372 C   0  0  0  0  0  0  0  0  0  0  0  0
   -4.1646  -22.6980   25.1066 C   0  0  2  0  0  0  0  0  0  0  0  0
   -3.9190  -21.3046   25.2806 N   0  0  0  0  0  0  0  0  0  0  0  0
   -4.8595  -23.2360   26.2972 C   0  0  0  0  0  0  0  0  0  0  0  0
   -5.2473  -24.4369   26.3637 O   0  0  0  0  0  0  0  0  0  0  0  0
   -3.5368  -24.0754   29.5621 N   0  0  0  0  0  0  0  0  0  0  0  0
   -4.0321  -22.9550   30.3385 C   0  0  0  0  0  0  0  0  0  0  0  0
   -3.3785  -22.7432   31.3827 O   0  0  0  0  0  0  0  0  0  0  0  0
   -5.2004  -22.2085   29.8491 C   0  0  0  0  0  0  0  0  0  0  0  0
   -5.7641  -22.7990   28.6284 C   0  0  2  0  0  0  0  0  0  0  0  0
   -5.1065  -22.4007   27.4003 N   0  0  0  0  0  0  0  0  0  0  0  0
   -7.2027  -22.4753   28.4978 C   0  0  0  0  0  0  0  0  0  0  0  0
   -7.6953  -21.3474   28.2750 O   0  0  0  0  0  0  0  0  0  0  0  0
  -11.7200  -24.4200   28.4656 O   0  0  0  0  0  0  0  0  0  0  0  0
  -10.3237  -24.6089   28.5546 C   0  0  0  0  0  0  0  0  0  0  0  0
   -9.6212  -23.2454   28.5372 C   0  0  2  0  0  0  0  0  0  0  0  0
   -8.1984  -23.5245   28.6315 N   0  0  0  0  0  0  0  0  0  0  0  0
  -10.1074  -22.4845   29.6881 C   0  0  0  0  0  0  0  0  0  0  0  0
   -9.5245  -22.5727   30.7867 O   0  0  0  0  0  0  0  0  0  0  0  0
  -11.2142  -21.6669   29.5567 O   0  0  0  0  0  0  0  0  0  0  0  0
  2  1  1  0
  3  2  1  0
  3  4  1  1
  3  5  1  0
  5  6  2  0
  8  7  1  0
  8 10  1  0
  9  8  2  0
 11 10  1  1
 11 13  1  0
 12  5  1  0
 12 11  1  0
 13 18  1  0
 13 14  2  0
 15 16  1  0
 17 16  1  1
 17 19  1  0
 18 17  1  0
 19 20  2  0
 19 21  1  0
M  END
$$$$
