SNS.pdb
     RDKit          3D

 21 20  0  0  1  0  0  0  0  0999 V2000
    7.7999  -13.2716   20.2433 O   0  0  0  0  0  0  0  0  0  0  0  0
    8.4949  -12.5024   19.3249 C   0  0  0  0  0  0  0  0  0  0  0  0
    9.0097  -13.3269   18.1692 C   0  0  2  0  0  0  0  0  0  0  0  0
    7.9044  -13.8506   17.4369 N   0  0  0  0  0  0  0  0  0  0  0  0
    9.8851  -14.4340   18.6138 C   0  0  0  0  0  0  0  0  0  0  0  0
    9.4962  -15.6364   18.6227 O   0  0  0  0  0  0  0  0  0  0  0  0
   14.2554  -14.4845   16.8296 N   0  0  0  0  0  0  0  0  0  0  0  0
   13.7436  -15.4219   17.8109 C   0  0  0  0  0  0  0  0  0  0  0  0
   13.5467  -16.5676   17.3518 O   0  0  0  0  0  0  0  0  0  0  0  0
   13.5151  -14.9599   19.1878 C   0  0  0  0  0  0  0  0  0  0  0  0
   12.1168  -15.1282   19.6043 C   0  0  2  0  0  0  0  0  0  0  0  0
   11.1948  -14.1608   19.0446 N   0  0  0  0  0  0  0  0  0  0  0  0
   11.9919  -15.0735   21.0783 C   0  0  0  0  0  0  0  0  0  0  0  0
   12.4428  -14.1826   21.8315 O   0  0  0  0  0  0  0  0  0  0  0  0
    8.7908  -15.6617   22.8922 O   0  0  0  0  0  0  0  0  0  0  0  0
    9.6915  -16.5568   23.5093 C   0  0  0  0  0  0  0  0  0  0  0  0
   11.1312  -16.1058   23.2317 C   0  0  2  0  0  0  0  0  0  0  0  0
   11.2884  -16.1281   21.7873 N   0  0  0  0  0  0  0  0  0  0  0  0
   12.0257  -17.0546   23.8946 C   0  0  0  0  0  0  0  0  0  0  0  0
   12.7368  -17.8216   23.2159 O   0  0  0  0  0  0  0  0  0  0  0  0
   12.0824  -17.1001   25.2750 O   0  0  0  0  0  0  0  0  0  0  0  0
  2  1  1  0
  3  2  1  0
  3  4  1  1
  3  5  1  0
  5  6  2  0
  8  7  1  0
  8 10  1  0
  9  8  2  0
 11 10  1  1
 11 13  1  0
 12  5  1  0
 12 11  1  0
 13 18  1  0
 13 14  2  0
 15 16  1  0
 17 16  1  6
 17 19  1  0
 18 17  1  0
 19 20  2  0
 19 21  1  0
M  END
$$$$
