SNS.pdb
     RDKit          3D

 21 20  0  0  1  0  0  0  0  0999 V2000
   13.1146  -20.1973   18.6862 O   0  0  0  0  0  0  0  0  0  0  0  0
   12.1690  -20.1596   19.6975 C   0  0  0  0  0  0  0  0  0  0  0  0
   11.3632  -18.8827   19.6728 C   0  0  2  0  0  0  0  0  0  0  0  0
   11.1076  -18.5148   18.3195 N   0  0  0  0  0  0  0  0  0  0  0  0
   12.0469  -17.7724   20.3725 C   0  0  0  0  0  0  0  0  0  0  0  0
   12.6671  -16.8651   19.7486 O   0  0  0  0  0  0  0  0  0  0  0  0
   10.1764  -15.5208   22.3131 N   0  0  0  0  0  0  0  0  0  0  0  0
   10.6450  -15.7687   23.6631 C   0  0  0  0  0  0  0  0  0  0  0  0
    9.8414  -15.3994   24.5463 O   0  0  0  0  0  0  0  0  0  0  0  0
   11.9580  -16.4008   23.8580 C   0  0  0  0  0  0  0  0  0  0  0  0
   12.6360  -16.6749   22.5844 C   0  0  2  0  0  0  0  0  0  0  0  0
   12.0183  -17.7067   21.7763 N   0  0  0  0  0  0  0  0  0  0  0  0
   14.0484  -17.0582   22.8068 C   0  0  0  0  0  0  0  0  0  0  0  0
   14.4681  -18.1802   23.1664 O   0  0  0  0  0  0  0  0  0  0  0  0
   17.0985  -15.6529   20.5808 O   0  0  0  0  0  0  0  0  0  0  0  0
   17.3006  -15.4055   21.9560 C   0  0  0  0  0  0  0  0  0  0  0  0
   16.5068  -16.4264   22.7811 C   0  0  2  0  0  0  0  0  0  0  0  0
   15.1059  -16.0825   22.6071 N   0  0  0  0  0  0  0  0  0  0  0  0
   16.9340  -16.2949   24.1740 C   0  0  0  0  0  0  0  0  0  0  0  0
   16.1542  -15.8228   25.0247 O   0  0  0  0  0  0  0  0  0  0  0  0
   18.2035  -16.6948   24.5468 O   0  0  0  0  0  0  0  0  0  0  0  0
  2  1  1  0
  3  2  1  0
  3  4  1  6
  3  5  1  0
  5  6  2  0
  8  7  1  0
  8 10  1  0
  9  8  2  0
 11 10  1  1
 11 13  1  0
 12  5  1  0
 12 11  1  0
 13 18  1  0
 13 14  2  0
 15 16  1  0
 17 16  1  6
 17 19  1  0
 18 17  1  0
 19 20  2  0
 19 21  1  0
M  END
$$$$
