SNS.pdb
     RDKit          3D

 21 20  0  0  1  0  0  0  0  0999 V2000
    7.7754  -17.4193   14.3115 O   0  0  0  0  0  0  0  0  0  0  0  0
    9.0899  -17.0487   14.5418 C   0  0  0  0  0  0  0  0  0  0  0  0
    9.9239  -18.2019   15.0466 C   0  0  2  0  0  0  0  0  0  0  0  0
    9.8688  -19.2695   14.1035 N   0  0  0  0  0  0  0  0  0  0  0  0
    9.4760  -18.6821   16.3727 C   0  0  0  0  0  0  0  0  0  0  0  0
    8.9779  -19.8317   16.5383 O   0  0  0  0  0  0  0  0  0  0  0  0
   10.4616  -20.1524   21.6908 N   0  0  0  0  0  0  0  0  0  0  0  0
    9.4466  -19.6878   20.7649 C   0  0  0  0  0  0  0  0  0  0  0  0
    8.3183  -19.5552   21.2861 O   0  0  0  0  0  0  0  0  0  0  0  0
    9.8208  -19.4284   19.3669 C   0  0  0  0  0  0  0  0  0  0  0  0
    9.2136  -18.1950   18.8501 C   0  0  2  0  0  0  0  0  0  0  0  0
    9.5990  -17.8480   17.4973 N   0  0  0  0  0  0  0  0  0  0  0  0
    9.5310  -17.0416   19.7220 C   0  0  0  0  0  0  0  0  0  0  0  0
   10.6217  -16.4325   19.7839 O   0  0  0  0  0  0  0  0  0  0  0  0
    6.5061  -15.6527   22.1971 O   0  0  0  0  0  0  0  0  0  0  0  0
    7.4354  -14.6979   21.7304 C   0  0  0  0  0  0  0  0  0  0  0  0
    8.7894  -15.3775   21.4896 C   0  0  2  0  0  0  0  0  0  0  0  0
    8.5216  -16.5122   20.6224 N   0  0  0  0  0  0  0  0  0  0  0  0
    9.3109  -15.7943   22.7912 C   0  0  0  0  0  0  0  0  0  0  0  0
    9.3642  -17.0050   23.0843 O   0  0  0  0  0  0  0  0  0  0  0  0
    9.7450  -14.8443   23.6966 O   0  0  0  0  0  0  0  0  0  0  0  0
  2  1  1  0
  3  2  1  0
  3  4  1  6
  3  5  1  0
  5  6  2  0
  8  7  1  0
  8 10  1  0
  9  8  2  0
 11 10  1  1
 11 13  1  0
 12  5  1  0
 12 11  1  0
 13 18  1  0
 13 14  2  0
 15 16  1  0
 17 16  1  1
 17 19  1  0
 18 17  1  0
 19 20  2  0
 19 21  1  0
M  END
$$$$
