SNS.pdb
     RDKit          3D

 21 20  0  0  1  0  0  0  0  0999 V2000
   14.1541  -18.7801   19.3432 O   0  0  0  0  0  0  0  0  0  0  0  0
   13.9575  -19.9849   18.6889 C   0  0  0  0  0  0  0  0  0  0  0  0
   12.4922  -20.2840   18.4800 C   0  0  2  0  0  0  0  0  0  0  0  0
   11.8953  -19.2175   17.7462 N   0  0  0  0  0  0  0  0  0  0  0  0
   11.7700  -20.4785   19.7568 C   0  0  0  0  0  0  0  0  0  0  0  0
   10.9734  -19.6123   20.2172 O   0  0  0  0  0  0  0  0  0  0  0  0
   10.6530  -25.0904   20.1100 N   0  0  0  0  0  0  0  0  0  0  0  0
   10.1827  -24.1136   21.0734 C   0  0  0  0  0  0  0  0  0  0  0  0
    8.9468  -23.9311   21.0368 O   0  0  0  0  0  0  0  0  0  0  0  0
   11.1562  -23.4605   21.9607 C   0  0  0  0  0  0  0  0  0  0  0  0
   11.2545  -22.0169   21.7091 C   0  0  2  0  0  0  0  0  0  0  0  0
   11.9628  -21.6576   20.4973 N   0  0  0  0  0  0  0  0  0  0  0  0
   11.9117  -21.3246   22.8405 C   0  0  0  0  0  0  0  0  0  0  0  0
   13.1195  -21.0097   22.9209 O   0  0  0  0  0  0  0  0  0  0  0  0
    9.4380  -19.8111   25.6820 O   0  0  0  0  0  0  0  0  0  0  0  0
   10.7116  -19.2087   25.5919 C   0  0  0  0  0  0  0  0  0  0  0  0
   11.7393  -20.2517   25.1346 C   0  0  2  0  0  0  0  0  0  0  0  0
   11.1363  -20.9439   24.0083 N   0  0  0  0  0  0  0  0  0  0  0  0
   11.9859  -21.1510   26.2617 C   0  0  0  0  0  0  0  0  0  0  0  0
   11.5112  -22.3039   26.2565 O   0  0  0  0  0  0  0  0  0  0  0  0
   12.7464  -20.7216   27.3331 O   0  0  0  0  0  0  0  0  0  0  0  0
  2  1  1  0
  3  2  1  0
  3  4  1  1
  3  5  1  0
  5  6  2  0
  8  7  1  0
  8 10  1  0
  9  8  2  0
 11 10  1  1
 11 13  1  0
 12  5  1  0
 12 11  1  0
 13 18  1  0
 13 14  2  0
 15 16  1  0
 17 16  1  1
 17 19  1  0
 18 17  1  0
 19 20  2  0
 19 21  1  0
M  END
$$$$
