SNS.pdb
     RDKit          3D

 21 20  0  0  1  0  0  0  0  0999 V2000
    9.4504  -18.2803   18.8258 O   0  0  0  0  0  0  0  0  0  0  0  0
   10.5292  -19.1339   18.6654 C   0  0  0  0  0  0  0  0  0  0  0  0
   11.2583  -19.3765   19.9654 C   0  0  2  0  0  0  0  0  0  0  0  0
   10.3268  -19.8151   20.9514 N   0  0  0  0  0  0  0  0  0  0  0  0
   11.9658  -18.1695   20.4474 C   0  0  0  0  0  0  0  0  0  0  0  0
   12.9377  -17.6636   19.8176 O   0  0  0  0  0  0  0  0  0  0  0  0
   10.0870  -15.7498   25.0727 N   0  0  0  0  0  0  0  0  0  0  0  0
   10.2257  -16.1164   23.6763 C   0  0  0  0  0  0  0  0  0  0  0  0
    9.4288  -17.0079   23.3125 O   0  0  0  0  0  0  0  0  0  0  0  0
   11.2414  -15.4380   22.8579 C   0  0  0  0  0  0  0  0  0  0  0  0
   12.1787  -16.3850   22.2401 C   0  0  2  0  0  0  0  0  0  0  0  0
   11.5599  -17.5508   21.6424 N   0  0  0  0  0  0  0  0  0  0  0  0
   13.1806  -16.8570   23.2223 C   0  0  0  0  0  0  0  0  0  0  0  0
   12.9453  -17.4043   24.3220 O   0  0  0  0  0  0  0  0  0  0  0  0
   16.3839  -18.4257   21.9512 O   0  0  0  0  0  0  0  0  0  0  0  0
   16.0615  -18.5485   23.3202 C   0  0  0  0  0  0  0  0  0  0  0  0
   15.6144  -17.1858   23.8644 C   0  0  2  0  0  0  0  0  0  0  0  0
   14.5981  -16.6997   22.9466 N   0  0  0  0  0  0  0  0  0  0  0  0
   16.7895  -16.3149   23.8912 C   0  0  0  0  0  0  0  0  0  0  0  0
   17.6814  -16.4952   24.7435 O   0  0  0  0  0  0  0  0  0  0  0  0
   16.9106  -15.2915   22.9700 O   0  0  0  0  0  0  0  0  0  0  0  0
  2  1  1  0
  3  2  1  0
  3  4  1  1
  3  5  1  0
  5  6  2  0
  8  7  1  0
  8 10  1  0
  9  8  2  0
 11 10  1  1
 11 13  1  0
 12  5  1  0
 12 11  1  0
 13 18  1  0
 13 14  2  0
 15 16  1  0
 17 16  1  6
 17 19  1  0
 18 17  1  0
 19 20  2  0
 19 21  1  0
M  END
$$$$
