SNS.pdb
     RDKit          3D

 21 20  0  0  1  0  0  0  0  0999 V2000
   12.8992  -15.4735   19.8393 O   0  0  0  0  0  0  0  0  0  0  0  0
   12.0445  -15.4712   20.9292 C   0  0  0  0  0  0  0  0  0  0  0  0
   11.4295  -16.8292   21.1701 C   0  0  2  0  0  0  0  0  0  0  0  0
   10.5705  -17.1557   20.0803 N   0  0  0  0  0  0  0  0  0  0  0  0
   10.6711  -16.8861   22.4394 C   0  0  0  0  0  0  0  0  0  0  0  0
    9.4476  -16.5766   22.5060 O   0  0  0  0  0  0  0  0  0  0  0  0
    9.8568  -19.7987   23.9093 N   0  0  0  0  0  0  0  0  0  0  0  0
   10.6442  -19.8353   25.1267 C   0  0  0  0  0  0  0  0  0  0  0  0
   10.8438  -20.9914   25.5578 O   0  0  0  0  0  0  0  0  0  0  0  0
   11.1121  -18.5704   25.7123 C   0  0  0  0  0  0  0  0  0  0  0  0
   10.6905  -17.4051   24.9242 C   0  0  2  0  0  0  0  0  0  0  0  0
   11.3137  -17.2944   23.6210 N   0  0  0  0  0  0  0  0  0  0  0  0
   10.9489  -16.1461   25.6587 C   0  0  0  0  0  0  0  0  0  0  0  0
   12.0377  -15.5345   25.7286 O   0  0  0  0  0  0  0  0  0  0  0  0
    7.6894  -14.2208   27.1866 O   0  0  0  0  0  0  0  0  0  0  0  0
    8.8358  -13.4284   26.9611 C   0  0  0  0  0  0  0  0  0  0  0  0
   10.0946  -14.2832   27.1564 C   0  0  2  0  0  0  0  0  0  0  0  0
    9.8758  -15.5015   26.3953 N   0  0  0  0  0  0  0  0  0  0  0  0
   10.2289  -14.5489   28.5886 C   0  0  0  0  0  0  0  0  0  0  0  0
   10.0845  -15.7078   29.0252 O   0  0  0  0  0  0  0  0  0  0  0  0
   10.5166  -13.5136   29.4582 O   0  0  0  0  0  0  0  0  0  0  0  0
  2  1  1  0
  3  2  1  0
  3  4  1  6
  3  5  1  0
  5  6  2  0
  8  7  1  0
  8 10  1  0
  9  8  2  0
 11 10  1  1
 11 13  1  0
 12  5  1  0
 12 11  1  0
 13 18  1  0
 13 14  2  0
 15 16  1  0
 17 16  1  1
 17 19  1  0
 18 17  1  0
 19 20  2  0
 19 21  1  0
M  END
$$$$
