SNS.pdb
     RDKit          3D

 21 20  0  0  1  0  0  0  0  0999 V2000
    8.4361  -15.2591   19.8028 O   0  0  0  0  0  0  0  0  0  0  0  0
    9.7190  -15.7605   19.6582 C   0  0  0  0  0  0  0  0  0  0  0  0
    9.8411  -17.1677   20.1923 C   0  0  2  0  0  0  0  0  0  0  0  0
    9.0136  -18.0358   19.4218 N   0  0  0  0  0  0  0  0  0  0  0  0
    9.4702  -17.2611   21.6218 C   0  0  0  0  0  0  0  0  0  0  0  0
    8.3731  -17.7613   22.0002 O   0  0  0  0  0  0  0  0  0  0  0  0
   12.0254  -19.6456   23.8837 N   0  0  0  0  0  0  0  0  0  0  0  0
   11.1046  -18.9332   24.7485 C   0  0  0  0  0  0  0  0  0  0  0  0
   10.3163  -19.6828   25.3641 O   0  0  0  0  0  0  0  0  0  0  0  0
   11.1802  -17.4665   24.8177 C   0  0  0  0  0  0  0  0  0  0  0  0
   10.1188  -16.8192   24.0358 C   0  0  2  0  0  0  0  0  0  0  0  0
   10.3522  -16.7832   22.6064 N   0  0  0  0  0  0  0  0  0  0  0  0
    9.8950  -15.4294   24.4937 C   0  0  0  0  0  0  0  0  0  0  0  0
   10.6582  -14.4545   24.3163 O   0  0  0  0  0  0  0  0  0  0  0  0
    6.6827  -13.6364   24.0839 O   0  0  0  0  0  0  0  0  0  0  0  0
    6.9584  -13.4639   25.4577 C   0  0  0  0  0  0  0  0  0  0  0  0
    8.4429  -13.7472   25.7207 C   0  0  2  0  0  0  0  0  0  0  0  0
    8.6890  -15.0926   25.2301 N   0  0  0  0  0  0  0  0  0  0  0  0
    8.6629  -13.6416   27.1630 C   0  0  0  0  0  0  0  0  0  0  0  0
    8.4415  -12.5650   27.7517 O   0  0  0  0  0  0  0  0  0  0  0  0
    9.1165  -14.7372   27.8736 O   0  0  0  0  0  0  0  0  0  0  0  0
  2  1  1  0
  3  2  1  0
  3  4  1  6
  3  5  1  0
  5  6  2  0
  8  7  1  0
  8 10  1  0
  9  8  2  0
 11 10  1  1
 11 13  1  0
 12  5  1  0
 12 11  1  0
 13 18  1  0
 13 14  2  0
 15 16  1  0
 17 16  1  1
 17 19  1  0
 18 17  1  0
 19 20  2  0
 19 21  1  0
M  END
$$$$
