SNS.pdb
     RDKit          3D

 21 20  0  0  1  0  0  0  0  0999 V2000
    9.7351  -18.3399   19.0840 O   0  0  0  0  0  0  0  0  0  0  0  0
    9.1969  -18.0075   20.3161 C   0  0  0  0  0  0  0  0  0  0  0  0
   10.0751  -18.4589   21.4587 C   0  0  2  0  0  0  0  0  0  0  0  0
   10.3636  -19.8469   21.3091 N   0  0  0  0  0  0  0  0  0  0  0  0
    9.4503  -18.2170   22.7780 C   0  0  0  0  0  0  0  0  0  0  0  0
    9.0939  -17.0636   23.1518 O   0  0  0  0  0  0  0  0  0  0  0  0
    6.0845  -19.1179   26.8779 N   0  0  0  0  0  0  0  0  0  0  0  0
    7.1268  -20.1016   26.6554 C   0  0  0  0  0  0  0  0  0  0  0  0
    7.4438  -20.7350   27.6853 O   0  0  0  0  0  0  0  0  0  0  0  0
    7.6867  -20.2550   25.3046 C   0  0  0  0  0  0  0  0  0  0  0  0
    8.6491  -19.1944   24.9795 C   0  0  2  0  0  0  0  0  0  0  0  0
    9.2380  -19.2912   23.6593 N   0  0  0  0  0  0  0  0  0  0  0  0
    9.7519  -19.1579   25.9663 C   0  0  0  0  0  0  0  0  0  0  0  0
   10.7861  -19.8612   25.9540 O   0  0  0  0  0  0  0  0  0  0  0  0
   11.2873  -16.9950   30.1105 O   0  0  0  0  0  0  0  0  0  0  0  0
   10.3689  -17.0390   29.0392 C   0  0  0  0  0  0  0  0  0  0  0  0
   10.7374  -18.1921   28.0970 C   0  0  2  0  0  0  0  0  0  0  0  0
    9.6925  -18.2372   27.0883 N   0  0  0  0  0  0  0  0  0  0  0  0
   10.7809  -19.4169   28.8955 C   0  0  0  0  0  0  0  0  0  0  0  0
    9.8008  -20.1874   28.9115 O   0  0  0  0  0  0  0  0  0  0  0  0
   11.9103  -19.7200   29.6326 O   0  0  0  0  0  0  0  0  0  0  0  0
  2  1  1  0
  3  2  1  0
  3  4  1  6
  3  5  1  0
  5  6  2  0
  8  7  1  0
  8 10  1  0
  9  8  2  0
 11 10  1  1
 11 13  1  0
 12  5  1  0
 12 11  1  0
 13 18  1  0
 13 14  2  0
 15 16  1  0
 17 16  1  1
 17 19  1  0
 18 17  1  0
 19 20  2  0
 19 21  1  0
M  END
$$$$
