HQD.pdb
     RDKit          3D

 28 28  0  0  1  0  0  0  0  0999 V2000
   25.0017  -24.1492  -12.9336 N   0  0  0  0  0  0  0  0  0  0  0  0
   23.9959  -23.6602  -13.8704 C   0  0  1  0  0  0  0  0  0  0  0  0
   22.6276  -24.0106  -13.2790 C   0  0  0  0  0  0  0  0  0  0  0  0
   22.3742  -25.4728  -13.3957 C   0  0  0  0  0  0  0  0  0  0  0  0
   21.9330  -26.1657  -14.4812 C   0  0  0  0  0  0  0  0  0  0  0  0
   21.8504  -27.4715  -14.1247 N   0  0  0  0  0  0  0  0  0  0  0  0
   22.2351  -27.5904  -12.8341 C   0  0  0  0  0  0  0  0  0  0  0  0
   22.5496  -26.3517  -12.4149 N   0  0  0  0  0  0  0  0  0  0  0  0
   24.0577  -22.1741  -13.8959 C   0  0  0  0  0  0  0  0  0  0  0  0
   24.0757  -21.5764  -12.7992 O   0  0  0  0  0  0  0  0  0  0  0  0
   27.1420  -18.8841  -17.8324 N   0  0  0  0  0  0  0  0  0  0  0  0
   26.4184  -17.8021  -17.2480 C   0  0  0  0  0  0  0  0  0  0  0  0
   26.7604  -16.6393  -17.5789 O   0  0  0  0  0  0  0  0  0  0  0  0
   25.3121  -18.0758  -16.2916 C   0  0  0  0  0  0  0  0  0  0  0  0
   25.2047  -19.5568  -16.1280 C   0  0  0  0  0  0  0  0  0  0  0  0
   24.1478  -19.9922  -15.1565 C   0  0  2  0  0  0  0  0  0  0  0  0
   24.0964  -21.4174  -15.0991 N   0  0  0  0  0  0  0  0  0  0  0  0
   22.8325  -19.3612  -15.4062 C   0  0  0  0  0  0  0  0  0  0  0  0
   22.0665  -19.8130  -16.2957 O   0  0  0  0  0  0  0  0  0  0  0  0
   22.3279  -18.2465  -14.7096 N   0  0  0  0  0  0  0  0  0  0  0  0
   21.0891  -17.6134  -14.9268 C   0  0  1  0  0  0  0  0  0  0  0  0
   20.5564  -16.7110  -13.8844 C   0  0  0  0  0  0  0  0  0  0  0  0
   19.1964  -16.1701  -14.2247 C   0  0  0  0  0  0  0  0  0  0  0  0
   18.5738  -16.5161  -15.2610 O   0  0  0  0  0  0  0  0  0  0  0  0
   21.1184  -16.8742  -16.2180 C   0  0  0  0  0  0  0  0  0  0  0  0
   20.0358  -16.9408  -17.0842 O   0  0  0  0  0  0  0  0  0  0  0  0
   18.5499  -15.2530  -13.4076 O   0  0  0  0  0  0  0  0  0  0  0  0
   22.0898  -16.1677  -16.5936 O   0  0  0  0  0  0  0  0  0  0  0  0
  2  9  1  0
  2  1  1  1
  3  4  1  0
  3  2  1  0
  4  8  1  0
  5  6  1  0
  5  4  2  0
  6  7  1  0
  7  8  2  0
  9 17  1  0
 10  9  2  0
 12 14  1  0
 12 11  1  0
 13 12  2  0
 16 15  1  6
 15 14  1  0
 17 16  1  0
 18 20  1  0
 18 16  1  0
 19 18  2  0
 21 20  1  0
 21 22  1  1
 23 27  1  0
 23 22  1  0
 24 23  2  0
 25 21  1  0
 26 25  1  0
 28 25  2  0
M  END
$$$$
