HQD.pdb
     RDKit          3D

 28 28  0  0  1  0  0  0  0  0999 V2000
   30.9720  -36.0268   -6.1841 N   0  0  0  0  0  0  0  0  0  0  0  0
   31.3767  -35.3345   -4.9654 C   0  0  1  0  0  0  0  0  0  0  0  0
   31.2866  -33.8334   -5.2542 C   0  0  0  0  0  0  0  0  0  0  0  0
   32.4396  -33.3984   -6.0891 C   0  0  0  0  0  0  0  0  0  0  0  0
   33.4124  -34.1701   -6.6468 C   0  0  0  0  0  0  0  0  0  0  0  0
   34.2513  -33.3443   -7.3201 N   0  0  0  0  0  0  0  0  0  0  0  0
   33.8069  -32.0747   -7.1836 C   0  0  0  0  0  0  0  0  0  0  0  0
   32.6975  -32.1392   -6.4258 N   0  0  0  0  0  0  0  0  0  0  0  0
   30.3638  -35.6055   -3.9102 C   0  0  0  0  0  0  0  0  0  0  0  0
   29.1591  -35.5091   -4.2255 O   0  0  0  0  0  0  0  0  0  0  0  0
   29.0747  -40.2103   -0.7673 N   0  0  0  0  0  0  0  0  0  0  0  0
   30.4454  -39.8398   -0.9067 C   0  0  0  0  0  0  0  0  0  0  0  0
   31.3038  -40.7366   -0.7121 O   0  0  0  0  0  0  0  0  0  0  0  0
   30.8068  -38.4426   -1.2681 C   0  0  0  0  0  0  0  0  0  0  0  0
   29.5464  -37.6421   -1.3161 C   0  0  0  0  0  0  0  0  0  0  0  0
   29.7602  -36.1725   -1.5285 C   0  0  2  0  0  0  0  0  0  0  0  0
   30.7055  -35.9644   -2.5774 N   0  0  0  0  0  0  0  0  0  0  0  0
   30.0888  -35.4462   -0.2816 C   0  0  0  0  0  0  0  0  0  0  0  0
   31.1836  -34.8375   -0.1672 O   0  0  0  0  0  0  0  0  0  0  0  0
   29.2528  -35.3652    0.8485 N   0  0  0  0  0  0  0  0  0  0  0  0
   29.5539  -34.7321    2.0697 C   0  0  1  0  0  0  0  0  0  0  0  0
   29.5369  -33.2555    2.1310 C   0  0  0  0  0  0  0  0  0  0  0  0
   29.9266  -32.7262    3.4823 C   0  0  0  0  0  0  0  0  0  0  0  0
   30.9949  -33.0614    4.0547 O   0  0  0  0  0  0  0  0  0  0  0  0
   28.6678  -35.2573    3.1436 C   0  0  0  0  0  0  0  0  0  0  0  0
   28.9136  -34.9334    4.4708 O   0  0  0  0  0  0  0  0  0  0  0  0
   29.1224  -31.8326    4.1763 O   0  0  0  0  0  0  0  0  0  0  0  0
   27.6759  -36.0007    2.9260 O   0  0  0  0  0  0  0  0  0  0  0  0
  2  9  1  0
  2  1  1  6
  3  4  1  0
  3  2  1  0
  4  8  1  0
  5  6  1  0
  5  4  2  0
  6  7  1  0
  7  8  2  0
  9 17  1  0
 10  9  2  0
 12 14  1  0
 12 11  1  0
 13 12  2  0
 16 15  1  1
 15 14  1  0
 17 16  1  0
 18 20  1  0
 18 16  1  0
 19 18  2  0
 21 20  1  0
 21 22  1  6
 23 27  1  0
 23 22  1  0
 24 23  2  0
 25 21  1  0
 26 25  1  0
 28 25  2  0
M  END
$$$$
