HQD.pdb
     RDKit          3D

 28 28  0  0  1  0  0  0  0  0999 V2000
   22.5796  -20.8239  -16.6930 N   0  0  0  0  0  0  0  0  0  0  0  0
   22.5482  -21.7658  -17.8066 C   0  0  1  0  0  0  0  0  0  0  0  0
   23.8409  -21.5605  -18.6012 C   0  0  0  0  0  0  0  0  0  0  0  0
   23.9927  -20.1286  -18.9787 C   0  0  0  0  0  0  0  0  0  0  0  0
   23.0883  -19.3221  -19.5989 C   0  0  0  0  0  0  0  0  0  0  0  0
   23.6605  -18.1005  -19.7385 N   0  0  0  0  0  0  0  0  0  0  0  0
   24.9050  -18.1455  -19.2121 C   0  0  0  0  0  0  0  0  0  0  0  0
   25.0800  -19.3984  -18.7552 N   0  0  0  0  0  0  0  0  0  0  0  0
   22.6243  -23.1468  -17.2590 C   0  0  0  0  0  0  0  0  0  0  0  0
   22.6559  -24.0922  -18.0746 O   0  0  0  0  0  0  0  0  0  0  0  0
   25.3478  -26.6336  -15.6664 N   0  0  0  0  0  0  0  0  0  0  0  0
   25.9185  -25.3284  -15.5867 C   0  0  0  0  0  0  0  0  0  0  0  0
   27.0425  -25.1610  -16.1228 O   0  0  0  0  0  0  0  0  0  0  0  0
   25.1862  -24.2360  -14.8912 C   0  0  0  0  0  0  0  0  0  0  0  0
   23.9145  -24.8073  -14.3545 C   0  0  0  0  0  0  0  0  0  0  0  0
   22.7603  -24.7417  -15.3106 C   0  0  2  0  0  0  0  0  0  0  0  0
   22.6620  -23.4307  -15.8662 N   0  0  0  0  0  0  0  0  0  0  0  0
   21.4927  -25.2349  -14.7272 C   0  0  0  0  0  0  0  0  0  0  0  0
   21.4508  -26.3454  -14.1380 O   0  0  0  0  0  0  0  0  0  0  0  0
   20.2648  -24.5472  -14.7688 N   0  0  0  0  0  0  0  0  0  0  0  0
   19.3672  -24.3699  -13.6984 C   0  0  1  0  0  0  0  0  0  0  0  0
   19.8886  -24.4094  -12.3160 C   0  0  0  0  0  0  0  0  0  0  0  0
   18.7977  -24.3770  -11.2831 C   0  0  0  0  0  0  0  0  0  0  0  0
   18.0418  -23.3834  -11.1326 O   0  0  0  0  0  0  0  0  0  0  0  0
   18.6092  -23.1021  -13.8787 C   0  0  0  0  0  0  0  0  0  0  0  0
   17.2691  -23.0345  -13.5231 O   0  0  0  0  0  0  0  0  0  0  0  0
   18.5641  -25.4498  -10.4337 O   0  0  0  0  0  0  0  0  0  0  0  0
   19.1150  -22.0494  -14.3474 O   0  0  0  0  0  0  0  0  0  0  0  0
  2  9  1  0
  2  1  1  1
  3  4  1  0
  3  2  1  0
  4  8  1  0
  5  6  1  0
  5  4  2  0
  6  7  1  0
  7  8  2  0
  9 17  1  0
 10  9  2  0
 12 14  1  0
 12 11  1  0
 13 12  2  0
 16 15  1  1
 15 14  1  0
 17 16  1  0
 18 20  1  0
 18 16  1  0
 19 18  2  0
 21 20  1  0
 21 22  1  1
 23 27  1  0
 23 22  1  0
 24 23  2  0
 25 21  1  0
 26 25  1  0
 28 25  2  0
M  END
$$$$
