HQD.pdb
     RDKit          3D

 28 28  0  0  1  0  0  0  0  0999 V2000
   25.9795  -35.1768   -7.9673 N   0  0  0  0  0  0  0  0  0  0  0  0
   26.1497  -34.1856   -6.9105 C   0  0  1  0  0  0  0  0  0  0  0  0
   24.7860  -33.5228   -6.6966 C   0  0  0  0  0  0  0  0  0  0  0  0
   24.4897  -32.5808   -7.8105 C   0  0  0  0  0  0  0  0  0  0  0  0
   24.1401  -32.8776   -9.0922 C   0  0  0  0  0  0  0  0  0  0  0  0
   23.9690  -31.7039   -9.7497 N   0  0  0  0  0  0  0  0  0  0  0  0
   24.2089  -30.6894   -8.8889 C   0  0  0  0  0  0  0  0  0  0  0  0
   24.5250  -31.2564   -7.7109 N   0  0  0  0  0  0  0  0  0  0  0  0
   26.4578  -34.8973   -5.6411 C   0  0  0  0  0  0  0  0  0  0  0  0
   25.7050  -35.8361   -5.3062 O   0  0  0  0  0  0  0  0  0  0  0  0
   31.9045  -34.6888   -1.3904 N   0  0  0  0  0  0  0  0  0  0  0  0
   31.3405  -35.7838   -2.1105 C   0  0  0  0  0  0  0  0  0  0  0  0
   32.1412  -36.5837   -2.6563 O   0  0  0  0  0  0  0  0  0  0  0  0
   29.8633  -35.9410   -2.1911 C   0  0  0  0  0  0  0  0  0  0  0  0
   29.3908  -35.2081   -3.4041 C   0  0  0  0  0  0  0  0  0  0  0  0
   27.9049  -35.2492   -3.6064 C   0  0  2  0  0  0  0  0  0  0  0  0
   27.5574  -34.5581   -4.8058 N   0  0  0  0  0  0  0  0  0  0  0  0
   27.1436  -34.7976   -2.4202 C   0  0  0  0  0  0  0  0  0  0  0  0
   27.0558  -33.5731   -2.1464 O   0  0  0  0  0  0  0  0  0  0  0  0
   26.4729  -35.6485   -1.5210 N   0  0  0  0  0  0  0  0  0  0  0  0
   25.8058  -35.2631   -0.3423 C   0  0  1  0  0  0  0  0  0  0  0  0
   24.5085  -35.8928   -0.0182 C   0  0  0  0  0  0  0  0  0  0  0  0
   23.3531  -34.9407   -0.1466 C   0  0  0  0  0  0  0  0  0  0  0  0
   23.5096  -33.7261   -0.4318 O   0  0  0  0  0  0  0  0  0  0  0  0
   26.7116  -35.4244    0.8273 C   0  0  0  0  0  0  0  0  0  0  0  0
   27.4334  -36.5984    0.9934 O   0  0  0  0  0  0  0  0  0  0  0  0
   22.0417  -35.3538    0.0442 O   0  0  0  0  0  0  0  0  0  0  0  0
   26.8754  -34.5404    1.7079 O   0  0  0  0  0  0  0  0  0  0  0  0
  2  9  1  0
  2  1  1  6
  3  4  1  0
  3  2  1  0
  4  8  1  0
  5  6  1  0
  5  4  2  0
  6  7  1  0
  7  8  2  0
  9 17  1  0
 10  9  2  0
 12 14  1  0
 12 11  1  0
 13 12  2  0
 16 15  1  1
 15 14  1  0
 17 16  1  0
 18 20  1  0
 18 16  1  0
 19 18  2  0
 21 20  1  0
 21 22  1  1
 23 27  1  0
 23 22  1  0
 24 23  2  0
 25 21  1  0
 26 25  1  0
 28 25  2  0
M  END
$$$$
