HQD.pdb
     RDKit          3D

 28 28  0  0  1  0  0  0  0  0999 V2000
   17.9275   -9.6830  -14.9228 N   0  0  0  0  0  0  0  0  0  0  0  0
   18.3590   -9.1440  -13.6376 C   0  0  1  0  0  0  0  0  0  0  0  0
   19.4859   -8.1485  -13.9271 C   0  0  0  0  0  0  0  0  0  0  0  0
   20.6772   -8.8600  -14.4661 C   0  0  0  0  0  0  0  0  0  0  0  0
   21.2966   -8.6744  -15.6639 C   0  0  0  0  0  0  0  0  0  0  0  0
   22.3360   -9.5435  -15.7237 N   0  0  0  0  0  0  0  0  0  0  0  0
   22.3635  -10.2610  -14.5782 C   0  0  0  0  0  0  0  0  0  0  0  0
   21.3371   -9.8209  -13.8286 N   0  0  0  0  0  0  0  0  0  0  0  0
   17.2457   -8.3405  -13.0650 C   0  0  0  0  0  0  0  0  0  0  0  0
   16.5348   -7.6882  -13.8583 O   0  0  0  0  0  0  0  0  0  0  0  0
   13.7865  -10.1579   -8.5966 N   0  0  0  0  0  0  0  0  0  0  0  0
   13.2210   -8.8544   -8.7255 C   0  0  0  0  0  0  0  0  0  0  0  0
   12.1521   -8.6298   -8.1042 O   0  0  0  0  0  0  0  0  0  0  0  0
   13.8948   -7.8295   -9.5675 C   0  0  0  0  0  0  0  0  0  0  0  0
   15.1425   -8.4387  -10.1187 C   0  0  0  0  0  0  0  0  0  0  0  0
   15.8708   -7.5666  -11.0981 C   0  0  2  0  0  0  0  0  0  0  0  0
   16.9618   -8.2853  -11.6728 N   0  0  0  0  0  0  0  0  0  0  0  0
   16.2573   -6.2543  -10.5333 C   0  0  0  0  0  0  0  0  0  0  0  0
   17.2193   -6.1645   -9.7279 O   0  0  0  0  0  0  0  0  0  0  0  0
   15.6209   -5.0325  -10.8241 N   0  0  0  0  0  0  0  0  0  0  0  0
   15.9897   -3.7609  -10.3447 C   0  0  1  0  0  0  0  0  0  0  0  0
   16.1557   -2.6547  -11.3108 C   0  0  0  0  0  0  0  0  0  0  0  0
   16.4399   -1.3388  -10.6432 C   0  0  0  0  0  0  0  0  0  0  0  0
   16.5925   -1.2335   -9.3995 O   0  0  0  0  0  0  0  0  0  0  0  0
   15.0378   -3.3230   -9.2880 C   0  0  0  0  0  0  0  0  0  0  0  0
   15.4401   -2.4114   -8.3216 O   0  0  0  0  0  0  0  0  0  0  0  0
   16.5498   -0.1606  -11.3688 O   0  0  0  0  0  0  0  0  0  0  0  0
   13.8516   -3.7353   -9.2056 O   0  0  0  0  0  0  0  0  0  0  0  0
  2  9  1  0
  2  1  1  6
  3  4  1  0
  3  2  1  0
  4  8  1  0
  5  6  1  0
  5  4  2  0
  6  7  1  0
  7  8  2  0
  9 17  1  0
 10  9  2  0
 12 14  1  0
 12 11  1  0
 13 12  2  0
 16 15  1  1
 15 14  1  0
 17 16  1  0
 18 20  1  0
 18 16  1  0
 19 18  2  0
 21 20  1  0
 21 22  1  6
 23 27  1  0
 23 22  1  0
 24 23  2  0
 25 21  1  0
 26 25  1  0
 28 25  2  0
M  END
$$$$
