HQD.pdb
     RDKit          3D

 28 28  0  0  1  0  0  0  0  0999 V2000
   26.3019  -21.5317  -15.3283 N   0  0  0  0  0  0  0  0  0  0  0  0
   25.7470  -20.2710  -14.8478 C   0  0  1  0  0  0  0  0  0  0  0  0
   26.1076  -19.2016  -15.8827 C   0  0  0  0  0  0  0  0  0  0  0  0
   27.5786  -18.9740  -15.8986 C   0  0  0  0  0  0  0  0  0  0  0  0
   28.4660  -19.2793  -16.8846 C   0  0  0  0  0  0  0  0  0  0  0  0
   29.6945  -18.8913  -16.4612 N   0  0  0  0  0  0  0  0  0  0  0  0
   29.5739  -18.3514  -15.2275 C   0  0  0  0  0  0  0  0  0  0  0  0
   28.2685  -18.4158  -14.9098 N   0  0  0  0  0  0  0  0  0  0  0  0
   24.2629  -20.3703  -14.8681 C   0  0  0  0  0  0  0  0  0  0  0  0
   23.7470  -21.1681  -15.6789 O   0  0  0  0  0  0  0  0  0  0  0  0
   20.3189  -18.8692  -10.2912 N   0  0  0  0  0  0  0  0  0  0  0  0
   20.8842  -20.1714  -10.4340 C   0  0  0  0  0  0  0  0  0  0  0  0
   20.7902  -20.9476   -9.4504 O   0  0  0  0  0  0  0  0  0  0  0  0
   21.5489  -20.5598  -11.7070 C   0  0  0  0  0  0  0  0  0  0  0  0
   21.4680  -19.3952  -12.6392 C   0  0  0  0  0  0  0  0  0  0  0  0
   21.9943  -19.6731  -14.0162 C   0  0  2  0  0  0  0  0  0  0  0  0
   23.4200  -19.6059  -14.0154 N   0  0  0  0  0  0  0  0  0  0  0  0
   21.3620  -18.8366  -15.0606 C   0  0  0  0  0  0  0  0  0  0  0  0
   21.5357  -17.5908  -15.0723 O   0  0  0  0  0  0  0  0  0  0  0  0
   20.5423  -19.3234  -16.0966 N   0  0  0  0  0  0  0  0  0  0  0  0
   19.9072  -18.5571  -17.0927 C   0  0  1  0  0  0  0  0  0  0  0  0
   19.5443  -19.2067  -18.3698 C   0  0  0  0  0  0  0  0  0  0  0  0
   18.9890  -18.2387  -19.3761 C   0  0  0  0  0  0  0  0  0  0  0  0
   18.8736  -17.0098  -19.1362 O   0  0  0  0  0  0  0  0  0  0  0  0
   18.6904  -17.9085  -16.5330 C   0  0  0  0  0  0  0  0  0  0  0  0
   18.4656  -16.5542  -16.7378 O   0  0  0  0  0  0  0  0  0  0  0  0
   18.5706  -18.6522  -20.6334 O   0  0  0  0  0  0  0  0  0  0  0  0
   17.8199  -18.5228  -15.8633 O   0  0  0  0  0  0  0  0  0  0  0  0
  2  9  1  0
  2  1  1  6
  3  4  1  0
  3  2  1  0
  4  8  1  0
  5  6  1  0
  5  4  2  0
  6  7  1  0
  7  8  2  0
  9 17  1  0
 10  9  2  0
 12 14  1  0
 12 11  1  0
 13 12  2  0
 16 15  1  1
 15 14  1  0
 17 16  1  0
 18 20  1  0
 18 16  1  0
 19 18  2  0
 21 20  1  0
 21 22  1  6
 23 27  1  0
 23 22  1  0
 24 23  2  0
 25 21  1  0
 26 25  1  0
 28 25  2  0
M  END
$$$$
