HQD.pdb
     RDKit          3D

 28 28  0  0  1  0  0  0  0  0999 V2000
   29.3341  -35.6625   -6.3987 N   0  0  0  0  0  0  0  0  0  0  0  0
   29.2154  -34.5476   -5.4653 C   0  0  1  0  0  0  0  0  0  0  0  0
   27.7207  -34.2553   -5.3072 C   0  0  0  0  0  0  0  0  0  0  0  0
   27.2391  -33.4067   -6.4315 C   0  0  0  0  0  0  0  0  0  0  0  0
   26.8378  -32.1066   -6.3916 C   0  0  0  0  0  0  0  0  0  0  0  0
   26.4853  -31.7504   -7.6517 N   0  0  0  0  0  0  0  0  0  0  0  0
   26.6648  -32.8147   -8.4659 C   0  0  0  0  0  0  0  0  0  0  0  0
   27.1265  -33.8128   -7.6915 N   0  0  0  0  0  0  0  0  0  0  0  0
   29.6833  -35.0001   -4.1277 C   0  0  0  0  0  0  0  0  0  0  0  0
   29.1284  -36.0016   -3.6284 O   0  0  0  0  0  0  0  0  0  0  0  0
   34.2051  -32.1416   -0.9357 N   0  0  0  0  0  0  0  0  0  0  0  0
   33.7601  -33.0447    0.0752 C   0  0  0  0  0  0  0  0  0  0  0  0
   34.3296  -32.9787    1.1933 O   0  0  0  0  0  0  0  0  0  0  0  0
   32.6662  -34.0099   -0.2167 C   0  0  0  0  0  0  0  0  0  0  0  0
   32.2508  -33.8141   -1.6383 C   0  0  0  0  0  0  0  0  0  0  0  0
   31.0720  -34.6440   -2.0533 C   0  0  2  0  0  0  0  0  0  0  0  0
   30.7206  -34.3494   -3.4049 N   0  0  0  0  0  0  0  0  0  0  0  0
   29.9343  -34.5508   -1.1113 C   0  0  0  0  0  0  0  0  0  0  0  0
   29.0016  -33.7320   -1.3160 O   0  0  0  0  0  0  0  0  0  0  0  0
   29.7854  -35.3292    0.0525 N   0  0  0  0  0  0  0  0  0  0  0  0
   28.7064  -35.2870    0.9563 C   0  0  1  0  0  0  0  0  0  0  0  0
   27.7097  -36.3780    0.9290 C   0  0  0  0  0  0  0  0  0  0  0  0
   26.6380  -36.2111    1.9689 C   0  0  0  0  0  0  0  0  0  0  0  0
   26.5997  -35.2217    2.7441 O   0  0  0  0  0  0  0  0  0  0  0  0
   29.2170  -35.1516    2.3474 C   0  0  0  0  0  0  0  0  0  0  0  0
   30.5836  -35.1162    2.5881 O   0  0  0  0  0  0  0  0  0  0  0  0
   25.6256  -37.1469    2.1310 O   0  0  0  0  0  0  0  0  0  0  0  0
   28.4709  -35.0639    3.3572 O   0  0  0  0  0  0  0  0  0  0  0  0
  2  9  1  0
  2  1  1  6
  3  4  1  0
  3  2  1  0
  4  8  1  0
  5  6  1  0
  5  4  2  0
  6  7  1  0
  7  8  2  0
  9 17  1  0
 10  9  2  0
 12 14  1  0
 12 11  1  0
 13 12  2  0
 16 15  1  1
 15 14  1  0
 17 16  1  0
 18 20  1  0
 18 16  1  0
 19 18  2  0
 21 20  1  0
 21 22  1  1
 23 27  1  0
 23 22  1  0
 24 23  2  0
 25 21  1  0
 26 25  1  0
 28 25  2  0
M  END
$$$$
