HQD.pdb
     RDKit          3D

 28 28  0  0  1  0  0  0  0  0999 V2000
   17.1208  -12.9644  -15.4077 N   0  0  0  0  0  0  0  0  0  0  0  0
   16.5765  -11.6704  -15.8046 C   0  0  1  0  0  0  0  0  0  0  0  0
   15.1862  -11.5583  -15.1727 C   0  0  0  0  0  0  0  0  0  0  0  0
   14.2589  -12.5476  -15.7869 C   0  0  0  0  0  0  0  0  0  0  0  0
   13.8341  -12.6126  -17.0785 C   0  0  0  0  0  0  0  0  0  0  0  0
   12.9995  -13.6767  -17.1796 N   0  0  0  0  0  0  0  0  0  0  0  0
   12.9056  -14.2668  -15.9668 C   0  0  0  0  0  0  0  0  0  0  0  0
   13.6866  -13.5542  -15.1353 N   0  0  0  0  0  0  0  0  0  0  0  0
   17.3954  -10.6004  -15.1743 C   0  0  0  0  0  0  0  0  0  0  0  0
   18.0960  -10.9124  -14.1884 O   0  0  0  0  0  0  0  0  0  0  0  0
   22.2059   -9.7010  -15.6505 N   0  0  0  0  0  0  0  0  0  0  0  0
   22.1049   -8.4129  -15.0452 C   0  0  0  0  0  0  0  0  0  0  0  0
   23.1787   -7.8468  -14.7207 O   0  0  0  0  0  0  0  0  0  0  0  0
   20.7693   -7.7966  -14.8228 C   0  0  0  0  0  0  0  0  0  0  0  0
   19.7353   -8.7546  -15.3177 C   0  0  0  0  0  0  0  0  0  0  0  0
   18.3259   -8.2569  -15.1900 C   0  0  2  0  0  0  0  0  0  0  0  0
   17.4133   -9.2573  -15.6410 N   0  0  0  0  0  0  0  0  0  0  0  0
   18.1162   -6.9351  -15.8219 C   0  0  0  0  0  0  0  0  0  0  0  0
   18.1435   -6.8145  -17.0737 O   0  0  0  0  0  0  0  0  0  0  0  0
   17.8765   -5.7364  -15.1231 N   0  0  0  0  0  0  0  0  0  0  0  0
   17.4387   -4.5176  -15.6760 C   0  0  1  0  0  0  0  0  0  0  0  0
   16.1435   -4.4810  -16.3870 C   0  0  0  0  0  0  0  0  0  0  0  0
   15.7916   -3.1064  -16.8816 C   0  0  0  0  0  0  0  0  0  0  0  0
   16.6286   -2.1687  -16.9178 O   0  0  0  0  0  0  0  0  0  0  0  0
   17.4295   -3.4612  -14.6280 C   0  0  0  0  0  0  0  0  0  0  0  0
   17.3388   -2.1235  -14.9874 O   0  0  0  0  0  0  0  0  0  0  0  0
   14.5145   -2.7957  -17.3283 O   0  0  0  0  0  0  0  0  0  0  0  0
   17.5006   -3.7033  -13.3951 O   0  0  0  0  0  0  0  0  0  0  0  0
  2  9  1  0
  2  1  1  1
  3  4  1  0
  3  2  1  0
  4  8  1  0
  5  6  1  0
  5  4  2  0
  6  7  1  0
  7  8  2  0
  9 17  1  0
 10  9  2  0
 12 14  1  0
 12 11  1  0
 13 12  2  0
 16 15  1  6
 15 14  1  0
 17 16  1  0
 18 20  1  0
 18 16  1  0
 19 18  2  0
 21 20  1  0
 21 22  1  1
 23 27  1  0
 23 22  1  0
 24 23  2  0
 25 21  1  0
 26 25  1  0
 28 25  2  0
M  END
$$$$
