HQD.pdb
     RDKit          3D

 28 28  0  0  1  0  0  0  0  0999 V2000
   17.3392  -15.8181    2.9026 N   0  0  0  0  0  0  0  0  0  0  0  0
   17.2264  -16.1354    4.3221 C   0  0  1  0  0  0  0  0  0  0  0  0
   17.2040  -17.6622    4.4375 C   0  0  0  0  0  0  0  0  0  0  0  0
   15.9028  -18.1974    3.9512 C   0  0  0  0  0  0  0  0  0  0  0  0
   14.7317  -17.5268    3.7730 C   0  0  0  0  0  0  0  0  0  0  0  0
   13.8178  -18.4181    3.3152 N   0  0  0  0  0  0  0  0  0  0  0  0
   14.4120  -19.6280    3.2097 C   0  0  0  0  0  0  0  0  0  0  0  0
   15.6867  -19.4619    3.6055 N   0  0  0  0  0  0  0  0  0  0  0  0
   18.4730  -15.6959    5.0045 C   0  0  0  0  0  0  0  0  0  0  0  0
   19.5580  -15.9143    4.4254 O   0  0  0  0  0  0  0  0  0  0  0  0
   19.1814  -10.5986    8.1042 N   0  0  0  0  0  0  0  0  0  0  0  0
   20.2854  -10.8457    7.2349 C   0  0  0  0  0  0  0  0  0  0  0  0
   21.0050   -9.8622    6.9290 O   0  0  0  0  0  0  0  0  0  0  0  0
   20.5438  -12.2215    6.7310 C   0  0  0  0  0  0  0  0  0  0  0  0
   19.4814  -13.1168    7.2801 C   0  0  0  0  0  0  0  0  0  0  0  0
   19.6532  -14.5638    6.9238 C   0  0  2  0  0  0  0  0  0  0  0  0
   18.4803  -15.0470    6.2697 N   0  0  0  0  0  0  0  0  0  0  0  0
   20.0795  -15.3984    8.0693 C   0  0  0  0  0  0  0  0  0  0  0  0
   19.2281  -16.0046    8.7691 O   0  0  0  0  0  0  0  0  0  0  0  0
   21.4143  -15.5907    8.4740 N   0  0  0  0  0  0  0  0  0  0  0  0
   21.8577  -16.3858    9.5482 C   0  0  1  0  0  0  0  0  0  0  0  0
   22.8110  -17.4826    9.2782 C   0  0  0  0  0  0  0  0  0  0  0  0
   22.5013  -18.7267   10.0618 C   0  0  0  0  0  0  0  0  0  0  0  0
   21.5456  -18.7893   10.8766 O   0  0  0  0  0  0  0  0  0  0  0  0
   22.4273  -15.5206   10.6165 C   0  0  0  0  0  0  0  0  0  0  0  0
   22.6525  -16.0365   11.8854 O   0  0  0  0  0  0  0  0  0  0  0  0
   23.2590  -19.8820    9.9274 O   0  0  0  0  0  0  0  0  0  0  0  0
   22.7301  -14.3111   10.4451 O   0  0  0  0  0  0  0  0  0  0  0  0
  2  9  1  0
  2  1  1  6
  3  4  1  0
  3  2  1  0
  4  8  1  0
  5  6  1  0
  5  4  2  0
  6  7  1  0
  7  8  2  0
  9 17  1  0
 10  9  2  0
 12 14  1  0
 12 11  1  0
 13 12  2  0
 16 15  1  1
 15 14  1  0
 17 16  1  0
 18 20  1  0
 18 16  1  0
 19 18  2  0
 21 20  1  0
 21 22  1  6
 23 27  1  0
 23 22  1  0
 24 23  2  0
 25 21  1  0
 26 25  1  0
 28 25  2  0
M  END
$$$$
