HQD.pdb
     RDKit          3D

 28 28  0  0  1  0  0  0  0  0999 V2000
   24.6782  -12.1904  -18.2303 N   0  0  0  0  0  0  0  0  0  0  0  0
   24.6490  -11.4640  -16.9655 C   0  0  1  0  0  0  0  0  0  0  0  0
   26.0038  -10.7653  -16.8209 C   0  0  0  0  0  0  0  0  0  0  0  0
   27.0766  -11.7665  -16.5701 C   0  0  0  0  0  0  0  0  0  0  0  0
   26.9578  -13.1188  -16.4698 C   0  0  0  0  0  0  0  0  0  0  0  0
   28.1963  -13.6202  -16.2376 N   0  0  0  0  0  0  0  0  0  0  0  0
   29.0750  -12.5935  -16.1938 C   0  0  0  0  0  0  0  0  0  0  0  0
   28.3611  -11.4725  -16.4005 N   0  0  0  0  0  0  0  0  0  0  0  0
   23.6408  -10.3752  -17.0697 C   0  0  0  0  0  0  0  0  0  0  0  0
   23.4550   -9.8638  -18.1940 O   0  0  0  0  0  0  0  0  0  0  0  0
   18.2188  -10.8338  -15.2907 N   0  0  0  0  0  0  0  0  0  0  0  0
   18.1314   -9.4285  -15.5213 C   0  0  0  0  0  0  0  0  0  0  0  0
   16.9832   -8.9181  -15.5194 O   0  0  0  0  0  0  0  0  0  0  0  0
   19.3672   -8.6326  -15.7505 C   0  0  0  0  0  0  0  0  0  0  0  0
   20.5295   -9.5701  -15.7084 C   0  0  0  0  0  0  0  0  0  0  0  0
   21.8452   -8.9323  -16.0439 C   0  0  2  0  0  0  0  0  0  0  0  0
   22.8911   -9.8998  -15.9589 N   0  0  0  0  0  0  0  0  0  0  0  0
   22.1109   -7.7022  -15.2650 C   0  0  0  0  0  0  0  0  0  0  0  0
   22.6091   -7.7719  -14.1121 O   0  0  0  0  0  0  0  0  0  0  0  0
   21.8471   -6.3930  -15.7108 N   0  0  0  0  0  0  0  0  0  0  0  0
   21.9707   -5.2103  -14.9567 C   0  0  1  0  0  0  0  0  0  0  0  0
   21.9153   -3.9092  -15.6557 C   0  0  0  0  0  0  0  0  0  0  0  0
   22.1052   -2.7431  -14.7274 C   0  0  0  0  0  0  0  0  0  0  0  0
   22.3212   -2.8894  -13.4973 O   0  0  0  0  0  0  0  0  0  0  0  0
   20.9611   -5.1997  -13.8635 C   0  0  0  0  0  0  0  0  0  0  0  0
   21.3689   -5.1251  -12.5387 O   0  0  0  0  0  0  0  0  0  0  0  0
   22.0521   -1.4322  -15.1811 O   0  0  0  0  0  0  0  0  0  0  0  0
   19.7196   -5.2556  -14.0620 O   0  0  0  0  0  0  0  0  0  0  0  0
  2  9  1  0
  2  1  1  6
  3  4  1  0
  3  2  1  0
  4  8  1  0
  5  6  1  0
  5  4  2  0
  6  7  1  0
  7  8  2  0
  9 17  1  0
 10  9  2  0
 12 14  1  0
 12 11  1  0
 13 12  2  0
 16 15  1  1
 15 14  1  0
 17 16  1  0
 18 20  1  0
 18 16  1  0
 19 18  2  0
 21 20  1  0
 21 22  1  6
 23 27  1  0
 23 22  1  0
 24 23  2  0
 25 21  1  0
 26 25  1  0
 28 25  2  0
M  END
$$$$
