HQD.pdb
     RDKit          3D

 28 28  0  0  1  0  0  0  0  0999 V2000
   22.9615  -13.4711  -16.3033 N   0  0  0  0  0  0  0  0  0  0  0  0
   23.5643  -12.2388  -15.8068 C   0  0  1  0  0  0  0  0  0  0  0  0
   24.8841  -12.0526  -16.5605 C   0  0  0  0  0  0  0  0  0  0  0  0
   25.8474  -13.1242  -16.1869 C   0  0  0  0  0  0  0  0  0  0  0  0
   25.6625  -14.1554  -15.3178 C   0  0  0  0  0  0  0  0  0  0  0  0
   26.8096  -14.8783  -15.2938 N   0  0  0  0  0  0  0  0  0  0  0  0
   27.6975  -14.3049  -16.1369 C   0  0  0  0  0  0  0  0  0  0  0  0
   27.0808  -13.2343  -16.6685 N   0  0  0  0  0  0  0  0  0  0  0  0
   22.7023  -11.0957  -16.2106 C   0  0  0  0  0  0  0  0  0  0  0  0
   21.9138  -11.2731  -17.1629 O   0  0  0  0  0  0  0  0  0  0  0  0
   18.0316  -10.5221  -15.5133 N   0  0  0  0  0  0  0  0  0  0  0  0
   18.0262   -9.0977  -15.5952 C   0  0  0  0  0  0  0  0  0  0  0  0
   16.9169   -8.5390  -15.7850 O   0  0  0  0  0  0  0  0  0  0  0  0
   19.2982   -8.3385  -15.4574 C   0  0  0  0  0  0  0  0  0  0  0  0
   20.4078   -9.3279  -15.3103 C   0  0  0  0  0  0  0  0  0  0  0  0
   21.7517   -8.8102  -15.7300 C   0  0  2  0  0  0  0  0  0  0  0  0
   22.7386   -9.8283  -15.5669 N   0  0  0  0  0  0  0  0  0  0  0  0
   22.1097   -7.5285  -15.0823 C   0  0  0  0  0  0  0  0  0  0  0  0
   22.4527   -7.4987  -13.8725 O   0  0  0  0  0  0  0  0  0  0  0  0
   22.1038   -6.2734  -15.7205 N   0  0  0  0  0  0  0  0  0  0  0  0
   22.4948   -5.0444  -15.1554 C   0  0  1  0  0  0  0  0  0  0  0  0
   22.6023   -3.8585  -16.0310 C   0  0  0  0  0  0  0  0  0  0  0  0
   23.6025   -4.0425  -17.1372 C   0  0  0  0  0  0  0  0  0  0  0  0
   24.4551   -4.9667  -17.1276 O   0  0  0  0  0  0  0  0  0  0  0  0
   21.6026   -4.7061  -14.0135 C   0  0  0  0  0  0  0  0  0  0  0  0
   21.9393   -3.6749  -13.1474 O   0  0  0  0  0  0  0  0  0  0  0  0
   23.6391   -3.1962  -18.2369 O   0  0  0  0  0  0  0  0  0  0  0  0
   20.5260   -5.3101  -13.7687 O   0  0  0  0  0  0  0  0  0  0  0  0
  2  9  1  0
  2  1  1  6
  3  4  1  0
  3  2  1  0
  4  8  1  0
  5  6  1  0
  5  4  2  0
  6  7  1  0
  7  8  2  0
  9 17  1  0
 10  9  2  0
 12 14  1  0
 12 11  1  0
 13 12  2  0
 16 15  1  1
 15 14  1  0
 17 16  1  0
 18 20  1  0
 18 16  1  0
 19 18  2  0
 21 20  1  0
 21 22  1  6
 23 27  1  0
 23 22  1  0
 24 23  2  0
 25 21  1  0
 26 25  1  0
 28 25  2  0
M  END
$$$$
