HQD.pdb
     RDKit          3D

 28 28  0  0  1  0  0  0  0  0999 V2000
   25.4774  -21.9136  -16.9602 N   0  0  0  0  0  0  0  0  0  0  0  0
   25.4751  -22.0373  -15.5066 C   0  0  1  0  0  0  0  0  0  0  0  0
   26.9377  -22.1420  -15.0655 C   0  0  0  0  0  0  0  0  0  0  0  0
   27.6056  -23.2778  -15.7583 C   0  0  0  0  0  0  0  0  0  0  0  0
   27.2652  -24.5956  -15.7327 C   0  0  0  0  0  0  0  0  0  0  0  0
   28.1553  -25.2611  -16.5097 N   0  0  0  0  0  0  0  0  0  0  0  0
   29.0385  -24.3696  -17.0129 C   0  0  0  0  0  0  0  0  0  0  0  0
   28.6770  -23.1651  -16.5359 N   0  0  0  0  0  0  0  0  0  0  0  0
   24.9669  -20.7657  -14.9255 C   0  0  0  0  0  0  0  0  0  0  0  0
   25.2810  -20.5019  -13.7458 O   0  0  0  0  0  0  0  0  0  0  0  0
   24.9313  -15.9650  -17.8935 N   0  0  0  0  0  0  0  0  0  0  0  0
   25.9309  -16.4144  -16.9800 C   0  0  0  0  0  0  0  0  0  0  0  0
   27.1139  -16.0541  -17.2026 O   0  0  0  0  0  0  0  0  0  0  0  0
   25.5531  -17.2716  -15.8242 C   0  0  0  0  0  0  0  0  0  0  0  0
   24.0723  -17.4654  -15.8632 C   0  0  0  0  0  0  0  0  0  0  0  0
   23.5891  -18.6608  -15.0964 C   0  0  2  0  0  0  0  0  0  0  0  0
   24.1504  -19.8520  -15.6469 N   0  0  0  0  0  0  0  0  0  0  0  0
   22.1162  -18.7078  -14.9597 C   0  0  0  0  0  0  0  0  0  0  0  0
   21.5016  -17.7910  -14.3565 O   0  0  0  0  0  0  0  0  0  0  0  0
   21.2919  -19.7315  -15.4650 N   0  0  0  0  0  0  0  0  0  0  0  0
   19.8968  -19.8385  -15.3067 C   0  0  1  0  0  0  0  0  0  0  0  0
   19.0228  -19.5393  -16.4604 C   0  0  0  0  0  0  0  0  0  0  0  0
   18.9520  -18.0705  -16.7693 C   0  0  0  0  0  0  0  0  0  0  0  0
   19.0737  -17.1887  -15.8812 O   0  0  0  0  0  0  0  0  0  0  0  0
   19.5486  -21.1904  -14.7914 C   0  0  0  0  0  0  0  0  0  0  0  0
   20.4874  -22.2124  -14.8248 O   0  0  0  0  0  0  0  0  0  0  0  0
   18.7470  -17.6050  -18.0609 O   0  0  0  0  0  0  0  0  0  0  0  0
   18.4231  -21.4833  -14.3104 O   0  0  0  0  0  0  0  0  0  0  0  0
  2  9  1  0
  2  1  1  6
  3  4  1  0
  3  2  1  0
  4  8  1  0
  5  6  1  0
  5  4  2  0
  6  7  1  0
  7  8  2  0
  9 17  1  0
 10  9  2  0
 12 14  1  0
 12 11  1  0
 13 12  2  0
 16 15  1  6
 15 14  1  0
 17 16  1  0
 18 20  1  0
 18 16  1  0
 19 18  2  0
 21 20  1  0
 21 22  1  6
 23 27  1  0
 23 22  1  0
 24 23  2  0
 25 21  1  0
 26 25  1  0
 28 25  2  0
M  END
$$$$
