HQD.pdb
     RDKit          3D

 28 28  0  0  1  0  0  0  0  0999 V2000
   18.8850  -13.7931  -16.8971 N   0  0  0  0  0  0  0  0  0  0  0  0
   18.3046  -12.4715  -16.6856 C   0  0  1  0  0  0  0  0  0  0  0  0
   17.9572  -12.3697  -15.1977 C   0  0  0  0  0  0  0  0  0  0  0  0
   16.7376  -13.1684  -14.8968 C   0  0  0  0  0  0  0  0  0  0  0  0
   15.6453  -13.3644  -15.6849 C   0  0  0  0  0  0  0  0  0  0  0  0
   14.7863  -14.1594  -14.9999 N   0  0  0  0  0  0  0  0  0  0  0  0
   15.3364  -14.4547  -13.8007 C   0  0  0  0  0  0  0  0  0  0  0  0
   16.5296  -13.8347  -13.7663 N   0  0  0  0  0  0  0  0  0  0  0  0
   19.3582  -11.4493  -16.9264 C   0  0  0  0  0  0  0  0  0  0  0  0
   20.4981  -11.6734  -16.4675 O   0  0  0  0  0  0  0  0  0  0  0  0
   19.5824   -7.4793  -21.6011 N   0  0  0  0  0  0  0  0  0  0  0  0
   20.1754   -8.7770  -21.6112 C   0  0  0  0  0  0  0  0  0  0  0  0
   20.4504   -9.2723  -22.7327 O   0  0  0  0  0  0  0  0  0  0  0  0
   20.4427   -9.4843  -20.3299 C   0  0  0  0  0  0  0  0  0  0  0  0
   19.9331   -8.6258  -19.2186 C   0  0  0  0  0  0  0  0  0  0  0  0
   20.1005   -9.2250  -17.8536 C   0  0  2  0  0  0  0  0  0  0  0  0
   19.1247  -10.2458  -17.6468 N   0  0  0  0  0  0  0  0  0  0  0  0
   20.1375   -8.2129  -16.7744 C   0  0  0  0  0  0  0  0  0  0  0  0
   19.0894   -7.9078  -16.1493 O   0  0  0  0  0  0  0  0  0  0  0  0
   21.2907   -7.5216  -16.3566 N   0  0  0  0  0  0  0  0  0  0  0  0
   21.3757   -6.5965  -15.2983 C   0  0  1  0  0  0  0  0  0  0  0  0
   22.3642   -6.8296  -14.2245 C   0  0  0  0  0  0  0  0  0  0  0  0
   22.3834   -5.7268  -13.2040 C   0  0  0  0  0  0  0  0  0  0  0  0
   21.4579   -5.5664  -12.3680 O   0  0  0  0  0  0  0  0  0  0  0  0
   21.5844   -5.2263  -15.8399 C   0  0  0  0  0  0  0  0  0  0  0  0
   21.0133   -4.1315  -15.2057 O   0  0  0  0  0  0  0  0  0  0  0  0
   23.4312   -4.8194  -13.1290 O   0  0  0  0  0  0  0  0  0  0  0  0
   22.2662   -4.9810  -16.8688 O   0  0  0  0  0  0  0  0  0  0  0  0
  2  9  1  0
  2  1  1  1
  3  4  1  0
  3  2  1  0
  4  8  1  0
  5  6  1  0
  5  4  2  0
  6  7  1  0
  7  8  2  0
  9 17  1  0
 10  9  2  0
 12 14  1  0
 12 11  1  0
 13 12  2  0
 16 15  1  6
 15 14  1  0
 17 16  1  0
 18 20  1  0
 18 16  1  0
 19 18  2  0
 21 20  1  0
 21 22  1  1
 23 27  1  0
 23 22  1  0
 24 23  2  0
 25 21  1  0
 26 25  1  0
 28 25  2  0
M  END
$$$$
