HQD.pdb
     RDKit          3D

 28 28  0  0  1  0  0  0  0  0999 V2000
   21.0319  -13.5408  -16.7357 N   0  0  0  0  0  0  0  0  0  0  0  0
   20.5646  -12.1606  -16.8082 C   0  0  1  0  0  0  0  0  0  0  0  0
   19.1399  -12.1420  -16.2473 C   0  0  0  0  0  0  0  0  0  0  0  0
   18.2118  -12.8482  -17.1723 C   0  0  0  0  0  0  0  0  0  0  0  0
   18.5044  -13.4569  -18.3542 C   0  0  0  0  0  0  0  0  0  0  0  0
   17.3480  -13.9651  -18.8477 N   0  0  0  0  0  0  0  0  0  0  0  0
   16.3482  -13.6768  -17.9845 C   0  0  0  0  0  0  0  0  0  0  0  0
   16.9068  -12.9932  -16.9697 N   0  0  0  0  0  0  0  0  0  0  0  0
   21.3785  -11.3371  -15.8743 C   0  0  0  0  0  0  0  0  0  0  0  0
   21.8522  -11.9024  -14.8662 O   0  0  0  0  0  0  0  0  0  0  0  0
   26.3529  -10.5473  -14.9496 N   0  0  0  0  0  0  0  0  0  0  0  0
   25.9003  -10.2626  -16.2724 C   0  0  0  0  0  0  0  0  0  0  0  0
   26.7169  -10.4471  -17.2094 O   0  0  0  0  0  0  0  0  0  0  0  0
   24.5145   -9.7698  -16.4959 C   0  0  0  0  0  0  0  0  0  0  0  0
   23.8374   -9.6899  -15.1667 C   0  0  0  0  0  0  0  0  0  0  0  0
   22.4406   -9.1455  -15.2208 C   0  0  2  0  0  0  0  0  0  0  0  0
   21.6357   -9.9537  -16.0788 N   0  0  0  0  0  0  0  0  0  0  0  0
   22.3908   -7.7027  -15.5471 C   0  0  0  0  0  0  0  0  0  0  0  0
   22.3942   -7.3187  -16.7449 O   0  0  0  0  0  0  0  0  0  0  0  0
   22.3370   -6.6632  -14.5989 N   0  0  0  0  0  0  0  0  0  0  0  0
   21.7678   -5.3887  -14.7844 C   0  0  1  0  0  0  0  0  0  0  0  0
   20.2971   -5.2696  -14.8694 C   0  0  0  0  0  0  0  0  0  0  0  0
   19.8410   -3.8543  -15.0859 C   0  0  0  0  0  0  0  0  0  0  0  0
   20.5202   -3.0197  -15.7364 O   0  0  0  0  0  0  0  0  0  0  0  0
   22.2544   -4.4590  -13.7293 C   0  0  0  0  0  0  0  0  0  0  0  0
   22.1662   -3.0862  -13.9151 O   0  0  0  0  0  0  0  0  0  0  0  0
   18.6368   -3.3890  -14.5758 O   0  0  0  0  0  0  0  0  0  0  0  0
   22.7582   -4.8428  -12.6418 O   0  0  0  0  0  0  0  0  0  0  0  0
  2  9  1  0
  2  1  1  1
  3  4  1  0
  3  2  1  0
  4  8  1  0
  5  6  1  0
  5  4  2  0
  6  7  1  0
  7  8  2  0
  9 17  1  0
 10  9  2  0
 12 14  1  0
 12 11  1  0
 13 12  2  0
 16 15  1  6
 15 14  1  0
 17 16  1  0
 18 20  1  0
 18 16  1  0
 19 18  2  0
 21 20  1  0
 21 22  1  1
 23 27  1  0
 23 22  1  0
 24 23  2  0
 25 21  1  0
 26 25  1  0
 28 25  2  0
M  END
$$$$
