HQD.pdb
     RDKit          3D

 28 28  0  0  1  0  0  0  0  0999 V2000
   27.6830  -20.7075  -15.7351 N   0  0  0  0  0  0  0  0  0  0  0  0
   26.8385  -19.7343  -15.0510 C   0  0  1  0  0  0  0  0  0  0  0  0
   26.2522  -18.8171  -16.1279 C   0  0  0  0  0  0  0  0  0  0  0  0
   27.3082  -17.9204  -16.6727 C   0  0  0  0  0  0  0  0  0  0  0  0
   27.7631  -16.7462  -16.1558 C   0  0  0  0  0  0  0  0  0  0  0  0
   28.7265  -16.2807  -16.9890 N   0  0  0  0  0  0  0  0  0  0  0  0
   28.8698  -17.1534  -18.0115 C   0  0  0  0  0  0  0  0  0  0  0  0
   27.9893  -18.1460  -17.7910 N   0  0  0  0  0  0  0  0  0  0  0  0
   25.6795  -20.4516  -14.4549 C   0  0  0  0  0  0  0  0  0  0  0  0
   25.0250  -21.2127  -15.1983 O   0  0  0  0  0  0  0  0  0  0  0  0
   26.2514  -19.3660  -10.0352 N   0  0  0  0  0  0  0  0  0  0  0  0
   26.6049  -20.7481  -10.0585 C   0  0  0  0  0  0  0  0  0  0  0  0
   27.7619  -21.0500   -9.6724 O   0  0  0  0  0  0  0  0  0  0  0  0
   25.6208  -21.7612  -10.5259 C   0  0  0  0  0  0  0  0  0  0  0  0
   24.4011  -21.0341  -10.9899 C   0  0  0  0  0  0  0  0  0  0  0  0
   24.2213  -21.0245  -12.4792 C   0  0  2  0  0  0  0  0  0  0  0  0
   25.2919  -20.3086  -13.0944 N   0  0  0  0  0  0  0  0  0  0  0  0
   22.8799  -20.5622  -12.9003 C   0  0  0  0  0  0  0  0  0  0  0  0
   22.5980  -19.3364  -12.8999 O   0  0  0  0  0  0  0  0  0  0  0  0
   21.8334  -21.4037  -13.3236 N   0  0  0  0  0  0  0  0  0  0  0  0
   20.5772  -20.9970  -13.8129 C   0  0  1  0  0  0  0  0  0  0  0  0
   20.1263  -21.5006  -15.1273 C   0  0  0  0  0  0  0  0  0  0  0  0
   20.8076  -20.8133  -16.2769 C   0  0  0  0  0  0  0  0  0  0  0  0
   21.3569  -19.6883  -16.1593 O   0  0  0  0  0  0  0  0  0  0  0  0
   19.5217  -21.2967  -12.8077 C   0  0  0  0  0  0  0  0  0  0  0  0
   18.2972  -20.6456  -12.8673 O   0  0  0  0  0  0  0  0  0  0  0  0
   20.8674  -21.3874  -17.5393 O   0  0  0  0  0  0  0  0  0  0  0  0
   19.6657  -22.1283  -11.8741 O   0  0  0  0  0  0  0  0  0  0  0  0
  2  9  1  0
  2  1  1  6
  3  4  1  0
  3  2  1  0
  4  8  1  0
  5  6  1  0
  5  4  2  0
  6  7  1  0
  7  8  2  0
  9 17  1  0
 10  9  2  0
 12 14  1  0
 12 11  1  0
 13 12  2  0
 16 15  1  1
 15 14  1  0
 17 16  1  0
 18 20  1  0
 18 16  1  0
 19 18  2  0
 21 20  1  0
 21 22  1  6
 23 27  1  0
 23 22  1  0
 24 23  2  0
 25 21  1  0
 26 25  1  0
 28 25  2  0
M  END
$$$$
