HQD.pdb
     RDKit          3D

 28 28  0  0  1  0  0  0  0  0999 V2000
   21.4462  -13.3386  -16.9522 N   0  0  0  0  0  0  0  0  0  0  0  0
   20.7983  -12.0464  -16.7555 C   0  0  1  0  0  0  0  0  0  0  0  0
   19.5036  -12.3096  -15.9815 C   0  0  0  0  0  0  0  0  0  0  0  0
   18.5367  -13.0564  -16.8320 C   0  0  0  0  0  0  0  0  0  0  0  0
   18.0841  -14.3300  -16.6709 C   0  0  0  0  0  0  0  0  0  0  0  0
   17.2180  -14.5854  -17.6827 N   0  0  0  0  0  0  0  0  0  0  0  0
   17.1322  -13.4852  -18.4638 C   0  0  0  0  0  0  0  0  0  0  0  0
   17.9497  -12.5667  -17.9187 N   0  0  0  0  0  0  0  0  0  0  0  0
   21.6492  -11.2242  -15.8540 C   0  0  0  0  0  0  0  0  0  0  0  0
   22.2413  -11.8099  -14.9232 O   0  0  0  0  0  0  0  0  0  0  0  0
   26.5109  -10.4648  -14.7829 N   0  0  0  0  0  0  0  0  0  0  0  0
   26.1046  -10.1595  -16.1160 C   0  0  0  0  0  0  0  0  0  0  0  0
   26.9585  -10.3143  -17.0247 O   0  0  0  0  0  0  0  0  0  0  0  0
   24.7214   -9.6808  -16.3825 C   0  0  0  0  0  0  0  0  0  0  0  0
   24.0099   -9.5859  -15.0724 C   0  0  0  0  0  0  0  0  0  0  0  0
   22.6295   -9.0058  -15.1640 C   0  0  2  0  0  0  0  0  0  0  0  0
   21.8139   -9.8200  -16.0059 N   0  0  0  0  0  0  0  0  0  0  0  0
   22.6238   -7.5739  -15.5383 C   0  0  0  0  0  0  0  0  0  0  0  0
   22.8992   -7.2204  -16.7136 O   0  0  0  0  0  0  0  0  0  0  0  0
   22.3249   -6.5128  -14.6623 N   0  0  0  0  0  0  0  0  0  0  0  0
   21.9017   -5.2200  -15.0262 C   0  0  1  0  0  0  0  0  0  0  0  0
   20.7357   -4.6302  -14.3354 C   0  0  0  0  0  0  0  0  0  0  0  0
   20.3626   -3.2791  -14.8771 C   0  0  0  0  0  0  0  0  0  0  0  0
   20.1327   -3.0827  -16.0976 O   0  0  0  0  0  0  0  0  0  0  0  0
   23.0402   -4.2675  -14.9233 C   0  0  0  0  0  0  0  0  0  0  0  0
   24.2801   -4.7081  -14.4811 O   0  0  0  0  0  0  0  0  0  0  0  0
   20.2510   -2.1675  -14.0533 O   0  0  0  0  0  0  0  0  0  0  0  0
   22.9557   -3.0472  -15.2192 O   0  0  0  0  0  0  0  0  0  0  0  0
  2  9  1  0
  2  1  1  1
  3  4  1  0
  3  2  1  0
  4  8  1  0
  5  6  1  0
  5  4  2  0
  6  7  1  0
  7  8  2  0
  9 17  1  0
 10  9  2  0
 12 14  1  0
 12 11  1  0
 13 12  2  0
 16 15  1  6
 15 14  1  0
 17 16  1  0
 18 20  1  0
 18 16  1  0
 19 18  2  0
 21 20  1  0
 21 22  1  1
 23 27  1  0
 23 22  1  0
 24 23  2  0
 25 21  1  0
 26 25  1  0
 28 25  2  0
M  END
$$$$
