IHI.pdb
     RDKit          3D

 27 27  0  0  1  0  0  0  0  0999 V2000
   28.3246  -12.3350  -16.1045 C   0  0  0  0  0  0  0  0  0  0  0  0
   26.9034  -12.9043  -16.0839 C   0  0  0  0  0  0  0  0  0  0  0  0
   25.8935  -11.8076  -16.2576 C   0  0  2  0  0  0  0  0  0  0  0  0
   26.0953  -10.7029  -15.2412 C   0  0  0  0  0  0  0  0  0  0  0  0
   24.4719  -12.2365  -16.3782 C   0  0  2  0  0  0  0  0  0  0  0  0
   24.3971  -13.2312  -17.4736 N   0  0  0  0  0  0  0  0  0  0  0  0
   23.5215  -11.1469  -16.7426 C   0  0  0  0  0  0  0  0  0  0  0  0
   23.6099  -10.6952  -17.9108 O   0  0  0  0  0  0  0  0  0  0  0  0
   22.5509  -10.5987  -15.8926 N   0  0  0  0  0  0  0  0  0  0  0  0
   21.6201   -9.5488  -16.0876 C   0  0  1  0  0  0  0  0  0  0  0  0
   20.1570   -9.8988  -15.9337 C   0  0  0  0  0  0  0  0  0  0  0  0
   19.6545  -10.8798  -16.8870 C   0  0  0  0  0  0  0  0  0  0  0  0
   20.3926  -11.3952  -17.9227 C   0  0  0  0  0  0  0  0  0  0  0  0
   19.6301  -12.2732  -18.6088 N   0  0  0  0  0  0  0  0  0  0  0  0
   18.4247  -12.3137  -18.0158 C   0  0  0  0  0  0  0  0  0  0  0  0
   18.4498  -11.4559  -16.9611 N   0  0  0  0  0  0  0  0  0  0  0  0
   21.9041   -8.2845  -15.4100 C   0  0  0  0  0  0  0  0  0  0  0  0
   22.1556   -8.3011  -14.1509 O   0  0  0  0  0  0  0  0  0  0  0  0
   25.4501   -5.1592  -17.1049 C   0  0  0  0  0  0  0  0  0  0  0  0
   24.3963   -5.8434  -16.2799 C   0  0  0  0  0  0  0  0  0  0  0  0
   23.1578   -4.9898  -16.1194 C   0  0  2  0  0  0  0  0  0  0  0  0
   23.4627   -3.6634  -15.4794 C   0  0  0  0  0  0  0  0  0  0  0  0
   22.1551   -5.7898  -15.2990 C   0  0  2  0  0  0  0  0  0  0  0  0
   21.9266   -7.0248  -16.0338 N   0  0  0  0  0  0  0  0  0  0  0  0
   20.9116   -5.0432  -15.0851 C   0  0  0  0  0  0  0  0  0  0  0  0
   20.9096   -4.1207  -14.2352 O   0  0  0  0  0  0  0  0  0  0  0  0
   19.7556   -5.3219  -15.7836 O   0  0  0  0  0  0  0  0  0  0  0  0
  1  2  1  0
  2  3  1  0
  3  5  1  0
  3  4  1  1
  5  6  1  6
  7  5  1  0
  8  7  2  0
  9  7  1  0
 10 11  1  1
 10  9  1  0
 11 12  1  0
 12 16  1  0
 13 12  2  0
 13 14  1  0
 14 15  1  0
 16 15  2  0
 17 24  1  0
 17 10  1  0
 18 17  2  0
 20 19  1  0
 20 21  1  0
 21 22  1  1
 23 21  1  0
 23 24  1  6
 25 23  1  0
 25 27  1  0
 26 25  2  0
M  END
$$$$
