IHI.pdb
     RDKit          3D

 27 27  0  0  1  0  0  0  0  0999 V2000
   22.0665  -21.8527  -20.0133 C   0  0  0  0  0  0  0  0  0  0  0  0
   21.6989  -21.6802  -18.5370 C   0  0  0  0  0  0  0  0  0  0  0  0
   22.9350  -21.6467  -17.6862 C   0  0  2  0  0  0  0  0  0  0  0  0
   23.8576  -22.8052  -18.0039 C   0  0  0  0  0  0  0  0  0  0  0  0
   22.7216  -21.4551  -16.2243 C   0  0  2  0  0  0  0  0  0  0  0  0
   21.9209  -20.2211  -16.0480 N   0  0  0  0  0  0  0  0  0  0  0  0
   23.9699  -21.2554  -15.4336 C   0  0  0  0  0  0  0  0  0  0  0  0
   24.7542  -22.2339  -15.3701 O   0  0  0  0  0  0  0  0  0  0  0  0
   24.3286  -20.0752  -14.7676 N   0  0  0  0  0  0  0  0  0  0  0  0
   25.4578  -19.7526  -13.9755 C   0  0  1  0  0  0  0  0  0  0  0  0
   25.8463  -18.2928  -13.9065 C   0  0  0  0  0  0  0  0  0  0  0  0
   26.3968  -17.7428  -15.1385 C   0  0  0  0  0  0  0  0  0  0  0  0
   26.6263  -18.4774  -16.2747 C   0  0  0  0  0  0  0  0  0  0  0  0
   27.1375  -17.6655  -17.2247 N   0  0  0  0  0  0  0  0  0  0  0  0
   27.2310  -16.4328  -16.6977 C   0  0  0  0  0  0  0  0  0  0  0  0
   26.7743  -16.4906  -15.4182 N   0  0  0  0  0  0  0  0  0  0  0  0
   25.5161  -20.3476  -12.6410 C   0  0  0  0  0  0  0  0  0  0  0  0
   24.4343  -20.8015  -12.1190 O   0  0  0  0  0  0  0  0  0  0  0  0
   30.4728  -21.0899  -10.4860 C   0  0  0  0  0  0  0  0  0  0  0  0
   29.0513  -21.4013  -10.8627 C   0  0  0  0  0  0  0  0  0  0  0  0
   28.0590  -20.7278   -9.9408 C   0  0  2  0  0  0  0  0  0  0  0  0
   28.1804  -21.2160   -8.5234 C   0  0  0  0  0  0  0  0  0  0  0  0
   26.6672  -20.9829  -10.5033 C   0  0  2  0  0  0  0  0  0  0  0  0
   26.6817  -20.4684  -11.8644 N   0  0  0  0  0  0  0  0  0  0  0  0
   25.6284  -20.3448   -9.6890 C   0  0  0  0  0  0  0  0  0  0  0  0
   25.5205  -19.0959   -9.7331 O   0  0  0  0  0  0  0  0  0  0  0  0
   24.7747  -21.0694   -8.8840 O   0  0  0  0  0  0  0  0  0  0  0  0
  1  2  1  0
  2  3  1  0
  3  5  1  0
  3  4  1  1
  5  6  1  6
  7  5  1  0
  8  7  2  0
  9  7  1  0
 10 11  1  1
 10  9  1  0
 11 12  1  0
 12 16  1  0
 13 12  2  0
 13 14  1  0
 14 15  1  0
 16 15  2  0
 17 24  1  0
 17 10  1  0
 18 17  2  0
 20 19  1  0
 20 21  1  0
 21 22  1  1
 23 21  1  0
 23 24  1  6
 25 23  1  0
 25 27  1  0
 26 25  2  0
M  END
$$$$
