IHI.pdb
     RDKit          3D

 27 27  0  0  1  0  0  0  0  0999 V2000
   28.9001  -17.4204  -16.7554 C   0  0  0  0  0  0  0  0  0  0  0  0
   28.0514  -18.6670  -16.4909 C   0  0  0  0  0  0  0  0  0  0  0  0
   27.5362  -18.6649  -15.0811 C   0  0  2  0  0  0  0  0  0  0  0  0
   28.6625  -18.5124  -14.0801 C   0  0  0  0  0  0  0  0  0  0  0  0
   26.5852  -19.7556  -14.7273 C   0  0  2  0  0  0  0  0  0  0  0  0
   25.5049  -19.7525  -15.7413 N   0  0  0  0  0  0  0  0  0  0  0  0
   25.9136  -19.5922  -13.4062 C   0  0  0  0  0  0  0  0  0  0  0  0
   25.4281  -18.4603  -13.1618 O   0  0  0  0  0  0  0  0  0  0  0  0
   25.7842  -20.5921  -12.4323 N   0  0  0  0  0  0  0  0  0  0  0  0
   25.2380  -20.5623  -11.1256 C   0  0  1  0  0  0  0  0  0  0  0  0
   23.9284  -21.2894  -10.9184 C   0  0  0  0  0  0  0  0  0  0  0  0
   22.8734  -20.9393  -11.8607 C   0  0  0  0  0  0  0  0  0  0  0  0
   23.0236  -20.0383  -12.8848 C   0  0  0  0  0  0  0  0  0  0  0  0
   21.8595  -19.9489  -13.5630 N   0  0  0  0  0  0  0  0  0  0  0  0
   20.9832  -20.7821  -12.9765 C   0  0  0  0  0  0  0  0  0  0  0  0
   21.6145  -21.3847  -11.9338 N   0  0  0  0  0  0  0  0  0  0  0  0
   26.1527  -20.8591  -10.0240 C   0  0  0  0  0  0  0  0  0  0  0  0
   27.0362  -21.7770  -10.1847 O   0  0  0  0  0  0  0  0  0  0  0  0
   29.1918  -19.0487   -5.1447 C   0  0  0  0  0  0  0  0  0  0  0  0
   28.3765  -20.1173   -5.8176 C   0  0  0  0  0  0  0  0  0  0  0  0
   27.6387  -19.5906   -7.0285 C   0  0  2  0  0  0  0  0  0  0  0  0
   26.7579  -18.4193   -6.6905 C   0  0  0  0  0  0  0  0  0  0  0  0
   26.8353  -20.7452   -7.6116 C   0  0  2  0  0  0  0  0  0  0  0  0
   26.1475  -20.2101   -8.7770 N   0  0  0  0  0  0  0  0  0  0  0  0
   25.8977  -21.3022   -6.6318 C   0  0  0  0  0  0  0  0  0  0  0  0
   24.6850  -20.9966   -6.7275 O   0  0  0  0  0  0  0  0  0  0  0  0
   26.3052  -22.1438   -5.6181 O   0  0  0  0  0  0  0  0  0  0  0  0
  1  2  1  0
  2  3  1  0
  3  5  1  0
  3  4  1  1
  5  6  1  6
  7  5  1  0
  8  7  2  0
  9  7  1  0
 10 11  1  6
 10  9  1  0
 11 12  1  0
 12 16  1  0
 13 12  2  0
 13 14  1  0
 14 15  1  0
 16 15  2  0
 17 24  1  0
 17 10  1  0
 18 17  2  0
 20 19  1  0
 20 21  1  0
 21 22  1  1
 23 21  1  0
 23 24  1  6
 25 23  1  0
 25 27  1  0
 26 25  2  0
M  END
$$$$
