IHI.pdb
     RDKit          3D

 27 27  0  0  1  0  0  0  0  0999 V2000
   25.8335  -20.9231   -8.5631 C   0  0  0  0  0  0  0  0  0  0  0  0
   26.8004  -21.4543   -9.6249 C   0  0  0  0  0  0  0  0  0  0  0  0
   26.3454  -21.0562  -10.9987 C   0  0  2  0  0  0  0  0  0  0  0  0
   26.0321  -19.5761  -11.0711 C   0  0  0  0  0  0  0  0  0  0  0  0
   25.2879  -21.9069  -11.6130 C   0  0  2  0  0  0  0  0  0  0  0  0
   25.8513  -23.2667  -11.7826 N   0  0  0  0  0  0  0  0  0  0  0  0
   24.8461  -21.4697  -12.9683 C   0  0  0  0  0  0  0  0  0  0  0  0
   25.5121  -21.9031  -13.9405 O   0  0  0  0  0  0  0  0  0  0  0  0
   23.7591  -20.6255  -13.2345 N   0  0  0  0  0  0  0  0  0  0  0  0
   23.2067  -20.1661  -14.4553 C   0  0  1  0  0  0  0  0  0  0  0  0
   21.7322  -20.4207  -14.6739 C   0  0  0  0  0  0  0  0  0  0  0  0
   21.2292  -20.0400  -15.9875 C   0  0  0  0  0  0  0  0  0  0  0  0
   21.9671  -19.3685  -16.9296 C   0  0  0  0  0  0  0  0  0  0  0  0
   21.2040  -19.1751  -18.0266 N   0  0  0  0  0  0  0  0  0  0  0  0
   19.9985  -19.7168  -17.7830 C   0  0  0  0  0  0  0  0  0  0  0  0
   20.0240  -20.2446  -16.5301 N   0  0  0  0  0  0  0  0  0  0  0  0
   23.5412  -18.7998  -14.8551 C   0  0  0  0  0  0  0  0  0  0  0  0
   22.9814  -17.8214  -14.2400 O   0  0  0  0  0  0  0  0  0  0  0  0
   28.4774  -17.9544  -15.2788 C   0  0  0  0  0  0  0  0  0  0  0  0
   26.9903  -17.7886  -15.1348 C   0  0  0  0  0  0  0  0  0  0  0  0
   26.3700  -17.1448  -16.3550 C   0  0  2  0  0  0  0  0  0  0  0  0
   26.9392  -15.7795  -16.6267 C   0  0  0  0  0  0  0  0  0  0  0  0
   24.8656  -17.0887  -16.1266 C   0  0  2  0  0  0  0  0  0  0  0  0
   24.4440  -18.4590  -15.8774 N   0  0  0  0  0  0  0  0  0  0  0  0
   24.1650  -16.5015  -17.2728 C   0  0  0  0  0  0  0  0  0  0  0  0
   23.6876  -15.3479  -17.1516 O   0  0  0  0  0  0  0  0  0  0  0  0
   24.0168  -17.1726  -18.4683 O   0  0  0  0  0  0  0  0  0  0  0  0
  1  2  1  0
  2  3  1  0
  3  5  1  0
  3  4  1  1
  5  6  1  6
  7  5  1  0
  8  7  2  0
  9  7  1  0
 10 11  1  1
 10  9  1  0
 11 12  1  0
 12 16  1  0
 13 12  2  0
 13 14  1  0
 14 15  1  0
 16 15  2  0
 17 24  1  0
 17 10  1  0
 18 17  2  0
 20 19  1  0
 20 21  1  0
 21 22  1  1
 23 21  1  0
 23 24  1  6
 25 23  1  0
 25 27  1  0
 26 25  2  0
M  END
$$$$
