IHI.pdb
     RDKit          3D

 27 27  0  0  1  0  0  0  0  0999 V2000
   27.2223  -18.2547  -19.8794 C   0  0  0  0  0  0  0  0  0  0  0  0
   27.9182  -17.7882  -18.5979 C   0  0  0  0  0  0  0  0  0  0  0  0
   27.7714  -18.8161  -17.5140 C   0  0  2  0  0  0  0  0  0  0  0  0
   26.3399  -19.2970  -17.3971 C   0  0  0  0  0  0  0  0  0  0  0  0
   28.3814  -18.4753  -16.1983 C   0  0  2  0  0  0  0  0  0  0  0  0
   29.8079  -18.1542  -16.4373 N   0  0  0  0  0  0  0  0  0  0  0  0
   28.3679  -19.5829  -15.2000 C   0  0  0  0  0  0  0  0  0  0  0  0
   29.0682  -20.5891  -15.4716 O   0  0  0  0  0  0  0  0  0  0  0  0
   27.6446  -19.5844  -13.9993 N   0  0  0  0  0  0  0  0  0  0  0  0
   27.9612  -20.0925  -12.7154 C   0  0  1  0  0  0  0  0  0  0  0  0
   29.3523  -19.8085  -12.1950 C   0  0  0  0  0  0  0  0  0  0  0  0
   30.3336  -20.8534  -12.4571 C   0  0  0  0  0  0  0  0  0  0  0  0
   30.0410  -22.0506  -13.0605 C   0  0  0  0  0  0  0  0  0  0  0  0
   31.1716  -22.7834  -13.1497 N   0  0  0  0  0  0  0  0  0  0  0  0
   32.1675  -22.0602  -12.6101 C   0  0  0  0  0  0  0  0  0  0  0  0
   31.6435  -20.8785  -12.1884 N   0  0  0  0  0  0  0  0  0  0  0  0
   26.9773  -19.8656  -11.6578 C   0  0  0  0  0  0  0  0  0  0  0  0
   27.0734  -18.8039  -10.9419 O   0  0  0  0  0  0  0  0  0  0  0  0
   21.0363  -20.5384  -11.4078 C   0  0  0  0  0  0  0  0  0  0  0  0
   22.3069  -20.1904  -10.6840 C   0  0  0  0  0  0  0  0  0  0  0  0
   23.5321  -20.6979  -11.4115 C   0  0  2  0  0  0  0  0  0  0  0  0
   23.4802  -22.1833  -11.6413 C   0  0  0  0  0  0  0  0  0  0  0  0
   24.7495  -20.3012  -10.5874 C   0  0  2  0  0  0  0  0  0  0  0  0
   25.9112  -20.7294  -11.3520 N   0  0  0  0  0  0  0  0  0  0  0  0
   24.7207  -20.9065   -9.2524 C   0  0  0  0  0  0  0  0  0  0  0  0
   25.4507  -21.9031   -9.0345 O   0  0  0  0  0  0  0  0  0  0  0  0
   23.9232  -20.4178   -8.2391 O   0  0  0  0  0  0  0  0  0  0  0  0
  1  2  1  0
  2  3  1  0
  3  5  1  0
  3  4  1  1
  5  6  1  6
  7  5  1  0
  8  7  2  0
  9  7  1  0
 10 11  1  1
 10  9  1  0
 11 12  1  0
 12 16  1  0
 13 12  2  0
 13 14  1  0
 14 15  1  0
 16 15  2  0
 17 24  1  0
 17 10  1  0
 18 17  2  0
 20 19  1  0
 20 21  1  0
 21 22  1  1
 23 21  1  0
 23 24  1  6
 25 23  1  0
 25 27  1  0
 26 25  2  0
M  END
$$$$
