IHI.pdb
     RDKit          3D

 27 27  0  0  1  0  0  0  0  0999 V2000
   28.3645  -16.7730  -17.3505 C   0  0  0  0  0  0  0  0  0  0  0  0
   27.7091  -18.1422  -17.1504 C   0  0  0  0  0  0  0  0  0  0  0  0
   27.0783  -18.2313  -15.7913 C   0  0  2  0  0  0  0  0  0  0  0  0
   28.0519  -17.8325  -14.7017 C   0  0  0  0  0  0  0  0  0  0  0  0
   26.3480  -19.4937  -15.4873 C   0  0  2  0  0  0  0  0  0  0  0  0
   25.3964  -19.7371  -16.5966 N   0  0  0  0  0  0  0  0  0  0  0  0
   25.5302  -19.4554  -14.2411 C   0  0  0  0  0  0  0  0  0  0  0  0
   25.0020  -18.3535  -13.9524 O   0  0  0  0  0  0  0  0  0  0  0  0
   25.3091  -20.5408  -13.3819 N   0  0  0  0  0  0  0  0  0  0  0  0
   24.6100  -20.6359  -12.1535 C   0  0  1  0  0  0  0  0  0  0  0  0
   23.3193  -21.4238  -12.1640 C   0  0  0  0  0  0  0  0  0  0  0  0
   22.3410  -20.9905  -13.1533 C   0  0  0  0  0  0  0  0  0  0  0  0
   22.5502  -19.9713  -14.0480 C   0  0  0  0  0  0  0  0  0  0  0  0
   21.4488  -19.8308  -14.8163 N   0  0  0  0  0  0  0  0  0  0  0  0
   20.5535  -20.7487  -14.4140 C   0  0  0  0  0  0  0  0  0  0  0  0
   21.1100  -21.4548  -13.3939 N   0  0  0  0  0  0  0  0  0  0  0  0
   25.3992  -20.9878  -10.9738 C   0  0  0  0  0  0  0  0  0  0  0  0
   26.1823  -22.0037  -11.0347 O   0  0  0  0  0  0  0  0  0  0  0  0
   28.6544  -19.1945   -6.3112 C   0  0  0  0  0  0  0  0  0  0  0  0
   27.6987  -20.2127   -6.8675 C   0  0  0  0  0  0  0  0  0  0  0  0
   26.9876  -19.7083   -8.1036 C   0  0  2  0  0  0  0  0  0  0  0  0
   26.2787  -18.4048   -7.8575 C   0  0  0  0  0  0  0  0  0  0  0  0
   26.0200  -20.7961   -8.5497 C   0  0  2  0  0  0  0  0  0  0  0  0
   25.3735  -20.2926   -9.7522 N   0  0  0  0  0  0  0  0  0  0  0  0
   25.0477  -21.1196   -7.5012 C   0  0  0  0  0  0  0  0  0  0  0  0
   25.4576  -21.6999   -6.4675 O   0  0  0  0  0  0  0  0  0  0  0  0
   23.7092  -20.8081   -7.6163 O   0  0  0  0  0  0  0  0  0  0  0  0
  1  2  1  0
  2  3  1  0
  3  5  1  0
  3  4  1  1
  5  6  1  6
  7  5  1  0
  8  7  2  0
  9  7  1  0
 10 11  1  6
 10  9  1  0
 11 12  1  0
 12 16  1  0
 13 12  2  0
 13 14  1  0
 14 15  1  0
 16 15  2  0
 17 24  1  0
 17 10  1  0
 18 17  2  0
 20 19  1  0
 20 21  1  0
 21 22  1  1
 23 21  1  0
 23 24  1  6
 25 23  1  0
 25 27  1  0
 26 25  2  0
M  END
$$$$
