IHI.pdb
     RDKit          3D

 27 27  0  0  1  0  0  0  0  0999 V2000
   26.4568  -13.2145  -15.5345 C   0  0  0  0  0  0  0  0  0  0  0  0
   26.0111  -14.3836  -16.4170 C   0  0  0  0  0  0  0  0  0  0  0  0
   25.7777  -15.6120  -15.5866 C   0  0  2  0  0  0  0  0  0  0  0  0
   27.0520  -16.0739  -14.9106 C   0  0  0  0  0  0  0  0  0  0  0  0
   25.0334  -16.7203  -16.2477 C   0  0  2  0  0  0  0  0  0  0  0  0
   23.7342  -16.1749  -16.7057 N   0  0  0  0  0  0  0  0  0  0  0  0
   24.7085  -17.8708  -15.3565 C   0  0  0  0  0  0  0  0  0  0  0  0
   23.7243  -17.7244  -14.5907 O   0  0  0  0  0  0  0  0  0  0  0  0
   25.4075  -19.0850  -15.3113 N   0  0  0  0  0  0  0  0  0  0  0  0
   25.1555  -20.2853  -14.6023 C   0  0  1  0  0  0  0  0  0  0  0  0
   25.0711  -21.5542  -15.4203 C   0  0  0  0  0  0  0  0  0  0  0  0
   24.7196  -22.7510  -14.6667 C   0  0  0  0  0  0  0  0  0  0  0  0
   24.4661  -22.7649  -13.3182 C   0  0  0  0  0  0  0  0  0  0  0  0
   24.1730  -24.0278  -12.9412 N   0  0  0  0  0  0  0  0  0  0  0  0
   24.2397  -24.8040  -14.0362 C   0  0  0  0  0  0  0  0  0  0  0  0
   24.5756  -24.0118  -15.0890 N   0  0  0  0  0  0  0  0  0  0  0  0
   25.9556  -20.5191  -13.4008 C   0  0  0  0  0  0  0  0  0  0  0  0
   27.2310  -20.6127  -13.5162 O   0  0  0  0  0  0  0  0  0  0  0  0
   26.8133  -18.7721   -7.8160 C   0  0  0  0  0  0  0  0  0  0  0  0
   26.9779  -19.8745   -8.8245 C   0  0  0  0  0  0  0  0  0  0  0  0
   26.0289  -19.7220   -9.9925 C   0  0  2  0  0  0  0  0  0  0  0  0
   24.5920  -19.6665   -9.5519 C   0  0  0  0  0  0  0  0  0  0  0  0
   26.2794  -20.8878  -10.9395 C   0  0  2  0  0  0  0  0  0  0  0  0
   25.4356  -20.6520  -12.1014 N   0  0  0  0  0  0  0  0  0  0  0  0
   25.9857  -22.1755  -10.3032 C   0  0  0  0  0  0  0  0  0  0  0  0
   24.8454  -22.6729  -10.4641 O   0  0  0  0  0  0  0  0  0  0  0  0
   26.9162  -22.8497   -9.5408 O   0  0  0  0  0  0  0  0  0  0  0  0
  1  2  1  0
  2  3  1  0
  3  5  1  0
  3  4  1  6
  5  6  1  1
  7  5  1  0
  8  7  2  0
  9  7  1  0
 10 11  1  6
 10  9  1  0
 11 12  1  0
 12 16  1  0
 13 12  2  0
 13 14  1  0
 14 15  1  0
 16 15  2  0
 17 24  1  0
 17 10  1  0
 18 17  2  0
 20 19  1  0
 20 21  1  0
 21 22  1  1
 23 21  1  0
 23 24  1  6
 25 23  1  0
 25 27  1  0
 26 25  2  0
M  END
$$$$
