IHI.pdb
     RDKit          3D

 27 27  0  0  1  0  0  0  0  0999 V2000
   16.8250  -11.6624  -17.5558 C   0  0  0  0  0  0  0  0  0  0  0  0
   16.6865  -11.7609  -16.0342 C   0  0  0  0  0  0  0  0  0  0  0  0
   16.9044  -10.4196  -15.3969 C   0  0  2  0  0  0  0  0  0  0  0  0
   18.1676   -9.7607  -15.9112 C   0  0  0  0  0  0  0  0  0  0  0  0
   16.7833  -10.3696  -13.9129 C   0  0  2  0  0  0  0  0  0  0  0  0
   15.4170  -10.8220  -13.5610 N   0  0  0  0  0  0  0  0  0  0  0  0
   16.9344   -9.0094  -13.3211 C   0  0  0  0  0  0  0  0  0  0  0  0
   16.1373   -8.1298  -13.7305 O   0  0  0  0  0  0  0  0  0  0  0  0
   17.8836   -8.6450  -12.3561 N   0  0  0  0  0  0  0  0  0  0  0  0
   18.2773   -7.3775  -11.8610 C   0  0  1  0  0  0  0  0  0  0  0  0
   18.1017   -7.1415  -10.3778 C   0  0  0  0  0  0  0  0  0  0  0  0
   16.7307   -7.2460   -9.8952 C   0  0  0  0  0  0  0  0  0  0  0  0
   15.6358   -7.3847  -10.7108 C   0  0  0  0  0  0  0  0  0  0  0  0
   14.5257   -7.4522   -9.9452 N   0  0  0  0  0  0  0  0  0  0  0  0
   14.9118   -7.3574   -8.6614 C   0  0  0  0  0  0  0  0  0  0  0  0
   16.2655   -7.2313   -8.6414 N   0  0  0  0  0  0  0  0  0  0  0  0
   19.5822   -6.8793  -12.2940 C   0  0  0  0  0  0  0  0  0  0  0  0
   20.6322   -7.5550  -11.9943 O   0  0  0  0  0  0  0  0  0  0  0  0
   22.5377   -5.5356  -17.0557 C   0  0  0  0  0  0  0  0  0  0  0  0
   22.4071   -5.1854  -15.5998 C   0  0  0  0  0  0  0  0  0  0  0  0
   21.0773   -5.6239  -15.0274 C   0  0  2  0  0  0  0  0  0  0  0  0
   19.9169   -4.9611  -15.7174 C   0  0  0  0  0  0  0  0  0  0  0  0
   21.0958   -5.3105  -13.5375 C   0  0  2  0  0  0  0  0  0  0  0  0
   19.7892   -5.6980  -13.0274 N   0  0  0  0  0  0  0  0  0  0  0  0
   21.3831   -3.8951  -13.2851 C   0  0  0  0  0  0  0  0  0  0  0  0
   20.4185   -3.1173  -13.0899 O   0  0  0  0  0  0  0  0  0  0  0  0
   22.6691   -3.3982  -13.2561 O   0  0  0  0  0  0  0  0  0  0  0  0
  1  2  1  0
  2  3  1  0
  3  5  1  0
  3  4  1  1
  5  6  1  6
  7  5  1  0
  8  7  2  0
  9  7  1  0
 10 11  1  1
 10  9  1  0
 11 12  1  0
 12 16  1  0
 13 12  2  0
 13 14  1  0
 14 15  1  0
 16 15  2  0
 17 24  1  0
 17 10  1  0
 18 17  2  0
 20 19  1  0
 20 21  1  0
 21 22  1  6
 23 21  1  0
 23 24  1  6
 25 23  1  0
 25 27  1  0
 26 25  2  0
M  END
$$$$
