IHI.pdb
     RDKit          3D

 27 27  0  0  1  0  0  0  0  0999 V2000
   28.9930  -17.8748  -16.1580 C   0  0  0  0  0  0  0  0  0  0  0  0
   28.0137  -19.0173  -15.8751 C   0  0  0  0  0  0  0  0  0  0  0  0
   27.5183  -18.9490  -14.4599 C   0  0  2  0  0  0  0  0  0  0  0  0
   28.6623  -18.7918  -13.4797 C   0  0  0  0  0  0  0  0  0  0  0  0
   26.5425  -19.9988  -14.0538 C   0  0  2  0  0  0  0  0  0  0  0  0
   25.4366  -19.9858  -15.0396 N   0  0  0  0  0  0  0  0  0  0  0  0
   25.9115  -19.7804  -12.7206 C   0  0  0  0  0  0  0  0  0  0  0  0
   25.3236  -18.6837  -12.5531 O   0  0  0  0  0  0  0  0  0  0  0  0
   25.9239  -20.6940  -11.6574 N   0  0  0  0  0  0  0  0  0  0  0  0
   25.5383  -20.5583  -10.3011 C   0  0  1  0  0  0  0  0  0  0  0  0
   24.2161  -21.1758   -9.9043 C   0  0  0  0  0  0  0  0  0  0  0  0
   23.0757  -20.7617  -10.7115 C   0  0  0  0  0  0  0  0  0  0  0  0
   23.1611  -19.9143  -11.7874 C   0  0  0  0  0  0  0  0  0  0  0  0
   21.9268  -19.7404  -12.3063 N   0  0  0  0  0  0  0  0  0  0  0  0
   21.0705  -20.4679  -11.5691 C   0  0  0  0  0  0  0  0  0  0  0  0
   21.7847  -21.0904  -10.5938 N   0  0  0  0  0  0  0  0  0  0  0  0
   26.5540  -20.8660   -9.2951 C   0  0  0  0  0  0  0  0  0  0  0  0
   27.2776  -21.9156   -9.4485 O   0  0  0  0  0  0  0  0  0  0  0  0
   30.0986  -18.6378   -4.8508 C   0  0  0  0  0  0  0  0  0  0  0  0
   29.3780  -19.7898   -5.4934 C   0  0  0  0  0  0  0  0  0  0  0  0
   28.4390  -19.3329   -6.5878 C   0  0  2  0  0  0  0  0  0  0  0  0
   27.5130  -18.2433   -6.1219 C   0  0  0  0  0  0  0  0  0  0  0  0
   27.6682  -20.5552   -7.0679 C   0  0  2  0  0  0  0  0  0  0  0  0
   26.8118  -20.0928   -8.1497 N   0  0  0  0  0  0  0  0  0  0  0  0
   26.8955  -21.1688   -5.9836 C   0  0  0  0  0  0  0  0  0  0  0  0
   25.6569  -20.9729   -5.9502 O   0  0  0  0  0  0  0  0  0  0  0  0
   27.4836  -21.9472   -5.0089 O   0  0  0  0  0  0  0  0  0  0  0  0
  1  2  1  0
  2  3  1  0
  3  5  1  0
  3  4  1  1
  5  6  1  6
  7  5  1  0
  8  7  2  0
  9  7  1  0
 10 11  1  1
 10  9  1  0
 11 12  1  0
 12 16  1  0
 13 12  2  0
 13 14  1  0
 14 15  1  0
 16 15  2  0
 17 24  1  0
 17 10  1  0
 18 17  2  0
 20 19  1  0
 20 21  1  0
 21 22  1  1
 23 21  1  0
 23 24  1  6
 25 23  1  0
 25 27  1  0
 26 25  2  0
M  END
$$$$
