IHI.pdb
     RDKit          3D

 27 27  0  0  1  0  0  0  0  0999 V2000
   16.2600  -23.8181   -9.1970 C   0  0  0  0  0  0  0  0  0  0  0  0
   16.1611  -22.7976  -10.3342 C   0  0  0  0  0  0  0  0  0  0  0  0
   17.3631  -22.8868  -11.2287 C   0  0  2  0  0  0  0  0  0  0  0  0
   18.6509  -22.8206  -10.4341 C   0  0  0  0  0  0  0  0  0  0  0  0
   17.3651  -21.9899  -12.4182 C   0  0  2  0  0  0  0  0  0  0  0  0
   16.1168  -22.2475  -13.1736 N   0  0  0  0  0  0  0  0  0  0  0  0
   18.4842  -22.2265  -13.3747 C   0  0  0  0  0  0  0  0  0  0  0  0
   18.6724  -23.4152  -13.7323 O   0  0  0  0  0  0  0  0  0  0  0  0
   19.3278  -21.2365  -13.8976 N   0  0  0  0  0  0  0  0  0  0  0  0
   20.4324  -21.3176  -14.7806 C   0  0  1  0  0  0  0  0  0  0  0  0
   20.1798  -20.9410  -16.2232 C   0  0  0  0  0  0  0  0  0  0  0  0
   19.1008  -21.6749  -16.8718 C   0  0  0  0  0  0  0  0  0  0  0  0
   18.3787  -22.6743  -16.2695 C   0  0  0  0  0  0  0  0  0  0  0  0
   17.4614  -23.1394  -17.1444 N   0  0  0  0  0  0  0  0  0  0  0  0
   17.6004  -22.4441  -18.2860 C   0  0  0  0  0  0  0  0  0  0  0  0
   18.6081  -21.5486  -18.1087 N   0  0  0  0  0  0  0  0  0  0  0  0
   21.6859  -20.7206  -14.3218 C   0  0  0  0  0  0  0  0  0  0  0  0
   21.6530  -19.5605  -13.7721 O   0  0  0  0  0  0  0  0  0  0  0  0
   25.0325  -22.6148  -11.0367 C   0  0  0  0  0  0  0  0  0  0  0  0
   24.2745  -21.7385  -11.9943 C   0  0  0  0  0  0  0  0  0  0  0  0
   25.0284  -21.5266  -13.2885 C   0  0  2  0  0  0  0  0  0  0  0  0
   26.4048  -20.9661  -13.0574 C   0  0  0  0  0  0  0  0  0  0  0  0
   24.1877  -20.6043  -14.1609 C   0  0  2  0  0  0  0  0  0  0  0  0
   22.9516  -21.3223  -14.4328 N   0  0  0  0  0  0  0  0  0  0  0  0
   24.8893  -20.2375  -15.3949 C   0  0  0  0  0  0  0  0  0  0  0  0
   24.8776  -21.0500  -16.3505 O   0  0  0  0  0  0  0  0  0  0  0  0
   25.5551  -19.0380  -15.5351 O   0  0  0  0  0  0  0  0  0  0  0  0
  1  2  1  0
  2  3  1  0
  3  5  1  0
  3  4  1  1
  5  6  1  6
  7  5  1  0
  8  7  2  0
  9  7  1  0
 10 11  1  6
 10  9  1  0
 11 12  1  0
 12 16  1  0
 13 12  2  0
 13 14  1  0
 14 15  1  0
 16 15  2  0
 17 24  1  0
 17 10  1  0
 18 17  2  0
 20 19  1  0
 20 21  1  0
 21 22  1  1
 23 21  1  0
 23 24  1  6
 25 23  1  0
 25 27  1  0
 26 25  2  0
M  END
$$$$
