IHI.pdb
     RDKit          3D

 27 27  0  0  1  0  0  0  0  0999 V2000
   27.8328  -15.3653  -16.0707 C   0  0  0  0  0  0  0  0  0  0  0  0
   26.8990  -16.5684  -16.2276 C   0  0  0  0  0  0  0  0  0  0  0  0
   27.6483  -17.8500  -16.0061 C   0  0  2  0  0  0  0  0  0  0  0  0
   28.8813  -17.9290  -16.8822 C   0  0  0  0  0  0  0  0  0  0  0  0
   26.8359  -19.0985  -16.0286 C   0  0  2  0  0  0  0  0  0  0  0  0
   26.0758  -19.1137  -17.3003 N   0  0  0  0  0  0  0  0  0  0  0  0
   25.8229  -19.2021  -14.9394 C   0  0  0  0  0  0  0  0  0  0  0  0
   25.1094  -18.1881  -14.7410 O   0  0  0  0  0  0  0  0  0  0  0  0
   25.6096  -20.3294  -14.1340 N   0  0  0  0  0  0  0  0  0  0  0  0
   24.7644  -20.5358  -13.0161 C   0  0  1  0  0  0  0  0  0  0  0  0
   23.5072  -21.3420  -13.2528 C   0  0  0  0  0  0  0  0  0  0  0  0
   22.5706  -20.7578  -14.2043 C   0  0  0  0  0  0  0  0  0  0  0  0
   22.7516  -19.5427  -14.8156 C   0  0  0  0  0  0  0  0  0  0  0  0
   21.7034  -19.3035  -15.6324 N   0  0  0  0  0  0  0  0  0  0  0  0
   20.8691  -20.3530  -15.5400 C   0  0  0  0  0  0  0  0  0  0  0  0
   21.4098  -21.2393  -14.6618 N   0  0  0  0  0  0  0  0  0  0  0  0
   25.4082  -20.9688  -11.7766 C   0  0  0  0  0  0  0  0  0  0  0  0
   26.1464  -22.0193  -11.7979 O   0  0  0  0  0  0  0  0  0  0  0  0
   28.3529  -19.3659   -6.8629 C   0  0  0  0  0  0  0  0  0  0  0  0
   27.4006  -20.3432   -7.4934 C   0  0  0  0  0  0  0  0  0  0  0  0
   26.7937  -19.8023   -8.7690 C   0  0  2  0  0  0  0  0  0  0  0  0
   26.0931  -18.4895   -8.5511 C   0  0  0  0  0  0  0  0  0  0  0  0
   25.8419  -20.8621   -9.3069 C   0  0  2  0  0  0  0  0  0  0  0  0
   25.2856  -20.3180  -10.5366 N   0  0  0  0  0  0  0  0  0  0  0  0
   24.7963  -21.1951   -8.3347 C   0  0  0  0  0  0  0  0  0  0  0  0
   25.1245  -21.8201   -7.2978 O   0  0  0  0  0  0  0  0  0  0  0  0
   23.4759  -20.8452   -8.5240 O   0  0  0  0  0  0  0  0  0  0  0  0
  1  2  1  0
  2  3  1  0
  3  5  1  0
  3  4  1  6
  5  6  1  6
  7  5  1  0
  8  7  2  0
  9  7  1  0
 10 11  1  6
 10  9  1  0
 11 12  1  0
 12 16  1  0
 13 12  2  0
 13 14  1  0
 14 15  1  0
 16 15  2  0
 17 24  1  0
 17 10  1  0
 18 17  2  0
 20 19  1  0
 20 21  1  0
 21 22  1  1
 23 21  1  0
 23 24  1  6
 25 23  1  0
 25 27  1  0
 26 25  2  0
M  END
$$$$
