IHI.pdb
     RDKit          3D

 27 27  0  0  1  0  0  0  0  0999 V2000
   17.8998  -16.5841  -16.7777 C   0  0  0  0  0  0  0  0  0  0  0  0
   18.3562  -15.8362  -18.0333 C   0  0  0  0  0  0  0  0  0  0  0  0
   19.0408  -14.5528  -17.6630 C   0  0  2  0  0  0  0  0  0  0  0  0
   18.1770  -13.7079  -16.7496 C   0  0  0  0  0  0  0  0  0  0  0  0
   19.6338  -13.7761  -18.7875 C   0  0  2  0  0  0  0  0  0  0  0  0
   20.5683  -14.6737  -19.5061 N   0  0  0  0  0  0  0  0  0  0  0  0
   20.4365  -12.5907  -18.3706 C   0  0  0  0  0  0  0  0  0  0  0  0
   21.6081  -12.8179  -17.9804 O   0  0  0  0  0  0  0  0  0  0  0  0
   19.9888  -11.2624  -18.3828 N   0  0  0  0  0  0  0  0  0  0  0  0
   20.6437  -10.0499  -18.0547 C   0  0  1  0  0  0  0  0  0  0  0  0
   20.6284   -8.9621  -19.1050 C   0  0  0  0  0  0  0  0  0  0  0  0
   21.2523   -9.3204  -20.3723 C   0  0  0  0  0  0  0  0  0  0  0  0
   22.5902   -9.5850  -20.5242 C   0  0  0  0  0  0  0  0  0  0  0  0
   22.8332   -9.8818  -21.8188 N   0  0  0  0  0  0  0  0  0  0  0  0
   21.6649   -9.8063  -22.4786 C   0  0  0  0  0  0  0  0  0  0  0  0
   20.7017   -9.4614  -21.5829 N   0  0  0  0  0  0  0  0  0  0  0  0
   20.3496   -9.4787  -16.7411 C   0  0  0  0  0  0  0  0  0  0  0  0
   19.1285   -9.4330  -16.3465 O   0  0  0  0  0  0  0  0  0  0  0  0
   21.5179   -9.8889  -11.0679 C   0  0  0  0  0  0  0  0  0  0  0  0
   21.0664   -8.9561  -12.1567 C   0  0  0  0  0  0  0  0  0  0  0  0
   21.4835   -9.4397  -13.5279 C   0  0  2  0  0  0  0  0  0  0  0  0
   22.9727   -9.6188  -13.6371 C   0  0  0  0  0  0  0  0  0  0  0  0
   20.9649   -8.4319  -14.5448 C   0  0  2  0  0  0  0  0  0  0  0  0
   21.3113   -8.9649  -15.8538 N   0  0  0  0  0  0  0  0  0  0  0  0
   21.5379   -7.0999  -14.3281 C   0  0  0  0  0  0  0  0  0  0  0  0
   22.5436   -6.7677  -15.0003 O   0  0  0  0  0  0  0  0  0  0  0  0
   21.0096   -6.2100  -13.4166 O   0  0  0  0  0  0  0  0  0  0  0  0
  1  2  1  0
  2  3  1  0
  3  5  1  0
  3  4  1  6
  5  6  1  1
  7  5  1  0
  8  7  2  0
  9  7  1  0
 10 11  1  6
 10  9  1  0
 11 12  1  0
 12 16  1  0
 13 12  2  0
 13 14  1  0
 14 15  1  0
 16 15  2  0
 17 24  1  0
 17 10  1  0
 18 17  2  0
 20 19  1  0
 20 21  1  0
 21 22  1  1
 23 21  1  0
 23 24  1  6
 25 23  1  0
 25 27  1  0
 26 25  2  0
M  END
$$$$
