IHI.pdb
     RDKit          3D

 27 27  0  0  1  0  0  0  0  0999 V2000
   21.6241  -20.4285   -9.3012 C   0  0  0  0  0  0  0  0  0  0  0  0
   22.8067  -21.1886   -9.9078 C   0  0  0  0  0  0  0  0  0  0  0  0
   23.2793  -20.5141  -11.1626 C   0  0  2  0  0  0  0  0  0  0  0  0
   22.1244  -20.1979  -12.0901 C   0  0  0  0  0  0  0  0  0  0  0  0
   24.4288  -21.1553  -11.8603 C   0  0  2  0  0  0  0  0  0  0  0  0
   25.5553  -21.2183  -10.8999 N   0  0  0  0  0  0  0  0  0  0  0  0
   24.9358  -20.4046  -13.0447 C   0  0  0  0  0  0  0  0  0  0  0  0
   25.7184  -19.4514  -12.8095 O   0  0  0  0  0  0  0  0  0  0  0  0
   24.6106  -20.6800  -14.3801 N   0  0  0  0  0  0  0  0  0  0  0  0
   25.0958  -20.1346  -15.5941 C   0  0  1  0  0  0  0  0  0  0  0  0
   24.9133  -20.9740  -16.8386 C   0  0  0  0  0  0  0  0  0  0  0  0
   25.5138  -20.4235  -18.0468 C   0  0  0  0  0  0  0  0  0  0  0  0
   26.2081  -19.2407  -18.0914 C   0  0  0  0  0  0  0  0  0  0  0  0
   26.6273  -19.0270  -19.3570 N   0  0  0  0  0  0  0  0  0  0  0  0
   26.2042  -20.0605  -20.1046 C   0  0  0  0  0  0  0  0  0  0  0  0
   25.5224  -20.9113  -19.2921 N   0  0  0  0  0  0  0  0  0  0  0  0
   24.7456  -18.7431  -15.8758 C   0  0  0  0  0  0  0  0  0  0  0  0
   23.5187  -18.3801  -15.7656 O   0  0  0  0  0  0  0  0  0  0  0  0
   25.1055  -13.5435  -15.0723 C   0  0  0  0  0  0  0  0  0  0  0  0
   26.0368  -14.0626  -16.1319 C   0  0  0  0  0  0  0  0  0  0  0  0
   26.4000  -15.5137  -15.9073 C   0  0  2  0  0  0  0  0  0  0  0  0
   27.7193  -15.8715  -16.5345 C   0  0  0  0  0  0  0  0  0  0  0  0
   25.2656  -16.3604  -16.4685 C   0  0  2  0  0  0  0  0  0  0  0  0
   25.6580  -17.7468  -16.2646 N   0  0  0  0  0  0  0  0  0  0  0  0
   25.0176  -16.0652  -17.8829 C   0  0  0  0  0  0  0  0  0  0  0  0
   24.1903  -15.1662  -18.1674 O   0  0  0  0  0  0  0  0  0  0  0  0
   25.6601  -16.7394  -18.8999 O   0  0  0  0  0  0  0  0  0  0  0  0
  1  2  1  0
  2  3  1  0
  3  5  1  0
  3  4  1  6
  5  6  1  1
  7  5  1  0
  8  7  2  0
  9  7  1  0
 10 11  1  6
 10  9  1  0
 11 12  1  0
 12 16  1  0
 13 12  2  0
 13 14  1  0
 14 15  1  0
 16 15  2  0
 17 24  1  0
 17 10  1  0
 18 17  2  0
 20 19  1  0
 20 21  1  0
 21 22  1  6
 23 21  1  0
 23 24  1  6
 25 23  1  0
 25 27  1  0
 26 25  2  0
M  END
$$$$
