IHI.pdb
     RDKit          3D

 27 27  0  0  1  0  0  0  0  0999 V2000
   29.7582  -20.3062  -16.9240 C   0  0  0  0  0  0  0  0  0  0  0  0
   28.3073  -19.8410  -17.0742 C   0  0  0  0  0  0  0  0  0  0  0  0
   27.7687  -19.3604  -15.7582 C   0  0  2  0  0  0  0  0  0  0  0  0
   28.1863  -17.9317  -15.4775 C   0  0  0  0  0  0  0  0  0  0  0  0
   27.9729  -20.2671  -14.5940 C   0  0  2  0  0  0  0  0  0  0  0  0
   27.5593  -21.6277  -15.0098 N   0  0  0  0  0  0  0  0  0  0  0  0
   27.1533  -19.9338  -13.3938 C   0  0  0  0  0  0  0  0  0  0  0  0
   27.3344  -18.7977  -12.8908 O   0  0  0  0  0  0  0  0  0  0  0  0
   26.2094  -20.7799  -12.7952 N   0  0  0  0  0  0  0  0  0  0  0  0
   25.4004  -20.6152  -11.6441 C   0  0  1  0  0  0  0  0  0  0  0  0
   23.9591  -21.0589  -11.7559 C   0  0  0  0  0  0  0  0  0  0  0  0
   23.1538  -20.3035  -12.7070 C   0  0  0  0  0  0  0  0  0  0  0  0
   23.5879  -19.1773  -13.3597 C   0  0  0  0  0  0  0  0  0  0  0  0
   22.5996  -18.7290  -14.1631 N   0  0  0  0  0  0  0  0  0  0  0  0
   21.5530  -19.5601  -14.0214 C   0  0  0  0  0  0  0  0  0  0  0  0
   21.9028  -20.5222  -13.1264 N   0  0  0  0  0  0  0  0  0  0  0  0
   25.9646  -21.0692  -10.3738 C   0  0  0  0  0  0  0  0  0  0  0  0
   26.4411  -22.2593  -10.2995 O   0  0  0  0  0  0  0  0  0  0  0  0
   29.1446  -19.4510   -5.5399 C   0  0  0  0  0  0  0  0  0  0  0  0
   28.1208  -20.3728   -6.1411 C   0  0  0  0  0  0  0  0  0  0  0  0
   27.5712  -19.8379   -7.4449 C   0  0  2  0  0  0  0  0  0  0  0  0
   26.9977  -18.4558   -7.2938 C   0  0  0  0  0  0  0  0  0  0  0  0
   26.5246  -20.8272   -7.9393 C   0  0  2  0  0  0  0  0  0  0  0  0
   26.0320  -20.2963   -9.2015 N   0  0  0  0  0  0  0  0  0  0  0  0
   25.4451  -21.0068   -6.9636 C   0  0  0  0  0  0  0  0  0  0  0  0
   24.3181  -20.5232   -7.2268 O   0  0  0  0  0  0  0  0  0  0  0  0
   25.6299  -21.6847   -5.7770 O   0  0  0  0  0  0  0  0  0  0  0  0
  1  2  1  0
  2  3  1  0
  3  5  1  0
  3  4  1  1
  5  6  1  6
  7  5  1  0
  8  7  2  0
  9  7  1  0
 10 11  1  6
 10  9  1  0
 11 12  1  0
 12 16  1  0
 13 12  2  0
 13 14  1  0
 14 15  1  0
 16 15  2  0
 17 24  1  0
 17 10  1  0
 18 17  2  0
 20 19  1  0
 20 21  1  0
 21 22  1  1
 23 21  1  0
 23 24  1  6
 25 23  1  0
 25 27  1  0
 26 25  2  0
M  END
$$$$
