IHI.pdb
     RDKit          3D

 27 27  0  0  1  0  0  0  0  0999 V2000
   26.8830  -21.5079   -8.5049 C   0  0  0  0  0  0  0  0  0  0  0  0
   25.4955  -21.4109   -9.1451 C   0  0  0  0  0  0  0  0  0  0  0  0
   25.5856  -20.7864  -10.5069 C   0  0  2  0  0  0  0  0  0  0  0  0
   26.4445  -19.5389  -10.4884 C   0  0  0  0  0  0  0  0  0  0  0  0
   24.2967  -20.5963  -11.2293 C   0  0  2  0  0  0  0  0  0  0  0  0
   23.5910  -21.8991  -11.2337 N   0  0  0  0  0  0  0  0  0  0  0  0
   24.4370  -20.1965  -12.6589 C   0  0  0  0  0  0  0  0  0  0  0  0
   25.0868  -19.1462  -12.8847 O   0  0  0  0  0  0  0  0  0  0  0  0
   23.9074  -20.8953  -13.7527 N   0  0  0  0  0  0  0  0  0  0  0  0
   23.9928  -20.6575  -15.1466 C   0  0  1  0  0  0  0  0  0  0  0  0
   23.4433  -21.7338  -16.0556 C   0  0  0  0  0  0  0  0  0  0  0  0
   24.2586  -22.9381  -16.1478 C   0  0  0  0  0  0  0  0  0  0  0  0
   25.4758  -23.0927  -15.5332 C   0  0  0  0  0  0  0  0  0  0  0  0
   25.9591  -24.3198  -15.8226 N   0  0  0  0  0  0  0  0  0  0  0  0
   25.0603  -24.9347  -16.6101 C   0  0  0  0  0  0  0  0  0  0  0  0
   24.0213  -24.0792  -16.8036 N   0  0  0  0  0  0  0  0  0  0  0  0
   23.5632  -19.3411  -15.6163 C   0  0  0  0  0  0  0  0  0  0  0  0
   22.4455  -18.8693  -15.1954 O   0  0  0  0  0  0  0  0  0  0  0  0
   26.8365  -15.5459  -15.1902 C   0  0  0  0  0  0  0  0  0  0  0  0
   25.5768  -16.3452  -15.3738 C   0  0  0  0  0  0  0  0  0  0  0  0
   25.0833  -16.3068  -16.8032 C   0  0  2  0  0  0  0  0  0  0  0  0
   24.7885  -14.9057  -17.2637 C   0  0  0  0  0  0  0  0  0  0  0  0
   23.8484  -17.1939  -16.8839 C   0  0  2  0  0  0  0  0  0  0  0  0
   24.2861  -18.5299  -16.5082 N   0  0  0  0  0  0  0  0  0  0  0  0
   23.2512  -17.1709  -18.2227 C   0  0  0  0  0  0  0  0  0  0  0  0
   23.7561  -17.8968  -19.1124 O   0  0  0  0  0  0  0  0  0  0  0  0
   22.1620  -16.3831  -18.5301 O   0  0  0  0  0  0  0  0  0  0  0  0
  1  2  1  0
  2  3  1  0
  3  5  1  0
  3  4  1  1
  5  6  1  6
  7  5  1  0
  8  7  2  0
  9  7  1  0
 10 11  1  6
 10  9  1  0
 11 12  1  0
 12 16  1  0
 13 12  2  0
 13 14  1  0
 14 15  1  0
 16 15  2  0
 17 24  1  0
 17 10  1  0
 18 17  2  0
 20 19  1  0
 20 21  1  0
 21 22  1  1
 23 21  1  0
 23 24  1  6
 25 23  1  0
 25 27  1  0
 26 25  2  0
M  END
$$$$
