NFA.pdb
     RDKit          3D

 25 25  0  0  1  0  0  0  0  0999 V2000
    7.9179  -15.4391   18.9880 N   0  0  0  0  0  0  0  0  0  0  0  0
    8.2301  -14.1720   19.5376 C   0  0  0  0  0  0  0  0  0  0  0  0
    8.1660  -13.1640   18.8007 O   0  0  0  0  0  0  0  0  0  0  0  0
    8.6161  -14.0731   20.9389 C   0  0  0  0  0  0  0  0  0  0  0  0
    8.7030  -15.3953   21.6424 C   0  0  2  0  0  0  0  0  0  0  0  0
    7.4413  -16.0541   21.6216 N   0  0  0  0  0  0  0  0  0  0  0  0
    9.2200  -15.2662   23.0296 C   0  0  0  0  0  0  0  0  0  0  0  0
   10.3403  -14.7404   23.2683 O   0  0  0  0  0  0  0  0  0  0  0  0
    8.4917  -15.7225   24.1642 N   0  0  0  0  0  0  0  0  0  0  0  0
    8.9947  -15.6544   25.5210 C   0  0  1  0  0  0  0  0  0  0  0  0
    7.9476  -15.3130   26.5159 C   0  0  0  0  0  0  0  0  0  0  0  0
    7.3577  -13.9710   26.3890 C   0  0  0  0  0  0  0  0  0  0  0  0
    8.0635  -12.8309   26.7033 C   0  0  0  0  0  0  0  0  0  0  0  0
    7.4998  -11.5839   26.5802 C   0  0  0  0  0  0  0  0  0  0  0  0
    6.2104  -11.4145   26.1394 C   0  0  0  0  0  0  0  0  0  0  0  0
    5.4886  -12.5467   25.8199 C   0  0  0  0  0  0  0  0  0  0  0  0
    6.0460  -13.7964   25.9408 C   0  0  0  0  0  0  0  0  0  0  0  0
    9.7732  -16.8451   25.9007 C   0  0  0  0  0  0  0  0  0  0  0  0
   10.0655  -16.9975   27.1043 O   0  0  0  0  0  0  0  0  0  0  0  0
   10.7646  -20.1446   24.3607 C   0  0  0  0  0  0  0  0  0  0  0  0
   10.8790  -19.0415   25.3973 C   0  0  2  0  0  0  0  0  0  0  0  0
   10.2119  -17.8317   24.9789 N   0  0  0  0  0  0  0  0  0  0  0  0
   12.2784  -18.8207   25.7874 C   0  0  0  0  0  0  0  0  0  0  0  0
   12.8247  -17.7190   25.5707 O   0  0  0  0  0  0  0  0  0  0  0  0
   13.0055  -19.8209   26.3953 O   0  0  0  0  0  0  0  0  0  0  0  0
  2  1  1  0
  2  3  2  0
  4  2  1  0
  5  4  1  0
  5  7  1  0
  5  6  1  1
  7  8  2  0
  9  7  1  0
  9 10  1  0
 10 11  1  1
 11 12  1  0
 12 17  2  0
 13 12  1  0
 13 14  2  0
 14 15  1  0
 15 16  2  0
 17 16  1  0
 18 10  1  0
 18 19  2  0
 21 20  1  6
 21 22  1  0
 21 23  1  0
 22 18  1  0
 23 25  1  0
 24 23  2  0
M  END
$$$$
