NFA.pdb
     RDKit          3D

 25 25  0  0  1  0  0  0  0  0999 V2000
    9.7259  -15.8765   18.5833 N   0  0  0  0  0  0  0  0  0  0  0  0
    8.7111  -15.4478   19.4729 C   0  0  0  0  0  0  0  0  0  0  0  0
    7.5269  -15.4319   19.0723 O   0  0  0  0  0  0  0  0  0  0  0  0
    9.0680  -15.0382   20.8248 C   0  0  0  0  0  0  0  0  0  0  0  0
    8.9837  -16.1410   21.8385 C   0  0  2  0  0  0  0  0  0  0  0  0
    7.6707  -16.6897   21.8691 N   0  0  0  0  0  0  0  0  0  0  0  0
    9.4153  -15.7016   23.1908 C   0  0  0  0  0  0  0  0  0  0  0  0
   10.5135  -15.1103   23.3717 O   0  0  0  0  0  0  0  0  0  0  0  0
    8.6253  -15.9177   24.3550 N   0  0  0  0  0  0  0  0  0  0  0  0
    9.1067  -15.6980   25.7035 C   0  0  1  0  0  0  0  0  0  0  0  0
    8.0655  -15.1625   26.6156 C   0  0  0  0  0  0  0  0  0  0  0  0
    7.5224  -13.8418   26.2612 C   0  0  0  0  0  0  0  0  0  0  0  0
    8.3290  -12.7339   26.1239 C   0  0  0  0  0  0  0  0  0  0  0  0
    7.8080  -11.5064   25.7927 C   0  0  0  0  0  0  0  0  0  0  0  0
    6.4630  -11.3252   25.5833 C   0  0  0  0  0  0  0  0  0  0  0  0
    5.6400  -12.4252   25.7169 C   0  0  0  0  0  0  0  0  0  0  0  0
    6.1543  -13.6552   26.0478 C   0  0  0  0  0  0  0  0  0  0  0  0
    9.8003  -16.8719   26.2593 C   0  0  0  0  0  0  0  0  0  0  0  0
   10.2397  -16.7981   27.4251 O   0  0  0  0  0  0  0  0  0  0  0  0
   10.7250  -20.4028   25.1797 C   0  0  0  0  0  0  0  0  0  0  0  0
   10.7205  -19.2023   26.1087 C   0  0  2  0  0  0  0  0  0  0  0  0
    9.9998  -18.0843   25.5482 N   0  0  0  0  0  0  0  0  0  0  0  0
   12.0832  -18.8528   26.5335 C   0  0  0  0  0  0  0  0  0  0  0  0
   12.5272  -19.2678   27.6243 O   0  0  0  0  0  0  0  0  0  0  0  0
   12.8878  -18.0658   25.7386 O   0  0  0  0  0  0  0  0  0  0  0  0
  2  1  1  0
  2  3  2  0
  4  2  1  0
  5  4  1  0
  5  7  1  0
  5  6  1  1
  7  8  2  0
  9  7  1  0
  9 10  1  0
 10 11  1  1
 11 12  1  0
 12 17  2  0
 13 12  1  0
 13 14  2  0
 14 15  1  0
 15 16  2  0
 17 16  1  0
 18 10  1  0
 18 19  2  0
 21 20  1  6
 21 22  1  0
 21 23  1  0
 22 18  1  0
 23 25  1  0
 24 23  2  0
M  END
$$$$
