NFA.pdb
     RDKit          3D

 25 25  0  0  1  0  0  0  0  0999 V2000
   10.8803  -15.7949   18.3397 N   0  0  0  0  0  0  0  0  0  0  0  0
    9.6929  -15.4118   19.0094 C   0  0  0  0  0  0  0  0  0  0  0  0
    8.6225  -15.3773   18.3645 O   0  0  0  0  0  0  0  0  0  0  0  0
    9.7460  -15.0690   20.4245 C   0  0  0  0  0  0  0  0  0  0  0  0
    9.5415  -16.2374   21.3431 C   0  0  2  0  0  0  0  0  0  0  0  0
    8.2707  -16.8357   21.1121 N   0  0  0  0  0  0  0  0  0  0  0  0
    9.7119  -15.8705   22.7729 C   0  0  0  0  0  0  0  0  0  0  0  0
   10.7804  -15.3544   23.1974 O   0  0  0  0  0  0  0  0  0  0  0  0
    8.6910  -16.0758   23.7435 N   0  0  0  0  0  0  0  0  0  0  0  0
    8.8878  -15.8900   25.1666 C   0  0  1  0  0  0  0  0  0  0  0  0
    7.6467  -15.5021   25.8822 C   0  0  0  0  0  0  0  0  0  0  0  0
    7.4040  -14.0560   26.0043 C   0  0  0  0  0  0  0  0  0  0  0  0
    8.4340  -13.1523   26.1428 C   0  0  0  0  0  0  0  0  0  0  0  0
    8.1925  -11.8044   26.2560 C   0  0  0  0  0  0  0  0  0  0  0  0
    6.9175  -11.2949   26.2367 C   0  0  0  0  0  0  0  0  0  0  0  0
    5.8733  -12.1867   26.0986 C   0  0  0  0  0  0  0  0  0  0  0  0
    6.1077  -13.5355   25.9849 C   0  0  0  0  0  0  0  0  0  0  0  0
    9.5778  -17.0262   25.7997 C   0  0  0  0  0  0  0  0  0  0  0  0
    9.6937  -17.0256   27.0423 O   0  0  0  0  0  0  0  0  0  0  0  0
   11.1836  -20.3140   24.7504 C   0  0  0  0  0  0  0  0  0  0  0  0
   10.7495  -19.2451   25.7370 C   0  0  2  0  0  0  0  0  0  0  0  0
   10.1198  -18.1240   25.0810 N   0  0  0  0  0  0  0  0  0  0  0  0
   11.8593  -18.8483   26.6145 C   0  0  0  0  0  0  0  0  0  0  0  0
   11.9704  -19.3495   27.7528 O   0  0  0  0  0  0  0  0  0  0  0  0
   12.7897  -17.9217   26.1969 O   0  0  0  0  0  0  0  0  0  0  0  0
  2  1  1  0
  2  3  2  0
  4  2  1  0
  5  4  1  0
  5  7  1  0
  5  6  1  1
  7  8  2  0
  9  7  1  0
  9 10  1  0
 10 11  1  1
 11 12  1  0
 12 17  2  0
 13 12  1  0
 13 14  2  0
 14 15  1  0
 15 16  2  0
 17 16  1  0
 18 10  1  0
 18 19  2  0
 21 20  1  6
 21 22  1  0
 21 23  1  0
 22 18  1  0
 23 25  1  0
 24 23  2  0
M  END
$$$$
