NFA.pdb
     RDKit          3D

 25 25  0  0  1  0  0  0  0  0999 V2000
    8.9926  -16.1439   16.9688 N   0  0  0  0  0  0  0  0  0  0  0  0
    9.9818  -16.6638   17.8385 C   0  0  0  0  0  0  0  0  0  0  0  0
   10.5713  -17.7185   17.5174 O   0  0  0  0  0  0  0  0  0  0  0  0
   10.2873  -15.9626   19.0785 C   0  0  0  0  0  0  0  0  0  0  0  0
    9.8421  -16.6870   20.3145 C   0  0  2  0  0  0  0  0  0  0  0  0
    8.6174  -17.3720   20.0760 N   0  0  0  0  0  0  0  0  0  0  0  0
    9.7348  -15.7862   21.4914 C   0  0  0  0  0  0  0  0  0  0  0  0
   10.7156  -15.1013   21.8880 O   0  0  0  0  0  0  0  0  0  0  0  0
    8.5314  -15.6407   22.2376 N   0  0  0  0  0  0  0  0  0  0  0  0
    8.4472  -14.9214   23.4922 C   0  0  1  0  0  0  0  0  0  0  0  0
    7.1533  -14.2179   23.6767 C   0  0  0  0  0  0  0  0  0  0  0  0
    7.0374  -13.4007   24.8947 C   0  0  0  0  0  0  0  0  0  0  0  0
    7.7498  -12.2338   25.0611 C   0  0  0  0  0  0  0  0  0  0  0  0
    7.6318  -11.4806   26.2043 C   0  0  0  0  0  0  0  0  0  0  0  0
    6.8011  -11.8532   27.2323 C   0  0  0  0  0  0  0  0  0  0  0  0
    6.0797  -13.0202   27.0820 C   0  0  0  0  0  0  0  0  0  0  0  0
    6.1929  -13.7779   25.9418 C   0  0  0  0  0  0  0  0  0  0  0  0
    8.8129  -15.7524   24.6514 C   0  0  0  0  0  0  0  0  0  0  0  0
    8.5287  -15.3302   25.7908 O   0  0  0  0  0  0  0  0  0  0  0  0
    9.6120  -19.2821   25.4674 C   0  0  0  0  0  0  0  0  0  0  0  0
    9.8136  -17.7970   25.7089 C   0  0  2  0  0  0  0  0  0  0  0  0
    9.4701  -17.0068   24.5509 N   0  0  0  0  0  0  0  0  0  0  0  0
   11.1650  -17.5186   26.2144 C   0  0  0  0  0  0  0  0  0  0  0  0
   11.9242  -16.7502   25.5880 O   0  0  0  0  0  0  0  0  0  0  0  0
   11.6129  -18.0981   27.3815 O   0  0  0  0  0  0  0  0  0  0  0  0
  2  1  1  0
  2  3  2  0
  4  2  1  0
  5  4  1  0
  5  7  1  0
  5  6  1  6
  7  8  2  0
  9  7  1  0
  9 10  1  0
 10 11  1  1
 11 12  1  0
 12 17  2  0
 13 12  1  0
 13 14  2  0
 14 15  1  0
 15 16  2  0
 17 16  1  0
 18 10  1  0
 18 19  2  0
 21 20  1  6
 21 22  1  0
 21 23  1  0
 22 18  1  0
 23 25  1  0
 24 23  2  0
M  END
$$$$
