NFA.pdb
     RDKit          3D

 25 25  0  0  1  0  0  0  0  0999 V2000
    9.1796  -19.8044   19.4452 N   0  0  0  0  0  0  0  0  0  0  0  0
   10.2812  -19.8693   20.3325 C   0  0  0  0  0  0  0  0  0  0  0  0
   11.0168  -20.8798   20.3057 O   0  0  0  0  0  0  0  0  0  0  0  0
   10.5299  -18.7648   21.2495 C   0  0  0  0  0  0  0  0  0  0  0  0
    9.8147  -17.4972   20.8858 C   0  0  2  0  0  0  0  0  0  0  0  0
   10.3777  -16.9282   19.7088 N   0  0  0  0  0  0  0  0  0  0  0  0
    9.7966  -16.5166   22.0022 C   0  0  0  0  0  0  0  0  0  0  0  0
   10.8472  -15.9353   22.3850 O   0  0  0  0  0  0  0  0  0  0  0  0
    8.6053  -16.1751   22.7026 N   0  0  0  0  0  0  0  0  0  0  0  0
    8.5672  -15.2517   23.8181 C   0  0  1  0  0  0  0  0  0  0  0  0
    7.3027  -14.4782   23.8933 C   0  0  0  0  0  0  0  0  0  0  0  0
    7.1977  -13.5312   25.0145 C   0  0  0  0  0  0  0  0  0  0  0  0
    6.3425  -13.7450   26.0727 C   0  0  0  0  0  0  0  0  0  0  0  0
    6.2547  -12.8517   27.1131 C   0  0  0  0  0  0  0  0  0  0  0  0
    7.0123  -11.7070   27.1482 C   0  0  0  0  0  0  0  0  0  0  0  0
    7.8748  -11.4772   26.0955 C   0  0  0  0  0  0  0  0  0  0  0  0
    7.9676  -12.3660   25.0522 C   0  0  0  0  0  0  0  0  0  0  0  0
    8.9211  -15.8885   25.0976 C   0  0  0  0  0  0  0  0  0  0  0  0
    8.1808  -16.7967   25.5272 O   0  0  0  0  0  0  0  0  0  0  0  0
   11.9594  -16.6434   26.9570 C   0  0  0  0  0  0  0  0  0  0  0  0
   10.4828  -16.2970   27.0198 C   0  0  2  0  0  0  0  0  0  0  0  0
   10.0554  -15.5313   25.8732 N   0  0  0  0  0  0  0  0  0  0  0  0
   10.1398  -15.6581   28.2978 C   0  0  0  0  0  0  0  0  0  0  0  0
    9.6762  -14.4987   28.3162 O   0  0  0  0  0  0  0  0  0  0  0  0
   10.3233  -16.3251   29.4894 O   0  0  0  0  0  0  0  0  0  0  0  0
  2  1  1  0
  2  3  2  0
  4  2  1  0
  5  4  1  0
  5  7  1  0
  5  6  1  6
  7  8  2  0
  9  7  1  0
  9 10  1  0
 10 11  1  1
 11 12  1  0
 12 17  2  0
 13 12  1  0
 13 14  2  0
 14 15  1  0
 15 16  2  0
 17 16  1  0
 18 10  1  0
 18 19  2  0
 21 20  1  6
 21 22  1  0
 21 23  1  0
 22 18  1  0
 23 25  1  0
 24 23  2  0
M  END
$$$$
