NFA.pdb
     RDKit          3D

 25 25  0  0  1  0  0  0  0  0999 V2000
    8.5157  -12.3190   18.7245 N   0  0  0  0  0  0  0  0  0  0  0  0
    7.7840  -13.2966   19.4414 C   0  0  0  0  0  0  0  0  0  0  0  0
    6.9772  -14.0209   18.8189 O   0  0  0  0  0  0  0  0  0  0  0  0
    7.9869  -13.4346   20.8775 C   0  0  0  0  0  0  0  0  0  0  0  0
    8.4465  -14.7988   21.3002 C   0  0  2  0  0  0  0  0  0  0  0  0
    7.4030  -15.7513   21.1273 N   0  0  0  0  0  0  0  0  0  0  0  0
    8.9655  -14.8155   22.6925 C   0  0  0  0  0  0  0  0  0  0  0  0
   10.0008  -14.1743   23.0169 O   0  0  0  0  0  0  0  0  0  0  0  0
    8.3340  -15.5483   23.7367 N   0  0  0  0  0  0  0  0  0  0  0  0
    8.8563  -15.6354   25.0851 C   0  0  1  0  0  0  0  0  0  0  0  0
    7.8303  -15.3800   26.1267 C   0  0  0  0  0  0  0  0  0  0  0  0
    7.3935  -13.9819   26.2652 C   0  0  0  0  0  0  0  0  0  0  0  0
    8.2197  -13.0066   26.7782 C   0  0  0  0  0  0  0  0  0  0  0  0
    7.7983  -11.7047   26.9021 C   0  0  0  0  0  0  0  0  0  0  0  0
    6.5379  -11.3142   26.5218 C   0  0  0  0  0  0  0  0  0  0  0  0
    5.6968  -12.2790   26.0056 C   0  0  0  0  0  0  0  0  0  0  0  0
    6.1117  -13.5824   25.8790 C   0  0  0  0  0  0  0  0  0  0  0  0
    9.6129  -16.8758   25.3242 C   0  0  0  0  0  0  0  0  0  0  0  0
    9.8268  -17.2158   26.5058 O   0  0  0  0  0  0  0  0  0  0  0  0
   10.9536  -19.8180   23.3485 C   0  0  0  0  0  0  0  0  0  0  0  0
   10.8746  -18.9066   24.5599 C   0  0  2  0  0  0  0  0  0  0  0  0
   10.1144  -17.7095   24.2903 N   0  0  0  0  0  0  0  0  0  0  0  0
   12.2107  -18.6283   25.1047 C   0  0  0  0  0  0  0  0  0  0  0  0
   12.7543  -17.5226   24.9017 O   0  0  0  0  0  0  0  0  0  0  0  0
   12.8807  -19.5783   25.8443 O   0  0  0  0  0  0  0  0  0  0  0  0
  2  1  1  0
  2  3  2  0
  4  2  1  0
  5  4  1  0
  5  7  1  0
  5  6  1  1
  7  8  2  0
  9  7  1  0
  9 10  1  0
 10 11  1  1
 11 12  1  0
 12 17  2  0
 13 12  1  0
 13 14  2  0
 14 15  1  0
 15 16  2  0
 17 16  1  0
 18 10  1  0
 18 19  2  0
 21 20  1  6
 21 22  1  0
 21 23  1  0
 22 18  1  0
 23 25  1  0
 24 23  2  0
M  END
$$$$
