NFA.pdb
     RDKit          3D

 25 25  0  0  1  0  0  0  0  0999 V2000
    7.9957  -12.3679   18.5439 N   0  0  0  0  0  0  0  0  0  0  0  0
    8.0406  -13.5965   19.2464 C   0  0  0  0  0  0  0  0  0  0  0  0
    7.7492  -14.6488   18.6376 O   0  0  0  0  0  0  0  0  0  0  0  0
    8.4226  -13.6055   20.6523 C   0  0  0  0  0  0  0  0  0  0  0  0
    8.3923  -14.9660   21.2838 C   0  0  2  0  0  0  0  0  0  0  0  0
    7.0876  -15.5280   21.1930 N   0  0  0  0  0  0  0  0  0  0  0  0
    8.8745  -14.9491   22.6894 C   0  0  0  0  0  0  0  0  0  0  0  0
    9.9664  -14.4041   23.0042 O   0  0  0  0  0  0  0  0  0  0  0  0
    8.1427  -15.5403   23.7576 N   0  0  0  0  0  0  0  0  0  0  0  0
    8.6344  -15.6233   25.1176 C   0  0  1  0  0  0  0  0  0  0  0  0
    7.5868  -15.3573   26.1349 C   0  0  0  0  0  0  0  0  0  0  0  0
    7.1904  -13.9491   26.2920 C   0  0  0  0  0  0  0  0  0  0  0  0
    5.8984  -13.5258   26.0723 C   0  0  0  0  0  0  0  0  0  0  0  0
    5.5424  -12.2072   26.2226 C   0  0  0  0  0  0  0  0  0  0  0  0
    6.4539  -11.2512   26.5977 C   0  0  0  0  0  0  0  0  0  0  0  0
    7.7535  -11.6582   26.8220 C   0  0  0  0  0  0  0  0  0  0  0  0
    8.1162  -12.9748   26.6735 C   0  0  0  0  0  0  0  0  0  0  0  0
    9.3789  -16.8662   25.3797 C   0  0  0  0  0  0  0  0  0  0  0  0
    9.5673  -17.1997   26.5674 O   0  0  0  0  0  0  0  0  0  0  0  0
   10.7499  -19.8269   23.4533 C   0  0  0  0  0  0  0  0  0  0  0  0
   10.6543  -18.9025   24.6536 C   0  0  2  0  0  0  0  0  0  0  0  0
    9.8961  -17.7095   24.3614 N   0  0  0  0  0  0  0  0  0  0  0  0
   11.9830  -18.6165   25.2123 C   0  0  0  0  0  0  0  0  0  0  0  0
   12.6392  -19.5220   25.7680 O   0  0  0  0  0  0  0  0  0  0  0  0
   12.5225  -17.3512   25.1321 O   0  0  0  0  0  0  0  0  0  0  0  0
  2  1  1  0
  2  3  2  0
  4  2  1  0
  5  4  1  0
  5  7  1  0
  5  6  1  1
  7  8  2  0
  9  7  1  0
  9 10  1  0
 10 11  1  1
 11 12  1  0
 12 17  2  0
 13 12  1  0
 13 14  2  0
 14 15  1  0
 15 16  2  0
 17 16  1  0
 18 10  1  0
 18 19  2  0
 21 20  1  6
 21 22  1  0
 21 23  1  0
 22 18  1  0
 23 25  1  0
 24 23  2  0
M  END
$$$$
