NFA.pdb
     RDKit          3D

 25 25  0  0  1  0  0  0  0  0999 V2000
    7.7750  -19.3260   18.9169 N   0  0  0  0  0  0  0  0  0  0  0  0
    9.1373  -19.4043   19.2952 C   0  0  0  0  0  0  0  0  0  0  0  0
    9.8705  -20.2467   18.7333 O   0  0  0  0  0  0  0  0  0  0  0  0
    9.6491  -18.5078   20.3233 C   0  0  0  0  0  0  0  0  0  0  0  0
    9.1648  -17.0936   20.1955 C   0  0  2  0  0  0  0  0  0  0  0  0
    9.8239  -16.4372   19.1181 N   0  0  0  0  0  0  0  0  0  0  0  0
    9.3095  -16.3287   21.4613 C   0  0  0  0  0  0  0  0  0  0  0  0
   10.4411  -16.0993   21.9663 O   0  0  0  0  0  0  0  0  0  0  0  0
    8.1922  -15.8120   22.1761 N   0  0  0  0  0  0  0  0  0  0  0  0
    8.3069  -15.0549   23.4058 C   0  0  1  0  0  0  0  0  0  0  0  0
    7.1511  -14.1558   23.6483 C   0  0  0  0  0  0  0  0  0  0  0  0
    7.1488  -13.4511   24.9399 C   0  0  0  0  0  0  0  0  0  0  0  0
    6.1979  -13.6991   25.9048 C   0  0  0  0  0  0  0  0  0  0  0  0
    6.2078  -13.0331   27.1066 C   0  0  0  0  0  0  0  0  0  0  0  0
    7.1626  -12.0917   27.4029 C   0  0  0  0  0  0  0  0  0  0  0  0
    8.1233  -11.8309   26.4470 C   0  0  0  0  0  0  0  0  0  0  0  0
    8.1192  -12.4930   25.2434 C   0  0  0  0  0  0  0  0  0  0  0  0
    8.6228  -15.9010   24.5686 C   0  0  0  0  0  0  0  0  0  0  0  0
    7.7580  -16.7120   24.9583 O   0  0  0  0  0  0  0  0  0  0  0  0
   11.6356  -17.3980   25.9563 C   0  0  0  0  0  0  0  0  0  0  0  0
   10.2424  -16.8605   26.2290 C   0  0  2  0  0  0  0  0  0  0  0  0
    9.8536  -15.8499   25.2743 N   0  0  0  0  0  0  0  0  0  0  0  0
   10.1067  -16.4164   27.6232 C   0  0  0  0  0  0  0  0  0  0  0  0
   10.3711  -17.1983   28.5602 O   0  0  0  0  0  0  0  0  0  0  0  0
    9.6876  -15.1370   27.9164 O   0  0  0  0  0  0  0  0  0  0  0  0
  2  1  1  0
  2  3  2  0
  4  2  1  0
  5  4  1  0
  5  7  1  0
  5  6  1  6
  7  8  2  0
  9  7  1  0
  9 10  1  0
 10 11  1  1
 11 12  1  0
 12 17  2  0
 13 12  1  0
 13 14  2  0
 14 15  1  0
 15 16  2  0
 17 16  1  0
 18 10  1  0
 18 19  2  0
 21 20  1  6
 21 22  1  0
 21 23  1  0
 22 18  1  0
 23 25  1  0
 24 23  2  0
M  END
$$$$
