NFA.pdb
     RDKit          3D

 25 25  0  0  1  0  0  0  0  0999 V2000
   10.9942  -17.0299   17.8190 N   0  0  0  0  0  0  0  0  0  0  0  0
   11.0215  -17.7442   19.0414 C   0  0  0  0  0  0  0  0  0  0  0  0
   10.9695  -18.9929   19.0101 O   0  0  0  0  0  0  0  0  0  0  0  0
   11.1089  -17.0124   20.2982 C   0  0  0  0  0  0  0  0  0  0  0  0
   10.0950  -17.4332   21.3207 C   0  0  2  0  0  0  0  0  0  0  0  0
    8.8389  -17.6870   20.7010 N   0  0  0  0  0  0  0  0  0  0  0  0
    9.9613  -16.4477   22.4249 C   0  0  0  0  0  0  0  0  0  0  0  0
   10.9723  -15.9542   22.9929 O   0  0  0  0  0  0  0  0  0  0  0  0
    8.6975  -16.0031   22.9060 N   0  0  0  0  0  0  0  0  0  0  0  0
    8.5365  -15.1349   24.0545 C   0  0  1  0  0  0  0  0  0  0  0  0
    7.3600  -14.2365   23.9473 C   0  0  0  0  0  0  0  0  0  0  0  0
    7.1964  -13.2637   25.0389 C   0  0  0  0  0  0  0  0  0  0  0  0
    6.2370  -13.4167   26.0151 C   0  0  0  0  0  0  0  0  0  0  0  0
    6.0954  -12.5000   27.0288 C   0  0  0  0  0  0  0  0  0  0  0  0
    6.9004  -11.3910   27.1175 C   0  0  0  0  0  0  0  0  0  0  0  0
    7.8674  -11.2221   26.1472 C   0  0  0  0  0  0  0  0  0  0  0  0
    8.0143  -12.1348   25.1311 C   0  0  0  0  0  0  0  0  0  0  0  0
    8.5792  -15.8659   25.3319 C   0  0  0  0  0  0  0  0  0  0  0  0
    8.8508  -15.2248   26.3676 O   0  0  0  0  0  0  0  0  0  0  0  0
    7.5730  -19.2429   26.6913 C   0  0  0  0  0  0  0  0  0  0  0  0
    8.3466  -17.9374   26.7301 C   0  0  2  0  0  0  0  0  0  0  0  0
    8.3297  -17.2579   25.4567 N   0  0  0  0  0  0  0  0  0  0  0  0
    9.7038  -18.1384   27.2564 C   0  0  0  0  0  0  0  0  0  0  0  0
   10.6977  -17.8839   26.5447 O   0  0  0  0  0  0  0  0  0  0  0  0
    9.8995  -18.6083   28.5368 O   0  0  0  0  0  0  0  0  0  0  0  0
  2  1  1  0
  2  3  2  0
  4  2  1  0
  5  4  1  0
  5  7  1  0
  5  6  1  6
  7  8  2  0
  9  7  1  0
  9 10  1  0
 10 11  1  6
 11 12  1  0
 12 17  2  0
 13 12  1  0
 13 14  2  0
 14 15  1  0
 15 16  2  0
 17 16  1  0
 18 10  1  0
 18 19  2  0
 21 20  1  6
 21 22  1  0
 21 23  1  0
 22 18  1  0
 23 25  1  0
 24 23  2  0
M  END
$$$$
