NFA.pdb
     RDKit          3D

 25 25  0  0  1  0  0  0  0  0999 V2000
    7.6362  -12.5850   18.2188 N   0  0  0  0  0  0  0  0  0  0  0  0
    8.1487  -13.7322   18.8718 C   0  0  0  0  0  0  0  0  0  0  0  0
    8.2705  -14.7919   18.2196 O   0  0  0  0  0  0  0  0  0  0  0  0
    8.5195  -13.6516   20.2784 C   0  0  0  0  0  0  0  0  0  0  0  0
    8.4237  -14.9577   21.0103 C   0  0  2  0  0  0  0  0  0  0  0  0
    7.0999  -15.4751   20.9338 N   0  0  0  0  0  0  0  0  0  0  0  0
    8.8797  -14.8516   22.4206 C   0  0  0  0  0  0  0  0  0  0  0  0
    9.9605  -14.2776   22.7217 O   0  0  0  0  0  0  0  0  0  0  0  0
    8.1336  -15.3852   23.5091 N   0  0  0  0  0  0  0  0  0  0  0  0
    8.6269  -15.4387   24.8702 C   0  0  1  0  0  0  0  0  0  0  0  0
    7.5622  -15.2430   25.8856 C   0  0  0  0  0  0  0  0  0  0  0  0
    7.1682  -13.8482   26.1389 C   0  0  0  0  0  0  0  0  0  0  0  0
    8.0982  -12.8492   26.3230 C   0  0  0  0  0  0  0  0  0  0  0  0
    7.7158  -11.5507   26.5590 C   0  0  0  0  0  0  0  0  0  0  0  0
    6.3930  -11.1874   26.6224 C   0  0  0  0  0  0  0  0  0  0  0  0
    5.4477  -12.1763   26.4401 C   0  0  0  0  0  0  0  0  0  0  0  0
    5.8231  -13.4764   26.2038 C   0  0  0  0  0  0  0  0  0  0  0  0
    9.4497  -16.6313   25.1317 C   0  0  0  0  0  0  0  0  0  0  0  0
    9.7068  -16.9199   26.3183 O   0  0  0  0  0  0  0  0  0  0  0  0
   10.7802  -19.6083   23.2061 C   0  0  0  0  0  0  0  0  0  0  0  0
   10.7004  -18.6835   24.4073 C   0  0  2  0  0  0  0  0  0  0  0  0
    9.9691  -17.4741   24.1140 N   0  0  0  0  0  0  0  0  0  0  0  0
   12.0330  -18.4270   24.9710 C   0  0  0  0  0  0  0  0  0  0  0  0
   12.6137  -19.3089   25.6375 O   0  0  0  0  0  0  0  0  0  0  0  0
   12.6590  -17.2155   24.7737 O   0  0  0  0  0  0  0  0  0  0  0  0
  2  1  1  0
  2  3  2  0
  4  2  1  0
  5  4  1  0
  5  7  1  0
  5  6  1  1
  7  8  2  0
  9  7  1  0
  9 10  1  0
 10 11  1  1
 11 12  1  0
 12 17  2  0
 13 12  1  0
 13 14  2  0
 14 15  1  0
 15 16  2  0
 17 16  1  0
 18 10  1  0
 18 19  2  0
 21 20  1  6
 21 22  1  0
 21 23  1  0
 22 18  1  0
 23 25  1  0
 24 23  2  0
M  END
$$$$
