NFA.pdb
     RDKit          3D

 25 25  0  0  1  0  0  0  0  0999 V2000
    8.2671  -15.6144   17.9172 N   0  0  0  0  0  0  0  0  0  0  0  0
    8.2343  -14.3558   18.5652 C   0  0  0  0  0  0  0  0  0  0  0  0
    7.9858  -13.3358   17.8864 O   0  0  0  0  0  0  0  0  0  0  0  0
    8.4891  -14.2794   19.9976 C   0  0  0  0  0  0  0  0  0  0  0  0
    8.6791  -15.6143   20.6554 C   0  0  2  0  0  0  0  0  0  0  0  0
    7.5126  -16.4154   20.5018 N   0  0  0  0  0  0  0  0  0  0  0  0
    9.0635  -15.4916   22.0856 C   0  0  0  0  0  0  0  0  0  0  0  0
   10.1469  -14.9489   22.4319 O   0  0  0  0  0  0  0  0  0  0  0  0
    8.2422  -15.9735   23.1436 N   0  0  0  0  0  0  0  0  0  0  0  0
    8.6038  -15.8857   24.5436 C   0  0  1  0  0  0  0  0  0  0  0  0
    7.4571  -15.5474   25.4231 C   0  0  0  0  0  0  0  0  0  0  0  0
    7.3587  -14.1375   25.8321 C   0  0  0  0  0  0  0  0  0  0  0  0
    6.4558  -13.2717   25.2559 C   0  0  0  0  0  0  0  0  0  0  0  0
    6.3751  -11.9572   25.6478 C   0  0  0  0  0  0  0  0  0  0  0  0
    7.1876  -11.4448   26.6291 C   0  0  0  0  0  0  0  0  0  0  0  0
    8.0984  -12.2988   27.2173 C   0  0  0  0  0  0  0  0  0  0  0  0
    8.1844  -13.6141   26.8303 C   0  0  0  0  0  0  0  0  0  0  0  0
    9.3529  -17.0629   25.0137 C   0  0  0  0  0  0  0  0  0  0  0  0
    8.7885  -18.1751   24.9702 O   0  0  0  0  0  0  0  0  0  0  0  0
   12.8680  -17.9759   26.0769 C   0  0  0  0  0  0  0  0  0  0  0  0
   11.3638  -18.1730   26.0260 C   0  0  2  0  0  0  0  0  0  0  0  0
   10.6804  -17.0091   25.5142 N   0  0  0  0  0  0  0  0  0  0  0  0
   10.8414  -18.6216   27.3242 C   0  0  0  0  0  0  0  0  0  0  0  0
   10.7756  -19.8403   27.5879 O   0  0  0  0  0  0  0  0  0  0  0  0
   10.4183  -17.7087   28.2656 O   0  0  0  0  0  0  0  0  0  0  0  0
  2  1  1  0
  2  3  2  0
  4  2  1  0
  5  4  1  0
  5  7  1  0
  5  6  1  1
  7  8  2  0
  9  7  1  0
  9 10  1  0
 10 11  1  1
 11 12  1  0
 12 17  2  0
 13 12  1  0
 13 14  2  0
 14 15  1  0
 15 16  2  0
 17 16  1  0
 18 10  1  0
 18 19  2  0
 21 20  1  1
 21 22  1  0
 21 23  1  0
 22 18  1  0
 23 25  1  0
 24 23  2  0
M  END
$$$$
