NFA.pdb
     RDKit          3D

 25 25  0  0  1  0  0  0  0  0999 V2000
    7.6241  -18.1456   17.9589 N   0  0  0  0  0  0  0  0  0  0  0  0
    8.1522  -18.8623   19.0600 C   0  0  0  0  0  0  0  0  0  0  0  0
    8.2789  -20.1025   18.9659 O   0  0  0  0  0  0  0  0  0  0  0  0
    8.5328  -18.1429   20.2684 C   0  0  0  0  0  0  0  0  0  0  0  0
    8.1931  -16.6819   20.2409 C   0  0  2  0  0  0  0  0  0  0  0  0
    8.7821  -16.0551   19.1068 N   0  0  0  0  0  0  0  0  0  0  0  0
    8.5745  -15.9878   21.4983 C   0  0  0  0  0  0  0  0  0  0  0  0
    9.7602  -15.6183   21.7128 O   0  0  0  0  0  0  0  0  0  0  0  0
    7.6362  -15.6992   22.5291 N   0  0  0  0  0  0  0  0  0  0  0  0
    7.9897  -15.0593   23.7797 C   0  0  1  0  0  0  0  0  0  0  0  0
    6.8350  -14.4136   24.4525 C   0  0  0  0  0  0  0  0  0  0  0  0
    7.1449  -13.6743   25.6862 C   0  0  0  0  0  0  0  0  0  0  0  0
    7.4450  -12.3301   25.6756 C   0  0  0  0  0  0  0  0  0  0  0  0
    7.7327  -11.6523   26.8357 C   0  0  0  0  0  0  0  0  0  0  0  0
    7.7350  -12.2797   28.0572 C   0  0  0  0  0  0  0  0  0  0  0  0
    7.4364  -13.6269   28.0860 C   0  0  0  0  0  0  0  0  0  0  0  0
    7.1478  -14.3105   26.9300 C   0  0  0  0  0  0  0  0  0  0  0  0
    8.7490  -15.9447   24.6783 C   0  0  0  0  0  0  0  0  0  0  0  0
    8.2882  -17.0806   24.9122 O   0  0  0  0  0  0  0  0  0  0  0  0
   12.1914  -16.6344   25.4460 C   0  0  0  0  0  0  0  0  0  0  0  0
   10.7888  -16.5328   26.0176 C   0  0  2  0  0  0  0  0  0  0  0  0
    9.9754  -15.5837   25.2956 N   0  0  0  0  0  0  0  0  0  0  0  0
   10.8208  -16.2786   27.4646 C   0  0  0  0  0  0  0  0  0  0  0  0
   10.2310  -15.2867   27.9415 O   0  0  0  0  0  0  0  0  0  0  0  0
   11.4987  -17.1267   28.3130 O   0  0  0  0  0  0  0  0  0  0  0  0
  2  1  1  0
  2  3  2  0
  4  2  1  0
  5  4  1  0
  5  7  1  0
  5  6  1  6
  7  8  2  0
  9  7  1  0
  9 10  1  0
 10 11  1  1
 11 12  1  0
 12 17  2  0
 13 12  1  0
 13 14  2  0
 14 15  1  0
 15 16  2  0
 17 16  1  0
 18 10  1  0
 18 19  2  0
 21 20  1  6
 21 22  1  0
 21 23  1  0
 22 18  1  0
 23 25  1  0
 24 23  2  0
M  END
$$$$
