NFA.pdb
     RDKit          3D

 25 25  0  0  1  0  0  0  0  0999 V2000
    9.1594  -18.4772   18.2673 N   0  0  0  0  0  0  0  0  0  0  0  0
    9.2385  -19.1686   19.5005 C   0  0  0  0  0  0  0  0  0  0  0  0
    9.0576  -20.4056   19.5096 O   0  0  0  0  0  0  0  0  0  0  0  0
    9.5266  -18.4276   20.7214 C   0  0  0  0  0  0  0  0  0  0  0  0
    9.6867  -16.9503   20.5148 C   0  0  2  0  0  0  0  0  0  0  0  0
   10.8550  -16.6787   19.7484 N   0  0  0  0  0  0  0  0  0  0  0  0
    9.6959  -16.1969   21.7956 C   0  0  0  0  0  0  0  0  0  0  0  0
   10.7474  -16.0732   22.4792 O   0  0  0  0  0  0  0  0  0  0  0  0
    8.5312  -15.5740   22.3263 N   0  0  0  0  0  0  0  0  0  0  0  0
    8.4943  -14.9027   23.6095 C   0  0  1  0  0  0  0  0  0  0  0  0
    7.3417  -13.9786   23.7525 C   0  0  0  0  0  0  0  0  0  0  0  0
    7.2048  -13.3247   25.0634 C   0  0  0  0  0  0  0  0  0  0  0  0
    8.0602  -12.3264   25.4739 C   0  0  0  0  0  0  0  0  0  0  0  0
    7.9206  -11.7247   26.7013 C   0  0  0  0  0  0  0  0  0  0  0  0
    6.9253  -12.0879   27.5748 C   0  0  0  0  0  0  0  0  0  0  0  0
    6.0590  -13.0869   27.1793 C   0  0  0  0  0  0  0  0  0  0  0  0
    6.1929  -13.6927   25.9537 C   0  0  0  0  0  0  0  0  0  0  0  0
    8.6209  -15.8334   24.7434 C   0  0  0  0  0  0  0  0  0  0  0  0
    7.7072  -16.6631   24.9282 O   0  0  0  0  0  0  0  0  0  0  0  0
   11.0613  -17.8128   26.2444 C   0  0  0  0  0  0  0  0  0  0  0  0
    9.9156  -16.8892   26.6168 C   0  0  2  0  0  0  0  0  0  0  0  0
    9.7212  -15.8439   25.6405 N   0  0  0  0  0  0  0  0  0  0  0  0
   10.0686  -16.3762   27.9852 C   0  0  0  0  0  0  0  0  0  0  0  0
   10.2034  -17.1677   28.9416 O   0  0  0  0  0  0  0  0  0  0  0  0
   10.0658  -15.0208   28.2329 O   0  0  0  0  0  0  0  0  0  0  0  0
  2  1  1  0
  2  3  2  0
  4  2  1  0
  5  4  1  0
  5  7  1  0
  5  6  1  1
  7  8  2  0
  9  7  1  0
  9 10  1  0
 10 11  1  1
 11 12  1  0
 12 17  2  0
 13 12  1  0
 13 14  2  0
 14 15  1  0
 15 16  2  0
 17 16  1  0
 18 10  1  0
 18 19  2  0
 21 20  1  6
 21 22  1  0
 21 23  1  0
 22 18  1  0
 23 25  1  0
 24 23  2  0
M  END
$$$$
