NFA.pdb
     RDKit          3D

 25 25  0  0  1  0  0  0  0  0999 V2000
   12.1141  -17.7032   17.4669 N   0  0  0  0  0  0  0  0  0  0  0  0
   10.8845  -17.1893   17.9455 C   0  0  0  0  0  0  0  0  0  0  0  0
    9.8423  -17.4180   17.2941 O   0  0  0  0  0  0  0  0  0  0  0  0
   10.8628  -16.4116   19.1773 C   0  0  0  0  0  0  0  0  0  0  0  0
   10.2169  -17.1174   20.3329 C   0  0  2  0  0  0  0  0  0  0  0  0
    8.9437  -17.6293   19.9548 N   0  0  0  0  0  0  0  0  0  0  0  0
   10.1138  -16.2540   21.5380 C   0  0  0  0  0  0  0  0  0  0  0  0
   11.1293  -15.7045   22.0430 O   0  0  0  0  0  0  0  0  0  0  0  0
    8.8760  -15.9954   22.1916 N   0  0  0  0  0  0  0  0  0  0  0  0
    8.7618  -15.2475   23.4269 C   0  0  1  0  0  0  0  0  0  0  0  0
    7.5415  -14.4050   23.4891 C   0  0  0  0  0  0  0  0  0  0  0  0
    7.3603  -13.6319   24.7278 C   0  0  0  0  0  0  0  0  0  0  0  0
    6.5052  -14.0430   25.7261 C   0  0  0  0  0  0  0  0  0  0  0  0
    6.3457  -13.3107   26.8778 C   0  0  0  0  0  0  0  0  0  0  0  0
    7.0284  -12.1380   27.0885 C   0  0  0  0  0  0  0  0  0  0  0  0
    7.8896  -11.7113   26.0980 C   0  0  0  0  0  0  0  0  0  0  0  0
    8.0538  -12.4386   24.9442 C   0  0  0  0  0  0  0  0  0  0  0  0
    8.9319  -16.0910   24.6217 C   0  0  0  0  0  0  0  0  0  0  0  0
    8.0538  -16.9421   24.8707 O   0  0  0  0  0  0  0  0  0  0  0  0
   11.7252  -17.4857   26.4885 C   0  0  0  0  0  0  0  0  0  0  0  0
   10.2955  -16.9775   26.5335 C   0  0  2  0  0  0  0  0  0  0  0  0
   10.0361  -15.9944   25.5088 N   0  0  0  0  0  0  0  0  0  0  0  0
    9.9384  -16.5114   27.8806 C   0  0  0  0  0  0  0  0  0  0  0  0
    9.5651  -15.3334   28.0595 O   0  0  0  0  0  0  0  0  0  0  0  0
   10.0095  -17.3630   28.9614 O   0  0  0  0  0  0  0  0  0  0  0  0
  2  1  1  0
  2  3  2  0
  4  2  1  0
  5  4  1  0
  5  7  1  0
  5  6  1  6
  7  8  2  0
  9  7  1  0
  9 10  1  0
 10 11  1  1
 11 12  1  0
 12 17  2  0
 13 12  1  0
 13 14  2  0
 14 15  1  0
 15 16  2  0
 17 16  1  0
 18 10  1  0
 18 19  2  0
 21 20  1  1
 21 22  1  0
 21 23  1  0
 22 18  1  0
 23 25  1  0
 24 23  2  0
M  END
$$$$
