KAV.pdb
     RDKit          3D

 22 21  0  0  1  0  0  0  0  0999 V2000
   28.1739  -21.4263  -15.7788 N   0  0  0  0  0  0  0  0  0  0  0  0
   27.5307  -20.4645  -14.9337 C   0  0  1  0  0  0  0  0  0  0  0  0
   27.0878  -19.2800  -15.7289 C   0  0  0  0  0  0  0  0  0  0  0  0
   28.1993  -18.4534  -16.2615 C   0  0  0  0  0  0  0  0  0  0  0  0
   28.9534  -19.0101  -17.4166 C   0  0  0  0  0  0  0  0  0  0  0  0
   29.9985  -18.0375  -17.9570 C   0  0  0  0  0  0  0  0  0  0  0  0
   30.8121  -18.7289  -18.9264 N   0  0  0  0  0  0  0  0  0  0  0  0
   26.4319  -21.0541  -14.1276 C   0  0  0  0  0  0  0  0  0  0  0  0
   25.5814  -21.7941  -14.6845 O   0  0  0  0  0  0  0  0  0  0  0  0
   25.2171  -20.8173  -10.5135 C   0  0  0  0  0  0  0  0  0  0  0  0
   25.1079  -21.1957  -11.9795 C   0  0  2  0  0  0  0  0  0  0  0  0
   26.2720  -20.8333  -12.7337 N   0  0  0  0  0  0  0  0  0  0  0  0
   23.8568  -20.6107  -12.5093 C   0  0  0  0  0  0  0  0  0  0  0  0
   23.6971  -19.3974  -12.7675 O   0  0  0  0  0  0  0  0  0  0  0  0
   22.3883  -21.4160  -15.6419 C   0  0  0  0  0  0  0  0  0  0  0  0
   21.3507  -21.7910  -14.6173 C   0  0  2  0  0  0  0  0  0  0  0  0
   19.9900  -21.4571  -15.1899 C   0  0  0  0  0  0  0  0  0  0  0  0
   21.5131  -21.0582  -13.3171 C   0  0  2  0  0  0  0  0  0  0  0  0
   22.7707  -21.4899  -12.7369 N   0  0  0  0  0  0  0  0  0  0  0  0
   20.4472  -21.3813  -12.3384 C   0  0  0  0  0  0  0  0  0  0  0  0
   19.4193  -20.5003  -12.0272 O   0  0  0  0  0  0  0  0  0  0  0  0
   20.4103  -22.4938  -11.7203 O   0  0  0  0  0  0  0  0  0  0  0  0
  2  1  1  6
  2  8  1  0
  3  4  1  0
  3  2  1  0
  5  6  1  0
  5  4  1  0
  6  7  1  0
  8 12  1  0
  8  9  2  0
 11 10  1  1
 11 13  1  0
 12 11  1  0
 13 14  2  0
 16 17  1  6
 16 15  1  0
 16 18  1  0
 18 19  1  1
 19 13  1  0
 20 21  1  0
 20 18  1  0
 22 20  2  0
M  END
$$$$
