KAV.pdb
     RDKit          3D

 22 21  0  0  1  0  0  0  0  0999 V2000
   22.6729  -16.9010  -17.6083 N   0  0  0  0  0  0  0  0  0  0  0  0
   21.7841  -16.1717  -16.7530 C   0  0  1  0  0  0  0  0  0  0  0  0
   21.8513  -16.6969  -15.3561 C   0  0  0  0  0  0  0  0  0  0  0  0
   21.3606  -18.0891  -15.2042 C   0  0  0  0  0  0  0  0  0  0  0  0
   20.0815  -18.4258  -15.8849 C   0  0  0  0  0  0  0  0  0  0  0  0
   19.7028  -19.8961  -15.7255 C   0  0  0  0  0  0  0  0  0  0  0  0
   18.4800  -20.1371  -16.4509 N   0  0  0  0  0  0  0  0  0  0  0  0
   21.9983  -14.7040  -16.8221 C   0  0  0  0  0  0  0  0  0  0  0  0
   23.0961  -14.2184  -16.4478 O   0  0  0  0  0  0  0  0  0  0  0  0
   20.0794  -11.6715  -18.1178 C   0  0  0  0  0  0  0  0  0  0  0  0
   21.2127  -12.3695  -17.3878 C   0  0  2  0  0  0  0  0  0  0  0  0
   21.0217  -13.7873  -17.2945 N   0  0  0  0  0  0  0  0  0  0  0  0
   21.3836  -11.7101  -16.0748 C   0  0  0  0  0  0  0  0  0  0  0  0
   20.7655  -12.0313  -15.0361 O   0  0  0  0  0  0  0  0  0  0  0  0
   24.7702   -9.2034  -15.7671 C   0  0  0  0  0  0  0  0  0  0  0  0
   24.0748   -9.8656  -14.6073 C   0  0  2  0  0  0  0  0  0  0  0  0
   24.5994  -11.2811  -14.4974 C   0  0  0  0  0  0  0  0  0  0  0  0
   22.5831   -9.9218  -14.7674 C   0  0  2  0  0  0  0  0  0  0  0  0
   22.3116  -10.6439  -15.9961 N   0  0  0  0  0  0  0  0  0  0  0  0
   21.9689   -8.5794  -14.9053 C   0  0  0  0  0  0  0  0  0  0  0  0
   21.6637   -7.7760  -13.8139 O   0  0  0  0  0  0  0  0  0  0  0  0
   21.6826   -8.0793  -16.0405 O   0  0  0  0  0  0  0  0  0  0  0  0
  2  1  1  6
  2  8  1  0
  3  4  1  0
  3  2  1  0
  5  6  1  0
  5  4  1  0
  6  7  1  0
  8 12  1  0
  8  9  2  0
 11 10  1  1
 11 13  1  0
 12 11  1  0
 13 14  2  0
 16 17  1  6
 16 15  1  0
 16 18  1  0
 18 19  1  6
 19 13  1  0
 20 21  1  0
 20 18  1  0
 22 20  2  0
M  END
$$$$
