KAV.pdb
     RDKit          3D

 22 21  0  0  1  0  0  0  0  0999 V2000
   28.1955  -21.9164  -15.8014 N   0  0  0  0  0  0  0  0  0  0  0  0
   28.0719  -21.0722  -14.6502 C   0  0  1  0  0  0  0  0  0  0  0  0
   28.2224  -19.6363  -15.0337 C   0  0  0  0  0  0  0  0  0  0  0  0
   27.4333  -19.2379  -16.2256 C   0  0  0  0  0  0  0  0  0  0  0  0
   26.1878  -18.4639  -15.9755 C   0  0  0  0  0  0  0  0  0  0  0  0
   25.3887  -18.2122  -17.2515 C   0  0  0  0  0  0  0  0  0  0  0  0
   24.1624  -17.5392  -16.9008 N   0  0  0  0  0  0  0  0  0  0  0  0
   26.8281  -21.3304  -13.8813 C   0  0  0  0  0  0  0  0  0  0  0  0
   25.8288  -21.8229  -14.4642 O   0  0  0  0  0  0  0  0  0  0  0  0
   25.6165  -20.8036  -10.2969 C   0  0  0  0  0  0  0  0  0  0  0  0
   25.4559  -21.1462  -11.7670 C   0  0  2  0  0  0  0  0  0  0  0  0
   26.6868  -21.0515  -12.4958 N   0  0  0  0  0  0  0  0  0  0  0  0
   24.3778  -20.2964  -12.3179 C   0  0  0  0  0  0  0  0  0  0  0  0
   24.5503  -19.1491  -12.7850 O   0  0  0  0  0  0  0  0  0  0  0  0
   20.9833  -19.9149  -15.2918 C   0  0  0  0  0  0  0  0  0  0  0  0
   22.0536  -20.5513  -14.4453 C   0  0  2  0  0  0  0  0  0  0  0  0
   21.9148  -22.0531  -14.5721 C   0  0  0  0  0  0  0  0  0  0  0  0
   21.9533  -20.1848  -12.9929 C   0  0  2  0  0  0  0  0  0  0  0  0
   23.0641  -20.8240  -12.3129 N   0  0  0  0  0  0  0  0  0  0  0  0
   20.7088  -20.6828  -12.3592 C   0  0  0  0  0  0  0  0  0  0  0  0
   19.5402  -19.9336  -12.3053 O   0  0  0  0  0  0  0  0  0  0  0  0
   20.6365  -21.8351  -11.8227 O   0  0  0  0  0  0  0  0  0  0  0  0
  2  1  1  6
  2  8  1  0
  3  4  1  0
  3  2  1  0
  5  6  1  0
  5  4  1  0
  6  7  1  0
  8 12  1  0
  8  9  2  0
 11 10  1  1
 11 13  1  0
 12 11  1  0
 13 14  2  0
 16 17  1  1
 16 15  1  0
 16 18  1  0
 18 19  1  1
 19 13  1  0
 20 21  1  0
 20 18  1  0
 22 20  2  0
M  END
$$$$
