KAV.pdb
     RDKit          3D

 22 21  0  0  1  0  0  0  0  0999 V2000
   26.2691  -23.9585  -15.3184 N   0  0  0  0  0  0  0  0  0  0  0  0
   25.0610  -23.5605  -15.9783 C   0  0  1  0  0  0  0  0  0  0  0  0
   24.7198  -24.5196  -17.0717 C   0  0  0  0  0  0  0  0  0  0  0  0
   25.5760  -24.3986  -18.2777 C   0  0  0  0  0  0  0  0  0  0  0  0
   25.5932  -23.0748  -18.9561 C   0  0  0  0  0  0  0  0  0  0  0  0
   26.4436  -23.0777  -20.2239 C   0  0  0  0  0  0  0  0  0  0  0  0
   26.4007  -21.7604  -20.8092 N   0  0  0  0  0  0  0  0  0  0  0  0
   23.9354  -23.3480  -15.0335 C   0  0  0  0  0  0  0  0  0  0  0  0
   23.6159  -24.2630  -14.2325 O   0  0  0  0  0  0  0  0  0  0  0  0
   21.5708  -20.4930  -14.1211 C   0  0  0  0  0  0  0  0  0  0  0  0
   22.0971  -21.9154  -14.0560 C   0  0  2  0  0  0  0  0  0  0  0  0
   23.1751  -22.1498  -14.9715 N   0  0  0  0  0  0  0  0  0  0  0  0
   20.9531  -22.8338  -14.2450 C   0  0  0  0  0  0  0  0  0  0  0  0
   20.5859  -23.2881  -15.3509 O   0  0  0  0  0  0  0  0  0  0  0  0
   19.3657  -24.4392  -10.6569 C   0  0  0  0  0  0  0  0  0  0  0  0
   19.2801  -25.1069  -12.0036 C   0  0  2  0  0  0  0  0  0  0  0  0
   20.5664  -25.8731  -12.2253 C   0  0  0  0  0  0  0  0  0  0  0  0
   19.1040  -24.1351  -13.1343 C   0  0  2  0  0  0  0  0  0  0  0  0
   20.2293  -23.2204  -13.0913 N   0  0  0  0  0  0  0  0  0  0  0  0
   17.8730  -23.3190  -13.0041 C   0  0  0  0  0  0  0  0  0  0  0  0
   16.6193  -23.7830  -13.3816 O   0  0  0  0  0  0  0  0  0  0  0  0
   17.8918  -22.1354  -12.5352 O   0  0  0  0  0  0  0  0  0  0  0  0
  2  1  1  1
  2  8  1  0
  3  4  1  0
  3  2  1  0
  5  6  1  0
  5  4  1  0
  6  7  1  0
  8 12  1  0
  8  9  2  0
 11 10  1  6
 11 13  1  0
 12 11  1  0
 13 14  2  0
 16 17  1  6
 16 15  1  0
 16 18  1  0
 18 19  1  1
 19 13  1  0
 20 21  1  0
 20 18  1  0
 22 20  2  0
M  END
$$$$
