KAV.pdb
     RDKit          3D

 22 21  0  0  1  0  0  0  0  0999 V2000
   23.3134  -16.7733  -16.8363 N   0  0  0  0  0  0  0  0  0  0  0  0
   24.4715  -16.6789  -15.9978 C   0  0  1  0  0  0  0  0  0  0  0  0
   24.4163  -15.4405  -15.1641 C   0  0  0  0  0  0  0  0  0  0  0  0
   24.9279  -14.2247  -15.8440 C   0  0  0  0  0  0  0  0  0  0  0  0
   25.9568  -14.4306  -16.8985 C   0  0  0  0  0  0  0  0  0  0  0  0
   26.4980  -13.1153  -17.4531 C   0  0  0  0  0  0  0  0  0  0  0  0
   27.4466  -13.4126  -18.4978 N   0  0  0  0  0  0  0  0  0  0  0  0
   24.6935  -17.9032  -15.1875 C   0  0  0  0  0  0  0  0  0  0  0  0
   23.9977  -18.1019  -14.1593 O   0  0  0  0  0  0  0  0  0  0  0  0
   26.7532  -21.0942  -15.4588 C   0  0  0  0  0  0  0  0  0  0  0  0
   25.9158  -20.0655  -14.7207 C   0  0  2  0  0  0  0  0  0  0  0  0
   25.6639  -18.8911  -15.5034 N   0  0  0  0  0  0  0  0  0  0  0  0
   26.5771  -19.7818  -13.4283 C   0  0  0  0  0  0  0  0  0  0  0  0
   27.4675  -18.9190  -13.2637 O   0  0  0  0  0  0  0  0  0  0  0  0
   26.1417  -20.0625   -8.5914 C   0  0  0  0  0  0  0  0  0  0  0  0
   25.6584  -20.2702  -10.0022 C   0  0  2  0  0  0  0  0  0  0  0  0
   24.8368  -21.5411  -10.0297 C   0  0  0  0  0  0  0  0  0  0  0  0
   26.7762  -20.4042  -10.9954 C   0  0  2  0  0  0  0  0  0  0  0  0
   26.1695  -20.5424  -12.3060 N   0  0  0  0  0  0  0  0  0  0  0  0
   27.6048  -21.6127  -10.7684 C   0  0  0  0  0  0  0  0  0  0  0  0
   28.7546  -21.6010   -9.9890 O   0  0  0  0  0  0  0  0  0  0  0  0
   27.3097  -22.7414  -11.2781 O   0  0  0  0  0  0  0  0  0  0  0  0
  2  1  1  1
  2  8  1  0
  3  4  1  0
  3  2  1  0
  5  6  1  0
  5  4  1  0
  6  7  1  0
  8 12  1  0
  8  9  2  0
 11 10  1  6
 11 13  1  0
 12 11  1  0
 13 14  2  0
 16 17  1  1
 16 15  1  0
 16 18  1  0
 18 19  1  6
 19 13  1  0
 20 21  1  0
 20 18  1  0
 22 20  2  0
M  END
$$$$
