KAV.pdb
     RDKit          3D

 22 21  0  0  1  0  0  0  0  0999 V2000
   18.3899  -19.8287  -16.2884 N   0  0  0  0  0  0  0  0  0  0  0  0
   19.5372  -20.5883  -15.8884 C   0  0  1  0  0  0  0  0  0  0  0  0
   19.3442  -22.0358  -16.2036 C   0  0  0  0  0  0  0  0  0  0  0  0
   17.9275  -22.4346  -16.3934 C   0  0  0  0  0  0  0  0  0  0  0  0
   17.1438  -22.7260  -15.1630 C   0  0  0  0  0  0  0  0  0  0  0  0
   15.7267  -23.2029  -15.4708 C   0  0  0  0  0  0  0  0  0  0  0  0
   15.0340  -23.4202  -14.2248 N   0  0  0  0  0  0  0  0  0  0  0  0
   20.8041  -20.0474  -16.4426 C   0  0  0  0  0  0  0  0  0  0  0  0
   21.9011  -20.5494  -16.0884 O   0  0  0  0  0  0  0  0  0  0  0  0
   21.9346  -17.9063  -19.3076 C   0  0  0  0  0  0  0  0  0  0  0  0
   22.0744  -18.4015  -17.8794 C   0  0  2  0  0  0  0  0  0  0  0  0
   20.8625  -18.9730  -17.3699 N   0  0  0  0  0  0  0  0  0  0  0  0
   22.5902  -17.2846  -17.0581 C   0  0  0  0  0  0  0  0  0  0  0  0
   21.8852  -16.5728  -16.3094 O   0  0  0  0  0  0  0  0  0  0  0  0
   25.5331  -17.5615  -14.6311 C   0  0  0  0  0  0  0  0  0  0  0  0
   25.8449  -16.5771  -15.7269 C   0  0  2  0  0  0  0  0  0  0  0  0
   26.6807  -15.4657  -15.1293 C   0  0  0  0  0  0  0  0  0  0  0  0
   24.6173  -15.9711  -16.3430 C   0  0  2  0  0  0  0  0  0  0  0  0
   23.9769  -17.0083  -17.1295 N   0  0  0  0  0  0  0  0  0  0  0  0
   24.9295  -14.8535  -17.2660 C   0  0  0  0  0  0  0  0  0  0  0  0
   24.7421  -13.5203  -16.9238 O   0  0  0  0  0  0  0  0  0  0  0  0
   25.3914  -15.0507  -18.4359 O   0  0  0  0  0  0  0  0  0  0  0  0
  2  1  1  6
  2  8  1  0
  3  4  1  0
  3  2  1  0
  5  6  1  0
  5  4  1  0
  6  7  1  0
  8 12  1  0
  8  9  2  0
 11 10  1  6
 11 13  1  0
 12 11  1  0
 13 14  2  0
 16 17  1  1
 16 15  1  0
 16 18  1  0
 18 19  1  6
 19 13  1  0
 20 21  1  0
 20 18  1  0
 22 20  2  0
M  END
$$$$
