KAV.pdb
     RDKit          3D

 22 21  0  0  1  0  0  0  0  0999 V2000
   26.9050  -20.2555  -18.9776 N   0  0  0  0  0  0  0  0  0  0  0  0
   27.6664  -19.9617  -17.7998 C   0  0  1  0  0  0  0  0  0  0  0  0
   28.6684  -18.8889  -18.0766 C   0  0  0  0  0  0  0  0  0  0  0  0
   29.6985  -19.2608  -19.0780 C   0  0  0  0  0  0  0  0  0  0  0  0
   30.1497  -20.6783  -19.0792 C   0  0  0  0  0  0  0  0  0  0  0  0
   31.3823  -20.8997  -19.9520 C   0  0  0  0  0  0  0  0  0  0  0  0
   31.7661  -22.2869  -19.8622 N   0  0  0  0  0  0  0  0  0  0  0  0
   26.8104  -19.6543  -16.6261 C   0  0  0  0  0  0  0  0  0  0  0  0
   27.3391  -19.4962  -15.4963 O   0  0  0  0  0  0  0  0  0  0  0  0
   23.1652  -18.7474  -16.0193 C   0  0  0  0  0  0  0  0  0  0  0  0
   24.5573  -19.1719  -15.5877 C   0  0  2  0  0  0  0  0  0  0  0  0
   25.3977  -19.5232  -16.6947 N   0  0  0  0  0  0  0  0  0  0  0  0
   24.4148  -20.2539  -14.5892 C   0  0  0  0  0  0  0  0  0  0  0  0
   24.3533  -21.4712  -14.8692 O   0  0  0  0  0  0  0  0  0  0  0  0
   26.6927  -20.7836  -11.6520 C   0  0  0  0  0  0  0  0  0  0  0  0
   25.3016  -20.5090  -11.1456 C   0  0  2  0  0  0  0  0  0  0  0  0
   25.0815  -21.3547   -9.9097 C   0  0  0  0  0  0  0  0  0  0  0  0
   24.2328  -20.8410  -12.1462 C   0  0  2  0  0  0  0  0  0  0  0  0
   24.3440  -19.8784  -13.2260 N   0  0  0  0  0  0  0  0  0  0  0  0
   22.8647  -20.7153  -11.5887 C   0  0  0  0  0  0  0  0  0  0  0  0
   22.1394  -21.8044  -11.1222 O   0  0  0  0  0  0  0  0  0  0  0  0
   22.2687  -19.5935  -11.5036 O   0  0  0  0  0  0  0  0  0  0  0  0
  2  1  1  6
  2  8  1  0
  3  4  1  0
  3  2  1  0
  5  6  1  0
  5  4  1  0
  6  7  1  0
  8 12  1  0
  8  9  2  0
 11 10  1  6
 11 13  1  0
 12 11  1  0
 13 14  2  0
 16 17  1  1
 16 15  1  0
 16 18  1  0
 18 19  1  6
 19 13  1  0
 20 21  1  0
 20 18  1  0
 22 20  2  0
M  END
$$$$
