KAV.pdb
     RDKit          3D

 22 21  0  0  1  0  0  0  0  0999 V2000
   25.1554  -22.9680  -16.1656 N   0  0  0  0  0  0  0  0  0  0  0  0
   26.1293  -21.9403  -16.3859 C   0  0  1  0  0  0  0  0  0  0  0  0
   27.0778  -22.3395  -17.4687 C   0  0  0  0  0  0  0  0  0  0  0  0
   27.9368  -23.5009  -17.1288 C   0  0  0  0  0  0  0  0  0  0  0  0
   27.3493  -24.8515  -17.3377 C   0  0  0  0  0  0  0  0  0  0  0  0
   28.3412  -25.9735  -17.0419 C   0  0  0  0  0  0  0  0  0  0  0  0
   27.6804  -27.2382  -17.2506 N   0  0  0  0  0  0  0  0  0  0  0  0
   25.5143  -20.6105  -16.6273 C   0  0  0  0  0  0  0  0  0  0  0  0
   26.2519  -19.6145  -16.8389 O   0  0  0  0  0  0  0  0  0  0  0  0
   21.9995  -19.2583  -17.1980 C   0  0  0  0  0  0  0  0  0  0  0  0
   23.4936  -19.1300  -16.9619 C   0  0  2  0  0  0  0  0  0  0  0  0
   24.1126  -20.3812  -16.6355 N   0  0  0  0  0  0  0  0  0  0  0  0
   23.7051  -18.0831  -15.9385 C   0  0  0  0  0  0  0  0  0  0  0  0
   23.4335  -18.2152  -14.7248 O   0  0  0  0  0  0  0  0  0  0  0  0
   26.5400  -15.3153  -16.8571 C   0  0  0  0  0  0  0  0  0  0  0  0
   25.9671  -15.4722  -15.4735 C   0  0  2  0  0  0  0  0  0  0  0  0
   26.6627  -16.6425  -14.8123 C   0  0  0  0  0  0  0  0  0  0  0  0
   24.4889  -15.7347  -15.4729 C   0  0  2  0  0  0  0  0  0  0  0  0
   24.2523  -16.8505  -16.3694 N   0  0  0  0  0  0  0  0  0  0  0  0
   23.7014  -14.5880  -15.9860 C   0  0  0  0  0  0  0  0  0  0  0  0
   23.1512  -14.5638  -17.2613 O   0  0  0  0  0  0  0  0  0  0  0  0
   23.4809  -13.5496  -15.2832 O   0  0  0  0  0  0  0  0  0  0  0  0
  2  1  1  6
  2  8  1  0
  3  4  1  0
  3  2  1  0
  5  6  1  0
  5  4  1  0
  6  7  1  0
  8 12  1  0
  8  9  2  0
 11 10  1  1
 11 13  1  0
 12 11  1  0
 13 14  2  0
 16 17  1  6
 16 15  1  0
 16 18  1  0
 18 19  1  6
 19 13  1  0
 20 21  1  0
 20 18  1  0
 22 20  2  0
M  END
$$$$
