KAV.pdb
     RDKit          3D

 22 21  0  0  1  0  0  0  0  0999 V2000
   32.6881  -27.7814  -17.6887 N   0  0  0  0  0  0  0  0  0  0  0  0
   31.7832  -27.0022  -18.4806 C   0  0  1  0  0  0  0  0  0  0  0  0
   31.7684  -27.4893  -19.8927 C   0  0  0  0  0  0  0  0  0  0  0  0
   32.8738  -26.9621  -20.7308 C   0  0  0  0  0  0  0  0  0  0  0  0
   32.5439  -25.8319  -21.6399 C   0  0  0  0  0  0  0  0  0  0  0  0
   33.7191  -25.4333  -22.5290 C   0  0  0  0  0  0  0  0  0  0  0  0
   33.3096  -24.3331  -23.3665 N   0  0  0  0  0  0  0  0  0  0  0  0
   30.4235  -26.9262  -17.8887 C   0  0  0  0  0  0  0  0  0  0  0  0
   29.9003  -27.9598  -17.4000 O   0  0  0  0  0  0  0  0  0  0  0  0
   27.8104  -24.2174  -17.2475 C   0  0  0  0  0  0  0  0  0  0  0  0
   28.3263  -25.6441  -17.3011 C   0  0  2  0  0  0  0  0  0  0  0  0
   29.6535  -25.7338  -17.8356 N   0  0  0  0  0  0  0  0  0  0  0  0
   27.3371  -26.4591  -18.0395 C   0  0  0  0  0  0  0  0  0  0  0  0
   27.3887  -26.6932  -19.2670 O   0  0  0  0  0  0  0  0  0  0  0  0
   25.0633  -29.0038  -15.6954 C   0  0  0  0  0  0  0  0  0  0  0  0
   25.2203  -29.1400  -17.1867 C   0  0  2  0  0  0  0  0  0  0  0  0
   26.5391  -29.8330  -17.4539 C   0  0  0  0  0  0  0  0  0  0  0  0
   25.2220  -27.8206  -17.9030 C   0  0  2  0  0  0  0  0  0  0  0  0
   26.2618  -27.0080  -17.3002 N   0  0  0  0  0  0  0  0  0  0  0  0
   23.9460  -27.0814  -17.7490 C   0  0  0  0  0  0  0  0  0  0  0  0
   22.8392  -27.3149  -18.5552 O   0  0  0  0  0  0  0  0  0  0  0  0
   23.7876  -26.1818  -16.8620 O   0  0  0  0  0  0  0  0  0  0  0  0
  2  1  1  1
  2  8  1  0
  3  4  1  0
  3  2  1  0
  5  6  1  0
  5  4  1  0
  6  7  1  0
  8 12  1  0
  8  9  2  0
 11 10  1  6
 11 13  1  0
 12 11  1  0
 13 14  2  0
 16 17  1  1
 16 15  1  0
 16 18  1  0
 18 19  1  1
 19 13  1  0
 20 21  1  0
 20 18  1  0
 22 20  2  0
M  END
$$$$
