KAV.pdb
     RDKit          3D

 22 21  0  0  1  0  0  0  0  0999 V2000
   20.2349  -20.4446  -11.1871 N   0  0  0  0  0  0  0  0  0  0  0  0
   21.2408  -21.3811  -11.5923 C   0  0  1  0  0  0  0  0  0  0  0  0
   20.7651  -22.1932  -12.7524 C   0  0  0  0  0  0  0  0  0  0  0  0
   19.3195  -22.0406  -13.0511 C   0  0  0  0  0  0  0  0  0  0  0  0
   18.9677  -21.4274  -14.3600 C   0  0  0  0  0  0  0  0  0  0  0  0
   17.4682  -21.4713  -14.6429 C   0  0  0  0  0  0  0  0  0  0  0  0
   17.0427  -22.8492  -14.6544 N   0  0  0  0  0  0  0  0  0  0  0  0
   22.5542  -20.7367  -11.8469 C   0  0  0  0  0  0  0  0  0  0  0  0
   22.6296  -19.7810  -12.6605 O   0  0  0  0  0  0  0  0  0  0  0  0
   26.1632  -21.1617  -10.6886 C   0  0  0  0  0  0  0  0  0  0  0  0
   25.0754  -20.7969  -11.6826 C   0  0  2  0  0  0  0  0  0  0  0  0
   23.7628  -21.1371  -11.2173 N   0  0  0  0  0  0  0  0  0  0  0  0
   25.4189  -21.4153  -12.9816 C   0  0  0  0  0  0  0  0  0  0  0  0
   25.2486  -22.6233  -13.2571 O   0  0  0  0  0  0  0  0  0  0  0  0
   25.7804  -18.6604  -16.0519 C   0  0  0  0  0  0  0  0  0  0  0  0
   25.4590  -20.1182  -16.2481 C   0  0  2  0  0  0  0  0  0  0  0  0
   23.9825  -20.3096  -15.9753 C   0  0  0  0  0  0  0  0  0  0  0  0
   26.2332  -21.0219  -15.3329 C   0  0  2  0  0  0  0  0  0  0  0  0
   25.9781  -20.5767  -13.9759 N   0  0  0  0  0  0  0  0  0  0  0  0
   27.6977  -20.9420  -15.5503 C   0  0  0  0  0  0  0  0  0  0  0  0
   28.3720  -21.7667  -16.4419 O   0  0  0  0  0  0  0  0  0  0  0  0
   28.4299  -20.1066  -14.9282 O   0  0  0  0  0  0  0  0  0  0  0  0
  2  1  1  6
  2  8  1  0
  3  4  1  0
  3  2  1  0
  5  6  1  0
  5  4  1  0
  6  7  1  0
  8 12  1  0
  8  9  2  0
 11 10  1  1
 11 13  1  0
 12 11  1  0
 13 14  2  0
 16 17  1  1
 16 15  1  0
 16 18  1  0
 18 19  1  1
 19 13  1  0
 20 21  1  0
 20 18  1  0
 22 20  2  0
M  END
$$$$
