KAV.pdb
     RDKit          3D

 22 21  0  0  1  0  0  0  0  0999 V2000
   28.8245  -32.6756  -14.3825 N   0  0  0  0  0  0  0  0  0  0  0  0
   29.7191  -32.3577  -15.4558 C   0  0  1  0  0  0  0  0  0  0  0  0
   29.4438  -33.2229  -16.6421 C   0  0  0  0  0  0  0  0  0  0  0  0
   29.4791  -34.6787  -16.3560 C   0  0  0  0  0  0  0  0  0  0  0  0
   29.2183  -35.5921  -17.5008 C   0  0  0  0  0  0  0  0  0  0  0  0
   29.9730  -35.1801  -18.7622 C   0  0  0  0  0  0  0  0  0  0  0  0
   29.6488  -36.1095  -19.8161 N   0  0  0  0  0  0  0  0  0  0  0  0
   29.7197  -30.9114  -15.7918 C   0  0  0  0  0  0  0  0  0  0  0  0
   28.9933  -30.1214  -15.1367 O   0  0  0  0  0  0  0  0  0  0  0  0
   31.6655  -28.5872  -18.0984 C   0  0  0  0  0  0  0  0  0  0  0  0
   30.5143  -28.9544  -17.1795 C   0  0  2  0  0  0  0  0  0  0  0  0
   30.5056  -30.3448  -16.8304 N   0  0  0  0  0  0  0  0  0  0  0  0
   29.2595  -28.4988  -17.8166 C   0  0  0  0  0  0  0  0  0  0  0  0
   28.5547  -29.2019  -18.5737 O   0  0  0  0  0  0  0  0  0  0  0  0
   26.5156  -26.5742  -15.8168 C   0  0  0  0  0  0  0  0  0  0  0  0
   26.9985  -25.7716  -16.9956 C   0  0  2  0  0  0  0  0  0  0  0  0
   25.8105  -25.0324  -17.5727 C   0  0  0  0  0  0  0  0  0  0  0  0
   27.6043  -26.6178  -18.0777 C   0  0  2  0  0  0  0  0  0  0  0  0
   28.8335  -27.1759  -17.5465 N   0  0  0  0  0  0  0  0  0  0  0  0
   27.9658  -25.8355  -19.2842 C   0  0  0  0  0  0  0  0  0  0  0  0
   27.1351  -25.7363  -20.3932 O   0  0  0  0  0  0  0  0  0  0  0  0
   29.0671  -25.2035  -19.3765 O   0  0  0  0  0  0  0  0  0  0  0  0
  2  1  1  1
  2  8  1  0
  3  4  1  0
  3  2  1  0
  5  6  1  0
  5  4  1  0
  6  7  1  0
  8 12  1  0
  8  9  2  0
 11 10  1  6
 11 13  1  0
 12 11  1  0
 13 14  2  0
 16 17  1  6
 16 15  1  0
 16 18  1  0
 18 19  1  1
 19 13  1  0
 20 21  1  0
 20 18  1  0
 22 20  2  0
M  END
$$$$
