KAV.pdb
     RDKit          3D

 22 21  0  0  1  0  0  0  0  0999 V2000
   25.2032  -19.1294  -19.0816 N   0  0  0  0  0  0  0  0  0  0  0  0
   26.0662  -18.7615  -17.9984 C   0  0  1  0  0  0  0  0  0  0  0  0
   25.8458  -17.3351  -17.6130 C   0  0  0  0  0  0  0  0  0  0  0  0
   26.4074  -16.3511  -18.5715 C   0  0  0  0  0  0  0  0  0  0  0  0
   27.8886  -16.3174  -18.7051 C   0  0  0  0  0  0  0  0  0  0  0  0
   28.3665  -15.2156  -19.6475 C   0  0  0  0  0  0  0  0  0  0  0  0
   29.7775  -15.3943  -19.8855 N   0  0  0  0  0  0  0  0  0  0  0  0
   25.9616  -19.6878  -16.8427 C   0  0  0  0  0  0  0  0  0  0  0  0
   24.8565  -19.8323  -16.2607 O   0  0  0  0  0  0  0  0  0  0  0  0
   28.2730  -22.0660  -14.9519 C   0  0  0  0  0  0  0  0  0  0  0  0
   27.0040  -21.2593  -15.1601 C   0  0  2  0  0  0  0  0  0  0  0  0
   27.0539  -20.4416  -16.3366 N   0  0  0  0  0  0  0  0  0  0  0  0
   26.7417  -20.4945  -13.9214 C   0  0  0  0  0  0  0  0  0  0  0  0
   27.2817  -19.4030  -13.6363 O   0  0  0  0  0  0  0  0  0  0  0  0
   23.1898  -21.4461  -11.7989 C   0  0  0  0  0  0  0  0  0  0  0  0
   23.9830  -20.1667  -11.7679 C   0  0  2  0  0  0  0  0  0  0  0  0
   23.6326  -19.3722  -13.0076 C   0  0  0  0  0  0  0  0  0  0  0  0
   25.4672  -20.3924  -11.7509 C   0  0  2  0  0  0  0  0  0  0  0  0
   25.8155  -21.0413  -13.0008 N   0  0  0  0  0  0  0  0  0  0  0  0
   25.8987  -21.2942  -10.6560 C   0  0  0  0  0  0  0  0  0  0  0  0
   26.0554  -20.8639   -9.3445 O   0  0  0  0  0  0  0  0  0  0  0  0
   26.1534  -22.5258  -10.8539 O   0  0  0  0  0  0  0  0  0  0  0  0
  2  1  1  6
  2  8  1  0
  3  4  1  0
  3  2  1  0
  5  6  1  0
  5  4  1  0
  6  7  1  0
  8 12  1  0
  8  9  2  0
 11 10  1  1
 11 13  1  0
 12 11  1  0
 13 14  2  0
 16 17  1  6
 16 15  1  0
 16 18  1  0
 18 19  1  6
 19 13  1  0
 20 21  1  0
 20 18  1  0
 22 20  2  0
M  END
$$$$
