KAV.pdb
     RDKit          3D

 22 21  0  0  1  0  0  0  0  0999 V2000
   20.4312  -14.7253  -16.6609 N   0  0  0  0  0  0  0  0  0  0  0  0
   20.3796  -13.4755  -17.3599 C   0  0  1  0  0  0  0  0  0  0  0  0
   19.2015  -13.4356  -18.2775 C   0  0  0  0  0  0  0  0  0  0  0  0
   18.3264  -14.6315  -18.1982 C   0  0  0  0  0  0  0  0  0  0  0  0
   17.1486  -14.6603  -19.1064 C   0  0  0  0  0  0  0  0  0  0  0  0
   16.3068  -15.9220  -18.9337 C   0  0  0  0  0  0  0  0  0  0  0  0
   15.1791  -15.8485  -19.8295 N   0  0  0  0  0  0  0  0  0  0  0  0
   20.4317  -12.3058  -16.4466 C   0  0  0  0  0  0  0  0  0  0  0  0
   19.3846  -11.9267  -15.8628 O   0  0  0  0  0  0  0  0  0  0  0  0
   23.0812  -10.1091  -14.8511 C   0  0  0  0  0  0  0  0  0  0  0  0
   21.6775  -10.3995  -15.3508 C   0  0  2  0  0  0  0  0  0  0  0  0
   21.6151  -11.5667  -16.1808 N   0  0  0  0  0  0  0  0  0  0  0  0
   21.1673   -9.1784  -16.0116 C   0  0  0  0  0  0  0  0  0  0  0  0
   21.1891   -8.9806  -17.2464 O   0  0  0  0  0  0  0  0  0  0  0  0
   17.9270   -7.8837  -16.4511 C   0  0  0  0  0  0  0  0  0  0  0  0
   18.6246   -6.9238  -15.5242 C   0  0  2  0  0  0  0  0  0  0  0  0
   18.0952   -5.5348  -15.8092 C   0  0  0  0  0  0  0  0  0  0  0  0
   20.1154   -6.9106  -15.7007 C   0  0  2  0  0  0  0  0  0  0  0  0
   20.6185   -8.1694  -15.1840 N   0  0  0  0  0  0  0  0  0  0  0  0
   20.7755   -5.8282  -14.9320 C   0  0  0  0  0  0  0  0  0  0  0  0
   21.1799   -4.6324  -15.5119 O   0  0  0  0  0  0  0  0  0  0  0  0
   21.0128   -5.9309  -13.6854 O   0  0  0  0  0  0  0  0  0  0  0  0
  2  1  1  1
  2  8  1  0
  3  4  1  0
  3  2  1  0
  5  6  1  0
  5  4  1  0
  6  7  1  0
  8 12  1  0
  8  9  2  0
 11 10  1  6
 11 13  1  0
 12 11  1  0
 13 14  2  0
 16 17  1  6
 16 15  1  0
 16 18  1  0
 18 19  1  1
 19 13  1  0
 20 21  1  0
 20 18  1  0
 22 20  2  0
M  END
$$$$
