KAV.pdb
     RDKit          3D

 22 21  0  0  1  0  0  0  0  0999 V2000
   23.7009  -20.8583  -14.6575 N   0  0  0  0  0  0  0  0  0  0  0  0
   24.7390  -19.9182  -14.3542 C   0  0  1  0  0  0  0  0  0  0  0  0
   24.6327  -18.7166  -15.2352 C   0  0  0  0  0  0  0  0  0  0  0  0
   24.1476  -19.0077  -16.6071 C   0  0  0  0  0  0  0  0  0  0  0  0
   24.9924  -19.9060  -17.4391 C   0  0  0  0  0  0  0  0  0  0  0  0
   24.5454  -19.9446  -18.8982 C   0  0  0  0  0  0  0  0  0  0  0  0
   25.3104  -20.9547  -19.5868 N   0  0  0  0  0  0  0  0  0  0  0  0
   24.7899  -19.5664  -12.9125 C   0  0  0  0  0  0  0  0  0  0  0  0
   25.6451  -18.7397  -12.5049 O   0  0  0  0  0  0  0  0  0  0  0  0
   22.6091  -20.0314   -9.8562 C   0  0  0  0  0  0  0  0  0  0  0  0
   23.9405  -19.7841  -10.5422 C   0  0  2  0  0  0  0  0  0  0  0  0
   23.9152  -20.1147  -11.9369 N   0  0  0  0  0  0  0  0  0  0  0  0
   24.9850  -20.5067   -9.7840 C   0  0  0  0  0  0  0  0  0  0  0  0
   25.3896  -21.6578  -10.0584 O   0  0  0  0  0  0  0  0  0  0  0  0
   27.7936  -18.2379   -7.7426 C   0  0  0  0  0  0  0  0  0  0  0  0
   27.1402  -19.3517   -6.9684 C   0  0  2  0  0  0  0  0  0  0  0  0
   28.1826  -19.9537   -6.0507 C   0  0  0  0  0  0  0  0  0  0  0  0
   26.5938  -20.4398   -7.8466 C   0  0  2  0  0  0  0  0  0  0  0  0
   25.5614  -19.8440   -8.6736 N   0  0  0  0  0  0  0  0  0  0  0  0
   25.9577  -21.5352   -7.0760 C   0  0  0  0  0  0  0  0  0  0  0  0
   26.6458  -22.6757   -6.6816 O   0  0  0  0  0  0  0  0  0  0  0  0
   24.7338  -21.4956   -6.7273 O   0  0  0  0  0  0  0  0  0  0  0  0
  2  1  1  1
  2  8  1  0
  3  4  1  0
  3  2  1  0
  5  6  1  0
  5  4  1  0
  6  7  1  0
  8 12  1  0
  8  9  2  0
 11 10  1  1
 11 13  1  0
 12 11  1  0
 13 14  2  0
 16 17  1  1
 16 15  1  0
 16 18  1  0
 18 19  1  6
 19 13  1  0
 20 21  1  0
 20 18  1  0
 22 20  2  0
M  END
$$$$
