PEE.pdb
     RDKit          3D

 26 26  0  0  1  0  0  0  0  0999 V2000
   22.3262  -12.9808  -18.1200 N   0  0  0  0  0  0  0  0  0  0  0  0
   22.6249  -14.2807  -18.7334 C   0  0  0  0  0  0  0  0  0  0  0  0
   21.5680  -14.3829  -19.8139 C   0  0  0  0  0  0  0  0  0  0  0  0
   21.3670  -12.9735  -20.2754 C   0  0  0  0  0  0  0  0  0  0  0  0
   22.0532  -12.1113  -19.2578 C   0  0  1  0  0  0  0  0  0  0  0  0
   21.3124  -10.8939  -18.8858 C   0  0  0  0  0  0  0  0  0  0  0  0
   21.0265  -10.0173  -19.7281 O   0  0  0  0  0  0  0  0  0  0  0  0
   20.9070  -10.6888  -17.5606 N   0  0  0  0  0  0  0  0  0  0  0  0
   20.1032   -9.5597  -17.1810 C   0  0  1  0  0  0  0  0  0  0  0  0
   18.8231   -9.8752  -16.5247 C   0  0  0  0  0  0  0  0  0  0  0  0
   18.8852  -10.6957  -15.2783 C   0  0  0  0  0  0  0  0  0  0  0  0
   17.5666  -11.0499  -14.7322 C   0  0  0  0  0  0  0  0  0  0  0  0
   17.1557  -10.5160  -13.6892 O   0  0  0  0  0  0  0  0  0  0  0  0
   20.8873   -8.6666  -16.2499 C   0  0  0  0  0  0  0  0  0  0  0  0
   21.8235   -9.1037  -15.5718 O   0  0  0  0  0  0  0  0  0  0  0  0
   16.7811  -11.9786  -15.3790 O   0  0  0  0  0  0  0  0  0  0  0  0
   20.5482   -7.3100  -16.1503 N   0  0  0  0  0  0  0  0  0  0  0  0
   21.3225   -6.2987  -15.4801 C   0  0  1  0  0  0  0  0  0  0  0  0
   21.5894   -5.0840  -16.2815 C   0  0  0  0  0  0  0  0  0  0  0  0
   22.3255   -4.0102  -15.5360 C   0  0  0  0  0  0  0  0  0  0  0  0
   22.5193   -2.7626  -16.3022 C   0  0  0  0  0  0  0  0  0  0  0  0
   22.3004   -1.6498  -15.7746 O   0  0  0  0  0  0  0  0  0  0  0  0
   20.5576   -5.8748  -14.2742 C   0  0  0  0  0  0  0  0  0  0  0  0
   21.1587   -5.3960  -13.2912 O   0  0  0  0  0  0  0  0  0  0  0  0
   22.9459   -2.7623  -17.6229 O   0  0  0  0  0  0  0  0  0  0  0  0
   19.1782   -5.9891  -14.1902 O   0  0  0  0  0  0  0  0  0  0  0  0
  1  2  1  0
  1  5  1  0
  2  3  1  0
  3  4  1  0
  5  6  1  1
  5  4  1  0
  6  7  2  0
  8  9  1  0
  8  6  1  0
  9 10  1  1
 11 10  1  0
 12 11  1  0
 12 13  2  0
 14 15  2  0
 14  9  1  0
 16 12  1  0
 17 14  1  0
 18 17  1  0
 18 19  1  6
 20 21  1  0
 20 19  1  0
 21 22  2  0
 23 18  1  0
 23 26  1  0
 24 23  2  0
 25 21  1  0
M  END
$$$$
