PEE.pdb
     RDKit          3D

 26 26  0  0  1  0  0  0  0  0999 V2000
   26.5016  -11.5336  -15.8733 N   0  0  0  0  0  0  0  0  0  0  0  0
   27.5124  -12.5514  -16.1855 C   0  0  0  0  0  0  0  0  0  0  0  0
   27.0196  -13.1074  -17.5057 C   0  0  0  0  0  0  0  0  0  0  0  0
   26.3948  -11.9355  -18.1956 C   0  0  0  0  0  0  0  0  0  0  0  0
   26.2693  -10.8681  -17.1494 C   0  0  1  0  0  0  0  0  0  0  0  0
   25.0007  -10.1207  -17.1849 C   0  0  0  0  0  0  0  0  0  0  0  0
   24.6671   -9.4422  -18.1790 O   0  0  0  0  0  0  0  0  0  0  0  0
   24.1283  -10.1538  -16.0893 N   0  0  0  0  0  0  0  0  0  0  0  0
   22.8748   -9.4512  -16.0982 C   0  0  1  0  0  0  0  0  0  0  0  0
   21.7192  -10.1940  -15.5673 C   0  0  0  0  0  0  0  0  0  0  0  0
   20.3804   -9.5444  -15.6939 C   0  0  0  0  0  0  0  0  0  0  0  0
   19.2734  -10.3529  -15.1615 C   0  0  0  0  0  0  0  0  0  0  0  0
   19.2401  -11.5782  -15.3596 O   0  0  0  0  0  0  0  0  0  0  0  0
   23.0018   -8.1733  -15.3041 C   0  0  0  0  0  0  0  0  0  0  0  0
   23.6228   -8.1355  -14.2363 O   0  0  0  0  0  0  0  0  0  0  0  0
   18.2670   -9.7504  -14.4391 O   0  0  0  0  0  0  0  0  0  0  0  0
   22.4031   -7.0012  -15.7868 N   0  0  0  0  0  0  0  0  0  0  0  0
   22.5794   -5.6820  -15.2389 C   0  0  1  0  0  0  0  0  0  0  0  0
   22.2095   -4.5745  -16.1474 C   0  0  0  0  0  0  0  0  0  0  0  0
   22.4897   -3.2095  -15.5917 C   0  0  0  0  0  0  0  0  0  0  0  0
   22.0431   -2.0984  -16.4562 C   0  0  0  0  0  0  0  0  0  0  0  0
   20.8601   -2.0390  -16.8580 O   0  0  0  0  0  0  0  0  0  0  0  0
   21.7087   -5.5772  -14.0348 C   0  0  0  0  0  0  0  0  0  0  0  0
   20.5994   -6.1480  -14.0161 O   0  0  0  0  0  0  0  0  0  0  0  0
   22.8987   -1.0827  -16.8593 O   0  0  0  0  0  0  0  0  0  0  0  0
   22.0808   -4.8599  -12.9080 O   0  0  0  0  0  0  0  0  0  0  0  0
  1  2  1  0
  1  5  1  0
  2  3  1  0
  3  4  1  0
  5  6  1  1
  5  4  1  0
  6  7  2  0
  8  9  1  0
  8  6  1  0
  9 10  1  1
 11 10  1  0
 12 11  1  0
 12 13  2  0
 14 15  2  0
 14  9  1  0
 16 12  1  0
 17 14  1  0
 18 17  1  0
 18 19  1  6
 20 21  1  0
 20 19  1  0
 21 22  2  0
 23 18  1  0
 23 26  1  0
 24 23  2  0
 25 21  1  0
M  END
$$$$
