PEE.pdb
     RDKit          3D

 26 26  0  0  1  0  0  0  0  0999 V2000
   28.2468  -19.8973  -17.2442 N   0  0  0  0  0  0  0  0  0  0  0  0
   28.9122  -18.7981  -17.9542 C   0  0  0  0  0  0  0  0  0  0  0  0
   28.1118  -17.5907  -17.5109 C   0  0  0  0  0  0  0  0  0  0  0  0
   27.7119  -17.9030  -16.1029 C   0  0  0  0  0  0  0  0  0  0  0  0
   28.0110  -19.3600  -15.9096 C   0  0  1  0  0  0  0  0  0  0  0  0
   26.9809  -20.1038  -15.1646 C   0  0  0  0  0  0  0  0  0  0  0  0
   26.2723  -20.9723  -15.7153 O   0  0  0  0  0  0  0  0  0  0  0  0
   26.7695  -19.8498  -13.8032 N   0  0  0  0  0  0  0  0  0  0  0  0
   25.6893  -20.4599  -13.0781 C   0  0  1  0  0  0  0  0  0  0  0  0
   25.7999  -20.4219  -11.6100 C   0  0  0  0  0  0  0  0  0  0  0  0
   24.7515  -21.1480  -10.8328 C   0  0  0  0  0  0  0  0  0  0  0  0
   24.9603  -21.1167   -9.3775 C   0  0  0  0  0  0  0  0  0  0  0  0
   24.5885  -20.1368   -8.7116 O   0  0  0  0  0  0  0  0  0  0  0  0
   24.3852  -19.7997  -13.4563 C   0  0  0  0  0  0  0  0  0  0  0  0
   24.2884  -18.5718  -13.5571 O   0  0  0  0  0  0  0  0  0  0  0  0
   25.5712  -22.1784   -8.7472 O   0  0  0  0  0  0  0  0  0  0  0  0
   23.2568  -20.5951  -13.6998 N   0  0  0  0  0  0  0  0  0  0  0  0
   21.9714  -20.1168  -14.1359 C   0  0  1  0  0  0  0  0  0  0  0  0
   21.4734  -20.7218  -15.3909 C   0  0  0  0  0  0  0  0  0  0  0  0
   21.6828  -19.8670  -16.6058 C   0  0  0  0  0  0  0  0  0  0  0  0
   20.5430  -19.8568  -17.5449 C   0  0  0  0  0  0  0  0  0  0  0  0
   19.5280  -20.5534  -17.3234 O   0  0  0  0  0  0  0  0  0  0  0  0
   20.9865  -20.4407  -13.0663 C   0  0  0  0  0  0  0  0  0  0  0  0
   19.8975  -19.8337  -13.0171 O   0  0  0  0  0  0  0  0  0  0  0  0
   20.5412  -19.0877  -18.7003 O   0  0  0  0  0  0  0  0  0  0  0  0
   21.2274  -21.4068  -12.1013 O   0  0  0  0  0  0  0  0  0  0  0  0
  1  2  1  0
  1  5  1  0
  2  3  1  0
  3  4  1  0
  5  6  1  6
  5  4  1  0
  6  7  2  0
  8  9  1  0
  8  6  1  0
  9 10  1  1
 11 10  1  0
 12 11  1  0
 12 13  2  0
 14 15  2  0
 14  9  1  0
 16 12  1  0
 17 14  1  0
 18 17  1  0
 18 19  1  6
 20 21  1  0
 20 19  1  0
 21 22  2  0
 23 18  1  0
 23 26  1  0
 24 23  2  0
 25 21  1  0
M  END
$$$$
