PEE.pdb
     RDKit          3D

 26 26  0  0  1  0  0  0  0  0999 V2000
   26.7830  -32.7328   -7.6290 N   0  0  0  0  0  0  0  0  0  0  0  0
   26.3444  -32.7183   -9.0299 C   0  0  0  0  0  0  0  0  0  0  0  0
   25.2574  -33.7734   -9.0430 C   0  0  0  0  0  0  0  0  0  0  0  0
   24.6188  -33.6697   -7.6934 C   0  0  0  0  0  0  0  0  0  0  0  0
   25.5389  -32.8148   -6.8735 C   0  0  1  0  0  0  0  0  0  0  0  0
   25.7366  -33.2789   -5.4897 C   0  0  0  0  0  0  0  0  0  0  0  0
   24.7847  -33.3699   -4.6864 O   0  0  0  0  0  0  0  0  0  0  0  0
   27.0143  -33.6326   -5.0372 N   0  0  0  0  0  0  0  0  0  0  0  0
   27.2134  -34.3107   -3.7860 C   0  0  1  0  0  0  0  0  0  0  0  0
   28.4897  -35.0317   -3.6430 C   0  0  0  0  0  0  0  0  0  0  0  0
   28.7335  -35.7257   -2.3432 C   0  0  0  0  0  0  0  0  0  0  0  0
   30.0567  -36.3598   -2.2457 C   0  0  0  0  0  0  0  0  0  0  0  0
   30.8975  -36.1977   -3.1449 O   0  0  0  0  0  0  0  0  0  0  0  0
   27.1165  -33.3214   -2.6496 C   0  0  0  0  0  0  0  0  0  0  0  0
   27.5406  -32.1659   -2.7614 O   0  0  0  0  0  0  0  0  0  0  0  0
   30.3676  -37.1383   -1.1526 O   0  0  0  0  0  0  0  0  0  0  0  0
   26.5325  -33.7194   -1.4390 N   0  0  0  0  0  0  0  0  0  0  0  0
   26.3086  -32.8725   -0.2970 C   0  0  1  0  0  0  0  0  0  0  0  0
   24.8877  -32.6800    0.0680 C   0  0  0  0  0  0  0  0  0  0  0  0
   24.5553  -31.2867    0.5137 C   0  0  0  0  0  0  0  0  0  0  0  0
   23.3444  -31.1904    1.3537 C   0  0  0  0  0  0  0  0  0  0  0  0
   22.3075  -31.8218    1.0525 O   0  0  0  0  0  0  0  0  0  0  0  0
   26.9841  -33.5060    0.8697 C   0  0  0  0  0  0  0  0  0  0  0  0
   27.2201  -34.7312    0.8636 O   0  0  0  0  0  0  0  0  0  0  0  0
   23.2969  -30.4079    2.4990 O   0  0  0  0  0  0  0  0  0  0  0  0
   27.3723  -32.7828    1.9872 O   0  0  0  0  0  0  0  0  0  0  0  0
  1  2  1  0
  1  5  1  0
  2  3  1  0
  3  4  1  0
  5  6  1  1
  5  4  1  0
  6  7  2  0
  8  9  1  0
  8  6  1  0
  9 10  1  6
 11 10  1  0
 12 11  1  0
 12 13  2  0
 14 15  2  0
 14  9  1  0
 16 12  1  0
 17 14  1  0
 18 17  1  0
 18 19  1  1
 20 21  1  0
 20 19  1  0
 21 22  2  0
 23 18  1  0
 23 26  1  0
 24 23  2  0
 25 21  1  0
M  END
$$$$
