PEE.pdb
     RDKit          3D

 26 26  0  0  1  0  0  0  0  0999 V2000
   29.1490  -21.8924  -11.5934 N   0  0  0  0  0  0  0  0  0  0  0  0
   30.4583  -21.9937  -10.9372 C   0  0  0  0  0  0  0  0  0  0  0  0
   30.6564  -20.5968  -10.3855 C   0  0  0  0  0  0  0  0  0  0  0  0
   29.2791  -20.1404  -10.0188 C   0  0  0  0  0  0  0  0  0  0  0  0
   28.3428  -21.1278  -10.6496 C   0  0  1  0  0  0  0  0  0  0  0  0
   27.1469  -20.5303  -11.2679 C   0  0  0  0  0  0  0  0  0  0  0  0
   26.4037  -19.7494  -10.6375 O   0  0  0  0  0  0  0  0  0  0  0  0
   26.8113  -20.8295  -12.5947 N   0  0  0  0  0  0  0  0  0  0  0  0
   25.8266  -20.0709  -13.3159 C   0  0  1  0  0  0  0  0  0  0  0  0
   26.2302  -19.6026  -14.6526 C   0  0  0  0  0  0  0  0  0  0  0  0
   25.2382  -18.7837  -15.4114 C   0  0  0  0  0  0  0  0  0  0  0  0
   25.7333  -18.3000  -16.7089 C   0  0  0  0  0  0  0  0  0  0  0  0
   26.8463  -17.7560  -16.7921 O   0  0  0  0  0  0  0  0  0  0  0  0
   24.5701  -20.8921  -13.4785 C   0  0  0  0  0  0  0  0  0  0  0  0
   24.6125  -22.0725  -13.8420 O   0  0  0  0  0  0  0  0  0  0  0  0
   24.9604  -18.4499  -17.8393 O   0  0  0  0  0  0  0  0  0  0  0  0
   23.3254  -20.3050  -13.2113 N   0  0  0  0  0  0  0  0  0  0  0  0
   22.0606  -20.9916  -13.1925 C   0  0  1  0  0  0  0  0  0  0  0  0
   20.9149  -20.1765  -12.7322 C   0  0  0  0  0  0  0  0  0  0  0  0
   19.5977  -20.8928  -12.7801 C   0  0  0  0  0  0  0  0  0  0  0  0
   18.4513  -20.0878  -12.3122 C   0  0  0  0  0  0  0  0  0  0  0  0
   18.3584  -18.8766  -12.6107 O   0  0  0  0  0  0  0  0  0  0  0  0
   21.7651  -21.4241  -14.5870 C   0  0  0  0  0  0  0  0  0  0  0  0
   22.0491  -20.6767  -15.5449 O   0  0  0  0  0  0  0  0  0  0  0  0
   17.4376  -20.6251  -11.5311 O   0  0  0  0  0  0  0  0  0  0  0  0
   21.1767  -22.6455  -14.8781 O   0  0  0  0  0  0  0  0  0  0  0  0
  1  2  1  0
  1  5  1  0
  2  3  1  0
  3  4  1  0
  5  6  1  6
  5  4  1  0
  6  7  2  0
  8  9  1  0
  8  6  1  0
  9 10  1  6
 11 10  1  0
 12 11  1  0
 12 13  2  0
 14 15  2  0
 14  9  1  0
 16 12  1  0
 17 14  1  0
 18 17  1  0
 18 19  1  6
 20 21  1  0
 20 19  1  0
 21 22  2  0
 23 18  1  0
 23 26  1  0
 24 23  2  0
 25 21  1  0
M  END
$$$$
