PEE.pdb
     RDKit          3D

 26 26  0  0  1  0  0  0  0  0999 V2000
   15.6215  -17.4379    3.2633 N   0  0  0  0  0  0  0  0  0  0  0  0
   15.7742  -17.1083    1.8409 C   0  0  0  0  0  0  0  0  0  0  0  0
   17.2777  -16.9983    1.6904 C   0  0  0  0  0  0  0  0  0  0  0  0
   17.8247  -18.0125    2.6454 C   0  0  0  0  0  0  0  0  0  0  0  0
   16.6687  -18.4219    3.5090 C   0  0  1  0  0  0  0  0  0  0  0  0
   16.9933  -18.5708    4.9379 C   0  0  0  0  0  0  0  0  0  0  0  0
   16.6246  -17.7305    5.7850 O   0  0  0  0  0  0  0  0  0  0  0  0
   17.7337  -19.6729    5.3848 N   0  0  0  0  0  0  0  0  0  0  0  0
   18.1901  -19.7776    6.7434 C   0  0  1  0  0  0  0  0  0  0  0  0
   18.2517  -21.1413    7.2962 C   0  0  0  0  0  0  0  0  0  0  0  0
   18.5068  -21.2669    8.7623 C   0  0  0  0  0  0  0  0  0  0  0  0
   18.6413  -22.6557    9.2266 C   0  0  0  0  0  0  0  0  0  0  0  0
   18.3216  -23.5987    8.4847 O   0  0  0  0  0  0  0  0  0  0  0  0
   19.5673  -19.1711    6.8660 C   0  0  0  0  0  0  0  0  0  0  0  0
   20.4170  -19.3137    5.9800 O   0  0  0  0  0  0  0  0  0  0  0  0
   19.1239  -22.9148   10.4905 O   0  0  0  0  0  0  0  0  0  0  0  0
   19.8926  -18.4286    8.0097 N   0  0  0  0  0  0  0  0  0  0  0  0
   21.1146  -17.6967    8.2154 C   0  0  1  0  0  0  0  0  0  0  0  0
   20.9598  -16.4137    8.9358 C   0  0  0  0  0  0  0  0  0  0  0  0
   22.2382  -15.6450    9.0953 C   0  0  0  0  0  0  0  0  0  0  0  0
   22.1003  -14.3892    9.8603 C   0  0  0  0  0  0  0  0  0  0  0  0
   23.0979  -13.8539   10.3923 O   0  0  0  0  0  0  0  0  0  0  0  0
   22.0195  -18.5557    9.0292 C   0  0  0  0  0  0  0  0  0  0  0  0
   23.2520  -18.5189    8.8386 O   0  0  0  0  0  0  0  0  0  0  0  0
   20.8786  -13.7517   10.0249 O   0  0  0  0  0  0  0  0  0  0  0  0
   21.5469  -19.4132   10.0111 O   0  0  0  0  0  0  0  0  0  0  0  0
  1  2  1  0
  1  5  1  0
  2  3  1  0
  3  4  1  0
  5  6  1  1
  5  4  1  0
  6  7  2  0
  8  9  1  0
  8  6  1  0
  9 10  1  6
 11 10  1  0
 12 11  1  0
 12 13  2  0
 14 15  2  0
 14  9  1  0
 16 12  1  0
 17 14  1  0
 18 17  1  0
 18 19  1  1
 20 21  1  0
 20 19  1  0
 21 22  2  0
 23 18  1  0
 23 26  1  0
 24 23  2  0
 25 21  1  0
M  END
$$$$
