PEE.pdb
     RDKit          3D

 26 26  0  0  1  0  0  0  0  0999 V2000
   24.7731  -21.3861  -16.0699 N   0  0  0  0  0  0  0  0  0  0  0  0
   26.0820  -21.4472  -16.7318 C   0  0  0  0  0  0  0  0  0  0  0  0
   26.9300  -20.5405  -15.8636 C   0  0  0  0  0  0  0  0  0  0  0  0
   26.3909  -20.7347  -14.4811 C   0  0  0  0  0  0  0  0  0  0  0  0
   25.0945  -21.4698  -14.6504 C   0  0  1  0  0  0  0  0  0  0  0  0
   24.0020  -20.9937  -13.7849 C   0  0  0  0  0  0  0  0  0  0  0  0
   24.1435  -20.8881  -12.5486 O   0  0  0  0  0  0  0  0  0  0  0  0
   22.7624  -20.6448  -14.3366 N   0  0  0  0  0  0  0  0  0  0  0  0
   21.6953  -20.1206  -13.5295 C   0  0  1  0  0  0  0  0  0  0  0  0
   21.0762  -18.8755  -14.0145 C   0  0  0  0  0  0  0  0  0  0  0  0
   19.6924  -18.9776  -14.5669 C   0  0  0  0  0  0  0  0  0  0  0  0
   19.1791  -17.7174  -15.1243 C   0  0  0  0  0  0  0  0  0  0  0  0
   18.0239  -17.6556  -15.5752 O   0  0  0  0  0  0  0  0  0  0  0  0
   20.6024  -21.1540  -13.3969 C   0  0  0  0  0  0  0  0  0  0  0  0
   20.1468  -21.7424  -14.3836 O   0  0  0  0  0  0  0  0  0  0  0  0
   19.9819  -16.5981  -15.1476 O   0  0  0  0  0  0  0  0  0  0  0  0
   20.0911  -21.4552  -12.1268 N   0  0  0  0  0  0  0  0  0  0  0  0
   19.1884  -22.5333  -11.8199 C   0  0  1  0  0  0  0  0  0  0  0  0
   19.2162  -22.9890  -10.4126 C   0  0  0  0  0  0  0  0  0  0  0  0
   18.2434  -24.0896  -10.1079 C   0  0  0  0  0  0  0  0  0  0  0  0
   18.2257  -24.5097   -8.6921 C   0  0  0  0  0  0  0  0  0  0  0  0
   17.4049  -25.3640   -8.2907 O   0  0  0  0  0  0  0  0  0  0  0  0
   17.8065  -22.0549  -12.1037 C   0  0  0  0  0  0  0  0  0  0  0  0
   16.9963  -22.8016  -12.6892 O   0  0  0  0  0  0  0  0  0  0  0  0
   19.1030  -23.9866   -7.7525 O   0  0  0  0  0  0  0  0  0  0  0  0
   17.3675  -20.7911  -11.7396 O   0  0  0  0  0  0  0  0  0  0  0  0
  1  2  1  0
  1  5  1  0
  2  3  1  0
  3  4  1  0
  5  6  1  1
  5  4  1  0
  6  7  2  0
  8  9  1  0
  8  6  1  0
  9 10  1  6
 11 10  1  0
 12 11  1  0
 12 13  2  0
 14 15  2  0
 14  9  1  0
 16 12  1  0
 17 14  1  0
 18 17  1  0
 18 19  1  1
 20 21  1  0
 20 19  1  0
 21 22  2  0
 23 18  1  0
 23 26  1  0
 24 23  2  0
 25 21  1  0
M  END
$$$$
