PEE.pdb
     RDKit          3D

 26 26  0  0  1  0  0  0  0  0999 V2000
   18.4339  -11.7363  -15.1651 N   0  0  0  0  0  0  0  0  0  0  0  0
   18.0307  -13.0714  -15.6234 C   0  0  0  0  0  0  0  0  0  0  0  0
   17.3856  -12.7766  -16.9620 C   0  0  0  0  0  0  0  0  0  0  0  0
   18.1640  -11.6199  -17.5060 C   0  0  0  0  0  0  0  0  0  0  0  0
   18.9847  -11.1078  -16.3597 C   0  0  1  0  0  0  0  0  0  0  0  0
   19.0487   -9.6398  -16.2589 C   0  0  0  0  0  0  0  0  0  0  0  0
   19.8001   -8.9644  -16.9930 O   0  0  0  0  0  0  0  0  0  0  0  0
   18.2580   -8.9590  -15.3241 N   0  0  0  0  0  0  0  0  0  0  0  0
   18.2703   -7.5256  -15.2232 C   0  0  1  0  0  0  0  0  0  0  0  0
   17.0860   -6.9166  -14.5942 C   0  0  0  0  0  0  0  0  0  0  0  0
   15.8360   -6.8668  -15.4100 C   0  0  0  0  0  0  0  0  0  0  0  0
   14.6499   -6.4337  -14.6564 C   0  0  0  0  0  0  0  0  0  0  0  0
   14.0981   -5.3535  -14.9220 O   0  0  0  0  0  0  0  0  0  0  0  0
   19.4834   -7.0806  -14.4423 C   0  0  0  0  0  0  0  0  0  0  0  0
   19.8534   -7.6800  -13.4267 O   0  0  0  0  0  0  0  0  0  0  0  0
   14.1463   -7.2284  -13.6501 O   0  0  0  0  0  0  0  0  0  0  0  0
   20.2090   -5.9626  -14.8767 N   0  0  0  0  0  0  0  0  0  0  0  0
   21.4906   -5.5459  -14.3713 C   0  0  1  0  0  0  0  0  0  0  0  0
   22.6221   -5.7389  -15.3047 C   0  0  0  0  0  0  0  0  0  0  0  0
   23.9286   -5.2015  -14.7997 C   0  0  0  0  0  0  0  0  0  0  0  0
   25.0464   -5.3240  -15.7571 C   0  0  0  0  0  0  0  0  0  0  0  0
   25.2190   -6.3805  -16.4040 O   0  0  0  0  0  0  0  0  0  0  0  0
   21.4032   -4.0885  -14.0759 C   0  0  0  0  0  0  0  0  0  0  0  0
   22.1855   -3.5712  -13.2530 O   0  0  0  0  0  0  0  0  0  0  0  0
   25.9459   -4.2914  -15.9826 O   0  0  0  0  0  0  0  0  0  0  0  0
   20.4733   -3.2604  -14.6860 O   0  0  0  0  0  0  0  0  0  0  0  0
  1  2  1  0
  1  5  1  0
  2  3  1  0
  3  4  1  0
  5  6  1  1
  5  4  1  0
  6  7  2  0
  8  9  1  0
  8  6  1  0
  9 10  1  1
 11 10  1  0
 12 11  1  0
 12 13  2  0
 14 15  2  0
 14  9  1  0
 16 12  1  0
 17 14  1  0
 18 17  1  0
 18 19  1  6
 20 21  1  0
 20 19  1  0
 21 22  2  0
 23 18  1  0
 23 26  1  0
 24 23  2  0
 25 21  1  0
M  END
$$$$
