PEE.pdb
     RDKit          3D

 26 26  0  0  1  0  0  0  0  0999 V2000
   27.9830  -34.7188   -5.1098 N   0  0  0  0  0  0  0  0  0  0  0  0
   29.0263  -34.4165   -6.0974 C   0  0  0  0  0  0  0  0  0  0  0  0
   30.0776  -33.7189   -5.2590 C   0  0  0  0  0  0  0  0  0  0  0  0
   29.9943  -34.3867   -3.9223 C   0  0  0  0  0  0  0  0  0  0  0  0
   28.7269  -35.1885   -3.9474 C   0  0  1  0  0  0  0  0  0  0  0  0
   27.9419  -35.1337   -2.7024 C   0  0  0  0  0  0  0  0  0  0  0  0
   26.8111  -34.6051   -2.6630 O   0  0  0  0  0  0  0  0  0  0  0  0
   28.4534  -35.6801   -1.5181 N   0  0  0  0  0  0  0  0  0  0  0  0
   27.6560  -35.7865   -0.3274 C   0  0  1  0  0  0  0  0  0  0  0  0
   27.5691  -37.1305    0.2686 C   0  0  0  0  0  0  0  0  0  0  0  0
   26.5966  -38.0825   -0.3465 C   0  0  0  0  0  0  0  0  0  0  0  0
   26.4914  -39.3669    0.3617 C   0  0  0  0  0  0  0  0  0  0  0  0
   27.2600  -39.6299    1.3008 O   0  0  0  0  0  0  0  0  0  0  0  0
   28.1918  -34.8507    0.7294 C   0  0  0  0  0  0  0  0  0  0  0  0
   29.4045  -34.6516    0.8609 O   0  0  0  0  0  0  0  0  0  0  0  0
   25.5365  -40.2849   -0.0166 O   0  0  0  0  0  0  0  0  0  0  0  0
   27.2959  -34.1910    1.5823 N   0  0  0  0  0  0  0  0  0  0  0  0
   27.6470  -33.1940    2.5590 C   0  0  1  0  0  0  0  0  0  0  0  0
   26.5070  -32.4206    3.0988 C   0  0  0  0  0  0  0  0  0  0  0  0
   26.9002  -31.3636    4.0881 C   0  0  0  0  0  0  0  0  0  0  0  0
   25.7604  -30.6948    4.7474 C   0  0  0  0  0  0  0  0  0  0  0  0
   24.5925  -30.8707    4.3352 O   0  0  0  0  0  0  0  0  0  0  0  0
   28.2886  -33.8964    3.7053 C   0  0  0  0  0  0  0  0  0  0  0  0
   27.9256  -35.0503    4.0113 O   0  0  0  0  0  0  0  0  0  0  0  0
   25.9250  -29.8520    5.8378 O   0  0  0  0  0  0  0  0  0  0  0  0
   29.2929  -33.3163    4.4652 O   0  0  0  0  0  0  0  0  0  0  0  0
  1  2  1  0
  1  5  1  0
  2  3  1  0
  3  4  1  0
  5  6  1  1
  5  4  1  0
  6  7  2  0
  8  9  1  0
  8  6  1  0
  9 10  1  1
 11 10  1  0
 12 11  1  0
 12 13  2  0
 14 15  2  0
 14  9  1  0
 16 12  1  0
 17 14  1  0
 18 17  1  0
 18 19  1  1
 20 21  1  0
 20 19  1  0
 21 22  2  0
 23 18  1  0
 23 26  1  0
 24 23  2  0
 25 21  1  0
M  END
$$$$
