PEE.pdb
     RDKit          3D

 26 26  0  0  1  0  0  0  0  0999 V2000
   19.9770  -11.1592  -16.9276 N   0  0  0  0  0  0  0  0  0  0  0  0
   20.1043  -12.6097  -17.1142 C   0  0  0  0  0  0  0  0  0  0  0  0
   19.7316  -13.1490  -15.7484 C   0  0  0  0  0  0  0  0  0  0  0  0
   18.6958  -12.1961  -15.2397 C   0  0  0  0  0  0  0  0  0  0  0  0
   18.7473  -11.0118  -16.1586 C   0  0  1  0  0  0  0  0  0  0  0  0
   18.6448   -9.7068  -15.4834 C   0  0  0  0  0  0  0  0  0  0  0  0
   17.6449   -9.3979  -14.8020 O   0  0  0  0  0  0  0  0  0  0  0  0
   19.6805   -8.7697  -15.5928 N   0  0  0  0  0  0  0  0  0  0  0  0
   19.6069   -7.4827  -14.9579 C   0  0  1  0  0  0  0  0  0  0  0  0
   20.8606   -6.9873  -14.3647 C   0  0  0  0  0  0  0  0  0  0  0  0
   20.8150   -5.6479  -13.7055 C   0  0  0  0  0  0  0  0  0  0  0  0
   22.0867   -5.2452  -13.0867 C   0  0  0  0  0  0  0  0  0  0  0  0
   22.7812   -4.3548  -13.6031 O   0  0  0  0  0  0  0  0  0  0  0  0
   19.1317   -6.4508  -15.9525 C   0  0  0  0  0  0  0  0  0  0  0  0
   19.6202   -6.3726  -17.0850 O   0  0  0  0  0  0  0  0  0  0  0  0
   22.5123   -5.8574  -11.9283 O   0  0  0  0  0  0  0  0  0  0  0  0
   18.1132   -5.5601  -15.5859 N   0  0  0  0  0  0  0  0  0  0  0  0
   17.4813   -4.6039  -16.4566 C   0  0  1  0  0  0  0  0  0  0  0  0
   16.0250   -4.7920  -16.6375 C   0  0  0  0  0  0  0  0  0  0  0  0
   15.3835   -3.7698  -17.5287 C   0  0  0  0  0  0  0  0  0  0  0  0
   14.1581   -4.2386  -18.2067 C   0  0  0  0  0  0  0  0  0  0  0  0
   14.0256   -4.1113  -19.4440 O   0  0  0  0  0  0  0  0  0  0  0  0
   17.6833   -3.2537  -15.8607 C   0  0  0  0  0  0  0  0  0  0  0  0
   17.9002   -3.1384  -14.6374 O   0  0  0  0  0  0  0  0  0  0  0  0
   13.1105   -4.8330  -17.5173 O   0  0  0  0  0  0  0  0  0  0  0  0
   17.6414   -2.0928  -16.6177 O   0  0  0  0  0  0  0  0  0  0  0  0
  1  2  1  0
  1  5  1  0
  2  3  1  0
  3  4  1  0
  5  6  1  1
  5  4  1  0
  6  7  2  0
  8  9  1  0
  8  6  1  0
  9 10  1  6
 11 10  1  0
 12 11  1  0
 12 13  2  0
 14 15  2  0
 14  9  1  0
 16 12  1  0
 17 14  1  0
 18 17  1  0
 18 19  1  1
 20 21  1  0
 20 19  1  0
 21 22  2  0
 23 18  1  0
 23 26  1  0
 24 23  2  0
 25 21  1  0
M  END
$$$$
