PEE.pdb
     RDKit          3D

 26 26  0  0  1  0  0  0  0  0999 V2000
   24.1187  -11.9755  -15.9253 N   0  0  0  0  0  0  0  0  0  0  0  0
   24.6629  -13.2608  -16.3801 C   0  0  0  0  0  0  0  0  0  0  0  0
   23.5731  -13.7698  -17.3011 C   0  0  0  0  0  0  0  0  0  0  0  0
   23.0074  -12.5351  -17.9298 C   0  0  0  0  0  0  0  0  0  0  0  0
   23.5539  -11.3873  -17.1338 C   0  0  1  0  0  0  0  0  0  0  0  0
   22.5808  -10.3183  -16.8518 C   0  0  0  0  0  0  0  0  0  0  0  0
   22.2316   -9.5013  -17.7294 O   0  0  0  0  0  0  0  0  0  0  0  0
   22.0182  -10.1916  -15.5750 N   0  0  0  0  0  0  0  0  0  0  0  0
   21.0592   -9.1662  -15.2687 C   0  0  1  0  0  0  0  0  0  0  0  0
   20.0040   -9.5398  -14.3117 C   0  0  0  0  0  0  0  0  0  0  0  0
   18.9114   -8.5467  -14.0865 C   0  0  0  0  0  0  0  0  0  0  0  0
   17.8837   -8.9974  -13.1362 C   0  0  0  0  0  0  0  0  0  0  0  0
   17.9895   -8.7353  -11.9271 O   0  0  0  0  0  0  0  0  0  0  0  0
   21.7695   -7.9534  -14.7169 C   0  0  0  0  0  0  0  0  0  0  0  0
   22.7312   -8.0623  -13.9484 O   0  0  0  0  0  0  0  0  0  0  0  0
   16.7971   -9.7142  -13.5869 O   0  0  0  0  0  0  0  0  0  0  0  0
   21.3304   -6.6734  -15.0829 N   0  0  0  0  0  0  0  0  0  0  0  0
   22.0222   -5.4403  -14.8136 C   0  0  1  0  0  0  0  0  0  0  0  0
   21.8146   -4.3759  -15.8200 C   0  0  0  0  0  0  0  0  0  0  0  0
   22.8418   -4.3605  -16.9132 C   0  0  0  0  0  0  0  0  0  0  0  0
   22.5916   -3.3572  -17.9677 C   0  0  0  0  0  0  0  0  0  0  0  0
   21.5723   -2.6331  -17.9299 O   0  0  0  0  0  0  0  0  0  0  0  0
   21.5218   -4.9216  -13.5100 C   0  0  0  0  0  0  0  0  0  0  0  0
   20.4633   -5.3706  -13.0254 O   0  0  0  0  0  0  0  0  0  0  0  0
   23.4592   -3.1711  -19.0349 O   0  0  0  0  0  0  0  0  0  0  0  0
   22.1914   -3.9417  -12.7930 O   0  0  0  0  0  0  0  0  0  0  0  0
  1  2  1  0
  1  5  1  0
  2  3  1  0
  3  4  1  0
  5  6  1  1
  5  4  1  0
  6  7  2  0
  8  9  1  0
  8  6  1  0
  9 10  1  1
 11 10  1  0
 12 11  1  0
 12 13  2  0
 14 15  2  0
 14  9  1  0
 16 12  1  0
 17 14  1  0
 18 17  1  0
 18 19  1  6
 20 21  1  0
 20 19  1  0
 21 22  2  0
 23 18  1  0
 23 26  1  0
 24 23  2  0
 25 21  1  0
M  END
$$$$
