PEE.pdb
     RDKit          3D

 26 26  0  0  1  0  0  0  0  0999 V2000
   26.7156  -20.4595  -12.0875 N   0  0  0  0  0  0  0  0  0  0  0  0
   28.0936  -20.6428  -11.6154 C   0  0  0  0  0  0  0  0  0  0  0  0
   28.8276  -21.0168  -12.8867 C   0  0  0  0  0  0  0  0  0  0  0  0
   28.1313  -20.2435  -13.9623 C   0  0  0  0  0  0  0  0  0  0  0  0
   26.8689  -19.7270  -13.3386 C   0  0  1  0  0  0  0  0  0  0  0  0
   25.6791  -19.8108  -14.2027 C   0  0  0  0  0  0  0  0  0  0  0  0
   25.6690  -19.3254  -15.3533 O   0  0  0  0  0  0  0  0  0  0  0  0
   24.5159  -20.4447  -13.7468 N   0  0  0  0  0  0  0  0  0  0  0  0
   23.3783  -20.6449  -14.6015 C   0  0  1  0  0  0  0  0  0  0  0  0
   22.9812  -22.0456  -14.8235 C   0  0  0  0  0  0  0  0  0  0  0  0
   24.0344  -23.0868  -14.6305 C   0  0  0  0  0  0  0  0  0  0  0  0
   23.5710  -24.4580  -14.8906 C   0  0  0  0  0  0  0  0  0  0  0  0
   22.3865  -24.6724  -15.1952 O   0  0  0  0  0  0  0  0  0  0  0  0
   22.1833  -19.9140  -14.0381 C   0  0  0  0  0  0  0  0  0  0  0  0
   21.9782  -19.8535  -12.8209 O   0  0  0  0  0  0  0  0  0  0  0  0
   24.4532  -25.5118  -14.7964 O   0  0  0  0  0  0  0  0  0  0  0  0
   21.2843  -19.2883  -14.9132 N   0  0  0  0  0  0  0  0  0  0  0  0
   20.1151  -18.5446  -14.5243 C   0  0  1  0  0  0  0  0  0  0  0  0
   19.4996  -17.7407  -15.6032 C   0  0  0  0  0  0  0  0  0  0  0  0
   18.0109  -17.8947  -15.7059 C   0  0  0  0  0  0  0  0  0  0  0  0
   17.4162  -17.2644  -16.9018 C   0  0  0  0  0  0  0  0  0  0  0  0
   17.7507  -17.6325  -18.0496 O   0  0  0  0  0  0  0  0  0  0  0  0
   19.0929  -19.5256  -14.0643 C   0  0  0  0  0  0  0  0  0  0  0  0
   18.1956  -19.1670  -13.2750 O   0  0  0  0  0  0  0  0  0  0  0  0
   16.4735  -16.2496  -16.8138 O   0  0  0  0  0  0  0  0  0  0  0  0
   19.0905  -20.8481  -14.4812 O   0  0  0  0  0  0  0  0  0  0  0  0
  1  2  1  0
  1  5  1  0
  2  3  1  0
  3  4  1  0
  5  6  1  6
  5  4  1  0
  6  7  2  0
  8  9  1  0
  8  6  1  0
  9 10  1  1
 11 10  1  0
 12 11  1  0
 12 13  2  0
 14 15  2  0
 14  9  1  0
 16 12  1  0
 17 14  1  0
 18 17  1  0
 18 19  1  6
 20 21  1  0
 20 19  1  0
 21 22  2  0
 23 18  1  0
 23 26  1  0
 24 23  2  0
 25 21  1  0
M  END
$$$$
