PEE.pdb
     RDKit          3D

 26 26  0  0  1  0  0  0  0  0999 V2000
   16.7782  -25.8255   -4.5587 N   0  0  0  0  0  0  0  0  0  0  0  0
   17.0846  -26.4210   -5.8651 C   0  0  0  0  0  0  0  0  0  0  0  0
   15.7600  -26.3131   -6.5923 C   0  0  0  0  0  0  0  0  0  0  0  0
   15.1550  -25.0431   -6.0815 C   0  0  0  0  0  0  0  0  0  0  0  0
   15.9754  -24.6540   -4.8877 C   0  0  1  0  0  0  0  0  0  0  0  0
   15.1945  -24.1529   -3.7438 C   0  0  0  0  0  0  0  0  0  0  0  0
   14.5042  -23.1154   -3.8254 O   0  0  0  0  0  0  0  0  0  0  0  0
   15.2096  -24.8378   -2.5218 N   0  0  0  0  0  0  0  0  0  0  0  0
   14.4659  -24.3720   -1.3839 C   0  0  1  0  0  0  0  0  0  0  0  0
   13.4567  -25.3036   -0.8520 C   0  0  0  0  0  0  0  0  0  0  0  0
   12.1052  -25.2726   -1.4866 C   0  0  0  0  0  0  0  0  0  0  0  0
   11.1424  -26.2061   -0.8833 C   0  0  0  0  0  0  0  0  0  0  0  0
    9.9622  -25.8628   -0.7070 O   0  0  0  0  0  0  0  0  0  0  0  0
   15.4148  -24.0338   -0.2592 C   0  0  0  0  0  0  0  0  0  0  0  0
   16.5505  -24.5181   -0.2049 O   0  0  0  0  0  0  0  0  0  0  0  0
   11.5492  -27.4684   -0.5107 O   0  0  0  0  0  0  0  0  0  0  0  0
   15.0011  -23.1504    0.7476 N   0  0  0  0  0  0  0  0  0  0  0  0
   15.8222  -22.6604    1.8233 C   0  0  1  0  0  0  0  0  0  0  0  0
   15.4129  -21.3493    2.3733 C   0  0  0  0  0  0  0  0  0  0  0  0
   16.4630  -20.6854    3.2143 C   0  0  0  0  0  0  0  0  0  0  0  0
   16.0306  -19.4179    3.8369 C   0  0  0  0  0  0  0  0  0  0  0  0
   14.9749  -18.8554    3.4711 O   0  0  0  0  0  0  0  0  0  0  0  0
   15.7440  -23.6507    2.9333 C   0  0  0  0  0  0  0  0  0  0  0  0
   14.6348  -24.0863    3.3030 O   0  0  0  0  0  0  0  0  0  0  0  0
   16.7612  -18.7980    4.8409 O   0  0  0  0  0  0  0  0  0  0  0  0
   16.8705  -24.1226    3.5898 O   0  0  0  0  0  0  0  0  0  0  0  0
  1  2  1  0
  1  5  1  0
  2  3  1  0
  3  4  1  0
  5  6  1  1
  5  4  1  0
  6  7  2  0
  8  9  1  0
  8  6  1  0
  9 10  1  1
 11 10  1  0
 12 11  1  0
 12 13  2  0
 14 15  2  0
 14  9  1  0
 16 12  1  0
 17 14  1  0
 18 17  1  0
 18 19  1  1
 20 21  1  0
 20 19  1  0
 21 22  2  0
 23 18  1  0
 23 26  1  0
 24 23  2  0
 25 21  1  0
M  END
$$$$
