PEE.pdb
     RDKit          3D

 26 26  0  0  1  0  0  0  0  0999 V2000
   14.9071  -17.5669    4.3511 N   0  0  0  0  0  0  0  0  0  0  0  0
   14.0477  -17.7646    3.1775 C   0  0  0  0  0  0  0  0  0  0  0  0
   15.0445  -17.7530    2.0367 C   0  0  0  0  0  0  0  0  0  0  0  0
   16.2772  -18.3785    2.6103 C   0  0  0  0  0  0  0  0  0  0  0  0
   16.0554  -18.4272    4.0929 C   0  0  1  0  0  0  0  0  0  0  0  0
   17.2338  -18.0704    4.9013 C   0  0  0  0  0  0  0  0  0  0  0  0
   18.3192  -18.6763    4.7812 O   0  0  0  0  0  0  0  0  0  0  0  0
   17.1623  -17.0296    5.8364 N   0  0  0  0  0  0  0  0  0  0  0  0
   18.2809  -16.6816    6.6686 C   0  0  1  0  0  0  0  0  0  0  0  0
   18.3811  -15.2621    7.0481 C   0  0  0  0  0  0  0  0  0  0  0  0
   19.5646  -14.8617    7.8664 C   0  0  0  0  0  0  0  0  0  0  0  0
   19.5919  -13.4334    8.2148 C   0  0  0  0  0  0  0  0  0  0  0  0
   18.6833  -12.6775    7.8341 O   0  0  0  0  0  0  0  0  0  0  0  0
   18.2412  -17.4940    7.9407 C   0  0  0  0  0  0  0  0  0  0  0  0
   17.1969  -17.6311    8.5871 O   0  0  0  0  0  0  0  0  0  0  0  0
   20.6297  -12.9286    8.9671 O   0  0  0  0  0  0  0  0  0  0  0  0
   19.4141  -18.1083    8.4013 N   0  0  0  0  0  0  0  0  0  0  0  0
   19.5140  -18.9727    9.5478 C   0  0  1  0  0  0  0  0  0  0  0  0
   19.4910  -20.4200    9.2418 C   0  0  0  0  0  0  0  0  0  0  0  0
   19.5506  -21.3013   10.4544 C   0  0  0  0  0  0  0  0  0  0  0  0
   19.5898  -22.7467   10.1534 C   0  0  0  0  0  0  0  0  0  0  0  0
   19.6288  -23.1508    8.9702 O   0  0  0  0  0  0  0  0  0  0  0  0
   20.8128  -18.6815   10.2164 C   0  0  0  0  0  0  0  0  0  0  0  0
   21.0383  -19.1255   11.3605 O   0  0  0  0  0  0  0  0  0  0  0  0
   19.5849  -23.7121   11.1505 O   0  0  0  0  0  0  0  0  0  0  0  0
   21.8059  -17.9238    9.6144 O   0  0  0  0  0  0  0  0  0  0  0  0
  1  2  1  0
  1  5  1  0
  2  3  1  0
  3  4  1  0
  5  6  1  1
  5  4  1  0
  6  7  2  0
  8  9  1  0
  8  6  1  0
  9 10  1  1
 11 10  1  0
 12 11  1  0
 12 13  2  0
 14 15  2  0
 14  9  1  0
 16 12  1  0
 17 14  1  0
 18 17  1  0
 18 19  1  6
 20 21  1  0
 20 19  1  0
 21 22  2  0
 23 18  1  0
 23 26  1  0
 24 23  2  0
 25 21  1  0
M  END
$$$$
