PEE.pdb
     RDKit          3D

 26 26  0  0  1  0  0  0  0  0999 V2000
   17.5052  -12.3771  -14.9155 N   0  0  0  0  0  0  0  0  0  0  0  0
   17.3412  -13.8025  -15.2264 C   0  0  0  0  0  0  0  0  0  0  0  0
   17.3488  -13.8095  -16.7413 C   0  0  0  0  0  0  0  0  0  0  0  0
   18.2890  -12.7071  -17.1161 C   0  0  0  0  0  0  0  0  0  0  0  0
   18.5250  -11.9289  -15.8558 C   0  0  1  0  0  0  0  0  0  0  0  0
   18.5411  -10.4667  -16.0319 C   0  0  0  0  0  0  0  0  0  0  0  0
   19.3918   -9.9022  -16.7512 O   0  0  0  0  0  0  0  0  0  0  0  0
   17.5901   -9.6652  -15.3870 N   0  0  0  0  0  0  0  0  0  0  0  0
   17.5524   -8.2403  -15.5690 C   0  0  1  0  0  0  0  0  0  0  0  0
   16.2862   -7.5806  -15.2077 C   0  0  0  0  0  0  0  0  0  0  0  0
   16.1916   -6.1117  -15.4603 C   0  0  0  0  0  0  0  0  0  0  0  0
   14.9146   -5.5161  -15.0398 C   0  0  0  0  0  0  0  0  0  0  0  0
   14.7181   -4.2970  -15.1700 O   0  0  0  0  0  0  0  0  0  0  0  0
   18.6521   -7.5946  -14.7607 C   0  0  0  0  0  0  0  0  0  0  0  0
   18.8386   -7.8870  -13.5744 O   0  0  0  0  0  0  0  0  0  0  0  0
   13.9295   -6.3124  -14.4982 O   0  0  0  0  0  0  0  0  0  0  0  0
   19.4824   -6.6415  -15.3668 N   0  0  0  0  0  0  0  0  0  0  0  0
   20.6050   -5.9900  -14.7450 C   0  0  1  0  0  0  0  0  0  0  0  0
   21.8640   -6.0408  -15.5204 C   0  0  0  0  0  0  0  0  0  0  0  0
   23.0457   -5.4556  -14.8051 C   0  0  0  0  0  0  0  0  0  0  0  0
   24.3183   -5.5617  -15.5469 C   0  0  0  0  0  0  0  0  0  0  0  0
   25.3447   -4.9741  -15.1396 O   0  0  0  0  0  0  0  0  0  0  0  0
   20.2493   -4.5540  -14.5710 C   0  0  0  0  0  0  0  0  0  0  0  0
   20.7105   -3.9100  -13.6069 O   0  0  0  0  0  0  0  0  0  0  0  0
   24.4371   -6.3050  -16.7130 O   0  0  0  0  0  0  0  0  0  0  0  0
   19.4117   -3.8835  -15.4493 O   0  0  0  0  0  0  0  0  0  0  0  0
  1  2  1  0
  1  5  1  0
  2  3  1  0
  3  4  1  0
  5  6  1  6
  5  4  1  0
  6  7  2  0
  8  9  1  0
  8  6  1  0
  9 10  1  1
 11 10  1  0
 12 11  1  0
 12 13  2  0
 14 15  2  0
 14  9  1  0
 16 12  1  0
 17 14  1  0
 18 17  1  0
 18 19  1  6
 20 21  1  0
 20 19  1  0
 21 22  2  0
 23 18  1  0
 23 26  1  0
 24 23  2  0
 25 21  1  0
M  END
$$$$
