HKR.pdb
     RDKit          3D

 31 31  0  0  1  0  0  0  0  0999 V2000
   25.5391  -18.1277  -17.1629 N   0  0  0  0  0  0  0  0  0  0  0  0
   25.4856  -17.0384  -18.0823 C   0  0  1  0  0  0  0  0  0  0  0  0
   24.0849  -16.5573  -18.2317 C   0  0  0  0  0  0  0  0  0  0  0  0
   23.1387  -17.5997  -18.6992 C   0  0  0  0  0  0  0  0  0  0  0  0
   22.4014  -18.5015  -17.9315 C   0  0  0  0  0  0  0  0  0  0  0  0
   21.6634  -19.2811  -18.7441 N   0  0  0  0  0  0  0  0  0  0  0  0
   21.9114  -18.9005  -19.9974 C   0  0  0  0  0  0  0  0  0  0  0  0
   22.8120  -17.8737  -19.9740 N   0  0  0  0  0  0  0  0  0  0  0  0
   26.4445  -15.9637  -17.6977 C   0  0  0  0  0  0  0  0  0  0  0  0
   26.3519  -15.5311  -16.5300 O   0  0  0  0  0  0  0  0  0  0  0  0
   27.4057  -15.4425  -18.5601 N   0  0  0  0  0  0  0  0  0  0  0  0
   28.3290  -14.3946  -18.3673 C   0  0  1  0  0  0  0  0  0  0  0  0
   29.5710  -14.3658  -19.2012 C   0  0  0  0  0  0  0  0  0  0  0  0
   30.6026  -13.3682  -18.8811 C   0  0  0  0  0  0  0  0  0  0  0  0
   31.8272  -13.4573  -19.7820 C   0  0  0  0  0  0  0  0  0  0  0  0
   32.8891  -12.4745  -19.2718 C   0  0  0  0  0  0  0  0  0  0  0  0
   34.1447  -12.6427  -19.9438 N   0  0  0  0  0  0  0  0  0  0  0  0
   27.7688  -13.0380  -18.2787 C   0  0  0  0  0  0  0  0  0  0  0  0
   26.8712  -12.7031  -19.0793 O   0  0  0  0  0  0  0  0  0  0  0  0
   22.2313   -9.5122  -13.1487 N   0  0  0  0  0  0  0  0  0  0  0  0
   22.6169   -8.4486  -14.0192 C   0  0  0  0  0  0  0  0  0  0  0  0
   21.8582   -7.4244  -14.1515 N   0  0  0  0  0  0  0  0  0  0  0  0
   23.8360   -8.5025  -14.7513 N   0  0  0  0  0  0  0  0  0  0  0  0
   24.5666   -9.7187  -14.9845 C   0  0  0  0  0  0  0  0  0  0  0  0
   25.7372   -9.6132  -15.9001 C   0  0  0  0  0  0  0  0  0  0  0  0
   26.4014  -10.9217  -16.1267 C   0  0  0  0  0  0  0  0  0  0  0  0
   27.5548  -10.7966  -17.1365 C   0  0  2  0  0  0  0  0  0  0  0  0
   28.1918  -12.0700  -17.3250 N   0  0  0  0  0  0  0  0  0  0  0  0
   28.4977   -9.7535  -16.6694 C   0  0  0  0  0  0  0  0  0  0  0  0
   28.1600   -8.4239  -16.8372 O   0  0  0  0  0  0  0  0  0  0  0  0
   29.5924  -10.0285  -16.1267 O   0  0  0  0  0  0  0  0  0  0  0  0
  2  1  1  1
  2  3  1  0
  3  4  1  0
  4  8  1  0
  4  5  2  0
  5  6  1  0
  7  6  1  0
  8  7  2  0
  9  2  1  0
  9 11  1  0
 10  9  2  0
 11 12  1  0
 13 14  1  0
 12 13  1  6
 14 15  1  0
 15 16  1  0
 17 16  1  0
 18 12  1  0
 19 18  2  0
 20 21  1  0
 21 22  2  0
 23 21  1  0
 23 24  1  0
 24 25  1  0
 26 25  1  0
 27 26  1  1
 27 28  1  0
 27 29  1  0
 28 18  1  0
 29 30  1  0
 31 29  2  0
M  END
$$$$
