HKR.pdb
     RDKit          3D

 31 31  0  0  1  0  0  0  0  0999 V2000
   24.1446  -12.9616  -17.8719 N   0  0  0  0  0  0  0  0  0  0  0  0
   23.3119  -12.0728  -18.6145 C   0  0  1  0  0  0  0  0  0  0  0  0
   21.9663  -12.6754  -18.8185 C   0  0  0  0  0  0  0  0  0  0  0  0
   21.9884  -13.9523  -19.5732 C   0  0  0  0  0  0  0  0  0  0  0  0
   21.1457  -14.3561  -20.6091 C   0  0  0  0  0  0  0  0  0  0  0  0
   21.5019  -15.5876  -21.0206 N   0  0  0  0  0  0  0  0  0  0  0  0
   22.5402  -15.9726  -20.2785 C   0  0  0  0  0  0  0  0  0  0  0  0
   22.8403  -14.9764  -19.3933 N   0  0  0  0  0  0  0  0  0  0  0  0
   23.2684  -10.7236  -17.9820 C   0  0  0  0  0  0  0  0  0  0  0  0
   22.9651  -10.6894  -16.7712 O   0  0  0  0  0  0  0  0  0  0  0  0
   23.5437   -9.5418  -18.6653 N   0  0  0  0  0  0  0  0  0  0  0  0
   23.4548   -8.2014  -18.2376 C   0  0  1  0  0  0  0  0  0  0  0  0
   23.9816   -7.1231  -19.1314 C   0  0  0  0  0  0  0  0  0  0  0  0
   23.9591   -5.7375  -18.6401 C   0  0  0  0  0  0  0  0  0  0  0  0
   24.3518   -4.7162  -19.6994 C   0  0  0  0  0  0  0  0  0  0  0  0
   24.3479   -3.3193  -19.0650 C   0  0  0  0  0  0  0  0  0  0  0  0
   24.4702   -2.2820  -20.0475 N   0  0  0  0  0  0  0  0  0  0  0  0
   22.1646   -7.7799  -17.6723 C   0  0  0  0  0  0  0  0  0  0  0  0
   21.1733   -7.6997  -18.4271 O   0  0  0  0  0  0  0  0  0  0  0  0
   16.0940  -10.9615  -12.5918 N   0  0  0  0  0  0  0  0  0  0  0  0
   15.6096   -9.8314  -13.3169 C   0  0  0  0  0  0  0  0  0  0  0  0
   14.3565   -9.7169  -13.5593 N   0  0  0  0  0  0  0  0  0  0  0  0
   16.4967   -8.8207  -13.7824 N   0  0  0  0  0  0  0  0  0  0  0  0
   17.8613   -9.0758  -14.1570 C   0  0  0  0  0  0  0  0  0  0  0  0
   18.6408   -7.8978  -14.6302 C   0  0  0  0  0  0  0  0  0  0  0  0
   19.9694   -8.2766  -15.1746 C   0  0  0  0  0  0  0  0  0  0  0  0
   20.7126   -7.0539  -15.7386 C   0  0  2  0  0  0  0  0  0  0  0  0
   21.9728   -7.4528  -16.3005 N   0  0  0  0  0  0  0  0  0  0  0  0
   20.8635   -6.0412  -14.6676 C   0  0  0  0  0  0  0  0  0  0  0  0
   19.7531   -5.3234  -14.2654 O   0  0  0  0  0  0  0  0  0  0  0  0
   21.9604   -5.8081  -14.1099 O   0  0  0  0  0  0  0  0  0  0  0  0
  2  1  1  1
  2  3  1  0
  3  4  1  0
  4  8  1  0
  4  5  2  0
  5  6  1  0
  7  6  1  0
  8  7  2  0
  9  2  1  0
  9 11  1  0
 10  9  2  0
 11 12  1  0
 13 14  1  0
 12 13  1  6
 14 15  1  0
 15 16  1  0
 17 16  1  0
 18 12  1  0
 19 18  2  0
 20 21  1  0
 21 22  2  0
 23 21  1  0
 23 24  1  0
 24 25  1  0
 26 25  1  0
 27 26  1  1
 27 28  1  0
 27 29  1  0
 28 18  1  0
 29 30  1  0
 31 29  2  0
M  END
$$$$
