HKR.pdb
     RDKit          3D

 31 31  0  0  1  0  0  0  0  0999 V2000
   21.9681  -21.4145  -10.9849 N   0  0  0  0  0  0  0  0  0  0  0  0
   22.2076  -21.2940  -12.3859 C   0  0  1  0  0  0  0  0  0  0  0  0
   20.9202  -21.1509  -13.1193 C   0  0  0  0  0  0  0  0  0  0  0  0
   20.0278  -22.3300  -13.0016 C   0  0  0  0  0  0  0  0  0  0  0  0
   20.3605  -23.6789  -13.1284 C   0  0  0  0  0  0  0  0  0  0  0  0
   19.2570  -24.4298  -12.9515 N   0  0  0  0  0  0  0  0  0  0  0  0
   18.2410  -23.5990  -12.7179 C   0  0  0  0  0  0  0  0  0  0  0  0
   18.7079  -22.3156  -12.7476 N   0  0  0  0  0  0  0  0  0  0  0  0
   23.1788  -20.2000  -12.6725 C   0  0  0  0  0  0  0  0  0  0  0  0
   22.8970  -19.0747  -12.2104 O   0  0  0  0  0  0  0  0  0  0  0  0
   24.3470  -20.3786  -13.4092 N   0  0  0  0  0  0  0  0  0  0  0  0
   25.3284  -19.4447  -13.7996 C   0  0  1  0  0  0  0  0  0  0  0  0
   26.7715  -19.8141  -13.6581 C   0  0  0  0  0  0  0  0  0  0  0  0
   27.2388  -20.3139  -12.3567 C   0  0  0  0  0  0  0  0  0  0  0  0
   28.6916  -20.7704  -12.3728 C   0  0  0  0  0  0  0  0  0  0  0  0
   29.0463  -21.3401  -10.9932 C   0  0  0  0  0  0  0  0  0  0  0  0
   30.3937  -21.8285  -10.9432 N   0  0  0  0  0  0  0  0  0  0  0  0
   25.1194  -18.7795  -15.0941 C   0  0  0  0  0  0  0  0  0  0  0  0
   24.9507  -19.4818  -16.1124 O   0  0  0  0  0  0  0  0  0  0  0  0
   26.2923  -11.2872  -19.1992 N   0  0  0  0  0  0  0  0  0  0  0  0
   24.8888  -11.4285  -19.4181 C   0  0  0  0  0  0  0  0  0  0  0  0
   24.3300  -10.8173  -20.3960 N   0  0  0  0  0  0  0  0  0  0  0  0
   24.0892  -12.2396  -18.5648 N   0  0  0  0  0  0  0  0  0  0  0  0
   24.6226  -13.0019  -17.4686 C   0  0  0  0  0  0  0  0  0  0  0  0
   24.5317  -14.4834  -17.5967 C   0  0  0  0  0  0  0  0  0  0  0  0
   24.8358  -15.1839  -16.3233 C   0  0  0  0  0  0  0  0  0  0  0  0
   24.8679  -16.7093  -16.5173 C   0  0  2  0  0  0  0  0  0  0  0  0
   25.0976  -17.3662  -15.2609 N   0  0  0  0  0  0  0  0  0  0  0  0
   25.8938  -17.0480  -17.5312 C   0  0  0  0  0  0  0  0  0  0  0  0
   25.5145  -17.1545  -18.8559 O   0  0  0  0  0  0  0  0  0  0  0  0
   27.0953  -17.2426  -17.2357 O   0  0  0  0  0  0  0  0  0  0  0  0
  2  1  1  1
  2  3  1  0
  3  4  1  0
  4  8  1  0
  4  5  2  0
  5  6  1  0
  7  6  1  0
  8  7  2  0
  9  2  1  0
  9 11  1  0
 10  9  2  0
 11 12  1  0
 13 14  1  0
 12 13  1  6
 14 15  1  0
 15 16  1  0
 17 16  1  0
 18 12  1  0
 19 18  2  0
 20 21  1  0
 21 22  2  0
 23 21  1  0
 23 24  1  0
 24 25  1  0
 26 25  1  0
 27 26  1  1
 27 28  1  0
 27 29  1  0
 28 18  1  0
 29 30  1  0
 31 29  2  0
M  END
$$$$
