HKR.pdb
     RDKit          3D

 31 31  0  0  1  0  0  0  0  0999 V2000
   14.7709  -13.1900  -16.2183 N   0  0  0  0  0  0  0  0  0  0  0  0
   14.8583  -11.9782  -15.4709 C   0  0  1  0  0  0  0  0  0  0  0  0
   14.7872  -12.2653  -14.0121 C   0  0  0  0  0  0  0  0  0  0  0  0
   13.5204  -12.9103  -13.5881 C   0  0  0  0  0  0  0  0  0  0  0  0
   13.3190  -14.2292  -13.1803 C   0  0  0  0  0  0  0  0  0  0  0  0
   12.0189  -14.4108  -12.8811 N   0  0  0  0  0  0  0  0  0  0  0  0
   11.3952  -13.2508  -13.0871 C   0  0  0  0  0  0  0  0  0  0  0  0
   12.3090  -12.3318  -13.5189 N   0  0  0  0  0  0  0  0  0  0  0  0
   16.0622  -11.1912  -15.8630 C   0  0  0  0  0  0  0  0  0  0  0  0
   17.1135  -11.8405  -16.0425 O   0  0  0  0  0  0  0  0  0  0  0  0
   16.0592   -9.8088  -16.0312 N   0  0  0  0  0  0  0  0  0  0  0  0
   17.1099   -8.9306  -16.3663 C   0  0  1  0  0  0  0  0  0  0  0  0
   16.7730   -7.5581  -16.8580 C   0  0  0  0  0  0  0  0  0  0  0  0
   17.8488   -6.7428  -17.4409 C   0  0  0  0  0  0  0  0  0  0  0  0
   17.3642   -5.4051  -17.9842 C   0  0  0  0  0  0  0  0  0  0  0  0
   18.5449   -4.6836  -18.6468 C   0  0  0  0  0  0  0  0  0  0  0  0
   18.1317   -3.4942  -19.3332 N   0  0  0  0  0  0  0  0  0  0  0  0
   18.2222   -8.8465  -15.4084 C   0  0  0  0  0  0  0  0  0  0  0  0
   17.9694   -8.5966  -14.2116 O   0  0  0  0  0  0  0  0  0  0  0  0
   26.2568  -12.4757  -15.7477 N   0  0  0  0  0  0  0  0  0  0  0  0
   24.8762  -12.7077  -16.0268 C   0  0  0  0  0  0  0  0  0  0  0  0
   24.5240  -13.7467  -16.6890 N   0  0  0  0  0  0  0  0  0  0  0  0
   23.8735  -11.8006  -15.5830 N   0  0  0  0  0  0  0  0  0  0  0  0
   24.1640  -10.5832  -14.8753 C   0  0  0  0  0  0  0  0  0  0  0  0
   22.9859   -9.8172  -14.3806 C   0  0  0  0  0  0  0  0  0  0  0  0
   21.8826   -9.7673  -15.3731 C   0  0  0  0  0  0  0  0  0  0  0  0
   20.6761   -8.9830  -14.8300 C   0  0  2  0  0  0  0  0  0  0  0  0
   19.5871   -9.0343  -15.7652 N   0  0  0  0  0  0  0  0  0  0  0  0
   21.0969   -7.5958  -14.5239 C   0  0  0  0  0  0  0  0  0  0  0  0
   21.5598   -7.3026  -13.2551 O   0  0  0  0  0  0  0  0  0  0  0  0
   21.0501   -6.6746  -15.3711 O   0  0  0  0  0  0  0  0  0  0  0  0
  2  1  1  6
  2  3  1  0
  3  4  1  0
  4  8  1  0
  4  5  2  0
  5  6  1  0
  7  6  1  0
  8  7  2  0
  9  2  1  0
  9 11  1  0
 10  9  2  0
 11 12  1  0
 13 14  1  0
 12 13  1  1
 14 15  1  0
 15 16  1  0
 17 16  1  0
 18 12  1  0
 19 18  2  0
 20 21  1  0
 21 22  2  0
 23 21  1  0
 23 24  1  0
 24 25  1  0
 26 25  1  0
 27 26  1  6
 27 28  1  0
 27 29  1  0
 28 18  1  0
 29 30  1  0
 31 29  2  0
M  END
$$$$
