HKR.pdb
     RDKit          3D

 31 31  0  0  1  0  0  0  0  0999 V2000
   22.4646  -14.3275  -19.5552 N   0  0  0  0  0  0  0  0  0  0  0  0
   22.3735  -14.6083  -18.1596 C   0  0  1  0  0  0  0  0  0  0  0  0
   21.1572  -13.9724  -17.5835 C   0  0  0  0  0  0  0  0  0  0  0  0
   21.2051  -12.4898  -17.5674 C   0  0  0  0  0  0  0  0  0  0  0  0
   21.2520  -11.6409  -16.4612 C   0  0  0  0  0  0  0  0  0  0  0  0
   21.2842  -10.3619  -16.8808 N   0  0  0  0  0  0  0  0  0  0  0  0
   21.2589  -10.3772  -18.2135 C   0  0  0  0  0  0  0  0  0  0  0  0
   21.2106  -11.6752  -18.6366 N   0  0  0  0  0  0  0  0  0  0  0  0
   22.4565  -16.0739  -17.9003 C   0  0  0  0  0  0  0  0  0  0  0  0
   21.7157  -16.8015  -18.5938 O   0  0  0  0  0  0  0  0  0  0  0  0
   23.2990  -16.6426  -16.9484 N   0  0  0  0  0  0  0  0  0  0  0  0
   23.4864  -17.9931  -16.5898 C   0  0  1  0  0  0  0  0  0  0  0  0
   24.8809  -18.5018  -16.4009 C   0  0  0  0  0  0  0  0  0  0  0  0
   25.0802  -19.9510  -16.2532 C   0  0  0  0  0  0  0  0  0  0  0  0
   26.5422  -20.3444  -16.0879 C   0  0  0  0  0  0  0  0  0  0  0  0
   26.6240  -21.8596  -15.8618 C   0  0  0  0  0  0  0  0  0  0  0  0
   27.9800  -22.3177  -15.7729 N   0  0  0  0  0  0  0  0  0  0  0  0
   22.6287  -18.5084  -15.5124 C   0  0  0  0  0  0  0  0  0  0  0  0
   22.7091  -17.9917  -14.3786 O   0  0  0  0  0  0  0  0  0  0  0  0
   17.5918  -25.7086  -16.0771 N   0  0  0  0  0  0  0  0  0  0  0  0
   17.2532  -24.7886  -15.0395 C   0  0  0  0  0  0  0  0  0  0  0  0
   16.1248  -24.8882  -14.4404 N   0  0  0  0  0  0  0  0  0  0  0  0
   18.1492  -23.7524  -14.6539 N   0  0  0  0  0  0  0  0  0  0  0  0
   19.4403  -23.5571  -15.2557 C   0  0  0  0  0  0  0  0  0  0  0  0
   20.2656  -22.4535  -14.6898 C   0  0  0  0  0  0  0  0  0  0  0  0
   19.8719  -21.1219  -15.2157 C   0  0  0  0  0  0  0  0  0  0  0  0
   20.7842  -20.0115  -14.6678 C   0  0  2  0  0  0  0  0  0  0  0  0
   21.7007  -19.5738  -15.6835 N   0  0  0  0  0  0  0  0  0  0  0  0
   21.4754  -20.5060  -13.4541 C   0  0  0  0  0  0  0  0  0  0  0  0
   22.6279  -21.2547  -13.5998 O   0  0  0  0  0  0  0  0  0  0  0  0
   21.0562  -20.2725  -12.2973 O   0  0  0  0  0  0  0  0  0  0  0  0
  2  1  1  6
  2  3  1  0
  3  4  1  0
  4  8  1  0
  4  5  2  0
  5  6  1  0
  7  6  1  0
  8  7  2  0
  9  2  1  0
  9 11  1  0
 10  9  2  0
 11 12  1  0
 13 14  1  0
 12 13  1  1
 14 15  1  0
 15 16  1  0
 17 16  1  0
 18 12  1  0
 19 18  2  0
 20 21  1  0
 21 22  2  0
 23 21  1  0
 23 24  1  0
 24 25  1  0
 26 25  1  0
 27 26  1  6
 27 28  1  0
 27 29  1  0
 28 18  1  0
 29 30  1  0
 31 29  2  0
M  END
$$$$
