HKR.pdb
     RDKit          3D

 31 31  0  0  1  0  0  0  0  0999 V2000
   19.8813  -23.5723  -12.9313 N   0  0  0  0  0  0  0  0  0  0  0  0
   19.9228  -23.1643  -14.2976 C   0  0  1  0  0  0  0  0  0  0  0  0
   18.5715  -22.7326  -14.7486 C   0  0  0  0  0  0  0  0  0  0  0  0
   17.5475  -23.8041  -14.6879 C   0  0  0  0  0  0  0  0  0  0  0  0
   16.2227  -23.7072  -14.2613 C   0  0  0  0  0  0  0  0  0  0  0  0
   15.6315  -24.9127  -14.3625 N   0  0  0  0  0  0  0  0  0  0  0  0
   16.5394  -25.7650  -14.8381 C   0  0  0  0  0  0  0  0  0  0  0  0
   17.7110  -25.0916  -15.0382 N   0  0  0  0  0  0  0  0  0  0  0  0
   20.9791  -22.1360  -14.5189 C   0  0  0  0  0  0  0  0  0  0  0  0
   21.1000  -21.2666  -13.6308 O   0  0  0  0  0  0  0  0  0  0  0  0
   21.8071  -22.1091  -15.6383 N   0  0  0  0  0  0  0  0  0  0  0  0
   22.8534  -21.2262  -15.9752 C   0  0  1  0  0  0  0  0  0  0  0  0
   24.1380  -21.7945  -16.4911 C   0  0  0  0  0  0  0  0  0  0  0  0
   24.6875  -22.9876  -15.8304 C   0  0  0  0  0  0  0  0  0  0  0  0
   26.0119  -23.4489  -16.4241 C   0  0  0  0  0  0  0  0  0  0  0  0
   26.4822  -24.7001  -15.6711 C   0  0  0  0  0  0  0  0  0  0  0  0
   27.6778  -25.2519  -16.2391 N   0  0  0  0  0  0  0  0  0  0  0  0
   22.4837  -20.0497  -16.7759 C   0  0  0  0  0  0  0  0  0  0  0  0
   21.7066  -20.1980  -17.7418 O   0  0  0  0  0  0  0  0  0  0  0  0
   22.0663  -11.6045  -15.0335 N   0  0  0  0  0  0  0  0  0  0  0  0
   22.1058  -11.5350  -16.4588 C   0  0  0  0  0  0  0  0  0  0  0  0
   21.6352  -10.5068  -17.0616 N   0  0  0  0  0  0  0  0  0  0  0  0
   22.6600  -12.5935  -17.2318 N   0  0  0  0  0  0  0  0  0  0  0  0
   23.1319  -13.8267  -16.6628 C   0  0  0  0  0  0  0  0  0  0  0  0
   22.5385  -15.0740  -17.2210 C   0  0  0  0  0  0  0  0  0  0  0  0
   23.0333  -16.2951  -16.5361 C   0  0  0  0  0  0  0  0  0  0  0  0
   22.5515  -17.5704  -17.2480 C   0  0  2  0  0  0  0  0  0  0  0  0
   22.9631  -18.7353  -16.5154 N   0  0  0  0  0  0  0  0  0  0  0  0
   23.0555  -17.5683  -18.6413 C   0  0  0  0  0  0  0  0  0  0  0  0
   22.2866  -16.9827  -19.6292 O   0  0  0  0  0  0  0  0  0  0  0  0
   24.1540  -18.0775  -18.9616 O   0  0  0  0  0  0  0  0  0  0  0  0
  2  1  1  1
  2  3  1  0
  3  4  1  0
  4  8  1  0
  4  5  2  0
  5  6  1  0
  7  6  1  0
  8  7  2  0
  9  2  1  0
  9 11  1  0
 10  9  2  0
 11 12  1  0
 13 14  1  0
 12 13  1  6
 14 15  1  0
 15 16  1  0
 17 16  1  0
 18 12  1  0
 19 18  2  0
 20 21  1  0
 21 22  2  0
 23 21  1  0
 23 24  1  0
 24 25  1  0
 26 25  1  0
 27 26  1  1
 27 28  1  0
 27 29  1  0
 28 18  1  0
 29 30  1  0
 31 29  2  0
M  END
$$$$
