HKR.pdb
     RDKit          3D

 31 31  0  0  1  0  0  0  0  0999 V2000
   33.0758  -10.2306  -18.1180 N   0  0  0  0  0  0  0  0  0  0  0  0
   31.9799   -9.5899  -17.4675 C   0  0  1  0  0  0  0  0  0  0  0  0
   32.1545   -8.1120  -17.4970 C   0  0  0  0  0  0  0  0  0  0  0  0
   33.3314   -7.6310  -16.7326 C   0  0  0  0  0  0  0  0  0  0  0  0
   34.2955   -6.7034  -17.1279 C   0  0  0  0  0  0  0  0  0  0  0  0
   35.1968   -6.5473  -16.1400 N   0  0  0  0  0  0  0  0  0  0  0  0
   34.8326   -7.3455  -15.1363 C   0  0  0  0  0  0  0  0  0  0  0  0
   33.6936   -8.0090  -15.4945 N   0  0  0  0  0  0  0  0  0  0  0  0
   30.6785  -10.0453  -18.0342 C   0  0  0  0  0  0  0  0  0  0  0  0
   30.6589  -10.2738  -19.2616 O   0  0  0  0  0  0  0  0  0  0  0  0
   29.5247  -10.2199  -17.2740 N   0  0  0  0  0  0  0  0  0  0  0  0
   28.2263  -10.6047  -17.6660 C   0  0  1  0  0  0  0  0  0  0  0  0
   27.4748  -11.5779  -16.8133 C   0  0  0  0  0  0  0  0  0  0  0  0
   27.7228  -13.0137  -17.0102 C   0  0  0  0  0  0  0  0  0  0  0  0
   26.9317  -13.8983  -16.0557 C   0  0  0  0  0  0  0  0  0  0  0  0
   27.2245  -15.3676  -16.3857 C   0  0  0  0  0  0  0  0  0  0  0  0
   26.6041  -16.2624  -15.4526 N   0  0  0  0  0  0  0  0  0  0  0  0
   27.3225   -9.5232  -18.0849 C   0  0  0  0  0  0  0  0  0  0  0  0
   26.9461   -8.6893  -17.2354 O   0  0  0  0  0  0  0  0  0  0  0  0
   20.4270  -13.5526  -19.9214 N   0  0  0  0  0  0  0  0  0  0  0  0
   20.0535  -12.2381  -20.3342 C   0  0  0  0  0  0  0  0  0  0  0  0
   18.8365  -11.9889  -20.6489 N   0  0  0  0  0  0  0  0  0  0  0  0
   21.0126  -11.1893  -20.4063 N   0  0  0  0  0  0  0  0  0  0  0  0
   22.3788  -11.3351  -19.9825 C   0  0  0  0  0  0  0  0  0  0  0  0
   23.2253  -10.1124  -20.0717 C   0  0  0  0  0  0  0  0  0  0  0  0
   24.6196  -10.3520  -19.6208 C   0  0  0  0  0  0  0  0  0  0  0  0
   25.4756   -9.0806  -19.7485 C   0  0  2  0  0  0  0  0  0  0  0  0
   26.8434   -9.3658  -19.4158 N   0  0  0  0  0  0  0  0  0  0  0  0
   24.8941   -8.0165  -18.8972 C   0  0  0  0  0  0  0  0  0  0  0  0
   25.4803   -7.7428  -17.6760 O   0  0  0  0  0  0  0  0  0  0  0  0
   23.8891   -7.3525  -19.2404 O   0  0  0  0  0  0  0  0  0  0  0  0
  2  1  1  6
  2  3  1  0
  3  4  1  0
  4  8  1  0
  4  5  2  0
  5  6  1  0
  7  6  1  0
  8  7  2  0
  9  2  1  0
  9 11  1  0
 10  9  2  0
 11 12  1  0
 13 14  1  0
 12 13  1  1
 14 15  1  0
 15 16  1  0
 17 16  1  0
 18 12  1  0
 19 18  2  0
 20 21  1  0
 21 22  2  0
 23 21  1  0
 23 24  1  0
 24 25  1  0
 26 25  1  0
 27 26  1  1
 27 28  1  0
 27 29  1  0
 28 18  1  0
 29 30  1  0
 31 29  2  0
M  END
$$$$
