HKR.pdb
     RDKit          3D

 31 31  0  0  1  0  0  0  0  0999 V2000
   21.4970  -16.5287  -17.9109 N   0  0  0  0  0  0  0  0  0  0  0  0
   21.4690  -15.3057  -18.6445 C   0  0  1  0  0  0  0  0  0  0  0  0
   20.0666  -14.9388  -18.9829 C   0  0  0  0  0  0  0  0  0  0  0  0
   19.3604  -15.9558  -19.8000 C   0  0  0  0  0  0  0  0  0  0  0  0
   19.3241  -16.0713  -21.1899 C   0  0  0  0  0  0  0  0  0  0  0  0
   18.5683  -17.1322  -21.5304 N   0  0  0  0  0  0  0  0  0  0  0  0
   18.1275  -17.6882  -20.4019 C   0  0  0  0  0  0  0  0  0  0  0  0
   18.6093  -16.9725  -19.3428 N   0  0  0  0  0  0  0  0  0  0  0  0
   22.2064  -14.2297  -17.9230 C   0  0  0  0  0  0  0  0  0  0  0  0
   21.9001  -14.0564  -16.7249 O   0  0  0  0  0  0  0  0  0  0  0  0
   23.1892  -13.4387  -18.5128 N   0  0  0  0  0  0  0  0  0  0  0  0
   23.9112  -12.3454  -17.9921 C   0  0  1  0  0  0  0  0  0  0  0  0
   25.3073  -12.1079  -18.4754 C   0  0  0  0  0  0  0  0  0  0  0  0
   26.0843  -11.0239  -17.8564 C   0  0  0  0  0  0  0  0  0  0  0  0
   27.4706  -10.8536  -18.4635 C   0  0  0  0  0  0  0  0  0  0  0  0
   28.2069   -9.7386  -17.7098 C   0  0  0  0  0  0  0  0  0  0  0  0
   29.4041   -9.3318  -18.3864 N   0  0  0  0  0  0  0  0  0  0  0  0
   23.1947  -11.0635  -17.9204 C   0  0  0  0  0  0  0  0  0  0  0  0
   22.7769  -10.5466  -18.9773 O   0  0  0  0  0  0  0  0  0  0  0  0
   16.8871   -7.6106  -14.1535 N   0  0  0  0  0  0  0  0  0  0  0  0
   17.5923   -6.4164  -14.4913 C   0  0  0  0  0  0  0  0  0  0  0  0
   16.9592   -5.3066  -14.5896 N   0  0  0  0  0  0  0  0  0  0  0  0
   18.9960   -6.4321  -14.7253 N   0  0  0  0  0  0  0  0  0  0  0  0
   19.7765   -7.6385  -14.7785 C   0  0  0  0  0  0  0  0  0  0  0  0
   21.2310   -7.4650  -15.0500 C   0  0  0  0  0  0  0  0  0  0  0  0
   21.9475   -8.7610  -15.1595 C   0  0  0  0  0  0  0  0  0  0  0  0
   22.2401   -9.1166  -16.6269 C   0  0  2  0  0  0  0  0  0  0  0  0
   22.9449  -10.3657  -16.7054 N   0  0  0  0  0  0  0  0  0  0  0  0
   22.9869   -8.0027  -17.2566 C   0  0  0  0  0  0  0  0  0  0  0  0
   22.2798   -6.9964  -17.8871 O   0  0  0  0  0  0  0  0  0  0  0  0
   24.2374   -7.9354  -17.2409 O   0  0  0  0  0  0  0  0  0  0  0  0
  2  1  1  1
  2  3  1  0
  3  4  1  0
  4  8  1  0
  4  5  2  0
  5  6  1  0
  7  6  1  0
  8  7  2  0
  9  2  1  0
  9 11  1  0
 10  9  2  0
 11 12  1  0
 13 14  1  0
 12 13  1  6
 14 15  1  0
 15 16  1  0
 17 16  1  0
 18 12  1  0
 19 18  2  0
 20 21  1  0
 21 22  2  0
 23 21  1  0
 23 24  1  0
 24 25  1  0
 26 25  1  0
 27 26  1  1
 27 28  1  0
 27 29  1  0
 28 18  1  0
 29 30  1  0
 31 29  2  0
M  END
$$$$
