HKR.pdb
     RDKit          3D

 31 31  0  0  1  0  0  0  0  0999 V2000
   14.5477  -13.3332  -13.2441 N   0  0  0  0  0  0  0  0  0  0  0  0
   15.5503  -12.6653  -12.4802 C   0  0  1  0  0  0  0  0  0  0  0  0
   16.8484  -12.6785  -13.2086 C   0  0  0  0  0  0  0  0  0  0  0  0
   17.3999  -14.0380  -13.4282 C   0  0  0  0  0  0  0  0  0  0  0  0
   17.7198  -14.6533  -14.6387 C   0  0  0  0  0  0  0  0  0  0  0  0
   18.1927  -15.8910  -14.3995 N   0  0  0  0  0  0  0  0  0  0  0  0
   18.1810  -16.0755  -13.0794 C   0  0  0  0  0  0  0  0  0  0  0  0
   17.6975  -14.9459  -12.4826 N   0  0  0  0  0  0  0  0  0  0  0  0
   15.1040  -11.2984  -12.0871 C   0  0  0  0  0  0  0  0  0  0  0  0
   14.5897  -10.6035  -12.9881 O   0  0  0  0  0  0  0  0  0  0  0  0
   15.2339  -10.7850  -10.7990 N   0  0  0  0  0  0  0  0  0  0  0  0
   14.8809   -9.5213  -10.2832 C   0  0  1  0  0  0  0  0  0  0  0  0
   13.6793   -9.4143   -9.3978 C   0  0  0  0  0  0  0  0  0  0  0  0
   13.2312   -8.0747   -8.9898 C   0  0  0  0  0  0  0  0  0  0  0  0
   11.9636   -8.0944   -8.1459 C   0  0  0  0  0  0  0  0  0  0  0  0
   11.5626   -6.6495   -7.8221 C   0  0  0  0  0  0  0  0  0  0  0  0
   10.3912   -6.5884   -6.9971 N   0  0  0  0  0  0  0  0  0  0  0  0
   15.9750   -8.7161   -9.7208 C   0  0  0  0  0  0  0  0  0  0  0  0
   16.8605   -9.2867   -9.0507 O   0  0  0  0  0  0  0  0  0  0  0  0
   21.3504   -6.3942  -15.3104 N   0  0  0  0  0  0  0  0  0  0  0  0
   21.8214   -5.9564  -14.0360 C   0  0  0  0  0  0  0  0  0  0  0  0
   22.5576   -4.9109  -13.9516 N   0  0  0  0  0  0  0  0  0  0  0  0
   21.4896   -6.6635  -12.8464 N   0  0  0  0  0  0  0  0  0  0  0  0
   20.1909   -7.2277  -12.5967 C   0  0  0  0  0  0  0  0  0  0  0  0
   19.3851   -6.5682  -11.5312 C   0  0  0  0  0  0  0  0  0  0  0  0
   18.0880   -7.2511  -11.2944 C   0  0  0  0  0  0  0  0  0  0  0  0
   17.3328   -6.6235  -10.1107 C   0  0  2  0  0  0  0  0  0  0  0  0
   16.0888   -7.3081   -9.8945 N   0  0  0  0  0  0  0  0  0  0  0  0
   17.1475   -5.1758  -10.3659 C   0  0  0  0  0  0  0  0  0  0  0  0
   18.0162   -4.2768   -9.7768 O   0  0  0  0  0  0  0  0  0  0  0  0
   16.2322   -4.7318  -11.0965 O   0  0  0  0  0  0  0  0  0  0  0  0
  2  1  1  6
  2  3  1  0
  3  4  1  0
  4  8  1  0
  4  5  2  0
  5  6  1  0
  7  6  1  0
  8  7  2  0
  9  2  1  0
  9 11  1  0
 10  9  2  0
 11 12  1  0
 13 14  1  0
 12 13  1  1
 14 15  1  0
 15 16  1  0
 17 16  1  0
 18 12  1  0
 19 18  2  0
 20 21  1  0
 21 22  2  0
 23 21  1  0
 23 24  1  0
 24 25  1  0
 26 25  1  0
 27 26  1  6
 27 28  1  0
 27 29  1  0
 28 18  1  0
 29 30  1  0
 31 29  2  0
M  END
$$$$
