HKR.pdb
     RDKit          3D

 31 31  0  0  1  0  0  0  0  0999 V2000
   24.6628  -14.8492  -18.1549 N   0  0  0  0  0  0  0  0  0  0  0  0
   23.8997  -13.7153  -18.5633 C   0  0  1  0  0  0  0  0  0  0  0  0
   22.4651  -14.0842  -18.7099 C   0  0  0  0  0  0  0  0  0  0  0  0
   22.2212  -15.1673  -19.6937 C   0  0  0  0  0  0  0  0  0  0  0  0
   21.7429  -15.0542  -20.9994 C   0  0  0  0  0  0  0  0  0  0  0  0
   21.6650  -16.2785  -21.5542 N   0  0  0  0  0  0  0  0  0  0  0  0
   22.0777  -17.1583  -20.6417 C   0  0  0  0  0  0  0  0  0  0  0  0
   22.4184  -16.4834  -19.5040 N   0  0  0  0  0  0  0  0  0  0  0  0
   24.1250  -12.5592  -17.6495 C   0  0  0  0  0  0  0  0  0  0  0  0
   23.6474  -12.6609  -16.5002 O   0  0  0  0  0  0  0  0  0  0  0  0
   24.8232  -11.4112  -18.0153 N   0  0  0  0  0  0  0  0  0  0  0  0
   25.1002  -10.2412  -17.2791 C   0  0  1  0  0  0  0  0  0  0  0  0
   26.3664   -9.4953  -17.5607 C   0  0  0  0  0  0  0  0  0  0  0  0
   27.5980  -10.2690  -17.7760 C   0  0  0  0  0  0  0  0  0  0  0  0
   28.8287   -9.3967  -17.9857 C   0  0  0  0  0  0  0  0  0  0  0  0
   30.0588  -10.3027  -18.1266 C   0  0  0  0  0  0  0  0  0  0  0  0
   31.2740   -9.5479  -18.2266 N   0  0  0  0  0  0  0  0  0  0  0  0
   23.9931   -9.2850  -17.1304 C   0  0  0  0  0  0  0  0  0  0  0  0
   23.2977   -9.0080  -18.1295 O   0  0  0  0  0  0  0  0  0  0  0  0
   16.2756   -9.9618  -17.4593 N   0  0  0  0  0  0  0  0  0  0  0  0
   16.3141   -8.6512  -16.8947 C   0  0  0  0  0  0  0  0  0  0  0  0
   15.2567   -7.9274  -16.8874 N   0  0  0  0  0  0  0  0  0  0  0  0
   17.5129   -8.1258  -16.3362 N   0  0  0  0  0  0  0  0  0  0  0  0
   18.7782   -8.8063  -16.3938 C   0  0  0  0  0  0  0  0  0  0  0  0
   19.9578   -8.0361  -15.9093 C   0  0  0  0  0  0  0  0  0  0  0  0
   21.2287   -8.7896  -16.0575 C   0  0  0  0  0  0  0  0  0  0  0  0
   22.4410   -7.9225  -15.6781 C   0  0  2  0  0  0  0  0  0  0  0  0
   23.6609   -8.6468  -15.9024 N   0  0  0  0  0  0  0  0  0  0  0  0
   22.2967   -7.4745  -14.2732 C   0  0  0  0  0  0  0  0  0  0  0  0
   21.4558   -6.4141  -13.9931 O   0  0  0  0  0  0  0  0  0  0  0  0
   22.9078   -8.0196  -13.3256 O   0  0  0  0  0  0  0  0  0  0  0  0
  2  1  1  1
  2  3  1  0
  3  4  1  0
  4  8  1  0
  4  5  2  0
  5  6  1  0
  7  6  1  0
  8  7  2  0
  9  2  1  0
  9 11  1  0
 10  9  2  0
 11 12  1  0
 13 14  1  0
 12 13  1  6
 14 15  1  0
 15 16  1  0
 17 16  1  0
 18 12  1  0
 19 18  2  0
 20 21  1  0
 21 22  2  0
 23 21  1  0
 23 24  1  0
 24 25  1  0
 26 25  1  0
 27 26  1  1
 27 28  1  0
 27 29  1  0
 28 18  1  0
 29 30  1  0
 31 29  2  0
M  END
$$$$
