HKR.pdb
     RDKit          3D

 31 31  0  0  1  0  0  0  0  0999 V2000
   31.0948  -23.1583  -18.4308 N   0  0  0  0  0  0  0  0  0  0  0  0
   29.7257  -22.7962  -18.6018 C   0  0  1  0  0  0  0  0  0  0  0  0
   28.8983  -24.0083  -18.8503 C   0  0  0  0  0  0  0  0  0  0  0  0
   29.1834  -24.6750  -20.1444 C   0  0  0  0  0  0  0  0  0  0  0  0
   29.7290  -25.9408  -20.3602 C   0  0  0  0  0  0  0  0  0  0  0  0
   29.8252  -26.1660  -21.6842 N   0  0  0  0  0  0  0  0  0  0  0  0
   29.3587  -25.0847  -22.3089 C   0  0  0  0  0  0  0  0  0  0  0  0
   28.9657  -24.1719  -21.3718 N   0  0  0  0  0  0  0  0  0  0  0  0
   29.2417  -21.9712  -17.4584 C   0  0  0  0  0  0  0  0  0  0  0  0
   29.5611  -22.3653  -16.3173 O   0  0  0  0  0  0  0  0  0  0  0  0
   28.4746  -20.8187  -17.6086 N   0  0  0  0  0  0  0  0  0  0  0  0
   27.9666  -19.9308  -16.6385 C   0  0  1  0  0  0  0  0  0  0  0  0
   27.6624  -18.5218  -17.0400 C   0  0  0  0  0  0  0  0  0  0  0  0
   27.0946  -17.6164  -16.0302 C   0  0  0  0  0  0  0  0  0  0  0  0
   26.8266  -16.2142  -16.5608 C   0  0  0  0  0  0  0  0  0  0  0  0
   26.3896  -15.3191  -15.3940 C   0  0  0  0  0  0  0  0  0  0  0  0
   26.2101  -13.9555  -15.8000 N   0  0  0  0  0  0  0  0  0  0  0  0
   26.8802  -20.4419  -15.7897 C   0  0  0  0  0  0  0  0  0  0  0  0
   25.8222  -20.8252  -16.3306 O   0  0  0  0  0  0  0  0  0  0  0  0
   22.3260  -20.7894  -10.0619 N   0  0  0  0  0  0  0  0  0  0  0  0
   22.9897  -21.3722   -8.9405 C   0  0  0  0  0  0  0  0  0  0  0  0
   22.3105  -21.9874   -8.0448 N   0  0  0  0  0  0  0  0  0  0  0  0
   24.4024  -21.2824   -8.7937 N   0  0  0  0  0  0  0  0  0  0  0  0
   25.2615  -20.6597   -9.7639 C   0  0  0  0  0  0  0  0  0  0  0  0
   25.0772  -21.0961  -11.1764 C   0  0  0  0  0  0  0  0  0  0  0  0
   26.0971  -20.5179  -12.0878 C   0  0  0  0  0  0  0  0  0  0  0  0
   25.8936  -21.0007  -13.5338 C   0  0  2  0  0  0  0  0  0  0  0  0
   26.9603  -20.5276  -14.3714 N   0  0  0  0  0  0  0  0  0  0  0  0
   24.5608  -20.5613  -14.0091 C   0  0  0  0  0  0  0  0  0  0  0  0
   24.3666  -19.2274  -14.3145 O   0  0  0  0  0  0  0  0  0  0  0  0
   23.5994  -21.3522  -14.1460 O   0  0  0  0  0  0  0  0  0  0  0  0
  2  1  1  1
  2  3  1  0
  3  4  1  0
  4  8  1  0
  4  5  2  0
  5  6  1  0
  7  6  1  0
  8  7  2  0
  9  2  1  0
  9 11  1  0
 10  9  2  0
 11 12  1  0
 13 14  1  0
 12 13  1  6
 14 15  1  0
 15 16  1  0
 17 16  1  0
 18 12  1  0
 19 18  2  0
 20 21  1  0
 21 22  2  0
 23 21  1  0
 23 24  1  0
 24 25  1  0
 26 25  1  0
 27 26  1  1
 27 28  1  0
 27 29  1  0
 28 18  1  0
 29 30  1  0
 31 29  2  0
M  END
$$$$
