HKR.pdb
     RDKit          3D

 31 31  0  0  1  0  0  0  0  0999 V2000
   26.7907  -21.9724  -12.8734 N   0  0  0  0  0  0  0  0  0  0  0  0
   25.9031  -21.3051  -11.9781 C   0  0  1  0  0  0  0  0  0  0  0  0
   26.5941  -20.1607  -11.3235 C   0  0  0  0  0  0  0  0  0  0  0  0
   27.8490  -20.5359  -10.6271 C   0  0  0  0  0  0  0  0  0  0  0  0
   27.9940  -21.1437   -9.3797 C   0  0  0  0  0  0  0  0  0  0  0  0
   29.3033  -21.3108   -9.1136 N   0  0  0  0  0  0  0  0  0  0  0  0
   29.9871  -20.8284  -10.1513 C   0  0  0  0  0  0  0  0  0  0  0  0
   29.1024  -20.3543  -11.0777 N   0  0  0  0  0  0  0  0  0  0  0  0
   24.6372  -20.9200  -12.6647 C   0  0  0  0  0  0  0  0  0  0  0  0
   24.7582  -20.3298  -13.7584 O   0  0  0  0  0  0  0  0  0  0  0  0
   23.3698  -21.1843  -12.1516 N   0  0  0  0  0  0  0  0  0  0  0  0
   22.1201  -21.2479  -12.8012 C   0  0  1  0  0  0  0  0  0  0  0  0
   21.1196  -22.2611  -12.3412 C   0  0  0  0  0  0  0  0  0  0  0  0
   20.8820  -22.4002  -10.8969 C   0  0  0  0  0  0  0  0  0  0  0  0
   19.4211  -22.6523  -10.5482 C   0  0  0  0  0  0  0  0  0  0  0  0
   19.2954  -22.8066   -9.0270 C   0  0  0  0  0  0  0  0  0  0  0  0
   17.9450  -23.0707   -8.6230 N   0  0  0  0  0  0  0  0  0  0  0  0
   21.4418  -19.9655  -13.0404 C   0  0  0  0  0  0  0  0  0  0  0  0
   21.4425  -19.1053  -12.1356 O   0  0  0  0  0  0  0  0  0  0  0  0
   20.9692  -14.9219  -20.2787 N   0  0  0  0  0  0  0  0  0  0  0  0
   20.2570  -14.1992  -19.2745 C   0  0  0  0  0  0  0  0  0  0  0  0
   19.8037  -13.0283  -19.5304 N   0  0  0  0  0  0  0  0  0  0  0  0
   20.0392  -14.7555  -17.9829 N   0  0  0  0  0  0  0  0  0  0  0  0
   20.6029  -16.0069  -17.5542 C   0  0  0  0  0  0  0  0  0  0  0  0
   20.1319  -16.5193  -16.2370 C   0  0  0  0  0  0  0  0  0  0  0  0
   20.7811  -17.8005  -15.8602 C   0  0  0  0  0  0  0  0  0  0  0  0
   20.2123  -18.3496  -14.5410 C   0  0  2  0  0  0  0  0  0  0  0  0
   20.7751  -19.6397  -14.2549 N   0  0  0  0  0  0  0  0  0  0  0  0
   18.7335  -18.3814  -14.6261 C   0  0  0  0  0  0  0  0  0  0  0  0
   18.0140  -17.2958  -14.1634 O   0  0  0  0  0  0  0  0  0  0  0  0
   18.1063  -19.3554  -15.1019 O   0  0  0  0  0  0  0  0  0  0  0  0
  2  1  1  6
  2  3  1  0
  3  4  1  0
  4  8  1  0
  4  5  2  0
  5  6  1  0
  7  6  1  0
  8  7  2  0
  9  2  1  0
  9 11  1  0
 10  9  2  0
 11 12  1  0
 13 14  1  0
 12 13  1  1
 14 15  1  0
 15 16  1  0
 17 16  1  0
 18 12  1  0
 19 18  2  0
 20 21  1  0
 21 22  2  0
 23 21  1  0
 23 24  1  0
 24 25  1  0
 26 25  1  0
 27 26  1  6
 27 28  1  0
 27 29  1  0
 28 18  1  0
 29 30  1  0
 31 29  2  0
M  END
$$$$
