HKR.pdb
     RDKit          3D

 31 31  0  0  1  0  0  0  0  0999 V2000
   28.6894  -19.5887  -12.6240 N   0  0  0  0  0  0  0  0  0  0  0  0
   27.8064  -20.6255  -12.1998 C   0  0  1  0  0  0  0  0  0  0  0  0
   28.0233  -20.9310  -10.7592 C   0  0  0  0  0  0  0  0  0  0  0  0
   29.4260  -21.2780  -10.4236 C   0  0  0  0  0  0  0  0  0  0  0  0
   30.5371  -21.2873  -11.2672 C   0  0  0  0  0  0  0  0  0  0  0  0
   31.6252  -21.6628  -10.5687 N   0  0  0  0  0  0  0  0  0  0  0  0
   31.2363  -21.8903   -9.3140 C   0  0  0  0  0  0  0  0  0  0  0  0
   29.8937  -21.6562   -9.2215 N   0  0  0  0  0  0  0  0  0  0  0  0
   26.3910  -20.2936  -12.5296 C   0  0  0  0  0  0  0  0  0  0  0  0
   25.8172  -19.4924  -11.7628 O   0  0  0  0  0  0  0  0  0  0  0  0
   25.7085  -20.8238  -13.6216 N   0  0  0  0  0  0  0  0  0  0  0  0
   24.3913  -20.5956  -14.0697 C   0  0  1  0  0  0  0  0  0  0  0  0
   24.1852  -19.9802  -15.4180 C   0  0  0  0  0  0  0  0  0  0  0  0
   22.8112  -19.6705  -15.8401 C   0  0  0  0  0  0  0  0  0  0  0  0
   22.5775  -18.1864  -16.0893 C   0  0  0  0  0  0  0  0  0  0  0  0
   21.0861  -17.9610  -16.3697 C   0  0  0  0  0  0  0  0  0  0  0  0
   20.7927  -16.5845  -16.6450 N   0  0  0  0  0  0  0  0  0  0  0  0
   23.4380  -21.6998  -13.8861 C   0  0  0  0  0  0  0  0  0  0  0  0
   23.7789  -22.8527  -14.2228 O   0  0  0  0  0  0  0  0  0  0  0  0
   14.9911  -20.5608  -11.8621 N   0  0  0  0  0  0  0  0  0  0  0  0
   15.5481  -21.8751  -11.8526 C   0  0  0  0  0  0  0  0  0  0  0  0
   14.8825  -22.8474  -11.3489 N   0  0  0  0  0  0  0  0  0  0  0  0
   16.8392  -22.1309  -12.3938 N   0  0  0  0  0  0  0  0  0  0  0  0
   17.6909  -21.1039  -12.9298 C   0  0  0  0  0  0  0  0  0  0  0  0
   18.9830  -21.5635  -13.5117 C   0  0  0  0  0  0  0  0  0  0  0  0
   19.9163  -22.0863  -12.4819 C   0  0  0  0  0  0  0  0  0  0  0  0
   21.2133  -22.6141  -13.1181 C   0  0  2  0  0  0  0  0  0  0  0  0
   22.1334  -21.5341  -13.3418 N   0  0  0  0  0  0  0  0  0  0  0  0
   20.8808  -23.3440  -14.3638 C   0  0  0  0  0  0  0  0  0  0  0  0
   20.8845  -22.6562  -15.5626 O   0  0  0  0  0  0  0  0  0  0  0  0
   20.5952  -24.5634  -14.3750 O   0  0  0  0  0  0  0  0  0  0  0  0
  2  1  1  1
  2  3  1  0
  3  4  1  0
  4  8  1  0
  4  5  2  0
  5  6  1  0
  7  6  1  0
  8  7  2  0
  9  2  1  0
  9 11  1  0
 10  9  2  0
 11 12  1  0
 13 14  1  0
 12 13  1  6
 14 15  1  0
 15 16  1  0
 17 16  1  0
 18 12  1  0
 19 18  2  0
 20 21  1  0
 21 22  2  0
 23 21  1  0
 23 24  1  0
 24 25  1  0
 26 25  1  0
 27 26  1  6
 27 28  1  0
 27 29  1  0
 28 18  1  0
 29 30  1  0
 31 29  2  0
M  END
$$$$
