AAN.pdb
     RDKit          3D

 19 18  0  0  1  0  0  0  0  0999 V2000
   24.4090  -14.7865  -18.6946 C   0  0  0  0  0  0  0  0  0  0  0  0
   24.5416  -13.2930  -18.6931 C   0  0  2  0  0  0  0  0  0  0  0  0
   25.5291  -12.9275  -19.7184 N   0  0  0  0  0  0  0  0  0  0  0  0
   25.0109  -12.8327  -17.3794 C   0  0  0  0  0  0  0  0  0  0  0  0
   24.2714  -12.9539  -16.3732 O   0  0  0  0  0  0  0  0  0  0  0  0
   28.3131  -11.7689  -15.9215 C   0  0  0  0  0  0  0  0  0  0  0  0
   26.7921  -11.7656  -15.9649 C   0  0  2  0  0  0  0  0  0  0  0  0
   26.3087  -12.2449  -17.2357 N   0  0  0  0  0  0  0  0  0  0  0  0
   26.3603  -10.3529  -15.8051 C   0  0  0  0  0  0  0  0  0  0  0  0
   26.6864   -9.6749  -14.7836 O   0  0  0  0  0  0  0  0  0  0  0  0
   24.1350   -5.6077  -16.5449 N   0  0  0  0  0  0  0  0  0  0  0  0
   24.7357   -6.1344  -17.7204 C   0  0  0  0  0  0  0  0  0  0  0  0
   24.8204   -5.3726  -18.7169 O   0  0  0  0  0  0  0  0  0  0  0  0
   25.2391   -7.4995  -17.7878 C   0  0  0  0  0  0  0  0  0  0  0  0
   25.0435   -8.3408  -16.5725 C   0  0  2  0  0  0  0  0  0  0  0  0
   25.5605   -9.6877  -16.7867 N   0  0  0  0  0  0  0  0  0  0  0  0
   23.6186   -8.3650  -16.1833 C   0  0  0  0  0  0  0  0  0  0  0  0
   22.9897   -7.2595  -15.6012 O   0  0  0  0  0  0  0  0  0  0  0  0
   22.9613   -9.4074  -16.3830 O   0  0  0  0  0  0  0  0  0  0  0  0
  2  3  1  0
  2  1  1  1
  4  2  1  0
  5  4  2  0
  7  6  1  6
  7  8  1  0
  7  9  1  0
  8  4  1  0
  9 16  1  0
 10  9  2  0
 11 12  1  0
 12 14  1  0
 13 12  2  0
 15 14  1  6
 15 17  1  0
 16 15  1  0
 17 19  2  0
 17 18  1  0
M  END
$$$$
