AAN.pdb
     RDKit          3D

 19 18  0  0  1  0  0  0  0  0999 V2000
   17.8184  -12.1687  -14.4980 C   0  0  0  0  0  0  0  0  0  0  0  0
   16.6167  -11.4890  -15.0830 C   0  0  2  0  0  0  0  0  0  0  0  0
   16.1779  -12.2727  -16.2463 N   0  0  0  0  0  0  0  0  0  0  0  0
   16.9704  -10.1308  -15.5165 C   0  0  0  0  0  0  0  0  0  0  0  0
   17.9830   -9.9470  -16.2342 O   0  0  0  0  0  0  0  0  0  0  0  0
   15.2666   -6.7491  -15.3353 C   0  0  0  0  0  0  0  0  0  0  0  0
   16.4471   -7.6746  -15.5905 C   0  0  2  0  0  0  0  0  0  0  0  0
   16.1681   -9.0107  -15.1266 N   0  0  0  0  0  0  0  0  0  0  0  0
   17.5907   -7.1391  -14.8075 C   0  0  0  0  0  0  0  0  0  0  0  0
   17.8091   -7.5169  -13.6162 O   0  0  0  0  0  0  0  0  0  0  0  0
   22.0185   -4.7222  -13.2991 N   0  0  0  0  0  0  0  0  0  0  0  0
   22.0100   -5.9518  -14.0118 C   0  0  0  0  0  0  0  0  0  0  0  0
   23.0799   -6.6115  -14.0384 O   0  0  0  0  0  0  0  0  0  0  0  0
   20.8195   -6.4451  -14.6906 C   0  0  0  0  0  0  0  0  0  0  0  0
   19.5877   -5.6153  -14.5595 C   0  0  2  0  0  0  0  0  0  0  0  0
   18.4987   -6.1769  -15.3509 N   0  0  0  0  0  0  0  0  0  0  0  0
   19.8641   -4.2146  -14.9389 C   0  0  0  0  0  0  0  0  0  0  0  0
   19.6774   -3.7490  -16.2446 O   0  0  0  0  0  0  0  0  0  0  0  0
   20.2768   -3.4274  -14.0622 O   0  0  0  0  0  0  0  0  0  0  0  0
  2  3  1  0
  2  1  1  6
  4  2  1  0
  5  4  2  0
  7  6  1  1
  7  8  1  0
  7  9  1  0
  8  4  1  0
  9 16  1  0
 10  9  2  0
 11 12  1  0
 12 14  1  0
 13 12  2  0
 15 14  1  6
 15 17  1  0
 16 15  1  0
 17 19  2  0
 17 18  1  0
M  END
$$$$
