AAN.pdb
     RDKit          3D

 19 18  0  0  1  0  0  0  0  0999 V2000
   17.5480  -11.0993  -16.9501 C   0  0  0  0  0  0  0  0  0  0  0  0
   18.2570   -9.8185  -16.6259 C   0  0  2  0  0  0  0  0  0  0  0  0
   19.0049   -9.4029  -17.8208 N   0  0  0  0  0  0  0  0  0  0  0  0
   19.1942  -10.0317  -15.5149 C   0  0  0  0  0  0  0  0  0  0  0  0
   18.7558  -10.2521  -14.3603 O   0  0  0  0  0  0  0  0  0  0  0  0
   22.8732  -10.6752  -15.1284 C   0  0  0  0  0  0  0  0  0  0  0  0
   21.5539  -10.0836  -14.6540 C   0  0  2  0  0  0  0  0  0  0  0  0
   20.6080   -9.9902  -15.7379 N   0  0  0  0  0  0  0  0  0  0  0  0
   21.8473   -8.7092  -14.1721 C   0  0  0  0  0  0  0  0  0  0  0  0
   22.9860   -8.4033  -13.7037 O   0  0  0  0  0  0  0  0  0  0  0  0
   22.1451   -3.5389  -13.9460 N   0  0  0  0  0  0  0  0  0  0  0  0
   22.6381   -4.4238  -14.9429 C   0  0  0  0  0  0  0  0  0  0  0  0
   23.4631   -3.9597  -15.7703 O   0  0  0  0  0  0  0  0  0  0  0  0
   22.2169   -5.8159  -15.0195 C   0  0  0  0  0  0  0  0  0  0  0  0
   21.2280   -6.2682  -13.9994 C   0  0  2  0  0  0  0  0  0  0  0  0
   20.8693   -7.6661  -14.2104 N   0  0  0  0  0  0  0  0  0  0  0  0
   20.0351   -5.3969  -14.0125 C   0  0  0  0  0  0  0  0  0  0  0  0
   18.7912   -5.8490  -14.4649 O   0  0  0  0  0  0  0  0  0  0  0  0
   20.1477   -4.2219  -13.6059 O   0  0  0  0  0  0  0  0  0  0  0  0
  2  3  1  0
  2  1  1  6
  4  2  1  0
  5  4  2  0
  7  6  1  6
  7  8  1  0
  7  9  1  0
  8  4  1  0
  9 16  1  0
 10  9  2  0
 11 12  1  0
 12 14  1  0
 13 12  2  0
 15 14  1  6
 15 17  1  0
 16 15  1  0
 17 19  2  0
 17 18  1  0
M  END
$$$$
