AAN.pdb
     RDKit          3D

 19 18  0  0  1  0  0  0  0  0999 V2000
   16.8220  -12.5900  -14.5555 C   0  0  0  0  0  0  0  0  0  0  0  0
   17.8230  -12.0312  -15.5219 C   0  0  2  0  0  0  0  0  0  0  0  0
   19.0414  -12.8480  -15.4308 N   0  0  0  0  0  0  0  0  0  0  0  0
   18.1410  -10.6417  -15.1668 C   0  0  0  0  0  0  0  0  0  0  0  0
   18.9483  -10.4027  -14.2367 O   0  0  0  0  0  0  0  0  0  0  0  0
   17.3507   -7.2452  -16.6546 C   0  0  0  0  0  0  0  0  0  0  0  0
   17.8257   -8.1789  -15.5509 C   0  0  2  0  0  0  0  0  0  0  0  0
   17.5363   -9.5536  -15.8745 N   0  0  0  0  0  0  0  0  0  0  0  0
   17.0657   -7.8188  -14.3261 C   0  0  0  0  0  0  0  0  0  0  0  0
   15.9752   -8.3968  -14.0325 O   0  0  0  0  0  0  0  0  0  0  0  0
   15.4686   -5.6234   -9.7983 N   0  0  0  0  0  0  0  0  0  0  0  0
   16.6585   -6.4005   -9.7783 C   0  0  0  0  0  0  0  0  0  0  0  0
   17.1305   -6.7053   -8.6536 O   0  0  0  0  0  0  0  0  0  0  0  0
   17.3196   -6.8360  -11.0008 C   0  0  0  0  0  0  0  0  0  0  0  0
   16.7134   -6.3779  -12.2836 C   0  0  2  0  0  0  0  0  0  0  0  0
   17.5195   -6.8092  -13.4202 N   0  0  0  0  0  0  0  0  0  0  0  0
   16.5316   -4.9119  -12.2761 C   0  0  0  0  0  0  0  0  0  0  0  0
   15.4018   -4.3073  -11.7153 O   0  0  0  0  0  0  0  0  0  0  0  0
   17.4176   -4.1964  -12.7877 O   0  0  0  0  0  0  0  0  0  0  0  0
  2  3  1  0
  2  1  1  1
  4  2  1  0
  5  4  2  0
  7  6  1  6
  7  8  1  0
  7  9  1  0
  8  4  1  0
  9 16  1  0
 10  9  2  0
 11 12  1  0
 12 14  1  0
 13 12  2  0
 15 14  1  1
 15 17  1  0
 16 15  1  0
 17 19  2  0
 17 18  1  0
M  END
$$$$
