AAN.pdb
     RDKit          3D

 19 18  0  0  1  0  0  0  0  0999 V2000
   13.6262  -10.8048  -10.8188 C   0  0  0  0  0  0  0  0  0  0  0  0
   15.0883  -10.4734  -10.7920 C   0  0  2  0  0  0  0  0  0  0  0  0
   15.6520  -11.0231   -9.5511 N   0  0  0  0  0  0  0  0  0  0  0  0
   15.2722   -9.0161  -10.8064 C   0  0  0  0  0  0  0  0  0  0  0  0
   14.8848   -8.3463  -11.7940 O   0  0  0  0  0  0  0  0  0  0  0  0
   15.8124   -6.3832   -8.2526 C   0  0  0  0  0  0  0  0  0  0  0  0
   16.0400   -6.9168   -9.6594 C   0  0  2  0  0  0  0  0  0  0  0  0
   15.8917   -8.3502   -9.7004 N   0  0  0  0  0  0  0  0  0  0  0  0
   17.4410   -6.5829  -10.0246 C   0  0  0  0  0  0  0  0  0  0  0  0
   18.4227   -7.0550   -9.3743 O   0  0  0  0  0  0  0  0  0  0  0  0
   21.7364   -5.6824  -12.8120 N   0  0  0  0  0  0  0  0  0  0  0  0
   21.0067   -6.8859  -12.6139 C   0  0  0  0  0  0  0  0  0  0  0  0
   21.5506   -7.9583  -12.9810 O   0  0  0  0  0  0  0  0  0  0  0  0
   19.6807   -6.8973  -12.0114 C   0  0  0  0  0  0  0  0  0  0  0  0
   19.1176   -5.5737  -11.6189 C   0  0  2  0  0  0  0  0  0  0  0  0
   17.7547   -5.7184  -11.1200 N   0  0  0  0  0  0  0  0  0  0  0  0
   19.1802   -4.6278  -12.7520 C   0  0  0  0  0  0  0  0  0  0  0  0
   18.1602   -4.5439  -13.7054 O   0  0  0  0  0  0  0  0  0  0  0  0
   20.1769   -3.8833  -12.8557 O   0  0  0  0  0  0  0  0  0  0  0  0
  2  3  1  0
  2  1  1  1
  4  2  1  0
  5  4  2  0
  7  6  1  1
  7  8  1  0
  7  9  1  0
  8  4  1  0
  9 16  1  0
 10  9  2  0
 11 12  1  0
 12 14  1  0
 13 12  2  0
 15 14  1  6
 15 17  1  0
 16 15  1  0
 17 19  2  0
 17 18  1  0
M  END
$$$$
