AAN.pdb
     RDKit          3D

 19 18  0  0  1  0  0  0  0  0999 V2000
   17.4021  -11.1446  -17.4378 C   0  0  0  0  0  0  0  0  0  0  0  0
   18.8998  -11.1017  -17.4950 C   0  0  2  0  0  0  0  0  0  0  0  0
   19.3901  -12.4872  -17.5014 N   0  0  0  0  0  0  0  0  0  0  0  0
   19.4268  -10.4045  -16.3143 C   0  0  0  0  0  0  0  0  0  0  0  0
   18.6373   -9.9528  -15.4503 O   0  0  0  0  0  0  0  0  0  0  0  0
   22.8046  -10.0816  -14.6973 C   0  0  0  0  0  0  0  0  0  0  0  0
   21.3898   -9.5935  -14.9721 C   0  0  2  0  0  0  0  0  0  0  0  0
   20.8378  -10.2347  -16.1394 N   0  0  0  0  0  0  0  0  0  0  0  0
   21.4826   -8.1354  -15.2418 C   0  0  0  0  0  0  0  0  0  0  0  0
   21.8062   -7.6955  -16.3868 O   0  0  0  0  0  0  0  0  0  0  0  0
   19.4594   -5.2202  -16.7288 N   0  0  0  0  0  0  0  0  0  0  0  0
   19.0410   -4.9119  -15.4060 C   0  0  0  0  0  0  0  0  0  0  0  0
   17.8793   -4.4540  -15.2595 O   0  0  0  0  0  0  0  0  0  0  0  0
   19.9083   -5.1114  -14.2531 C   0  0  0  0  0  0  0  0  0  0  0  0
   21.2389   -5.7285  -14.5213 C   0  0  2  0  0  0  0  0  0  0  0  0
   21.2141   -7.1580  -14.2326 N   0  0  0  0  0  0  0  0  0  0  0  0
   22.2939   -5.0401  -13.7496 C   0  0  0  0  0  0  0  0  0  0  0  0
   22.8915   -3.8585  -14.2005 O   0  0  0  0  0  0  0  0  0  0  0  0
   22.6587   -5.5336  -12.6624 O   0  0  0  0  0  0  0  0  0  0  0  0
  2  3  1  0
  2  1  1  1
  4  2  1  0
  5  4  2  0
  7  6  1  6
  7  8  1  0
  7  9  1  0
  8  4  1  0
  9 16  1  0
 10  9  2  0
 11 12  1  0
 12 14  1  0
 13 12  2  0
 15 14  1  1
 15 17  1  0
 16 15  1  0
 17 19  2  0
 17 18  1  0
M  END
$$$$
