AAN.pdb
     RDKit          3D

 19 18  0  0  1  0  0  0  0  0999 V2000
   10.5055  -10.5664  -10.1039 C   0  0  0  0  0  0  0  0  0  0  0  0
   11.4011  -11.1713  -11.1433 C   0  0  2  0  0  0  0  0  0  0  0  0
   11.7098  -12.5465  -10.7267 N   0  0  0  0  0  0  0  0  0  0  0  0
   12.6481  -10.4008  -11.2404 C   0  0  0  0  0  0  0  0  0  0  0  0
   13.5354  -10.5334  -10.3634 O   0  0  0  0  0  0  0  0  0  0  0  0
   14.3035   -8.3997  -13.9697 C   0  0  0  0  0  0  0  0  0  0  0  0
   14.1148   -8.8093  -12.5164 C   0  0  2  0  0  0  0  0  0  0  0  0
   12.8613   -9.4966  -12.3301 N   0  0  0  0  0  0  0  0  0  0  0  0
   14.0825   -7.5571  -11.7173 C   0  0  0  0  0  0  0  0  0  0  0  0
   12.9912   -6.9580  -11.4733 O   0  0  0  0  0  0  0  0  0  0  0  0
   15.5814   -7.8646   -7.8718 N   0  0  0  0  0  0  0  0  0  0  0  0
   15.4509   -6.4644   -8.0775 C   0  0  0  0  0  0  0  0  0  0  0  0
   14.7809   -5.8165   -7.2337 O   0  0  0  0  0  0  0  0  0  0  0  0
   16.0613   -5.7884   -9.2141 C   0  0  0  0  0  0  0  0  0  0  0  0
   15.2402   -5.7025  -10.4556 C   0  0  2  0  0  0  0  0  0  0  0  0
   15.2709   -6.9653  -11.1849 N   0  0  0  0  0  0  0  0  0  0  0  0
   15.6956   -4.5798  -11.3010 C   0  0  0  0  0  0  0  0  0  0  0  0
   15.4827   -3.2453  -10.9398 O   0  0  0  0  0  0  0  0  0  0  0  0
   16.2881   -4.8370  -12.3693 O   0  0  0  0  0  0  0  0  0  0  0  0
  2  3  1  0
  2  1  1  1
  4  2  1  0
  5  4  2  0
  7  6  1  6
  7  8  1  0
  7  9  1  0
  8  4  1  0
  9 16  1  0
 10  9  2  0
 11 12  1  0
 12 14  1  0
 13 12  2  0
 15 14  1  1
 15 17  1  0
 16 15  1  0
 17 19  2  0
 17 18  1  0
M  END
$$$$
