AAN.pdb
     RDKit          3D

 19 18  0  0  1  0  0  0  0  0999 V2000
   19.3187  -10.8100  -19.0965 C   0  0  0  0  0  0  0  0  0  0  0  0
   20.1542  -11.6139  -18.1457 C   0  0  2  0  0  0  0  0  0  0  0  0
   19.3730  -12.7927  -17.7457 N   0  0  0  0  0  0  0  0  0  0  0  0
   20.4704  -10.8129  -16.9557 C   0  0  0  0  0  0  0  0  0  0  0  0
   19.5432  -10.3558  -16.2448 O   0  0  0  0  0  0  0  0  0  0  0  0
   23.6564  -10.0256  -15.0591 C   0  0  0  0  0  0  0  0  0  0  0  0
   22.1791   -9.8558  -15.3819 C   0  0  2  0  0  0  0  0  0  0  0  0
   21.8313  -10.5477  -16.5979 N   0  0  0  0  0  0  0  0  0  0  0  0
   21.9486   -8.4029  -15.5905 C   0  0  0  0  0  0  0  0  0  0  0  0
   22.1535   -7.8575  -16.7175 O   0  0  0  0  0  0  0  0  0  0  0  0
   18.1899   -3.8655  -14.6990 N   0  0  0  0  0  0  0  0  0  0  0  0
   19.5159   -4.3556  -14.8458 C   0  0  0  0  0  0  0  0  0  0  0  0
   20.4010   -3.5324  -15.1914 O   0  0  0  0  0  0  0  0  0  0  0  0
   19.8559   -5.7521  -14.6100 C   0  0  0  0  0  0  0  0  0  0  0  0
   21.2955   -6.1170  -14.7421 C   0  0  2  0  0  0  0  0  0  0  0  0
   21.4871   -7.5488  -14.5402 N   0  0  0  0  0  0  0  0  0  0  0  0
   22.1186   -5.3248  -13.8055 C   0  0  0  0  0  0  0  0  0  0  0  0
   22.7318   -4.1271  -14.1875 O   0  0  0  0  0  0  0  0  0  0  0  0
   22.2674   -5.7430  -12.6387 O   0  0  0  0  0  0  0  0  0  0  0  0
  2  3  1  0
  2  1  1  6
  4  2  1  0
  5  4  2  0
  7  6  1  6
  7  8  1  0
  7  9  1  0
  8  4  1  0
  9 16  1  0
 10  9  2  0
 11 12  1  0
 12 14  1  0
 13 12  2  0
 15 14  1  1
 15 17  1  0
 16 15  1  0
 17 19  2  0
 17 18  1  0
M  END
$$$$
