AAN.pdb
     RDKit          3D

 19 18  0  0  1  0  0  0  0  0999 V2000
   21.2066  -13.5234  -17.9938 C   0  0  0  0  0  0  0  0  0  0  0  0
   21.6592  -12.1222  -18.2765 C   0  0  2  0  0  0  0  0  0  0  0  0
   22.9355  -12.1987  -19.0012 N   0  0  0  0  0  0  0  0  0  0  0  0
   21.8584  -11.3956  -17.0155 C   0  0  0  0  0  0  0  0  0  0  0  0
   20.9018  -11.2563  -16.2158 O   0  0  0  0  0  0  0  0  0  0  0  0
   24.8263   -9.8971  -15.1964 C   0  0  0  0  0  0  0  0  0  0  0  0
   23.3440  -10.0414  -15.5084 C   0  0  2  0  0  0  0  0  0  0  0  0
   23.1384  -10.8429  -16.6888 N   0  0  0  0  0  0  0  0  0  0  0  0
   22.8260   -8.6750  -15.7771 C   0  0  0  0  0  0  0  0  0  0  0  0
   22.9033   -8.1554  -16.9319 O   0  0  0  0  0  0  0  0  0  0  0  0
   19.1732   -4.7307  -16.4995 N   0  0  0  0  0  0  0  0  0  0  0  0
   19.5939   -5.2232  -15.2345 C   0  0  0  0  0  0  0  0  0  0  0  0
   19.3974   -4.4879  -14.2338 O   0  0  0  0  0  0  0  0  0  0  0  0
   20.2291   -6.5251  -15.0826 C   0  0  0  0  0  0  0  0  0  0  0  0
   21.7189   -6.5350  -15.0244 C   0  0  2  0  0  0  0  0  0  0  0  0
   22.2175   -7.8792  -14.7562 N   0  0  0  0  0  0  0  0  0  0  0  0
   22.2043   -5.5684  -14.0182 C   0  0  0  0  0  0  0  0  0  0  0  0
   22.3894   -4.2149  -14.3186 O   0  0  0  0  0  0  0  0  0  0  0  0
   22.4552   -5.9790  -12.8663 O   0  0  0  0  0  0  0  0  0  0  0  0
  2  3  1  0
  2  1  1  1
  4  2  1  0
  5  4  2  0
  7  6  1  6
  7  8  1  0
  7  9  1  0
  8  4  1  0
  9 16  1  0
 10  9  2  0
 11 12  1  0
 12 14  1  0
 13 12  2  0
 15 14  1  1
 15 17  1  0
 16 15  1  0
 17 19  2  0
 17 18  1  0
M  END
$$$$
