AAN.pdb
     RDKit          3D

 19 18  0  0  1  0  0  0  0  0999 V2000
   17.4339  -10.2132  -15.3913 C   0  0  0  0  0  0  0  0  0  0  0  0
   18.3090  -10.4815  -16.5789 C   0  0  2  0  0  0  0  0  0  0  0  0
   18.0663  -11.8641  -17.0140 N   0  0  0  0  0  0  0  0  0  0  0  0
   19.7216  -10.3298  -16.2052 C   0  0  0  0  0  0  0  0  0  0  0  0
   20.1078  -10.6796  -15.0640 O   0  0  0  0  0  0  0  0  0  0  0  0
   22.9187   -9.7061  -18.0758 C   0  0  0  0  0  0  0  0  0  0  0  0
   22.0662   -9.6649  -16.8160 C   0  0  2  0  0  0  0  0  0  0  0  0
   20.6652   -9.7845  -17.1340 N   0  0  0  0  0  0  0  0  0  0  0  0
   22.2896   -8.3368  -16.1886 C   0  0  0  0  0  0  0  0  0  0  0  0
   23.4290   -8.0009  -15.7431 O   0  0  0  0  0  0  0  0  0  0  0  0
   21.7981   -2.9212  -15.8071 N   0  0  0  0  0  0  0  0  0  0  0  0
   20.6043   -3.6823  -15.6829 C   0  0  0  0  0  0  0  0  0  0  0  0
   19.6134   -3.1199  -15.1514 O   0  0  0  0  0  0  0  0  0  0  0  0
   20.5123   -5.0599  -16.1465 C   0  0  0  0  0  0  0  0  0  0  0  0
   21.4951   -6.0219  -15.5707 C   0  0  2  0  0  0  0  0  0  0  0  0
   21.2403   -7.3741  -16.0547 N   0  0  0  0  0  0  0  0  0  0  0  0
   21.4730   -5.9637  -14.0947 C   0  0  0  0  0  0  0  0  0  0  0  0
   22.3815   -5.1861  -13.3693 O   0  0  0  0  0  0  0  0  0  0  0  0
   20.6143   -6.6316  -13.4823 O   0  0  0  0  0  0  0  0  0  0  0  0
  2  3  1  0
  2  1  1  1
  4  2  1  0
  5  4  2  0
  7  6  1  6
  7  8  1  0
  7  9  1  0
  8  4  1  0
  9 16  1  0
 10  9  2  0
 11 12  1  0
 12 14  1  0
 13 12  2  0
 15 14  1  6
 15 17  1  0
 16 15  1  0
 17 19  2  0
 17 18  1  0
M  END
$$$$
