AAN.pdb
     RDKit          3D

 19 18  0  0  1  0  0  0  0  0999 V2000
   25.7068  -21.9534  -17.5435 C   0  0  0  0  0  0  0  0  0  0  0  0
   24.6704  -20.9506  -17.9539 C   0  0  2  0  0  0  0  0  0  0  0  0
   25.2198  -20.1654  -19.0681 N   0  0  0  0  0  0  0  0  0  0  0  0
   24.3673  -20.0545  -16.8300 C   0  0  0  0  0  0  0  0  0  0  0  0
   25.3022  -19.5457  -16.1658 O   0  0  0  0  0  0  0  0  0  0  0  0
   21.3808  -18.0457  -15.8561 C   0  0  0  0  0  0  0  0  0  0  0  0
   22.6774  -18.7573  -15.4981 C   0  0  2  0  0  0  0  0  0  0  0  0
   23.0105  -19.7549  -16.4841 N   0  0  0  0  0  0  0  0  0  0  0  0
   22.4474  -19.4436  -14.2006 C   0  0  0  0  0  0  0  0  0  0  0  0
   22.1677  -18.7907  -13.1494 O   0  0  0  0  0  0  0  0  0  0  0  0
   25.0116  -22.6720  -12.4403 N   0  0  0  0  0  0  0  0  0  0  0  0
   24.6379  -21.5396  -11.6670 C   0  0  0  0  0  0  0  0  0  0  0  0
   25.4948  -21.0732  -10.8740 O   0  0  0  0  0  0  0  0  0  0  0  0
   23.3198  -20.9293  -11.7745 C   0  0  0  0  0  0  0  0  0  0  0  0
   22.3905  -21.5266  -12.7759 C   0  0  2  0  0  0  0  0  0  0  0  0
   22.5284  -20.8655  -14.0688 N   0  0  0  0  0  0  0  0  0  0  0  0
   20.9975  -21.4713  -12.2873 C   0  0  0  0  0  0  0  0  0  0  0  0
   20.4029  -20.2743  -11.8749 O   0  0  0  0  0  0  0  0  0  0  0  0
   20.3362  -22.5293  -12.2436 O   0  0  0  0  0  0  0  0  0  0  0  0
  2  3  1  0
  2  1  1  1
  4  2  1  0
  5  4  2  0
  7  6  1  6
  7  8  1  0
  7  9  1  0
  8  4  1  0
  9 16  1  0
 10  9  2  0
 11 12  1  0
 12 14  1  0
 13 12  2  0
 15 14  1  1
 15 17  1  0
 16 15  1  0
 17 19  2  0
 17 18  1  0
M  END
$$$$
