AAN.pdb
     RDKit          3D

 19 18  0  0  1  0  0  0  0  0999 V2000
   18.2802  -10.4295  -18.1259 C   0  0  0  0  0  0  0  0  0  0  0  0
   18.9031  -11.2443  -17.0321 C   0  0  2  0  0  0  0  0  0  0  0  0
   17.8714  -12.1442  -16.4976 N   0  0  0  0  0  0  0  0  0  0  0  0
   19.3818  -10.3615  -15.9600 C   0  0  0  0  0  0  0  0  0  0  0  0
   18.5578   -9.7807  -15.2131 O   0  0  0  0  0  0  0  0  0  0  0  0
   22.7207   -9.7738  -14.3174 C   0  0  0  0  0  0  0  0  0  0  0  0
   21.2907   -9.3784  -14.6555 C   0  0  2  0  0  0  0  0  0  0  0  0
   20.7846  -10.1568  -15.7583 N   0  0  0  0  0  0  0  0  0  0  0  0
   21.3254   -7.9519  -15.0695 C   0  0  0  0  0  0  0  0  0  0  0  0
   21.6197   -7.6165  -16.2571 O   0  0  0  0  0  0  0  0  0  0  0  0
   20.8204   -2.7031  -15.2445 N   0  0  0  0  0  0  0  0  0  0  0  0
   19.8309   -3.3315  -14.4408 C   0  0  0  0  0  0  0  0  0  0  0  0
   18.8918   -2.6129  -14.0137 O   0  0  0  0  0  0  0  0  0  0  0  0
   19.8847   -4.7498  -14.1140 C   0  0  0  0  0  0  0  0  0  0  0  0
   21.0992   -5.4895  -14.5623 C   0  0  2  0  0  0  0  0  0  0  0  0
   21.0311   -6.8894  -14.1583 N   0  0  0  0  0  0  0  0  0  0  0  0
   22.3214   -4.8382  -14.0482 C   0  0  0  0  0  0  0  0  0  0  0  0
   23.0734   -3.9523  -14.8268 O   0  0  0  0  0  0  0  0  0  0  0  0
   22.6887   -5.0905  -12.8820 O   0  0  0  0  0  0  0  0  0  0  0  0
  2  3  1  0
  2  1  1  6
  4  2  1  0
  5  4  2  0
  7  6  1  6
  7  8  1  0
  7  9  1  0
  8  4  1  0
  9 16  1  0
 10  9  2  0
 11 12  1  0
 12 14  1  0
 13 12  2  0
 15 14  1  1
 15 17  1  0
 16 15  1  0
 17 19  2  0
 17 18  1  0
M  END
$$$$
