AAN.pdb
     RDKit          3D

 19 18  0  0  1  0  0  0  0  0999 V2000
   17.4446  -13.2097  -16.1201 C   0  0  0  0  0  0  0  0  0  0  0  0
   17.7211  -12.0721  -15.1833 C   0  0  2  0  0  0  0  0  0  0  0  0
   16.5438  -11.9035  -14.3198 N   0  0  0  0  0  0  0  0  0  0  0  0
   17.9455  -10.8373  -15.9467 C   0  0  0  0  0  0  0  0  0  0  0  0
   18.9195  -10.7564  -16.7333 O   0  0  0  0  0  0  0  0  0  0  0  0
   16.0009   -7.7419  -16.7663 C   0  0  0  0  0  0  0  0  0  0  0  0
   17.3056   -8.4626  -16.4600 C   0  0  2  0  0  0  0  0  0  0  0  0
   17.0604   -9.7212  -15.8012 N   0  0  0  0  0  0  0  0  0  0  0  0
   18.0703   -7.5915  -15.5305 C   0  0  0  0  0  0  0  0  0  0  0  0
   17.8461   -7.6018  -14.2819 O   0  0  0  0  0  0  0  0  0  0  0  0
   21.7297   -4.5514  -13.3205 N   0  0  0  0  0  0  0  0  0  0  0  0
   21.8598   -5.9472  -13.5549 C   0  0  0  0  0  0  0  0  0  0  0  0
   22.8104   -6.5422  -12.9867 O   0  0  0  0  0  0  0  0  0  0  0  0
   20.9388   -6.6770  -14.4154 C   0  0  0  0  0  0  0  0  0  0  0  0
   19.8640   -5.8765  -15.0690 C   0  0  2  0  0  0  0  0  0  0  0  0
   19.0916   -6.7020  -15.9906 N   0  0  0  0  0  0  0  0  0  0  0  0
   20.4378   -4.6984  -15.7509 C   0  0  0  0  0  0  0  0  0  0  0  0
   20.7168   -3.5094  -15.0690 O   0  0  0  0  0  0  0  0  0  0  0  0
   20.6788   -4.7730  -16.9735 O   0  0  0  0  0  0  0  0  0  0  0  0
  2  3  1  0
  2  1  1  6
  4  2  1  0
  5  4  2  0
  7  6  1  1
  7  8  1  0
  7  9  1  0
  8  4  1  0
  9 16  1  0
 10  9  2  0
 11 12  1  0
 12 14  1  0
 13 12  2  0
 15 14  1  6
 15 17  1  0
 16 15  1  0
 17 19  2  0
 17 18  1  0
M  END
$$$$
