AAN.pdb
     RDKit          3D

 19 18  0  0  1  0  0  0  0  0999 V2000
   26.1868  -13.0588  -19.9631 C   0  0  0  0  0  0  0  0  0  0  0  0
   27.1870  -13.9259  -19.2589 C   0  0  2  0  0  0  0  0  0  0  0  0
   26.4466  -14.8629  -18.4023 N   0  0  0  0  0  0  0  0  0  0  0  0
   28.0695  -13.0983  -18.4258 C   0  0  0  0  0  0  0  0  0  0  0  0
   27.6086  -12.5121  -17.4168 O   0  0  0  0  0  0  0  0  0  0  0  0
   31.7916  -12.6818  -18.0918 C   0  0  0  0  0  0  0  0  0  0  0  0
   30.3598  -12.1923  -17.9301 C   0  0  2  0  0  0  0  0  0  0  0  0
   29.4555  -12.9535  -18.7553 N   0  0  0  0  0  0  0  0  0  0  0  0
   30.3335  -10.7799  -18.3904 C   0  0  0  0  0  0  0  0  0  0  0  0
   29.6835  -10.4348  -19.4238 O   0  0  0  0  0  0  0  0  0  0  0  0
   30.6097   -5.5751  -18.7679 N   0  0  0  0  0  0  0  0  0  0  0  0
   29.4888   -6.4054  -18.4956 C   0  0  0  0  0  0  0  0  0  0  0  0
   28.3510   -5.8724  -18.5384 O   0  0  0  0  0  0  0  0  0  0  0  0
   29.6317   -7.8197  -18.1779 C   0  0  0  0  0  0  0  0  0  0  0  0
   31.0208   -8.3613  -18.1670 C   0  0  2  0  0  0  0  0  0  0  0  0
   31.0341   -9.7425  -17.6984 N   0  0  0  0  0  0  0  0  0  0  0  0
   31.9041   -7.5052  -17.3490 C   0  0  0  0  0  0  0  0  0  0  0  0
   32.1687   -7.7833  -16.0040 O   0  0  0  0  0  0  0  0  0  0  0  0
   32.4274   -6.5043  -17.8809 O   0  0  0  0  0  0  0  0  0  0  0  0
  2  3  1  0
  2  1  1  1
  4  2  1  0
  5  4  2  0
  7  6  1  6
  7  8  1  0
  7  9  1  0
  8  4  1  0
  9 16  1  0
 10  9  2  0
 11 12  1  0
 12 14  1  0
 13 12  2  0
 15 14  1  1
 15 17  1  0
 16 15  1  0
 17 19  2  0
 17 18  1  0
M  END
$$$$
