PTI.pdb
     RDKit          3D

 23 23  0  0  1  0  0  0  0  0999 V2000
   15.4199  -13.0174  -15.0223 N   0  0  0  0  0  0  0  0  0  0  0  0
   14.6073  -14.2295  -15.1477 C   0  0  0  0  0  0  0  0  0  0  0  0
   14.7827  -14.5519  -16.6203 C   0  0  0  0  0  0  0  0  0  0  0  0
   16.2528  -14.2852  -16.8301 C   0  0  0  0  0  0  0  0  0  0  0  0
   16.6287  -13.3999  -15.6804 C   0  0  1  0  0  0  0  0  0  0  0  0
   17.4056  -12.2380  -16.1832 C   0  0  0  0  0  0  0  0  0  0  0  0
   18.3741  -12.3851  -16.9759 O   0  0  0  0  0  0  0  0  0  0  0  0
   16.3050   -9.3169  -18.1182 C   0  0  0  0  0  0  0  0  0  0  0  0
   16.7943   -8.7177  -16.8032 C   0  0  1  0  0  0  0  0  0  0  0  0
   15.7519   -8.3794  -15.9752 O   0  0  0  0  0  0  0  0  0  0  0  0
   17.7386   -9.7412  -16.1602 C   0  0  2  0  0  0  0  0  0  0  0  0
   17.0631  -10.9360  -15.7729 N   0  0  0  0  0  0  0  0  0  0  0  0
   18.4879   -9.1000  -15.0524 C   0  0  0  0  0  0  0  0  0  0  0  0
   18.1859   -9.4394  -13.8815 O   0  0  0  0  0  0  0  0  0  0  0  0
   23.4147   -7.2658  -12.8379 C   0  0  0  0  0  0  0  0  0  0  0  0
   22.2352   -8.1492  -12.5435 C   0  0  0  0  0  0  0  0  0  0  0  0
   21.3890   -8.5103  -13.6888 C   0  0  2  0  0  0  0  0  0  0  0  0
   22.3162   -8.8982  -14.8719 C   0  0  0  0  0  0  0  0  0  0  0  0
   20.3123   -7.6187  -14.1351 C   0  0  2  0  0  0  0  0  0  0  0  0
   19.5080   -8.1428  -15.2276 N   0  0  0  0  0  0  0  0  0  0  0  0
   20.7563   -6.2695  -14.4669 C   0  0  0  0  0  0  0  0  0  0  0  0
   21.0681   -5.3841  -13.4338 O   0  0  0  0  0  0  0  0  0  0  0  0
   20.8571   -5.9006  -15.6825 O   0  0  0  0  0  0  0  0  0  0  0  0
  1  2  1  0
  2  3  1  0
  4  3  1  0
  5  4  1  0
  5  1  1  0
  6  7  2  0
  5  6  1  6
  9  8  1  6
  9 11  1  0
 10  9  1  0
 11 12  1  1
 11 13  1  0
 12  6  1  0
 13 20  1  0
 14 13  2  0
 16 15  1  0
 17 18  1  6
 17 16  1  0
 19 21  1  0
 19 17  1  0
 19 20  1  6
 21 22  1  0
 23 21  2  0
M  END
$$$$
