PTI.pdb
     RDKit          3D

 23 23  0  0  1  0  0  0  0  0999 V2000
   25.7505  -14.3904  -17.3950 N   0  0  0  0  0  0  0  0  0  0  0  0
   26.5441  -13.1595  -17.4148 C   0  0  0  0  0  0  0  0  0  0  0  0
   26.5712  -12.8015  -15.9402 C   0  0  0  0  0  0  0  0  0  0  0  0
   26.7927  -14.1457  -15.2919 C   0  0  0  0  0  0  0  0  0  0  0  0
   26.3729  -15.1290  -16.3425 C   0  0  1  0  0  0  0  0  0  0  0  0
   25.4729  -16.1449  -15.7389 C   0  0  0  0  0  0  0  0  0  0  0  0
   24.2924  -15.8627  -15.4003 O   0  0  0  0  0  0  0  0  0  0  0  0
   23.8625  -18.6542  -17.2125 C   0  0  0  0  0  0  0  0  0  0  0  0
   24.7363  -19.4764  -16.2701 C   0  0  1  0  0  0  0  0  0  0  0  0
   25.8262  -20.0080  -16.9152 O   0  0  0  0  0  0  0  0  0  0  0  0
   25.1388  -18.5605  -15.1074 C   0  0  2  0  0  0  0  0  0  0  0  0
   25.9363  -17.4581  -15.5345 N   0  0  0  0  0  0  0  0  0  0  0  0
   25.7703  -19.3664  -14.0344 C   0  0  0  0  0  0  0  0  0  0  0  0
   26.9599  -19.0956  -13.7359 O   0  0  0  0  0  0  0  0  0  0  0  0
   25.7879  -20.7228   -8.4170 C   0  0  0  0  0  0  0  0  0  0  0  0
   26.0872  -21.3454   -9.7516 C   0  0  0  0  0  0  0  0  0  0  0  0
   25.4378  -20.7318  -10.9177 C   0  0  2  0  0  0  0  0  0  0  0  0
   23.9036  -20.7479  -10.6811 C   0  0  0  0  0  0  0  0  0  0  0  0
   25.7647  -21.1767  -12.2774 C   0  0  2  0  0  0  0  0  0  0  0  0
   25.1271  -20.4074  -13.3342 N   0  0  0  0  0  0  0  0  0  0  0  0
   25.5349  -22.5983  -12.5096 C   0  0  0  0  0  0  0  0  0  0  0  0
   26.3790  -23.5302  -11.9036 O   0  0  0  0  0  0  0  0  0  0  0  0
   24.5786  -22.9870  -13.2568 O   0  0  0  0  0  0  0  0  0  0  0  0
  1  2  1  0
  2  3  1  0
  4  3  1  0
  5  4  1  0
  5  1  1  0
  6  7  2  0
  5  6  1  1
  9  8  1  6
  9 11  1  0
 10  9  1  0
 11 12  1  6
 11 13  1  0
 12  6  1  0
 13 20  1  0
 14 13  2  0
 16 15  1  0
 17 18  1  1
 17 16  1  0
 19 21  1  0
 19 17  1  0
 19 20  1  6
 21 22  1  0
 23 21  2  0
M  END
$$$$
