PTI.pdb
     RDKit          3D

 23 23  0  0  1  0  0  0  0  0999 V2000
   29.0847  -21.0857  -17.6472 N   0  0  0  0  0  0  0  0  0  0  0  0
   29.4779  -22.3245  -18.3225 C   0  0  0  0  0  0  0  0  0  0  0  0
   29.8632  -23.1957  -17.1410 C   0  0  0  0  0  0  0  0  0  0  0  0
   28.7741  -22.8797  -16.1459 C   0  0  0  0  0  0  0  0  0  0  0  0
   28.2204  -21.5692  -16.6178 C   0  0  1  0  0  0  0  0  0  0  0  0
   28.1117  -20.6346  -15.4683 C   0  0  0  0  0  0  0  0  0  0  0  0
   29.0943  -19.9467  -15.0820 O   0  0  0  0  0  0  0  0  0  0  0  0
   26.8545  -17.5621  -14.8011 C   0  0  0  0  0  0  0  0  0  0  0  0
   25.9341  -18.4056  -13.9242 C   0  0  1  0  0  0  0  0  0  0  0  0
   24.7158  -18.6225  -14.5204 O   0  0  0  0  0  0  0  0  0  0  0  0
   26.6721  -19.7147  -13.6171 C   0  0  2  0  0  0  0  0  0  0  0  0
   26.8882  -20.5041  -14.7850 N   0  0  0  0  0  0  0  0  0  0  0  0
   25.9663  -20.4419  -12.5342 C   0  0  0  0  0  0  0  0  0  0  0  0
   25.5595  -21.6022  -12.7907 O   0  0  0  0  0  0  0  0  0  0  0  0
   27.4236  -19.5507   -7.4054 C   0  0  0  0  0  0  0  0  0  0  0  0
   26.9109  -20.4895   -8.4610 C   0  0  0  0  0  0  0  0  0  0  0  0
   25.4985  -20.3399   -8.8363 C   0  0  2  0  0  0  0  0  0  0  0  0
   24.6357  -21.0751   -7.7756 C   0  0  0  0  0  0  0  0  0  0  0  0
   25.0467  -20.6601  -10.1952 C   0  0  2  0  0  0  0  0  0  0  0  0
   25.7247  -19.9194  -11.2474 N   0  0  0  0  0  0  0  0  0  0  0  0
   23.6041  -20.5539  -10.3831 C   0  0  0  0  0  0  0  0  0  0  0  0
   22.7873  -21.6114   -9.9796 O   0  0  0  0  0  0  0  0  0  0  0  0
   23.0938  -19.5118  -10.9100 O   0  0  0  0  0  0  0  0  0  0  0  0
  1  2  1  0
  2  3  1  0
  4  3  1  0
  5  4  1  0
  5  1  1  0
  6  7  2  0
  5  6  1  1
  9  8  1  6
  9 11  1  0
 10  9  1  0
 11 12  1  6
 11 13  1  0
 12  6  1  0
 13 20  1  0
 14 13  2  0
 16 15  1  0
 17 18  1  1
 17 16  1  0
 19 21  1  0
 19 17  1  0
 19 20  1  6
 21 22  1  0
 23 21  2  0
M  END
$$$$
