PTI.pdb
     RDKit          3D

 23 23  0  0  1  0  0  0  0  0999 V2000
   18.3624  -16.0787  -15.8902 N   0  0  0  0  0  0  0  0  0  0  0  0
   17.6884  -17.3615  -16.1032 C   0  0  0  0  0  0  0  0  0  0  0  0
   17.1567  -17.1855  -17.5137 C   0  0  0  0  0  0  0  0  0  0  0  0
   18.3172  -16.5170  -18.2086 C   0  0  0  0  0  0  0  0  0  0  0  0
   19.1298  -15.9432  -17.0873 C   0  0  1  0  0  0  0  0  0  0  0  0
   19.4737  -14.5316  -17.3967 C   0  0  0  0  0  0  0  0  0  0  0  0
   20.1944  -14.2295  -18.3852 O   0  0  0  0  0  0  0  0  0  0  0  0
   17.2694  -11.6233  -18.1524 C   0  0  0  0  0  0  0  0  0  0  0  0
   17.9524  -11.2803  -16.8320 C   0  0  1  0  0  0  0  0  0  0  0  0
   17.1295  -11.5061  -15.7557 O   0  0  0  0  0  0  0  0  0  0  0  0
   19.2434  -12.1054  -16.7597 C   0  0  2  0  0  0  0  0  0  0  0  0
   18.9900  -13.4966  -16.5747 N   0  0  0  0  0  0  0  0  0  0  0  0
   20.1468  -11.5276  -15.7350 C   0  0  0  0  0  0  0  0  0  0  0  0
   20.0376  -11.9616  -14.5613 O   0  0  0  0  0  0  0  0  0  0  0  0
   25.7781  -10.6226  -14.2695 C   0  0  0  0  0  0  0  0  0  0  0  0
   24.3943  -10.0673  -14.0821 C   0  0  0  0  0  0  0  0  0  0  0  0
   23.3972  -10.4465  -15.0921 C   0  0  2  0  0  0  0  0  0  0  0  0
   23.9737  -10.1059  -16.4926 C   0  0  0  0  0  0  0  0  0  0  0  0
   22.0044   -9.9998  -14.9741 C   0  0  2  0  0  0  0  0  0  0  0  0
   21.1113  -10.5319  -15.9911 N   0  0  0  0  0  0  0  0  0  0  0  0
   21.8481   -8.5512  -14.9047 C   0  0  0  0  0  0  0  0  0  0  0  0
   22.1275   -7.8949  -13.7049 O   0  0  0  0  0  0  0  0  0  0  0  0
   21.4598   -7.8914  -15.9234 O   0  0  0  0  0  0  0  0  0  0  0  0
  1  2  1  0
  2  3  1  0
  4  3  1  0
  5  4  1  0
  5  1  1  0
  6  7  2  0
  5  6  1  6
  9  8  1  6
  9 11  1  0
 10  9  1  0
 11 12  1  1
 11 13  1  0
 12  6  1  0
 13 20  1  0
 14 13  2  0
 16 15  1  0
 17 18  1  6
 17 16  1  0
 19 21  1  0
 19 17  1  0
 19 20  1  6
 21 22  1  0
 23 21  2  0
M  END
$$$$
