PTI.pdb
     RDKit          3D

 23 23  0  0  1  0  0  0  0  0999 V2000
   27.4556  -22.2328  -16.7776 N   0  0  0  0  0  0  0  0  0  0  0  0
   27.6784  -22.5105  -18.1983 C   0  0  0  0  0  0  0  0  0  0  0  0
   27.2533  -21.1961  -18.8267 C   0  0  0  0  0  0  0  0  0  0  0  0
   27.8517  -20.1845  -17.8807 C   0  0  0  0  0  0  0  0  0  0  0  0
   28.0868  -20.9611  -16.6203 C   0  0  1  0  0  0  0  0  0  0  0  0
   27.5619  -20.1948  -15.4611 C   0  0  0  0  0  0  0  0  0  0  0  0
   27.9457  -19.0191  -15.2190 O   0  0  0  0  0  0  0  0  0  0  0  0
   24.2979  -19.0843  -15.1192 C   0  0  0  0  0  0  0  0  0  0  0  0
   24.4140  -19.9563  -13.8727 C   0  0  1  0  0  0  0  0  0  0  0  0
   23.7883  -21.1682  -14.0351 O   0  0  0  0  0  0  0  0  0  0  0  0
   25.9082  -20.1106  -13.5628 C   0  0  2  0  0  0  0  0  0  0  0  0
   26.6130  -20.7832  -14.6043 N   0  0  0  0  0  0  0  0  0  0  0  0
   26.0780  -20.7412  -12.2311 C   0  0  0  0  0  0  0  0  0  0  0  0
   26.4782  -21.9315  -12.2051 O   0  0  0  0  0  0  0  0  0  0  0  0
   28.1688  -19.9063   -6.6217 C   0  0  0  0  0  0  0  0  0  0  0  0
   27.1457  -20.6281   -7.4529 C   0  0  0  0  0  0  0  0  0  0  0  0
   26.8659  -20.0617   -8.7792 C   0  0  2  0  0  0  0  0  0  0  0  0
   26.4510  -18.5774   -8.5936 C   0  0  0  0  0  0  0  0  0  0  0  0
   25.9631  -20.7473   -9.7111 C   0  0  2  0  0  0  0  0  0  0  0  0
   25.8216  -20.0965  -11.0040 N   0  0  0  0  0  0  0  0  0  0  0  0
   24.6400  -21.0238   -9.1627 C   0  0  0  0  0  0  0  0  0  0  0  0
   23.5207  -20.4510   -9.7688 O   0  0  0  0  0  0  0  0  0  0  0  0
   24.5050  -21.7761   -8.1430 O   0  0  0  0  0  0  0  0  0  0  0  0
  1  2  1  0
  2  3  1  0
  4  3  1  0
  5  4  1  0
  5  1  1  0
  6  7  2  0
  5  6  1  1
  9  8  1  6
  9 11  1  0
 10  9  1  0
 11 12  1  6
 11 13  1  0
 12  6  1  0
 13 20  1  0
 14 13  2  0
 16 15  1  0
 17 18  1  1
 17 16  1  0
 19 21  1  0
 19 17  1  0
 19 20  1  6
 21 22  1  0
 23 21  2  0
M  END
$$$$
