PTI.pdb
     RDKit          3D

 23 23  0  0  1  0  0  0  0  0999 V2000
   27.8711  -21.3302  -14.5505 N   0  0  0  0  0  0  0  0  0  0  0  0
   28.2647  -21.3500  -15.9611 C   0  0  0  0  0  0  0  0  0  0  0  0
   27.6537  -20.0522  -16.4568 C   0  0  0  0  0  0  0  0  0  0  0  0
   27.9650  -19.1033  -15.3259 C   0  0  0  0  0  0  0  0  0  0  0  0
   28.2333  -20.0051  -14.1589 C   0  0  1  0  0  0  0  0  0  0  0  0
   27.4740  -19.5240  -12.9763 C   0  0  0  0  0  0  0  0  0  0  0  0
   27.5763  -18.3374  -12.5646 O   0  0  0  0  0  0  0  0  0  0  0  0
   23.8475  -19.5480  -12.6760 C   0  0  0  0  0  0  0  0  0  0  0  0
   24.2913  -20.3904  -11.4839 C   0  0  1  0  0  0  0  0  0  0  0  0
   24.1035  -21.7326  -11.7069 O   0  0  0  0  0  0  0  0  0  0  0  0
   25.7602  -20.0473  -11.2059 C   0  0  2  0  0  0  0  0  0  0  0  0
   26.6163  -20.4034  -12.2895 N   0  0  0  0  0  0  0  0  0  0  0  0
   26.1722  -20.6366   -9.9086 C   0  0  0  0  0  0  0  0  0  0  0  0
   26.8734  -21.6779   -9.9466 O   0  0  0  0  0  0  0  0  0  0  0  0
   28.8212  -18.3408   -5.9641 C   0  0  0  0  0  0  0  0  0  0  0  0
   28.2369  -19.3944   -6.8624 C   0  0  0  0  0  0  0  0  0  0  0  0
   26.9375  -19.9482   -6.4586 C   0  0  2  0  0  0  0  0  0  0  0  0
   27.1232  -20.6764   -5.1002 C   0  0  0  0  0  0  0  0  0  0  0  0
   26.1495  -20.7644   -7.3893 C   0  0  2  0  0  0  0  0  0  0  0  0
   25.8304  -20.1080   -8.6472 N   0  0  0  0  0  0  0  0  0  0  0  0
   24.9298  -21.3167   -6.8102 C   0  0  0  0  0  0  0  0  0  0  0  0
   25.0302  -22.3238   -5.8491 O   0  0  0  0  0  0  0  0  0  0  0  0
   23.7867  -20.8888   -7.1766 O   0  0  0  0  0  0  0  0  0  0  0  0
  1  2  1  0
  2  3  1  0
  4  3  1  0
  5  4  1  0
  5  1  1  0
  6  7  2  0
  5  6  1  1
  9  8  1  6
  9 11  1  0
 10  9  1  0
 11 12  1  6
 11 13  1  0
 12  6  1  0
 13 20  1  0
 14 13  2  0
 16 15  1  0
 17 18  1  1
 17 16  1  0
 19 21  1  0
 19 17  1  0
 19 20  1  6
 21 22  1  0
 23 21  2  0
M  END
$$$$
