PTI.pdb
     RDKit          3D

 23 23  0  0  1  0  0  0  0  0999 V2000
   25.4911  -17.1041  -16.5069 N   0  0  0  0  0  0  0  0  0  0  0  0
   26.5420  -16.3591  -17.2038 C   0  0  0  0  0  0  0  0  0  0  0  0
   27.3519  -15.8275  -16.0356 C   0  0  0  0  0  0  0  0  0  0  0  0
   27.3907  -17.0178  -15.1093 C   0  0  0  0  0  0  0  0  0  0  0  0
   26.2437  -17.8690  -15.5640 C   0  0  1  0  0  0  0  0  0  0  0  0
   25.4403  -18.2877  -14.3868 C   0  0  0  0  0  0  0  0  0  0  0  0
   24.2828  -17.8332  -14.1826 O   0  0  0  0  0  0  0  0  0  0  0  0
   23.5629  -20.7955  -13.9050 C   0  0  0  0  0  0  0  0  0  0  0  0
   24.5806  -21.1365  -12.8209 C   0  0  1  0  0  0  0  0  0  0  0  0
   25.4895  -22.0737  -13.2479 O   0  0  0  0  0  0  0  0  0  0  0  0
   25.2536  -19.8242  -12.3995 C   0  0  2  0  0  0  0  0  0  0  0  0
   25.9717  -19.2133  -13.4694 N   0  0  0  0  0  0  0  0  0  0  0  0
   26.0790  -20.0543  -11.1888 C   0  0  0  0  0  0  0  0  0  0  0  0
   27.3075  -20.2526  -11.3593 O   0  0  0  0  0  0  0  0  0  0  0  0
   26.9729  -17.0948   -6.9571 C   0  0  0  0  0  0  0  0  0  0  0  0
   27.1154  -18.1663   -8.0011 C   0  0  0  0  0  0  0  0  0  0  0  0
   26.5227  -19.4717   -7.6809 C   0  0  2  0  0  0  0  0  0  0  0  0
   27.2643  -20.0497   -6.4456 C   0  0  0  0  0  0  0  0  0  0  0  0
   26.3567  -20.4942   -8.7203 C   0  0  2  0  0  0  0  0  0  0  0  0
   25.5780  -20.0647   -9.8711 N   0  0  0  0  0  0  0  0  0  0  0  0
   25.8311  -21.7628   -8.2284 C   0  0  0  0  0  0  0  0  0  0  0  0
   26.7194  -22.7205   -7.7363 O   0  0  0  0  0  0  0  0  0  0  0  0
   24.5787  -21.9972   -8.2483 O   0  0  0  0  0  0  0  0  0  0  0  0
  1  2  1  0
  2  3  1  0
  4  3  1  0
  5  4  1  0
  5  1  1  0
  6  7  2  0
  5  6  1  1
  9  8  1  6
  9 11  1  0
 10  9  1  0
 11 12  1  6
 11 13  1  0
 12  6  1  0
 13 20  1  0
 14 13  2  0
 16 15  1  0
 17 18  1  1
 17 16  1  0
 19 21  1  0
 19 17  1  0
 19 20  1  6
 21 22  1  0
 23 21  2  0
M  END
$$$$
