PTI.pdb
     RDKit          3D

 23 23  0  0  1  0  0  0  0  0999 V2000
   16.5934  -14.4252  -16.0550 N   0  0  0  0  0  0  0  0  0  0  0  0
   15.7868  -15.6175  -16.3252 C   0  0  0  0  0  0  0  0  0  0  0  0
   15.2230  -15.2887  -17.6953 C   0  0  0  0  0  0  0  0  0  0  0  0
   16.4178  -14.6877  -18.3936 C   0  0  0  0  0  0  0  0  0  0  0  0
   17.3252  -14.2785  -17.2730 C   0  0  1  0  0  0  0  0  0  0  0  0
   17.7970  -12.8884  -17.4999 C   0  0  0  0  0  0  0  0  0  0  0  0
   18.6014  -12.6080  -18.4286 O   0  0  0  0  0  0  0  0  0  0  0  0
   15.9453   -9.7266  -18.2293 C   0  0  0  0  0  0  0  0  0  0  0  0
   16.5686   -9.5217  -16.8519 C   0  0  1  0  0  0  0  0  0  0  0  0
   15.6540   -9.7041  -15.8435 O   0  0  0  0  0  0  0  0  0  0  0  0
   17.7557  -10.4867  -16.7415 C   0  0  2  0  0  0  0  0  0  0  0  0
   17.3433  -11.8498  -16.6656 N   0  0  0  0  0  0  0  0  0  0  0  0
   18.6325  -10.0710  -15.6198 C   0  0  0  0  0  0  0  0  0  0  0  0
   18.3490  -10.5062  -14.4762 O   0  0  0  0  0  0  0  0  0  0  0  0
   23.8623  -10.5547  -13.2852 C   0  0  0  0  0  0  0  0  0  0  0  0
   22.8063   -9.5002  -13.4613 C   0  0  0  0  0  0  0  0  0  0  0  0
   21.8200   -9.7362  -14.5242 C   0  0  2  0  0  0  0  0  0  0  0  0
   22.5787   -9.8343  -15.8750 C   0  0  0  0  0  0  0  0  0  0  0  0
   20.6338   -8.8813  -14.6483 C   0  0  2  0  0  0  0  0  0  0  0  0
   19.7534   -9.2266  -15.7534 N   0  0  0  0  0  0  0  0  0  0  0  0
   20.9313   -7.4541  -14.6963 C   0  0  0  0  0  0  0  0  0  0  0  0
   20.6605   -6.7431  -15.8665 O   0  0  0  0  0  0  0  0  0  0  0  0
   21.4337   -6.8622  -13.6857 O   0  0  0  0  0  0  0  0  0  0  0  0
  1  2  1  0
  2  3  1  0
  4  3  1  0
  5  4  1  0
  5  1  1  0
  6  7  2  0
  5  6  1  6
  9  8  1  6
  9 11  1  0
 10  9  1  0
 11 12  1  1
 11 13  1  0
 12  6  1  0
 13 20  1  0
 14 13  2  0
 16 15  1  0
 17 18  1  6
 17 16  1  0
 19 21  1  0
 19 17  1  0
 19 20  1  6
 21 22  1  0
 23 21  2  0
M  END
$$$$
