PTI.pdb
     RDKit          3D

 23 23  0  0  1  0  0  0  0  0999 V2000
   17.2773  -14.7203  -15.5172 N   0  0  0  0  0  0  0  0  0  0  0  0
   16.5225  -15.9671  -15.6613 C   0  0  0  0  0  0  0  0  0  0  0  0
   15.7500  -15.6991  -16.9398 C   0  0  0  0  0  0  0  0  0  0  0  0
   16.7911  -15.0330  -17.8052 C   0  0  0  0  0  0  0  0  0  0  0  0
   17.8182  -14.5466  -16.8279 C   0  0  1  0  0  0  0  0  0  0  0  0
   18.1588  -13.1326  -17.1298 C   0  0  0  0  0  0  0  0  0  0  0  0
   18.8161  -12.8173  -18.1577 O   0  0  0  0  0  0  0  0  0  0  0  0
   15.9048  -10.2878  -17.7463 C   0  0  0  0  0  0  0  0  0  0  0  0
   16.6476   -9.9176  -16.4662 C   0  0  1  0  0  0  0  0  0  0  0  0
   15.8865  -10.1504  -15.3467 O   0  0  0  0  0  0  0  0  0  0  0  0
   17.9582  -10.7143  -16.4539 C   0  0  2  0  0  0  0  0  0  0  0  0
   17.7441  -12.1103  -16.2559 N   0  0  0  0  0  0  0  0  0  0  0  0
   18.8959  -10.1151  -15.4734 C   0  0  0  0  0  0  0  0  0  0  0  0
   18.7549  -10.4415  -14.2688 O   0  0  0  0  0  0  0  0  0  0  0  0
   23.9226  -10.8957  -14.8499 C   0  0  0  0  0  0  0  0  0  0  0  0
   22.4755  -10.5051  -14.7426 C   0  0  0  0  0  0  0  0  0  0  0  0
   22.1793   -9.0690  -14.8320 C   0  0  2  0  0  0  0  0  0  0  0  0
   23.0364   -8.3312  -13.7685 C   0  0  0  0  0  0  0  0  0  0  0  0
   20.7931   -8.5877  -14.8161 C   0  0  2  0  0  0  0  0  0  0  0  0
   19.9260   -9.2110  -15.8035 N   0  0  0  0  0  0  0  0  0  0  0  0
   20.6657   -7.1376  -14.9089 C   0  0  0  0  0  0  0  0  0  0  0  0
   20.9341   -6.3591  -13.7818 O   0  0  0  0  0  0  0  0  0  0  0  0
   20.3124   -6.5863  -16.0021 O   0  0  0  0  0  0  0  0  0  0  0  0
  1  2  1  0
  2  3  1  0
  4  3  1  0
  5  4  1  0
  5  1  1  0
  6  7  2  0
  5  6  1  6
  9  8  1  6
  9 11  1  0
 10  9  1  0
 11 12  1  1
 11 13  1  0
 12  6  1  0
 13 20  1  0
 14 13  2  0
 16 15  1  0
 17 18  1  1
 17 16  1  0
 19 21  1  0
 19 17  1  0
 19 20  1  6
 21 22  1  0
 23 21  2  0
M  END
$$$$
