PTI.pdb
     RDKit          3D

 23 23  0  0  1  0  0  0  0  0999 V2000
   26.8298  -18.3746  -16.4351 N   0  0  0  0  0  0  0  0  0  0  0  0
   28.1024  -18.3321  -17.1589 C   0  0  0  0  0  0  0  0  0  0  0  0
   29.0584  -17.9259  -16.0524 C   0  0  0  0  0  0  0  0  0  0  0  0
   28.5737  -18.7606  -14.8928 C   0  0  0  0  0  0  0  0  0  0  0  0
   27.1728  -19.1330  -15.2742 C   0  0  1  0  0  0  0  0  0  0  0  0
   26.2630  -18.8784  -14.1279 C   0  0  0  0  0  0  0  0  0  0  0  0
   25.3848  -17.9757  -14.1704 O   0  0  0  0  0  0  0  0  0  0  0  0
   24.3038  -21.6701  -12.8668 C   0  0  0  0  0  0  0  0  0  0  0  0
   24.0640  -20.2533  -12.3544 C   0  0  1  0  0  0  0  0  0  0  0  0
   23.1267  -20.2232  -11.3508 O   0  0  0  0  0  0  0  0  0  0  0  0
   25.4198  -19.6980  -11.9002 C   0  0  2  0  0  0  0  0  0  0  0  0
   26.3730  -19.6563  -12.9602 N   0  0  0  0  0  0  0  0  0  0  0  0
   25.8913  -20.4473  -10.7103 C   0  0  0  0  0  0  0  0  0  0  0  0
   26.3043  -21.6191  -10.8947 O   0  0  0  0  0  0  0  0  0  0  0  0
   28.6195  -18.2160   -6.5138 C   0  0  0  0  0  0  0  0  0  0  0  0
   28.1916  -19.2577   -7.5089 C   0  0  0  0  0  0  0  0  0  0  0  0
   26.9710  -20.0077   -7.1837 C   0  0  2  0  0  0  0  0  0  0  0  0
   27.2794  -20.9336   -5.9765 C   0  0  0  0  0  0  0  0  0  0  0  0
   26.2365  -20.7318   -8.2275 C   0  0  2  0  0  0  0  0  0  0  0  0
   25.9056  -19.9337   -9.3975 N   0  0  0  0  0  0  0  0  0  0  0  0
   25.0358  -21.4084   -7.7496 C   0  0  0  0  0  0  0  0  0  0  0  0
   23.7934  -20.8013   -7.9395 O   0  0  0  0  0  0  0  0  0  0  0  0
   25.1173  -22.5375   -7.1645 O   0  0  0  0  0  0  0  0  0  0  0  0
  1  2  1  0
  2  3  1  0
  4  3  1  0
  5  4  1  0
  5  1  1  0
  6  7  2  0
  5  6  1  1
  9  8  1  1
  9 11  1  0
 10  9  1  0
 11 12  1  6
 11 13  1  0
 12  6  1  0
 13 20  1  0
 14 13  2  0
 16 15  1  0
 17 18  1  1
 17 16  1  0
 19 21  1  0
 19 17  1  0
 19 20  1  6
 21 22  1  0
 23 21  2  0
M  END
$$$$
