PTI.pdb
     RDKit          3D

 23 23  0  0  1  0  0  0  0  0999 V2000
   27.3819  -21.0582  -16.9171 N   0  0  0  0  0  0  0  0  0  0  0  0
   28.2289  -22.0233  -17.6215 C   0  0  0  0  0  0  0  0  0  0  0  0
   29.2896  -22.3060  -16.5735 C   0  0  0  0  0  0  0  0  0  0  0  0
   28.4695  -22.4020  -15.3108 C   0  0  0  0  0  0  0  0  0  0  0  0
   27.1925  -21.6955  -15.6527 C   0  0  1  0  0  0  0  0  0  0  0  0
   26.8499  -20.7390  -14.5690 C   0  0  0  0  0  0  0  0  0  0  0  0
   27.0641  -19.5029  -14.6878 O   0  0  0  0  0  0  0  0  0  0  0  0
   24.2810  -19.1587  -13.9203 C   0  0  0  0  0  0  0  0  0  0  0  0
   24.2676  -19.9875  -12.6394 C   0  0  1  0  0  0  0  0  0  0  0  0
   23.4320  -21.0730  -12.7404 O   0  0  0  0  0  0  0  0  0  0  0  0
   25.7168  -20.3949  -12.3458 C   0  0  2  0  0  0  0  0  0  0  0  0
   26.2717  -21.2106  -13.3757 N   0  0  0  0  0  0  0  0  0  0  0  0
   25.7982  -21.0081  -10.9977 C   0  0  0  0  0  0  0  0  0  0  0  0
   25.9258  -22.2563  -10.9402 O   0  0  0  0  0  0  0  0  0  0  0  0
   28.4011  -18.6157   -6.8053 C   0  0  0  0  0  0  0  0  0  0  0  0
   27.8950  -19.7346   -7.6714 C   0  0  0  0  0  0  0  0  0  0  0  0
   26.5021  -20.1482   -7.4545 C   0  0  2  0  0  0  0  0  0  0  0  0
   26.4149  -20.8465   -6.0708 C   0  0  0  0  0  0  0  0  0  0  0  0
   25.7807  -20.9150   -8.4768 C   0  0  2  0  0  0  0  0  0  0  0  0
   25.7421  -20.2866   -9.7878 N   0  0  0  0  0  0  0  0  0  0  0  0
   24.4293  -21.3017   -8.0870 C   0  0  0  0  0  0  0  0  0  0  0  0
   24.2510  -22.4281   -7.2822 O   0  0  0  0  0  0  0  0  0  0  0  0
   23.4231  -20.6234   -8.4762 O   0  0  0  0  0  0  0  0  0  0  0  0
  1  2  1  0
  2  3  1  0
  4  3  1  0
  5  4  1  0
  5  1  1  0
  6  7  2  0
  5  6  1  1
  9  8  1  6
  9 11  1  0
 10  9  1  0
 11 12  1  6
 11 13  1  0
 12  6  1  0
 13 20  1  0
 14 13  2  0
 16 15  1  0
 17 18  1  1
 17 16  1  0
 19 21  1  0
 19 17  1  0
 19 20  1  6
 21 22  1  0
 23 21  2  0
M  END
$$$$
