PTI.pdb
     RDKit          3D

 23 23  0  0  1  0  0  0  0  0999 V2000
   28.0479  -23.0211  -16.2960 N   0  0  0  0  0  0  0  0  0  0  0  0
   28.0957  -23.6421  -17.6216 C   0  0  0  0  0  0  0  0  0  0  0  0
   27.6060  -22.5046  -18.4989 C   0  0  0  0  0  0  0  0  0  0  0  0
   28.3207  -21.3161  -17.9047 C   0  0  0  0  0  0  0  0  0  0  0  0
   28.7015  -21.7723  -16.5286 C   0  0  1  0  0  0  0  0  0  0  0  0
   28.3252  -20.7301  -15.5393 C   0  0  0  0  0  0  0  0  0  0  0  0
   28.7784  -19.5565  -15.6127 O   0  0  0  0  0  0  0  0  0  0  0  0
   24.8320  -20.5970  -15.5606 C   0  0  0  0  0  0  0  0  0  0  0  0
   25.5829  -19.4757  -14.8489 C   0  0  1  0  0  0  0  0  0  0  0  0
   24.7264  -18.5944  -14.2355 O   0  0  0  0  0  0  0  0  0  0  0  0
   26.5489  -20.1339  -13.8557 C   0  0  2  0  0  0  0  0  0  0  0  0
   27.4425  -21.0466  -14.4898 N   0  0  0  0  0  0  0  0  0  0  0  0
   25.7808  -20.7375  -12.7397 C   0  0  0  0  0  0  0  0  0  0  0  0
   25.2900  -21.8779  -12.9298 O   0  0  0  0  0  0  0  0  0  0  0  0
   27.2513  -19.4390   -7.6391 C   0  0  0  0  0  0  0  0  0  0  0  0
   26.8019  -20.3725   -8.7277 C   0  0  0  0  0  0  0  0  0  0  0  0
   25.3693  -20.3542   -9.0522 C   0  0  2  0  0  0  0  0  0  0  0  0
   24.6090  -21.1081   -7.9281 C   0  0  0  0  0  0  0  0  0  0  0  0
   24.8962  -20.7706  -10.3774 C   0  0  2  0  0  0  0  0  0  0  0  0
   25.5680  -20.1192  -11.4908 N   0  0  0  0  0  0  0  0  0  0  0  0
   23.4524  -20.6621  -10.5549 C   0  0  0  0  0  0  0  0  0  0  0  0
   22.9430  -19.6523  -11.3729 O   0  0  0  0  0  0  0  0  0  0  0  0
   22.6644  -21.4754   -9.9706 O   0  0  0  0  0  0  0  0  0  0  0  0
  1  2  1  0
  2  3  1  0
  4  3  1  0
  5  4  1  0
  5  1  1  0
  6  7  2  0
  5  6  1  1
  9  8  1  1
  9 11  1  0
 10  9  1  0
 11 12  1  6
 11 13  1  0
 12  6  1  0
 13 20  1  0
 14 13  2  0
 16 15  1  0
 17 18  1  1
 17 16  1  0
 19 21  1  0
 19 17  1  0
 19 20  1  6
 21 22  1  0
 23 21  2  0
M  END
$$$$
