PTI.pdb
     RDKit          3D

 23 23  0  0  1  0  0  0  0  0999 V2000
   19.4849  -14.9491  -17.1065 N   0  0  0  0  0  0  0  0  0  0  0  0
   18.9434  -15.5950  -18.3044 C   0  0  0  0  0  0  0  0  0  0  0  0
   18.1706  -14.4504  -18.9337 C   0  0  0  0  0  0  0  0  0  0  0  0
   19.1131  -13.2881  -18.7411 C   0  0  0  0  0  0  0  0  0  0  0  0
   20.0240  -13.7382  -17.6391 C   0  0  1  0  0  0  0  0  0  0  0  0
   20.1412  -12.6616  -16.6224 C   0  0  0  0  0  0  0  0  0  0  0  0
   19.3313  -12.5706  -15.6613 O   0  0  0  0  0  0  0  0  0  0  0  0
   23.0035   -9.3033  -14.4965 C   0  0  0  0  0  0  0  0  0  0  0  0
   22.8829  -10.5140  -15.4169 C   0  0  1  0  0  0  0  0  0  0  0  0
   23.3619  -11.6572  -14.8250 O   0  0  0  0  0  0  0  0  0  0  0  0
   21.4064  -10.6394  -15.8129 C   0  0  2  0  0  0  0  0  0  0  0  0
   21.1766  -11.7135  -16.7224 N   0  0  0  0  0  0  0  0  0  0  0  0
   20.9103   -9.3313  -16.3054 C   0  0  0  0  0  0  0  0  0  0  0  0
   21.1236   -9.0521  -17.5113 O   0  0  0  0  0  0  0  0  0  0  0  0
   16.0650   -7.7307  -17.0494 C   0  0  0  0  0  0  0  0  0  0  0  0
   17.5631   -7.8452  -17.0822 C   0  0  0  0  0  0  0  0  0  0  0  0
   18.3032   -6.9882  -16.1462 C   0  0  2  0  0  0  0  0  0  0  0  0
   17.8838   -5.5158  -16.4035 C   0  0  0  0  0  0  0  0  0  0  0  0
   19.7602   -7.1047  -16.0161 C   0  0  2  0  0  0  0  0  0  0  0  0
   20.2209   -8.3897  -15.5144 N   0  0  0  0  0  0  0  0  0  0  0  0
   20.3755   -6.0346  -15.2389 C   0  0  0  0  0  0  0  0  0  0  0  0
   20.8679   -4.9100  -15.9031 O   0  0  0  0  0  0  0  0  0  0  0  0
   20.4655   -6.1235  -13.9709 O   0  0  0  0  0  0  0  0  0  0  0  0
  1  2  1  0
  2  3  1  0
  4  3  1  0
  5  4  1  0
  5  1  1  0
  6  7  2  0
  5  6  1  1
  9  8  1  1
  9 11  1  0
 10  9  1  0
 11 12  1  6
 11 13  1  0
 12  6  1  0
 13 20  1  0
 14 13  2  0
 16 15  1  0
 17 18  1  6
 17 16  1  0
 19 21  1  0
 19 17  1  0
 19 20  1  1
 21 22  1  0
 23 21  2  0
M  END
$$$$
