PTI.pdb
     RDKit          3D

 23 23  0  0  1  0  0  0  0  0999 V2000
   16.7287  -14.4313  -15.6888 N   0  0  0  0  0  0  0  0  0  0  0  0
   15.9689  -15.6706  -15.8677 C   0  0  0  0  0  0  0  0  0  0  0  0
   15.3452  -15.4407  -17.2319 C   0  0  0  0  0  0  0  0  0  0  0  0
   16.4872  -14.8260  -18.0028 C   0  0  0  0  0  0  0  0  0  0  0  0
   17.4119  -14.3180  -16.9381 C   0  0  1  0  0  0  0  0  0  0  0  0
   17.8117  -12.9226  -17.2537 C   0  0  0  0  0  0  0  0  0  0  0  0
   18.4999  -12.6479  -18.2730 O   0  0  0  0  0  0  0  0  0  0  0  0
   15.8337   -9.8746  -17.9521 C   0  0  0  0  0  0  0  0  0  0  0  0
   16.5422   -9.5849  -16.6324 C   0  0  1  0  0  0  0  0  0  0  0  0
   15.7076   -9.7550  -15.5548 O   0  0  0  0  0  0  0  0  0  0  0  0
   17.7715  -10.4998  -16.5654 C   0  0  2  0  0  0  0  0  0  0  0  0
   17.4198  -11.8723  -16.4028 N   0  0  0  0  0  0  0  0  0  0  0  0
   18.7066  -10.0021  -15.5272 C   0  0  0  0  0  0  0  0  0  0  0  0
   18.5103  -10.3824  -14.3463 O   0  0  0  0  0  0  0  0  0  0  0  0
   24.0686  -10.4383  -13.6072 C   0  0  0  0  0  0  0  0  0  0  0  0
   22.9919   -9.3937  -13.6966 C   0  0  0  0  0  0  0  0  0  0  0  0
   21.9592   -9.6076  -14.7192 C   0  0  2  0  0  0  0  0  0  0  0  0
   22.6558   -9.6656  -16.1053 C   0  0  0  0  0  0  0  0  0  0  0  0
   20.7644   -8.7569  -14.7665 C   0  0  2  0  0  0  0  0  0  0  0  0
   19.7915   -9.1377  -15.7783 N   0  0  0  0  0  0  0  0  0  0  0  0
   21.0529   -7.3321  -14.8866 C   0  0  0  0  0  0  0  0  0  0  0  0
   21.6090   -6.6580  -13.7981 O   0  0  0  0  0  0  0  0  0  0  0  0
   20.7998   -6.7082  -15.9685 O   0  0  0  0  0  0  0  0  0  0  0  0
  1  2  1  0
  2  3  1  0
  4  3  1  0
  5  4  1  0
  5  1  1  0
  6  7  2  0
  5  6  1  6
  9  8  1  6
  9 11  1  0
 10  9  1  0
 11 12  1  1
 11 13  1  0
 12  6  1  0
 13 20  1  0
 14 13  2  0
 16 15  1  0
 17 18  1  6
 17 16  1  0
 19 21  1  0
 19 17  1  0
 19 20  1  6
 21 22  1  0
 23 21  2  0
M  END
$$$$
