PTI.pdb
     RDKit          3D

 23 23  0  0  1  0  0  0  0  0999 V2000
   27.0099  -22.9636  -15.9716 N   0  0  0  0  0  0  0  0  0  0  0  0
   27.2896  -23.4101  -17.3382 C   0  0  0  0  0  0  0  0  0  0  0  0
   27.3985  -22.0830  -18.0664 C   0  0  0  0  0  0  0  0  0  0  0  0
   28.1854  -21.2478  -17.0868 C   0  0  0  0  0  0  0  0  0  0  0  0
   28.0041  -21.9562  -15.7783 C   0  0  1  0  0  0  0  0  0  0  0  0
   27.6331  -20.9720  -14.7293 C   0  0  0  0  0  0  0  0  0  0  0  0
   28.3113  -19.9279  -14.5348 O   0  0  0  0  0  0  0  0  0  0  0  0
   24.9359  -18.8792  -14.7045 C   0  0  0  0  0  0  0  0  0  0  0  0
   24.6475  -19.6578  -13.4245 C   0  0  1  0  0  0  0  0  0  0  0  0
   23.6611  -20.5961  -13.6068 O   0  0  0  0  0  0  0  0  0  0  0  0
   25.9697  -20.2860  -12.9664 C   0  0  2  0  0  0  0  0  0  0  0  0
   26.4997  -21.1981  -13.9261 N   0  0  0  0  0  0  0  0  0  0  0  0
   25.7979  -20.8800  -11.6183 C   0  0  0  0  0  0  0  0  0  0  0  0
   25.7249  -22.1318  -11.5462 O   0  0  0  0  0  0  0  0  0  0  0  0
   28.0718  -18.6361   -7.2086 C   0  0  0  0  0  0  0  0  0  0  0  0
   27.5837  -19.7946   -8.0321 C   0  0  0  0  0  0  0  0  0  0  0  0
   26.1374  -20.0510   -8.0042 C   0  0  2  0  0  0  0  0  0  0  0  0
   25.7926  -20.7296   -6.6512 C   0  0  0  0  0  0  0  0  0  0  0  0
   25.4769  -20.7377   -9.1201 C   0  0  2  0  0  0  0  0  0  0  0  0
   25.7122  -20.1367  -10.4234 N   0  0  0  0  0  0  0  0  0  0  0  0
   24.0441  -20.9364   -8.9320 C   0  0  0  0  0  0  0  0  0  0  0  0
   23.1487  -20.1971   -9.7066 O   0  0  0  0  0  0  0  0  0  0  0  0
   23.6128  -21.7715   -8.0715 O   0  0  0  0  0  0  0  0  0  0  0  0
  1  2  1  0
  2  3  1  0
  4  3  1  0
  5  4  1  0
  5  1  1  0
  6  7  2  0
  5  6  1  1
  9  8  1  6
  9 11  1  0
 10  9  1  0
 11 12  1  6
 11 13  1  0
 12  6  1  0
 13 20  1  0
 14 13  2  0
 16 15  1  0
 17 18  1  1
 17 16  1  0
 19 21  1  0
 19 17  1  0
 19 20  1  6
 21 22  1  0
 23 21  2  0
M  END
$$$$
