PTI.pdb
     RDKit          3D

 23 23  0  0  1  0  0  0  0  0999 V2000
   20.7876  -13.9516  -18.2775 N   0  0  0  0  0  0  0  0  0  0  0  0
   21.6366  -15.0295  -18.7897 C   0  0  0  0  0  0  0  0  0  0  0  0
   22.4708  -14.2862  -19.8167 C   0  0  0  0  0  0  0  0  0  0  0  0
   22.7842  -12.9975  -19.0974 C   0  0  0  0  0  0  0  0  0  0  0  0
   21.7398  -12.9170  -18.0253 C   0  0  1  0  0  0  0  0  0  0  0  0
   21.1334  -11.5610  -18.0251 C   0  0  0  0  0  0  0  0  0  0  0  0
   20.6420  -11.0578  -19.0707 O   0  0  0  0  0  0  0  0  0  0  0  0
   18.9849  -10.4510  -14.9837 C   0  0  0  0  0  0  0  0  0  0  0  0
   19.0346   -9.6052  -16.2524 C   0  0  1  0  0  0  0  0  0  0  0  0
   18.4769   -8.3643  -16.0631 O   0  0  0  0  0  0  0  0  0  0  0  0
   20.5034   -9.5221  -16.6867 C   0  0  2  0  0  0  0  0  0  0  0  0
   21.0999  -10.8088  -16.8360 N   0  0  0  0  0  0  0  0  0  0  0  0
   21.2458   -8.6298  -15.7634 C   0  0  0  0  0  0  0  0  0  0  0  0
   21.7342   -9.1497  -14.7295 O   0  0  0  0  0  0  0  0  0  0  0  0
   25.5833   -4.5571  -16.5464 C   0  0  0  0  0  0  0  0  0  0  0  0
   24.5145   -5.0057  -15.5900 C   0  0  0  0  0  0  0  0  0  0  0  0
   23.4600   -5.8639  -16.1464 C   0  0  2  0  0  0  0  0  0  0  0  0
   22.7980   -5.1103  -17.3312 C   0  0  0  0  0  0  0  0  0  0  0  0
   22.4455   -6.4654  -15.2733 C   0  0  2  0  0  0  0  0  0  0  0  0
   21.4368   -7.2484  -15.9696 N   0  0  0  0  0  0  0  0  0  0  0  0
   21.7887   -5.5155  -14.3822 C   0  0  0  0  0  0  0  0  0  0  0  0
   22.5161   -4.9573  -13.3298 O   0  0  0  0  0  0  0  0  0  0  0  0
   20.5668   -5.1993  -14.5585 O   0  0  0  0  0  0  0  0  0  0  0  0
  1  2  1  0
  2  3  1  0
  4  3  1  0
  5  4  1  0
  5  1  1  0
  6  7  2  0
  5  6  1  6
  9  8  1  1
  9 11  1  0
 10  9  1  0
 11 12  1  1
 11 13  1  0
 12  6  1  0
 13 20  1  0
 14 13  2  0
 16 15  1  0
 17 18  1  6
 17 16  1  0
 19 21  1  0
 19 17  1  0
 19 20  1  6
 21 22  1  0
 23 21  2  0
M  END
$$$$
