PTI.pdb
     RDKit          3D

 23 23  0  0  1  0  0  0  0  0999 V2000
   18.6276  -15.2578  -18.2691 N   0  0  0  0  0  0  0  0  0  0  0  0
   18.2675  -16.5694  -18.8123 C   0  0  0  0  0  0  0  0  0  0  0  0
   18.9785  -16.5397  -20.1527 C   0  0  0  0  0  0  0  0  0  0  0  0
   20.3042  -15.9149  -19.7943 C   0  0  0  0  0  0  0  0  0  0  0  0
   20.0378  -15.2197  -18.4933 C   0  0  1  0  0  0  0  0  0  0  0  0
   20.5766  -13.8366  -18.5513 C   0  0  0  0  0  0  0  0  0  0  0  0
   21.7929  -13.6119  -18.7924 O   0  0  0  0  0  0  0  0  0  0  0  0
   19.4001  -11.1411  -20.7821 C   0  0  0  0  0  0  0  0  0  0  0  0
   19.1822  -10.5802  -19.3801 C   0  0  1  0  0  0  0  0  0  0  0  0
   17.8621  -10.6373  -19.0049 O   0  0  0  0  0  0  0  0  0  0  0  0
   20.0914  -11.3678  -18.4285 C   0  0  2  0  0  0  0  0  0  0  0  0
   19.7198  -12.7414  -18.3338 N   0  0  0  0  0  0  0  0  0  0  0  0
   20.1530  -10.6802  -17.1157 C   0  0  0  0  0  0  0  0  0  0  0  0
   19.3283  -11.0392  -16.2390 O   0  0  0  0  0  0  0  0  0  0  0  0
   23.8419  -11.2321  -13.7419 C   0  0  0  0  0  0  0  0  0  0  0  0
   22.5685  -10.8974  -14.4664 C   0  0  0  0  0  0  0  0  0  0  0  0
   22.2878   -9.4692  -14.6656 C   0  0  2  0  0  0  0  0  0  0  0  0
   22.2717   -8.7808  -13.2743 C   0  0  0  0  0  0  0  0  0  0  0  0
   21.1457   -9.0368  -15.4793 C   0  0  2  0  0  0  0  0  0  0  0  0
   21.0691   -9.6589  -16.7917 N   0  0  0  0  0  0  0  0  0  0  0  0
   21.0321   -7.5898  -15.6238 C   0  0  0  0  0  0  0  0  0  0  0  0
   20.4880   -6.8437  -14.5771 O   0  0  0  0  0  0  0  0  0  0  0  0
   21.4215   -7.0122  -16.6909 O   0  0  0  0  0  0  0  0  0  0  0  0
  1  2  1  0
  2  3  1  0
  4  3  1  0
  5  4  1  0
  5  1  1  0
  6  7  2  0
  5  6  1  6
  9  8  1  6
  9 11  1  0
 10  9  1  0
 11 12  1  1
 11 13  1  0
 12  6  1  0
 13 20  1  0
 14 13  2  0
 16 15  1  0
 17 18  1  1
 17 16  1  0
 19 21  1  0
 19 17  1  0
 19 20  1  6
 21 22  1  0
 23 21  2  0
M  END
$$$$
