YRI.pdb
     RDKit          3D

 32 32  0  0  1  0  0  0  0  0999 V2000
   11.5372  -22.2581   28.2452 O   0  0  0  0  0  0  0  0  0  0  0  0
   11.7343  -21.0012   27.6476 C   0  0  0  0  0  0  0  0  0  0  0  0
   12.9995  -20.4894   27.4656 C   0  0  0  0  0  0  0  0  0  0  0  0
   13.2372  -19.2575   26.8823 C   0  0  0  0  0  0  0  0  0  0  0  0
   12.1735  -18.4898   26.4561 C   0  0  0  0  0  0  0  0  0  0  0  0
   12.3932  -17.1608   25.8291 C   0  0  0  0  0  0  0  0  0  0  0  0
   12.3689  -17.3766   24.3372 C   0  0  2  0  0  0  0  0  0  0  0  0
   13.7002  -17.5535   23.8464 N   0  0  0  0  0  0  0  0  0  0  0  0
   11.6164  -16.3283   23.6089 C   0  0  0  0  0  0  0  0  0  0  0  0
   12.0982  -15.1649   23.5006 O   0  0  0  0  0  0  0  0  0  0  0  0
   10.8914  -19.0088   26.6407 C   0  0  0  0  0  0  0  0  0  0  0  0
   10.6780  -20.2329   27.2216 C   0  0  0  0  0  0  0  0  0  0  0  0
    7.6017  -13.0483   18.6976 N   0  0  0  0  0  0  0  0  0  0  0  0
    7.9032  -14.0461   17.7295 C   0  0  0  0  0  0  0  0  0  0  0  0
    8.2222  -13.6832   16.5407 N   0  0  0  0  0  0  0  0  0  0  0  0
    7.8580  -15.4312   18.0467 N   0  0  0  0  0  0  0  0  0  0  0  0
    7.6301  -15.8884   19.4137 C   0  0  0  0  0  0  0  0  0  0  0  0
    8.6489  -15.2903   20.3699 C   0  0  0  0  0  0  0  0  0  0  0  0
    8.4093  -15.9286   21.7039 C   0  0  0  0  0  0  0  0  0  0  0  0
    9.3641  -15.5470   22.7802 C   0  0  2  0  0  0  0  0  0  0  0  0
   10.3651  -16.5643   23.0185 N   0  0  0  0  0  0  0  0  0  0  0  0
    8.5253  -15.3553   24.0192 C   0  0  0  0  0  0  0  0  0  0  0  0
    8.4564  -16.3291   24.8054 O   0  0  0  0  0  0  0  0  0  0  0  0
    8.4503  -14.4014   15.8285 C   0  0  0  0  0  0  0  0  0  0  0  0
    7.1911  -10.2595   25.4684 C   0  0  0  0  0  0  0  0  0  0  0  0
    7.6426  -11.6602   25.6979 C   0  0  2  0  0  0  0  0  0  0  0  0
    6.5918  -12.7062   25.7008 C   0  0  0  0  0  0  0  0  0  0  0  0
    5.4959  -12.4982   26.7260 C   0  0  2  0  0  0  0  0  0  0  0  0
    7.0581  -14.0973   25.5440 N   0  0  0  0  0  0  0  0  0  0  0  0
    7.8537  -14.1600   24.2908 C   0  0  0  0  0  0  0  0  0  0  0  0
    6.0596  -15.1684   25.5481 O   0  0  0  0  0  0  0  0  0  0  0  0
    5.5004  -15.6813   24.5540 O   0  0  0  0  0  0  0  0  0  0  0  0
  2  3  2  0
  2  1  1  0
  4  3  1  0
  5  4  2  0
  6  5  1  0
  7  6  1  0
  7  8  1  6
  9 21  1  0
  9  7  1  0
 10  9  2  0
 11  5  1  0
 11 12  2  0
 12  2  1  0
 14 13  1  0
 15 14  2  0
 16 14  1  0
 17 16  1  0
 18 17  1  0
 18 19  1  0
 20 19  1  6
 20 22  1  0
 20 21  1  0
 22 23  2  0
 24 25  1  0
 26 25  1  0
 26 27  1  6
 28 26  1  0
 29 22  1  0
 28 29  1  1
 30 32  1  0
 30 28  1  0
 31 30  2  0
M  END
$$$$
