YRI.pdb
     RDKit          3D

 32 32  0  0  1  0  0  0  0  0999 V2000
    9.4390  -13.5358   15.4058 O   0  0  0  0  0  0  0  0  0  0  0  0
    8.9139  -13.7210   16.6964 C   0  0  0  0  0  0  0  0  0  0  0  0
    9.4318  -14.6724   17.5465 C   0  0  0  0  0  0  0  0  0  0  0  0
    8.9446  -14.8869   18.8235 C   0  0  0  0  0  0  0  0  0  0  0  0
    7.8929  -14.1247   19.2877 C   0  0  0  0  0  0  0  0  0  0  0  0
    7.3432  -14.3315   20.6524 C   0  0  0  0  0  0  0  0  0  0  0  0
    6.8432  -15.7528   20.7071 C   0  0  2  0  0  0  0  0  0  0  0  0
    5.7743  -15.9320   19.7743 N   0  0  0  0  0  0  0  0  0  0  0  0
    6.4977  -16.1967   22.0779 C   0  0  0  0  0  0  0  0  0  0  0  0
    5.4972  -15.7001   22.6692 O   0  0  0  0  0  0  0  0  0  0  0  0
    7.3683  -13.1605   18.4259 C   0  0  0  0  0  0  0  0  0  0  0  0
    7.8664  -12.9643   17.1631 C   0  0  0  0  0  0  0  0  0  0  0  0
    8.1203  -20.5503   29.0204 N   0  0  0  0  0  0  0  0  0  0  0  0
    7.1644  -21.3546   28.3398 C   0  0  0  0  0  0  0  0  0  0  0  0
    6.3606  -22.0812   29.0273 N   0  0  0  0  0  0  0  0  0  0  0  0
    7.0803  -21.3735   26.9207 N   0  0  0  0  0  0  0  0  0  0  0  0
    8.0126  -20.6114   26.0963 C   0  0  0  0  0  0  0  0  0  0  0  0
    7.5856  -19.1571   25.9854 C   0  0  0  0  0  0  0  0  0  0  0  0
    7.5142  -18.8429   24.5224 C   0  0  0  0  0  0  0  0  0  0  0  0
    7.0960  -17.4554   24.1822 C   0  0  2  0  0  0  0  0  0  0  0  0
    7.2416  -17.1632   22.7725 N   0  0  0  0  0  0  0  0  0  0  0  0
    7.9950  -16.5503   24.9871 C   0  0  0  0  0  0  0  0  0  0  0  0
    9.1997  -16.5076   24.6436 O   0  0  0  0  0  0  0  0  0  0  0  0
    5.6740  -22.6877   28.5417 C   0  0  0  0  0  0  0  0  0  0  0  0
    6.3054  -11.8293   26.2381 C   0  0  0  0  0  0  0  0  0  0  0  0
    7.2979  -12.8972   25.9326 C   0  0  2  0  0  0  0  0  0  0  0  0
    7.8324  -13.6589   27.0869 C   0  0  0  0  0  0  0  0  0  0  0  0
    8.5051  -12.8109   28.1467 C   0  0  2  0  0  0  0  0  0  0  0  0
    8.5080  -14.9318   26.7696 N   0  0  0  0  0  0  0  0  0  0  0  0
    7.5244  -15.7922   26.0629 C   0  0  0  0  0  0  0  0  0  0  0  0
    9.1222  -15.6833   27.8660 O   0  0  0  0  0  0  0  0  0  0  0  0
    8.6943  -16.7342   28.3920 O   0  0  0  0  0  0  0  0  0  0  0  0
  2  3  2  0
  2  1  1  0
  4  3  1  0
  5  4  2  0
  6  5  1  0
  7  6  1  0
  7  8  1  6
  9 21  1  0
  9  7  1  0
 10  9  2  0
 11  5  1  0
 11 12  2  0
 12  2  1  0
 14 13  1  0
 15 14  2  0
 16 14  1  0
 17 16  1  0
 18 17  1  0
 18 19  1  0
 20 19  1  6
 20 22  1  0
 20 21  1  0
 22 23  2  0
 24 25  1  0
 26 25  1  0
 26 27  1  1
 28 26  1  0
 29 22  1  0
 28 29  1  6
 30 32  1  0
 30 28  1  0
 31 30  2  0
M  END
$$$$
