YRI.pdb
     RDKit          3D

 32 32  0  0  1  0  0  0  0  0999 V2000
    6.3432  -11.0184   25.4294 O   0  0  0  0  0  0  0  0  0  0  0  0
    6.1918  -12.4118   25.5345 C   0  0  0  0  0  0  0  0  0  0  0  0
    7.0938  -13.2726   24.9502 C   0  0  0  0  0  0  0  0  0  0  0  0
    6.9815  -14.6492   25.0296 C   0  0  0  0  0  0  0  0  0  0  0  0
    5.9262  -15.2074   25.7205 C   0  0  0  0  0  0  0  0  0  0  0  0
    5.7738  -16.6817   25.8221 C   0  0  0  0  0  0  0  0  0  0  0  0
    6.2637  -17.2586   24.5182 C   0  0  2  0  0  0  0  0  0  0  0  0
    5.7817  -18.5959   24.3627 N   0  0  0  0  0  0  0  0  0  0  0  0
    7.7312  -17.1470   24.3463 C   0  0  0  0  0  0  0  0  0  0  0  0
    8.5048  -17.8672   25.0391 O   0  0  0  0  0  0  0  0  0  0  0  0
    5.0123  -14.3347   26.3126 C   0  0  0  0  0  0  0  0  0  0  0  0
    5.1423  -12.9723   26.2215 C   0  0  0  0  0  0  0  0  0  0  0  0
   13.3328  -13.5378   19.0736 N   0  0  0  0  0  0  0  0  0  0  0  0
   13.8254  -14.6701   19.7801 C   0  0  0  0  0  0  0  0  0  0  0  0
   15.0062  -14.6257   20.2805 N   0  0  0  0  0  0  0  0  0  0  0  0
   13.0434  -15.8462   19.9429 N   0  0  0  0  0  0  0  0  0  0  0  0
   11.6467  -15.7756   20.3600 C   0  0  0  0  0  0  0  0  0  0  0  0
   11.5118  -15.1027   21.7160 C   0  0  0  0  0  0  0  0  0  0  0  0
   10.0660  -15.1952   22.0972 C   0  0  0  0  0  0  0  0  0  0  0  0
    9.7354  -16.2239   23.1210 C   0  0  2  0  0  0  0  0  0  0  0  0
    8.3228  -16.2612   23.4323 N   0  0  0  0  0  0  0  0  0  0  0  0
   10.5198  -15.8407   24.3511 C   0  0  0  0  0  0  0  0  0  0  0  0
   10.6507  -14.6140   24.5726 O   0  0  0  0  0  0  0  0  0  0  0  0
   15.3521  -15.4192   20.8512 C   0  0  0  0  0  0  0  0  0  0  0  0
   10.4972  -12.8221   27.1056 C   0  0  0  0  0  0  0  0  0  0  0  0
   11.1813  -13.9118   26.3551 C   0  0  2  0  0  0  0  0  0  0  0  0
   11.2389  -15.2389   27.0137 C   0  0  0  0  0  0  0  0  0  0  0  0
   11.4768  -15.1924   28.5091 C   0  0  2  0  0  0  0  0  0  0  0  0
   11.9708  -16.2943   26.2874 N   0  0  0  0  0  0  0  0  0  0  0  0
   11.0778  -16.7922   25.2095 C   0  0  0  0  0  0  0  0  0  0  0  0
   12.4976  -17.4259   27.0531 O   0  0  0  0  0  0  0  0  0  0  0  0
   12.0762  -18.6034   27.0443 O   0  0  0  0  0  0  0  0  0  0  0  0
  2  3  2  0
  2  1  1  0
  4  3  1  0
  5  4  2  0
  6  5  1  0
  7  6  1  0
  7  8  1  1
  9 21  1  0
  9  7  1  0
 10  9  2  0
 11  5  1  0
 11 12  2  0
 12  2  1  0
 14 13  1  0
 15 14  2  0
 16 14  1  0
 17 16  1  0
 18 17  1  0
 18 19  1  0
 20 19  1  6
 20 22  1  0
 20 21  1  0
 22 23  2  0
 24 25  1  0
 26 25  1  0
 26 27  1  6
 28 26  1  0
 29 22  1  0
 28 29  1  6
 30 32  1  0
 30 28  1  0
 31 30  2  0
M  END
$$$$
