YRI.pdb
     RDKit          3D

 32 32  0  0  1  0  0  0  0  0999 V2000
   -1.2772  -21.0227   20.7088 O   0  0  0  0  0  0  0  0  0  0  0  0
   -0.1333  -20.5686   21.3878 C   0  0  0  0  0  0  0  0  0  0  0  0
    0.2605  -21.1364   22.5788 C   0  0  0  0  0  0  0  0  0  0  0  0
    1.3788  -20.7196   23.2787 C   0  0  0  0  0  0  0  0  0  0  0  0
    2.1494  -19.6901   22.7798 C   0  0  0  0  0  0  0  0  0  0  0  0
    3.3544  -19.2155   23.5078 C   0  0  0  0  0  0  0  0  0  0  0  0
    4.5504  -19.7275   22.7457 C   0  0  2  0  0  0  0  0  0  0  0  0
    4.8497  -21.0670   23.1466 N   0  0  0  0  0  0  0  0  0  0  0  0
    5.7216  -18.8231   22.8231 C   0  0  0  0  0  0  0  0  0  0  0  0
    6.5834  -18.9823   23.7337 O   0  0  0  0  0  0  0  0  0  0  0  0
    1.7500  -19.1150   21.5727 C   0  0  0  0  0  0  0  0  0  0  0  0
    0.6373  -19.5436   20.8948 C   0  0  0  0  0  0  0  0  0  0  0  0
    9.1038  -11.2845   19.2264 N   0  0  0  0  0  0  0  0  0  0  0  0
    9.8542  -12.4867   19.1019 C   0  0  0  0  0  0  0  0  0  0  0  0
   11.1359  -12.4232   19.1072 N   0  0  0  0  0  0  0  0  0  0  0  0
    9.2197  -13.7521   18.9707 N   0  0  0  0  0  0  0  0  0  0  0  0
    7.9317  -14.0228   19.6010 C   0  0  0  0  0  0  0  0  0  0  0  0
    8.1032  -14.8332   20.8752 C   0  0  0  0  0  0  0  0  0  0  0  0
    6.9401  -15.7749   20.9428 C   0  0  0  0  0  0  0  0  0  0  0  0
    7.0317  -16.8365   21.9822 C   0  0  2  0  0  0  0  0  0  0  0  0
    5.9297  -17.7720   21.9166 N   0  0  0  0  0  0  0  0  0  0  0  0
    7.0098  -16.1133   23.3057 C   0  0  0  0  0  0  0  0  0  0  0  0
    6.1268  -15.2354   23.4502 O   0  0  0  0  0  0  0  0  0  0  0  0
   11.6932  -13.2870   18.9722 C   0  0  0  0  0  0  0  0  0  0  0  0
    6.9301  -12.4658   26.4535 C   0  0  0  0  0  0  0  0  0  0  0  0
    7.4471  -13.7621   26.9740 C   0  0  2  0  0  0  0  0  0  0  0  0
    7.2578  -14.9502   26.1075 C   0  0  0  0  0  0  0  0  0  0  0  0
    6.6350  -16.1449   26.8003 C   0  0  2  0  0  0  0  0  0  0  0  0
    8.3613  -15.2600   25.1782 N   0  0  0  0  0  0  0  0  0  0  0  0
    7.9200  -16.3958   24.3282 C   0  0  0  0  0  0  0  0  0  0  0  0
    9.6818  -15.5494   25.7408 O   0  0  0  0  0  0  0  0  0  0  0  0
   10.2413  -16.6654   25.8153 O   0  0  0  0  0  0  0  0  0  0  0  0
  2  3  2  0
  2  1  1  0
  4  3  1  0
  5  4  2  0
  6  5  1  0
  7  6  1  0
  7  8  1  1
  9 21  1  0
  9  7  1  0
 10  9  2  0
 11  5  1  0
 11 12  2  0
 12  2  1  0
 14 13  1  0
 15 14  2  0
 16 14  1  0
 17 16  1  0
 18 17  1  0
 18 19  1  0
 20 19  1  6
 20 22  1  0
 20 21  1  0
 22 23  2  0
 24 25  1  0
 26 25  1  0
 26 27  1  6
 28 26  1  0
 29 22  1  0
 28 29  1  1
 30 32  1  0
 30 28  1  0
 31 30  2  0
M  END
$$$$
