YRI.pdb
     RDKit          3D

 32 32  0  0  1  0  0  0  0  0999 V2000
    7.8794  -12.4471   15.9287 O   0  0  0  0  0  0  0  0  0  0  0  0
    7.7074  -12.9777   17.2189 C   0  0  0  0  0  0  0  0  0  0  0  0
    7.1569  -14.2255   17.4084 C   0  0  0  0  0  0  0  0  0  0  0  0
    6.9701  -14.7843   18.6602 C   0  0  0  0  0  0  0  0  0  0  0  0
    7.3450  -14.0776   19.7838 C   0  0  0  0  0  0  0  0  0  0  0  0
    7.1551  -14.6467   21.1430 C   0  0  0  0  0  0  0  0  0  0  0  0
    8.4734  -15.2580   21.5446 C   0  0  2  0  0  0  0  0  0  0  0  0
    8.9036  -16.1910   20.5500 N   0  0  0  0  0  0  0  0  0  0  0  0
    8.4576  -15.8321   22.9106 C   0  0  0  0  0  0  0  0  0  0  0  0
    8.1221  -15.1129   23.8941 O   0  0  0  0  0  0  0  0  0  0  0  0
    7.9029  -12.8131   19.5914 C   0  0  0  0  0  0  0  0  0  0  0  0
    8.0792  -12.2775   18.3410 C   0  0  0  0  0  0  0  0  0  0  0  0
   10.8655  -22.2950   21.3380 N   0  0  0  0  0  0  0  0  0  0  0  0
   11.1244  -22.8183   22.6354 C   0  0  0  0  0  0  0  0  0  0  0  0
   10.9292  -24.0679   22.8524 N   0  0  0  0  0  0  0  0  0  0  0  0
   11.5912  -21.9918   23.6938 N   0  0  0  0  0  0  0  0  0  0  0  0
   11.6281  -20.5390   23.5607 C   0  0  0  0  0  0  0  0  0  0  0  0
   10.5528  -19.8822   24.4105 C   0  0  0  0  0  0  0  0  0  0  0  0
   10.6577  -18.4075   24.1681 C   0  0  0  0  0  0  0  0  0  0  0  0
    9.4133  -17.6264   24.4064 C   0  0  2  0  0  0  0  0  0  0  0  0
    8.8048  -17.1657   23.1770 N   0  0  0  0  0  0  0  0  0  0  0  0
    9.8294  -16.4437   25.2451 C   0  0  0  0  0  0  0  0  0  0  0  0
   10.8374  -15.8081   24.8565 O   0  0  0  0  0  0  0  0  0  0  0  0
   11.0401  -24.4458   23.8115 C   0  0  0  0  0  0  0  0  0  0  0  0
    7.0925  -12.4273   26.5369 C   0  0  0  0  0  0  0  0  0  0  0  0
    8.1632  -13.4377   26.3103 C   0  0  2  0  0  0  0  0  0  0  0  0
    8.8352  -13.9772   27.5168 C   0  0  0  0  0  0  0  0  0  0  0  0
    9.2689  -12.9288   28.5207 C   0  0  2  0  0  0  0  0  0  0  0  0
    9.7954  -15.0746   27.2907 N   0  0  0  0  0  0  0  0  0  0  0  0
    9.1373  -16.0633   26.3983 C   0  0  0  0  0  0  0  0  0  0  0  0
   10.3538  -15.7595   28.4583 O   0  0  0  0  0  0  0  0  0  0  0  0
   11.2101  -15.3157   29.2544 O   0  0  0  0  0  0  0  0  0  0  0  0
  2  3  2  0
  2  1  1  0
  4  3  1  0
  5  4  2  0
  6  5  1  0
  7  6  1  0
  7  8  1  6
  9 21  1  0
  9  7  1  0
 10  9  2  0
 11  5  1  0
 11 12  2  0
 12  2  1  0
 14 13  1  0
 15 14  2  0
 16 14  1  0
 17 16  1  0
 18 17  1  0
 18 19  1  0
 20 19  1  6
 20 22  1  0
 20 21  1  0
 22 23  2  0
 24 25  1  0
 26 25  1  0
 26 27  1  1
 28 26  1  0
 29 22  1  0
 28 29  1  6
 30 32  1  0
 30 28  1  0
 31 30  2  0
M  END
$$$$
