YRI.pdb
     RDKit          3D

 32 32  0  0  1  0  0  0  0  0999 V2000
    3.0132  -25.9530   27.3024 O   0  0  0  0  0  0  0  0  0  0  0  0
    3.7333  -24.7512   27.1893 C   0  0  0  0  0  0  0  0  0  0  0  0
    4.8880  -24.5420   27.9096 C   0  0  0  0  0  0  0  0  0  0  0  0
    5.6260  -23.3746   27.8276 C   0  0  0  0  0  0  0  0  0  0  0  0
    5.2050  -22.3605   26.9927 C   0  0  0  0  0  0  0  0  0  0  0  0
    5.9719  -21.0927   26.8837 C   0  0  0  0  0  0  0  0  0  0  0  0
    6.7074  -21.1432   25.5686 C   0  0  2  0  0  0  0  0  0  0  0  0
    7.6931  -22.1787   25.5985 N   0  0  0  0  0  0  0  0  0  0  0  0
    7.2574  -19.8302   25.1576 C   0  0  0  0  0  0  0  0  0  0  0  0
    8.3912  -19.4611   25.5767 O   0  0  0  0  0  0  0  0  0  0  0  0
    4.0348  -22.5729   26.2628 C   0  0  0  0  0  0  0  0  0  0  0  0
    3.3178  -23.7383   26.3592 C   0  0  0  0  0  0  0  0  0  0  0  0
    3.4642  -19.6753   21.4445 N   0  0  0  0  0  0  0  0  0  0  0  0
    3.8353  -19.5554   20.0763 C   0  0  0  0  0  0  0  0  0  0  0  0
    3.4339  -20.4446   19.2427 N   0  0  0  0  0  0  0  0  0  0  0  0
    4.6389  -18.4781   19.6129 N   0  0  0  0  0  0  0  0  0  0  0  0
    5.2425  -17.5287   20.5424 C   0  0  0  0  0  0  0  0  0  0  0  0
    5.8672  -18.2435   21.7292 C   0  0  0  0  0  0  0  0  0  0  0  0
    6.3990  -17.1782   22.6384 C   0  0  0  0  0  0  0  0  0  0  0  0
    7.0685  -17.6641   23.8759 C   0  0  2  0  0  0  0  0  0  0  0  0
    6.5686  -18.9519   24.3066 N   0  0  0  0  0  0  0  0  0  0  0  0
    6.7790  -16.6249   24.9302 C   0  0  0  0  0  0  0  0  0  0  0  0
    5.6201  -16.6190   25.4079 O   0  0  0  0  0  0  0  0  0  0  0  0
    3.7832  -20.4281   18.2666 C   0  0  0  0  0  0  0  0  0  0  0  0
   10.4480  -15.6615   27.7897 C   0  0  0  0  0  0  0  0  0  0  0  0
    9.0220  -15.2879   28.0031 C   0  0  2  0  0  0  0  0  0  0  0  0
    8.4650  -14.2477   27.1053 C   0  0  0  0  0  0  0  0  0  0  0  0
    8.3990  -12.8603   27.7101 C   0  0  2  0  0  0  0  0  0  0  0  0
    7.2956  -14.6439   26.2974 N   0  0  0  0  0  0  0  0  0  0  0  0
    7.7421  -15.7091   25.3628 C   0  0  0  0  0  0  0  0  0  0  0  0
    6.5811  -13.6040   25.5543 O   0  0  0  0  0  0  0  0  0  0  0  0
    6.6844  -13.3424   24.3357 O   0  0  0  0  0  0  0  0  0  0  0  0
  2  3  2  0
  2  1  1  0
  4  3  1  0
  5  4  2  0
  6  5  1  0
  7  6  1  0
  7  8  1  1
  9 21  1  0
  9  7  1  0
 10  9  2  0
 11  5  1  0
 11 12  2  0
 12  2  1  0
 14 13  1  0
 15 14  2  0
 16 14  1  0
 17 16  1  0
 18 17  1  0
 18 19  1  0
 20 19  1  6
 20 22  1  0
 20 21  1  0
 22 23  2  0
 24 25  1  0
 26 25  1  0
 26 27  1  6
 28 26  1  0
 29 22  1  0
 28 29  1  1
 30 32  1  0
 30 28  1  0
 31 30  2  0
M  END
$$$$
