YRI.pdb
     RDKit          3D

 32 32  0  0  1  0  0  0  0  0999 V2000
    9.4847  -13.7190   15.8570 O   0  0  0  0  0  0  0  0  0  0  0  0
    8.8383  -13.9448   17.0845 C   0  0  0  0  0  0  0  0  0  0  0  0
    9.4518  -14.6541   18.0928 C   0  0  0  0  0  0  0  0  0  0  0  0
    8.8512  -14.8987   19.3149 C   0  0  0  0  0  0  0  0  0  0  0  0
    7.5805  -14.4198   19.5568 C   0  0  0  0  0  0  0  0  0  0  0  0
    6.9052  -14.6676   20.8568 C   0  0  0  0  0  0  0  0  0  0  0  0
    6.6615  -16.1530   20.9420 C   0  0  2  0  0  0  0  0  0  0  0  0
    5.6345  -16.5341   20.0229 N   0  0  0  0  0  0  0  0  0  0  0  0
    6.4074  -16.6236   22.3239 C   0  0  0  0  0  0  0  0  0  0  0  0
    5.2540  -16.5098   22.8278 O   0  0  0  0  0  0  0  0  0  0  0  0
    6.9591  -13.7010   18.5348 C   0  0  0  0  0  0  0  0  0  0  0  0
    7.5727  -13.4699   17.3300 C   0  0  0  0  0  0  0  0  0  0  0  0
    8.7770  -20.5295   29.1315 N   0  0  0  0  0  0  0  0  0  0  0  0
    8.3124  -21.3773   28.0877 C   0  0  0  0  0  0  0  0  0  0  0  0
    8.7110  -22.5965   28.0528 N   0  0  0  0  0  0  0  0  0  0  0  0
    7.4212  -20.9065   27.0850 N   0  0  0  0  0  0  0  0  0  0  0  0
    6.9964  -19.5110   27.0435 C   0  0  0  0  0  0  0  0  0  0  0  0
    8.1264  -18.6064   26.5802 C   0  0  0  0  0  0  0  0  0  0  0  0
    8.0164  -18.5147   25.0889 C   0  0  0  0  0  0  0  0  0  0  0  0
    7.3547  -17.2878   24.5671 C   0  0  2  0  0  0  0  0  0  0  0  0
    7.4049  -17.2031   23.1234 N   0  0  0  0  0  0  0  0  0  0  0  0
    8.1079  -16.1299   25.1733 C   0  0  0  0  0  0  0  0  0  0  0  0
    9.2690  -15.9309   24.7451 O   0  0  0  0  0  0  0  0  0  0  0  0
    8.3205  -23.2442   27.3435 C   0  0  0  0  0  0  0  0  0  0  0  0
    5.7311  -11.8608   28.2041 C   0  0  0  0  0  0  0  0  0  0  0  0
    6.4821  -13.1077   27.8884 C   0  0  2  0  0  0  0  0  0  0  0  0
    7.5006  -13.0174   26.8148 C   0  0  0  0  0  0  0  0  0  0  0  0
    7.0048  -12.3991   25.5237 C   0  0  1  0  0  0  0  0  0  0  0  0
    8.3869  -14.1867   26.6588 N   0  0  0  0  0  0  0  0  0  0  0  0
    7.5537  -15.3120   26.1620 C   0  0  0  0  0  0  0  0  0  0  0  0
    9.1673  -14.6254   27.8175 O   0  0  0  0  0  0  0  0  0  0  0  0
    9.0530  -15.7051   28.4383 O   0  0  0  0  0  0  0  0  0  0  0  0
  2  3  2  0
  2  1  1  0
  4  3  1  0
  5  4  2  0
  6  5  1  0
  7  6  1  0
  7  8  1  6
  9 21  1  0
  9  7  1  0
 10  9  2  0
 11  5  1  0
 11 12  2  0
 12  2  1  0
 14 13  1  0
 15 14  2  0
 16 14  1  0
 17 16  1  0
 18 17  1  0
 18 19  1  0
 20 19  1  6
 20 22  1  0
 20 21  1  0
 22 23  2  0
 24 25  1  0
 26 25  1  0
 26 27  1  1
 28 26  1  0
 29 22  1  0
 28 29  1  6
 30 32  1  0
 30 28  1  0
 31 30  2  0
M  END
$$$$
