YRI.pdb
     RDKit          3D

 32 32  0  0  1  0  0  0  0  0999 V2000
    8.7889  -14.4850   14.3107 O   0  0  0  0  0  0  0  0  0  0  0  0
    8.2898  -14.3757   15.6202 C   0  0  0  0  0  0  0  0  0  0  0  0
    7.5904  -15.4079   16.2045 C   0  0  0  0  0  0  0  0  0  0  0  0
    7.0826  -15.3412   17.4897 C   0  0  0  0  0  0  0  0  0  0  0  0
    7.2733  -14.1987   18.2385 C   0  0  0  0  0  0  0  0  0  0  0  0
    6.7382  -14.0925   19.6204 C   0  0  0  0  0  0  0  0  0  0  0  0
    7.7848  -14.6750   20.5360 C   0  0  2  0  0  0  0  0  0  0  0  0
    8.4725  -15.7417   19.8774 N   0  0  0  0  0  0  0  0  0  0  0  0
    7.2488  -15.0616   21.8623 C   0  0  0  0  0  0  0  0  0  0  0  0
    6.7142  -14.1907   22.6058 O   0  0  0  0  0  0  0  0  0  0  0  0
    7.9822  -13.1528   17.6460 C   0  0  0  0  0  0  0  0  0  0  0  0
    8.4773  -13.2397   16.3698 C   0  0  0  0  0  0  0  0  0  0  0  0
    8.5898  -20.7191   27.9530 N   0  0  0  0  0  0  0  0  0  0  0  0
    7.2372  -21.0878   27.7112 C   0  0  0  0  0  0  0  0  0  0  0  0
    6.5865  -21.7033   28.6301 N   0  0  0  0  0  0  0  0  0  0  0  0
    6.5924  -20.7929   26.4790 N   0  0  0  0  0  0  0  0  0  0  0  0
    7.3144  -20.1646   25.3774 C   0  0  0  0  0  0  0  0  0  0  0  0
    7.1083  -18.6589   25.3734 C   0  0  0  0  0  0  0  0  0  0  0  0
    7.1768  -18.2218   23.9421 C   0  0  0  0  0  0  0  0  0  0  0  0
    6.9778  -16.7660   23.7040 C   0  0  2  0  0  0  0  0  0  0  0  0
    7.3054  -16.3767   22.3494 N   0  0  0  0  0  0  0  0  0  0  0  0
    7.8971  -16.0656   24.6734 C   0  0  0  0  0  0  0  0  0  0  0  0
    9.1274  -16.1870   24.4664 O   0  0  0  0  0  0  0  0  0  0  0  0
    5.6256  -22.0427   28.4393 C   0  0  0  0  0  0  0  0  0  0  0  0
    5.9927  -11.4471   26.4795 C   0  0  0  0  0  0  0  0  0  0  0  0
    6.9492  -12.4667   25.9658 C   0  0  2  0  0  0  0  0  0  0  0  0
    7.6582  -13.2843   26.9793 C   0  0  0  0  0  0  0  0  0  0  0  0
    8.3695  -12.4846   28.0515 C   0  0  2  0  0  0  0  0  0  0  0  0
    8.3941  -14.4575   26.4699 N   0  0  0  0  0  0  0  0  0  0  0  0
    7.4176  -15.3161   25.7513 C   0  0  0  0  0  0  0  0  0  0  0  0
    9.1544  -15.2675   27.4238 O   0  0  0  0  0  0  0  0  0  0  0  0
   10.2425  -14.9717   27.9648 O   0  0  0  0  0  0  0  0  0  0  0  0
  2  3  2  0
  2  1  1  0
  4  3  1  0
  5  4  2  0
  6  5  1  0
  7  6  1  0
  7  8  1  6
  9 21  1  0
  9  7  1  0
 10  9  2  0
 11  5  1  0
 11 12  2  0
 12  2  1  0
 14 13  1  0
 15 14  2  0
 16 14  1  0
 17 16  1  0
 18 17  1  0
 18 19  1  0
 20 19  1  6
 20 22  1  0
 20 21  1  0
 22 23  2  0
 24 25  1  0
 26 25  1  0
 26 27  1  1
 28 26  1  0
 29 22  1  0
 28 29  1  6
 30 32  1  0
 30 28  1  0
 31 30  2  0
M  END
$$$$
