YRI.pdb
     RDKit          3D

 32 32  0  0  1  0  0  0  0  0999 V2000
    7.9793  -12.8124   16.1814 O   0  0  0  0  0  0  0  0  0  0  0  0
    7.6497  -13.2319   17.4818 C   0  0  0  0  0  0  0  0  0  0  0  0
    6.8953  -14.3638   17.6954 C   0  0  0  0  0  0  0  0  0  0  0  0
    6.5489  -14.8111   18.9580 C   0  0  0  0  0  0  0  0  0  0  0  0
    6.9673  -14.1072   20.0680 C   0  0  0  0  0  0  0  0  0  0  0  0
    6.6100  -14.5576   21.4379 C   0  0  0  0  0  0  0  0  0  0  0  0
    7.8653  -15.1288   22.0471 C   0  0  2  0  0  0  0  0  0  0  0  0
    8.4344  -16.1049   21.1708 N   0  0  0  0  0  0  0  0  0  0  0  0
    7.6666  -15.6326   23.4263 C   0  0  0  0  0  0  0  0  0  0  0  0
    7.2257  -14.8597   24.3238 O   0  0  0  0  0  0  0  0  0  0  0  0
    7.7319  -12.9601   19.8511 C   0  0  0  0  0  0  0  0  0  0  0  0
    8.0641  -12.5340   18.5903 C   0  0  0  0  0  0  0  0  0  0  0  0
    4.9311  -20.3013   22.8887 N   0  0  0  0  0  0  0  0  0  0  0  0
    5.6422  -21.4585   22.4655 C   0  0  0  0  0  0  0  0  0  0  0  0
    5.2357  -22.0932   21.4268 N   0  0  0  0  0  0  0  0  0  0  0  0
    6.7877  -21.9276   23.1647 N   0  0  0  0  0  0  0  0  0  0  0  0
    7.3854  -21.1517   24.2465 C   0  0  0  0  0  0  0  0  0  0  0  0
    7.1604  -19.6624   24.0436 C   0  0  0  0  0  0  0  0  0  0  0  0
    7.8498  -18.9674   25.1776 C   0  0  0  0  0  0  0  0  0  0  0  0
    7.8094  -17.4800   25.1402 C   0  0  2  0  0  0  0  0  0  0  0  0
    7.9499  -16.9559   23.7987 N   0  0  0  0  0  0  0  0  0  0  0  0
    8.9661  -17.0198   25.9922 C   0  0  0  0  0  0  0  0  0  0  0  0
   10.0971  -17.0255   25.4519 O   0  0  0  0  0  0  0  0  0  0  0  0
    5.7604  -22.9233   21.0944 C   0  0  0  0  0  0  0  0  0  0  0  0
    8.6781  -12.4805   27.9700 C   0  0  0  0  0  0  0  0  0  0  0  0
    9.1839  -13.7910   27.4747 C   0  0  2  0  0  0  0  0  0  0  0  0
    9.6985  -14.7347   28.4959 C   0  0  0  0  0  0  0  0  0  0  0  0
   10.7029  -14.1370   29.4597 C   0  0  2  0  0  0  0  0  0  0  0  0
   10.0055  -16.0990   28.0249 N   0  0  0  0  0  0  0  0  0  0  0  0
    8.8016  -16.6055   27.3169 C   0  0  0  0  0  0  0  0  0  0  0  0
   10.4520  -17.0883   29.0078 O   0  0  0  0  0  0  0  0  0  0  0  0
   11.5606  -17.1301   29.5851 O   0  0  0  0  0  0  0  0  0  0  0  0
  2  3  2  0
  2  1  1  0
  4  3  1  0
  5  4  2  0
  6  5  1  0
  7  6  1  0
  7  8  1  6
  9 21  1  0
  9  7  1  0
 10  9  2  0
 11  5  1  0
 11 12  2  0
 12  2  1  0
 14 13  1  0
 15 14  2  0
 16 14  1  0
 17 16  1  0
 18 17  1  0
 18 19  1  0
 20 19  1  6
 20 22  1  0
 20 21  1  0
 22 23  2  0
 24 25  1  0
 26 25  1  0
 26 27  1  1
 28 26  1  0
 29 22  1  0
 28 29  1  6
 30 32  1  0
 30 28  1  0
 31 30  2  0
M  END
$$$$
