YRI.pdb
     RDKit          3D

 32 32  0  0  1  0  0  0  0  0999 V2000
    4.8467   -9.1810   26.1525 O   0  0  0  0  0  0  0  0  0  0  0  0
    5.4640  -10.4433   26.1190 C   0  0  0  0  0  0  0  0  0  0  0  0
    6.5551  -10.6815   25.3136 C   0  0  0  0  0  0  0  0  0  0  0  0
    7.1917  -11.9083   25.2510 C   0  0  0  0  0  0  0  0  0  0  0  0
    6.7298  -12.9549   26.0215 C   0  0  0  0  0  0  0  0  0  0  0  0
    7.3877  -14.2862   25.9755 C   0  0  0  0  0  0  0  0  0  0  0  0
    6.6689  -15.0882   24.9203 C   0  0  2  0  0  0  0  0  0  0  0  0
    5.3558  -15.4277   25.3734 N   0  0  0  0  0  0  0  0  0  0  0  0
    7.4428  -16.2620   24.4525 C   0  0  0  0  0  0  0  0  0  0  0  0
    7.4797  -17.3139   25.1520 O   0  0  0  0  0  0  0  0  0  0  0  0
    5.6240  -12.7131   26.8377 C   0  0  0  0  0  0  0  0  0  0  0  0
    5.0075  -11.4887   26.8846 C   0  0  0  0  0  0  0  0  0  0  0  0
   12.7788  -20.0441   22.6575 N   0  0  0  0  0  0  0  0  0  0  0  0
   12.8426  -20.2353   21.2492 C   0  0  0  0  0  0  0  0  0  0  0  0
   13.8070  -20.9250   20.7581 N   0  0  0  0  0  0  0  0  0  0  0  0
   11.8674  -19.6807   20.3759 N   0  0  0  0  0  0  0  0  0  0  0  0
   10.7477  -18.8984   20.8898 C   0  0  0  0  0  0  0  0  0  0  0  0
   11.2030  -17.5222   21.3464 C   0  0  0  0  0  0  0  0  0  0  0  0
    9.9627  -16.7487   21.6746 C   0  0  0  0  0  0  0  0  0  0  0  0
    9.3473  -17.0506   22.9959 C   0  0  2  0  0  0  0  0  0  0  0  0
    8.1558  -16.2677   23.2435 N   0  0  0  0  0  0  0  0  0  0  0  0
   10.4011  -16.7156   24.0219 C   0  0  0  0  0  0  0  0  0  0  0  0
   11.1431  -15.7386   23.7647 O   0  0  0  0  0  0  0  0  0  0  0  0
   13.8906  -21.0314   19.7302 C   0  0  0  0  0  0  0  0  0  0  0  0
   11.1747  -14.5746   29.1317 C   0  0  0  0  0  0  0  0  0  0  0  0
   11.8438  -15.3223   28.0309 C   0  0  2  0  0  0  0  0  0  0  0  0
   10.9593  -15.9667   27.0305 C   0  0  0  0  0  0  0  0  0  0  0  0
    9.5766  -16.3161   27.5415 C   0  0  2  0  0  0  0  0  0  0  0  0
   11.5892  -16.9795   26.1618 N   0  0  0  0  0  0  0  0  0  0  0  0
   10.5550  -17.4469   25.2030 C   0  0  0  0  0  0  0  0  0  0  0  0
   12.2322  -18.1330   26.7943 O   0  0  0  0  0  0  0  0  0  0  0  0
   13.2622  -18.1267   27.5036 O   0  0  0  0  0  0  0  0  0  0  0  0
  2  3  2  0
  2  1  1  0
  4  3  1  0
  5  4  2  0
  6  5  1  0
  7  6  1  0
  7  8  1  1
  9 21  1  0
  9  7  1  0
 10  9  2  0
 11  5  1  0
 11 12  2  0
 12  2  1  0
 14 13  1  0
 15 14  2  0
 16 14  1  0
 17 16  1  0
 18 17  1  0
 18 19  1  0
 20 19  1  6
 20 22  1  0
 20 21  1  0
 22 23  2  0
 24 25  1  0
 26 25  1  0
 26 27  1  6
 28 26  1  0
 29 22  1  0
 28 29  1  1
 30 32  1  0
 30 28  1  0
 31 30  2  0
M  END
$$$$
