YRI.pdb
     RDKit          3D

 32 32  0  0  1  0  0  0  0  0999 V2000
    7.9579  -12.0114   15.9291 O   0  0  0  0  0  0  0  0  0  0  0  0
    7.7079  -12.6573   17.1522 C   0  0  0  0  0  0  0  0  0  0  0  0
    6.6456  -13.5212   17.2975 C   0  0  0  0  0  0  0  0  0  0  0  0
    6.3644  -14.1768   18.4829 C   0  0  0  0  0  0  0  0  0  0  0  0
    7.1714  -13.9710   19.5825 C   0  0  0  0  0  0  0  0  0  0  0  0
    6.8956  -14.6561   20.8716 C   0  0  0  0  0  0  0  0  0  0  0  0
    7.6091  -15.9832   20.8179 C   0  0  2  0  0  0  0  0  0  0  0  0
    6.9312  -16.8676   19.9219 N   0  0  0  0  0  0  0  0  0  0  0  0
    7.8379  -16.5764   22.1564 C   0  0  0  0  0  0  0  0  0  0  0  0
    6.8683  -17.0598   22.8071 O   0  0  0  0  0  0  0  0  0  0  0  0
    8.2479  -13.0954   19.4348 C   0  0  0  0  0  0  0  0  0  0  0  0
    8.5088  -12.4554   18.2500 C   0  0  0  0  0  0  0  0  0  0  0  0
   10.2965  -21.4320   26.5373 N   0  0  0  0  0  0  0  0  0  0  0  0
   11.5956  -21.1234   27.0284 C   0  0  0  0  0  0  0  0  0  0  0  0
   11.9296  -21.5261   28.2002 N   0  0  0  0  0  0  0  0  0  0  0  0
   12.5287  -20.3806   26.2547 N   0  0  0  0  0  0  0  0  0  0  0  0
   12.1169  -19.6693   25.0487 C   0  0  0  0  0  0  0  0  0  0  0  0
   10.8830  -18.8203   25.3062 C   0  0  0  0  0  0  0  0  0  0  0  0
   10.5378  -18.1622   24.0054 C   0  0  0  0  0  0  0  0  0  0  0  0
    9.3808  -17.2266   24.0450 C   0  0  2  0  0  0  0  0  0  0  0  0
    9.1061  -16.6309   22.7553 N   0  0  0  0  0  0  0  0  0  0  0  0
    9.7596  -16.1524   25.0339 C   0  0  0  0  0  0  0  0  0  0  0  0
   10.7222  -15.4142   24.7179 O   0  0  0  0  0  0  0  0  0  0  0  0
   12.8597  -21.2754   28.5835 C   0  0  0  0  0  0  0  0  0  0  0  0
    6.1615  -13.0912   26.9744 C   0  0  0  0  0  0  0  0  0  0  0  0
    7.4528  -13.6835   26.5267 C   0  0  2  0  0  0  0  0  0  0  0  0
    8.3823  -14.1346   27.5901 C   0  0  0  0  0  0  0  0  0  0  0  0
    8.6395  -13.1137   28.6795 C   0  0  2  0  0  0  0  0  0  0  0  0
    9.5646  -14.8948   27.1412 N   0  0  0  0  0  0  0  0  0  0  0  0
    9.0824  -15.9762   26.2438 C   0  0  0  0  0  0  0  0  0  0  0  0
   10.4543  -15.4585   28.1585 O   0  0  0  0  0  0  0  0  0  0  0  0
   11.3945  -14.8771   28.7433 O   0  0  0  0  0  0  0  0  0  0  0  0
  2  3  2  0
  2  1  1  0
  4  3  1  0
  5  4  2  0
  6  5  1  0
  7  6  1  0
  7  8  1  6
  9 21  1  0
  9  7  1  0
 10  9  2  0
 11  5  1  0
 11 12  2  0
 12  2  1  0
 14 13  1  0
 15 14  2  0
 16 14  1  0
 17 16  1  0
 18 17  1  0
 18 19  1  0
 20 19  1  6
 20 22  1  0
 20 21  1  0
 22 23  2  0
 24 25  1  0
 26 25  1  0
 26 27  1  1
 28 26  1  0
 29 22  1  0
 28 29  1  6
 30 32  1  0
 30 28  1  0
 31 30  2  0
M  END
$$$$
