YRI.pdb
     RDKit          3D

 32 32  0  0  1  0  0  0  0  0999 V2000
    4.3463  -25.4435   27.1808 O   0  0  0  0  0  0  0  0  0  0  0  0
    4.9580  -24.1960   26.9677 C   0  0  0  0  0  0  0  0  0  0  0  0
    6.0738  -23.8187   27.6809 C   0  0  0  0  0  0  0  0  0  0  0  0
    6.7058  -22.6010   27.5022 C   0  0  0  0  0  0  0  0  0  0  0  0
    6.2135  -21.7085   26.5729 C   0  0  0  0  0  0  0  0  0  0  0  0
    6.8659  -20.3910   26.3586 C   0  0  0  0  0  0  0  0  0  0  0  0
    7.5100  -20.4432   24.9964 C   0  0  2  0  0  0  0  0  0  0  0  0
    8.5288  -21.4463   24.9748 N   0  0  0  0  0  0  0  0  0  0  0  0
    7.9869  -19.1214   24.5262 C   0  0  0  0  0  0  0  0  0  0  0  0
    9.0965  -18.6703   24.9294 O   0  0  0  0  0  0  0  0  0  0  0  0
    5.0827  -22.0912   25.8503 C   0  0  0  0  0  0  0  0  0  0  0  0
    4.4712  -23.3038   26.0433 C   0  0  0  0  0  0  0  0  0  0  0  0
    8.7305  -14.5619   17.7865 N   0  0  0  0  0  0  0  0  0  0  0  0
    8.7441  -13.6316   18.8627 C   0  0  0  0  0  0  0  0  0  0  0  0
    9.1088  -12.4225   18.6352 N   0  0  0  0  0  0  0  0  0  0  0  0
    8.3659  -14.0092   20.1801 N   0  0  0  0  0  0  0  0  0  0  0  0
    7.1698  -14.8084   20.4253 C   0  0  0  0  0  0  0  0  0  0  0  0
    6.9020  -14.9538   21.9143 C   0  0  0  0  0  0  0  0  0  0  0  0
    6.7692  -16.4215   22.1834 C   0  0  0  0  0  0  0  0  0  0  0  0
    7.5394  -16.9338   23.3495 C   0  0  2  0  0  0  0  0  0  0  0  0
    7.2531  -18.3233   23.6349 N   0  0  0  0  0  0  0  0  0  0  0  0
    7.1256  -16.0762   24.5194 C   0  0  0  0  0  0  0  0  0  0  0  0
    6.0096  -16.3279   25.0317 O   0  0  0  0  0  0  0  0  0  0  0  0
    9.1233  -11.7359   19.4119 C   0  0  0  0  0  0  0  0  0  0  0  0
    9.5685  -12.9387   29.1365 C   0  0  0  0  0  0  0  0  0  0  0  0
    8.3772  -13.3462   28.3407 C   0  0  2  0  0  0  0  0  0  0  0  0
    8.6382  -13.9260   27.0014 C   0  0  0  0  0  0  0  0  0  0  0  0
    9.7254  -13.2272   26.2110 C   0  0  2  0  0  0  0  0  0  0  0  0
    7.4505  -14.3312   26.2252 N   0  0  0  0  0  0  0  0  0  0  0  0
    7.9332  -15.0503   25.0181 C   0  0  0  0  0  0  0  0  0  0  0  0
    6.4923  -13.2961   25.8320 O   0  0  0  0  0  0  0  0  0  0  0  0
    6.3218  -12.8225   24.6871 O   0  0  0  0  0  0  0  0  0  0  0  0
  2  3  2  0
  2  1  1  0
  4  3  1  0
  5  4  2  0
  6  5  1  0
  7  6  1  0
  7  8  1  1
  9 21  1  0
  9  7  1  0
 10  9  2  0
 11  5  1  0
 11 12  2  0
 12  2  1  0
 14 13  1  0
 15 14  2  0
 16 14  1  0
 17 16  1  0
 18 17  1  0
 18 19  1  0
 20 19  1  6
 20 22  1  0
 20 21  1  0
 22 23  2  0
 24 25  1  0
 26 25  1  0
 26 27  1  1
 28 26  1  0
 29 22  1  0
 28 29  1  6
 30 32  1  0
 30 28  1  0
 31 30  2  0
M  END
$$$$
