YRI.pdb
     RDKit          3D

 32 32  0  0  1  0  0  0  0  0999 V2000
    9.7584  -21.6765   30.6423 O   0  0  0  0  0  0  0  0  0  0  0  0
    9.0409  -20.9103   29.7076 C   0  0  0  0  0  0  0  0  0  0  0  0
    9.5800  -19.7684   29.1586 C   0  0  0  0  0  0  0  0  0  0  0  0
    8.9081  -18.9862   28.2362 C   0  0  0  0  0  0  0  0  0  0  0  0
    7.6393  -19.3474   27.8334 C   0  0  0  0  0  0  0  0  0  0  0  0
    6.8884  -18.5280   26.8474 C   0  0  0  0  0  0  0  0  0  0  0  0
    6.7644  -19.3611   25.5970 C   0  0  2  0  0  0  0  0  0  0  0  0
    7.2156  -20.6941   25.8501 N   0  0  0  0  0  0  0  0  0  0  0  0
    7.4143  -18.7426   24.4177 C   0  0  0  0  0  0  0  0  0  0  0  0
    8.6103  -19.0335   24.1307 O   0  0  0  0  0  0  0  0  0  0  0  0
    7.0933  -20.5047   28.3899 C   0  0  0  0  0  0  0  0  0  0  0  0
    7.7769  -21.2660   29.3034 C   0  0  0  0  0  0  0  0  0  0  0  0
    8.4541  -14.1605   17.4782 N   0  0  0  0  0  0  0  0  0  0  0  0
    8.3578  -13.4381   18.7000 C   0  0  0  0  0  0  0  0  0  0  0  0
    7.9910  -12.2088   18.6685 N   0  0  0  0  0  0  0  0  0  0  0  0
    8.6590  -14.0436   19.9505 N   0  0  0  0  0  0  0  0  0  0  0  0
    7.8170  -15.0996   20.5033 C   0  0  0  0  0  0  0  0  0  0  0  0
    6.9437  -14.5725   21.6299 C   0  0  0  0  0  0  0  0  0  0  0  0
    6.3724  -15.7707   22.3243 C   0  0  0  0  0  0  0  0  0  0  0  0
    7.3532  -16.6187   23.0555 C   0  0  2  0  0  0  0  0  0  0  0  0
    6.7561  -17.8272   23.5818 N   0  0  0  0  0  0  0  0  0  0  0  0
    7.8635  -15.7651   24.1896 C   0  0  0  0  0  0  0  0  0  0  0  0
    7.2639  -14.6828   24.3902 O   0  0  0  0  0  0  0  0  0  0  0  0
    7.8553  -11.6906   19.5563 C   0  0  0  0  0  0  0  0  0  0  0  0
    9.3127  -13.3787   29.0073 C   0  0  0  0  0  0  0  0  0  0  0  0
    9.8550  -13.6492   27.6467 C   0  0  2  0  0  0  0  0  0  0  0  0
    9.1099  -14.6247   26.8150 C   0  0  0  0  0  0  0  0  0  0  0  0
    8.4079  -15.7158   27.5971 C   0  0  2  0  0  0  0  0  0  0  0  0
    9.7750  -15.0622   25.5727 N   0  0  0  0  0  0  0  0  0  0  0  0
    8.9476  -16.1472   24.9849 C   0  0  0  0  0  0  0  0  0  0  0  0
   11.1721  -15.4938   25.6485 O   0  0  0  0  0  0  0  0  0  0  0  0
   12.1564  -14.8041   25.9946 O   0  0  0  0  0  0  0  0  0  0  0  0
  2  3  2  0
  2  1  1  0
  4  3  1  0
  5  4  2  0
  6  5  1  0
  7  6  1  0
  7  8  1  1
  9 21  1  0
  9  7  1  0
 10  9  2  0
 11  5  1  0
 11 12  2  0
 12  2  1  0
 14 13  1  0
 15 14  2  0
 16 14  1  0
 17 16  1  0
 18 17  1  0
 18 19  1  0
 20 19  1  1
 20 22  1  0
 20 21  1  0
 22 23  2  0
 24 25  1  0
 26 25  1  0
 26 27  1  6
 28 26  1  0
 29 22  1  0
 28 29  1  1
 30 32  1  0
 30 28  1  0
 31 30  2  0
M  END
$$$$
