YRI.pdb
     RDKit          3D

 32 32  0  0  1  0  0  0  0  0999 V2000
    7.2377  -22.2714   29.6816 O   0  0  0  0  0  0  0  0  0  0  0  0
    7.3686  -21.2863   28.6876 C   0  0  0  0  0  0  0  0  0  0  0  0
    6.2670  -20.7895   28.0275 C   0  0  0  0  0  0  0  0  0  0  0  0
    6.3519  -19.8205   27.0436 C   0  0  0  0  0  0  0  0  0  0  0  0
    7.5857  -19.3142   26.6916 C   0  0  0  0  0  0  0  0  0  0  0  0
    7.7128  -18.2757   25.6368 C   0  0  0  0  0  0  0  0  0  0  0  0
    7.3947  -18.9488   24.3258 C   0  0  2  0  0  0  0  0  0  0  0  0
    8.0032  -20.2420   24.2791 N   0  0  0  0  0  0  0  0  0  0  0  0
    7.7194  -18.1118   23.1470 C   0  0  0  0  0  0  0  0  0  0  0  0
    8.6683  -18.4417   22.3801 O   0  0  0  0  0  0  0  0  0  0  0  0
    8.7018  -19.8178   27.3608 C   0  0  0  0  0  0  0  0  0  0  0  0
    8.5953  -20.7791   28.3335 C   0  0  0  0  0  0  0  0  0  0  0  0
    7.5113  -13.4459   16.8705 N   0  0  0  0  0  0  0  0  0  0  0  0
    8.5591  -13.7904   17.7690 C   0  0  0  0  0  0  0  0  0  0  0  0
    9.6910  -14.1616   17.2917 N   0  0  0  0  0  0  0  0  0  0  0  0
    8.3818  -13.7347   19.1785 N   0  0  0  0  0  0  0  0  0  0  0  0
    7.0810  -13.4329   19.7671 C   0  0  0  0  0  0  0  0  0  0  0  0
    7.1424  -13.4730   21.2851 C   0  0  0  0  0  0  0  0  0  0  0  0
    6.6195  -14.8145   21.6988 C   0  0  0  0  0  0  0  0  0  0  0  0
    7.6156  -15.7291   22.3210 C   0  0  2  0  0  0  0  0  0  0  0  0
    7.0119  -16.9420   22.8291 N   0  0  0  0  0  0  0  0  0  0  0  0
    8.2300  -14.9496   23.4569 C   0  0  0  0  0  0  0  0  0  0  0  0
    8.9476  -13.9714   23.1417 O   0  0  0  0  0  0  0  0  0  0  0  0
   10.4482  -14.4557   17.9359 C   0  0  0  0  0  0  0  0  0  0  0  0
    5.7690  -12.3401   26.7381 C   0  0  0  0  0  0  0  0  0  0  0  0
    6.7989  -13.0302   25.9125 C   0  0  2  0  0  0  0  0  0  0  0  0
    7.8400  -13.7898   26.6456 C   0  0  0  0  0  0  0  0  0  0  0  0
    8.4345  -13.0619   27.8338 C   0  0  2  0  0  0  0  0  0  0  0  0
    8.8014  -14.5420   25.8166 N   0  0  0  0  0  0  0  0  0  0  0  0
    8.0196  -15.2877   24.7967 C   0  0  0  0  0  0  0  0  0  0  0  0
    9.7320  -15.4524   26.4868 O   0  0  0  0  0  0  0  0  0  0  0  0
    9.6923  -16.7024   26.4909 O   0  0  0  0  0  0  0  0  0  0  0  0
  2  3  2  0
  2  1  1  0
  4  3  1  0
  5  4  2  0
  6  5  1  0
  7  6  1  0
  7  8  1  6
  9 21  1  0
  9  7  1  0
 10  9  2  0
 11  5  1  0
 11 12  2  0
 12  2  1  0
 14 13  1  0
 15 14  2  0
 16 14  1  0
 17 16  1  0
 18 17  1  0
 18 19  1  0
 20 19  1  1
 20 22  1  0
 20 21  1  0
 22 23  2  0
 24 25  1  0
 26 25  1  0
 26 27  1  1
 28 26  1  0
 29 22  1  0
 28 29  1  6
 30 32  1  0
 30 28  1  0
 31 30  2  0
M  END
$$$$
