YRI.pdb
     RDKit          3D

 32 32  0  0  1  0  0  0  0  0999 V2000
    8.9733  -13.4386   15.1517 O   0  0  0  0  0  0  0  0  0  0  0  0
    8.6219  -13.6364   16.4982 C   0  0  0  0  0  0  0  0  0  0  0  0
    9.0861  -14.7243   17.2032 C   0  0  0  0  0  0  0  0  0  0  0  0
    8.7645  -14.9561   18.5287 C   0  0  0  0  0  0  0  0  0  0  0  0
    7.9430  -14.0706   19.1946 C   0  0  0  0  0  0  0  0  0  0  0  0
    7.5749  -14.2915   20.6169 C   0  0  0  0  0  0  0  0  0  0  0  0
    7.2591  -15.7588   20.7596 C   0  0  2  0  0  0  0  0  0  0  0  0
    6.2001  -16.1204   19.8695 N   0  0  0  0  0  0  0  0  0  0  0  0
    7.0039  -16.1664   22.1612 C   0  0  0  0  0  0  0  0  0  0  0  0
    6.2312  -15.4794   22.8880 O   0  0  0  0  0  0  0  0  0  0  0  0
    7.4728  -12.9681   18.4798 C   0  0  0  0  0  0  0  0  0  0  0  0
    7.8040  -12.7572   17.1656 C   0  0  0  0  0  0  0  0  0  0  0  0
    6.1302  -22.8225   28.8098 N   0  0  0  0  0  0  0  0  0  0  0  0
    6.2720  -22.4215   27.4522 C   0  0  0  0  0  0  0  0  0  0  0  0
    5.3137  -22.6550   26.6313 N   0  0  0  0  0  0  0  0  0  0  0  0
    7.4471  -21.7719   26.9850 N   0  0  0  0  0  0  0  0  0  0  0  0
    7.5095  -21.1874   25.6493 C   0  0  0  0  0  0  0  0  0  0  0  0
    7.4126  -19.6718   25.7079 C   0  0  0  0  0  0  0  0  0  0  0  0
    7.5227  -19.1815   24.2966 C   0  0  0  0  0  0  0  0  0  0  0  0
    7.4132  -17.7079   24.1173 C   0  0  2  0  0  0  0  0  0  0  0  0
    7.5899  -17.3032   22.7394 N   0  0  0  0  0  0  0  0  0  0  0  0
    8.5061  -17.1118   24.9691 C   0  0  0  0  0  0  0  0  0  0  0  0
    9.6846  -17.3315   24.6031 O   0  0  0  0  0  0  0  0  0  0  0  0
    5.4422  -22.4556   25.6220 C   0  0  0  0  0  0  0  0  0  0  0  0
    9.7154  -12.2574   28.3653 C   0  0  0  0  0  0  0  0  0  0  0  0
   10.0460  -13.6681   28.0201 C   0  0  2  0  0  0  0  0  0  0  0  0
    9.1066  -14.3687   27.1119 C   0  0  0  0  0  0  0  0  0  0  0  0
    7.6457  -14.0340   27.3331 C   0  0  2  0  0  0  0  0  0  0  0  0
    9.3982  -15.7903   26.8448 N   0  0  0  0  0  0  0  0  0  0  0  0
    8.2352  -16.3515   26.1103 C   0  0  0  0  0  0  0  0  0  0  0  0
    9.7294  -16.6556   27.9787 O   0  0  0  0  0  0  0  0  0  0  0  0
   10.7204  -16.5601   28.7356 O   0  0  0  0  0  0  0  0  0  0  0  0
  2  3  2  0
  2  1  1  0
  4  3  1  0
  5  4  2  0
  6  5  1  0
  7  6  1  0
  7  8  1  6
  9 21  1  0
  9  7  1  0
 10  9  2  0
 11  5  1  0
 11 12  2  0
 12  2  1  0
 14 13  1  0
 15 14  2  0
 16 14  1  0
 17 16  1  0
 18 17  1  0
 18 19  1  0
 20 19  1  6
 20 22  1  0
 20 21  1  0
 22 23  2  0
 24 25  1  0
 26 25  1  0
 26 27  1  6
 28 26  1  0
 29 22  1  0
 28 29  1  1
 30 32  1  0
 30 28  1  0
 31 30  2  0
M  END
$$$$
