YRI.pdb
     RDKit          3D

 32 32  0  0  1  0  0  0  0  0999 V2000
    7.7555  -11.8620   16.4486 O   0  0  0  0  0  0  0  0  0  0  0  0
    7.6667  -12.5264   17.6841 C   0  0  0  0  0  0  0  0  0  0  0  0
    6.7899  -13.5718   17.8695 C   0  0  0  0  0  0  0  0  0  0  0  0
    6.6712  -14.2519   19.0684 C   0  0  0  0  0  0  0  0  0  0  0  0
    7.4568  -13.8836   20.1405 C   0  0  0  0  0  0  0  0  0  0  0  0
    7.3521  -14.5904   21.4432 C   0  0  0  0  0  0  0  0  0  0  0  0
    8.1773  -15.8463   21.3220 C   0  0  2  0  0  0  0  0  0  0  0  0
    7.6251  -16.6998   20.3164 N   0  0  0  0  0  0  0  0  0  0  0  0
    8.3846  -16.5347   22.6176 C   0  0  0  0  0  0  0  0  0  0  0  0
    7.4032  -17.0548   23.2206 O   0  0  0  0  0  0  0  0  0  0  0  0
    8.3454  -12.8241   19.9524 C   0  0  0  0  0  0  0  0  0  0  0  0
    8.4471  -12.1630   18.7549 C   0  0  0  0  0  0  0  0  0  0  0  0
   11.9692  -18.5843   19.5929 N   0  0  0  0  0  0  0  0  0  0  0  0
   11.9429  -19.9369   20.0329 C   0  0  0  0  0  0  0  0  0  0  0  0
   11.7592  -20.8685   19.1697 N   0  0  0  0  0  0  0  0  0  0  0  0
   12.1131  -20.2795   21.4022 N   0  0  0  0  0  0  0  0  0  0  0  0
   12.1435  -19.2553   22.4413 C   0  0  0  0  0  0  0  0  0  0  0  0
   10.9344  -19.3644   23.3556 C   0  0  0  0  0  0  0  0  0  0  0  0
   11.0635  -18.2675   24.3677 C   0  0  0  0  0  0  0  0  0  0  0  0
    9.9010  -17.3432   24.4662 C   0  0  2  0  0  0  0  0  0  0  0  0
    9.6446  -16.6421   23.2267 N   0  0  0  0  0  0  0  0  0  0  0  0
   10.2576  -16.3544   25.5481 C   0  0  0  0  0  0  0  0  0  0  0  0
   11.2847  -15.6616   25.3577 O   0  0  0  0  0  0  0  0  0  0  0  0
   11.7854  -21.8602   19.4710 C   0  0  0  0  0  0  0  0  0  0  0  0
    6.9928  -12.9216   27.1014 C   0  0  0  0  0  0  0  0  0  0  0  0
    8.2508  -13.6774   26.8471 C   0  0  2  0  0  0  0  0  0  0  0  0
    8.8992  -14.3054   28.0233 C   0  0  0  0  0  0  0  0  0  0  0  0
    9.1429  -13.3665   29.1869 C   0  0  2  0  0  0  0  0  0  0  0  0
    9.9915  -15.2545   27.7344 N   0  0  0  0  0  0  0  0  0  0  0  0
    9.4927  -16.2064   26.7086 C   0  0  0  0  0  0  0  0  0  0  0  0
   10.5792  -15.9969   28.8514 O   0  0  0  0  0  0  0  0  0  0  0  0
   10.4061  -17.2042   29.1282 O   0  0  0  0  0  0  0  0  0  0  0  0
  2  3  2  0
  2  1  1  0
  4  3  1  0
  5  4  2  0
  6  5  1  0
  7  6  1  0
  7  8  1  6
  9 21  1  0
  9  7  1  0
 10  9  2  0
 11  5  1  0
 11 12  2  0
 12  2  1  0
 14 13  1  0
 15 14  2  0
 16 14  1  0
 17 16  1  0
 18 17  1  0
 18 19  1  0
 20 19  1  6
 20 22  1  0
 20 21  1  0
 22 23  2  0
 24 25  1  0
 26 25  1  0
 26 27  1  1
 28 26  1  0
 29 22  1  0
 28 29  1  6
 30 32  1  0
 30 28  1  0
 31 30  2  0
M  END
$$$$
