EHC.pdb
     RDKit          3D

 26 26  0  0  1  0  0  0  0  0999 V2000
   27.9618  -37.3368   -9.1763 N   0  0  0  0  0  0  0  0  0  0  0  0
   27.3291  -37.6768   -7.8961 C   0  0  1  0  0  0  0  0  0  0  0  0
   27.9306  -38.9239   -7.3222 C   0  0  0  0  0  0  0  0  0  0  0  0
   27.5180  -40.1887   -7.9847 C   0  0  0  0  0  0  0  0  0  0  0  0
   26.4320  -40.9289   -7.3576 C   0  0  0  0  0  0  0  0  0  0  0  0
   25.8970  -40.5451   -6.2950 O   0  0  0  0  0  0  0  0  0  0  0  0
   27.5176  -36.5050   -6.9975 C   0  0  0  0  0  0  0  0  0  0  0  0
   28.4725  -35.7104   -7.2356 O   0  0  0  0  0  0  0  0  0  0  0  0
   25.9673  -42.0934   -7.9429 O   0  0  0  0  0  0  0  0  0  0  0  0
   26.6943  -36.2119   -5.8808 N   0  0  0  0  0  0  0  0  0  0  0  0
   26.8714  -35.0149   -5.0686 C   0  0  1  0  0  0  0  0  0  0  0  0
   25.8392  -33.9667   -5.2962 C   0  0  0  0  0  0  0  0  0  0  0  0
   25.8935  -33.2660   -6.5716 C   0  0  0  0  0  0  0  0  0  0  0  0
   26.7841  -33.3064   -7.6166 C   0  0  0  0  0  0  0  0  0  0  0  0
   26.4077  -32.4508   -8.6003 N   0  0  0  0  0  0  0  0  0  0  0  0
   25.2855  -31.8874   -8.1541 C   0  0  0  0  0  0  0  0  0  0  0  0
   24.9583  -32.3504   -6.9579 N   0  0  0  0  0  0  0  0  0  0  0  0
   26.7508  -35.4232   -3.6425 C   0  0  0  0  0  0  0  0  0  0  0  0
   26.0284  -36.3930   -3.3484 O   0  0  0  0  0  0  0  0  0  0  0  0
   27.4346  -34.7407   -2.6063 N   0  0  0  0  0  0  0  0  0  0  0  0
   27.2345  -35.1589   -1.2425 C   0  0  1  0  0  0  0  0  0  0  0  0
   28.5311  -34.9237   -0.4911 C   0  0  0  0  0  0  0  0  0  0  0  0
   29.9072  -35.4519   -1.5315 S   0  0  0  0  0  0  0  0  0  0  0  0
   26.1334  -34.3822   -0.5901 C   0  0  0  0  0  0  0  0  0  0  0  0
   25.7580  -34.6358    0.7194 O   0  0  0  0  0  0  0  0  0  0  0  0
   25.5406  -33.4878   -1.2374 O   0  0  0  0  0  0  0  0  0  0  0  0
  2  1  1  6
  2  7  1  0
  3  2  1  0
  4  3  1  0
  5  4  1  0
  6  5  2  0
  7 10  1  0
  7  8  2  0
  9  5  1  0
 10 11  1  0
 11 12  1  6
 12 13  1  0
 13 17  1  0
 14 13  2  0
 14 15  1  0
 15 16  1  0
 17 16  2  0
 18 11  1  0
 18 19  2  0
 20 18  1  0
 21 20  1  0
 21 22  1  1
 23 22  1  0
 24 21  1  0
 25 24  1  0
 26 24  2  0
M  END
$$$$
