EHC.pdb
     RDKit          3D

 26 26  0  0  1  0  0  0  0  0999 V2000
   20.7372  -22.8468  -14.9234 N   0  0  0  0  0  0  0  0  0  0  0  0
   20.9924  -21.6334  -14.1378 C   0  0  1  0  0  0  0  0  0  0  0  0
   22.1307  -20.8530  -14.7223 C   0  0  0  0  0  0  0  0  0  0  0  0
   22.0090  -20.5446  -16.1711 C   0  0  0  0  0  0  0  0  0  0  0  0
   22.6822  -19.3416  -16.6403 C   0  0  0  0  0  0  0  0  0  0  0  0
   22.6247  -18.9741  -17.8338 O   0  0  0  0  0  0  0  0  0  0  0  0
   19.7268  -20.8495  -14.1324 C   0  0  0  0  0  0  0  0  0  0  0  0
   19.0115  -20.8525  -15.1756 O   0  0  0  0  0  0  0  0  0  0  0  0
   23.4112  -18.5719  -15.7511 O   0  0  0  0  0  0  0  0  0  0  0  0
   19.2598  -20.0908  -13.0291 N   0  0  0  0  0  0  0  0  0  0  0  0
   17.9921  -19.3725  -13.0517 C   0  0  1  0  0  0  0  0  0  0  0  0
   17.2491  -19.4082  -11.7623 C   0  0  0  0  0  0  0  0  0  0  0  0
   16.4553  -20.6009  -11.5015 C   0  0  0  0  0  0  0  0  0  0  0  0
   16.2743  -21.7680  -12.2027 C   0  0  0  0  0  0  0  0  0  0  0  0
   15.4189  -22.5930  -11.5475 N   0  0  0  0  0  0  0  0  0  0  0  0
   15.0776  -21.9274  -10.4447 C   0  0  0  0  0  0  0  0  0  0  0  0
   15.6751  -20.7474  -10.3915 N   0  0  0  0  0  0  0  0  0  0  0  0
   18.2966  -17.9412  -13.3237 C   0  0  0  0  0  0  0  0  0  0  0  0
   19.2221  -17.3893  -12.7011 O   0  0  0  0  0  0  0  0  0  0  0  0
   17.5639  -17.1853  -14.2718 N   0  0  0  0  0  0  0  0  0  0  0  0
   17.9324  -15.8129  -14.5075 C   0  0  1  0  0  0  0  0  0  0  0  0
   18.6119  -15.7419  -15.8619 C   0  0  0  0  0  0  0  0  0  0  0  0
   17.4906  -16.4095  -17.1078 S   0  0  0  0  0  0  0  0  0  0  0  0
   16.7321  -14.9182  -14.5056 C   0  0  0  0  0  0  0  0  0  0  0  0
   16.8668  -13.5407  -14.5704 O   0  0  0  0  0  0  0  0  0  0  0  0
   15.5862  -15.4217  -14.4444 O   0  0  0  0  0  0  0  0  0  0  0  0
  2  1  1  6
  2  7  1  0
  3  2  1  0
  4  3  1  0
  5  4  1  0
  6  5  2  0
  7 10  1  0
  7  8  2  0
  9  5  1  0
 10 11  1  0
 11 12  1  1
 12 13  1  0
 13 17  1  0
 14 13  2  0
 14 15  1  0
 15 16  1  0
 17 16  2  0
 18 11  1  0
 18 19  2  0
 20 18  1  0
 21 20  1  0
 21 22  1  6
 23 22  1  0
 24 21  1  0
 25 24  1  0
 26 24  2  0
M  END
$$$$
