EHC.pdb
     RDKit          3D

 26 26  0  0  1  0  0  0  0  0999 V2000
   20.6764  -12.9467  -19.0351 N   0  0  0  0  0  0  0  0  0  0  0  0
   21.5328  -12.3532  -18.0011 C   0  0  1  0  0  0  0  0  0  0  0  0
   22.9027  -12.0759  -18.5421 C   0  0  0  0  0  0  0  0  0  0  0  0
   23.2235  -12.7482  -19.8283 C   0  0  0  0  0  0  0  0  0  0  0  0
   24.5604  -12.5295  -20.3625 C   0  0  0  0  0  0  0  0  0  0  0  0
   25.4160  -11.8557  -19.7487 O   0  0  0  0  0  0  0  0  0  0  0  0
   20.8551  -11.1098  -17.5417 C   0  0  0  0  0  0  0  0  0  0  0  0
   20.1703  -10.4526  -18.3778 O   0  0  0  0  0  0  0  0  0  0  0  0
   24.9093  -13.0769  -21.5844 O   0  0  0  0  0  0  0  0  0  0  0  0
   20.9229  -10.6031  -16.2190 N   0  0  0  0  0  0  0  0  0  0  0  0
   20.1319   -9.4626  -15.7747 C   0  0  1  0  0  0  0  0  0  0  0  0
   19.2184   -9.7612  -14.6380 C   0  0  0  0  0  0  0  0  0  0  0  0
   18.0022  -10.4962  -14.9563 C   0  0  0  0  0  0  0  0  0  0  0  0
   17.4869  -10.9728  -16.1369 C   0  0  0  0  0  0  0  0  0  0  0  0
   16.3009  -11.5974  -15.9246 N   0  0  0  0  0  0  0  0  0  0  0  0
   16.0928  -11.5013  -14.6120 C   0  0  0  0  0  0  0  0  0  0  0  0
   17.0820  -10.8555  -14.0148 N   0  0  0  0  0  0  0  0  0  0  0  0
   21.0818   -8.4239  -15.2911 C   0  0  0  0  0  0  0  0  0  0  0  0
   22.1237   -8.7784  -14.7101 O   0  0  0  0  0  0  0  0  0  0  0  0
   20.8365   -7.0404  -15.4718 N   0  0  0  0  0  0  0  0  0  0  0  0
   21.7440   -6.0869  -14.8869 C   0  0  1  0  0  0  0  0  0  0  0  0
   21.8927   -4.9322  -15.8595 C   0  0  0  0  0  0  0  0  0  0  0  0
   22.9337   -3.6680  -15.1024 S   0  0  0  0  0  0  0  0  0  0  0  0
   21.2263   -5.5726  -13.5796 C   0  0  0  0  0  0  0  0  0  0  0  0
   22.0921   -5.1422  -12.5871 O   0  0  0  0  0  0  0  0  0  0  0  0
   19.9903   -5.5302  -13.3781 O   0  0  0  0  0  0  0  0  0  0  0  0
  2  1  1  6
  2  7  1  0
  3  2  1  0
  4  3  1  0
  5  4  1  0
  6  5  2  0
  7 10  1  0
  7  8  2  0
  9  5  1  0
 10 11  1  0
 11 12  1  1
 12 13  1  0
 13 17  1  0
 14 13  2  0
 14 15  1  0
 15 16  1  0
 17 16  2  0
 18 11  1  0
 18 19  2  0
 20 18  1  0
 21 20  1  0
 21 22  1  6
 23 22  1  0
 24 21  1  0
 25 24  1  0
 26 24  2  0
M  END
$$$$
