EHC.pdb
     RDKit          3D

 26 26  0  0  1  0  0  0  0  0999 V2000
   22.9855  -19.7212  -18.1573 N   0  0  0  0  0  0  0  0  0  0  0  0
   23.9149  -19.7636  -17.0219 C   0  0  1  0  0  0  0  0  0  0  0  0
   25.0236  -18.7721  -17.2069 C   0  0  0  0  0  0  0  0  0  0  0  0
   25.8776  -18.9932  -18.4030 C   0  0  0  0  0  0  0  0  0  0  0  0
   25.7755  -18.0058  -19.4684 C   0  0  0  0  0  0  0  0  0  0  0  0
   24.9439  -18.1160  -20.3951 O   0  0  0  0  0  0  0  0  0  0  0  0
   23.1146  -19.4798  -15.7991 C   0  0  0  0  0  0  0  0  0  0  0  0
   23.7217  -19.1026  -14.7555 O   0  0  0  0  0  0  0  0  0  0  0  0
   26.6170  -16.9074  -19.4691 O   0  0  0  0  0  0  0  0  0  0  0  0
   21.7042  -19.6034  -15.7189 N   0  0  0  0  0  0  0  0  0  0  0  0
   20.9634  -19.3490  -14.4900 C   0  0  1  0  0  0  0  0  0  0  0  0
   19.9305  -18.2840  -14.6112 C   0  0  0  0  0  0  0  0  0  0  0  0
   20.4149  -16.9325  -14.8558 C   0  0  0  0  0  0  0  0  0  0  0  0
   21.6410  -16.3391  -14.6796 C   0  0  0  0  0  0  0  0  0  0  0  0
   21.5992  -15.0340  -15.0495 N   0  0  0  0  0  0  0  0  0  0  0  0
   20.3451  -14.8315  -15.4517 C   0  0  0  0  0  0  0  0  0  0  0  0
   19.6231  -15.9361  -15.3481 N   0  0  0  0  0  0  0  0  0  0  0  0
   20.2391  -20.6012  -14.1399 C   0  0  0  0  0  0  0  0  0  0  0  0
   19.7907  -21.3178  -15.0533 O   0  0  0  0  0  0  0  0  0  0  0  0
   20.0437  -21.0042  -12.7959 N   0  0  0  0  0  0  0  0  0  0  0  0
   19.2939  -22.2045  -12.5276 C   0  0  1  0  0  0  0  0  0  0  0  0
   19.4993  -22.5622  -11.0678 C   0  0  0  0  0  0  0  0  0  0  0  0
   18.6440  -24.1136  -10.7260 S   0  0  0  0  0  0  0  0  0  0  0  0
   17.8335  -22.0051  -12.7902 C   0  0  0  0  0  0  0  0  0  0  0  0
   17.0447  -23.0399  -13.2663 O   0  0  0  0  0  0  0  0  0  0  0  0
   17.3146  -20.8846  -12.5764 O   0  0  0  0  0  0  0  0  0  0  0  0
  2  1  1  6
  2  7  1  0
  3  2  1  0
  4  3  1  0
  5  4  1  0
  6  5  2  0
  7 10  1  0
  7  8  2  0
  9  5  1  0
 10 11  1  0
 11 12  1  6
 12 13  1  0
 13 17  1  0
 14 13  2  0
 14 15  1  0
 15 16  1  0
 17 16  2  0
 18 11  1  0
 18 19  2  0
 20 18  1  0
 21 20  1  0
 21 22  1  1
 23 22  1  0
 24 21  1  0
 25 24  1  0
 26 24  2  0
M  END
$$$$
