EHC.pdb
     RDKit          3D

 26 26  0  0  1  0  0  0  0  0999 V2000
   14.6764  -10.5409  -13.3619 N   0  0  0  0  0  0  0  0  0  0  0  0
   16.0072  -10.5686  -12.7431 C   0  0  1  0  0  0  0  0  0  0  0  0
   16.9984  -11.2369  -13.6471 C   0  0  0  0  0  0  0  0  0  0  0  0
   16.6135  -11.2871  -15.0818 C   0  0  0  0  0  0  0  0  0  0  0  0
   17.5262  -11.9834  -15.9777 C   0  0  0  0  0  0  0  0  0  0  0  0
   17.3537  -13.1789  -16.2995 O   0  0  0  0  0  0  0  0  0  0  0  0
   16.3797   -9.1557  -12.4587 C   0  0  0  0  0  0  0  0  0  0  0  0
   15.9217   -8.2483  -13.2116 O   0  0  0  0  0  0  0  0  0  0  0  0
   18.6215  -11.3156  -16.4964 O   0  0  0  0  0  0  0  0  0  0  0  0
   17.2210   -8.7487  -11.3921 N   0  0  0  0  0  0  0  0  0  0  0  0
   17.5687   -7.3533  -11.1561 C   0  0  1  0  0  0  0  0  0  0  0  0
   17.4482   -6.9279   -9.7348 C   0  0  0  0  0  0  0  0  0  0  0  0
   16.0976   -6.8082   -9.2036 C   0  0  0  0  0  0  0  0  0  0  0  0
   14.8585   -6.9997   -9.7643 C   0  0  0  0  0  0  0  0  0  0  0  0
   13.8790   -6.7544   -8.8576 N   0  0  0  0  0  0  0  0  0  0  0  0
   14.5224   -6.4125   -7.7419 C   0  0  0  0  0  0  0  0  0  0  0  0
   15.8342   -6.4357   -7.9175 N   0  0  0  0  0  0  0  0  0  0  0  0
   18.9997   -7.1826  -11.5278 C   0  0  0  0  0  0  0  0  0  0  0  0
   19.7889   -8.1286  -11.3518 O   0  0  0  0  0  0  0  0  0  0  0  0
   19.4931   -5.9736  -12.0773 N   0  0  0  0  0  0  0  0  0  0  0  0
   20.8103   -5.9564  -12.6600 C   0  0  1  0  0  0  0  0  0  0  0  0
   20.8008   -6.8922  -13.8538 C   0  0  0  0  0  0  0  0  0  0  0  0
   22.3953   -6.7794  -14.6905 S   0  0  0  0  0  0  0  0  0  0  0  0
   21.1893   -4.5797  -13.1100 C   0  0  0  0  0  0  0  0  0  0  0  0
   22.5109   -4.1634  -13.1025 O   0  0  0  0  0  0  0  0  0  0  0  0
   20.2981   -3.7899  -13.5002 O   0  0  0  0  0  0  0  0  0  0  0  0
  2  1  1  6
  2  7  1  0
  3  2  1  0
  4  3  1  0
  5  4  1  0
  6  5  2  0
  7 10  1  0
  7  8  2  0
  9  5  1  0
 10 11  1  0
 11 12  1  1
 12 13  1  0
 13 17  1  0
 14 13  2  0
 14 15  1  0
 15 16  1  0
 17 16  2  0
 18 11  1  0
 18 19  2  0
 20 18  1  0
 21 20  1  0
 21 22  1  6
 23 22  1  0
 24 21  1  0
 25 24  1  0
 26 24  2  0
M  END
$$$$
