EHC.pdb
     RDKit          3D

 26 26  0  0  1  0  0  0  0  0999 V2000
   27.3850  -21.9554  -16.2692 N   0  0  0  0  0  0  0  0  0  0  0  0
   27.7150  -20.5419  -16.0503 C   0  0  1  0  0  0  0  0  0  0  0  0
   27.9350  -19.8404  -17.3564 C   0  0  0  0  0  0  0  0  0  0  0  0
   28.1243  -20.7324  -18.5301 C   0  0  0  0  0  0  0  0  0  0  0  0
   29.2734  -20.4557  -19.3806 C   0  0  0  0  0  0  0  0  0  0  0  0
   29.2435  -19.5749  -20.2672 O   0  0  0  0  0  0  0  0  0  0  0  0
   26.5840  -19.9488  -15.2852 C   0  0  0  0  0  0  0  0  0  0  0  0
   26.5872  -18.7016  -15.0746 O   0  0  0  0  0  0  0  0  0  0  0  0
   30.4404  -21.1805  -19.2149 O   0  0  0  0  0  0  0  0  0  0  0  0
   25.4905  -20.6899  -14.7695 N   0  0  0  0  0  0  0  0  0  0  0  0
   24.3960  -20.0659  -14.0372 C   0  0  1  0  0  0  0  0  0  0  0  0
   23.0903  -20.0962  -14.7515 C   0  0  0  0  0  0  0  0  0  0  0  0
   22.9605  -19.2201  -15.9075 C   0  0  0  0  0  0  0  0  0  0  0  0
   22.8426  -19.4690  -17.2531 C   0  0  0  0  0  0  0  0  0  0  0  0
   22.7561  -18.3075  -17.9495 N   0  0  0  0  0  0  0  0  0  0  0  0
   22.8214  -17.3486  -17.0266 C   0  0  0  0  0  0  0  0  0  0  0  0
   22.9425  -17.8590  -15.8113 N   0  0  0  0  0  0  0  0  0  0  0  0
   24.2063  -20.8370  -12.7784 C   0  0  0  0  0  0  0  0  0  0  0  0
   23.9679  -22.0567  -12.8446 O   0  0  0  0  0  0  0  0  0  0  0  0
   24.2888  -20.2245  -11.5037 N   0  0  0  0  0  0  0  0  0  0  0  0
   24.0710  -21.0263  -10.3270 C   0  0  1  0  0  0  0  0  0  0  0  0
   25.0891  -20.6047   -9.2844 C   0  0  0  0  0  0  0  0  0  0  0  0
   26.7438  -20.9202   -9.9304 S   0  0  0  0  0  0  0  0  0  0  0  0
   22.6904  -20.8306   -9.7819 C   0  0  0  0  0  0  0  0  0  0  0  0
   21.8023  -19.9527  -10.3823 O   0  0  0  0  0  0  0  0  0  0  0  0
   22.3307  -21.4704   -8.7662 O   0  0  0  0  0  0  0  0  0  0  0  0
  2  1  1  6
  2  7  1  0
  3  2  1  0
  4  3  1  0
  5  4  1  0
  6  5  2  0
  7 10  1  0
  7  8  2  0
  9  5  1  0
 10 11  1  0
 11 12  1  6
 12 13  1  0
 13 17  1  0
 14 13  2  0
 14 15  1  0
 15 16  1  0
 17 16  2  0
 18 11  1  0
 18 19  2  0
 20 18  1  0
 21 20  1  0
 21 22  1  1
 23 22  1  0
 24 21  1  0
 25 24  1  0
 26 24  2  0
M  END
$$$$
