EHC.pdb
     RDKit          3D

 26 26  0  0  1  0  0  0  0  0999 V2000
   13.3863   -8.6906   -9.4874 N   0  0  0  0  0  0  0  0  0  0  0  0
   14.7952   -8.6482   -9.0774 C   0  0  1  0  0  0  0  0  0  0  0  0
   15.5246   -9.8654   -9.5600 C   0  0  0  0  0  0  0  0  0  0  0  0
   14.8071  -10.6690  -10.5839 C   0  0  0  0  0  0  0  0  0  0  0  0
   15.4702  -11.8813  -11.0433 C   0  0  0  0  0  0  0  0  0  0  0  0
   14.9413  -12.6501  -11.8751 O   0  0  0  0  0  0  0  0  0  0  0  0
   15.3706   -7.3963   -9.6409 C   0  0  0  0  0  0  0  0  0  0  0  0
   14.8788   -6.9354  -10.7113 O   0  0  0  0  0  0  0  0  0  0  0  0
   16.7232  -12.2058  -10.5541 O   0  0  0  0  0  0  0  0  0  0  0  0
   16.4429   -6.6746   -9.0575 N   0  0  0  0  0  0  0  0  0  0  0  0
   16.9863   -5.4603   -9.6524 C   0  0  1  0  0  0  0  0  0  0  0  0
   16.9425   -4.2717   -8.7572 C   0  0  0  0  0  0  0  0  0  0  0  0
   15.6300   -3.6912   -8.5101 C   0  0  0  0  0  0  0  0  0  0  0  0
   14.7209   -3.0676   -9.3294 C   0  0  0  0  0  0  0  0  0  0  0  0
   13.6254   -2.6849   -8.6258 N   0  0  0  0  0  0  0  0  0  0  0  0
   13.8672   -3.0758   -7.3751 C   0  0  0  0  0  0  0  0  0  0  0  0
   15.0445   -3.6732   -7.2777 N   0  0  0  0  0  0  0  0  0  0  0  0
   18.4230   -5.7138   -9.9471 C   0  0  0  0  0  0  0  0  0  0  0  0
   19.0867   -6.4202   -9.1665 O   0  0  0  0  0  0  0  0  0  0  0  0
   19.0606   -5.1747  -11.0917 N   0  0  0  0  0  0  0  0  0  0  0  0
   20.3489   -5.6878  -11.4814 C   0  0  1  0  0  0  0  0  0  0  0  0
   20.1783   -7.1557  -11.8240 C   0  0  0  0  0  0  0  0  0  0  0  0
   21.7590   -7.8017  -12.4063 S   0  0  0  0  0  0  0  0  0  0  0  0
   20.8885   -4.9584  -12.6723 C   0  0  0  0  0  0  0  0  0  0  0  0
   22.2442   -4.7021  -12.8000 O   0  0  0  0  0  0  0  0  0  0  0  0
   20.1027   -4.5728  -13.5690 O   0  0  0  0  0  0  0  0  0  0  0  0
  2  1  1  6
  2  7  1  0
  3  2  1  0
  4  3  1  0
  5  4  1  0
  6  5  2  0
  7 10  1  0
  7  8  2  0
  9  5  1  0
 10 11  1  0
 11 12  1  1
 12 13  1  0
 13 17  1  0
 14 13  2  0
 14 15  1  0
 15 16  1  0
 17 16  2  0
 18 11  1  0
 18 19  2  0
 20 18  1  0
 21 20  1  0
 21 22  1  6
 23 22  1  0
 24 21  1  0
 25 24  1  0
 26 24  2  0
M  END
$$$$
