EHC.pdb
     RDKit          3D

 26 26  0  0  1  0  0  0  0  0999 V2000
   17.0118  -11.1244  -15.3036 N   0  0  0  0  0  0  0  0  0  0  0  0
   18.3731  -11.6108  -15.5585 C   0  0  1  0  0  0  0  0  0  0  0  0
   18.3476  -12.8154  -16.4499 C   0  0  0  0  0  0  0  0  0  0  0  0
   17.0574  -13.5528  -16.4810 C   0  0  0  0  0  0  0  0  0  0  0  0
   17.0406  -14.8639  -15.8476 C   0  0  0  0  0  0  0  0  0  0  0  0
   16.1559  -15.7099  -16.1014 O   0  0  0  0  0  0  0  0  0  0  0  0
   19.1262  -10.4824  -16.1715 C   0  0  0  0  0  0  0  0  0  0  0  0
   20.2885  -10.7054  -16.6178 O   0  0  0  0  0  0  0  0  0  0  0  0
   18.0260  -15.1983  -14.9356 O   0  0  0  0  0  0  0  0  0  0  0  0
   18.6287   -9.1600  -16.2925 N   0  0  0  0  0  0  0  0  0  0  0  0
   19.3768   -8.0981  -16.9531 C   0  0  1  0  0  0  0  0  0  0  0  0
   18.6061   -7.3694  -17.9975 C   0  0  0  0  0  0  0  0  0  0  0  0
   18.3366   -8.0940  -19.2317 C   0  0  0  0  0  0  0  0  0  0  0  0
   19.0050   -8.1700  -20.4292 C   0  0  0  0  0  0  0  0  0  0  0  0
   18.3476   -8.9831  -21.2941 N   0  0  0  0  0  0  0  0  0  0  0  0
   17.2761   -9.4035  -20.6227 C   0  0  0  0  0  0  0  0  0  0  0  0
   17.2441   -8.8939  -19.4014 N   0  0  0  0  0  0  0  0  0  0  0  0
   19.7343   -7.0936  -15.9147 C   0  0  0  0  0  0  0  0  0  0  0  0
   18.9954   -6.9580  -14.9225 O   0  0  0  0  0  0  0  0  0  0  0  0
   20.8925   -6.2847  -16.0206 N   0  0  0  0  0  0  0  0  0  0  0  0
   21.2485   -5.4255  -14.9206 C   0  0  1  0  0  0  0  0  0  0  0  0
   22.2159   -6.1859  -14.0334 C   0  0  0  0  0  0  0  0  0  0  0  0
   22.8002   -5.0802  -12.7330 S   0  0  0  0  0  0  0  0  0  0  0  0
   21.8994   -4.1659  -15.4013 C   0  0  0  0  0  0  0  0  0  0  0  0
   21.6816   -2.9580  -14.7583 O   0  0  0  0  0  0  0  0  0  0  0  0
   22.6538   -4.2028  -16.4012 O   0  0  0  0  0  0  0  0  0  0  0  0
  2  1  1  6
  2  7  1  0
  3  2  1  0
  4  3  1  0
  5  4  1  0
  6  5  2  0
  7 10  1  0
  7  8  2  0
  9  5  1  0
 10 11  1  0
 11 12  1  6
 12 13  1  0
 13 17  1  0
 14 13  2  0
 14 15  1  0
 15 16  1  0
 17 16  2  0
 18 11  1  0
 18 19  2  0
 20 18  1  0
 21 20  1  0
 21 22  1  1
 23 22  1  0
 24 21  1  0
 25 24  1  0
 26 24  2  0
M  END
$$$$
