EHC.pdb
     RDKit          3D

 26 26  0  0  1  0  0  0  0  0999 V2000
   23.9912  -14.0846  -19.2577 N   0  0  0  0  0  0  0  0  0  0  0  0
   23.2071  -12.8637  -19.4801 C   0  0  1  0  0  0  0  0  0  0  0  0
   21.8340  -13.1989  -19.9788 C   0  0  0  0  0  0  0  0  0  0  0  0
   21.0813  -14.1776  -19.1513 C   0  0  0  0  0  0  0  0  0  0  0  0
   19.6338  -14.0232  -19.1147 C   0  0  0  0  0  0  0  0  0  0  0  0
   19.0488  -13.1176  -19.7476 O   0  0  0  0  0  0  0  0  0  0  0  0
   23.1641  -12.1367  -18.1817 C   0  0  0  0  0  0  0  0  0  0  0  0
   22.6777  -12.7287  -17.1753 O   0  0  0  0  0  0  0  0  0  0  0  0
   18.8692  -14.8966  -18.3617 O   0  0  0  0  0  0  0  0  0  0  0  0
   23.6347  -10.8128  -17.9895 N   0  0  0  0  0  0  0  0  0  0  0  0
   23.6789  -10.1790  -16.6781 C   0  0  1  0  0  0  0  0  0  0  0  0
   25.0038   -9.5984  -16.3269 C   0  0  0  0  0  0  0  0  0  0  0  0
   26.1006  -10.5400  -16.1502 C   0  0  0  0  0  0  0  0  0  0  0  0
   26.1774  -11.9072  -16.2564 C   0  0  0  0  0  0  0  0  0  0  0  0
   27.4353  -12.3390  -15.9861 N   0  0  0  0  0  0  0  0  0  0  0  0
   28.1266  -11.2327  -15.7143 C   0  0  0  0  0  0  0  0  0  0  0  0
   27.3631  -10.1550  -15.8037 N   0  0  0  0  0  0  0  0  0  0  0  0
   22.7139   -9.0460  -16.6989 C   0  0  0  0  0  0  0  0  0  0  0  0
   22.7004   -8.2790  -17.6789 O   0  0  0  0  0  0  0  0  0  0  0  0
   21.8077   -8.8126  -15.6352 N   0  0  0  0  0  0  0  0  0  0  0  0
   20.8064   -7.7875  -15.7817 C   0  0  1  0  0  0  0  0  0  0  0  0
   19.5188   -8.3073  -15.1711 C   0  0  0  0  0  0  0  0  0  0  0  0
   19.0831   -9.8624  -15.9755 S   0  0  0  0  0  0  0  0  0  0  0  0
   21.2127   -6.5253  -15.0865 C   0  0  0  0  0  0  0  0  0  0  0  0
   20.4548   -5.3709  -15.1994 O   0  0  0  0  0  0  0  0  0  0  0  0
   22.2548   -6.5111  -14.3907 O   0  0  0  0  0  0  0  0  0  0  0  0
  2  1  1  1
  2  7  1  0
  3  2  1  0
  4  3  1  0
  5  4  1  0
  6  5  2  0
  7 10  1  0
  7  8  2  0
  9  5  1  0
 10 11  1  0
 11 12  1  6
 12 13  1  0
 13 17  1  0
 14 13  2  0
 14 15  1  0
 15 16  1  0
 17 16  2  0
 18 11  1  0
 18 19  2  0
 20 18  1  0
 21 20  1  0
 21 22  1  1
 23 22  1  0
 24 21  1  0
 25 24  1  0
 26 24  2  0
M  END
$$$$
