EHC.pdb
     RDKit          3D

 26 26  0  0  1  0  0  0  0  0999 V2000
   18.2334   -5.9301  -17.4892 N   0  0  0  0  0  0  0  0  0  0  0  0
   19.4106   -6.7799  -17.7059 C   0  0  1  0  0  0  0  0  0  0  0  0
   20.6611   -6.0721  -17.2796 C   0  0  0  0  0  0  0  0  0  0  0  0
   20.6076   -5.4489  -15.9313 C   0  0  0  0  0  0  0  0  0  0  0  0
   21.7976   -4.7304  -15.4977 C   0  0  0  0  0  0  0  0  0  0  0  0
   22.8567   -4.7430  -16.1616 O   0  0  0  0  0  0  0  0  0  0  0  0
   19.1883   -8.0304  -16.9294 C   0  0  0  0  0  0  0  0  0  0  0  0
   20.0529   -8.9502  -17.0077 O   0  0  0  0  0  0  0  0  0  0  0  0
   21.7712   -4.0076  -14.3181 O   0  0  0  0  0  0  0  0  0  0  0  0
   18.0638   -8.2675  -16.0986 N   0  0  0  0  0  0  0  0  0  0  0  0
   17.8840   -9.5097  -15.3581 C   0  0  1  0  0  0  0  0  0  0  0  0
   17.9198   -9.3472  -13.8788 C   0  0  0  0  0  0  0  0  0  0  0  0
   19.2336   -9.1744  -13.2748 C   0  0  0  0  0  0  0  0  0  0  0  0
   20.5057   -9.2118  -13.7913 C   0  0  0  0  0  0  0  0  0  0  0  0
   21.4252   -8.9966  -12.8166 N   0  0  0  0  0  0  0  0  0  0  0  0
   20.7121   -8.8278  -11.7037 C   0  0  0  0  0  0  0  0  0  0  0  0
   19.4143   -8.9277  -11.9449 N   0  0  0  0  0  0  0  0  0  0  0  0
   16.5322  -10.0351  -15.6922 C   0  0  0  0  0  0  0  0  0  0  0  0
   15.5976   -9.2333  -15.8725 O   0  0  0  0  0  0  0  0  0  0  0  0
   16.2752  -11.4232  -15.8120 N   0  0  0  0  0  0  0  0  0  0  0  0
   14.9301  -11.8651  -16.0770 C   0  0  1  0  0  0  0  0  0  0  0  0
   14.9603  -12.7120  -17.3351 C   0  0  0  0  0  0  0  0  0  0  0  0
   14.6771  -11.6423  -18.7600 S   0  0  0  0  0  0  0  0  0  0  0  0
   14.3902  -12.6789  -14.9422 C   0  0  0  0  0  0  0  0  0  0  0  0
   13.0789  -12.5339  -14.5186 O   0  0  0  0  0  0  0  0  0  0  0  0
   15.1350  -13.5051  -14.3651 O   0  0  0  0  0  0  0  0  0  0  0  0
  2  1  1  1
  2  7  1  0
  3  2  1  0
  4  3  1  0
  5  4  1  0
  6  5  2  0
  7 10  1  0
  7  8  2  0
  9  5  1  0
 10 11  1  0
 11 12  1  1
 12 13  1  0
 13 17  1  0
 14 13  2  0
 14 15  1  0
 15 16  1  0
 17 16  2  0
 18 11  1  0
 18 19  2  0
 20 18  1  0
 21 20  1  0
 21 22  1  6
 23 22  1  0
 24 21  1  0
 25 24  1  0
 26 24  2  0
M  END
$$$$
