EHC.pdb
     RDKit          3D

 26 26  0  0  1  0  0  0  0  0999 V2000
   27.6190  -21.7775  -16.9476 N   0  0  0  0  0  0  0  0  0  0  0  0
   28.0575  -20.3973  -16.7078 C   0  0  1  0  0  0  0  0  0  0  0  0
   27.8112  -19.5453  -17.9160 C   0  0  0  0  0  0  0  0  0  0  0  0
   28.6196  -19.8954  -19.1131 C   0  0  0  0  0  0  0  0  0  0  0  0
   29.2847  -18.7942  -19.7954 C   0  0  0  0  0  0  0  0  0  0  0  0
   30.4606  -18.4644  -19.5288 O   0  0  0  0  0  0  0  0  0  0  0  0
   27.3062  -19.9067  -15.5199 C   0  0  0  0  0  0  0  0  0  0  0  0
   27.4445  -18.6971  -15.1768 O   0  0  0  0  0  0  0  0  0  0  0  0
   28.6083  -18.0820  -20.7700 O   0  0  0  0  0  0  0  0  0  0  0  0
   26.4366  -20.7069  -14.7361 N   0  0  0  0  0  0  0  0  0  0  0  0
   25.6279  -20.1586  -13.6549 C   0  0  1  0  0  0  0  0  0  0  0  0
   24.1659  -20.3915  -13.8098 C   0  0  0  0  0  0  0  0  0  0  0  0
   23.4821  -19.5899  -14.8151 C   0  0  0  0  0  0  0  0  0  0  0  0
   23.8883  -18.5358  -15.5965 C   0  0  0  0  0  0  0  0  0  0  0  0
   22.8736  -18.1085  -16.3898 N   0  0  0  0  0  0  0  0  0  0  0  0
   21.8467  -18.9036  -16.0913 C   0  0  0  0  0  0  0  0  0  0  0  0
   22.1779  -19.7882  -15.1639 N   0  0  0  0  0  0  0  0  0  0  0  0
   26.0347  -20.8493  -12.4009 C   0  0  0  0  0  0  0  0  0  0  0  0
   26.3623  -22.0490  -12.4483 O   0  0  0  0  0  0  0  0  0  0  0  0
   26.0607  -20.1822  -11.1513 N   0  0  0  0  0  0  0  0  0  0  0  0
   26.1014  -20.9636   -9.9420 C   0  0  1  0  0  0  0  0  0  0  0  0
   26.9397  -20.2066   -8.9295 C   0  0  0  0  0  0  0  0  0  0  0  0
   26.0964  -18.6663   -8.5155 S   0  0  0  0  0  0  0  0  0  0  0  0
   24.7279  -21.1814   -9.3873 C   0  0  0  0  0  0  0  0  0  0  0  0
   24.5212  -22.0049   -8.2922 O   0  0  0  0  0  0  0  0  0  0  0  0
   23.7483  -20.6105   -9.9209 O   0  0  0  0  0  0  0  0  0  0  0  0
  2  1  1  6
  2  7  1  0
  3  2  1  0
  4  3  1  0
  5  4  1  0
  6  5  2  0
  7 10  1  0
  7  8  2  0
  9  5  1  0
 10 11  1  0
 11 12  1  6
 12 13  1  0
 13 17  1  0
 14 13  2  0
 14 15  1  0
 15 16  1  0
 17 16  2  0
 18 11  1  0
 18 19  2  0
 20 18  1  0
 21 20  1  0
 21 22  1  1
 23 22  1  0
 24 21  1  0
 25 24  1  0
 26 24  2  0
M  END
$$$$
