VWL.pdb
     RDKit          3D

 30 31  0  0  1  0  0  0  0  0999 V2000
   28.5426  -19.2825  -16.7179 C   0  0  0  0  0  0  0  0  0  0  0  0
   27.6736  -19.7841  -15.6093 C   0  0  1  0  0  0  0  0  0  0  0  0
   26.3082  -20.2190  -16.0628 C   0  0  0  0  0  0  0  0  0  0  0  0
   28.3500  -20.7844  -14.7039 C   0  0  2  0  0  0  0  0  0  0  0  0
   28.4397  -22.0279  -15.4710 N   0  0  0  0  0  0  0  0  0  0  0  0
   27.6328  -21.0738  -13.4624 C   0  0  0  0  0  0  0  0  0  0  0  0
   26.7309  -21.9761  -13.4661 O   0  0  0  0  0  0  0  0  0  0  0  0
   27.8272  -20.4474  -12.2059 N   0  0  0  0  0  0  0  0  0  0  0  0
   27.0648  -20.7365  -11.0266 C   0  0  1  0  0  0  0  0  0  0  0  0
   27.7328  -20.4439   -9.7336 C   0  0  0  0  0  0  0  0  0  0  0  0
   26.9029  -20.5466   -8.5342 C   0  0  0  0  0  0  0  0  0  0  0  0
   25.6569  -21.0869   -8.3110 C   0  0  0  0  0  0  0  0  0  0  0  0
   25.3099  -20.9445   -7.0213 N   0  0  0  0  0  0  0  0  0  0  0  0
   26.3112  -20.3129   -6.3713 C   0  0  0  0  0  0  0  0  0  0  0  0
   26.4324  -19.9406   -5.0505 C   0  0  0  0  0  0  0  0  0  0  0  0
   27.5642  -19.2961   -4.6065 C   0  0  0  0  0  0  0  0  0  0  0  0
   28.5648  -19.0369   -5.5163 C   0  0  0  0  0  0  0  0  0  0  0  0
   28.4389  -19.4112   -6.8362 C   0  0  0  0  0  0  0  0  0  0  0  0
   27.3041  -20.0597   -7.2922 C   0  0  0  0  0  0  0  0  0  0  0  0
   25.6736  -20.1954  -11.1072 C   0  0  0  0  0  0  0  0  0  0  0  0
   25.5516  -18.9532  -11.2595 O   0  0  0  0  0  0  0  0  0  0  0  0
   22.9348  -19.5637  -14.2161 C   0  0  0  0  0  0  0  0  0  0  0  0
   23.1978  -21.0113  -13.8150 C   0  0  2  0  0  0  0  0  0  0  0  0
   22.6064  -21.9427  -14.8586 C   0  0  0  0  0  0  0  0  0  0  0  0
   22.6068  -21.3216  -12.4713 C   0  0  0  0  0  0  0  0  0  0  0  0
   23.2252  -20.4701  -11.4147 C   0  0  2  0  0  0  0  0  0  0  0  0
   24.5319  -21.0046  -11.0217 N   0  0  0  0  0  0  0  0  0  0  0  0
   22.4342  -20.3736  -10.1752 C   0  0  0  0  0  0  0  0  0  0  0  0
   22.5823  -21.2344   -9.2558 O   0  0  0  0  0  0  0  0  0  0  0  0
   21.4985  -19.3692   -9.9188 O   0  0  0  0  0  0  0  0  0  0  0  0
  2  1  1  6
  2  3  1  0
  4  2  1  0
  4  5  1  6
  6  4  1  0
  6  7  2  0
  8  6  1  0
  9  8  1  0
  9 10  1  1
 11 12  2  0
 11 10  1  0
 13 12  1  0
 14 19  2  0
 14 13  1  0
 15 14  1  0
 16 17  1  0
 16 15  2  0
 17 18  2  0
 18 19  1  0
 19 11  1  0
 20  9  1  0
 21 20  2  0
 23 22  1  6
 23 25  1  0
 24 23  1  0
 26 25  1  6
 26 27  1  0
 26 28  1  0
 27 20  1  0
 28 30  1  0
 29 28  2  0
M  END
$$$$
