VWL.pdb
     RDKit          3D

 30 31  0  0  1  0  0  0  0  0999 V2000
   23.6126  -22.2099  -13.5106 C   0  0  0  0  0  0  0  0  0  0  0  0
   22.4646  -21.2666  -13.3432 C   0  0  1  0  0  0  0  0  0  0  0  0
   21.2147  -21.7057  -14.0533 C   0  0  0  0  0  0  0  0  0  0  0  0
   22.2233  -20.8407  -11.9156 C   0  0  2  0  0  0  0  0  0  0  0  0
   21.2300  -19.7673  -11.9764 N   0  0  0  0  0  0  0  0  0  0  0  0
   23.4016  -20.3227  -11.2206 C   0  0  0  0  0  0  0  0  0  0  0  0
   23.8969  -19.2072  -11.5918 O   0  0  0  0  0  0  0  0  0  0  0  0
   24.0864  -20.9356  -10.1415 N   0  0  0  0  0  0  0  0  0  0  0  0
   25.3505  -20.4971   -9.6266 C   0  0  1  0  0  0  0  0  0  0  0  0
   25.5337  -20.6255   -8.1591 C   0  0  0  0  0  0  0  0  0  0  0  0
   26.5788  -19.7979   -7.5587 C   0  0  0  0  0  0  0  0  0  0  0  0
   27.1079  -18.5752   -7.9044 C   0  0  0  0  0  0  0  0  0  0  0  0
   28.0599  -18.2134   -7.0288 N   0  0  0  0  0  0  0  0  0  0  0  0
   28.1782  -19.1812   -6.0942 C   0  0  0  0  0  0  0  0  0  0  0  0
   29.0064  -19.2764   -4.9975 C   0  0  0  0  0  0  0  0  0  0  0  0
   28.9495  -20.3753   -4.1713 C   0  0  0  0  0  0  0  0  0  0  0  0
   28.0455  -21.3696   -4.4720 C   0  0  0  0  0  0  0  0  0  0  0  0
   27.2193  -21.2697   -5.5700 C   0  0  0  0  0  0  0  0  0  0  0  0
   27.2695  -20.1683   -6.4069 C   0  0  0  0  0  0  0  0  0  0  0  0
   26.4996  -21.0400  -10.4140 C   0  0  0  0  0  0  0  0  0  0  0  0
   26.6289  -22.2903  -10.4480 O   0  0  0  0  0  0  0  0  0  0  0  0
   27.3252  -20.8716  -14.5807 C   0  0  0  0  0  0  0  0  0  0  0  0
   27.8319  -19.6025  -13.9037 C   0  0  2  0  0  0  0  0  0  0  0  0
   28.3104  -18.6207  -14.9589 C   0  0  0  0  0  0  0  0  0  0  0  0
   28.9513  -19.9018  -12.9506 C   0  0  0  0  0  0  0  0  0  0  0  0
   28.4946  -20.8305  -11.8769 C   0  0  2  0  0  0  0  0  0  0  0  0
   27.4121  -20.2240  -11.0973 N   0  0  0  0  0  0  0  0  0  0  0  0
   29.5417  -21.1951  -10.9062 C   0  0  0  0  0  0  0  0  0  0  0  0
   30.6026  -21.7684  -11.2983 O   0  0  0  0  0  0  0  0  0  0  0  0
   29.4586  -20.9484   -9.5342 O   0  0  0  0  0  0  0  0  0  0  0  0
  2  1  1  1
  2  3  1  0
  4  2  1  0
  4  5  1  6
  6  4  1  0
  6  7  2  0
  8  6  1  0
  9  8  1  0
  9 10  1  1
 11 12  2  0
 11 10  1  0
 13 12  1  0
 14 19  2  0
 14 13  1  0
 15 14  1  0
 16 17  1  0
 16 15  2  0
 17 18  2  0
 18 19  1  0
 19 11  1  0
 20  9  1  0
 21 20  2  0
 23 22  1  6
 23 25  1  0
 24 23  1  0
 26 25  1  6
 26 27  1  0
 26 28  1  0
 27 20  1  0
 28 30  1  0
 29 28  2  0
M  END
$$$$
