VWL.pdb
     RDKit          3D

 30 31  0  0  1  0  0  0  0  0999 V2000
   27.6418  -17.2475  -17.8250 C   0  0  0  0  0  0  0  0  0  0  0  0
   27.0280  -18.1096  -16.7687 C   0  0  1  0  0  0  0  0  0  0  0  0
   26.0315  -19.1002  -17.3025 C   0  0  0  0  0  0  0  0  0  0  0  0
   28.0279  -18.7204  -15.8174 C   0  0  2  0  0  0  0  0  0  0  0  0
   28.8018  -19.6805  -16.6060 N   0  0  0  0  0  0  0  0  0  0  0  0
   27.4415  -19.4384  -14.6860 C   0  0  0  0  0  0  0  0  0  0  0  0
   27.2755  -20.7003  -14.7743 O   0  0  0  0  0  0  0  0  0  0  0  0
   27.0186  -18.8785  -13.4545 N   0  0  0  0  0  0  0  0  0  0  0  0
   26.4420  -19.6271  -12.3763 C   0  0  1  0  0  0  0  0  0  0  0  0
   26.4273  -18.9539  -11.0533 C   0  0  0  0  0  0  0  0  0  0  0  0
   25.9125  -19.7362   -9.9305 C   0  0  0  0  0  0  0  0  0  0  0  0
   24.7958  -20.5277   -9.7850 C   0  0  0  0  0  0  0  0  0  0  0  0
   24.7528  -21.0527   -8.5495 N   0  0  0  0  0  0  0  0  0  0  0  0
   25.8312  -20.6230   -7.8592 C   0  0  0  0  0  0  0  0  0  0  0  0
   26.2329  -20.8798   -6.5667 C   0  0  0  0  0  0  0  0  0  0  0  0
   27.3883  -20.3220   -6.0695 C   0  0  0  0  0  0  0  0  0  0  0  0
   28.1256  -19.5053   -6.8977 C   0  0  0  0  0  0  0  0  0  0  0  0
   27.7197  -19.2516   -8.1896 C   0  0  0  0  0  0  0  0  0  0  0  0
   26.5588  -19.8080   -8.6985 C   0  0  0  0  0  0  0  0  0  0  0  0
   25.1238  -20.2269  -12.7473 C   0  0  0  0  0  0  0  0  0  0  0  0
   24.3057  -19.4828  -13.3456 O   0  0  0  0  0  0  0  0  0  0  0  0
   24.1325  -23.3008  -15.7732 C   0  0  0  0  0  0  0  0  0  0  0  0
   24.7363  -23.8577  -14.4884 C   0  0  2  0  0  0  0  0  0  0  0  0
   24.9869  -25.3469  -14.6492 C   0  0  0  0  0  0  0  0  0  0  0  0
   23.8324  -23.6236  -13.3140 C   0  0  0  0  0  0  0  0  0  0  0  0
   23.6119  -22.1641  -13.1019 C   0  0  2  0  0  0  0  0  0  0  0  0
   24.7793  -21.5549  -12.4588 N   0  0  0  0  0  0  0  0  0  0  0  0
   22.4590  -21.8448  -12.2414 C   0  0  0  0  0  0  0  0  0  0  0  0
   22.6426  -21.3712  -11.0795 O   0  0  0  0  0  0  0  0  0  0  0  0
   21.1265  -22.0264  -12.6174 O   0  0  0  0  0  0  0  0  0  0  0  0
  2  1  1  6
  2  3  1  0
  4  2  1  0
  4  5  1  6
  6  4  1  0
  6  7  2  0
  8  6  1  0
  9  8  1  0
  9 10  1  1
 11 12  2  0
 11 10  1  0
 13 12  1  0
 14 19  2  0
 14 13  1  0
 15 14  1  0
 16 17  1  0
 16 15  2  0
 17 18  2  0
 18 19  1  0
 19 11  1  0
 20  9  1  0
 21 20  2  0
 23 22  1  6
 23 25  1  0
 24 23  1  0
 26 25  1  1
 26 27  1  0
 26 28  1  0
 27 20  1  0
 28 30  1  0
 29 28  2  0
M  END
$$$$
