VWL.pdb
     RDKit          3D

 30 31  0  0  1  0  0  0  0  0999 V2000
   26.3460  -18.4598  -15.5234 C   0  0  0  0  0  0  0  0  0  0  0  0
   27.2570  -19.6016  -15.8428 C   0  0  1  0  0  0  0  0  0  0  0  0
   28.3557  -19.2458  -16.8048 C   0  0  0  0  0  0  0  0  0  0  0  0
   27.7449  -20.3554  -14.6297 C   0  0  2  0  0  0  0  0  0  0  0  0
   28.4206  -21.5492  -15.1404 N   0  0  0  0  0  0  0  0  0  0  0  0
   26.6925  -20.7931  -13.7131 C   0  0  0  0  0  0  0  0  0  0  0  0
   25.9751  -21.7989  -14.0314 O   0  0  0  0  0  0  0  0  0  0  0  0
   26.3607  -20.2109  -12.4640 N   0  0  0  0  0  0  0  0  0  0  0  0
   25.3632  -20.7201  -11.5689 C   0  0  1  0  0  0  0  0  0  0  0  0
   25.6404  -20.5458  -10.1209 C   0  0  0  0  0  0  0  0  0  0  0  0
   26.9701  -20.9426   -9.6603 C   0  0  0  0  0  0  0  0  0  0  0  0
   27.9444  -21.7416  -10.2143 C   0  0  0  0  0  0  0  0  0  0  0  0
   29.0146  -21.8028   -9.4051 N   0  0  0  0  0  0  0  0  0  0  0  0
   28.7718  -21.0515   -8.3094 C   0  0  0  0  0  0  0  0  0  0  0  0
   29.5512  -20.7970   -7.2023 C   0  0  0  0  0  0  0  0  0  0  0  0
   29.0875  -19.9861   -6.1919 C   0  0  0  0  0  0  0  0  0  0  0  0
   27.8298  -19.4404   -6.3207 C   0  0  0  0  0  0  0  0  0  0  0  0
   27.0542  -19.6978   -7.4299 C   0  0  0  0  0  0  0  0  0  0  0  0
   27.5120  -20.5125   -8.4511 C   0  0  0  0  0  0  0  0  0  0  0  0
   23.9842  -20.2962  -11.9604 C   0  0  0  0  0  0  0  0  0  0  0  0
   23.8639  -19.1624  -12.4905 O   0  0  0  0  0  0  0  0  0  0  0  0
   20.2477  -20.5924  -14.8140 C   0  0  0  0  0  0  0  0  0  0  0  0
   21.2996  -21.6482  -15.1374 C   0  0  2  0  0  0  0  0  0  0  0  0
   20.6226  -22.9907  -15.3506 C   0  0  0  0  0  0  0  0  0  0  0  0
   22.3125  -21.7648  -14.0367 C   0  0  0  0  0  0  0  0  0  0  0  0
   21.7999  -21.1442  -12.7814 C   0  0  2  0  0  0  0  0  0  0  0  0
   22.8519  -21.0988  -11.7623 N   0  0  0  0  0  0  0  0  0  0  0  0
   20.6690  -21.8633  -12.1687 C   0  0  0  0  0  0  0  0  0  0  0  0
   19.5302  -21.3111  -12.0893 O   0  0  0  0  0  0  0  0  0  0  0  0
   20.7518  -23.1570  -11.6495 O   0  0  0  0  0  0  0  0  0  0  0  0
  2  1  1  1
  2  3  1  0
  4  2  1  0
  4  5  1  6
  6  4  1  0
  6  7  2  0
  8  6  1  0
  9  8  1  0
  9 10  1  1
 11 12  2  0
 11 10  1  0
 13 12  1  0
 14 19  2  0
 14 13  1  0
 15 14  1  0
 16 17  1  0
 16 15  2  0
 17 18  2  0
 18 19  1  0
 19 11  1  0
 20  9  1  0
 21 20  2  0
 23 22  1  1
 23 25  1  0
 24 23  1  0
 26 25  1  6
 26 27  1  0
 26 28  1  0
 27 20  1  0
 28 30  1  0
 29 28  2  0
M  END
$$$$
