VWL.pdb
     RDKit          3D

 30 31  0  0  1  0  0  0  0  0999 V2000
   25.5520  -24.2796  -19.8986 C   0  0  0  0  0  0  0  0  0  0  0  0
   26.0345  -23.6701  -18.6214 C   0  0  1  0  0  0  0  0  0  0  0  0
   26.9397  -24.5700  -17.8277 C   0  0  0  0  0  0  0  0  0  0  0  0
   26.5700  -22.2673  -18.7746 C   0  0  2  0  0  0  0  0  0  0  0  0
   27.7990  -22.3876  -19.5607 N   0  0  0  0  0  0  0  0  0  0  0  0
   26.9045  -21.5959  -17.5190 C   0  0  0  0  0  0  0  0  0  0  0  0
   28.1310  -21.4826  -17.1867 O   0  0  0  0  0  0  0  0  0  0  0  0
   25.9934  -21.0337  -16.5900 N   0  0  0  0  0  0  0  0  0  0  0  0
   26.3698  -20.4316  -15.3445 C   0  0  1  0  0  0  0  0  0  0  0  0
   25.5023  -19.3243  -14.8702 C   0  0  0  0  0  0  0  0  0  0  0  0
   25.8724  -18.7067  -13.5977 C   0  0  0  0  0  0  0  0  0  0  0  0
   26.7441  -17.6907  -13.2776 C   0  0  0  0  0  0  0  0  0  0  0  0
   26.7384  -17.4700  -11.9528 N   0  0  0  0  0  0  0  0  0  0  0  0
   25.8700  -18.3280  -11.3751 C   0  0  0  0  0  0  0  0  0  0  0  0
   25.5134  -18.4943  -10.0549 C   0  0  0  0  0  0  0  0  0  0  0  0
   24.5906  -19.4493   -9.6946 C   0  0  0  0  0  0  0  0  0  0  0  0
   24.0383  -20.2279  -10.6872 C   0  0  0  0  0  0  0  0  0  0  0  0
   24.3983  -20.0577  -12.0061 C   0  0  0  0  0  0  0  0  0  0  0  0
   25.3257  -19.0998  -12.3781 C   0  0  0  0  0  0  0  0  0  0  0  0
   26.6556  -21.4505  -14.2886 C   0  0  0  0  0  0  0  0  0  0  0  0
   25.9637  -22.5003  -14.3055 O   0  0  0  0  0  0  0  0  0  0  0  0
   31.2998  -21.1367  -11.1851 C   0  0  0  0  0  0  0  0  0  0  0  0
   29.7861  -21.1102  -11.3684 C   0  0  2  0  0  0  0  0  0  0  0  0
   29.1183  -20.8215  -10.0354 C   0  0  0  0  0  0  0  0  0  0  0  0
   29.2792  -22.4130  -11.9133 C   0  0  0  0  0  0  0  0  0  0  0  0
   27.8376  -22.3054  -12.2796 C   0  0  2  0  0  0  0  0  0  0  0  0
   27.6425  -21.2796  -13.3077 N   0  0  0  0  0  0  0  0  0  0  0  0
   26.9547  -21.9338  -11.1597 C   0  0  0  0  0  0  0  0  0  0  0  0
   26.9054  -20.7319  -10.7585 O   0  0  0  0  0  0  0  0  0  0  0  0
   26.1325  -22.8336  -10.4782 O   0  0  0  0  0  0  0  0  0  0  0  0
  2  1  1  6
  2  3  1  0
  4  2  1  0
  4  5  1  6
  6  4  1  0
  6  7  2  0
  8  6  1  0
  9  8  1  0
  9 10  1  1
 11 12  2  0
 11 10  1  0
 13 12  1  0
 14 19  2  0
 14 13  1  0
 15 14  1  0
 16 17  1  0
 16 15  2  0
 17 18  2  0
 18 19  1  0
 19 11  1  0
 20  9  1  0
 21 20  2  0
 23 22  1  1
 23 25  1  0
 24 23  1  0
 26 25  1  1
 26 27  1  0
 26 28  1  0
 27 20  1  0
 28 30  1  0
 29 28  2  0
M  END
$$$$
