VWL.pdb
     RDKit          3D

 30 31  0  0  1  0  0  0  0  0999 V2000
   29.3599  -19.4857  -18.3185 C   0  0  0  0  0  0  0  0  0  0  0  0
   29.0214  -20.9320  -18.4890 C   0  0  1  0  0  0  0  0  0  0  0  0
   29.9089  -21.6478  -19.4684 C   0  0  0  0  0  0  0  0  0  0  0  0
   28.8413  -21.6776  -17.1892 C   0  0  2  0  0  0  0  0  0  0  0  0
   28.3979  -23.0242  -17.5538 N   0  0  0  0  0  0  0  0  0  0  0  0
   27.8433  -21.1061  -16.2854 C   0  0  0  0  0  0  0  0  0  0  0  0
   28.1100  -20.0143  -15.6817 O   0  0  0  0  0  0  0  0  0  0  0  0
   26.5648  -21.6408  -15.9878 N   0  0  0  0  0  0  0  0  0  0  0  0
   25.5907  -21.0020  -15.1521 C   0  0  1  0  0  0  0  0  0  0  0  0
   24.1967  -21.0027  -15.6626 C   0  0  0  0  0  0  0  0  0  0  0  0
   23.2069  -20.2929  -14.8537 C   0  0  0  0  0  0  0  0  0  0  0  0
   23.1523  -19.0042  -14.3733 C   0  0  0  0  0  0  0  0  0  0  0  0
   22.0217  -18.8138  -13.6737 N   0  0  0  0  0  0  0  0  0  0  0  0
   21.3118  -19.9627  -13.6778 C   0  0  0  0  0  0  0  0  0  0  0  0
   20.0971  -20.2718  -13.1062 C   0  0  0  0  0  0  0  0  0  0  0  0
   19.5589  -21.5306  -13.2449 C   0  0  0  0  0  0  0  0  0  0  0  0
   20.2665  -22.4650  -13.9677 C   0  0  0  0  0  0  0  0  0  0  0  0
   21.4810  -22.1510  -14.5375 C   0  0  0  0  0  0  0  0  0  0  0  0
   22.0304  -20.8876  -14.4032 C   0  0  0  0  0  0  0  0  0  0  0  0
   25.6967  -21.4387  -13.7263 C   0  0  0  0  0  0  0  0  0  0  0  0
   25.6505  -22.6752  -13.5027 O   0  0  0  0  0  0  0  0  0  0  0  0
   28.7689  -21.8918  -10.9784 C   0  0  0  0  0  0  0  0  0  0  0  0
   28.3123  -20.4403  -11.0792 C   0  0  2  0  0  0  0  0  0  0  0  0
   29.2924  -19.5472  -10.3390 C   0  0  0  0  0  0  0  0  0  0  0  0
   26.9367  -20.2597  -10.5078 C   0  0  0  0  0  0  0  0  0  0  0  0
   25.9357  -21.0439  -11.2868 C   0  0  2  0  0  0  0  0  0  0  0  0
   25.8426  -20.5405  -12.6599 N   0  0  0  0  0  0  0  0  0  0  0  0
   24.5684  -20.9929  -10.7398 C   0  0  0  0  0  0  0  0  0  0  0  0
   24.3208  -21.4807   -9.5958 O   0  0  0  0  0  0  0  0  0  0  0  0
   23.4791  -20.4258  -11.4046 O   0  0  0  0  0  0  0  0  0  0  0  0
  2  1  1  1
  2  3  1  0
  4  2  1  0
  4  5  1  6
  6  4  1  0
  6  7  2  0
  8  6  1  0
  9  8  1  0
  9 10  1  6
 11 12  2  0
 11 10  1  0
 13 12  1  0
 14 19  2  0
 14 13  1  0
 15 14  1  0
 16 17  1  0
 16 15  2  0
 17 18  2  0
 18 19  1  0
 19 11  1  0
 20  9  1  0
 21 20  2  0
 23 22  1  1
 23 25  1  0
 24 23  1  0
 26 25  1  1
 26 27  1  0
 26 28  1  0
 27 20  1  0
 28 30  1  0
 29 28  2  0
M  END
$$$$
