VWL.pdb
     RDKit          3D

 30 31  0  0  1  0  0  0  0  0999 V2000
   28.3173  -17.1366  -15.8067 C   0  0  0  0  0  0  0  0  0  0  0  0
   28.3988  -18.5698  -16.2248 C   0  0  1  0  0  0  0  0  0  0  0  0
   29.3640  -18.8158  -17.3505 C   0  0  0  0  0  0  0  0  0  0  0  0
   28.5604  -19.5358  -15.0764 C   0  0  2  0  0  0  0  0  0  0  0  0
   28.5819  -20.8725  -15.6727 N   0  0  0  0  0  0  0  0  0  0  0  0
   27.4824  -19.5027  -14.0884 C   0  0  0  0  0  0  0  0  0  0  0  0
   27.3568  -18.4731  -13.3456 O   0  0  0  0  0  0  0  0  0  0  0  0
   26.5225  -20.5173  -13.8474 N   0  0  0  0  0  0  0  0  0  0  0  0
   25.4137  -20.3905  -12.9474 C   0  0  1  0  0  0  0  0  0  0  0  0
   24.0947  -20.8178  -13.4778 C   0  0  0  0  0  0  0  0  0  0  0  0
   22.9363  -20.5667  -12.6217 C   0  0  0  0  0  0  0  0  0  0  0  0
   22.5124  -19.4503  -11.9373 C   0  0  0  0  0  0  0  0  0  0  0  0
   21.3682  -19.7094  -11.2835 N   0  0  0  0  0  0  0  0  0  0  0  0
   21.0152  -20.9912  -11.5207 C   0  0  0  0  0  0  0  0  0  0  0  0
   19.9338  -21.7227  -11.0810 C   0  0  0  0  0  0  0  0  0  0  0  0
   19.7780  -23.0366  -11.4588 C   0  0  0  0  0  0  0  0  0  0  0  0
   20.7291  -23.5937  -12.2843 C   0  0  0  0  0  0  0  0  0  0  0  0
   21.8088  -22.8580  -12.7214 C   0  0  0  0  0  0  0  0  0  0  0  0
   21.9741  -21.5358  -12.3465 C   0  0  0  0  0  0  0  0  0  0  0  0
   25.7163  -20.9537  -11.5961 C   0  0  0  0  0  0  0  0  0  0  0  0
   26.2715  -22.0813  -11.5584 O   0  0  0  0  0  0  0  0  0  0  0  0
   28.3626  -21.0399   -7.9380 C   0  0  0  0  0  0  0  0  0  0  0  0
   27.5994  -19.7482   -8.2116 C   0  0  2  0  0  0  0  0  0  0  0  0
   28.0395  -18.6801   -7.2259 C   0  0  0  0  0  0  0  0  0  0  0  0
   26.1176  -19.9556   -8.1004 C   0  0  0  0  0  0  0  0  0  0  0  0
   25.6464  -20.9424   -9.1143 C   0  0  2  0  0  0  0  0  0  0  0  0
   25.4108  -20.2848  -10.4025 N   0  0  0  0  0  0  0  0  0  0  0  0
   24.3835  -21.6153   -8.7627 C   0  0  0  0  0  0  0  0  0  0  0  0
   24.3395  -22.4151   -7.7796 O   0  0  0  0  0  0  0  0  0  0  0  0
   23.1814  -21.4347   -9.4502 O   0  0  0  0  0  0  0  0  0  0  0  0
  2  1  1  1
  2  3  1  0
  4  2  1  0
  4  5  1  6
  6  4  1  0
  6  7  2  0
  8  6  1  0
  9  8  1  0
  9 10  1  6
 11 12  2  0
 11 10  1  0
 13 12  1  0
 14 19  2  0
 14 13  1  0
 15 14  1  0
 16 17  1  0
 16 15  2  0
 17 18  2  0
 18 19  1  0
 19 11  1  0
 20  9  1  0
 21 20  2  0
 23 22  1  1
 23 25  1  0
 24 23  1  0
 26 25  1  1
 26 27  1  0
 26 28  1  0
 27 20  1  0
 28 30  1  0
 29 28  2  0
M  END
$$$$
