VWL.pdb
     RDKit          3D

 30 31  0  0  1  0  0  0  0  0999 V2000
   28.3302  -20.2373  -16.6121 C   0  0  0  0  0  0  0  0  0  0  0  0
   27.8670  -20.8293  -15.3196 C   0  0  1  0  0  0  0  0  0  0  0  0
   28.9563  -21.5196  -14.5476 C   0  0  0  0  0  0  0  0  0  0  0  0
   27.0388  -19.8906  -14.4764 C   0  0  2  0  0  0  0  0  0  0  0  0
   27.8819  -18.7201  -14.2281 N   0  0  0  0  0  0  0  0  0  0  0  0
   26.6263  -20.4294  -13.1807 C   0  0  0  0  0  0  0  0  0  0  0  0
   25.7067  -21.3129  -13.1435 O   0  0  0  0  0  0  0  0  0  0  0  0
   27.1460  -20.0736  -11.9109 N   0  0  0  0  0  0  0  0  0  0  0  0
   26.5852  -20.4869  -10.6579 C   0  0  1  0  0  0  0  0  0  0  0  0
   27.4716  -20.3545   -9.4745 C   0  0  0  0  0  0  0  0  0  0  0  0
   26.8455  -20.5472   -8.1673 C   0  0  0  0  0  0  0  0  0  0  0  0
   25.6787  -21.1654   -7.7789 C   0  0  0  0  0  0  0  0  0  0  0  0
   25.5306  -21.0892   -6.4462 N   0  0  0  0  0  0  0  0  0  0  0  0
   26.5877  -20.4251   -5.9309 C   0  0  0  0  0  0  0  0  0  0  0  0
   26.8946  -20.0940   -4.6293 C   0  0  0  0  0  0  0  0  0  0  0  0
   28.0475  -19.4023   -4.3369 C   0  0  0  0  0  0  0  0  0  0  0  0
   28.8794  -19.0540   -5.3776 C   0  0  0  0  0  0  0  0  0  0  0  0
   28.5680  -19.3874   -6.6776 C   0  0  0  0  0  0  0  0  0  0  0  0
   27.4104  -20.0829   -6.9815 C   0  0  0  0  0  0  0  0  0  0  0  0
   25.2188  -19.9219  -10.4373 C   0  0  0  0  0  0  0  0  0  0  0  0
   25.0888  -18.6772  -10.5595 O   0  0  0  0  0  0  0  0  0  0  0  0
   20.3553  -21.2017  -12.1315 C   0  0  0  0  0  0  0  0  0  0  0  0
   21.2866  -20.0516  -12.4999 C   0  0  2  0  0  0  0  0  0  0  0  0
   21.2706  -19.8475  -14.0046 C   0  0  0  0  0  0  0  0  0  0  0  0
   22.6908  -20.3184  -12.0433 C   0  0  0  0  0  0  0  0  0  0  0  0
   22.7700  -20.3142  -10.5542 C   0  0  2  0  0  0  0  0  0  0  0  0
   24.1082  -20.7117  -10.1085 N   0  0  0  0  0  0  0  0  0  0  0  0
   21.8295  -21.2377   -9.8954 C   0  0  0  0  0  0  0  0  0  0  0  0
   20.6280  -20.8864   -9.6924 O   0  0  0  0  0  0  0  0  0  0  0  0
   22.1663  -22.5215   -9.4611 O   0  0  0  0  0  0  0  0  0  0  0  0
  2  1  1  6
  2  3  1  0
  4  2  1  0
  4  5  1  1
  6  4  1  0
  6  7  2  0
  8  6  1  0
  9  8  1  0
  9 10  1  1
 11 12  2  0
 11 10  1  0
 13 12  1  0
 14 19  2  0
 14 13  1  0
 15 14  1  0
 16 17  1  0
 16 15  2  0
 17 18  2  0
 18 19  1  0
 19 11  1  0
 20  9  1  0
 21 20  2  0
 23 22  1  6
 23 25  1  0
 24 23  1  0
 26 25  1  6
 26 27  1  0
 26 28  1  0
 27 20  1  0
 28 30  1  0
 29 28  2  0
M  END
$$$$
