VWL.pdb
     RDKit          3D

 30 31  0  0  1  0  0  0  0  0999 V2000
   29.8655  -20.7794  -17.0293 C   0  0  0  0  0  0  0  0  0  0  0  0
   28.9074  -20.4377  -15.9334 C   0  0  1  0  0  0  0  0  0  0  0  0
   29.4078  -19.3646  -15.0075 C   0  0  0  0  0  0  0  0  0  0  0  0
   27.4920  -20.2089  -16.4047 C   0  0  2  0  0  0  0  0  0  0  0  0
   27.5570  -19.0965  -17.3540 N   0  0  0  0  0  0  0  0  0  0  0  0
   26.5441  -19.8452  -15.3517 C   0  0  0  0  0  0  0  0  0  0  0  0
   26.4408  -18.6205  -15.0097 O   0  0  0  0  0  0  0  0  0  0  0  0
   25.6929  -20.7250  -14.6373 N   0  0  0  0  0  0  0  0  0  0  0  0
   24.8419  -20.3310  -13.5528 C   0  0  1  0  0  0  0  0  0  0  0  0
   23.3949  -20.6122  -13.7277 C   0  0  0  0  0  0  0  0  0  0  0  0
   22.4770  -19.8528  -12.8799 C   0  0  0  0  0  0  0  0  0  0  0  0
   21.9154  -18.6026  -13.0067 C   0  0  0  0  0  0  0  0  0  0  0  0
   21.1184  -18.3398  -11.9581 N   0  0  0  0  0  0  0  0  0  0  0  0
   21.1364  -19.4020  -11.1242 C   0  0  0  0  0  0  0  0  0  0  0  0
   20.4899  -19.6169   -9.9269 C   0  0  0  0  0  0  0  0  0  0  0  0
   20.6620  -20.7973   -9.2410 C   0  0  0  0  0  0  0  0  0  0  0  0
   21.4941  -21.7505   -9.7845 C   0  0  0  0  0  0  0  0  0  0  0  0
   22.1384  -21.5309  -10.9823 C   0  0  0  0  0  0  0  0  0  0  0  0
   21.9716  -20.3466  -11.6793 C   0  0  0  0  0  0  0  0  0  0  0  0
   25.3731  -20.7761  -12.2282 C   0  0  0  0  0  0  0  0  0  0  0  0
   25.8534  -21.9366  -12.1659 O   0  0  0  0  0  0  0  0  0  0  0  0
   27.3725  -18.6553   -6.8174 C   0  0  0  0  0  0  0  0  0  0  0  0
   27.1991  -19.7975   -7.8128 C   0  0  2  0  0  0  0  0  0  0  0  0
   28.5481  -20.4365   -8.0923 C   0  0  0  0  0  0  0  0  0  0  0  0
   26.5953  -19.3144   -9.0986 C   0  0  0  0  0  0  0  0  0  0  0  0
   25.9609  -20.4426   -9.8391 C   0  0  2  0  0  0  0  0  0  0  0  0
   25.3548  -19.9650  -11.0849 N   0  0  0  0  0  0  0  0  0  0  0  0
   24.8857  -21.1248   -9.0975 C   0  0  0  0  0  0  0  0  0  0  0  0
   24.9029  -22.3859   -8.9659 O   0  0  0  0  0  0  0  0  0  0  0  0
   23.8067  -20.4687   -8.5013 O   0  0  0  0  0  0  0  0  0  0  0  0
  2  1  1  6
  2  3  1  0
  4  2  1  0
  4  5  1  6
  6  4  1  0
  6  7  2  0
  8  6  1  0
  9  8  1  0
  9 10  1  6
 11 12  2  0
 11 10  1  0
 13 12  1  0
 14 19  2  0
 14 13  1  0
 15 14  1  0
 16 17  1  0
 16 15  2  0
 17 18  2  0
 18 19  1  0
 19 11  1  0
 20  9  1  0
 21 20  2  0
 23 22  1  1
 23 25  1  0
 24 23  1  0
 26 25  1  1
 26 27  1  0
 26 28  1  0
 27 20  1  0
 28 30  1  0
 29 28  2  0
M  END
$$$$
