SYP.pdb
     RDKit          3D

 26 27  0  0  1  0  0  0  0  0999 V2000
    5.8278  -20.0310   20.6653 O   0  0  0  0  0  0  0  0  0  0  0  0
    5.2050  -20.5306   21.7866 C   0  0  0  0  0  0  0  0  0  0  0  0
    4.3119  -19.4790   22.3933 C   0  0  2  0  0  0  0  0  0  0  0  0
    3.1952  -19.2545   21.4830 N   0  0  0  0  0  0  0  0  0  0  0  0
    4.9871  -18.1763   22.6070 C   0  0  0  0  0  0  0  0  0  0  0  0
    4.7375  -17.1943   21.8393 O   0  0  0  0  0  0  0  0  0  0  0  0
    7.8188  -11.2560   27.1365 O   0  0  0  0  0  0  0  0  0  0  0  0
    7.5470  -12.5681   26.6999 C   0  0  0  0  0  0  0  0  0  0  0  0
    8.5644  -13.4399   26.3860 C   0  0  0  0  0  0  0  0  0  0  0  0
    8.2736  -14.7395   25.9545 C   0  0  0  0  0  0  0  0  0  0  0  0
    6.9660  -15.1677   25.8370 C   0  0  0  0  0  0  0  0  0  0  0  0
    6.6710  -16.5132   25.3780 C   0  0  0  0  0  0  0  0  0  0  0  0
    6.4761  -16.6396   23.8575 C   0  0  2  0  0  0  0  0  0  0  0  0
    5.9250  -17.9349   23.6455 N   0  0  0  0  0  0  0  0  0  0  0  0
    7.6467  -16.2665   23.0845 C   0  0  0  0  0  0  0  0  0  0  0  0
    8.5807  -17.1462   23.0744 O   0  0  0  0  0  0  0  0  0  0  0  0
    5.9390  -14.3010   26.1491 C   0  0  0  0  0  0  0  0  0  0  0  0
    6.2438  -13.0038   26.5795 C   0  0  0  0  0  0  0  0  0  0  0  0
    7.8218  -15.0225   22.3552 N   0  0  0  0  0  0  0  0  0  0  0  0
    6.9896  -13.8749   22.3563 C   0  0  0  0  0  0  0  0  0  0  0  0
    7.8791  -12.7718   21.7883 C   0  0  0  0  0  0  0  0  0  0  0  0
    8.7893  -13.5180   20.8394 C   0  0  0  0  0  0  0  0  0  0  0  0
    8.9567  -14.8242   21.5071 C   0  0  1  0  0  0  0  0  0  0  0  0
   10.2339  -14.9236   22.2737 C   0  0  0  0  0  0  0  0  0  0  0  0
   11.4420  -15.0183   21.6330 O   0  0  0  0  0  0  0  0  0  0  0  0
   10.1731  -14.9185   23.5149 O   0  0  0  0  0  0  0  0  0  0  0  0
  1  2  1  0
  3  2  1  0
  3  4  1  6
  5  3  1  0
  5  6  2  0
  7  8  1  0
  8 18  2  0
  9  8  1  0
  9 10  2  0
 10 11  1  0
 11 17  2  0
 11 12  1  0
 13 12  1  1
 13 14  1  0
 14  5  1  0
 15 13  1  0
 16 15  2  0
 18 17  1  0
 19 23  1  0
 19 15  1  0
 20 21  1  0
 20 19  1  0
 21 22  1  0
 23 22  1  0
 23 24  1  1
 25 24  1  0
 26 24  2  0
M  END
$$$$
