SYP.pdb
     RDKit          3D

 26 27  0  0  1  0  0  0  0  0999 V2000
    7.2466  -19.9829   22.5460 O   0  0  0  0  0  0  0  0  0  0  0  0
    7.7171  -19.8057   23.8274 C   0  0  0  0  0  0  0  0  0  0  0  0
    6.8531  -18.8130   24.5622 C   0  0  2  0  0  0  0  0  0  0  0  0
    5.5075  -19.3668   24.6552 N   0  0  0  0  0  0  0  0  0  0  0  0
    6.7525  -17.4972   23.8862 C   0  0  0  0  0  0  0  0  0  0  0  0
    5.6562  -17.1348   23.3545 O   0  0  0  0  0  0  0  0  0  0  0  0
    6.2220  -12.6710   28.6165 O   0  0  0  0  0  0  0  0  0  0  0  0
    6.7890  -13.0725   27.3904 C   0  0  0  0  0  0  0  0  0  0  0  0
    6.2739  -12.6376   26.1907 C   0  0  0  0  0  0  0  0  0  0  0  0
    6.8517  -13.0477   24.9833 C   0  0  0  0  0  0  0  0  0  0  0  0
    7.9443  -13.8922   24.9751 C   0  0  0  0  0  0  0  0  0  0  0  0
    8.5318  -14.3226   23.7191 C   0  0  0  0  0  0  0  0  0  0  0  0
    7.7311  -15.4083   22.9799 C   0  0  2  0  0  0  0  0  0  0  0  0
    7.8293  -16.5768   23.7871 N   0  0  0  0  0  0  0  0  0  0  0  0
    8.0666  -15.5267   21.5727 C   0  0  0  0  0  0  0  0  0  0  0  0
    8.5159  -16.6778   21.2274 O   0  0  0  0  0  0  0  0  0  0  0  0
    8.4677  -14.3338   26.1727 C   0  0  0  0  0  0  0  0  0  0  0  0
    7.8802  -13.9161   27.3732 C   0  0  0  0  0  0  0  0  0  0  0  0
    7.9324  -14.4780   20.5765 N   0  0  0  0  0  0  0  0  0  0  0  0
    7.4860  -13.1444   20.7545 C   0  0  0  0  0  0  0  0  0  0  0  0
    7.9719  -12.4208   19.5011 C   0  0  0  0  0  0  0  0  0  0  0  0
    7.9384  -13.5019   18.4447 C   0  0  0  0  0  0  0  0  0  0  0  0
    8.2824  -14.7168   19.2101 C   0  0  1  0  0  0  0  0  0  0  0  0
    9.7190  -15.0997   19.0743 C   0  0  0  0  0  0  0  0  0  0  0  0
   10.1689  -15.7963   17.9828 O   0  0  0  0  0  0  0  0  0  0  0  0
   10.5008  -14.7690   19.9819 O   0  0  0  0  0  0  0  0  0  0  0  0
  1  2  1  0
  3  2  1  0
  3  4  1  6
  5  3  1  0
  5  6  2  0
  7  8  1  0
  8 18  2  0
  9  8  1  0
  9 10  2  0
 10 11  1  0
 11 17  2  0
 11 12  1  0
 13 12  1  1
 13 14  1  0
 14  5  1  0
 15 13  1  0
 16 15  2  0
 18 17  1  0
 19 23  1  0
 19 15  1  0
 20 21  1  0
 20 19  1  0
 21 22  1  0
 23 22  1  0
 23 24  1  1
 25 24  1  0
 26 24  2  0
M  END
$$$$
