SYP.pdb
     RDKit          3D

 26 27  0  0  1  0  0  0  0  0999 V2000
   12.0438  -19.0534   22.2895 O   0  0  0  0  0  0  0  0  0  0  0  0
   11.2320  -18.6594   21.2499 C   0  0  0  0  0  0  0  0  0  0  0  0
   11.3108  -17.1650   21.0706 C   0  0  2  0  0  0  0  0  0  0  0  0
   12.6878  -16.8221   20.7354 N   0  0  0  0  0  0  0  0  0  0  0  0
   10.9394  -16.3998   22.2851 C   0  0  0  0  0  0  0  0  0  0  0  0
   11.8175  -15.7218   22.9059 O   0  0  0  0  0  0  0  0  0  0  0  0
    5.7879  -11.4150   27.4681 O   0  0  0  0  0  0  0  0  0  0  0  0
    6.2997  -12.3386   26.5347 C   0  0  0  0  0  0  0  0  0  0  0  0
    7.1029  -11.9299   25.4947 C   0  0  0  0  0  0  0  0  0  0  0  0
    7.6017  -12.8631   24.5781 C   0  0  0  0  0  0  0  0  0  0  0  0
    7.2978  -14.2045   24.7011 C   0  0  0  0  0  0  0  0  0  0  0  0
    7.8092  -15.1656   23.7404 C   0  0  0  0  0  0  0  0  0  0  0  0
    9.2979  -15.5112   23.9154 C   0  0  2  0  0  0  0  0  0  0  0  0
    9.6265  -16.3651   22.8248 N   0  0  0  0  0  0  0  0  0  0  0  0
    9.6416  -15.9577   25.2531 C   0  0  0  0  0  0  0  0  0  0  0  0
    9.5567  -17.2257   25.4295 O   0  0  0  0  0  0  0  0  0  0  0  0
    6.4932  -14.6240   25.7402 C   0  0  0  0  0  0  0  0  0  0  0  0
    6.0008  -13.6803   26.6501 C   0  0  0  0  0  0  0  0  0  0  0  0
   10.0570  -15.1043   26.3528 N   0  0  0  0  0  0  0  0  0  0  0  0
   10.0903  -13.6881   26.4062 C   0  0  0  0  0  0  0  0  0  0  0  0
   10.1742  -13.3756   27.8982 C   0  0  0  0  0  0  0  0  0  0  0  0
   10.9395  -14.5549   28.4545 C   0  0  0  0  0  0  0  0  0  0  0  0
   10.4951  -15.6683   27.5924 C   0  0  1  0  0  0  0  0  0  0  0  0
    9.4252  -16.4973   28.2224 C   0  0  0  0  0  0  0  0  0  0  0  0
    9.6889  -17.2946   29.3058 O   0  0  0  0  0  0  0  0  0  0  0  0
    8.2827  -16.4458   27.7361 O   0  0  0  0  0  0  0  0  0  0  0  0
  1  2  1  0
  3  2  1  0
  3  4  1  1
  5  3  1  0
  5  6  2  0
  7  8  1  0
  8 18  2  0
  9  8  1  0
  9 10  2  0
 10 11  1  0
 11 17  2  0
 11 12  1  0
 13 12  1  1
 13 14  1  0
 14  5  1  0
 15 13  1  0
 16 15  2  0
 18 17  1  0
 19 23  1  0
 19 15  1  0
 20 21  1  0
 20 19  1  0
 21 22  1  0
 23 22  1  0
 23 24  1  1
 25 24  1  0
 26 24  2  0
M  END
$$$$
