SYP.pdb
     RDKit          3D

 26 27  0  0  1  0  0  0  0  0999 V2000
    5.7963  -19.6989   20.4234 O   0  0  0  0  0  0  0  0  0  0  0  0
    5.2507  -20.4013   21.4740 C   0  0  0  0  0  0  0  0  0  0  0  0
    4.3346  -19.5090   22.2717 C   0  0  2  0  0  0  0  0  0  0  0  0
    3.1124  -19.3118   21.5014 N   0  0  0  0  0  0  0  0  0  0  0  0
    4.9074  -18.1714   22.5571 C   0  0  0  0  0  0  0  0  0  0  0  0
    4.5596  -17.1663   21.8608 O   0  0  0  0  0  0  0  0  0  0  0  0
    7.9113  -11.2421   26.9882 O   0  0  0  0  0  0  0  0  0  0  0  0
    7.6051  -12.5481   26.5563 C   0  0  0  0  0  0  0  0  0  0  0  0
    6.3015  -12.9741   26.4433 C   0  0  0  0  0  0  0  0  0  0  0  0
    6.0181  -14.2755   26.0120 C   0  0  0  0  0  0  0  0  0  0  0  0
    7.0376  -15.1508   25.6936 C   0  0  0  0  0  0  0  0  0  0  0  0
    6.7370  -16.5027   25.2577 C   0  0  0  0  0  0  0  0  0  0  0  0
    6.4416  -16.6367   23.7540 C   0  0  2  0  0  0  0  0  0  0  0  0
    5.8485  -17.9204   23.5903 N   0  0  0  0  0  0  0  0  0  0  0  0
    7.5681  -16.2973   22.9039 C   0  0  0  0  0  0  0  0  0  0  0  0
    8.4654  -17.2105   22.8191 O   0  0  0  0  0  0  0  0  0  0  0  0
    8.3478  -14.7331   25.8039 C   0  0  0  0  0  0  0  0  0  0  0  0
    8.6174  -13.4289   26.2365 C   0  0  0  0  0  0  0  0  0  0  0  0
    7.7382  -15.0515   22.1764 N   0  0  0  0  0  0  0  0  0  0  0  0
    6.9198  -13.8943   22.2057 C   0  0  0  0  0  0  0  0  0  0  0  0
    7.8066  -12.7986   21.6196 C   0  0  0  0  0  0  0  0  0  0  0  0
    8.6822  -13.5502   20.6427 C   0  0  0  0  0  0  0  0  0  0  0  0
    8.8521  -14.8619   21.2991 C   0  0  1  0  0  0  0  0  0  0  0  0
   10.1483  -14.9801   22.0305 C   0  0  0  0  0  0  0  0  0  0  0  0
   11.3396  -15.0613   21.3574 O   0  0  0  0  0  0  0  0  0  0  0  0
   10.1189  -15.0035   23.2727 O   0  0  0  0  0  0  0  0  0  0  0  0
  1  2  1  0
  3  2  1  0
  3  4  1  6
  5  3  1  0
  5  6  2  0
  7  8  1  0
  8 18  2  0
  9  8  1  0
  9 10  2  0
 10 11  1  0
 11 17  2  0
 11 12  1  0
 13 12  1  1
 13 14  1  0
 14  5  1  0
 15 13  1  0
 16 15  2  0
 18 17  1  0
 19 23  1  0
 19 15  1  0
 20 21  1  0
 20 19  1  0
 21 22  1  0
 23 22  1  0
 23 24  1  1
 25 24  1  0
 26 24  2  0
M  END
$$$$
