SYP.pdb
     RDKit          3D

 26 27  0  0  1  0  0  0  0  0999 V2000
    7.4711  -20.7153   22.2688 O   0  0  0  0  0  0  0  0  0  0  0  0
    6.7051  -21.1853   23.3116 C   0  0  0  0  0  0  0  0  0  0  0  0
    5.4976  -20.3041   23.5037 C   0  0  2  0  0  0  0  0  0  0  0  0
    4.5999  -20.5149   22.3742 N   0  0  0  0  0  0  0  0  0  0  0  0
    5.8194  -18.8577   23.5588 C   0  0  0  0  0  0  0  0  0  0  0  0
    5.5174  -18.0989   22.5847 O   0  0  0  0  0  0  0  0  0  0  0  0
    7.4025  -10.8371   26.8901 O   0  0  0  0  0  0  0  0  0  0  0  0
    7.2813  -12.2281   26.6993 C   0  0  0  0  0  0  0  0  0  0  0  0
    8.3871  -13.0156   26.4740 C   0  0  0  0  0  0  0  0  0  0  0  0
    8.2457  -14.3957   26.2871 C   0  0  0  0  0  0  0  0  0  0  0  0
    6.9992  -14.9887   26.3257 C   0  0  0  0  0  0  0  0  0  0  0  0
    6.8585  -16.4191   26.1199 C   0  0  0  0  0  0  0  0  0  0  0  0
    6.7763  -16.8456   24.6443 C   0  0  2  0  0  0  0  0  0  0  0  0
    6.4617  -18.2339   24.6609 N   0  0  0  0  0  0  0  0  0  0  0  0
    7.9115  -16.4176   23.8474 C   0  0  0  0  0  0  0  0  0  0  0  0
    8.9682  -17.1290   24.0007 O   0  0  0  0  0  0  0  0  0  0  0  0
    5.8845  -14.2077   26.5507 C   0  0  0  0  0  0  0  0  0  0  0  0
    6.0399  -12.8284   26.7359 C   0  0  0  0  0  0  0  0  0  0  0  0
    7.9290  -15.2912   22.9303 N   0  0  0  0  0  0  0  0  0  0  0  0
    6.9635  -14.2649   22.7755 C   0  0  0  0  0  0  0  0  0  0  0  0
    7.7083  -13.1663   22.0212 C   0  0  0  0  0  0  0  0  0  0  0  0
    8.6960  -13.9381   21.1758 C   0  0  0  0  0  0  0  0  0  0  0  0
    9.0256  -15.0944   22.0329 C   0  0  1  0  0  0  0  0  0  0  0  0
   10.3106  -14.9198   22.7725 C   0  0  0  0  0  0  0  0  0  0  0  0
   11.5052  -14.8185   22.1080 O   0  0  0  0  0  0  0  0  0  0  0  0
   10.2690  -14.8686   24.0134 O   0  0  0  0  0  0  0  0  0  0  0  0
  1  2  1  0
  3  2  1  0
  3  4  1  6
  5  3  1  0
  5  6  2  0
  7  8  1  0
  8 18  2  0
  9  8  1  0
  9 10  2  0
 10 11  1  0
 11 17  2  0
 11 12  1  0
 13 12  1  1
 13 14  1  0
 14  5  1  0
 15 13  1  0
 16 15  2  0
 18 17  1  0
 19 23  1  0
 19 15  1  0
 20 21  1  0
 20 19  1  0
 21 22  1  0
 23 22  1  0
 23 24  1  1
 25 24  1  0
 26 24  2  0
M  END
$$$$
