SYP.pdb
     RDKit          3D

 26 27  0  0  1  0  0  0  0  0999 V2000
   12.4389  -18.9130   22.3938 O   0  0  0  0  0  0  0  0  0  0  0  0
   11.3997  -18.7331   21.5092 C   0  0  0  0  0  0  0  0  0  0  0  0
   11.3356  -17.2916   21.0737 C   0  0  2  0  0  0  0  0  0  0  0  0
   12.6690  -16.8905   20.6409 N   0  0  0  0  0  0  0  0  0  0  0  0
   10.9138  -16.3632   22.1502 C   0  0  0  0  0  0  0  0  0  0  0  0
   11.7101  -15.4639   22.5661 O   0  0  0  0  0  0  0  0  0  0  0  0
    5.8086  -11.4145   27.3692 O   0  0  0  0  0  0  0  0  0  0  0  0
    6.3109  -12.3336   26.4263 C   0  0  0  0  0  0  0  0  0  0  0  0
    6.0707  -13.6830   26.5486 C   0  0  0  0  0  0  0  0  0  0  0  0
    6.5783  -14.5799   25.6011 C   0  0  0  0  0  0  0  0  0  0  0  0
    7.3256  -14.1279   24.5314 C   0  0  0  0  0  0  0  0  0  0  0  0
    7.8585  -15.0646   23.5584 C   0  0  0  0  0  0  0  0  0  0  0  0
    9.3035  -15.5152   23.8326 C   0  0  2  0  0  0  0  0  0  0  0  0
    9.6380  -16.4045   22.7725 N   0  0  0  0  0  0  0  0  0  0  0  0
    9.5269  -15.9686   25.1933 C   0  0  0  0  0  0  0  0  0  0  0  0
    9.3746  -17.2308   25.3657 O   0  0  0  0  0  0  0  0  0  0  0  0
    7.5720  -12.7769   24.4002 C   0  0  0  0  0  0  0  0  0  0  0  0
    7.0586  -11.8906   25.3551 C   0  0  0  0  0  0  0  0  0  0  0  0
    9.8952  -15.1276   26.3190 N   0  0  0  0  0  0  0  0  0  0  0  0
    9.7901  -13.7190   26.4392 C   0  0  0  0  0  0  0  0  0  0  0  0
    9.8964  -13.4665   27.9411 C   0  0  0  0  0  0  0  0  0  0  0  0
   10.7942  -14.5865   28.4158 C   0  0  0  0  0  0  0  0  0  0  0  0
   10.4313  -15.6994   27.5158 C   0  0  1  0  0  0  0  0  0  0  0  0
    9.4721  -16.6590   28.1386 C   0  0  0  0  0  0  0  0  0  0  0  0
    8.1485  -16.6731   27.7825 O   0  0  0  0  0  0  0  0  0  0  0  0
    9.9072  -17.4490   28.9935 O   0  0  0  0  0  0  0  0  0  0  0  0
  1  2  1  0
  3  2  1  0
  3  4  1  1
  5  3  1  0
  5  6  2  0
  7  8  1  0
  8 18  2  0
  9  8  1  0
  9 10  2  0
 10 11  1  0
 11 17  2  0
 11 12  1  0
 13 12  1  1
 13 14  1  0
 14  5  1  0
 15 13  1  0
 16 15  2  0
 18 17  1  0
 19 23  1  0
 19 15  1  0
 20 21  1  0
 20 19  1  0
 21 22  1  0
 23 22  1  0
 23 24  1  1
 25 24  1  0
 26 24  2  0
M  END
$$$$
