SYP.pdb
     RDKit          3D

 26 27  0  0  1  0  0  0  0  0999 V2000
    6.8551  -20.1941   21.3250 O   0  0  0  0  0  0  0  0  0  0  0  0
    5.5017  -20.2489   21.0796 C   0  0  0  0  0  0  0  0  0  0  0  0
    4.7404  -19.6979   22.2579 C   0  0  2  0  0  0  0  0  0  0  0  0
    3.3246  -19.6736   21.9099 N   0  0  0  0  0  0  0  0  0  0  0  0
    5.1362  -18.3180   22.6293 C   0  0  0  0  0  0  0  0  0  0  0  0
    4.5973  -17.3220   22.0517 O   0  0  0  0  0  0  0  0  0  0  0  0
    7.5833  -11.1764   27.0383 O   0  0  0  0  0  0  0  0  0  0  0  0
    7.3399  -12.4987   26.6160 C   0  0  0  0  0  0  0  0  0  0  0  0
    6.0612  -13.0038   26.5563 C   0  0  0  0  0  0  0  0  0  0  0  0
    5.8403  -14.3200   26.1338 C   0  0  0  0  0  0  0  0  0  0  0  0
    6.8973  -15.1311   25.7709 C   0  0  0  0  0  0  0  0  0  0  0  0
    6.6621  -16.4989   25.3443 C   0  0  0  0  0  0  0  0  0  0  0  0
    6.5697  -16.6842   23.8200 C   0  0  2  0  0  0  0  0  0  0  0  0
    6.1068  -18.0156   23.6206 N   0  0  0  0  0  0  0  0  0  0  0  0
    7.7632  -16.2677   23.1066 C   0  0  0  0  0  0  0  0  0  0  0  0
    8.7455  -17.0892   23.1869 O   0  0  0  0  0  0  0  0  0  0  0  0
    8.1829  -14.6340   25.8276 C   0  0  0  0  0  0  0  0  0  0  0  0
    8.3900  -13.3157   26.2520 C   0  0  0  0  0  0  0  0  0  0  0  0
    7.9116  -15.0410   22.3429 N   0  0  0  0  0  0  0  0  0  0  0  0
    7.0985  -13.8801   22.3721 C   0  0  0  0  0  0  0  0  0  0  0  0
    7.9677  -12.8029   21.7282 C   0  0  0  0  0  0  0  0  0  0  0  0
    8.8060  -13.5820   20.7401 C   0  0  0  0  0  0  0  0  0  0  0  0
    8.9946  -14.8777   21.4226 C   0  0  1  0  0  0  0  0  0  0  0  0
   10.3153  -14.9832   22.1107 C   0  0  0  0  0  0  0  0  0  0  0  0
   10.3999  -15.0840   23.4751 O   0  0  0  0  0  0  0  0  0  0  0  0
   11.3419  -14.9769   21.4105 O   0  0  0  0  0  0  0  0  0  0  0  0
  1  2  1  0
  3  2  1  0
  3  4  1  6
  5  3  1  0
  5  6  2  0
  7  8  1  0
  8 18  2  0
  9  8  1  0
  9 10  2  0
 10 11  1  0
 11 17  2  0
 11 12  1  0
 13 12  1  1
 13 14  1  0
 14  5  1  0
 15 13  1  0
 16 15  2  0
 18 17  1  0
 19 23  1  0
 19 15  1  0
 20 21  1  0
 20 19  1  0
 21 22  1  0
 23 22  1  0
 23 24  1  1
 25 24  1  0
 26 24  2  0
M  END
$$$$
