SYP.pdb
     RDKit          3D

 26 27  0  0  1  0  0  0  0  0999 V2000
    7.5240  -20.5519   21.9675 O   0  0  0  0  0  0  0  0  0  0  0  0
    6.1840  -20.7289   21.7068 C   0  0  0  0  0  0  0  0  0  0  0  0
    5.3575  -20.0919   22.7944 C   0  0  2  0  0  0  0  0  0  0  0  0
    3.9518  -20.2263   22.4312 N   0  0  0  0  0  0  0  0  0  0  0  0
    5.6370  -18.6483   22.9855 C   0  0  0  0  0  0  0  0  0  0  0  0
    5.0659  -17.7845   22.2481 O   0  0  0  0  0  0  0  0  0  0  0  0
    7.2557  -10.8995   26.6674 O   0  0  0  0  0  0  0  0  0  0  0  0
    7.2340  -12.2783   26.3763 C   0  0  0  0  0  0  0  0  0  0  0  0
    8.3877  -12.9578   26.0585 C   0  0  0  0  0  0  0  0  0  0  0  0
    8.3452  -14.3276   25.7729 C   0  0  0  0  0  0  0  0  0  0  0  0
    7.1497  -15.0181   25.8051 C   0  0  0  0  0  0  0  0  0  0  0  0
    7.1110  -16.4364   25.4968 C   0  0  0  0  0  0  0  0  0  0  0  0
    6.8701  -16.7596   24.0123 C   0  0  2  0  0  0  0  0  0  0  0  0
    6.5264  -18.1404   23.9690 N   0  0  0  0  0  0  0  0  0  0  0  0
    7.9285  -16.2968   23.1335 C   0  0  0  0  0  0  0  0  0  0  0  0
    8.9409  -17.0817   23.0601 O   0  0  0  0  0  0  0  0  0  0  0  0
    5.9877  -14.3456   26.1224 C   0  0  0  0  0  0  0  0  0  0  0  0
    6.0442  -12.9755   26.4060 C   0  0  0  0  0  0  0  0  0  0  0  0
    7.9174  -15.0630   22.3670 N   0  0  0  0  0  0  0  0  0  0  0  0
    7.0325  -13.9614   22.4817 C   0  0  0  0  0  0  0  0  0  0  0  0
    7.7590  -12.8265   21.7642 C   0  0  0  0  0  0  0  0  0  0  0  0
    8.5501  -13.5457   20.6952 C   0  0  0  0  0  0  0  0  0  0  0  0
    8.8929  -14.8250   21.3479 C   0  0  1  0  0  0  0  0  0  0  0  0
   10.2778  -14.8382   21.9054 C   0  0  0  0  0  0  0  0  0  0  0  0
   11.3743  -14.7547   21.0871 O   0  0  0  0  0  0  0  0  0  0  0  0
   10.4115  -14.9278   23.1376 O   0  0  0  0  0  0  0  0  0  0  0  0
  1  2  1  0
  3  2  1  0
  3  4  1  6
  5  3  1  0
  5  6  2  0
  7  8  1  0
  8 18  2  0
  9  8  1  0
  9 10  2  0
 10 11  1  0
 11 17  2  0
 11 12  1  0
 13 12  1  1
 13 14  1  0
 14  5  1  0
 15 13  1  0
 16 15  2  0
 18 17  1  0
 19 23  1  0
 19 15  1  0
 20 21  1  0
 20 19  1  0
 21 22  1  0
 23 22  1  0
 23 24  1  1
 25 24  1  0
 26 24  2  0
M  END
$$$$
