SYP.pdb
     RDKit          3D

 26 27  0  0  1  0  0  0  0  0999 V2000
   13.0254  -18.6422   23.2762 O   0  0  0  0  0  0  0  0  0  0  0  0
   11.9456  -18.9891   22.4960 C   0  0  0  0  0  0  0  0  0  0  0  0
   11.4238  -17.7770   21.7678 C   0  0  2  0  0  0  0  0  0  0  0  0
   12.4918  -17.2669   20.9162 N   0  0  0  0  0  0  0  0  0  0  0  0
   11.0027  -16.6773   22.6688 C   0  0  0  0  0  0  0  0  0  0  0  0
   11.7234  -15.6367   22.7861 O   0  0  0  0  0  0  0  0  0  0  0  0
    7.0719  -12.7469   19.2372 O   0  0  0  0  0  0  0  0  0  0  0  0
    7.3241  -13.3685   20.4766 C   0  0  0  0  0  0  0  0  0  0  0  0
    7.9844  -12.7050   21.4854 C   0  0  0  0  0  0  0  0  0  0  0  0
    8.2250  -13.3400   22.7096 C   0  0  0  0  0  0  0  0  0  0  0  0
    7.8054  -14.6378   22.9256 C   0  0  0  0  0  0  0  0  0  0  0  0
    8.0680  -15.2943   24.1937 C   0  0  0  0  0  0  0  0  0  0  0  0
    9.5365  -15.6977   24.4104 C   0  0  2  0  0  0  0  0  0  0  0  0
    9.8087  -16.7003   23.4371 N   0  0  0  0  0  0  0  0  0  0  0  0
    9.8652  -15.9893   25.7938 C   0  0  0  0  0  0  0  0  0  0  0  0
   10.0697  -17.2314   26.0421 O   0  0  0  0  0  0  0  0  0  0  0  0
    7.1428  -15.3114   21.9203 C   0  0  0  0  0  0  0  0  0  0  0  0
    6.9087  -14.6647   20.7006 C   0  0  0  0  0  0  0  0  0  0  0  0
    9.9741  -15.0139   26.8646 N   0  0  0  0  0  0  0  0  0  0  0  0
    9.5983  -13.6470   26.8541 C   0  0  0  0  0  0  0  0  0  0  0  0
    9.5288  -13.2706   28.3320 C   0  0  0  0  0  0  0  0  0  0  0  0
   10.5766  -14.1592   28.9632 C   0  0  0  0  0  0  0  0  0  0  0  0
   10.5048  -15.3834   28.1407 C   0  0  1  0  0  0  0  0  0  0  0  0
    9.6925  -16.4622   28.7773 C   0  0  0  0  0  0  0  0  0  0  0  0
   10.1577  -17.1542   29.8653 O   0  0  0  0  0  0  0  0  0  0  0  0
    8.5774  -16.7182   28.2922 O   0  0  0  0  0  0  0  0  0  0  0  0
  1  2  1  0
  3  2  1  0
  3  4  1  6
  5  3  1  0
  5  6  2  0
  7  8  1  0
  8 18  2  0
  9  8  1  0
  9 10  2  0
 10 11  1  0
 11 17  2  0
 11 12  1  0
 13 12  1  1
 13 14  1  0
 14  5  1  0
 15 13  1  0
 16 15  2  0
 18 17  1  0
 19 23  1  0
 19 15  1  0
 20 21  1  0
 20 19  1  0
 21 22  1  0
 23 22  1  0
 23 24  1  1
 25 24  1  0
 26 24  2  0
M  END
$$$$
