SYP.pdb
     RDKit          3D

 26 27  0  0  1  0  0  0  0  0999 V2000
    6.2568  -20.0717   20.8581 O   0  0  0  0  0  0  0  0  0  0  0  0
    5.6572  -20.6205   21.9690 C   0  0  0  0  0  0  0  0  0  0  0  0
    4.6815  -19.6396   22.5671 C   0  0  2  0  0  0  0  0  0  0  0  0
    3.5542  -19.5084   21.6517 N   0  0  0  0  0  0  0  0  0  0  0  0
    5.2511  -18.2867   22.7763 C   0  0  0  0  0  0  0  0  0  0  0  0
    4.9515  -17.3384   21.9844 O   0  0  0  0  0  0  0  0  0  0  0  0
    7.6547  -11.1100   27.1607 O   0  0  0  0  0  0  0  0  0  0  0  0
    7.4635  -12.4421   26.7421 C   0  0  0  0  0  0  0  0  0  0  0  0
    6.2030  -12.9868   26.6522 C   0  0  0  0  0  0  0  0  0  0  0  0
    6.0340  -14.3121   26.2339 C   0  0  0  0  0  0  0  0  0  0  0  0
    7.1248  -15.0926   25.9054 C   0  0  0  0  0  0  0  0  0  0  0  0
    6.9433  -16.4698   25.4831 C   0  0  0  0  0  0  0  0  0  0  0  0
    6.6630  -16.6440   23.9806 C   0  0  2  0  0  0  0  0  0  0  0  0
    6.1374  -17.9591   23.8362 N   0  0  0  0  0  0  0  0  0  0  0  0
    7.7750  -16.2615   23.1297 C   0  0  0  0  0  0  0  0  0  0  0  0
    8.6903  -17.1535   23.0166 O   0  0  0  0  0  0  0  0  0  0  0  0
    8.3926  -14.5555   25.9926 C   0  0  0  0  0  0  0  0  0  0  0  0
    8.5476  -13.2287   26.4124 C   0  0  0  0  0  0  0  0  0  0  0  0
    7.9129  -14.9961   22.4300 N   0  0  0  0  0  0  0  0  0  0  0  0
    7.1043  -13.8366   22.5367 C   0  0  0  0  0  0  0  0  0  0  0  0
    7.9647  -12.7284   21.9348 C   0  0  0  0  0  0  0  0  0  0  0  0
    8.7816  -13.4554   20.8908 C   0  0  0  0  0  0  0  0  0  0  0  0
    8.9789  -14.7862   21.4993 C   0  0  1  0  0  0  0  0  0  0  0  0
   10.3119  -14.9313   22.1556 C   0  0  0  0  0  0  0  0  0  0  0  0
   11.4674  -14.9625   21.4188 O   0  0  0  0  0  0  0  0  0  0  0  0
   10.3470  -15.0238   23.3943 O   0  0  0  0  0  0  0  0  0  0  0  0
  1  2  1  0
  3  2  1  0
  3  4  1  6
  5  3  1  0
  5  6  2  0
  7  8  1  0
  8 18  2  0
  9  8  1  0
  9 10  2  0
 10 11  1  0
 11 17  2  0
 11 12  1  0
 13 12  1  1
 13 14  1  0
 14  5  1  0
 15 13  1  0
 16 15  2  0
 18 17  1  0
 19 23  1  0
 19 15  1  0
 20 21  1  0
 20 19  1  0
 21 22  1  0
 23 22  1  0
 23 24  1  1
 25 24  1  0
 26 24  2  0
M  END
$$$$
