SYP.pdb
     RDKit          3D

 26 27  0  0  1  0  0  0  0  0999 V2000
   13.0829  -18.8092   22.9164 O   0  0  0  0  0  0  0  0  0  0  0  0
   11.8369  -18.9916   22.3605 C   0  0  0  0  0  0  0  0  0  0  0  0
   11.4146  -17.7485   21.6202 C   0  0  2  0  0  0  0  0  0  0  0  0
   12.5398  -17.3024   20.8072 N   0  0  0  0  0  0  0  0  0  0  0  0
   11.0307  -16.6271   22.5111 C   0  0  0  0  0  0  0  0  0  0  0  0
   11.8495  -15.6809   22.7354 O   0  0  0  0  0  0  0  0  0  0  0  0
    6.9685  -12.6265   18.9924 O   0  0  0  0  0  0  0  0  0  0  0  0
    7.2419  -13.2338   20.2345 C   0  0  0  0  0  0  0  0  0  0  0  0
    7.8517  -12.5346   21.2508 C   0  0  0  0  0  0  0  0  0  0  0  0
    8.1143  -13.1559   22.4775 C   0  0  0  0  0  0  0  0  0  0  0  0
    7.7673  -14.4758   22.6883 C   0  0  0  0  0  0  0  0  0  0  0  0
    8.0527  -15.1174   23.9591 C   0  0  0  0  0  0  0  0  0  0  0  0
    9.5210  -15.5362   24.1460 C   0  0  2  0  0  0  0  0  0  0  0  0
    9.7687  -16.5270   23.1543 N   0  0  0  0  0  0  0  0  0  0  0  0
    9.8695  -15.8504   25.5196 C   0  0  0  0  0  0  0  0  0  0  0  0
   10.1364  -17.0873   25.7317 O   0  0  0  0  0  0  0  0  0  0  0  0
    7.1557  -15.1852   21.6754 C   0  0  0  0  0  0  0  0  0  0  0  0
    6.8988  -14.5518   20.4533 C   0  0  0  0  0  0  0  0  0  0  0  0
    9.9343  -14.9016   26.6177 N   0  0  0  0  0  0  0  0  0  0  0  0
    9.4338  -13.5763   26.6688 C   0  0  0  0  0  0  0  0  0  0  0  0
    9.3943  -13.2526   28.1602 C   0  0  0  0  0  0  0  0  0  0  0  0
   10.5462  -14.0575   28.7178 C   0  0  0  0  0  0  0  0  0  0  0  0
   10.5521  -15.2578   27.8579 C   0  0  1  0  0  0  0  0  0  0  0  0
    9.8715  -16.4266   28.4899 C   0  0  0  0  0  0  0  0  0  0  0  0
   10.4417  -17.0993   29.5393 O   0  0  0  0  0  0  0  0  0  0  0  0
    8.7682  -16.7762   28.0371 O   0  0  0  0  0  0  0  0  0  0  0  0
  1  2  1  0
  3  2  1  0
  3  4  1  1
  5  3  1  0
  5  6  2  0
  7  8  1  0
  8 18  2  0
  9  8  1  0
  9 10  2  0
 10 11  1  0
 11 17  2  0
 11 12  1  0
 13 12  1  1
 13 14  1  0
 14  5  1  0
 15 13  1  0
 16 15  2  0
 18 17  1  0
 19 23  1  0
 19 15  1  0
 20 21  1  0
 20 19  1  0
 21 22  1  0
 23 22  1  0
 23 24  1  1
 25 24  1  0
 26 24  2  0
M  END
$$$$
