SYP.pdb
     RDKit          3D

 26 27  0  0  1  0  0  0  0  0999 V2000
    7.9097  -20.0247   23.6095 O   0  0  0  0  0  0  0  0  0  0  0  0
    7.3035  -20.3100   24.8120 C   0  0  0  0  0  0  0  0  0  0  0  0
    5.9996  -19.5623   24.9234 C   0  0  2  0  0  0  0  0  0  0  0  0
    4.9873  -20.3064   24.1834 N   0  0  0  0  0  0  0  0  0  0  0  0
    6.0504  -18.1910   24.3617 C   0  0  0  0  0  0  0  0  0  0  0  0
    5.5651  -17.9541   23.2109 O   0  0  0  0  0  0  0  0  0  0  0  0
   11.2674  -14.9535   28.9474 O   0  0  0  0  0  0  0  0  0  0  0  0
   10.1438  -14.9201   28.0974 C   0  0  0  0  0  0  0  0  0  0  0  0
    9.2727  -15.9829   28.0256 C   0  0  0  0  0  0  0  0  0  0  0  0
    8.1619  -15.9301   27.1751 C   0  0  0  0  0  0  0  0  0  0  0  0
    7.9219  -14.8150   26.3968 C   0  0  0  0  0  0  0  0  0  0  0  0
    6.7742  -14.7712   25.5085 C   0  0  0  0  0  0  0  0  0  0  0  0
    6.7935  -15.8268   24.3898 C   0  0  2  0  0  0  0  0  0  0  0  0
    6.6201  -17.0812   25.0402 N   0  0  0  0  0  0  0  0  0  0  0  0
    7.9103  -15.6876   23.4731 C   0  0  0  0  0  0  0  0  0  0  0  0
    8.8995  -16.4676   23.7165 O   0  0  0  0  0  0  0  0  0  0  0  0
    8.7896  -13.7444   26.4616 C   0  0  0  0  0  0  0  0  0  0  0  0
    9.8968  -13.8102   27.3164 C   0  0  0  0  0  0  0  0  0  0  0  0
    7.9781  -14.7679   22.3507 N   0  0  0  0  0  0  0  0  0  0  0  0
    7.1838  -13.6205   22.1014 C   0  0  0  0  0  0  0  0  0  0  0  0
    7.9803  -12.8376   21.0606 C   0  0  0  0  0  0  0  0  0  0  0  0
    8.6903  -13.9226   20.2829 C   0  0  0  0  0  0  0  0  0  0  0  0
    8.9470  -14.9482   21.3137 C   0  0  1  0  0  0  0  0  0  0  0  0
   10.3384  -14.8930   21.8520 C   0  0  0  0  0  0  0  0  0  0  0  0
   10.5866  -14.4991   23.1413 O   0  0  0  0  0  0  0  0  0  0  0  0
   11.2710  -15.2150   21.0966 O   0  0  0  0  0  0  0  0  0  0  0  0
  1  2  1  0
  3  2  1  0
  3  4  1  6
  5  3  1  0
  5  6  2  0
  7  8  1  0
  8 18  2  0
  9  8  1  0
  9 10  2  0
 10 11  1  0
 11 17  2  0
 11 12  1  0
 13 12  1  1
 13 14  1  0
 14  5  1  0
 15 13  1  0
 16 15  2  0
 18 17  1  0
 19 23  1  0
 19 15  1  0
 20 21  1  0
 20 19  1  0
 21 22  1  0
 23 22  1  0
 23 24  1  1
 25 24  1  0
 26 24  2  0
M  END
$$$$
