SYP.pdb
     RDKit          3D

 26 27  0  0  1  0  0  0  0  0999 V2000
    6.3179  -20.4673   20.7108 O   0  0  0  0  0  0  0  0  0  0  0  0
    6.2772  -20.6346   22.0765 C   0  0  0  0  0  0  0  0  0  0  0  0
    5.1786  -19.7891   22.6680 C   0  0  2  0  0  0  0  0  0  0  0  0
    4.0447  -19.8157   21.7518 N   0  0  0  0  0  0  0  0  0  0  0  0
    5.5620  -18.3708   22.8684 C   0  0  0  0  0  0  0  0  0  0  0  0
    5.1423  -17.4769   22.0680 O   0  0  0  0  0  0  0  0  0  0  0  0
    7.0603  -10.9704   27.1743 O   0  0  0  0  0  0  0  0  0  0  0  0
    7.1108  -12.3100   26.7393 C   0  0  0  0  0  0  0  0  0  0  0  0
    5.9742  -13.0835   26.6807 C   0  0  0  0  0  0  0  0  0  0  0  0
    6.0452  -14.4122   26.2454 C   0  0  0  0  0  0  0  0  0  0  0  0
    7.2521  -14.9673   25.8685 C   0  0  0  0  0  0  0  0  0  0  0  0
    7.3206  -16.3494   25.4286 C   0  0  0  0  0  0  0  0  0  0  0  0
    6.8675  -16.5793   23.9767 C   0  0  2  0  0  0  0  0  0  0  0  0
    6.3922  -17.9203   23.9287 N   0  0  0  0  0  0  0  0  0  0  0  0
    7.8474  -16.1718   22.9864 C   0  0  0  0  0  0  0  0  0  0  0  0
    8.7782  -17.0290   22.7743 O   0  0  0  0  0  0  0  0  0  0  0  0
    8.3972  -14.1999   25.9239 C   0  0  0  0  0  0  0  0  0  0  0  0
    8.3122  -12.8724   26.3613 C   0  0  0  0  0  0  0  0  0  0  0  0
    7.8434  -14.9176   22.2536 N   0  0  0  0  0  0  0  0  0  0  0  0
    6.9720  -13.8099   22.4060 C   0  0  0  0  0  0  0  0  0  0  0  0
    7.7049  -12.6640   21.7128 C   0  0  0  0  0  0  0  0  0  0  0  0
    8.4785  -13.3627   20.6177 C   0  0  0  0  0  0  0  0  0  0  0  0
    8.8126  -14.6629   21.2326 C   0  0  1  0  0  0  0  0  0  0  0  0
   10.2021  -14.7064   21.7770 C   0  0  0  0  0  0  0  0  0  0  0  0
   11.2904  -14.7530   20.9450 O   0  0  0  0  0  0  0  0  0  0  0  0
   10.3472  -14.6994   23.0112 O   0  0  0  0  0  0  0  0  0  0  0  0
  1  2  1  0
  3  2  1  0
  3  4  1  6
  5  3  1  0
  5  6  2  0
  7  8  1  0
  8 18  2  0
  9  8  1  0
  9 10  2  0
 10 11  1  0
 11 17  2  0
 11 12  1  0
 13 12  1  1
 13 14  1  0
 14  5  1  0
 15 13  1  0
 16 15  2  0
 18 17  1  0
 19 23  1  0
 19 15  1  0
 20 21  1  0
 20 19  1  0
 21 22  1  0
 23 22  1  0
 23 24  1  1
 25 24  1  0
 26 24  2  0
M  END
$$$$
