VVI.pdb
     RDKit          3D

 23 22  0  0  1  0  0  0  0  0999 V2000
   12.7386  -15.8857   19.5287 C   0  0  0  0  0  0  0  0  0  0  0  0
   13.6929  -16.5474   20.5397 C   0  0  2  0  0  0  0  0  0  0  0  0
   14.5980  -17.4311   19.6761 C   0  0  0  0  0  0  0  0  0  0  0  0
   12.8603  -17.4051   21.4150 C   0  0  2  0  0  0  0  0  0  0  0  0
   12.1150  -18.4205   20.7003 N   0  0  0  0  0  0  0  0  0  0  0  0
   11.9920  -16.6807   22.3725 C   0  0  0  0  0  0  0  0  0  0  0  0
   12.4076  -15.7844   23.1356 O   0  0  0  0  0  0  0  0  0  0  0  0
    7.9737  -15.6714   21.6896 C   0  0  0  0  0  0  0  0  0  0  0  0
    8.2677  -16.3583   22.9832 C   0  0  2  0  0  0  0  0  0  0  0  0
    7.4151  -15.6422   24.0429 C   0  0  0  0  0  0  0  0  0  0  0  0
    9.6931  -16.3863   23.3912 C   0  0  2  0  0  0  0  0  0  0  0  0
   10.6104  -16.9931   22.4559 N   0  0  0  0  0  0  0  0  0  0  0  0
    9.9137  -16.8325   24.7846 C   0  0  0  0  0  0  0  0  0  0  0  0
   10.2524  -18.0017   25.1114 O   0  0  0  0  0  0  0  0  0  0  0  0
   10.0578  -12.7221   28.5345 C   0  0  0  0  0  0  0  0  0  0  0  0
   10.4675  -13.8871   27.6680 C   0  0  0  0  0  0  0  0  0  0  0  0
    9.9023  -15.1744   28.1488 C   0  0  2  0  0  0  0  0  0  0  0  0
   10.4499  -15.4048   29.5493 C   0  0  0  0  0  0  0  0  0  0  0  0
   10.1267  -16.3307   27.2451 C   0  0  2  0  0  0  0  0  0  0  0  0
    9.7524  -15.9357   25.8692 N   0  0  0  0  0  0  0  0  0  0  0  0
    9.3950  -17.5599   27.6336 C   0  0  0  0  0  0  0  0  0  0  0  0
    8.1899  -17.7194   27.2682 O   0  0  0  0  0  0  0  0  0  0  0  0
    9.9688  -18.5604   28.3864 O   0  0  0  0  0  0  0  0  0  0  0  0
  2  3  1  6
  2  1  1  0
  4  5  1  6
  4  2  1  0
  6  4  1  0
  7  6  2  0
  9  8  1  6
  9 11  1  0
 10  9  1  0
 11 12  1  6
 12  6  1  0
 13 11  1  0
 13 20  1  0
 14 13  2  0
 15 16  1  0
 16 17  1  0
 17 19  1  0
 17 18  1  1
 19 20  1  6
 19 21  1  0
 21 23  1  0
 22 21  2  0
M  END
$$$$
