VVI.pdb
     RDKit          3D

 23 22  0  0  1  0  0  0  0  0999 V2000
   15.2552  -18.1891   20.5417 C   0  0  0  0  0  0  0  0  0  0  0  0
   14.4394  -17.6671   21.7386 C   0  0  2  0  0  0  0  0  0  0  0  0
   14.0007  -18.9369   22.4742 C   0  0  0  0  0  0  0  0  0  0  0  0
   13.2476  -16.9873   21.1796 C   0  0  2  0  0  0  0  0  0  0  0  0
   13.5621  -15.9662   20.2020 N   0  0  0  0  0  0  0  0  0  0  0  0
   12.2754  -16.4871   22.1797 C   0  0  0  0  0  0  0  0  0  0  0  0
   12.4526  -15.4507   22.8527 O   0  0  0  0  0  0  0  0  0  0  0  0
    8.2243  -16.4843   21.5188 C   0  0  0  0  0  0  0  0  0  0  0  0
    8.6267  -17.0428   22.8446 C   0  0  2  0  0  0  0  0  0  0  0  0
    7.6058  -16.4995   23.8572 C   0  0  0  0  0  0  0  0  0  0  0  0
   10.0101  -16.7369   23.2823 C   0  0  2  0  0  0  0  0  0  0  0  0
   11.0680  -17.1950   22.4131 N   0  0  0  0  0  0  0  0  0  0  0  0
   10.2708  -17.0297   24.7089 C   0  0  0  0  0  0  0  0  0  0  0  0
   10.7253  -18.1240   25.1385 O   0  0  0  0  0  0  0  0  0  0  0  0
   10.0336  -12.6291   28.0598 C   0  0  0  0  0  0  0  0  0  0  0  0
   10.5890  -13.8525   27.3740 C   0  0  0  0  0  0  0  0  0  0  0  0
   10.0243  -15.1125   27.9229 C   0  0  2  0  0  0  0  0  0  0  0  0
   10.4920  -15.2172   29.3667 C   0  0  0  0  0  0  0  0  0  0  0  0
   10.3278  -16.3300   27.1294 C   0  0  2  0  0  0  0  0  0  0  0  0
   10.0164  -16.0587   25.7086 N   0  0  0  0  0  0  0  0  0  0  0  0
    9.6103  -17.5465   27.5796 C   0  0  0  0  0  0  0  0  0  0  0  0
   10.1860  -18.3668   28.3587 O   0  0  0  0  0  0  0  0  0  0  0  0
    8.3226  -17.8382   27.1882 O   0  0  0  0  0  0  0  0  0  0  0  0
  2  3  1  1
  2  1  1  0
  4  5  1  1
  4  2  1  0
  6  4  1  0
  7  6  2  0
  9  8  1  6
  9 11  1  0
 10  9  1  0
 11 12  1  6
 12  6  1  0
 13 11  1  0
 13 20  1  0
 14 13  2  0
 15 16  1  0
 16 17  1  0
 17 19  1  0
 17 18  1  1
 19 20  1  6
 19 21  1  0
 21 23  1  0
 22 21  2  0
M  END
$$$$
