VVI.pdb
     RDKit          3D

 23 22  0  0  1  0  0  0  0  0999 V2000
   12.8257  -15.5833   19.4683 C   0  0  0  0  0  0  0  0  0  0  0  0
   13.5228  -16.5805   20.4118 C   0  0  2  0  0  0  0  0  0  0  0  0
   14.2354  -17.5531   19.4673 C   0  0  0  0  0  0  0  0  0  0  0  0
   12.4518  -17.2999   21.1402 C   0  0  2  0  0  0  0  0  0  0  0  0
   11.5572  -18.0442   20.2783 N   0  0  0  0  0  0  0  0  0  0  0  0
   11.6946  -16.4865   22.1203 C   0  0  0  0  0  0  0  0  0  0  0  0
   12.2384  -15.7500   22.9690 O   0  0  0  0  0  0  0  0  0  0  0  0
    7.7275  -15.0347   21.4978 C   0  0  0  0  0  0  0  0  0  0  0  0
    8.0166  -15.7287   22.7888 C   0  0  2  0  0  0  0  0  0  0  0  0
    7.2899  -14.9181   23.8739 C   0  0  0  0  0  0  0  0  0  0  0  0
    9.4508  -15.8895   23.1295 C   0  0  2  0  0  0  0  0  0  0  0  0
   10.2761  -16.5191   22.1259 N   0  0  0  0  0  0  0  0  0  0  0  0
    9.6926  -16.4211   24.4889 C   0  0  0  0  0  0  0  0  0  0  0  0
   10.0004  -17.6172   24.7401 O   0  0  0  0  0  0  0  0  0  0  0  0
   10.3094  -12.5542   28.4077 C   0  0  0  0  0  0  0  0  0  0  0  0
   10.5892  -13.7312   27.5065 C   0  0  0  0  0  0  0  0  0  0  0  0
    9.8636  -14.9550   27.9347 C   0  0  2  0  0  0  0  0  0  0  0  0
   10.3864  -15.3214   29.3157 C   0  0  0  0  0  0  0  0  0  0  0  0
    9.9282  -16.0864   26.9756 C   0  0  2  0  0  0  0  0  0  0  0  0
    9.5897  -15.5828   25.6263 N   0  0  0  0  0  0  0  0  0  0  0  0
    9.0515  -17.2306   27.3216 C   0  0  0  0  0  0  0  0  0  0  0  0
    7.8148  -17.1863   27.0390 O   0  0  0  0  0  0  0  0  0  0  0  0
    9.5205  -18.3645   27.9468 O   0  0  0  0  0  0  0  0  0  0  0  0
  2  3  1  6
  2  1  1  0
  4  5  1  6
  4  2  1  0
  6  4  1  0
  7  6  2  0
  9  8  1  6
  9 11  1  0
 10  9  1  0
 11 12  1  6
 12  6  1  0
 13 11  1  0
 13 20  1  0
 14 13  2  0
 15 16  1  0
 16 17  1  0
 17 19  1  0
 17 18  1  1
 19 20  1  6
 19 21  1  0
 21 23  1  0
 22 21  2  0
M  END
$$$$
