VVI.pdb
     RDKit          3D

 23 22  0  0  1  0  0  0  0  0999 V2000
    8.2603  -13.0434   18.0795 C   0  0  0  0  0  0  0  0  0  0  0  0
    7.6569  -13.4618   19.4328 C   0  0  2  0  0  0  0  0  0  0  0  0
    8.5896  -12.8285   20.4696 C   0  0  0  0  0  0  0  0  0  0  0  0
    7.7657  -14.9373   19.5113 C   0  0  2  0  0  0  0  0  0  0  0  0
    7.1393  -15.6292   18.4040 N   0  0  0  0  0  0  0  0  0  0  0  0
    7.3675  -15.5345   20.8076 C   0  0  0  0  0  0  0  0  0  0  0  0
    6.1870  -15.5770   21.2117 O   0  0  0  0  0  0  0  0  0  0  0  0
    7.4179  -18.9317   22.1349 C   0  0  0  0  0  0  0  0  0  0  0  0
    8.2077  -18.1149   23.1049 C   0  0  2  0  0  0  0  0  0  0  0  0
    7.7606  -18.5731   24.5024 C   0  0  0  0  0  0  0  0  0  0  0  0
    8.0754  -16.6441   22.9703 C   0  0  2  0  0  0  0  0  0  0  0  0
    8.3500  -16.0981   21.6622 N   0  0  0  0  0  0  0  0  0  0  0  0
    8.7188  -15.8776   24.0600 C   0  0  0  0  0  0  0  0  0  0  0  0
    9.9465  -15.5954   24.1016 O   0  0  0  0  0  0  0  0  0  0  0  0
    5.7920  -12.0759   26.5200 C   0  0  0  0  0  0  0  0  0  0  0  0
    6.9024  -12.8718   25.8802 C   0  0  0  0  0  0  0  0  0  0  0  0
    7.6180  -13.7302   26.8592 C   0  0  2  0  0  0  0  0  0  0  0  0
    8.2288  -12.8035   27.8998 C   0  0  0  0  0  0  0  0  0  0  0  0
    8.6094  -14.6618   26.2647 C   0  0  2  0  0  0  0  0  0  0  0  0
    7.9617  -15.3985   25.1572 N   0  0  0  0  0  0  0  0  0  0  0  0
    9.2020  -15.6191   27.2289 C   0  0  0  0  0  0  0  0  0  0  0  0
    8.5979  -16.7036   27.4939 O   0  0  0  0  0  0  0  0  0  0  0  0
   10.4012  -15.3876   27.8652 O   0  0  0  0  0  0  0  0  0  0  0  0
  2  3  1  1
  2  1  1  0
  4  5  1  6
  4  2  1  0
  6  4  1  0
  7  6  2  0
  9  8  1  6
  9 11  1  0
 10  9  1  0
 11 12  1  6
 12  6  1  0
 13 11  1  0
 13 20  1  0
 14 13  2  0
 15 16  1  0
 16 17  1  0
 17 19  1  0
 17 18  1  1
 19 20  1  6
 19 21  1  0
 21 23  1  0
 22 21  2  0
M  END
$$$$
