VVI.pdb
     RDKit          3D

 23 22  0  0  1  0  0  0  0  0999 V2000
    8.1768  -19.4472   25.7701 C   0  0  0  0  0  0  0  0  0  0  0  0
    6.8297  -19.2759   25.0443 C   0  0  2  0  0  0  0  0  0  0  0  0
    6.0757  -20.5748   25.3444 C   0  0  0  0  0  0  0  0  0  0  0  0
    7.1308  -19.2067   23.5953 C   0  0  2  0  0  0  0  0  0  0  0  0
    7.7370  -20.4108   23.0663 N   0  0  0  0  0  0  0  0  0  0  0  0
    7.8713  -18.0001   23.1582 C   0  0  0  0  0  0  0  0  0  0  0  0
    9.1088  -17.9739   22.9953 O   0  0  0  0  0  0  0  0  0  0  0  0
    6.3606  -15.1310   20.4592 C   0  0  0  0  0  0  0  0  0  0  0  0
    6.9451  -14.6121   21.7323 C   0  0  2  0  0  0  0  0  0  0  0  0
    7.7392  -13.3533   21.3482 C   0  0  0  0  0  0  0  0  0  0  0  0
    7.8016  -15.5606   22.4845 C   0  0  2  0  0  0  0  0  0  0  0  0
    7.1730  -16.7919   22.9010 N   0  0  0  0  0  0  0  0  0  0  0  0
    8.6009  -14.9311   23.5587 C   0  0  0  0  0  0  0  0  0  0  0  0
    9.5147  -14.0856   23.3622 O   0  0  0  0  0  0  0  0  0  0  0  0
    6.2746  -11.8543   26.3380 C   0  0  0  0  0  0  0  0  0  0  0  0
    7.4212  -12.6007   25.7025 C   0  0  0  0  0  0  0  0  0  0  0  0
    8.0309  -13.5917   26.6265 C   0  0  2  0  0  0  0  0  0  0  0  0
    8.5921  -12.8125   27.8065 C   0  0  0  0  0  0  0  0  0  0  0  0
    9.0323  -14.4928   26.0026 C   0  0  2  0  0  0  0  0  0  0  0  0
    8.3733  -15.2546   24.9190 N   0  0  0  0  0  0  0  0  0  0  0  0
    9.6869  -15.4266   26.9497 C   0  0  0  0  0  0  0  0  0  0  0  0
    9.2046  -16.5873   27.1267 O   0  0  0  0  0  0  0  0  0  0  0  0
   10.8170  -15.0923   27.6623 O   0  0  0  0  0  0  0  0  0  0  0  0
  2  3  1  6
  2  1  1  0
  4  5  1  1
  4  2  1  0
  6  4  1  0
  7  6  2  0
  9  8  1  6
  9 11  1  0
 10  9  1  0
 11 12  1  1
 12  6  1  0
 13 11  1  0
 13 20  1  0
 14 13  2  0
 15 16  1  0
 16 17  1  0
 17 19  1  0
 17 18  1  1
 19 20  1  6
 19 21  1  0
 21 23  1  0
 22 21  2  0
M  END
$$$$
