VVI.pdb
     RDKit          3D

 23 22  0  0  1  0  0  0  0  0999 V2000
   14.4548  -19.1259   20.3831 C   0  0  0  0  0  0  0  0  0  0  0  0
   13.8056  -18.4197   21.5874 C   0  0  2  0  0  0  0  0  0  0  0  0
   13.1809  -19.5599   22.3971 C   0  0  0  0  0  0  0  0  0  0  0  0
   12.7305  -17.5551   21.0473 C   0  0  2  0  0  0  0  0  0  0  0  0
   13.1625  -16.6899   19.9694 N   0  0  0  0  0  0  0  0  0  0  0  0
   11.9551  -16.8002   22.0594 C   0  0  0  0  0  0  0  0  0  0  0  0
   12.4090  -15.8170   22.6807 O   0  0  0  0  0  0  0  0  0  0  0  0
    8.0505  -15.7093   21.5808 C   0  0  0  0  0  0  0  0  0  0  0  0
    8.3307  -16.3823   22.8848 C   0  0  2  0  0  0  0  0  0  0  0  0
    7.5275  -15.6053   23.9402 C   0  0  0  0  0  0  0  0  0  0  0  0
    9.7590  -16.4684   23.2744 C   0  0  2  0  0  0  0  0  0  0  0  0
   10.6238  -17.1835   22.3660 N   0  0  0  0  0  0  0  0  0  0  0  0
    9.9775  -16.8410   24.6895 C   0  0  0  0  0  0  0  0  0  0  0  0
   10.2311  -18.0103   25.0856 O   0  0  0  0  0  0  0  0  0  0  0  0
   10.2210  -12.5673   28.2636 C   0  0  0  0  0  0  0  0  0  0  0  0
   10.6763  -13.7941   27.5130 C   0  0  0  0  0  0  0  0  0  0  0  0
    9.9831  -15.0258   27.9712 C   0  0  2  0  0  0  0  0  0  0  0  0
   10.3841  -15.2479   29.4218 C   0  0  0  0  0  0  0  0  0  0  0  0
   10.2093  -16.2219   27.1214 C   0  0  2  0  0  0  0  0  0  0  0  0
    9.9134  -15.8668   25.7159 N   0  0  0  0  0  0  0  0  0  0  0  0
    9.4184  -17.4111   27.5184 C   0  0  0  0  0  0  0  0  0  0  0  0
    9.9465  -18.3056   28.2480 O   0  0  0  0  0  0  0  0  0  0  0  0
    8.1110  -17.5988   27.1286 O   0  0  0  0  0  0  0  0  0  0  0  0
  2  3  1  1
  2  1  1  0
  4  5  1  6
  4  2  1  0
  6  4  1  0
  7  6  2  0
  9  8  1  6
  9 11  1  0
 10  9  1  0
 11 12  1  6
 12  6  1  0
 13 11  1  0
 13 20  1  0
 14 13  2  0
 15 16  1  0
 16 17  1  0
 17 19  1  0
 17 18  1  1
 19 20  1  6
 19 21  1  0
 21 23  1  0
 22 21  2  0
M  END
$$$$
