VVI.pdb
     RDKit          3D

 23 22  0  0  1  0  0  0  0  0999 V2000
    6.7734  -20.8004   24.0919 C   0  0  0  0  0  0  0  0  0  0  0  0
    7.5481  -19.4707   24.0433 C   0  0  2  0  0  0  0  0  0  0  0  0
    6.7107  -18.5185   24.9023 C   0  0  0  0  0  0  0  0  0  0  0  0
    7.5220  -19.0122   22.6347 C   0  0  2  0  0  0  0  0  0  0  0  0
    7.8705  -20.0422   21.6783 N   0  0  0  0  0  0  0  0  0  0  0  0
    8.2628  -17.7582   22.3620 C   0  0  0  0  0  0  0  0  0  0  0  0
    9.5019  -17.7088   22.2179 O   0  0  0  0  0  0  0  0  0  0  0  0
    6.1165  -13.8665   21.7297 C   0  0  0  0  0  0  0  0  0  0  0  0
    7.4848  -14.2493   21.2683 C   0  0  2  0  0  0  0  0  0  0  0  0
    7.3124  -14.7806   19.8362 C   0  0  0  0  0  0  0  0  0  0  0  0
    8.1978  -15.2399   22.1105 C   0  0  2  0  0  0  0  0  0  0  0  0
    7.5629  -16.5289   22.2515 N   0  0  0  0  0  0  0  0  0  0  0  0
    8.6889  -14.6971   23.3963 C   0  0  0  0  0  0  0  0  0  0  0  0
    9.1598  -13.5375   23.5449 O   0  0  0  0  0  0  0  0  0  0  0  0
    6.5058  -11.8592   25.5931 C   0  0  0  0  0  0  0  0  0  0  0  0
    7.6866  -12.7467   25.2869 C   0  0  0  0  0  0  0  0  0  0  0  0
    7.7510  -13.9298   26.1835 C   0  0  2  0  0  0  0  0  0  0  0  0
    7.7619  -13.4052   27.6114 C   0  0  0  0  0  0  0  0  0  0  0  0
    8.8706  -14.8639   25.9044 C   0  0  2  0  0  0  0  0  0  0  0  0
    8.6535  -15.4796   24.5767 N   0  0  0  0  0  0  0  0  0  0  0  0
    9.0525  -15.9214   26.9271 C   0  0  0  0  0  0  0  0  0  0  0  0
    8.3386  -16.9701   26.8847 O   0  0  0  0  0  0  0  0  0  0  0  0
    9.9774  -15.8226   27.9427 O   0  0  0  0  0  0  0  0  0  0  0  0
  2  3  1  1
  2  1  1  0
  4  5  1  6
  4  2  1  0
  6  4  1  0
  7  6  2  0
  9  8  1  1
  9 11  1  0
 10  9  1  0
 11 12  1  1
 12  6  1  0
 13 11  1  0
 13 20  1  0
 14 13  2  0
 15 16  1  0
 16 17  1  0
 17 19  1  0
 17 18  1  1
 19 20  1  6
 19 21  1  0
 21 23  1  0
 22 21  2  0
M  END
$$$$
