VVI.pdb
     RDKit          3D

 23 22  0  0  1  0  0  0  0  0999 V2000
   13.7430  -19.1326   22.0398 C   0  0  0  0  0  0  0  0  0  0  0  0
   12.8813  -18.0267   22.6762 C   0  0  2  0  0  0  0  0  0  0  0  0
   11.8466  -18.7910   23.5075 C   0  0  0  0  0  0  0  0  0  0  0  0
   12.1969  -17.3254   21.5650 C   0  0  2  0  0  0  0  0  0  0  0  0
   13.0951  -16.8462   20.5350 N   0  0  0  0  0  0  0  0  0  0  0  0
   11.2421  -16.2688   21.9741 C   0  0  0  0  0  0  0  0  0  0  0  0
   11.5952  -15.1416   22.3781 O   0  0  0  0  0  0  0  0  0  0  0  0
    8.0437  -15.1189   19.9020 C   0  0  0  0  0  0  0  0  0  0  0  0
    7.6924  -15.4270   21.3210 C   0  0  2  0  0  0  0  0  0  0  0  0
    6.7321  -14.3131   21.7679 C   0  0  0  0  0  0  0  0  0  0  0  0
    8.8345  -15.5400   22.2601 C   0  0  2  0  0  0  0  0  0  0  0  0
    9.8454  -16.5124   21.9177 N   0  0  0  0  0  0  0  0  0  0  0  0
    8.4411  -15.5971   23.6852 C   0  0  0  0  0  0  0  0  0  0  0  0
    8.5789  -16.6113   24.4206 O   0  0  0  0  0  0  0  0  0  0  0  0
    7.1438  -10.7421   26.1472 C   0  0  0  0  0  0  0  0  0  0  0  0
    7.8278  -12.0751   25.9713 C   0  0  0  0  0  0  0  0  0  0  0  0
    6.8905  -13.2164   26.1343 C   0  0  2  0  0  0  0  0  0  0  0  0
    6.3989  -13.1856   27.5737 C   0  0  0  0  0  0  0  0  0  0  0  0
    7.4421  -14.5378   25.7421 C   0  0  2  0  0  0  0  0  0  0  0  0
    7.8680  -14.4716   24.3268 N   0  0  0  0  0  0  0  0  0  0  0  0
    6.5064  -15.6712   25.9348 C   0  0  0  0  0  0  0  0  0  0  0  0
    5.5461  -15.8422   25.1225 O   0  0  0  0  0  0  0  0  0  0  0  0
    6.6288  -16.5686   26.9723 O   0  0  0  0  0  0  0  0  0  0  0  0
  2  3  1  1
  2  1  1  0
  4  5  1  6
  4  2  1  0
  6  4  1  0
  7  6  2  0
  9  8  1  6
  9 11  1  0
 10  9  1  0
 11 12  1  6
 12  6  1  0
 13 11  1  0
 13 20  1  0
 14 13  2  0
 15 16  1  0
 16 17  1  0
 17 19  1  0
 17 18  1  1
 19 20  1  6
 19 21  1  0
 21 23  1  0
 22 21  2  0
M  END
$$$$
