VVI.pdb
     RDKit          3D

 23 22  0  0  1  0  0  0  0  0999 V2000
    6.6281  -21.0361   25.7102 C   0  0  0  0  0  0  0  0  0  0  0  0
    7.4652  -19.8104   25.3009 C   0  0  2  0  0  0  0  0  0  0  0  0
    7.0517  -18.7251   26.2993 C   0  0  0  0  0  0  0  0  0  0  0  0
    7.0192  -19.4228   23.9422 C   0  0  2  0  0  0  0  0  0  0  0  0
    6.9988  -20.5209   22.9983 N   0  0  0  0  0  0  0  0  0  0  0  0
    7.6962  -18.2371   23.3666 C   0  0  0  0  0  0  0  0  0  0  0  0
    8.8273  -18.2790   22.8399 O   0  0  0  0  0  0  0  0  0  0  0  0
    6.3171  -15.6049   20.7470 C   0  0  0  0  0  0  0  0  0  0  0  0
    6.7811  -14.9351   21.9991 C   0  0  2  0  0  0  0  0  0  0  0  0
    7.5190  -13.6645   21.5478 C   0  0  0  0  0  0  0  0  0  0  0  0
    7.6425  -15.7516   22.8882 C   0  0  2  0  0  0  0  0  0  0  0  0
    7.0580  -16.9701   23.3961 N   0  0  0  0  0  0  0  0  0  0  0  0
    8.3440  -14.9719   23.9317 C   0  0  0  0  0  0  0  0  0  0  0  0
    8.6246  -13.7469   23.8356 O   0  0  0  0  0  0  0  0  0  0  0  0
    6.6296  -11.9711   26.1011 C   0  0  0  0  0  0  0  0  0  0  0  0
    7.7510  -12.8671   25.6369 C   0  0  0  0  0  0  0  0  0  0  0  0
    8.1795  -13.8257   26.6882 C   0  0  2  0  0  0  0  0  0  0  0  0
    8.5567  -13.0041   27.9117 C   0  0  0  0  0  0  0  0  0  0  0  0
    9.2496  -14.7680   26.2747 C   0  0  2  0  0  0  0  0  0  0  0  0
    8.7526  -15.5816   25.1433 N   0  0  0  0  0  0  0  0  0  0  0  0
    9.7346  -15.6547   27.3590 C   0  0  0  0  0  0  0  0  0  0  0  0
   10.4789  -15.1845   28.2735 O   0  0  0  0  0  0  0  0  0  0  0  0
    9.4111  -16.9916   27.4272 O   0  0  0  0  0  0  0  0  0  0  0  0
  2  3  1  1
  2  1  1  0
  4  5  1  6
  4  2  1  0
  6  4  1  0
  7  6  2  0
  9  8  1  6
  9 11  1  0
 10  9  1  0
 11 12  1  1
 12  6  1  0
 13 11  1  0
 13 20  1  0
 14 13  2  0
 15 16  1  0
 16 17  1  0
 17 19  1  0
 17 18  1  1
 19 20  1  6
 19 21  1  0
 21 23  1  0
 22 21  2  0
M  END
$$$$
