VVI.pdb
     RDKit          3D

 23 22  0  0  1  0  0  0  0  0999 V2000
    6.8902  -21.3167   25.1542 C   0  0  0  0  0  0  0  0  0  0  0  0
    7.5866  -19.9550   24.9771 C   0  0  2  0  0  0  0  0  0  0  0  0
    6.9533  -19.0685   26.0535 C   0  0  0  0  0  0  0  0  0  0  0  0
    7.2036  -19.4502   23.6378 C   0  0  2  0  0  0  0  0  0  0  0  0
    7.2954  -20.4454   22.5899 N   0  0  0  0  0  0  0  0  0  0  0  0
    7.8525  -18.1827   23.2283 C   0  0  0  0  0  0  0  0  0  0  0  0
    9.0230  -18.1166   22.7990 O   0  0  0  0  0  0  0  0  0  0  0  0
    6.2722  -15.3092   20.8384 C   0  0  0  0  0  0  0  0  0  0  0  0
    6.7383  -14.7954   22.1614 C   0  0  2  0  0  0  0  0  0  0  0  0
    7.3951  -13.4352   21.8767 C   0  0  0  0  0  0  0  0  0  0  0  0
    7.6675  -15.6783   22.9072 C   0  0  2  0  0  0  0  0  0  0  0  0
    7.1393  -16.9590   23.3135 N   0  0  0  0  0  0  0  0  0  0  0  0
    8.4135  -14.9952   23.9870 C   0  0  0  0  0  0  0  0  0  0  0  0
    8.8906  -13.8322   23.8957 O   0  0  0  0  0  0  0  0  0  0  0  0
    6.6683  -11.9844   26.0805 C   0  0  0  0  0  0  0  0  0  0  0  0
    7.7778  -12.9216   25.6725 C   0  0  0  0  0  0  0  0  0  0  0  0
    8.1710  -13.8425   26.7703 C   0  0  2  0  0  0  0  0  0  0  0  0
    8.6364  -12.9767   27.9314 C   0  0  0  0  0  0  0  0  0  0  0  0
    9.1640  -14.8786   26.3900 C   0  0  2  0  0  0  0  0  0  0  0  0
    8.6395  -15.6340   25.2311 N   0  0  0  0  0  0  0  0  0  0  0  0
    9.5188  -15.8144   27.4834 C   0  0  0  0  0  0  0  0  0  0  0  0
    8.8319  -16.8669   27.6613 O   0  0  0  0  0  0  0  0  0  0  0  0
   10.5795  -15.5961   28.3343 O   0  0  0  0  0  0  0  0  0  0  0  0
  2  3  1  1
  2  1  1  0
  4  5  1  6
  4  2  1  0
  6  4  1  0
  7  6  2  0
  9  8  1  6
  9 11  1  0
 10  9  1  0
 11 12  1  1
 12  6  1  0
 13 11  1  0
 13 20  1  0
 14 13  2  0
 15 16  1  0
 16 17  1  0
 17 19  1  0
 17 18  1  1
 19 20  1  6
 19 21  1  0
 21 23  1  0
 22 21  2  0
M  END
$$$$
