VVI.pdb
     RDKit          3D

 23 22  0  0  1  0  0  0  0  0999 V2000
    8.0553  -12.6155   18.0730 C   0  0  0  0  0  0  0  0  0  0  0  0
    7.6591  -13.2925   19.3979 C   0  0  2  0  0  0  0  0  0  0  0  0
    8.4414  -12.5174   20.4623 C   0  0  0  0  0  0  0  0  0  0  0  0
    8.1637  -14.6841   19.3343 C   0  0  2  0  0  0  0  0  0  0  0  0
    7.6736  -15.4320   18.1952 N   0  0  0  0  0  0  0  0  0  0  0  0
    8.0264  -15.4663   20.5853 C   0  0  0  0  0  0  0  0  0  0  0  0
    6.9397  -15.9257   20.9934 O   0  0  0  0  0  0  0  0  0  0  0  0
    9.3951  -18.7564   21.6780 C   0  0  0  0  0  0  0  0  0  0  0  0
    9.8456  -17.7405   22.6764 C   0  0  2  0  0  0  0  0  0  0  0  0
    9.6932  -18.4073   24.0529 C   0  0  0  0  0  0  0  0  0  0  0  0
    9.1321  -16.4409   22.6437 C   0  0  2  0  0  0  0  0  0  0  0  0
    9.1664  -15.7282   21.3885 N   0  0  0  0  0  0  0  0  0  0  0  0
    9.4098  -15.5701   23.8071 C   0  0  0  0  0  0  0  0  0  0  0  0
   10.4809  -14.9272   23.9741 O   0  0  0  0  0  0  0  0  0  0  0  0
    5.9919  -12.1193   25.8849 C   0  0  0  0  0  0  0  0  0  0  0  0
    7.2419  -12.8611   25.4811 C   0  0  0  0  0  0  0  0  0  0  0  0
    7.6643  -13.8536   26.5030 C   0  0  2  0  0  0  0  0  0  0  0  0
    7.9357  -13.0824   27.7860 C   0  0  0  0  0  0  0  0  0  0  0  0
    8.8010  -14.7192   26.0998 C   0  0  2  0  0  0  0  0  0  0  0  0
    8.4500  -15.4028   24.8355 N   0  0  0  0  0  0  0  0  0  0  0  0
    9.1991  -15.7183   27.1198 C   0  0  0  0  0  0  0  0  0  0  0  0
   10.1967  -15.4905   27.8710 O   0  0  0  0  0  0  0  0  0  0  0  0
    8.5268  -16.9068   27.2989 O   0  0  0  0  0  0  0  0  0  0  0  0
  2  3  1  1
  2  1  1  0
  4  5  1  6
  4  2  1  0
  6  4  1  0
  7  6  2  0
  9  8  1  6
  9 11  1  0
 10  9  1  0
 11 12  1  6
 12  6  1  0
 13 11  1  0
 13 20  1  0
 14 13  2  0
 15 16  1  0
 16 17  1  0
 17 19  1  0
 17 18  1  1
 19 20  1  6
 19 21  1  0
 21 23  1  0
 22 21  2  0
M  END
$$$$
