PIS.pdb
     RDKit          3D

 22 22  0  0  1  0  0  0  0  0999 V2000
    8.1749  -14.6788   20.2086 N   0  0  0  0  0  0  0  0  0  0  0  0
    7.7405  -15.4985   19.1205 C   0  0  0  0  0  0  0  0  0  0  0  0
    6.5543  -16.2987   19.6117 C   0  0  0  0  0  0  0  0  0  0  0  0
    6.7770  -16.2956   21.1263 C   0  0  0  0  0  0  0  0  0  0  0  0
    7.3464  -14.9236   21.3480 C   0  0  1  0  0  0  0  0  0  0  0  0
    8.1122  -14.8329   22.6194 C   0  0  0  0  0  0  0  0  0  0  0  0
    9.3585  -15.0917   22.6696 O   0  0  0  0  0  0  0  0  0  0  0  0
    6.0584  -11.4003   26.2694 C   0  0  0  0  0  0  0  0  0  0  0  0
    7.0144  -12.2022   25.3634 C   0  0  0  0  0  0  0  0  0  0  0  0
    7.3439  -13.5176   25.9757 C   0  0  2  0  0  0  0  0  0  0  0  0
    7.7878  -13.4152   27.4062 C   0  0  0  0  0  0  0  0  0  0  0  0
    8.2161  -14.3915   25.1149 C   0  0  2  0  0  0  0  0  0  0  0  0
    7.5091  -14.4587   23.8318 N   0  0  0  0  0  0  0  0  0  0  0  0
    8.4917  -15.7241   25.6449 C   0  0  0  0  0  0  0  0  0  0  0  0
    7.5460  -16.5411   25.9067 O   0  0  0  0  0  0  0  0  0  0  0  0
   12.2540  -17.4895   25.2486 O   0  0  0  0  0  0  0  0  0  0  0  0
   11.0821  -18.2129   25.3369 C   0  0  0  0  0  0  0  0  0  0  0  0
   10.0588  -17.5866   26.2587 C   0  0  2  0  0  0  0  0  0  0  0  0
    9.8024  -16.1998   25.8995 N   0  0  0  0  0  0  0  0  0  0  0  0
   10.4985  -17.7082   27.6693 C   0  0  0  0  0  0  0  0  0  0  0  0
   10.6430  -16.6654   28.3892 O   0  0  0  0  0  0  0  0  0  0  0  0
   10.7582  -18.9293   28.2303 O   0  0  0  0  0  0  0  0  0  0  0  0
  1  2  1  0
  1  5  1  0
  2  3  1  0
  3  4  1  0
  5  6  1  1
  5  4  1  0
  6 13  1  0
  7  6  2  0
  8  9  1  0
  9 10  1  0
 10 11  1  1
 10 12  1  0
 12 14  1  0
 12 13  1  6
 14 15  2  0
 14 19  1  0
 16 17  1  0
 18 17  1  6
 18 20  1  0
 19 18  1  0
 20 22  1  0
 21 20  2  0
M  END
$$$$
