PIS.pdb
     RDKit          3D

 22 22  0  0  1  0  0  0  0  0999 V2000
    7.3332  -14.9204   20.7577 N   0  0  0  0  0  0  0  0  0  0  0  0
    6.5477  -14.3577   19.7037 C   0  0  0  0  0  0  0  0  0  0  0  0
    7.2863  -13.1370   19.2008 C   0  0  0  0  0  0  0  0  0  0  0  0
    8.1504  -12.7706   20.4102 C   0  0  0  0  0  0  0  0  0  0  0  0
    8.5055  -14.1253   20.9530 C   0  0  1  0  0  0  0  0  0  0  0  0
    8.9045  -14.0691   22.3843 C   0  0  0  0  0  0  0  0  0  0  0  0
   10.1105  -13.8556   22.7347 O   0  0  0  0  0  0  0  0  0  0  0  0
    6.1084  -11.4376   26.0025 C   0  0  0  0  0  0  0  0  0  0  0  0
    7.1946  -12.1630   25.1830 C   0  0  0  0  0  0  0  0  0  0  0  0
    7.2801  -13.5969   25.5710 C   0  0  2  0  0  0  0  0  0  0  0  0
    7.2638  -13.8148   27.0563 C   0  0  0  0  0  0  0  0  0  0  0  0
    8.3492  -14.3651   24.8414 C   0  0  2  0  0  0  0  0  0  0  0  0
    7.9800  -14.2471   23.4270 N   0  0  0  0  0  0  0  0  0  0  0  0
    8.5049  -15.7615   25.2395 C   0  0  0  0  0  0  0  0  0  0  0  0
    7.5091  -16.5606   25.2545 O   0  0  0  0  0  0  0  0  0  0  0  0
   12.1018  -17.7619   25.0594 O   0  0  0  0  0  0  0  0  0  0  0  0
   10.8971  -18.4304   25.1395 C   0  0  0  0  0  0  0  0  0  0  0  0
    9.8746  -17.7224   26.0011 C   0  0  2  0  0  0  0  0  0  0  0  0
    9.7477  -16.3215   25.6276 N   0  0  0  0  0  0  0  0  0  0  0  0
   10.2222  -17.8713   27.4345 C   0  0  0  0  0  0  0  0  0  0  0  0
   10.3937  -16.8396   28.1644 O   0  0  0  0  0  0  0  0  0  0  0  0
   10.3668  -19.1063   28.0065 O   0  0  0  0  0  0  0  0  0  0  0  0
  1  2  1  0
  1  5  1  0
  2  3  1  0
  3  4  1  0
  5  6  1  1
  5  4  1  0
  6 13  1  0
  7  6  2  0
  8  9  1  0
  9 10  1  0
 10 11  1  1
 10 12  1  0
 12 14  1  0
 12 13  1  6
 14 15  2  0
 14 19  1  0
 16 17  1  0
 18 17  1  6
 18 20  1  0
 19 18  1  0
 20 22  1  0
 21 20  2  0
M  END
$$$$
