PIS.pdb
     RDKit          3D

 22 22  0  0  1  0  0  0  0  0999 V2000
    6.8732  -14.5866   20.8095 N   0  0  0  0  0  0  0  0  0  0  0  0
    6.2084  -13.8137   19.8068 C   0  0  0  0  0  0  0  0  0  0  0  0
    7.2400  -12.8868   19.2024 C   0  0  0  0  0  0  0  0  0  0  0  0
    8.2809  -12.8005   20.3217 C   0  0  0  0  0  0  0  0  0  0  0  0
    8.2466  -14.1949   20.8783 C   0  0  1  0  0  0  0  0  0  0  0  0
    8.7713  -14.2571   22.2683 C   0  0  0  0  0  0  0  0  0  0  0  0
   10.0102  -14.1050   22.5232 O   0  0  0  0  0  0  0  0  0  0  0  0
    5.9109  -11.7589   25.8551 C   0  0  0  0  0  0  0  0  0  0  0  0
    7.0577  -12.4063   25.0531 C   0  0  0  0  0  0  0  0  0  0  0  0
    7.3207  -13.7908   25.5303 C   0  0  2  0  0  0  0  0  0  0  0  0
    7.4455  -13.8935   27.0228 C   0  0  0  0  0  0  0  0  0  0  0  0
    8.4013  -14.5065   24.7651 C   0  0  2  0  0  0  0  0  0  0  0  0
    7.9361  -14.4858   23.3745 N   0  0  0  0  0  0  0  0  0  0  0  0
    8.6952  -15.8655   25.2113 C   0  0  0  0  0  0  0  0  0  0  0  0
    7.7934  -16.7695   25.2187 O   0  0  0  0  0  0  0  0  0  0  0  0
   11.4410  -17.9709   24.0633 O   0  0  0  0  0  0  0  0  0  0  0  0
   11.4135  -18.2447   25.4156 C   0  0  0  0  0  0  0  0  0  0  0  0
   10.2307  -17.6268   26.1286 C   0  0  2  0  0  0  0  0  0  0  0  0
    9.9773  -16.2735   25.6570 N   0  0  0  0  0  0  0  0  0  0  0  0
   10.4440  -17.6582   27.5953 C   0  0  0  0  0  0  0  0  0  0  0  0
   10.4333  -16.5754   28.2692 O   0  0  0  0  0  0  0  0  0  0  0  0
   10.6557  -18.8368   28.2580 O   0  0  0  0  0  0  0  0  0  0  0  0
  1  2  1  0
  1  5  1  0
  2  3  1  0
  3  4  1  0
  5  6  1  1
  5  4  1  0
  6 13  1  0
  7  6  2  0
  8  9  1  0
  9 10  1  0
 10 11  1  1
 10 12  1  0
 12 14  1  0
 12 13  1  6
 14 15  2  0
 14 19  1  0
 16 17  1  0
 18 17  1  6
 18 20  1  0
 19 18  1  0
 20 22  1  0
 21 20  2  0
M  END
$$$$
