PIS.pdb
     RDKit          3D

 22 22  0  0  1  0  0  0  0  0999 V2000
    6.9598  -14.7710   20.8021 N   0  0  0  0  0  0  0  0  0  0  0  0
    6.3636  -14.0714   19.7068 C   0  0  0  0  0  0  0  0  0  0  0  0
    7.4439  -13.2144   19.0848 C   0  0  0  0  0  0  0  0  0  0  0  0
    8.4278  -13.0544   20.2467 C   0  0  0  0  0  0  0  0  0  0  0  0
    8.3359  -14.3981   20.9114 C   0  0  1  0  0  0  0  0  0  0  0  0
    8.7874  -14.3554   22.3276 C   0  0  0  0  0  0  0  0  0  0  0  0
   10.0153  -14.2099   22.6342 O   0  0  0  0  0  0  0  0  0  0  0  0
    5.8333  -11.6211   25.6631 C   0  0  0  0  0  0  0  0  0  0  0  0
    7.0161  -12.3214   24.9645 C   0  0  0  0  0  0  0  0  0  0  0  0
    7.2176  -13.6905   25.5112 C   0  0  2  0  0  0  0  0  0  0  0  0
    7.2947  -13.7287   27.0100 C   0  0  0  0  0  0  0  0  0  0  0  0
    8.2954  -14.4754   24.8128 C   0  0  2  0  0  0  0  0  0  0  0  0
    7.8912  -14.4724   23.4031 N   0  0  0  0  0  0  0  0  0  0  0  0
    8.5065  -15.8334   25.3065 C   0  0  0  0  0  0  0  0  0  0  0  0
    7.5425  -16.6671   25.3838 O   0  0  0  0  0  0  0  0  0  0  0  0
   12.1755  -17.6806   25.1152 O   0  0  0  0  0  0  0  0  0  0  0  0
   10.9919  -18.3821   25.2226 C   0  0  0  0  0  0  0  0  0  0  0  0
    9.9723  -17.7052   26.1122 C   0  0  2  0  0  0  0  0  0  0  0  0
    9.7715  -16.3169   25.7248 N   0  0  0  0  0  0  0  0  0  0  0  0
   10.3786  -17.8175   27.5335 C   0  0  0  0  0  0  0  0  0  0  0  0
   10.5439  -16.7680   28.2391 O   0  0  0  0  0  0  0  0  0  0  0  0
   10.5849  -19.0368   28.1199 O   0  0  0  0  0  0  0  0  0  0  0  0
  1  2  1  0
  1  5  1  0
  2  3  1  0
  3  4  1  0
  5  6  1  1
  5  4  1  0
  6 13  1  0
  7  6  2  0
  8  9  1  0
  9 10  1  0
 10 11  1  1
 10 12  1  0
 12 14  1  0
 12 13  1  6
 14 15  2  0
 14 19  1  0
 16 17  1  0
 18 17  1  6
 18 20  1  0
 19 18  1  0
 20 22  1  0
 21 20  2  0
M  END
$$$$
