PIS.pdb
     RDKit          3D

 22 22  0  0  1  0  0  0  0  0999 V2000
    8.2278  -13.6474   19.8490 N   0  0  0  0  0  0  0  0  0  0  0  0
    7.8405  -14.2455   18.6093 C   0  0  0  0  0  0  0  0  0  0  0  0
    6.6290  -15.1070   18.8899 C   0  0  0  0  0  0  0  0  0  0  0  0
    6.7812  -15.3875   20.3872 C   0  0  0  0  0  0  0  0  0  0  0  0
    7.3462  -14.0880   20.8850 C   0  0  1  0  0  0  0  0  0  0  0  0
    8.0527  -14.2445   22.1841 C   0  0  0  0  0  0  0  0  0  0  0  0
    9.2884  -14.5487   22.2411 O   0  0  0  0  0  0  0  0  0  0  0  0
    5.7762  -11.5126   26.3395 C   0  0  0  0  0  0  0  0  0  0  0  0
    6.8143  -12.0909   25.3569 C   0  0  0  0  0  0  0  0  0  0  0  0
    7.1119  -13.5128   25.6787 C   0  0  2  0  0  0  0  0  0  0  0  0
    7.4319  -13.7420   27.1275 C   0  0  0  0  0  0  0  0  0  0  0  0
    8.0675  -14.1699   24.7193 C   0  0  2  0  0  0  0  0  0  0  0  0
    7.4021  -14.0669   23.4165 N   0  0  0  0  0  0  0  0  0  0  0  0
    8.4236  -15.5513   25.0312 C   0  0  0  0  0  0  0  0  0  0  0  0
    7.5649  -16.4922   24.9434 O   0  0  0  0  0  0  0  0  0  0  0  0
   11.6180  -19.0205   24.7316 O   0  0  0  0  0  0  0  0  0  0  0  0
   11.1990  -17.7113   24.6093 C   0  0  0  0  0  0  0  0  0  0  0  0
   10.0962  -17.3417   25.5770 C   0  0  2  0  0  0  0  0  0  0  0  0
    9.7225  -15.9416   25.4428 N   0  0  0  0  0  0  0  0  0  0  0  0
   10.5051  -17.6624   26.9654 C   0  0  0  0  0  0  0  0  0  0  0  0
   10.5659  -16.7418   27.8460 O   0  0  0  0  0  0  0  0  0  0  0  0
   10.8249  -18.9408   27.3352 O   0  0  0  0  0  0  0  0  0  0  0  0
  1  2  1  0
  1  5  1  0
  2  3  1  0
  3  4  1  0
  5  6  1  1
  5  4  1  0
  6 13  1  0
  7  6  2  0
  8  9  1  0
  9 10  1  0
 10 11  1  1
 10 12  1  0
 12 14  1  0
 12 13  1  6
 14 15  2  0
 14 19  1  0
 16 17  1  0
 18 17  1  6
 18 20  1  0
 19 18  1  0
 20 22  1  0
 21 20  2  0
M  END
$$$$
