PIS.pdb
     RDKit          3D

 22 22  0  0  1  0  0  0  0  0999 V2000
    6.9412  -14.6089   20.8117 N   0  0  0  0  0  0  0  0  0  0  0  0
    6.3904  -13.8525   19.7304 C   0  0  0  0  0  0  0  0  0  0  0  0
    7.5361  -13.1132   19.0752 C   0  0  0  0  0  0  0  0  0  0  0  0
    8.5634  -13.0549   20.2088 C   0  0  0  0  0  0  0  0  0  0  0  0
    8.3510  -14.3810   20.8813 C   0  0  1  0  0  0  0  0  0  0  0  0
    8.8440  -14.3837   22.2842 C   0  0  0  0  0  0  0  0  0  0  0  0
   10.0885  -14.3700   22.5560 O   0  0  0  0  0  0  0  0  0  0  0  0
    5.8682  -11.6344   25.6547 C   0  0  0  0  0  0  0  0  0  0  0  0
    7.0036  -12.3357   24.8822 C   0  0  0  0  0  0  0  0  0  0  0  0
    7.3474  -13.6378   25.5147 C   0  0  2  0  0  0  0  0  0  0  0  0
    7.5583  -13.5431   26.9981 C   0  0  0  0  0  0  0  0  0  0  0  0
    8.4119  -14.4108   24.7833 C   0  0  2  0  0  0  0  0  0  0  0  0
    7.9709  -14.4016   23.3847 N   0  0  0  0  0  0  0  0  0  0  0  0
    8.6450  -15.7705   25.2624 C   0  0  0  0  0  0  0  0  0  0  0  0
    7.6862  -16.6062   25.3752 O   0  0  0  0  0  0  0  0  0  0  0  0
   12.3970  -17.4720   25.1071 O   0  0  0  0  0  0  0  0  0  0  0  0
   11.2609  -18.2541   25.1539 C   0  0  0  0  0  0  0  0  0  0  0  0
   10.1490  -17.6473   25.9813 C   0  0  2  0  0  0  0  0  0  0  0  0
    9.9267  -16.2534   25.6270 N   0  0  0  0  0  0  0  0  0  0  0  0
   10.4455  -17.7982   27.4260 C   0  0  0  0  0  0  0  0  0  0  0  0
   10.5440  -16.7687   28.1724 O   0  0  0  0  0  0  0  0  0  0  0  0
   10.6193  -19.0326   27.9910 O   0  0  0  0  0  0  0  0  0  0  0  0
  1  2  1  0
  1  5  1  0
  2  3  1  0
  3  4  1  0
  5  6  1  1
  5  4  1  0
  6 13  1  0
  7  6  2  0
  8  9  1  0
  9 10  1  0
 10 11  1  1
 10 12  1  0
 12 14  1  0
 12 13  1  6
 14 15  2  0
 14 19  1  0
 16 17  1  0
 18 17  1  6
 18 20  1  0
 19 18  1  0
 20 22  1  0
 21 20  2  0
M  END
$$$$
