PIS.pdb
     RDKit          3D

 22 22  0  0  1  0  0  0  0  0999 V2000
    7.9719  -14.7356   20.0594 N   0  0  0  0  0  0  0  0  0  0  0  0
    7.6153  -15.6340   19.0057 C   0  0  0  0  0  0  0  0  0  0  0  0
    6.6088  -16.6099   19.5742 C   0  0  0  0  0  0  0  0  0  0  0  0
    6.9172  -16.5443   21.0723 C   0  0  0  0  0  0  0  0  0  0  0  0
    7.2641  -15.0938   21.2490 C   0  0  1  0  0  0  0  0  0  0  0  0
    8.0783  -14.8566   22.4705 C   0  0  0  0  0  0  0  0  0  0  0  0
    9.3518  -14.8595   22.4367 O   0  0  0  0  0  0  0  0  0  0  0  0
    6.0337  -11.5010   26.1139 C   0  0  0  0  0  0  0  0  0  0  0  0
    7.0093  -12.2830   25.2115 C   0  0  0  0  0  0  0  0  0  0  0  0
    7.3728  -13.5863   25.8305 C   0  0  2  0  0  0  0  0  0  0  0  0
    7.8289  -13.4631   27.2555 C   0  0  0  0  0  0  0  0  0  0  0  0
    8.2546  -14.4484   24.9676 C   0  0  2  0  0  0  0  0  0  0  0  0
    7.4937  -14.6171   23.7253 N   0  0  0  0  0  0  0  0  0  0  0  0
    8.6340  -15.7361   25.5423 C   0  0  0  0  0  0  0  0  0  0  0  0
    7.7564  -16.6199   25.8237 O   0  0  0  0  0  0  0  0  0  0  0  0
   11.5489  -17.7670   24.2939 O   0  0  0  0  0  0  0  0  0  0  0  0
   11.5526  -17.9636   25.6599 C   0  0  0  0  0  0  0  0  0  0  0  0
   10.3281  -17.4033   26.3496 C   0  0  2  0  0  0  0  0  0  0  0  0
    9.9768  -16.0934   25.8216 N   0  0  0  0  0  0  0  0  0  0  0  0
   10.5432  -17.3563   27.8157 C   0  0  0  0  0  0  0  0  0  0  0  0
   10.4164  -16.2563   28.4485 O   0  0  0  0  0  0  0  0  0  0  0  0
   10.8800  -18.4797   28.5213 O   0  0  0  0  0  0  0  0  0  0  0  0
  1  2  1  0
  1  5  1  0
  2  3  1  0
  3  4  1  0
  5  6  1  1
  5  4  1  0
  6 13  1  0
  7  6  2  0
  8  9  1  0
  9 10  1  0
 10 11  1  1
 10 12  1  0
 12 14  1  0
 12 13  1  6
 14 15  2  0
 14 19  1  0
 16 17  1  0
 18 17  1  6
 18 20  1  0
 19 18  1  0
 20 22  1  0
 21 20  2  0
M  END
$$$$
