PIS.pdb
     RDKit          3D

 22 22  0  0  1  0  0  0  0  0999 V2000
    8.2896  -14.6694   19.9594 N   0  0  0  0  0  0  0  0  0  0  0  0
    7.9043  -15.4754   18.8429 C   0  0  0  0  0  0  0  0  0  0  0  0
    6.7052  -16.2904   19.2748 C   0  0  0  0  0  0  0  0  0  0  0  0
    6.8677  -16.3086   20.7969 C   0  0  0  0  0  0  0  0  0  0  0  0
    7.4184  -14.9366   21.0613 C   0  0  1  0  0  0  0  0  0  0  0  0
    8.1326  -14.8601   22.3633 C   0  0  0  0  0  0  0  0  0  0  0  0
    9.3681  -15.1529   22.4668 O   0  0  0  0  0  0  0  0  0  0  0  0
    5.9735  -11.4749   26.0988 C   0  0  0  0  0  0  0  0  0  0  0  0
    6.9523  -12.2409   25.1861 C   0  0  0  0  0  0  0  0  0  0  0  0
    7.2090  -13.6076   25.7154 C   0  0  2  0  0  0  0  0  0  0  0  0
    7.5310  -13.6285   27.1816 C   0  0  0  0  0  0  0  0  0  0  0  0
    8.1384  -14.4290   24.8628 C   0  0  2  0  0  0  0  0  0  0  0  0
    7.4901  -14.4629   23.5478 N   0  0  0  0  0  0  0  0  0  0  0  0
    8.4218  -15.7743   25.3550 C   0  0  0  0  0  0  0  0  0  0  0  0
    7.4847  -16.6201   25.5471 O   0  0  0  0  0  0  0  0  0  0  0  0
   12.1553  -17.4502   24.9277 O   0  0  0  0  0  0  0  0  0  0  0  0
   11.0310  -18.2337   25.0906 C   0  0  0  0  0  0  0  0  0  0  0  0
    9.9975  -17.6164   26.0071 C   0  0  2  0  0  0  0  0  0  0  0  0
    9.7312  -16.2317   25.6468 N   0  0  0  0  0  0  0  0  0  0  0  0
   10.4308  -17.7345   27.4200 C   0  0  0  0  0  0  0  0  0  0  0  0
   10.7291  -18.8749   27.9071 O   0  0  0  0  0  0  0  0  0  0  0  0
   10.5213  -16.6352   28.2302 O   0  0  0  0  0  0  0  0  0  0  0  0
  1  2  1  0
  1  5  1  0
  2  3  1  0
  3  4  1  0
  5  6  1  1
  5  4  1  0
  6 13  1  0
  7  6  2  0
  8  9  1  0
  9 10  1  0
 10 11  1  1
 10 12  1  0
 12 14  1  0
 12 13  1  6
 14 15  2  0
 14 19  1  0
 16 17  1  0
 18 17  1  6
 18 20  1  0
 19 18  1  0
 20 22  1  0
 21 20  2  0
M  END
$$$$
