PIS.pdb
     RDKit          3D

 22 22  0  0  1  0  0  0  0  0999 V2000
    8.3693  -15.1232   19.9247 N   0  0  0  0  0  0  0  0  0  0  0  0
    7.9205  -16.0480   18.9308 C   0  0  0  0  0  0  0  0  0  0  0  0
    6.6533  -16.6858   19.4561 C   0  0  0  0  0  0  0  0  0  0  0  0
    6.8069  -16.4949   20.9673 C   0  0  0  0  0  0  0  0  0  0  0  0
    7.4733  -15.1509   21.0387 C   0  0  1  0  0  0  0  0  0  0  0  0
    8.1858  -14.9458   22.3277 C   0  0  0  0  0  0  0  0  0  0  0  0
    9.4254  -15.2100   22.4563 O   0  0  0  0  0  0  0  0  0  0  0  0
    7.1649  -11.5871   27.3316 C   0  0  0  0  0  0  0  0  0  0  0  0
    7.9903  -12.7463   26.7377 C   0  0  0  0  0  0  0  0  0  0  0  0
    7.3769  -13.2392   25.4749 C   0  0  2  0  0  0  0  0  0  0  0  0
    5.9129  -13.5457   25.6029 C   0  0  0  0  0  0  0  0  0  0  0  0
    8.1781  -14.3092   24.7828 C   0  0  2  0  0  0  0  0  0  0  0  0
    7.5369  -14.4519   23.4716 N   0  0  0  0  0  0  0  0  0  0  0  0
    8.2577  -15.5886   25.4822 C   0  0  0  0  0  0  0  0  0  0  0  0
    7.2251  -16.3232   25.6382 O   0  0  0  0  0  0  0  0  0  0  0  0
   11.6411  -17.8769   25.4083 O   0  0  0  0  0  0  0  0  0  0  0  0
   10.3640  -18.3461   25.6391 C   0  0  0  0  0  0  0  0  0  0  0  0
    9.5532  -17.4534   26.5527 C   0  0  2  0  0  0  0  0  0  0  0  0
    9.4629  -16.0999   26.0253 N   0  0  0  0  0  0  0  0  0  0  0  0
   10.1263  -17.4647   27.9199 C   0  0  0  0  0  0  0  0  0  0  0  0
   10.2964  -18.5685   28.5358 O   0  0  0  0  0  0  0  0  0  0  0  0
   10.4841  -16.3039   28.5505 O   0  0  0  0  0  0  0  0  0  0  0  0
  1  2  1  0
  1  5  1  0
  2  3  1  0
  3  4  1  0
  5  6  1  1
  5  4  1  0
  6 13  1  0
  7  6  2  0
  8  9  1  0
  9 10  1  0
 10 11  1  1
 10 12  1  0
 12 14  1  0
 12 13  1  6
 14 15  2  0
 14 19  1  0
 16 17  1  0
 18 17  1  6
 18 20  1  0
 19 18  1  0
 20 22  1  0
 21 20  2  0
M  END
$$$$
