PIS.pdb
     RDKit          3D

 22 22  0  0  1  0  0  0  0  0999 V2000
    8.0860  -14.6781   20.1575 N   0  0  0  0  0  0  0  0  0  0  0  0
    7.6123  -15.4759   19.0696 C   0  0  0  0  0  0  0  0  0  0  0  0
    6.4270  -16.2656   19.5796 C   0  0  0  0  0  0  0  0  0  0  0  0
    6.6876  -16.2870   21.0880 C   0  0  0  0  0  0  0  0  0  0  0  0
    7.2828  -14.9267   21.3141 C   0  0  1  0  0  0  0  0  0  0  0  0
    8.0815  -14.8651   22.5668 C   0  0  0  0  0  0  0  0  0  0  0  0
    9.3231  -15.1498   22.5833 O   0  0  0  0  0  0  0  0  0  0  0  0
    6.1131  -11.4894   26.3577 C   0  0  0  0  0  0  0  0  0  0  0  0
    7.0579  -12.2529   25.4080 C   0  0  0  0  0  0  0  0  0  0  0  0
    7.3956  -13.5919   25.9622 C   0  0  2  0  0  0  0  0  0  0  0  0
    7.8512  -13.5480   27.3919 C   0  0  0  0  0  0  0  0  0  0  0  0
    8.2626  -14.4268   25.0585 C   0  0  2  0  0  0  0  0  0  0  0  0
    7.5165  -14.4914   23.7976 N   0  0  0  0  0  0  0  0  0  0  0  0
    8.5909  -15.7601   25.5554 C   0  0  0  0  0  0  0  0  0  0  0  0
    7.6759  -16.5993   25.8536 O   0  0  0  0  0  0  0  0  0  0  0  0
   12.4495  -17.4105   25.2204 O   0  0  0  0  0  0  0  0  0  0  0  0
   11.3067  -18.1820   25.2792 C   0  0  0  0  0  0  0  0  0  0  0  0
   10.2194  -17.5785   26.1409 C   0  0  2  0  0  0  0  0  0  0  0  0
    9.9218  -16.2124   25.7367 N   0  0  0  0  0  0  0  0  0  0  0  0
   10.6021  -17.6488   27.5714 C   0  0  0  0  0  0  0  0  0  0  0  0
   10.6859  -16.5831   28.2670 O   0  0  0  0  0  0  0  0  0  0  0  0
   10.8727  -18.8460   28.1770 O   0  0  0  0  0  0  0  0  0  0  0  0
  1  2  1  0
  1  5  1  0
  2  3  1  0
  3  4  1  0
  5  6  1  1
  5  4  1  0
  6 13  1  0
  7  6  2  0
  8  9  1  0
  9 10  1  0
 10 11  1  1
 10 12  1  0
 12 14  1  0
 12 13  1  6
 14 15  2  0
 14 19  1  0
 16 17  1  0
 18 17  1  6
 18 20  1  0
 19 18  1  0
 20 22  1  0
 21 20  2  0
M  END
$$$$
