PIS.pdb
     RDKit          3D

 22 22  0  0  1  0  0  0  0  0999 V2000
    7.9009  -14.7778   20.0048 N   0  0  0  0  0  0  0  0  0  0  0  0
    7.4787  -15.6608   18.9623 C   0  0  0  0  0  0  0  0  0  0  0  0
    6.4205  -16.5688   19.5492 C   0  0  0  0  0  0  0  0  0  0  0  0
    6.7482  -16.5106   21.0435 C   0  0  0  0  0  0  0  0  0  0  0  0
    7.1852  -15.0828   21.2045 C   0  0  1  0  0  0  0  0  0  0  0  0
    8.0253  -14.8865   22.4156 C   0  0  0  0  0  0  0  0  0  0  0  0
    9.2967  -14.9500   22.3654 O   0  0  0  0  0  0  0  0  0  0  0  0
    5.9622  -11.6493   26.2253 C   0  0  0  0  0  0  0  0  0  0  0  0
    6.9662  -12.3456   25.2846 C   0  0  0  0  0  0  0  0  0  0  0  0
    7.3610  -13.6751   25.8234 C   0  0  2  0  0  0  0  0  0  0  0  0
    7.8236  -13.6267   27.2508 C   0  0  0  0  0  0  0  0  0  0  0  0
    8.2551  -14.4657   24.9063 C   0  0  2  0  0  0  0  0  0  0  0  0
    7.4690  -14.6212   23.6780 N   0  0  0  0  0  0  0  0  0  0  0  0
    8.7039  -15.7561   25.4218 C   0  0  0  0  0  0  0  0  0  0  0  0
    7.8696  -16.6712   25.7330 O   0  0  0  0  0  0  0  0  0  0  0  0
   11.7046  -17.7949   24.0299 O   0  0  0  0  0  0  0  0  0  0  0  0
   11.7684  -17.8383   25.4078 C   0  0  0  0  0  0  0  0  0  0  0  0
   10.4890  -17.3930   26.0817 C   0  0  2  0  0  0  0  0  0  0  0  0
   10.0707  -16.0820   25.6080 N   0  0  0  0  0  0  0  0  0  0  0  0
   10.6542  -17.4092   27.5549 C   0  0  0  0  0  0  0  0  0  0  0  0
   10.4695  -16.3454   28.2336 O   0  0  0  0  0  0  0  0  0  0  0  0
   11.0054  -18.5536   28.2184 O   0  0  0  0  0  0  0  0  0  0  0  0
  1  2  1  0
  1  5  1  0
  2  3  1  0
  3  4  1  0
  5  6  1  1
  5  4  1  0
  6 13  1  0
  7  6  2  0
  8  9  1  0
  9 10  1  0
 10 11  1  1
 10 12  1  0
 12 14  1  0
 12 13  1  6
 14 15  2  0
 14 19  1  0
 16 17  1  0
 18 17  1  6
 18 20  1  0
 19 18  1  0
 20 22  1  0
 21 20  2  0
M  END
$$$$
