PIS.pdb
     RDKit          3D

 22 22  0  0  1  0  0  0  0  0999 V2000
    6.9803  -14.7505   21.1640 N   0  0  0  0  0  0  0  0  0  0  0  0
    6.3731  -13.9873   20.1183 C   0  0  0  0  0  0  0  0  0  0  0  0
    7.4760  -13.2050   19.4399 C   0  0  0  0  0  0  0  0  0  0  0  0
    8.5403  -13.1425   20.5386 C   0  0  0  0  0  0  0  0  0  0  0  0
    8.3855  -14.4869   21.1899 C   0  0  1  0  0  0  0  0  0  0  0  0
    8.9269  -14.5049   22.5748 C   0  0  0  0  0  0  0  0  0  0  0  0
   10.1777  -14.4324   22.8051 O   0  0  0  0  0  0  0  0  0  0  0  0
    6.1465  -11.7505   25.9688 C   0  0  0  0  0  0  0  0  0  0  0  0
    7.2631  -12.4842   25.1989 C   0  0  0  0  0  0  0  0  0  0  0  0
    7.5810  -13.7872   25.8430 C   0  0  2  0  0  0  0  0  0  0  0  0
    7.8553  -13.6739   27.3147 C   0  0  0  0  0  0  0  0  0  0  0  0
    8.5838  -14.6154   25.0854 C   0  0  2  0  0  0  0  0  0  0  0  0
    8.0951  -14.6022   23.7028 N   0  0  0  0  0  0  0  0  0  0  0  0
    8.7730  -15.9786   25.5736 C   0  0  0  0  0  0  0  0  0  0  0  0
    7.7873  -16.7809   25.6955 O   0  0  0  0  0  0  0  0  0  0  0  0
   12.4301  -17.9345   25.3668 O   0  0  0  0  0  0  0  0  0  0  0  0
   11.2187  -18.5915   25.4409 C   0  0  0  0  0  0  0  0  0  0  0  0
   10.2110  -17.8930   26.3275 C   0  0  2  0  0  0  0  0  0  0  0  0
   10.0391  -16.5014   25.9378 N   0  0  0  0  0  0  0  0  0  0  0  0
   10.6120  -18.0115   27.7498 C   0  0  0  0  0  0  0  0  0  0  0  0
   10.8425  -16.9651   28.4415 O   0  0  0  0  0  0  0  0  0  0  0  0
   10.7442  -19.2335   28.3518 O   0  0  0  0  0  0  0  0  0  0  0  0
  1  2  1  0
  1  5  1  0
  2  3  1  0
  3  4  1  0
  5  6  1  1
  5  4  1  0
  6 13  1  0
  7  6  2  0
  8  9  1  0
  9 10  1  0
 10 11  1  1
 10 12  1  0
 12 14  1  0
 12 13  1  6
 14 15  2  0
 14 19  1  0
 16 17  1  0
 18 17  1  6
 18 20  1  0
 19 18  1  0
 20 22  1  0
 21 20  2  0
M  END
$$$$
