PIS.pdb
     RDKit          3D

 22 22  0  0  1  0  0  0  0  0999 V2000
    6.9281  -15.6040   21.1054 N   0  0  0  0  0  0  0  0  0  0  0  0
    6.2531  -15.0360   19.9801 C   0  0  0  0  0  0  0  0  0  0  0  0
    7.2805  -14.2522   19.1936 C   0  0  0  0  0  0  0  0  0  0  0  0
    8.3374  -13.9574   20.2612 C   0  0  0  0  0  0  0  0  0  0  0  0
    8.3043  -15.2167   21.0790 C   0  0  1  0  0  0  0  0  0  0  0  0
    8.8482  -15.0111   22.4476 C   0  0  0  0  0  0  0  0  0  0  0  0
   10.0945  -14.8472   22.6546 O   0  0  0  0  0  0  0  0  0  0  0  0
    6.9679  -11.8413   27.0817 C   0  0  0  0  0  0  0  0  0  0  0  0
    7.9450  -12.9726   26.7033 C   0  0  0  0  0  0  0  0  0  0  0  0
    7.5281  -13.6288   25.4347 C   0  0  2  0  0  0  0  0  0  0  0  0
    6.0929  -14.0693   25.4347 C   0  0  0  0  0  0  0  0  0  0  0  0
    8.4973  -14.6667   24.9358 C   0  0  2  0  0  0  0  0  0  0  0  0
    8.0240  -14.9859   23.5850 N   0  0  0  0  0  0  0  0  0  0  0  0
    8.6150  -15.8667   25.7596 C   0  0  0  0  0  0  0  0  0  0  0  0
    7.5817  -16.5172   26.1332 O   0  0  0  0  0  0  0  0  0  0  0  0
   12.1309  -18.0216   25.9554 O   0  0  0  0  0  0  0  0  0  0  0  0
   10.9170  -18.5982   26.2693 C   0  0  0  0  0  0  0  0  0  0  0  0
    9.9512  -17.6398   26.9310 C   0  0  2  0  0  0  0  0  0  0  0  0
    9.8593  -16.3886   26.1933 N   0  0  0  0  0  0  0  0  0  0  0  0
   10.3449  -17.4092   28.3415 C   0  0  0  0  0  0  0  0  0  0  0  0
   10.5675  -16.2255   28.7609 O   0  0  0  0  0  0  0  0  0  0  0  0
   10.4784  -18.4489   29.2215 O   0  0  0  0  0  0  0  0  0  0  0  0
  1  2  1  0
  1  5  1  0
  2  3  1  0
  3  4  1  0
  5  6  1  1
  5  4  1  0
  6 13  1  0
  7  6  2  0
  8  9  1  0
  9 10  1  0
 10 11  1  1
 10 12  1  0
 12 14  1  0
 12 13  1  6
 14 15  2  0
 14 19  1  0
 16 17  1  0
 18 17  1  6
 18 20  1  0
 19 18  1  0
 20 22  1  0
 21 20  2  0
M  END
$$$$
