PIS.pdb
     RDKit          3D

 22 22  0  0  1  0  0  0  0  0999 V2000
    6.9322  -14.4512   20.7989 N   0  0  0  0  0  0  0  0  0  0  0  0
    6.3546  -13.6321   19.7791 C   0  0  0  0  0  0  0  0  0  0  0  0
    7.4775  -12.8220   19.1695 C   0  0  0  0  0  0  0  0  0  0  0  0
    8.5140  -12.8218   20.2961 C   0  0  0  0  0  0  0  0  0  0  0  0
    8.3373  -14.1970   20.8734 C   0  0  1  0  0  0  0  0  0  0  0  0
    8.8436  -14.2889   22.2686 C   0  0  0  0  0  0  0  0  0  0  0  0
   10.0875  -14.2200   22.5348 O   0  0  0  0  0  0  0  0  0  0  0  0
    6.0755  -11.6530   25.8233 C   0  0  0  0  0  0  0  0  0  0  0  0
    7.1560  -12.3776   24.9955 C   0  0  0  0  0  0  0  0  0  0  0  0
    7.3999  -13.7458   25.5268 C   0  0  2  0  0  0  0  0  0  0  0  0
    7.5715  -13.7848   27.0178 C   0  0  0  0  0  0  0  0  0  0  0  0
    8.4364  -14.5234   24.7610 C   0  0  2  0  0  0  0  0  0  0  0  0
    7.9845  -14.4562   23.3675 N   0  0  0  0  0  0  0  0  0  0  0  0
    8.6355  -15.9039   25.1935 C   0  0  0  0  0  0  0  0  0  0  0  0
    7.6501  -16.7053   25.3244 O   0  0  0  0  0  0  0  0  0  0  0  0
   12.2552  -17.9056   24.8851 O   0  0  0  0  0  0  0  0  0  0  0  0
   11.0556  -18.5676   25.0505 C   0  0  0  0  0  0  0  0  0  0  0  0
   10.0762  -17.8228   25.9308 C   0  0  2  0  0  0  0  0  0  0  0  0
    9.9111  -16.4455   25.4906 N   0  0  0  0  0  0  0  0  0  0  0  0
   10.5078  -17.8904   27.3475 C   0  0  0  0  0  0  0  0  0  0  0  0
   10.6861  -16.8192   28.0164 O   0  0  0  0  0  0  0  0  0  0  0  0
   10.7239  -19.0908   27.9684 O   0  0  0  0  0  0  0  0  0  0  0  0
  1  2  1  0
  1  5  1  0
  2  3  1  0
  3  4  1  0
  5  6  1  1
  5  4  1  0
  6 13  1  0
  7  6  2  0
  8  9  1  0
  9 10  1  0
 10 11  1  1
 10 12  1  0
 12 14  1  0
 12 13  1  6
 14 15  2  0
 14 19  1  0
 16 17  1  0
 18 17  1  6
 18 20  1  0
 19 18  1  0
 20 22  1  0
 21 20  2  0
M  END
$$$$
