PIS.pdb
     RDKit          3D

 22 22  0  0  1  0  0  0  0  0999 V2000
    7.1242  -14.8976   20.7460 N   0  0  0  0  0  0  0  0  0  0  0  0
    6.4733  -14.3166   19.6131 C   0  0  0  0  0  0  0  0  0  0  0  0
    7.4872  -13.4310   18.9229 C   0  0  0  0  0  0  0  0  0  0  0  0
    8.4652  -13.1253   20.0603 C   0  0  0  0  0  0  0  0  0  0  0  0
    8.4716  -14.4240   20.8144 C   0  0  1  0  0  0  0  0  0  0  0  0
    8.9285  -14.2546   22.2193 C   0  0  0  0  0  0  0  0  0  0  0  0
   10.1460  -14.0083   22.5018 O   0  0  0  0  0  0  0  0  0  0  0  0
    6.9428  -11.7579   27.2157 C   0  0  0  0  0  0  0  0  0  0  0  0
    7.8787  -12.8750   26.7118 C   0  0  0  0  0  0  0  0  0  0  0  0
    7.5113  -13.2897   25.3310 C   0  0  2  0  0  0  0  0  0  0  0  0
    6.0627  -13.6557   25.1837 C   0  0  0  0  0  0  0  0  0  0  0  0
    8.4674  -14.2745   24.7133 C   0  0  2  0  0  0  0  0  0  0  0  0
    8.0490  -14.3557   23.3101 N   0  0  0  0  0  0  0  0  0  0  0  0
    8.5046  -15.5938   25.3383 C   0  0  0  0  0  0  0  0  0  0  0  0
    7.4578  -16.3213   25.4118 O   0  0  0  0  0  0  0  0  0  0  0  0
   11.8244  -17.8990   25.2934 O   0  0  0  0  0  0  0  0  0  0  0  0
   10.5670  -18.4111   25.5407 C   0  0  0  0  0  0  0  0  0  0  0  0
    9.7146  -17.5138   26.4110 C   0  0  2  0  0  0  0  0  0  0  0  0
    9.6818  -16.1534   25.8952 N   0  0  0  0  0  0  0  0  0  0  0  0
   10.1984  -17.5503   27.8119 C   0  0  0  0  0  0  0  0  0  0  0  0
   10.5533  -16.4741   28.3970 O   0  0  0  0  0  0  0  0  0  0  0  0
   10.2762  -18.7268   28.5068 O   0  0  0  0  0  0  0  0  0  0  0  0
  1  2  1  0
  1  5  1  0
  2  3  1  0
  3  4  1  0
  5  6  1  1
  5  4  1  0
  6 13  1  0
  7  6  2  0
  8  9  1  0
  9 10  1  0
 10 11  1  1
 10 12  1  0
 12 14  1  0
 12 13  1  6
 14 15  2  0
 14 19  1  0
 16 17  1  0
 18 17  1  6
 18 20  1  0
 19 18  1  0
 20 22  1  0
 21 20  2  0
M  END
$$$$
