PIS.pdb
     RDKit          3D

 22 22  0  0  1  0  0  0  0  0999 V2000
    6.8319  -14.6857   20.7274 N   0  0  0  0  0  0  0  0  0  0  0  0
    6.2961  -13.9444   19.6284 C   0  0  0  0  0  0  0  0  0  0  0  0
    7.4614  -13.2792   18.9296 C   0  0  0  0  0  0  0  0  0  0  0  0
    8.5092  -13.2262   20.0445 C   0  0  0  0  0  0  0  0  0  0  0  0
    8.2513  -14.5173   20.7671 C   0  0  1  0  0  0  0  0  0  0  0  0
    8.7673  -14.4924   22.1615 C   0  0  0  0  0  0  0  0  0  0  0  0
   10.0162  -14.4849   22.4126 O   0  0  0  0  0  0  0  0  0  0  0  0
    6.8069  -11.9066   27.2097 C   0  0  0  0  0  0  0  0  0  0  0  0
    7.7639  -12.9952   26.6837 C   0  0  0  0  0  0  0  0  0  0  0  0
    7.4101  -13.3822   25.2913 C   0  0  2  0  0  0  0  0  0  0  0  0
    5.9633  -13.7460   25.1227 C   0  0  0  0  0  0  0  0  0  0  0  0
    8.3729  -14.3537   24.6631 C   0  0  2  0  0  0  0  0  0  0  0  0
    7.9124  -14.4758   23.2761 N   0  0  0  0  0  0  0  0  0  0  0  0
    8.4663  -15.6580   25.3132 C   0  0  0  0  0  0  0  0  0  0  0  0
    7.4402  -16.4061   25.4470 O   0  0  0  0  0  0  0  0  0  0  0  0
   11.8516  -17.8604   25.3034 O   0  0  0  0  0  0  0  0  0  0  0  0
   10.6399  -18.4266   25.6436 C   0  0  0  0  0  0  0  0  0  0  0  0
    9.7472  -17.4999   26.4394 C   0  0  2  0  0  0  0  0  0  0  0  0
    9.6784  -16.1800   25.8302 N   0  0  0  0  0  0  0  0  0  0  0  0
   10.2120  -17.4239   27.8451 C   0  0  0  0  0  0  0  0  0  0  0  0
   10.5089  -16.2971   28.3634 O   0  0  0  0  0  0  0  0  0  0  0  0
   10.3336  -18.5486   28.6155 O   0  0  0  0  0  0  0  0  0  0  0  0
  1  2  1  0
  1  5  1  0
  2  3  1  0
  3  4  1  0
  5  6  1  1
  5  4  1  0
  6 13  1  0
  7  6  2  0
  8  9  1  0
  9 10  1  0
 10 11  1  1
 10 12  1  0
 12 14  1  0
 12 13  1  6
 14 15  2  0
 14 19  1  0
 16 17  1  0
 18 17  1  6
 18 20  1  0
 19 18  1  0
 20 22  1  0
 21 20  2  0
M  END
$$$$
