KIF.pdb
     RDKit          3D

 29 29  0  0  1  0  0  0  0  0999 V2000
   22.5896  -21.2384  -14.8469 N   0  0  0  0  0  0  0  0  0  0  0  0
   22.8867  -22.4444  -14.1114 C   0  0  1  0  0  0  0  0  0  0  0  0
   22.8866  -23.6721  -14.9264 C   0  0  0  0  0  0  0  0  0  0  0  0
   21.6406  -24.2565  -15.4127 C   0  0  0  0  0  0  0  0  0  0  0  0
   20.6742  -24.9225  -14.5391 C   0  0  0  0  0  0  0  0  0  0  0  0
   20.0888  -26.2282  -14.9211 C   0  0  0  0  0  0  0  0  0  0  0  0
   18.8128  -25.9034  -15.6306 N   0  0  0  0  0  0  0  0  0  0  0  0
   24.2803  -22.2417  -13.5596 C   0  0  0  0  0  0  0  0  0  0  0  0
   24.9537  -23.2782  -13.3406 O   0  0  0  0  0  0  0  0  0  0  0  0
   27.7620  -18.6646  -15.4592 C   0  0  0  0  0  0  0  0  0  0  0  0
   27.1219  -19.8128  -14.7836 C   0  0  0  0  0  0  0  0  0  0  0  0
   26.8759  -19.7814  -13.3482 C   0  0  2  0  0  0  0  0  0  0  0  0
   28.1958  -19.4406  -12.6250 C   0  0  0  0  0  0  0  0  0  0  0  0
   26.1933  -20.9183  -12.6760 C   0  0  2  0  0  0  0  0  0  0  0  0
   24.8195  -20.9939  -13.2970 N   0  0  0  0  0  0  0  0  0  0  0  0
   26.0038  -20.7409  -11.2365 C   0  0  0  0  0  0  0  0  0  0  0  0
   25.1082  -19.9042  -10.8138 O   0  0  0  0  0  0  0  0  0  0  0  0
   26.6966  -21.4099  -10.1861 N   0  0  0  0  0  0  0  0  0  0  0  0
   26.5374  -20.9804   -8.8022 C   0  0  1  0  0  0  0  0  0  0  0  0
   27.7087  -21.5431   -7.9704 C   0  0  0  0  0  0  0  0  0  0  0  0
   27.8287  -20.7951   -6.6924 C   0  0  0  0  0  0  0  0  0  0  0  0
   28.8136  -19.8250   -6.6222 C   0  0  0  0  0  0  0  0  0  0  0  0
   29.0041  -19.0822   -5.4867 C   0  0  0  0  0  0  0  0  0  0  0  0
   28.1940  -19.3213   -4.4150 C   0  0  0  0  0  0  0  0  0  0  0  0
   27.1981  -20.2846   -4.4505 C   0  0  0  0  0  0  0  0  0  0  0  0
   27.0268  -21.0213   -5.6103 C   0  0  0  0  0  0  0  0  0  0  0  0
   26.6021  -19.5425   -8.6761 C   0  0  0  0  0  0  0  0  0  0  0  0
   27.5374  -18.9121   -9.2442 O   0  0  0  0  0  0  0  0  0  0  0  0
   25.6895  -18.8139   -7.9652 O   0  0  0  0  0  0  0  0  0  0  0  0
  2  3  1  0
  2  1  1  6
  3  4  1  0
  4  5  1  0
  5  6  1  0
  6  7  1  0
  8  2  1  0
  9  8  2  0
 11 10  1  0
 12 11  1  0
 12 14  1  0
 12 13  1  1
 14 15  1  6
 15  8  1  0
 16 14  1  0
 16 17  2  0
 18 16  1  0
 19 20  1  1
 19 18  1  0
 20 21  1  0
 21 26  2  0
 21 22  1  0
 22 23  2  0
 23 24  1  0
 25 24  2  0
 26 25  1  0
 27 19  1  0
 28 27  2  0
 29 27  1  0
M  END
$$$$
