KIF.pdb
     RDKit          3D

 29 29  0  0  1  0  0  0  0  0999 V2000
   28.3184  -21.3643  -15.3162 N   0  0  0  0  0  0  0  0  0  0  0  0
   28.2375  -20.2520  -14.3996 C   0  0  1  0  0  0  0  0  0  0  0  0
   27.6053  -19.0444  -14.9596 C   0  0  0  0  0  0  0  0  0  0  0  0
   27.4887  -18.8516  -16.4017 C   0  0  0  0  0  0  0  0  0  0  0  0
   28.3562  -17.9513  -17.1617 C   0  0  0  0  0  0  0  0  0  0  0  0
   27.8117  -16.7145  -17.7676 C   0  0  0  0  0  0  0  0  0  0  0  0
   26.9117  -17.1712  -18.8714 N   0  0  0  0  0  0  0  0  0  0  0  0
   27.3858  -20.7435  -13.2503 C   0  0  0  0  0  0  0  0  0  0  0  0
   26.7750  -21.8258  -13.4270 O   0  0  0  0  0  0  0  0  0  0  0  0
   29.1198  -21.3853   -8.9251 C   0  0  0  0  0  0  0  0  0  0  0  0
   28.4578  -20.1697   -9.4433 C   0  0  0  0  0  0  0  0  0  0  0  0
   27.0201  -20.1547   -9.6774 C   0  0  2  0  0  0  0  0  0  0  0  0
   26.3115  -20.7826   -8.4588 C   0  0  0  0  0  0  0  0  0  0  0  0
   26.4574  -20.6968  -10.9423 C   0  0  2  0  0  0  0  0  0  0  0  0
   27.2618  -20.0629  -12.0512 N   0  0  0  0  0  0  0  0  0  0  0  0
   25.0561  -20.3483  -11.1760 C   0  0  0  0  0  0  0  0  0  0  0  0
   24.6140  -19.1977  -10.7739 O   0  0  0  0  0  0  0  0  0  0  0  0
   24.0684  -21.1382  -11.8325 N   0  0  0  0  0  0  0  0  0  0  0  0
   22.7382  -20.5994  -12.0881 C   0  0  1  0  0  0  0  0  0  0  0  0
   22.8660  -19.3966  -13.0458 C   0  0  0  0  0  0  0  0  0  0  0  0
   23.3630  -19.8527  -14.3695 C   0  0  0  0  0  0  0  0  0  0  0  0
   22.4160  -20.2887  -15.2801 C   0  0  0  0  0  0  0  0  0  0  0  0
   22.7746  -20.7297  -16.5268 C   0  0  0  0  0  0  0  0  0  0  0  0
   24.0989  -20.7302  -16.8556 C   0  0  0  0  0  0  0  0  0  0  0  0
   25.0736  -20.3005  -15.9687 C   0  0  0  0  0  0  0  0  0  0  0  0
   24.6842  -19.8599  -14.7152 C   0  0  0  0  0  0  0  0  0  0  0  0
   21.8887  -21.5609  -12.7527 C   0  0  0  0  0  0  0  0  0  0  0  0
   20.6879  -21.2591  -13.0017 O   0  0  0  0  0  0  0  0  0  0  0  0
   22.3214  -22.8000  -13.1355 O   0  0  0  0  0  0  0  0  0  0  0  0
  2  3  1  0
  2  1  1  6
  3  4  1  0
  4  5  1  0
  5  6  1  0
  6  7  1  0
  8  2  1  0
  9  8  2  0
 11 10  1  0
 12 11  1  0
 12 14  1  0
 12 13  1  1
 14 15  1  6
 15  8  1  0
 16 14  1  0
 16 17  2  0
 18 16  1  0
 19 20  1  6
 19 18  1  0
 20 21  1  0
 21 26  2  0
 21 22  1  0
 22 23  2  0
 23 24  1  0
 25 24  2  0
 26 25  1  0
 27 19  1  0
 28 27  2  0
 29 27  1  0
M  END
$$$$
