KIF.pdb
     RDKit          3D

 29 29  0  0  1  0  0  0  0  0999 V2000
   23.0133  -18.3744  -14.0413 N   0  0  0  0  0  0  0  0  0  0  0  0
   22.4048  -19.4941  -13.3631 C   0  0  1  0  0  0  0  0  0  0  0  0
   21.5722  -20.3510  -14.2256 C   0  0  0  0  0  0  0  0  0  0  0  0
   20.1381  -20.4914  -13.9934 C   0  0  0  0  0  0  0  0  0  0  0  0
   19.5665  -20.8105  -12.6849 C   0  0  0  0  0  0  0  0  0  0  0  0
   18.1164  -21.0746  -12.5409 C   0  0  0  0  0  0  0  0  0  0  0  0
   17.5094  -19.7694  -12.1344 N   0  0  0  0  0  0  0  0  0  0  0  0
   23.5598  -20.3221  -12.8453 C   0  0  0  0  0  0  0  0  0  0  0  0
   23.2808  -21.4679  -12.4152 O   0  0  0  0  0  0  0  0  0  0  0  0
   28.1977  -20.7641  -15.4662 C   0  0  0  0  0  0  0  0  0  0  0  0
   27.0238  -20.9294  -14.5835 C   0  0  0  0  0  0  0  0  0  0  0  0
   27.1159  -20.6107  -13.1651 C   0  0  2  0  0  0  0  0  0  0  0  0
   28.3487  -21.3264  -12.5739 C   0  0  0  0  0  0  0  0  0  0  0  0
   25.9373  -20.7853  -12.2759 C   0  0  2  0  0  0  0  0  0  0  0  0
   24.8695  -19.8737  -12.8303 N   0  0  0  0  0  0  0  0  0  0  0  0
   26.1654  -20.3838  -10.8879 C   0  0  0  0  0  0  0  0  0  0  0  0
   26.6819  -19.2203  -10.6418 O   0  0  0  0  0  0  0  0  0  0  0  0
   25.8666  -21.1325   -9.7128 N   0  0  0  0  0  0  0  0  0  0  0  0
   26.6841  -20.9885   -8.5145 C   0  0  1  0  0  0  0  0  0  0  0  0
   26.5823  -19.5316   -8.0168 C   0  0  0  0  0  0  0  0  0  0  0  0
   27.4788  -19.3306   -6.8493 C   0  0  0  0  0  0  0  0  0  0  0  0
   26.8747  -19.1455   -5.6177 C   0  0  0  0  0  0  0  0  0  0  0  0
   27.6153  -18.9511   -4.4815 C   0  0  0  0  0  0  0  0  0  0  0  0
   28.9754  -18.9438   -4.5904 C   0  0  0  0  0  0  0  0  0  0  0  0
   29.6134  -19.1260   -5.8073 C   0  0  0  0  0  0  0  0  0  0  0  0
   28.8414  -19.3203   -6.9402 C   0  0  0  0  0  0  0  0  0  0  0  0
   26.2057  -21.8219   -7.4356 C   0  0  0  0  0  0  0  0  0  0  0  0
   24.9625  -21.9779   -7.2775 O   0  0  0  0  0  0  0  0  0  0  0  0
   27.0392  -22.4639   -6.5625 O   0  0  0  0  0  0  0  0  0  0  0  0
  2  3  1  0
  2  1  1  6
  3  4  1  0
  4  5  1  0
  5  6  1  0
  6  7  1  0
  8  2  1  0
  9  8  2  0
 11 10  1  0
 12 11  1  0
 12 14  1  0
 12 13  1  1
 14 15  1  6
 15  8  1  0
 16 14  1  0
 16 17  2  0
 18 16  1  0
 19 20  1  1
 19 18  1  0
 20 21  1  0
 21 26  2  0
 21 22  1  0
 22 23  2  0
 23 24  1  0
 25 24  2  0
 26 25  1  0
 27 19  1  0
 28 27  2  0
 29 27  1  0
M  END
$$$$
