KIF.pdb
     RDKit          3D

 29 29  0  0  1  0  0  0  0  0999 V2000
   24.7225  -24.3482  -15.6266 N   0  0  0  0  0  0  0  0  0  0  0  0
   24.0871  -23.5334  -14.6185 C   0  0  1  0  0  0  0  0  0  0  0  0
   23.1943  -24.2733  -13.7093 C   0  0  0  0  0  0  0  0  0  0  0  0
   22.3965  -25.3997  -14.1840 C   0  0  0  0  0  0  0  0  0  0  0  0
   21.1034  -25.2407  -14.8496 C   0  0  0  0  0  0  0  0  0  0  0  0
   20.3754  -26.4199  -15.3721 C   0  0  0  0  0  0  0  0  0  0  0  0
   19.1539  -25.8735  -16.0401 N   0  0  0  0  0  0  0  0  0  0  0  0
   25.2206  -22.9534  -13.8020 C   0  0  0  0  0  0  0  0  0  0  0  0
   26.2074  -23.7024  -13.5998 O   0  0  0  0  0  0  0  0  0  0  0  0
   26.9550  -18.3616  -15.4946 C   0  0  0  0  0  0  0  0  0  0  0  0
   26.8683  -19.6801  -14.8325 C   0  0  0  0  0  0  0  0  0  0  0  0
   26.6532  -19.7715  -13.3947 C   0  0  2  0  0  0  0  0  0  0  0  0
   27.7392  -18.9434  -12.6760 C   0  0  0  0  0  0  0  0  0  0  0  0
   26.4916  -21.0965  -12.7400 C   0  0  2  0  0  0  0  0  0  0  0  0
   25.2064  -21.6680  -13.2879 N   0  0  0  0  0  0  0  0  0  0  0  0
   26.3481  -21.0361  -11.2856 C   0  0  0  0  0  0  0  0  0  0  0  0
   25.1812  -20.7976  -10.7735 O   0  0  0  0  0  0  0  0  0  0  0  0
   27.3680  -21.2290  -10.3092 N   0  0  0  0  0  0  0  0  0  0  0  0
   27.0879  -21.0204   -8.8938 C   0  0  1  0  0  0  0  0  0  0  0  0
   28.4164  -20.7383   -8.1618 C   0  0  0  0  0  0  0  0  0  0  0  0
   28.1451  -20.3127   -6.7644 C   0  0  0  0  0  0  0  0  0  0  0  0
   28.2722  -21.2759   -5.7784 C   0  0  0  0  0  0  0  0  0  0  0  0
   28.0424  -20.9821   -4.4599 C   0  0  0  0  0  0  0  0  0  0  0  0
   27.6817  -19.7067   -4.1357 C   0  0  0  0  0  0  0  0  0  0  0  0
   27.5452  -18.7177   -5.0971 C   0  0  0  0  0  0  0  0  0  0  0  0
   27.7833  -19.0411   -6.4222 C   0  0  0  0  0  0  0  0  0  0  0  0
   26.2500  -19.8634   -8.6778 C   0  0  0  0  0  0  0  0  0  0  0  0
   26.5424  -18.7724   -9.2428 O   0  0  0  0  0  0  0  0  0  0  0  0
   25.1375  -19.8854   -7.8836 O   0  0  0  0  0  0  0  0  0  0  0  0
  2  3  1  0
  2  1  1  6
  3  4  1  0
  4  5  1  0
  5  6  1  0
  6  7  1  0
  8  2  1  0
  9  8  2  0
 11 10  1  0
 12 11  1  0
 12 14  1  0
 12 13  1  1
 14 15  1  6
 15  8  1  0
 16 14  1  0
 16 17  2  0
 18 16  1  0
 19 20  1  1
 19 18  1  0
 20 21  1  0
 21 26  2  0
 21 22  1  0
 22 23  2  0
 23 24  1  0
 25 24  2  0
 26 25  1  0
 27 19  1  0
 28 27  2  0
 29 27  1  0
M  END
$$$$
