KIF.pdb
     RDKit          3D

 29 29  0  0  1  0  0  0  0  0999 V2000
   22.6540  -20.4762  -15.1489 N   0  0  0  0  0  0  0  0  0  0  0  0
   22.8783  -20.2409  -13.7424 C   0  0  1  0  0  0  0  0  0  0  0  0
   21.8863  -20.8699  -12.8525 C   0  0  0  0  0  0  0  0  0  0  0  0
   20.4603  -20.5922  -12.9939 C   0  0  0  0  0  0  0  0  0  0  0  0
   19.9397  -19.3692  -13.6056 C   0  0  0  0  0  0  0  0  0  0  0  0
   18.4807  -19.1651  -13.7566 C   0  0  0  0  0  0  0  0  0  0  0  0
   18.3289  -17.8388  -14.4310 N   0  0  0  0  0  0  0  0  0  0  0  0
   24.2320  -20.8478  -13.4475 C   0  0  0  0  0  0  0  0  0  0  0  0
   24.3630  -22.0725  -13.6898 O   0  0  0  0  0  0  0  0  0  0  0  0
   28.6863  -18.0288  -14.5024 C   0  0  0  0  0  0  0  0  0  0  0  0
   27.7478  -19.1503  -14.2887 C   0  0  0  0  0  0  0  0  0  0  0  0
   27.6606  -19.8026  -12.9891 C   0  0  2  0  0  0  0  0  0  0  0  0
   29.0541  -20.3478  -12.6121 C   0  0  0  0  0  0  0  0  0  0  0  0
   26.6140  -20.8260  -12.7288 C   0  0  2  0  0  0  0  0  0  0  0  0
   25.2949  -20.1224  -12.9369 N   0  0  0  0  0  0  0  0  0  0  0  0
   26.6100  -21.3492  -11.3628 C   0  0  0  0  0  0  0  0  0  0  0  0
   27.0929  -22.5308  -11.1356 O   0  0  0  0  0  0  0  0  0  0  0  0
   26.1364  -20.6940  -10.1892 N   0  0  0  0  0  0  0  0  0  0  0  0
   26.2639  -21.3292   -8.8833 C   0  0  1  0  0  0  0  0  0  0  0  0
   27.7374  -21.2469   -8.4336 C   0  0  0  0  0  0  0  0  0  0  0  0
   27.8418  -20.4561   -7.1801 C   0  0  0  0  0  0  0  0  0  0  0  0
   27.1813  -19.2400   -7.1476 C   0  0  0  0  0  0  0  0  0  0  0  0
   27.2181  -18.4374   -6.0377 C   0  0  0  0  0  0  0  0  0  0  0  0
   27.9270  -18.8664   -4.9536 C   0  0  0  0  0  0  0  0  0  0  0  0
   28.6000  -20.0781   -4.9516 C   0  0  0  0  0  0  0  0  0  0  0  0
   28.5466  -20.8700   -6.0861 C   0  0  0  0  0  0  0  0  0  0  0  0
   25.4910  -20.6413   -7.8747 C   0  0  0  0  0  0  0  0  0  0  0  0
   25.0551  -19.4802   -8.1129 O   0  0  0  0  0  0  0  0  0  0  0  0
   25.1987  -21.1885   -6.6564 O   0  0  0  0  0  0  0  0  0  0  0  0
  2  3  1  0
  2  1  1  6
  3  4  1  0
  4  5  1  0
  5  6  1  0
  6  7  1  0
  8  2  1  0
  9  8  2  0
 11 10  1  0
 12 11  1  0
 12 14  1  0
 12 13  1  6
 14 15  1  1
 15  8  1  0
 16 14  1  0
 16 17  2  0
 18 16  1  0
 19 20  1  1
 19 18  1  0
 20 21  1  0
 21 26  2  0
 21 22  1  0
 22 23  2  0
 23 24  1  0
 25 24  2  0
 26 25  1  0
 27 19  1  0
 28 27  2  0
 29 27  1  0
M  END
$$$$
