KIF.pdb
     RDKit          3D

 29 29  0  0  1  0  0  0  0  0999 V2000
   29.3847  -31.7881  -16.8107 N   0  0  0  0  0  0  0  0  0  0  0  0
   28.0176  -31.4129  -17.0832 C   0  0  1  0  0  0  0  0  0  0  0  0
   27.0247  -32.0315  -16.1873 C   0  0  0  0  0  0  0  0  0  0  0  0
   26.6119  -33.4208  -16.3606 C   0  0  0  0  0  0  0  0  0  0  0  0
   26.4325  -34.0450  -17.6716 C   0  0  0  0  0  0  0  0  0  0  0  0
   25.9146  -35.4280  -17.7826 C   0  0  0  0  0  0  0  0  0  0  0  0
   25.8755  -35.7254  -19.2478 N   0  0  0  0  0  0  0  0  0  0  0  0
   27.9681  -29.9144  -16.8833 C   0  0  0  0  0  0  0  0  0  0  0  0
   28.8334  -29.4210  -16.1195 O   0  0  0  0  0  0  0  0  0  0  0  0
   29.1142  -26.7248  -20.5210 C   0  0  0  0  0  0  0  0  0  0  0  0
   28.7802  -27.2718  -19.1892 C   0  0  0  0  0  0  0  0  0  0  0  0
   27.4726  -27.0254  -18.5966 C   0  0  2  0  0  0  0  0  0  0  0  0
   27.2000  -25.5066  -18.6078 C   0  0  0  0  0  0  0  0  0  0  0  0
   27.1238  -27.6065  -17.2733 C   0  0  2  0  0  0  0  0  0  0  0  0
   27.0322  -29.0970  -17.4938 N   0  0  0  0  0  0  0  0  0  0  0  0
   25.8307  -27.1709  -16.7463 C   0  0  0  0  0  0  0  0  0  0  0  0
   24.7554  -27.4076  -17.4309 O   0  0  0  0  0  0  0  0  0  0  0  0
   25.5828  -26.5016  -15.5129 N   0  0  0  0  0  0  0  0  0  0  0  0
   24.2481  -26.0117  -15.1907 C   0  0  1  0  0  0  0  0  0  0  0  0
   24.2511  -25.4803  -13.7423 C   0  0  0  0  0  0  0  0  0  0  0  0
   22.8881  -25.0235  -13.3668 C   0  0  0  0  0  0  0  0  0  0  0  0
   21.9957  -25.9922  -12.9412 C   0  0  0  0  0  0  0  0  0  0  0  0
   20.7153  -25.6712  -12.5741 C   0  0  0  0  0  0  0  0  0  0  0  0
   20.3340  -24.3625  -12.6375 C   0  0  0  0  0  0  0  0  0  0  0  0
   21.2014  -23.3669  -13.0589 C   0  0  0  0  0  0  0  0  0  0  0  0
   22.4898  -23.7184  -13.4242 C   0  0  0  0  0  0  0  0  0  0  0  0
   23.8673  -24.9002  -16.0317 C   0  0  0  0  0  0  0  0  0  0  0  0
   22.6899  -24.8407  -16.4845 O   0  0  0  0  0  0  0  0  0  0  0  0
   24.7256  -23.8908  -16.3684 O   0  0  0  0  0  0  0  0  0  0  0  0
  2  3  1  0
  2  1  1  1
  3  4  1  0
  4  5  1  0
  5  6  1  0
  6  7  1  0
  8  2  1  0
  9  8  2  0
 11 10  1  0
 12 11  1  0
 12 14  1  0
 12 13  1  1
 14 15  1  6
 15  8  1  0
 16 14  1  0
 16 17  2  0
 18 16  1  0
 19 20  1  1
 19 18  1  0
 20 21  1  0
 21 26  2  0
 21 22  1  0
 22 23  2  0
 23 24  1  0
 25 24  2  0
 26 25  1  0
 27 19  1  0
 28 27  2  0
 29 27  1  0
M  END
$$$$
