KIF.pdb
     RDKit          3D

 29 29  0  0  1  0  0  0  0  0999 V2000
   20.6296  -11.5413  -20.1242 N   0  0  0  0  0  0  0  0  0  0  0  0
   21.5565  -10.4520  -19.9290 C   0  0  1  0  0  0  0  0  0  0  0  0
   21.3908   -9.3329  -20.8733 C   0  0  0  0  0  0  0  0  0  0  0  0
   21.7709   -9.4650  -22.2764 C   0  0  0  0  0  0  0  0  0  0  0  0
   23.0444  -10.0401  -22.7100 C   0  0  0  0  0  0  0  0  0  0  0  0
   23.3944  -10.0962  -24.1480 C   0  0  0  0  0  0  0  0  0  0  0  0
   22.2033  -10.6929  -24.8277 N   0  0  0  0  0  0  0  0  0  0  0  0
   21.2809   -9.9392  -18.5330 C   0  0  0  0  0  0  0  0  0  0  0  0
   20.0994  -10.0398  -18.1211 O   0  0  0  0  0  0  0  0  0  0  0  0
   24.1421  -11.5930  -14.6080 C   0  0  0  0  0  0  0  0  0  0  0  0
   23.0293  -10.9911  -15.3722 C   0  0  0  0  0  0  0  0  0  0  0  0
   22.8633   -9.5447  -15.4191 C   0  0  2  0  0  0  0  0  0  0  0  0
   22.6699   -9.0197  -13.9809 C   0  0  0  0  0  0  0  0  0  0  0  0
   21.8664   -8.9303  -16.3352 C   0  0  2  0  0  0  0  0  0  0  0  0
   22.2548   -9.3817  -17.7223 N   0  0  0  0  0  0  0  0  0  0  0  0
   21.8761   -7.4676  -16.3419 C   0  0  0  0  0  0  0  0  0  0  0  0
   22.9861   -6.8426  -16.5828 O   0  0  0  0  0  0  0  0  0  0  0  0
   20.7698   -6.5964  -16.1231 N   0  0  0  0  0  0  0  0  0  0  0  0
   20.9632   -5.1526  -16.0674 C   0  0  1  0  0  0  0  0  0  0  0  0
   20.2352   -4.5082  -17.2654 C   0  0  0  0  0  0  0  0  0  0  0  0
   20.4026   -3.0324  -17.2266 C   0  0  0  0  0  0  0  0  0  0  0  0
   21.5973   -2.5228  -17.7051 C   0  0  0  0  0  0  0  0  0  0  0  0
   21.8473   -1.1757  -17.7106 C   0  0  0  0  0  0  0  0  0  0  0  0
   20.8837   -0.3379  -17.2295 C   0  0  0  0  0  0  0  0  0  0  0  0
   19.6763   -0.8137  -16.7429 C   0  0  0  0  0  0  0  0  0  0  0  0
   19.4491   -2.1796  -16.7486 C   0  0  0  0  0  0  0  0  0  0  0  0
   20.3774   -4.5785  -14.8779 C   0  0  0  0  0  0  0  0  0  0  0  0
   21.0029   -3.6775  -14.2520 O   0  0  0  0  0  0  0  0  0  0  0  0
   19.1612   -4.9622  -14.3853 O   0  0  0  0  0  0  0  0  0  0  0  0
  2  3  1  0
  2  1  1  6
  3  4  1  0
  4  5  1  0
  5  6  1  0
  6  7  1  0
  8  2  1  0
  9  8  2  0
 11 10  1  0
 12 11  1  0
 12 14  1  0
 12 13  1  1
 14 15  1  6
 15  8  1  0
 16 14  1  0
 16 17  2  0
 18 16  1  0
 19 20  1  6
 19 18  1  0
 20 21  1  0
 21 26  2  0
 21 22  1  0
 22 23  2  0
 23 24  1  0
 25 24  2  0
 26 25  1  0
 27 19  1  0
 28 27  2  0
 29 27  1  0
M  END
$$$$
