KIF.pdb
     RDKit          3D

 29 29  0  0  1  0  0  0  0  0999 V2000
   26.3915  -33.0324  -10.9733 N   0  0  0  0  0  0  0  0  0  0  0  0
   25.3684  -32.5913  -10.0553 C   0  0  1  0  0  0  0  0  0  0  0  0
   23.9898  -32.8386  -10.5132 C   0  0  0  0  0  0  0  0  0  0  0  0
   22.8468  -32.5863   -9.6412 C   0  0  0  0  0  0  0  0  0  0  0  0
   21.9261  -31.4653   -9.8324 C   0  0  0  0  0  0  0  0  0  0  0  0
   20.8721  -31.5253  -10.8710 C   0  0  0  0  0  0  0  0  0  0  0  0
   20.1963  -30.1916  -10.8342 N   0  0  0  0  0  0  0  0  0  0  0  0
   25.5978  -33.3876   -8.7900 C   0  0  0  0  0  0  0  0  0  0  0  0
   25.7558  -34.6254   -8.9265 O   0  0  0  0  0  0  0  0  0  0  0  0
   29.8177  -33.5446   -6.2899 C   0  0  0  0  0  0  0  0  0  0  0  0
   28.4338  -33.8025   -6.7400 C   0  0  0  0  0  0  0  0  0  0  0  0
   27.3021  -33.3953   -5.9180 C   0  0  2  0  0  0  0  0  0  0  0  0
   27.5436  -33.8697   -4.4696 C   0  0  0  0  0  0  0  0  0  0  0  0
   25.9119  -33.7076   -6.3425 C   0  0  2  0  0  0  0  0  0  0  0  0
   25.6380  -32.8163   -7.5295 N   0  0  0  0  0  0  0  0  0  0  0  0
   24.8933  -33.4071   -5.3366 C   0  0  0  0  0  0  0  0  0  0  0  0
   24.7421  -32.1840   -4.9341 O   0  0  0  0  0  0  0  0  0  0  0  0
   23.9911  -34.3229   -4.7218 N   0  0  0  0  0  0  0  0  0  0  0  0
   23.1534  -33.9015   -3.6056 C   0  0  1  0  0  0  0  0  0  0  0  0
   21.6766  -34.1623   -3.9679 C   0  0  0  0  0  0  0  0  0  0  0  0
   20.7984  -33.7558   -2.8405 C   0  0  0  0  0  0  0  0  0  0  0  0
   20.3538  -34.7592   -1.9970 C   0  0  0  0  0  0  0  0  0  0  0  0
   19.5392  -34.4857   -0.9297 C   0  0  0  0  0  0  0  0  0  0  0  0
   19.1715  -33.1896   -0.7134 C   0  0  0  0  0  0  0  0  0  0  0  0
   19.5981  -32.1602   -1.5377 C   0  0  0  0  0  0  0  0  0  0  0  0
   20.4206  -32.4640   -2.6093 C   0  0  0  0  0  0  0  0  0  0  0  0
   23.4224  -34.6712   -2.4128 C   0  0  0  0  0  0  0  0  0  0  0  0
   23.9048  -35.8334   -2.5209 O   0  0  0  0  0  0  0  0  0  0  0  0
   23.1814  -34.2018   -1.1516 O   0  0  0  0  0  0  0  0  0  0  0  0
  2  3  1  0
  2  1  1  6
  3  4  1  0
  4  5  1  0
  5  6  1  0
  6  7  1  0
  8  2  1  0
  9  8  2  0
 11 10  1  0
 12 11  1  0
 12 14  1  0
 12 13  1  1
 14 15  1  6
 15  8  1  0
 16 14  1  0
 16 17  2  0
 18 16  1  0
 19 20  1  6
 19 18  1  0
 20 21  1  0
 21 26  2  0
 21 22  1  0
 22 23  2  0
 23 24  1  0
 25 24  2  0
 26 25  1  0
 27 19  1  0
 28 27  2  0
 29 27  1  0
M  END
$$$$
