KIF.pdb
     RDKit          3D

 29 29  0  0  1  0  0  0  0  0999 V2000
   28.2459  -19.9888  -17.1626 N   0  0  0  0  0  0  0  0  0  0  0  0
   28.7810  -18.9320  -16.3374 C   0  0  1  0  0  0  0  0  0  0  0  0
   28.7758  -17.6014  -16.9704 C   0  0  0  0  0  0  0  0  0  0  0  0
   29.6088  -17.3144  -18.1342 C   0  0  0  0  0  0  0  0  0  0  0  0
   30.1026  -18.3515  -19.0405 C   0  0  0  0  0  0  0  0  0  0  0  0
   31.0657  -18.0165  -20.1145 C   0  0  0  0  0  0  0  0  0  0  0  0
   31.4550  -19.3245  -20.7263 N   0  0  0  0  0  0  0  0  0  0  0  0
   27.8831  -18.8822  -15.1213 C   0  0  0  0  0  0  0  0  0  0  0  0
   28.0379  -17.9050  -14.3488 O   0  0  0  0  0  0  0  0  0  0  0  0
   22.9192  -18.8773  -16.1148 C   0  0  0  0  0  0  0  0  0  0  0  0
   24.1777  -18.6917  -15.3624 C   0  0  0  0  0  0  0  0  0  0  0  0
   24.5949  -19.6713  -14.3683 C   0  0  2  0  0  0  0  0  0  0  0  0
   23.4966  -19.7840  -13.2901 C   0  0  0  0  0  0  0  0  0  0  0  0
   25.9370  -19.5777  -13.7355 C   0  0  2  0  0  0  0  0  0  0  0  0
   26.9288  -19.8454  -14.8415 N   0  0  0  0  0  0  0  0  0  0  0  0
   26.1810  -20.5721  -12.6909 C   0  0  0  0  0  0  0  0  0  0  0  0
   26.3289  -21.8165  -13.0232 O   0  0  0  0  0  0  0  0  0  0  0  0
   26.2983  -20.3406  -11.2897 N   0  0  0  0  0  0  0  0  0  0  0  0
   26.0025  -21.4026  -10.3358 C   0  0  1  0  0  0  0  0  0  0  0  0
   27.3031  -21.7831   -9.5983 C   0  0  0  0  0  0  0  0  0  0  0  0
   27.6710  -20.7142   -8.6343 C   0  0  0  0  0  0  0  0  0  0  0  0
   28.8987  -20.1007   -8.8148 C   0  0  0  0  0  0  0  0  0  0  0  0
   29.3287  -19.1046   -7.9779 C   0  0  0  0  0  0  0  0  0  0  0  0
   28.5127  -18.7260   -6.9518 C   0  0  0  0  0  0  0  0  0  0  0  0
   27.2774  -19.3186   -6.7419 C   0  0  0  0  0  0  0  0  0  0  0  0
   26.8670  -20.3228   -7.6022 C   0  0  0  0  0  0  0  0  0  0  0  0
   25.0709  -20.9674   -9.3207 C   0  0  0  0  0  0  0  0  0  0  0  0
   24.6872  -19.7643   -9.3067 O   0  0  0  0  0  0  0  0  0  0  0  0
   24.5716  -21.8012   -8.3593 O   0  0  0  0  0  0  0  0  0  0  0  0
  2  3  1  0
  2  1  1  6
  3  4  1  0
  4  5  1  0
  5  6  1  0
  6  7  1  0
  8  2  1  0
  9  8  2  0
 11 10  1  0
 12 11  1  0
 12 14  1  0
 12 13  1  1
 14 15  1  6
 15  8  1  0
 16 14  1  0
 16 17  2  0
 18 16  1  0
 19 20  1  1
 19 18  1  0
 20 21  1  0
 21 26  2  0
 21 22  1  0
 22 23  2  0
 23 24  1  0
 25 24  2  0
 26 25  1  0
 27 19  1  0
 28 27  2  0
 29 27  1  0
M  END
$$$$
