KIF.pdb
     RDKit          3D

 29 29  0  0  1  0  0  0  0  0999 V2000
   18.7574  -10.9846  -18.2899 N   0  0  0  0  0  0  0  0  0  0  0  0
   18.0941  -10.3029  -17.2040 C   0  0  1  0  0  0  0  0  0  0  0  0
   17.0484  -11.0956  -16.5336 C   0  0  0  0  0  0  0  0  0  0  0  0
   15.9385  -11.6728  -17.2857 C   0  0  0  0  0  0  0  0  0  0  0  0
   16.0969  -12.7931  -18.2134 C   0  0  0  0  0  0  0  0  0  0  0  0
   14.9362  -13.3110  -18.9736 C   0  0  0  0  0  0  0  0  0  0  0  0
   15.4789  -14.4033  -19.8393 N   0  0  0  0  0  0  0  0  0  0  0  0
   19.1822  -10.0049  -16.1965 C   0  0  0  0  0  0  0  0  0  0  0  0
   18.8063   -9.6521  -15.0520 O   0  0  0  0  0  0  0  0  0  0  0  0
   23.8191  -12.8979  -16.3480 C   0  0  0  0  0  0  0  0  0  0  0  0
   22.6492  -12.1241  -15.8822 C   0  0  0  0  0  0  0  0  0  0  0  0
   22.7294  -10.6763  -15.7435 C   0  0  2  0  0  0  0  0  0  0  0  0
   23.9117  -10.3307  -14.8140 C   0  0  0  0  0  0  0  0  0  0  0  0
   21.5259   -9.8878  -15.3689 C   0  0  2  0  0  0  0  0  0  0  0  0
   20.5326  -10.1048  -16.4847 N   0  0  0  0  0  0  0  0  0  0  0  0
   21.7559   -8.4463  -15.2742 C   0  0  0  0  0  0  0  0  0  0  0  0
   21.9954   -7.7707  -16.3545 O   0  0  0  0  0  0  0  0  0  0  0  0
   21.7356   -7.6449  -14.0960 N   0  0  0  0  0  0  0  0  0  0  0  0
   22.0301   -6.2188  -14.1647 C   0  0  1  0  0  0  0  0  0  0  0  0
   20.8967   -5.5152  -14.9399 C   0  0  0  0  0  0  0  0  0  0  0  0
   21.1498   -4.0522  -14.9916 C   0  0  0  0  0  0  0  0  0  0  0  0
   20.3623   -3.2494  -14.1845 C   0  0  0  0  0  0  0  0  0  0  0  0
   20.5182   -1.8882  -14.1623 C   0  0  0  0  0  0  0  0  0  0  0  0
   21.4762   -1.3347  -14.9609 C   0  0  0  0  0  0  0  0  0  0  0  0
   22.2823   -2.1084  -15.7811 C   0  0  0  0  0  0  0  0  0  0  0  0
   22.1039   -3.4814  -15.7847 C   0  0  0  0  0  0  0  0  0  0  0  0
   22.0627   -5.6142  -12.8528 C   0  0  0  0  0  0  0  0  0  0  0  0
   22.6544   -4.5099  -12.6940 O   0  0  0  0  0  0  0  0  0  0  0  0
   21.4762   -6.1804  -11.7554 O   0  0  0  0  0  0  0  0  0  0  0  0
  2  3  1  0
  2  1  1  6
  3  4  1  0
  4  5  1  0
  5  6  1  0
  6  7  1  0
  8  2  1  0
  9  8  2  0
 11 10  1  0
 12 11  1  0
 12 14  1  0
 12 13  1  1
 14 15  1  6
 15  8  1  0
 16 14  1  0
 16 17  2  0
 18 16  1  0
 19 20  1  6
 19 18  1  0
 20 21  1  0
 21 26  2  0
 21 22  1  0
 22 23  2  0
 23 24  1  0
 25 24  2  0
 26 25  1  0
 27 19  1  0
 28 27  2  0
 29 27  1  0
M  END
$$$$
