QKN.pdb
     RDKit          3D

 27 26  0  0  1  0  0  0  0  0999 V2000
    7.7688  -12.5555   17.3124 N   0  0  0  0  0  0  0  0  0  0  0  0
    7.2988  -13.3372   16.2237 C   0  0  0  0  0  0  0  0  0  0  0  0
    6.8887  -12.8114   15.1573 O   0  0  0  0  0  0  0  0  0  0  0  0
    7.3139  -14.8269   16.4040 C   0  0  0  0  0  0  0  0  0  0  0  0
    7.8454  -15.1546   17.7796 C   0  0  0  0  0  0  0  0  0  0  0  0
    9.0298  -16.0868   17.7130 C   0  0  2  0  0  0  0  0  0  0  0  0
    8.7556  -17.1165   16.7481 N   0  0  0  0  0  0  0  0  0  0  0  0
    9.4109  -16.5922   19.0337 C   0  0  0  0  0  0  0  0  0  0  0  0
    9.4421  -15.7979   19.9988 O   0  0  0  0  0  0  0  0  0  0  0  0
    9.7599  -17.9633   19.3141 N   0  0  0  0  0  0  0  0  0  0  0  0
   10.3058  -18.3578   20.5772 C   0  0  1  0  0  0  0  0  0  0  0  0
   10.1924  -19.7995   20.8464 C   0  0  0  0  0  0  0  0  0  0  0  0
   10.6726  -20.4187   22.0763 C   0  0  0  0  0  0  0  0  0  0  0  0
   10.5695  -21.8871   22.2658 C   0  0  0  0  0  0  0  0  0  0  0  0
   11.1641  -22.2923   23.6411 C   0  0  0  0  0  0  0  0  0  0  0  0
   11.2298  -23.7321   23.7450 N   0  0  0  0  0  0  0  0  0  0  0  0
   11.6754  -17.8096   20.7841 C   0  0  0  0  0  0  0  0  0  0  0  0
   12.5880  -18.2691   20.0646 O   0  0  0  0  0  0  0  0  0  0  0  0
   12.3371  -14.0183   19.6557 N   0  0  0  0  0  0  0  0  0  0  0  0
   13.4492  -14.6673   20.2725 C   0  0  0  0  0  0  0  0  0  0  0  0
   14.3831  -15.0420   19.5135 O   0  0  0  0  0  0  0  0  0  0  0  0
   13.4521  -14.8638   21.7333 C   0  0  0  0  0  0  0  0  0  0  0  0
   13.2675  -16.2881   22.0731 C   0  0  2  0  0  0  0  0  0  0  0  0
   11.9774  -16.8173   21.7356 N   0  0  0  0  0  0  0  0  0  0  0  0
   13.7122  -16.6059   23.4594 C   0  0  0  0  0  0  0  0  0  0  0  0
   12.9739  -17.1252   24.3315 O   0  0  0  0  0  0  0  0  0  0  0  0
   15.0232  -16.3401   23.8917 O   0  0  0  0  0  0  0  0  0  0  0  0
  1  2  1  0
  2  3  2  0
  4  5  1  0
  4  2  1  0
  5  6  1  0
  6  8  1  0
  6  7  1  6
  8  9  2  0
 10 11  1  0
 10  8  1  0
 11 12  1  6
 13 14  1  0
 13 12  1  0
 14 15  1  0
 16 15  1  0
 17 24  1  0
 17 11  1  0
 18 17  2  0
 19 20  1  0
 20 21  2  0
 20 22  1  0
 23 22  1  1
 23 24  1  0
 25 27  1  0
 25 23  1  0
 26 25  2  0
M  END
$$$$
