QKN.pdb
     RDKit          3D

 27 26  0  0  1  0  0  0  0  0999 V2000
    8.9178  -13.1024   16.1706 N   0  0  0  0  0  0  0  0  0  0  0  0
    7.6899  -13.7035   16.5557 C   0  0  0  0  0  0  0  0  0  0  0  0
    6.6715  -13.6636   15.8189 O   0  0  0  0  0  0  0  0  0  0  0  0
    7.6625  -14.3924   17.8886 C   0  0  0  0  0  0  0  0  0  0  0  0
    8.9952  -14.2004   18.5736 C   0  0  0  0  0  0  0  0  0  0  0  0
    9.3505  -15.3801   19.4444 C   0  0  2  0  0  0  0  0  0  0  0  0
    8.5442  -16.5042   19.0535 N   0  0  0  0  0  0  0  0  0  0  0  0
    9.2740  -15.0576   20.8709 C   0  0  0  0  0  0  0  0  0  0  0  0
   10.2434  -14.4838   21.4136 O   0  0  0  0  0  0  0  0  0  0  0  0
    8.1443  -15.3561   21.7164 N   0  0  0  0  0  0  0  0  0  0  0  0
    8.1588  -15.0734   23.1196 C   0  0  1  0  0  0  0  0  0  0  0  0
    7.0034  -14.2858   23.5763 C   0  0  0  0  0  0  0  0  0  0  0  0
    6.7440  -13.9968   24.9821 C   0  0  0  0  0  0  0  0  0  0  0  0
    7.0754  -12.6649   25.5468 C   0  0  0  0  0  0  0  0  0  0  0  0
    6.6597  -12.5986   27.0408 C   0  0  0  0  0  0  0  0  0  0  0  0
    6.8919  -11.2697   27.5587 N   0  0  0  0  0  0  0  0  0  0  0  0
    8.4142  -16.2979   23.9287 C   0  0  0  0  0  0  0  0  0  0  0  0
    7.8646  -17.3550   23.5518 O   0  0  0  0  0  0  0  0  0  0  0  0
   13.3846  -18.0569   25.6714 N   0  0  0  0  0  0  0  0  0  0  0  0
   12.3339  -18.3613   24.7538 C   0  0  0  0  0  0  0  0  0  0  0  0
   12.3022  -19.5339   24.2926 O   0  0  0  0  0  0  0  0  0  0  0  0
   11.3595  -17.3143   24.3978 C   0  0  0  0  0  0  0  0  0  0  0  0
   10.2753  -17.2428   25.3966 C   0  0  2  0  0  0  0  0  0  0  0  0
    9.2311  -16.3130   25.0748 N   0  0  0  0  0  0  0  0  0  0  0  0
   10.7904  -17.1217   26.7896 C   0  0  0  0  0  0  0  0  0  0  0  0
   10.9727  -16.0280   27.3778 O   0  0  0  0  0  0  0  0  0  0  0  0
   11.1118  -18.2546   27.5573 O   0  0  0  0  0  0  0  0  0  0  0  0
  1  2  1  0
  2  3  2  0
  4  5  1  0
  4  2  1  0
  5  6  1  0
  6  8  1  0
  6  7  1  1
  8  9  2  0
 10 11  1  0
 10  8  1  0
 11 12  1  1
 13 14  1  0
 13 12  1  0
 14 15  1  0
 16 15  1  0
 17 24  1  0
 17 11  1  0
 18 17  2  0
 19 20  1  0
 20 21  2  0
 20 22  1  0
 23 22  1  6
 23 24  1  0
 25 27  1  0
 25 23  1  0
 26 25  2  0
M  END
$$$$
