QKN.pdb
     RDKit          3D

 27 26  0  0  1  0  0  0  0  0999 V2000
    8.3013  -18.6079    6.5132 N   0  0  0  0  0  0  0  0  0  0  0  0
    7.8392  -17.6318    7.4356 C   0  0  0  0  0  0  0  0  0  0  0  0
    6.6511  -17.2194    7.4260 O   0  0  0  0  0  0  0  0  0  0  0  0
    8.8379  -17.1120    8.4278 C   0  0  0  0  0  0  0  0  0  0  0  0
    8.4496  -17.5763    9.8120 C   0  0  0  0  0  0  0  0  0  0  0  0
    9.2053  -18.8178   10.2168 C   0  0  2  0  0  0  0  0  0  0  0  0
    8.9542  -19.8498    9.2482 N   0  0  0  0  0  0  0  0  0  0  0  0
    8.9204  -19.2129   11.5980 C   0  0  0  0  0  0  0  0  0  0  0  0
    9.1359  -18.3937   12.5177 O   0  0  0  0  0  0  0  0  0  0  0  0
    8.3995  -20.5000   11.9884 N   0  0  0  0  0  0  0  0  0  0  0  0
    8.1537  -20.8280   13.3600 C   0  0  1  0  0  0  0  0  0  0  0  0
    6.8672  -21.5048   13.5850 C   0  0  0  0  0  0  0  0  0  0  0  0
    5.5798  -20.8749   13.3157 C   0  0  0  0  0  0  0  0  0  0  0  0
    4.3190  -21.6325   13.5134 C   0  0  0  0  0  0  0  0  0  0  0  0
    3.0986  -20.7445   13.1507 C   0  0  0  0  0  0  0  0  0  0  0  0
    1.8732  -21.4808   13.3611 N   0  0  0  0  0  0  0  0  0  0  0  0
    9.3179  -21.5192   13.9812 C   0  0  0  0  0  0  0  0  0  0  0  0
   10.1673  -22.0118   13.2082 O   0  0  0  0  0  0  0  0  0  0  0  0
   13.1137  -19.3749   17.4471 N   0  0  0  0  0  0  0  0  0  0  0  0
   12.8283  -20.3466   16.4407 C   0  0  0  0  0  0  0  0  0  0  0  0
   13.7315  -21.1892   16.1898 O   0  0  0  0  0  0  0  0  0  0  0  0
   11.5218  -20.3185   15.7589 C   0  0  0  0  0  0  0  0  0  0  0  0
   10.7166  -21.5028   16.1154 C   0  0  2  0  0  0  0  0  0  0  0  0
    9.4968  -21.6378   15.3723 N   0  0  0  0  0  0  0  0  0  0  0  0
   10.5527  -21.6586   17.5883 C   0  0  0  0  0  0  0  0  0  0  0  0
   11.5055  -21.8379   18.3854 O   0  0  0  0  0  0  0  0  0  0  0  0
    9.2868  -21.6110   18.1977 O   0  0  0  0  0  0  0  0  0  0  0  0
  1  2  1  0
  2  3  2  0
  4  5  1  0
  4  2  1  0
  5  6  1  0
  6  8  1  0
  6  7  1  6
  8  9  2  0
 10 11  1  0
 10  8  1  0
 11 12  1  6
 13 14  1  0
 13 12  1  0
 14 15  1  0
 16 15  1  0
 17 24  1  0
 17 11  1  0
 18 17  2  0
 19 20  1  0
 20 21  2  0
 20 22  1  0
 23 22  1  1
 23 24  1  0
 25 27  1  0
 25 23  1  0
 26 25  2  0
M  END
$$$$
