QKN.pdb
     RDKit          3D

 27 26  0  0  1  0  0  0  0  0999 V2000
   12.4250  -18.6237   18.3601 N   0  0  0  0  0  0  0  0  0  0  0  0
   11.3110  -18.5476   17.4825 C   0  0  0  0  0  0  0  0  0  0  0  0
   11.3157  -19.1031   16.3541 O   0  0  0  0  0  0  0  0  0  0  0  0
   10.1213  -17.7703   17.9648 C   0  0  0  0  0  0  0  0  0  0  0  0
   10.3842  -17.2827   19.3703 C   0  0  0  0  0  0  0  0  0  0  0  0
    9.1301  -16.7543   20.0217 C   0  0  2  0  0  0  0  0  0  0  0  0
    8.3235  -16.1112   19.0206 N   0  0  0  0  0  0  0  0  0  0  0  0
    9.4230  -15.9127   21.1839 C   0  0  0  0  0  0  0  0  0  0  0  0
   10.6132  -15.7609   21.5356 O   0  0  0  0  0  0  0  0  0  0  0  0
    8.4249  -15.2309   21.9708 N   0  0  0  0  0  0  0  0  0  0  0  0
    8.6823  -14.8144   23.3160 C   0  0  1  0  0  0  0  0  0  0  0  0
    7.6055  -13.9996   23.8993 C   0  0  0  0  0  0  0  0  0  0  0  0
    7.6383  -13.5024   25.2699 C   0  0  0  0  0  0  0  0  0  0  0  0
    6.5285  -12.6655   25.7902 C   0  0  0  0  0  0  0  0  0  0  0  0
    6.7989  -12.2769   27.2684 C   0  0  0  0  0  0  0  0  0  0  0  0
    5.7140  -11.4656   27.7713 N   0  0  0  0  0  0  0  0  0  0  0  0
    9.1131  -15.9525   24.1753 C   0  0  0  0  0  0  0  0  0  0  0  0
    8.3592  -16.9480   24.2229 O   0  0  0  0  0  0  0  0  0  0  0  0
   12.8755  -19.6235   25.9084 N   0  0  0  0  0  0  0  0  0  0  0  0
   12.8144  -18.2861   26.4042 C   0  0  0  0  0  0  0  0  0  0  0  0
   13.1975  -18.1001   27.5905 O   0  0  0  0  0  0  0  0  0  0  0  0
   12.3176  -17.2117   25.5259 C   0  0  0  0  0  0  0  0  0  0  0  0
   10.8623  -17.0287   25.6897 C   0  0  2  0  0  0  0  0  0  0  0  0
   10.3081  -15.9529   24.9192 N   0  0  0  0  0  0  0  0  0  0  0  0
   10.4447  -17.0312   27.1201 C   0  0  0  0  0  0  0  0  0  0  0  0
   10.1868  -15.9937   27.7777 O   0  0  0  0  0  0  0  0  0  0  0  0
   10.3061  -18.2277   27.8450 O   0  0  0  0  0  0  0  0  0  0  0  0
  1  2  1  0
  2  3  2  0
  4  5  1  0
  4  2  1  0
  5  6  1  0
  6  8  1  0
  6  7  1  6
  8  9  2  0
 10 11  1  0
 10  8  1  0
 11 12  1  1
 13 14  1  0
 13 12  1  0
 14 15  1  0
 16 15  1  0
 17 24  1  0
 17 11  1  0
 18 17  2  0
 19 20  1  0
 20 21  2  0
 20 22  1  0
 23 22  1  1
 23 24  1  0
 25 27  1  0
 25 23  1  0
 26 25  2  0
M  END
$$$$
