QKN.pdb
     RDKit          3D

 27 26  0  0  1  0  0  0  0  0999 V2000
    9.5241  -18.7273   14.2684 N   0  0  0  0  0  0  0  0  0  0  0  0
    8.9120  -17.9077   15.2538 C   0  0  0  0  0  0  0  0  0  0  0  0
    8.2575  -16.8784   14.9478 O   0  0  0  0  0  0  0  0  0  0  0  0
    9.0823  -18.3278   16.6844 C   0  0  0  0  0  0  0  0  0  0  0  0
    9.9992  -17.3508   17.3823 C   0  0  0  0  0  0  0  0  0  0  0  0
   10.1259  -17.6579   18.8540 C   0  0  2  0  0  0  0  0  0  0  0  0
    9.1575  -18.6612   19.2033 N   0  0  0  0  0  0  0  0  0  0  0  0
   10.0582  -16.4496   19.6790 C   0  0  0  0  0  0  0  0  0  0  0  0
   10.9143  -15.5540   19.5104 O   0  0  0  0  0  0  0  0  0  0  0  0
    9.0603  -16.2069   20.6916 N   0  0  0  0  0  0  0  0  0  0  0  0
    9.1522  -15.0943   21.5876 C   0  0  1  0  0  0  0  0  0  0  0  0
    7.8973  -14.3391   21.7236 C   0  0  0  0  0  0  0  0  0  0  0  0
    7.1753  -13.7852   20.5839 C   0  0  0  0  0  0  0  0  0  0  0  0
    7.9126  -13.3328   19.3779 C   0  0  0  0  0  0  0  0  0  0  0  0
    6.9206  -12.7762   18.3217 C   0  0  0  0  0  0  0  0  0  0  0  0
    7.6206  -12.4902   17.0904 N   0  0  0  0  0  0  0  0  0  0  0  0
    9.7705  -15.4794   22.8871 C   0  0  0  0  0  0  0  0  0  0  0  0
    9.0042  -15.6161   23.8646 O   0  0  0  0  0  0  0  0  0  0  0  0
   10.4917  -17.3312   26.1976 N   0  0  0  0  0  0  0  0  0  0  0  0
   10.5580  -18.3131   25.1632 C   0  0  0  0  0  0  0  0  0  0  0  0
   10.0145  -19.4257   25.3982 O   0  0  0  0  0  0  0  0  0  0  0  0
   11.2431  -17.9865   23.8996 C   0  0  0  0  0  0  0  0  0  0  0  0
   11.7967  -16.6190   23.9393 C   0  0  2  0  0  0  0  0  0  0  0  0
   11.1519  -15.6909   23.0554 N   0  0  0  0  0  0  0  0  0  0  0  0
   13.2845  -16.6035   23.8584 C   0  0  0  0  0  0  0  0  0  0  0  0
   13.9292  -16.1747   22.8705 O   0  0  0  0  0  0  0  0  0  0  0  0
   14.0846  -17.0784   24.9123 O   0  0  0  0  0  0  0  0  0  0  0  0
  1  2  1  0
  2  3  2  0
  4  5  1  0
  4  2  1  0
  5  6  1  0
  6  8  1  0
  6  7  1  1
  8  9  2  0
 10 11  1  0
 10  8  1  0
 11 12  1  1
 13 14  1  0
 13 12  1  0
 14 15  1  0
 16 15  1  0
 17 24  1  0
 17 11  1  0
 18 17  2  0
 19 20  1  0
 20 21  2  0
 20 22  1  0
 23 22  1  6
 23 24  1  0
 25 27  1  0
 25 23  1  0
 26 25  2  0
M  END
$$$$
