QKN.pdb
     RDKit          3D

 27 26  0  0  1  0  0  0  0  0999 V2000
   14.1309  -13.9943   18.8140 N   0  0  0  0  0  0  0  0  0  0  0  0
   14.1273  -15.4125   18.8897 C   0  0  0  0  0  0  0  0  0  0  0  0
   15.1232  -16.0575   19.3067 O   0  0  0  0  0  0  0  0  0  0  0  0
   12.8747  -16.1107   18.4474 C   0  0  0  0  0  0  0  0  0  0  0  0
   11.7185  -15.6417   19.2991 C   0  0  0  0  0  0  0  0  0  0  0  0
   10.4455  -16.3807   18.9682 C   0  0  2  0  0  0  0  0  0  0  0  0
    9.7155  -15.6291   17.9840 N   0  0  0  0  0  0  0  0  0  0  0  0
    9.6690  -16.7087   20.1659 C   0  0  0  0  0  0  0  0  0  0  0  0
    8.8718  -15.8595   20.6206 O   0  0  0  0  0  0  0  0  0  0  0  0
    9.7535  -17.9609   20.8766 N   0  0  0  0  0  0  0  0  0  0  0  0
    8.8881  -18.2622   21.9763 C   0  0  1  0  0  0  0  0  0  0  0  0
    8.4486  -19.6654   22.0161 C   0  0  0  0  0  0  0  0  0  0  0  0
    7.5780  -20.1964   23.0587 C   0  0  0  0  0  0  0  0  0  0  0  0
    7.0921  -21.5970   22.9877 C   0  0  0  0  0  0  0  0  0  0  0  0
    6.1617  -21.9023   24.1920 C   0  0  0  0  0  0  0  0  0  0  0  0
    5.5628  -23.2078   24.0338 N   0  0  0  0  0  0  0  0  0  0  0  0
    9.4394  -17.7639   23.2674 C   0  0  0  0  0  0  0  0  0  0  0  0
   10.6762  -17.8430   23.4275 O   0  0  0  0  0  0  0  0  0  0  0  0
    6.7683  -13.7840   25.0334 N   0  0  0  0  0  0  0  0  0  0  0  0
    7.9766  -14.5441   25.0062 C   0  0  0  0  0  0  0  0  0  0  0  0
    8.7882  -14.2910   24.0757 O   0  0  0  0  0  0  0  0  0  0  0  0
    8.2116  -15.5649   26.0432 C   0  0  0  0  0  0  0  0  0  0  0  0
    9.0781  -16.6447   25.5320 C   0  0  2  0  0  0  0  0  0  0  0  0
    8.6422  -17.2196   24.2919 N   0  0  0  0  0  0  0  0  0  0  0  0
    9.4196  -17.6466   26.5808 C   0  0  0  0  0  0  0  0  0  0  0  0
    9.2431  -18.8828   26.4545 O   0  0  0  0  0  0  0  0  0  0  0  0
    9.9792  -17.2627   27.8119 O   0  0  0  0  0  0  0  0  0  0  0  0
  1  2  1  0
  2  3  2  0
  4  5  1  0
  4  2  1  0
  5  6  1  0
  6  8  1  0
  6  7  1  6
  8  9  2  0
 10 11  1  0
 10  8  1  0
 11 12  1  1
 13 14  1  0
 13 12  1  0
 14 15  1  0
 16 15  1  0
 17 24  1  0
 17 11  1  0
 18 17  2  0
 19 20  1  0
 20 21  2  0
 20 22  1  0
 23 22  1  1
 23 24  1  0
 25 27  1  0
 25 23  1  0
 26 25  2  0
M  END
$$$$
