QKN.pdb
     RDKit          3D

 27 26  0  0  1  0  0  0  0  0999 V2000
   16.1631  -16.9691   16.6395 N   0  0  0  0  0  0  0  0  0  0  0  0
   16.4484  -15.9857   15.6553 C   0  0  0  0  0  0  0  0  0  0  0  0
   16.7945  -16.2968   14.4870 O   0  0  0  0  0  0  0  0  0  0  0  0
   16.3172  -14.5507   16.0745 C   0  0  0  0  0  0  0  0  0  0  0  0
   15.7919  -14.4935   17.4898 C   0  0  0  0  0  0  0  0  0  0  0  0
   14.2866  -14.3977   17.5231 C   0  0  2  0  0  0  0  0  0  0  0  0
   13.8974  -13.0739   17.1197 N   0  0  0  0  0  0  0  0  0  0  0  0
   13.7341  -14.8154   18.8135 C   0  0  0  0  0  0  0  0  0  0  0  0
   13.8992  -14.0772   19.8091 O   0  0  0  0  0  0  0  0  0  0  0  0
   12.9990  -16.0373   19.0302 N   0  0  0  0  0  0  0  0  0  0  0  0
   12.5935  -16.4496   20.3397 C   0  0  1  0  0  0  0  0  0  0  0  0
   11.5490  -17.4852   20.3369 C   0  0  0  0  0  0  0  0  0  0  0  0
   11.0221  -18.0862   21.5568 C   0  0  0  0  0  0  0  0  0  0  0  0
    9.9362  -19.0954   21.4864 C   0  0  0  0  0  0  0  0  0  0  0  0
    9.5676  -19.5852   22.9124 C   0  0  0  0  0  0  0  0  0  0  0  0
    8.3917  -20.4233   22.8573 N   0  0  0  0  0  0  0  0  0  0  0  0
   13.7623  -16.7713   21.2057 C   0  0  0  0  0  0  0  0  0  0  0  0
   14.5850  -17.6031   20.7668 O   0  0  0  0  0  0  0  0  0  0  0  0
   16.2618  -13.9031   21.6367 N   0  0  0  0  0  0  0  0  0  0  0  0
   16.6923  -15.0109   22.4278 C   0  0  0  0  0  0  0  0  0  0  0  0
   17.7058  -15.6409   22.0224 O   0  0  0  0  0  0  0  0  0  0  0  0
   15.9481  -15.3570   23.6522 C   0  0  0  0  0  0  0  0  0  0  0  0
   15.0218  -16.4791   23.4055 C   0  0  2  0  0  0  0  0  0  0  0  0
   13.9734  -16.1897   22.4700 N   0  0  0  0  0  0  0  0  0  0  0  0
   14.5527  -17.1191   24.6668 C   0  0  0  0  0  0  0  0  0  0  0  0
   13.3442  -17.2896   24.9600 O   0  0  0  0  0  0  0  0  0  0  0  0
   15.4570  -17.5884   25.6354 O   0  0  0  0  0  0  0  0  0  0  0  0
  1  2  1  0
  2  3  2  0
  4  5  1  0
  4  2  1  0
  5  6  1  0
  6  8  1  0
  6  7  1  1
  8  9  2  0
 10 11  1  0
 10  8  1  0
 11 12  1  6
 13 14  1  0
 13 12  1  0
 14 15  1  0
 16 15  1  0
 17 24  1  0
 17 11  1  0
 18 17  2  0
 19 20  1  0
 20 21  2  0
 20 22  1  0
 23 22  1  1
 23 24  1  0
 25 27  1  0
 25 23  1  0
 26 25  2  0
M  END
$$$$
