QKN.pdb
     RDKit          3D

 27 26  0  0  1  0  0  0  0  0999 V2000
    7.5277  -12.4480   18.7100 N   0  0  0  0  0  0  0  0  0  0  0  0
    7.3594  -13.4165   17.6848 C   0  0  0  0  0  0  0  0  0  0  0  0
    6.9504  -13.1041   16.5373 O   0  0  0  0  0  0  0  0  0  0  0  0
    7.6936  -14.8371   18.0345 C   0  0  0  0  0  0  0  0  0  0  0  0
    8.0075  -14.9240   19.5097 C   0  0  0  0  0  0  0  0  0  0  0  0
    8.3842  -16.3265   19.9186 C   0  0  2  0  0  0  0  0  0  0  0  0
    7.4750  -17.2505   19.2973 N   0  0  0  0  0  0  0  0  0  0  0  0
    8.4820  -16.4713   21.3727 C   0  0  0  0  0  0  0  0  0  0  0  0
    9.1745  -15.6530   22.0163 O   0  0  0  0  0  0  0  0  0  0  0  0
    7.8280  -17.5055   22.1363 N   0  0  0  0  0  0  0  0  0  0  0  0
    8.1529  -17.7467   23.5095 C   0  0  1  0  0  0  0  0  0  0  0  0
    7.3248  -18.7864   24.1394 C   0  0  0  0  0  0  0  0  0  0  0  0
    7.5530  -19.2710   25.4959 C   0  0  0  0  0  0  0  0  0  0  0  0
    6.6943  -20.3397   26.0643 C   0  0  0  0  0  0  0  0  0  0  0  0
    7.1605  -20.6929   27.5021 C   0  0  0  0  0  0  0  0  0  0  0  0
    6.2130  -21.5913   28.1209 N   0  0  0  0  0  0  0  0  0  0  0  0
    9.6171  -17.9373   23.7069 C   0  0  0  0  0  0  0  0  0  0  0  0
   10.2209  -18.6307   22.8606 O   0  0  0  0  0  0  0  0  0  0  0  0
   14.4252  -17.6376   25.3337 N   0  0  0  0  0  0  0  0  0  0  0  0
   13.9720  -16.6491   24.4085 C   0  0  0  0  0  0  0  0  0  0  0  0
   14.8572  -15.9889   23.8010 O   0  0  0  0  0  0  0  0  0  0  0  0
   12.5244  -16.4524   24.2126 C   0  0  0  0  0  0  0  0  0  0  0  0
   11.7488  -17.4213   25.0112 C   0  0  2  0  0  0  0  0  0  0  0  0
   10.3328  -17.3808   24.7836 N   0  0  0  0  0  0  0  0  0  0  0  0
   12.1345  -17.4125   26.4505 C   0  0  0  0  0  0  0  0  0  0  0  0
   11.4724  -16.8414   27.3510 O   0  0  0  0  0  0  0  0  0  0  0  0
   13.2946  -18.0626   26.9062 O   0  0  0  0  0  0  0  0  0  0  0  0
  1  2  1  0
  2  3  2  0
  4  5  1  0
  4  2  1  0
  5  6  1  0
  6  8  1  0
  6  7  1  1
  8  9  2  0
 10 11  1  0
 10  8  1  0
 11 12  1  6
 13 14  1  0
 13 12  1  0
 14 15  1  0
 16 15  1  0
 17 24  1  0
 17 11  1  0
 18 17  2  0
 19 20  1  0
 20 21  2  0
 20 22  1  0
 23 22  1  6
 23 24  1  0
 25 27  1  0
 25 23  1  0
 26 25  2  0
M  END
$$$$
