QKN.pdb
     RDKit          3D

 27 26  0  0  1  0  0  0  0  0999 V2000
   14.1422  -19.8938   20.6896 N   0  0  0  0  0  0  0  0  0  0  0  0
   13.8332  -20.1563   19.3284 C   0  0  0  0  0  0  0  0  0  0  0  0
   14.7097  -20.5349   18.5099 O   0  0  0  0  0  0  0  0  0  0  0  0
   12.4058  -19.9606   18.9086 C   0  0  0  0  0  0  0  0  0  0  0  0
   11.6063  -19.4587   20.0880 C   0  0  0  0  0  0  0  0  0  0  0  0
   10.1630  -19.8907   20.0087 C   0  0  2  0  0  0  0  0  0  0  0  0
    9.5455  -19.2401   18.8854 N   0  0  0  0  0  0  0  0  0  0  0  0
    9.4560  -19.6932   21.2760 C   0  0  0  0  0  0  0  0  0  0  0  0
    9.4290  -18.5498   21.7812 O   0  0  0  0  0  0  0  0  0  0  0  0
    8.7740  -20.7364   22.0020 N   0  0  0  0  0  0  0  0  0  0  0  0
    7.9846  -20.4536   23.1622 C   0  0  1  0  0  0  0  0  0  0  0  0
    6.7685  -21.2747   23.2648 C   0  0  0  0  0  0  0  0  0  0  0  0
    5.7424  -21.3084   22.2291 C   0  0  0  0  0  0  0  0  0  0  0  0
    4.6369  -22.2961   22.3014 C   0  0  0  0  0  0  0  0  0  0  0  0
    3.7227  -22.1683   21.0535 C   0  0  0  0  0  0  0  0  0  0  0  0
    2.6303  -23.1097   21.1442 N   0  0  0  0  0  0  0  0  0  0  0  0
    8.8096  -20.4364   24.4025 C   0  0  0  0  0  0  0  0  0  0  0  0
    9.5171  -21.4409   24.6305 O   0  0  0  0  0  0  0  0  0  0  0  0
    6.2249  -19.6585   27.9347 N   0  0  0  0  0  0  0  0  0  0  0  0
    7.4545  -18.9454   27.8006 C   0  0  0  0  0  0  0  0  0  0  0  0
    7.3814  -17.6882   27.7488 O   0  0  0  0  0  0  0  0  0  0  0  0
    8.7212  -19.6960   27.7304 C   0  0  0  0  0  0  0  0  0  0  0  0
    9.5181  -19.2753   26.5615 C   0  0  2  0  0  0  0  0  0  0  0  0
    8.8248  -19.3591   25.3083 N   0  0  0  0  0  0  0  0  0  0  0  0
   10.8768  -19.8871   26.5477 C   0  0  0  0  0  0  0  0  0  0  0  0
   11.2446  -20.7973   27.3297 O   0  0  0  0  0  0  0  0  0  0  0  0
   11.8607  -19.4755   25.6319 O   0  0  0  0  0  0  0  0  0  0  0  0
  1  2  1  0
  2  3  2  0
  4  5  1  0
  4  2  1  0
  5  6  1  0
  6  8  1  0
  6  7  1  6
  8  9  2  0
 10 11  1  0
 10  8  1  0
 11 12  1  1
 13 14  1  0
 13 12  1  0
 14 15  1  0
 16 15  1  0
 17 24  1  0
 17 11  1  0
 18 17  2  0
 19 20  1  0
 20 21  2  0
 20 22  1  0
 23 22  1  1
 23 24  1  0
 25 27  1  0
 25 23  1  0
 26 25  2  0
M  END
$$$$
