YFY.pdb
     RDKit          3D

 36 38  0  0  1  0  0  0  0  0999 V2000
   18.8532  -20.0603  -27.6801 O   0  0  0  0  0  0  0  0  0  0  0  0
   18.8476  -20.1147  -26.3026 C   0  0  0  0  0  0  0  0  0  0  0  0
   18.2826  -19.0797  -25.6154 C   0  0  0  0  0  0  0  0  0  0  0  0
   18.2719  -19.1243  -24.2397 C   0  0  0  0  0  0  0  0  0  0  0  0
   18.8195  -20.1905  -23.5684 C   0  0  0  0  0  0  0  0  0  0  0  0
   18.7931  -20.2132  -22.0685 C   0  0  0  0  0  0  0  0  0  0  0  0
   19.8626  -19.2670  -21.5898 C   0  0  2  0  0  0  0  0  0  0  0  0
   21.1728  -19.7942  -21.8896 N   0  0  0  0  0  0  0  0  0  0  0  0
   19.7270  -18.8802  -20.1666 C   0  0  0  0  0  0  0  0  0  0  0  0
   20.4822  -19.4711  -19.3302 O   0  0  0  0  0  0  0  0  0  0  0  0
   19.3847  -21.2254  -24.2675 C   0  0  0  0  0  0  0  0  0  0  0  0
   19.3979  -21.1855  -25.6436 C   0  0  0  0  0  0  0  0  0  0  0  0
   18.8157  -17.9007  -19.6954 N   0  0  0  0  0  0  0  0  0  0  0  0
   18.6652  -17.5310  -18.3258 C   0  0  1  0  0  0  0  0  0  0  0  0
   18.7814  -16.0320  -18.1844 C   0  0  0  0  0  0  0  0  0  0  0  0
   20.0660  -15.4872  -18.6018 C   0  0  0  0  0  0  0  0  0  0  0  0
   21.1672  -15.3758  -17.7712 C   0  0  0  0  0  0  0  0  0  0  0  0
   22.3694  -14.8603  -18.1808 C   0  0  0  0  0  0  0  0  0  0  0  0
   22.5203  -14.4251  -19.4717 C   0  0  0  0  0  0  0  0  0  0  0  0
   21.4532  -14.5170  -20.3304 C   0  0  0  0  0  0  0  0  0  0  0  0
   20.2325  -15.0461  -19.8951 C   0  0  0  0  0  0  0  0  0  0  0  0
   17.5136  -18.1035  -17.6257 C   0  0  0  0  0  0  0  0  0  0  0  0
   16.3086  -17.9387  -17.9743 O   0  0  0  0  0  0  0  0  0  0  0  0
   12.9093  -22.8495  -11.6042 O   0  0  0  0  0  0  0  0  0  0  0  0
   13.9130  -22.2974  -12.3998 C   0  0  0  0  0  0  0  0  0  0  0  0
   14.1584  -22.7298  -13.6804 C   0  0  0  0  0  0  0  0  0  0  0  0
   15.1641  -22.1468  -14.4205 C   0  0  0  0  0  0  0  0  0  0  0  0
   15.9701  -21.1199  -13.9411 C   0  0  0  0  0  0  0  0  0  0  0  0
   17.0467  -20.5201  -14.7518 C   0  0  0  0  0  0  0  0  0  0  0  0
   16.5391  -19.4717  -15.7324 C   0  0  2  0  0  0  0  0  0  0  0  0
   17.6834  -18.9113  -16.4706 N   0  0  0  0  0  0  0  0  0  0  0  0
   15.9513  -18.3691  -14.9570 C   0  0  0  0  0  0  0  0  0  0  0  0
   16.5423  -17.1320  -14.7474 O   0  0  0  0  0  0  0  0  0  0  0  0
   15.6957  -20.7070  -12.6447 C   0  0  0  0  0  0  0  0  0  0  0  0
   14.6934  -21.2810  -11.8942 C   0  0  0  0  0  0  0  0  0  0  0  0
   14.8235  -18.5366  -14.4313 O   0  0  0  0  0  0  0  0  0  0  0  0
  2  1  1  0
  3  2  2  0
  4  3  1  0
  5 11  1  0
  5  4  2  0
  6  5  1  0
  7  6  1  0
  7  8  1  1
  9  7  1  0
 10  9  2  0
 11 12  2  0
 12  2  1  0
 13  9  1  0
 14 13  1  0
 14 15  1  6
 16 15  1  0
 16 17  2  0
 18 17  1  0
 19 18  2  0
 20 21  2  0
 20 19  1  0
 21 16  1  0
 22 14  1  0
 23 22  2  0
 25 24  1  0
 25 26  2  0
 27 26  1  0
 28 27  2  0
 29 28  1  0
 30 29  1  1
 30 31  1  0
 31 22  1  0
 32 30  1  0
 32 33  1  0
 34 35  2  0
 34 28  1  0
 35 25  1  0
 36 32  2  0
M  END
$$$$
