YFY.pdb
     RDKit          3D

 36 38  0  0  1  0  0  0  0  0999 V2000
   20.5941  -16.1992  -20.6039 O   0  0  0  0  0  0  0  0  0  0  0  0
   20.9333  -14.8680  -20.4884 C   0  0  0  0  0  0  0  0  0  0  0  0
   21.9484  -14.3881  -21.2642 C   0  0  0  0  0  0  0  0  0  0  0  0
   22.2948  -13.0604  -21.1565 C   0  0  0  0  0  0  0  0  0  0  0  0
   21.6320  -12.2313  -20.2844 C   0  0  0  0  0  0  0  0  0  0  0  0
   22.0302  -10.7879  -20.1881 C   0  0  0  0  0  0  0  0  0  0  0  0
   22.9931  -10.6673  -19.0365 C   0  0  2  0  0  0  0  0  0  0  0  0
   23.1198  -11.9315  -18.3510 N   0  0  0  0  0  0  0  0  0  0  0  0
   22.6809   -9.5560  -18.1084 C   0  0  0  0  0  0  0  0  0  0  0  0
   22.4999   -9.8553  -16.8850 O   0  0  0  0  0  0  0  0  0  0  0  0
   20.6137  -12.7226  -19.5093 C   0  0  0  0  0  0  0  0  0  0  0  0
   20.2634  -14.0499  -19.6133 C   0  0  0  0  0  0  0  0  0  0  0  0
   22.5764   -8.1983  -18.5052 N   0  0  0  0  0  0  0  0  0  0  0  0
   22.2899   -7.1182  -17.6185 C   0  0  1  0  0  0  0  0  0  0  0  0
   23.3097   -7.0853  -16.5053 C   0  0  0  0  0  0  0  0  0  0  0  0
   23.2627   -5.8840  -15.6830 C   0  0  0  0  0  0  0  0  0  0  0  0
   24.0163   -4.7490  -15.9255 C   0  0  0  0  0  0  0  0  0  0  0  0
   23.9596   -3.6265  -15.1409 C   0  0  0  0  0  0  0  0  0  0  0  0
   23.1242   -3.5954  -14.0547 C   0  0  0  0  0  0  0  0  0  0  0  0
   22.3580   -4.7000  -13.7769 C   0  0  0  0  0  0  0  0  0  0  0  0
   22.4286   -5.8381  -14.5889 C   0  0  0  0  0  0  0  0  0  0  0  0
   22.0548   -5.8151  -18.2437 C   0  0  0  0  0  0  0  0  0  0  0  0
   22.7560   -5.3325  -19.1797 O   0  0  0  0  0  0  0  0  0  0  0  0
   14.8842   -4.6735  -15.8755 O   0  0  0  0  0  0  0  0  0  0  0  0
   15.9905   -4.4199  -16.6859 C   0  0  0  0  0  0  0  0  0  0  0  0
   16.5226   -3.1621  -16.8325 C   0  0  0  0  0  0  0  0  0  0  0  0
   17.6174   -2.9709  -17.6474 C   0  0  0  0  0  0  0  0  0  0  0  0
   18.2360   -3.9984  -18.3513 C   0  0  0  0  0  0  0  0  0  0  0  0
   19.4015   -3.7639  -19.2248 C   0  0  0  0  0  0  0  0  0  0  0  0
   20.7132   -3.6794  -18.4562 C   0  0  2  0  0  0  0  0  0  0  0  0
   20.9842   -4.9819  -17.8250 N   0  0  0  0  0  0  0  0  0  0  0  0
   20.5416   -2.7060  -17.3675 C   0  0  0  0  0  0  0  0  0  0  0  0
   20.4252   -1.3334  -17.5299 O   0  0  0  0  0  0  0  0  0  0  0  0
   17.6739   -5.2558  -18.1809 C   0  0  0  0  0  0  0  0  0  0  0  0
   16.5799   -5.4607  -17.3694 C   0  0  0  0  0  0  0  0  0  0  0  0
   20.4942   -3.1265  -16.1854 O   0  0  0  0  0  0  0  0  0  0  0  0
  2  1  1  0
  3  2  2  0
  4  3  1  0
  5 11  1  0
  5  4  2  0
  6  5  1  0
  7  6  1  0
  7  8  1  1
  9  7  1  0
 10  9  2  0
 11 12  2  0
 12  2  1  0
 13  9  1  0
 14 13  1  0
 14 15  1  1
 16 15  1  0
 16 17  2  0
 18 17  1  0
 19 18  2  0
 20 21  2  0
 20 19  1  0
 21 16  1  0
 22 14  1  0
 23 22  2  0
 25 24  1  0
 25 26  2  0
 27 26  1  0
 28 27  2  0
 29 28  1  0
 30 29  1  1
 30 31  1  0
 31 22  1  0
 32 30  1  0
 32 33  1  0
 34 35  2  0
 34 28  1  0
 35 25  1  0
 36 32  2  0
M  END
$$$$
