YFY.pdb
     RDKit          3D

 36 38  0  0  1  0  0  0  0  0999 V2000
   25.2535  -17.5265  -22.1521 O   0  0  0  0  0  0  0  0  0  0  0  0
   24.6588  -16.4873  -21.4689 C   0  0  0  0  0  0  0  0  0  0  0  0
   25.4078  -15.3802  -21.1931 C   0  0  0  0  0  0  0  0  0  0  0  0
   24.8235  -14.3370  -20.5115 C   0  0  0  0  0  0  0  0  0  0  0  0
   23.5101  -14.4067  -20.1147 C   0  0  0  0  0  0  0  0  0  0  0  0
   22.8987  -13.2543  -19.3737 C   0  0  0  0  0  0  0  0  0  0  0  0
   23.2106  -13.4480  -17.9131 C   0  0  2  0  0  0  0  0  0  0  0  0
   22.4586  -14.5593  -17.3803 N   0  0  0  0  0  0  0  0  0  0  0  0
   23.0502  -12.2215  -17.0984 C   0  0  0  0  0  0  0  0  0  0  0  0
   21.8986  -11.9994  -16.6049 O   0  0  0  0  0  0  0  0  0  0  0  0
   22.7659  -15.5229  -20.3963 C   0  0  0  0  0  0  0  0  0  0  0  0
   23.3457  -16.5691  -21.0780 C   0  0  0  0  0  0  0  0  0  0  0  0
   24.0959  -11.2981  -16.8427 N   0  0  0  0  0  0  0  0  0  0  0  0
   23.9425  -10.0912  -16.0976 C   0  0  1  0  0  0  0  0  0  0  0  0
   25.0837   -9.9447  -15.1196 C   0  0  0  0  0  0  0  0  0  0  0  0
   26.3883  -10.2998  -15.6613 C   0  0  0  0  0  0  0  0  0  0  0  0
   27.1513   -9.4625  -16.4560 C   0  0  0  0  0  0  0  0  0  0  0  0
   28.3779   -9.8129  -16.9576 C   0  0  0  0  0  0  0  0  0  0  0  0
   28.9021  -11.0476  -16.6759 C   0  0  0  0  0  0  0  0  0  0  0  0
   28.1788  -11.9106  -15.8908 C   0  0  0  0  0  0  0  0  0  0  0  0
   26.9277  -11.5361  -15.3870 C   0  0  0  0  0  0  0  0  0  0  0  0
   23.6729   -8.8815  -16.8773 C   0  0  0  0  0  0  0  0  0  0  0  0
   24.2909   -8.5564  -17.9323 O   0  0  0  0  0  0  0  0  0  0  0  0
   19.4306   -1.8585  -20.2596 O   0  0  0  0  0  0  0  0  0  0  0  0
   19.8072   -3.0372  -19.6162 C   0  0  0  0  0  0  0  0  0  0  0  0
   20.5065   -4.0327  -20.2539 C   0  0  0  0  0  0  0  0  0  0  0  0
   20.8519   -5.1766  -19.5673 C   0  0  0  0  0  0  0  0  0  0  0  0
   20.5287   -5.3948  -18.2325 C   0  0  0  0  0  0  0  0  0  0  0  0
   20.9026   -6.6336  -17.5241 C   0  0  0  0  0  0  0  0  0  0  0  0
   22.3947   -6.7265  -17.2357 C   0  0  2  0  0  0  0  0  0  0  0  0
   22.6621   -7.9648  -16.4852 N   0  0  0  0  0  0  0  0  0  0  0  0
   22.7591   -5.6072  -16.3543 C   0  0  0  0  0  0  0  0  0  0  0  0
   23.2212   -4.3702  -16.7784 O   0  0  0  0  0  0  0  0  0  0  0  0
   19.8225   -4.3699  -17.6184 C   0  0  0  0  0  0  0  0  0  0  0  0
   19.4712   -3.2214  -18.2929 C   0  0  0  0  0  0  0  0  0  0  0  0
   22.6526   -5.7590  -15.1125 O   0  0  0  0  0  0  0  0  0  0  0  0
  2  1  1  0
  3  2  2  0
  4  3  1  0
  5 11  1  0
  5  4  2  0
  6  5  1  0
  7  6  1  0
  7  8  1  1
  9  7  1  0
 10  9  2  0
 11 12  2  0
 12  2  1  0
 13  9  1  0
 14 13  1  0
 14 15  1  6
 16 15  1  0
 16 17  2  0
 18 17  1  0
 19 18  2  0
 20 21  2  0
 20 19  1  0
 21 16  1  0
 22 14  1  0
 23 22  2  0
 25 24  1  0
 25 26  2  0
 27 26  1  0
 28 27  2  0
 29 28  1  0
 30 29  1  1
 30 31  1  0
 31 22  1  0
 32 30  1  0
 32 33  1  0
 34 35  2  0
 34 28  1  0
 35 25  1  0
 36 32  2  0
M  END
$$$$
