YFY.pdb
     RDKit          3D

 36 38  0  0  1  0  0  0  0  0999 V2000
   37.2330  -27.8186  -22.8193 O   0  0  0  0  0  0  0  0  0  0  0  0
   37.7932  -28.9339  -22.2337 C   0  0  0  0  0  0  0  0  0  0  0  0
   37.4836  -29.2076  -20.9330 C   0  0  0  0  0  0  0  0  0  0  0  0
   38.0375  -30.3188  -20.3390 C   0  0  0  0  0  0  0  0  0  0  0  0
   38.8872  -31.1390  -21.0409 C   0  0  0  0  0  0  0  0  0  0  0  0
   39.4760  -32.3440  -20.3684 C   0  0  0  0  0  0  0  0  0  0  0  0
   40.3979  -31.8449  -19.2871 C   0  0  2  0  0  0  0  0  0  0  0  0
   41.5127  -31.1322  -19.8648 N   0  0  0  0  0  0  0  0  0  0  0  0
   40.8356  -32.8964  -18.3404 C   0  0  0  0  0  0  0  0  0  0  0  0
   41.8103  -33.6311  -18.6995 O   0  0  0  0  0  0  0  0  0  0  0  0
   39.1921  -30.8558  -22.3469 C   0  0  0  0  0  0  0  0  0  0  0  0
   38.6406  -29.7455  -22.9457 C   0  0  0  0  0  0  0  0  0  0  0  0
   40.2360  -33.1223  -17.0750 N   0  0  0  0  0  0  0  0  0  0  0  0
   40.6309  -34.1489  -16.1666 C   0  0  1  0  0  0  0  0  0  0  0  0
   40.9868  -33.5414  -14.8307 C   0  0  0  0  0  0  0  0  0  0  0  0
   42.1935  -32.7260  -14.8441 C   0  0  0  0  0  0  0  0  0  0  0  0
   42.1988  -31.3524  -15.0121 C   0  0  0  0  0  0  0  0  0  0  0  0
   43.3445  -30.6001  -15.0220 C   0  0  0  0  0  0  0  0  0  0  0  0
   44.5616  -31.2093  -14.8598 C   0  0  0  0  0  0  0  0  0  0  0  0
   44.6030  -32.5709  -14.6900 C   0  0  0  0  0  0  0  0  0  0  0  0
   43.4229  -33.3237  -14.6825 C   0  0  0  0  0  0  0  0  0  0  0  0
   39.7373  -35.3050  -16.0713 C   0  0  0  0  0  0  0  0  0  0  0  0
   38.5258  -35.2464  -15.7114 O   0  0  0  0  0  0  0  0  0  0  0  0
   36.3091  -43.3265  -17.7364 O   0  0  0  0  0  0  0  0  0  0  0  0
   37.0875  -42.1694  -17.7240 C   0  0  0  0  0  0  0  0  0  0  0  0
   37.0178  -41.2248  -18.7189 C   0  0  0  0  0  0  0  0  0  0  0  0
   37.8116  -40.1001  -18.6539 C   0  0  0  0  0  0  0  0  0  0  0  0
   38.7043  -39.8525  -17.6168 C   0  0  0  0  0  0  0  0  0  0  0  0
   39.5496  -38.6442  -17.5771 C   0  0  0  0  0  0  0  0  0  0  0  0
   39.2975  -37.7821  -16.3476 C   0  0  2  0  0  0  0  0  0  0  0  0
   40.1903  -36.6120  -16.3909 N   0  0  0  0  0  0  0  0  0  0  0  0
   39.6745  -38.5618  -15.1592 C   0  0  0  0  0  0  0  0  0  0  0  0
   38.7933  -39.2527  -14.3407 O   0  0  0  0  0  0  0  0  0  0  0  0
   38.7497  -40.8260  -16.6286 C   0  0  0  0  0  0  0  0  0  0  0  0
   37.9618  -41.9546  -16.6813 C   0  0  0  0  0  0  0  0  0  0  0  0
   40.8867  -38.6221  -14.8380 O   0  0  0  0  0  0  0  0  0  0  0  0
  2  1  1  0
  3  2  2  0
  4  3  1  0
  5 11  1  0
  5  4  2  0
  6  5  1  0
  7  6  1  0
  7  8  1  6
  9  7  1  0
 10  9  2  0
 11 12  2  0
 12  2  1  0
 13  9  1  0
 14 13  1  0
 14 15  1  1
 16 15  1  0
 16 17  2  0
 18 17  1  0
 19 18  2  0
 20 21  2  0
 20 19  1  0
 21 16  1  0
 22 14  1  0
 23 22  2  0
 25 24  1  0
 25 26  2  0
 27 26  1  0
 28 27  2  0
 29 28  1  0
 30 29  1  6
 30 31  1  0
 31 22  1  0
 32 30  1  0
 32 33  1  0
 34 35  2  0
 34 28  1  0
 35 25  1  0
 36 32  2  0
M  END
$$$$
