YFY.pdb
     RDKit          3D

 36 38  0  0  1  0  0  0  0  0999 V2000
   27.8604  -18.0847  -17.9822 O   0  0  0  0  0  0  0  0  0  0  0  0
   27.4573  -18.4284  -16.7095 C   0  0  0  0  0  0  0  0  0  0  0  0
   26.1794  -18.8738  -16.5325 C   0  0  0  0  0  0  0  0  0  0  0  0
   25.7670  -19.2196  -15.2657 C   0  0  0  0  0  0  0  0  0  0  0  0
   26.6246  -19.1190  -14.1971 C   0  0  0  0  0  0  0  0  0  0  0  0
   26.1484  -19.5036  -12.8273 C   0  0  0  0  0  0  0  0  0  0  0  0
   26.9383  -20.7143  -12.4047 C   0  0  2  0  0  0  0  0  0  0  0  0
   26.5966  -21.8509  -13.2268 N   0  0  0  0  0  0  0  0  0  0  0  0
   26.8395  -21.0192  -10.9587 C   0  0  0  0  0  0  0  0  0  0  0  0
   25.9209  -21.8216  -10.5965 O   0  0  0  0  0  0  0  0  0  0  0  0
   27.9063  -18.6706  -14.3850 C   0  0  0  0  0  0  0  0  0  0  0  0
   28.3236  -18.3235  -15.6502 C   0  0  0  0  0  0  0  0  0  0  0  0
   27.7019  -20.4739   -9.9735 N   0  0  0  0  0  0  0  0  0  0  0  0
   27.5151  -20.6209   -8.5669 C   0  0  1  0  0  0  0  0  0  0  0  0
   28.7618  -20.1824   -7.8363 C   0  0  0  0  0  0  0  0  0  0  0  0
   28.5933  -20.0331   -6.3972 C   0  0  0  0  0  0  0  0  0  0  0  0
   28.7509  -21.0640   -5.4876 C   0  0  0  0  0  0  0  0  0  0  0  0
   28.5886  -20.9059   -4.1358 C   0  0  0  0  0  0  0  0  0  0  0  0
   28.2535  -19.6775   -3.6285 C   0  0  0  0  0  0  0  0  0  0  0  0
   28.0872  -18.6261   -4.4953 C   0  0  0  0  0  0  0  0  0  0  0  0
   28.2569  -18.8056   -5.8731 C   0  0  0  0  0  0  0  0  0  0  0  0
   26.2794  -20.0590   -8.0179 C   0  0  0  0  0  0  0  0  0  0  0  0
   25.7323  -18.9945   -8.4278 O   0  0  0  0  0  0  0  0  0  0  0  0
   17.8322  -21.7160   -7.8126 O   0  0  0  0  0  0  0  0  0  0  0  0
   19.2224  -21.6225   -7.8730 C   0  0  0  0  0  0  0  0  0  0  0  0
   19.8635  -20.5958   -8.5224 C   0  0  0  0  0  0  0  0  0  0  0  0
   21.2407  -20.5549   -8.5495 C   0  0  0  0  0  0  0  0  0  0  0  0
   22.0466  -21.5135   -7.9450 C   0  0  0  0  0  0  0  0  0  0  0  0
   23.5196  -21.4507   -7.9978 C   0  0  0  0  0  0  0  0  0  0  0  0
   24.1232  -20.6673   -6.8401 C   0  0  2  0  0  0  0  0  0  0  0  0
   25.5911  -20.6984   -6.9535 N   0  0  0  0  0  0  0  0  0  0  0  0
   23.7778  -21.3615   -5.5907 C   0  0  0  0  0  0  0  0  0  0  0  0
   22.8122  -20.9487   -4.6846 O   0  0  0  0  0  0  0  0  0  0  0  0
   21.3675  -22.5363   -7.2978 C   0  0  0  0  0  0  0  0  0  0  0  0
   19.9915  -22.5890   -7.2630 C   0  0  0  0  0  0  0  0  0  0  0  0
   24.3932  -22.4158   -5.2973 O   0  0  0  0  0  0  0  0  0  0  0  0
  2  1  1  0
  3  2  2  0
  4  3  1  0
  5 11  1  0
  5  4  2  0
  6  5  1  0
  7  6  1  0
  7  8  1  6
  9  7  1  0
 10  9  2  0
 11 12  2  0
 12  2  1  0
 13  9  1  0
 14 13  1  0
 14 15  1  1
 16 15  1  0
 16 17  2  0
 18 17  1  0
 19 18  2  0
 20 21  2  0
 20 19  1  0
 21 16  1  0
 22 14  1  0
 23 22  2  0
 25 24  1  0
 25 26  2  0
 27 26  1  0
 28 27  2  0
 29 28  1  0
 30 29  1  6
 30 31  1  0
 31 22  1  0
 32 30  1  0
 32 33  1  0
 34 35  2  0
 34 28  1  0
 35 25  1  0
 36 32  2  0
M  END
$$$$
