YFY.pdb
     RDKit          3D

 36 38  0  0  1  0  0  0  0  0999 V2000
   28.2370  -16.0146  -19.3674 O   0  0  0  0  0  0  0  0  0  0  0  0
   27.0690  -16.4404  -18.7716 C   0  0  0  0  0  0  0  0  0  0  0  0
   27.0950  -16.7507  -17.4428 C   0  0  0  0  0  0  0  0  0  0  0  0
   25.9341  -17.1767  -16.8383 C   0  0  0  0  0  0  0  0  0  0  0  0
   24.7690  -17.2883  -17.5577 C   0  0  0  0  0  0  0  0  0  0  0  0
   23.5182  -17.7546  -16.8729 C   0  0  0  0  0  0  0  0  0  0  0  0
   23.6414  -19.2439  -16.6859 C   0  0  2  0  0  0  0  0  0  0  0  0
   23.5314  -19.9220  -17.9557 N   0  0  0  0  0  0  0  0  0  0  0  0
   22.7147  -19.7991  -15.6726 C   0  0  0  0  0  0  0  0  0  0  0  0
   21.5861  -20.2169  -16.0857 O   0  0  0  0  0  0  0  0  0  0  0  0
   24.7529  -16.9743  -18.8919 C   0  0  0  0  0  0  0  0  0  0  0  0
   25.9115  -16.5477  -19.5012 C   0  0  0  0  0  0  0  0  0  0  0  0
   23.0153  -19.8893  -14.2894 N   0  0  0  0  0  0  0  0  0  0  0  0
   22.0899  -20.3093  -13.2882 C   0  0  1  0  0  0  0  0  0  0  0  0
   22.8297  -20.6435  -12.0150 C   0  0  0  0  0  0  0  0  0  0  0  0
   21.9701  -21.0314  -10.9050 C   0  0  0  0  0  0  0  0  0  0  0  0
   21.2241  -22.1965  -10.8731 C   0  0  0  0  0  0  0  0  0  0  0  0
   20.4199  -22.5463   -9.8196 C   0  0  0  0  0  0  0  0  0  0  0  0
   20.3287  -21.7218   -8.7285 C   0  0  0  0  0  0  0  0  0  0  0  0
   21.0520  -20.5551   -8.7178 C   0  0  0  0  0  0  0  0  0  0  0  0
   21.8683  -20.2136   -9.8025 C   0  0  0  0  0  0  0  0  0  0  0  0
   20.9235  -19.4475  -13.0856 C   0  0  0  0  0  0  0  0  0  0  0  0
   20.9779  -18.2544  -12.6684 O   0  0  0  0  0  0  0  0  0  0  0  0
   17.2434  -20.4417  -19.1998 O   0  0  0  0  0  0  0  0  0  0  0  0
   17.4355  -19.8861  -17.9350 C   0  0  0  0  0  0  0  0  0  0  0  0
   16.5435  -20.0707  -16.9069 C   0  0  0  0  0  0  0  0  0  0  0  0
   16.7854  -19.4970  -15.6774 C   0  0  0  0  0  0  0  0  0  0  0  0
   17.9060  -18.7209  -15.4024 C   0  0  0  0  0  0  0  0  0  0  0  0
   18.1354  -18.1102  -14.0793 C   0  0  0  0  0  0  0  0  0  0  0  0
   18.4133  -19.1375  -12.9903 C   0  0  2  0  0  0  0  0  0  0  0  0
   19.6100  -19.9133  -13.3568 N   0  0  0  0  0  0  0  0  0  0  0  0
   17.2869  -20.0823  -12.9570 C   0  0  0  0  0  0  0  0  0  0  0  0
   17.3674  -21.4365  -13.2459 O   0  0  0  0  0  0  0  0  0  0  0  0
   18.7864  -18.5544  -16.4623 C   0  0  0  0  0  0  0  0  0  0  0  0
   18.5568  -19.1223  -17.6960 C   0  0  0  0  0  0  0  0  0  0  0  0
   16.1492  -19.6526  -12.6451 O   0  0  0  0  0  0  0  0  0  0  0  0
  2  1  1  0
  3  2  2  0
  4  3  1  0
  5 11  1  0
  5  4  2  0
  6  5  1  0
  7  6  1  0
  7  8  1  6
  9  7  1  0
 10  9  2  0
 11 12  2  0
 12  2  1  0
 13  9  1  0
 14 13  1  0
 14 15  1  1
 16 15  1  0
 16 17  2  0
 18 17  1  0
 19 18  2  0
 20 21  2  0
 20 19  1  0
 21 16  1  0
 22 14  1  0
 23 22  2  0
 25 24  1  0
 25 26  2  0
 27 26  1  0
 28 27  2  0
 29 28  1  0
 30 29  1  6
 30 31  1  0
 31 22  1  0
 32 30  1  0
 32 33  1  0
 34 35  2  0
 34 28  1  0
 35 25  1  0
 36 32  2  0
M  END
$$$$
