YFY.pdb
     RDKit          3D

 36 38  0  0  1  0  0  0  0  0999 V2000
   29.0063  -18.2860  -18.2518 O   0  0  0  0  0  0  0  0  0  0  0  0
   28.5115  -18.5794  -16.9990 C   0  0  0  0  0  0  0  0  0  0  0  0
   27.1786  -18.8449  -16.8744 C   0  0  0  0  0  0  0  0  0  0  0  0
   26.6746  -19.1390  -15.6278 C   0  0  0  0  0  0  0  0  0  0  0  0
   27.4966  -19.1654  -14.5274 C   0  0  0  0  0  0  0  0  0  0  0  0
   26.9202  -19.4897  -13.1807 C   0  0  0  0  0  0  0  0  0  0  0  0
   27.3675  -20.8842  -12.8288 C   0  0  2  0  0  0  0  0  0  0  0  0
   26.8030  -21.8419  -13.7499 N   0  0  0  0  0  0  0  0  0  0  0  0
   27.1210  -21.2537  -11.4159 C   0  0  0  0  0  0  0  0  0  0  0  0
   26.0544  -21.8998  -11.1628 O   0  0  0  0  0  0  0  0  0  0  0  0
   28.8341  -18.8973  -14.6626 C   0  0  0  0  0  0  0  0  0  0  0  0
   29.3432  -18.6026  -15.9074 C   0  0  0  0  0  0  0  0  0  0  0  0
   27.9977  -20.9318  -10.3485 N   0  0  0  0  0  0  0  0  0  0  0  0
   27.6067  -20.8534   -8.9787 C   0  0  1  0  0  0  0  0  0  0  0  0
   28.8172  -20.5909   -8.1150 C   0  0  0  0  0  0  0  0  0  0  0  0
   28.5090  -20.3004   -6.7214 C   0  0  0  0  0  0  0  0  0  0  0  0
   28.2526  -19.0313   -6.2328 C   0  0  0  0  0  0  0  0  0  0  0  0
   27.9639  -18.7757   -4.9175 C   0  0  0  0  0  0  0  0  0  0  0  0
   27.9194  -19.8075   -4.0163 C   0  0  0  0  0  0  0  0  0  0  0  0
   28.1675  -21.0834   -4.4579 C   0  0  0  0  0  0  0  0  0  0  0  0
   28.4608  -21.3262   -5.8049 C   0  0  0  0  0  0  0  0  0  0  0  0
   26.4681  -19.9820   -8.6817 C   0  0  0  0  0  0  0  0  0  0  0  0
   26.4416  -18.7368   -8.9038 O   0  0  0  0  0  0  0  0  0  0  0  0
   18.6898  -19.6695  -12.3224 O   0  0  0  0  0  0  0  0  0  0  0  0
   19.9565  -19.9222  -11.7963 C   0  0  0  0  0  0  0  0  0  0  0  0
   20.8779  -20.7101  -12.4422 C   0  0  0  0  0  0  0  0  0  0  0  0
   22.1150  -20.9251  -11.8743 C   0  0  0  0  0  0  0  0  0  0  0  0
   22.5020  -20.3807  -10.6546 C   0  0  0  0  0  0  0  0  0  0  0  0
   23.8300  -20.6352  -10.0647 C   0  0  0  0  0  0  0  0  0  0  0  0
   23.9435  -20.1529   -8.6249 C   0  0  2  0  0  0  0  0  0  0  0  0
   25.2775  -20.4993   -8.1067 N   0  0  0  0  0  0  0  0  0  0  0  0
   22.9661  -20.8970   -7.8166 C   0  0  0  0  0  0  0  0  0  0  0  0
   21.6688  -20.4863   -7.5482 O   0  0  0  0  0  0  0  0  0  0  0  0
   21.5483  -19.5900  -10.0290 C   0  0  0  0  0  0  0  0  0  0  0  0
   20.3082  -19.3669  -10.5856 C   0  0  0  0  0  0  0  0  0  0  0  0
   23.3099  -21.9965   -7.3172 O   0  0  0  0  0  0  0  0  0  0  0  0
  2  1  1  0
  3  2  2  0
  4  3  1  0
  5 11  1  0
  5  4  2  0
  6  5  1  0
  7  6  1  0
  7  8  1  6
  9  7  1  0
 10  9  2  0
 11 12  2  0
 12  2  1  0
 13  9  1  0
 14 13  1  0
 14 15  1  1
 16 15  1  0
 16 17  2  0
 18 17  1  0
 19 18  2  0
 20 21  2  0
 20 19  1  0
 21 16  1  0
 22 14  1  0
 23 22  2  0
 25 24  1  0
 25 26  2  0
 27 26  1  0
 28 27  2  0
 29 28  1  0
 30 29  1  6
 30 31  1  0
 31 22  1  0
 32 30  1  0
 32 33  1  0
 34 35  2  0
 34 28  1  0
 35 25  1  0
 36 32  2  0
M  END
$$$$
