YFY.pdb
     RDKit          3D

 36 38  0  0  1  0  0  0  0  0999 V2000
   16.8312  -17.5236  -18.6416 O   0  0  0  0  0  0  0  0  0  0  0  0
   17.4981  -16.3779  -18.2633 C   0  0  0  0  0  0  0  0  0  0  0  0
   18.7467  -16.5021  -17.7264 C   0  0  0  0  0  0  0  0  0  0  0  0
   19.4211  -15.3643  -17.3454 C   0  0  0  0  0  0  0  0  0  0  0  0
   18.8496  -14.1248  -17.5019 C   0  0  0  0  0  0  0  0  0  0  0  0
   19.6079  -12.9014  -17.0786 C   0  0  0  0  0  0  0  0  0  0  0  0
   20.1402  -12.2524  -18.3290 C   0  0  2  0  0  0  0  0  0  0  0  0
   21.1592  -13.0791  -18.9311 N   0  0  0  0  0  0  0  0  0  0  0  0
   20.5954  -10.8568  -18.1324 C   0  0  0  0  0  0  0  0  0  0  0  0
   21.7824  -10.6883  -17.7061 O   0  0  0  0  0  0  0  0  0  0  0  0
   17.5949  -14.0103  -18.0422 C   0  0  0  0  0  0  0  0  0  0  0  0
   16.9162  -15.1454  -18.4248 C   0  0  0  0  0  0  0  0  0  0  0  0
   19.7914   -9.7175  -18.3916 N   0  0  0  0  0  0  0  0  0  0  0  0
   20.2097   -8.3698  -18.1816 C   0  0  1  0  0  0  0  0  0  0  0  0
   19.7025   -7.4956  -19.3036 C   0  0  0  0  0  0  0  0  0  0  0  0
   20.0164   -6.0814  -19.1518 C   0  0  0  0  0  0  0  0  0  0  0  0
   21.2376   -5.5192  -19.4798 C   0  0  0  0  0  0  0  0  0  0  0  0
   21.5161   -4.1854  -19.3306 C   0  0  0  0  0  0  0  0  0  0  0  0
   20.5580   -3.3403  -18.8343 C   0  0  0  0  0  0  0  0  0  0  0  0
   19.3316   -3.8556  -18.4958 C   0  0  0  0  0  0  0  0  0  0  0  0
   19.0643   -5.2205  -18.6547 C   0  0  0  0  0  0  0  0  0  0  0  0
   19.9663   -7.8193  -16.8467 C   0  0  0  0  0  0  0  0  0  0  0  0
   18.8287   -7.7467  -16.2980 O   0  0  0  0  0  0  0  0  0  0  0  0
   26.0385   -3.8951  -17.0010 O   0  0  0  0  0  0  0  0  0  0  0  0
   25.0871   -4.5820  -16.2473 C   0  0  0  0  0  0  0  0  0  0  0  0
   24.2584   -3.9481  -15.3538 C   0  0  0  0  0  0  0  0  0  0  0  0
   23.3365   -4.6786  -14.6358 C   0  0  0  0  0  0  0  0  0  0  0  0
   23.1866   -6.0555  -14.7605 C   0  0  0  0  0  0  0  0  0  0  0  0
   22.1975   -6.8145  -13.9719 C   0  0  0  0  0  0  0  0  0  0  0  0
   20.8388   -6.9073  -14.6528 C   0  0  2  0  0  0  0  0  0  0  0  0
   21.0315   -7.3161  -16.0543 N   0  0  0  0  0  0  0  0  0  0  0  0
   20.2494   -5.5603  -14.6793 C   0  0  0  0  0  0  0  0  0  0  0  0
   19.9789   -4.8257  -15.8243 O   0  0  0  0  0  0  0  0  0  0  0  0
   24.0387   -6.6644  -15.6712 C   0  0  0  0  0  0  0  0  0  0  0  0
   24.9645   -5.9461  -16.3954 C   0  0  0  0  0  0  0  0  0  0  0  0
   19.9590   -5.0083  -13.5897 O   0  0  0  0  0  0  0  0  0  0  0  0
  2  1  1  0
  3  2  2  0
  4  3  1  0
  5 11  1  0
  5  4  2  0
  6  5  1  0
  7  6  1  0
  7  8  1  1
  9  7  1  0
 10  9  2  0
 11 12  2  0
 12  2  1  0
 13  9  1  0
 14 13  1  0
 14 15  1  6
 16 15  1  0
 16 17  2  0
 18 17  1  0
 19 18  2  0
 20 21  2  0
 20 19  1  0
 21 16  1  0
 22 14  1  0
 23 22  2  0
 25 24  1  0
 25 26  2  0
 27 26  1  0
 28 27  2  0
 29 28  1  0
 30 29  1  1
 30 31  1  0
 31 22  1  0
 32 30  1  0
 32 33  1  0
 34 35  2  0
 34 28  1  0
 35 25  1  0
 36 32  2  0
M  END
$$$$
