YFY.pdb
     RDKit          3D

 36 38  0  0  1  0  0  0  0  0999 V2000
   14.5161  -16.3043   12.9844 O   0  0  0  0  0  0  0  0  0  0  0  0
   15.0393  -16.4242   11.7146 C   0  0  0  0  0  0  0  0  0  0  0  0
   14.9731  -17.6403   11.0985 C   0  0  0  0  0  0  0  0  0  0  0  0
   15.4926  -17.7707    9.8306 C   0  0  0  0  0  0  0  0  0  0  0  0
   16.0679  -16.6974    9.1947 C   0  0  0  0  0  0  0  0  0  0  0  0
   16.6255  -16.8680    7.8124 C   0  0  0  0  0  0  0  0  0  0  0  0
   17.2459  -15.5539    7.4169 C   0  0  2  0  0  0  0  0  0  0  0  0
   17.0704  -15.3189    6.0033 N   0  0  0  0  0  0  0  0  0  0  0  0
   18.6585  -15.4075    7.8376 C   0  0  0  0  0  0  0  0  0  0  0  0
   19.5342  -16.0307    7.1566 O   0  0  0  0  0  0  0  0  0  0  0  0
   16.1297  -15.4799    9.8217 C   0  0  0  0  0  0  0  0  0  0  0  0
   15.6115  -15.3443   11.0900 C   0  0  0  0  0  0  0  0  0  0  0  0
   19.0790  -14.6209    8.9404 N   0  0  0  0  0  0  0  0  0  0  0  0
   20.4358  -14.4739    9.3560 C   0  0  1  0  0  0  0  0  0  0  0  0
   20.6919  -13.0450    9.7719 C   0  0  0  0  0  0  0  0  0  0  0  0
   20.8906  -12.1229    8.6621 C   0  0  0  0  0  0  0  0  0  0  0  0
   22.1318  -11.7107    8.2099 C   0  0  0  0  0  0  0  0  0  0  0  0
   22.3007  -10.8418    7.1632 C   0  0  0  0  0  0  0  0  0  0  0  0
   21.2051  -10.3387    6.5113 C   0  0  0  0  0  0  0  0  0  0  0  0
   19.9539  -10.7211    6.9269 C   0  0  0  0  0  0  0  0  0  0  0  0
   19.7999  -11.6094    7.9977 C   0  0  0  0  0  0  0  0  0  0  0  0
   20.9283  -15.4659   10.3139 C   0  0  0  0  0  0  0  0  0  0  0  0
   20.2253  -15.9944   11.2233 O   0  0  0  0  0  0  0  0  0  0  0  0
   19.3361  -20.9276    7.4691 O   0  0  0  0  0  0  0  0  0  0  0  0
   20.3067  -20.2505    8.2070 C   0  0  0  0  0  0  0  0  0  0  0  0
   20.3767  -20.3277    9.5767 C   0  0  0  0  0  0  0  0  0  0  0  0
   21.3581  -19.6364   10.2535 C   0  0  0  0  0  0  0  0  0  0  0  0
   22.3093  -18.8427    9.6216 C   0  0  0  0  0  0  0  0  0  0  0  0
   23.3435  -18.1053   10.3718 C   0  0  0  0  0  0  0  0  0  0  0  0
   22.7762  -16.9554   11.1930 C   0  0  2  0  0  0  0  0  0  0  0  0
   22.2746  -15.9152   10.2793 N   0  0  0  0  0  0  0  0  0  0  0  0
   23.8787  -16.3544   11.9583 C   0  0  0  0  0  0  0  0  0  0  0  0
   24.5989  -16.9887   12.9597 O   0  0  0  0  0  0  0  0  0  0  0  0
   22.2103  -18.7867    8.2384 C   0  0  0  0  0  0  0  0  0  0  0  0
   21.2345  -19.4728    7.5496 C   0  0  0  0  0  0  0  0  0  0  0  0
   24.2142  -15.1716   11.7037 O   0  0  0  0  0  0  0  0  0  0  0  0
  2  1  1  0
  3  2  2  0
  4  3  1  0
  5 11  1  0
  5  4  2  0
  6  5  1  0
  7  6  1  0
  7  8  1  6
  9  7  1  0
 10  9  2  0
 11 12  2  0
 12  2  1  0
 13  9  1  0
 14 13  1  0
 14 15  1  1
 16 15  1  0
 16 17  2  0
 18 17  1  0
 19 18  2  0
 20 21  2  0
 20 19  1  0
 21 16  1  0
 22 14  1  0
 23 22  2  0
 25 24  1  0
 25 26  2  0
 27 26  1  0
 28 27  2  0
 29 28  1  0
 30 29  1  6
 30 31  1  0
 31 22  1  0
 32 30  1  0
 32 33  1  0
 34 35  2  0
 34 28  1  0
 35 25  1  0
 36 32  2  0
M  END
$$$$
