YFY.pdb
     RDKit          3D

 36 38  0  0  1  0  0  0  0  0999 V2000
   18.7296  -12.3149  -22.9538 O   0  0  0  0  0  0  0  0  0  0  0  0
   18.7124  -11.1686  -22.1881 C   0  0  0  0  0  0  0  0  0  0  0  0
   18.6600   -9.9634  -22.8265 C   0  0  0  0  0  0  0  0  0  0  0  0
   18.6424   -8.8130  -22.0712 C   0  0  0  0  0  0  0  0  0  0  0  0
   18.6769   -8.8742  -20.6991 C   0  0  0  0  0  0  0  0  0  0  0  0
   18.6558   -7.6041  -19.9008 C   0  0  0  0  0  0  0  0  0  0  0  0
   20.0395   -7.0132  -19.9672 C   0  0  2  0  0  0  0  0  0  0  0  0
   20.9853   -7.8676  -19.2890 N   0  0  0  0  0  0  0  0  0  0  0  0
   20.1151   -5.6106  -19.4975 C   0  0  0  0  0  0  0  0  0  0  0  0
   19.8673   -5.3963  -18.2681 O   0  0  0  0  0  0  0  0  0  0  0  0
   18.7294  -10.0895  -20.0670 C   0  0  0  0  0  0  0  0  0  0  0  0
   18.7472  -11.2432  -20.8181 C   0  0  0  0  0  0  0  0  0  0  0  0
   20.4454   -4.5125  -20.3324 N   0  0  0  0  0  0  0  0  0  0  0  0
   20.4393   -3.1491  -19.9126 C   0  0  1  0  0  0  0  0  0  0  0  0
   21.2058   -2.3051  -20.9027 C   0  0  0  0  0  0  0  0  0  0  0  0
   21.2390   -0.8847  -20.5820 C   0  0  0  0  0  0  0  0  0  0  0  0
   22.1958   -0.2948  -19.7749 C   0  0  0  0  0  0  0  0  0  0  0  0
   22.2122    1.0445  -19.4833 C   0  0  0  0  0  0  0  0  0  0  0  0
   21.2462    1.8670  -20.0020 C   0  0  0  0  0  0  0  0  0  0  0  0
   20.2771    1.3237  -20.8082 C   0  0  0  0  0  0  0  0  0  0  0  0
   20.2756   -0.0463  -21.0955 C   0  0  0  0  0  0  0  0  0  0  0  0
   19.1354   -2.5928  -19.5458 C   0  0  0  0  0  0  0  0  0  0  0  0
   18.1062   -2.6349  -20.2803 O   0  0  0  0  0  0  0  0  0  0  0  0
   13.7172   -5.7931  -20.3258 O   0  0  0  0  0  0  0  0  0  0  0  0
   14.4529   -4.9069  -19.5393 C   0  0  0  0  0  0  0  0  0  0  0  0
   13.9744   -3.6706  -19.1796 C   0  0  0  0  0  0  0  0  0  0  0  0
   14.7463   -2.8362  -18.4003 C   0  0  0  0  0  0  0  0  0  0  0  0
   16.0148   -3.1744  -17.9417 C   0  0  0  0  0  0  0  0  0  0  0  0
   16.8240   -2.2576  -17.1165 C   0  0  0  0  0  0  0  0  0  0  0  0
   17.6642   -1.2960  -17.9458 C   0  0  2  0  0  0  0  0  0  0  0  0
   18.9364   -1.9497  -18.2958 N   0  0  0  0  0  0  0  0  0  0  0  0
   17.9981   -0.1387  -17.1022 C   0  0  0  0  0  0  0  0  0  0  0  0
   19.2623    0.1621  -16.6173 O   0  0  0  0  0  0  0  0  0  0  0  0
   16.4678   -4.4297  -18.3228 C   0  0  0  0  0  0  0  0  0  0  0  0
   15.7065   -5.2734  -19.1012 C   0  0  0  0  0  0  0  0  0  0  0  0
   17.0814    0.6566  -16.7804 O   0  0  0  0  0  0  0  0  0  0  0  0
  2  1  1  0
  3  2  2  0
  4  3  1  0
  5 11  1  0
  5  4  2  0
  6  5  1  0
  7  6  1  0
  7  8  1  1
  9  7  1  0
 10  9  2  0
 11 12  2  0
 12  2  1  0
 13  9  1  0
 14 13  1  0
 14 15  1  6
 16 15  1  0
 16 17  2  0
 18 17  1  0
 19 18  2  0
 20 21  2  0
 20 19  1  0
 21 16  1  0
 22 14  1  0
 23 22  2  0
 25 24  1  0
 25 26  2  0
 27 26  1  0
 28 27  2  0
 29 28  1  0
 30 29  1  1
 30 31  1  0
 31 22  1  0
 32 30  1  0
 32 33  1  0
 34 35  2  0
 34 28  1  0
 35 25  1  0
 36 32  2  0
M  END
$$$$
