YFY.pdb
     RDKit          3D

 36 38  0  0  1  0  0  0  0  0999 V2000
   28.9200  -16.9037  -21.5829 O   0  0  0  0  0  0  0  0  0  0  0  0
   28.3146  -17.7945  -20.7224 C   0  0  0  0  0  0  0  0  0  0  0  0
   28.4323  -19.1291  -20.9828 C   0  0  0  0  0  0  0  0  0  0  0  0
   27.8316  -20.0268  -20.1297 C   0  0  0  0  0  0  0  0  0  0  0  0
   27.1257  -19.5895  -19.0352 C   0  0  0  0  0  0  0  0  0  0  0  0
   26.4817  -20.5905  -18.1218 C   0  0  0  0  0  0  0  0  0  0  0  0
   27.3558  -20.7063  -16.9008 C   0  0  2  0  0  0  0  0  0  0  0  0
   28.5488  -21.4603  -17.2049 N   0  0  0  0  0  0  0  0  0  0  0  0
   26.6517  -21.2296  -15.7074 C   0  0  0  0  0  0  0  0  0  0  0  0
   26.5132  -22.4916  -15.6225 O   0  0  0  0  0  0  0  0  0  0  0  0
   27.0131  -18.2470  -18.7821 C   0  0  0  0  0  0  0  0  0  0  0  0
   27.6122  -17.3450  -19.6323 C   0  0  0  0  0  0  0  0  0  0  0  0
   26.1339  -20.4114  -14.6711 N   0  0  0  0  0  0  0  0  0  0  0  0
   25.4500  -20.9034  -13.5199 C   0  0  1  0  0  0  0  0  0  0  0  0
   25.9849  -20.2289  -12.2792 C   0  0  0  0  0  0  0  0  0  0  0  0
   27.3252  -20.6512  -11.8965 C   0  0  0  0  0  0  0  0  0  0  0  0
   28.4619  -20.3912  -12.6416 C   0  0  0  0  0  0  0  0  0  0  0  0
   29.7165  -20.7963  -12.2662 C   0  0  0  0  0  0  0  0  0  0  0  0
   29.8865  -21.4957  -11.0998 C   0  0  0  0  0  0  0  0  0  0  0  0
   28.7856  -21.7758  -10.3292 C   0  0  0  0  0  0  0  0  0  0  0  0
   27.5116  -21.3544  -10.7279 C   0  0  0  0  0  0  0  0  0  0  0  0
   23.9879  -20.9243  -13.5979 C   0  0  0  0  0  0  0  0  0  0  0  0
   23.2897  -20.0541  -14.1943 O   0  0  0  0  0  0  0  0  0  0  0  0
   15.5853  -23.6706  -12.2441 O   0  0  0  0  0  0  0  0  0  0  0  0
   16.9755  -23.5818  -12.3122 C   0  0  0  0  0  0  0  0  0  0  0  0
   17.6804  -23.9233  -13.4406 C   0  0  0  0  0  0  0  0  0  0  0  0
   19.0542  -23.8152  -13.4504 C   0  0  0  0  0  0  0  0  0  0  0  0
   19.7944  -23.3704  -12.3604 C   0  0  0  0  0  0  0  0  0  0  0  0
   21.2661  -23.2736  -12.3947 C   0  0  0  0  0  0  0  0  0  0  0  0
   21.7620  -21.9576  -12.9782 C   0  0  2  0  0  0  0  0  0  0  0  0
   23.2345  -21.9621  -12.9887 N   0  0  0  0  0  0  0  0  0  0  0  0
   21.3459  -20.8735  -12.0760 C   0  0  0  0  0  0  0  0  0  0  0  0
   22.0435  -20.4520  -10.9537 O   0  0  0  0  0  0  0  0  0  0  0  0
   19.0519  -23.0337  -11.2372 C   0  0  0  0  0  0  0  0  0  0  0  0
   17.6785  -23.1368  -11.2142 C   0  0  0  0  0  0  0  0  0  0  0  0
   20.2753  -20.2646  -12.3196 O   0  0  0  0  0  0  0  0  0  0  0  0
  2  1  1  0
  3  2  2  0
  4  3  1  0
  5 11  1  0
  5  4  2  0
  6  5  1  0
  7  6  1  0
  7  8  1  6
  9  7  1  0
 10  9  2  0
 11 12  2  0
 12  2  1  0
 13  9  1  0
 14 13  1  0
 14 15  1  1
 16 15  1  0
 16 17  2  0
 18 17  1  0
 19 18  2  0
 20 21  2  0
 20 19  1  0
 21 16  1  0
 22 14  1  0
 23 22  2  0
 25 24  1  0
 25 26  2  0
 27 26  1  0
 28 27  2  0
 29 28  1  0
 30 29  1  1
 30 31  1  0
 31 22  1  0
 32 30  1  0
 32 33  1  0
 34 35  2  0
 34 28  1  0
 35 25  1  0
 36 32  2  0
M  END
$$$$
