FAR.pdb
     RDKit          3D

 28 28  0  0  1  0  0  0  0  0999 V2000
   27.8811  -21.5208  -15.6657 N   0  0  0  0  0  0  0  0  0  0  0  0
   27.4935  -20.4516  -14.7742 C   0  0  1  0  0  0  0  0  0  0  0  0
   26.7298  -19.4271  -15.5933 C   0  0  0  0  0  0  0  0  0  0  0  0
   27.6355  -18.6849  -16.5077 C   0  0  0  0  0  0  0  0  0  0  0  0
   28.6812  -17.9297  -16.0178 C   0  0  0  0  0  0  0  0  0  0  0  0
   29.5153  -17.2432  -16.8927 C   0  0  0  0  0  0  0  0  0  0  0  0
   29.3388  -17.2854  -18.2590 C   0  0  0  0  0  0  0  0  0  0  0  0
   28.2948  -18.0393  -18.7474 C   0  0  0  0  0  0  0  0  0  0  0  0
   27.4548  -18.7303  -17.8737 C   0  0  0  0  0  0  0  0  0  0  0  0
   26.5539  -21.0136  -13.7721 C   0  0  0  0  0  0  0  0  0  0  0  0
   25.8634  -22.0436  -14.0712 O   0  0  0  0  0  0  0  0  0  0  0  0
   25.4570  -20.4536  -10.1936 C   0  0  0  0  0  0  0  0  0  0  0  0
   25.3478  -20.9972  -11.5900 C   0  0  2  0  0  0  0  0  0  0  0  0
   26.3560  -20.4861  -12.4773 N   0  0  0  0  0  0  0  0  0  0  0  0
   23.9703  -20.7824  -12.1277 C   0  0  0  0  0  0  0  0  0  0  0  0
   23.7506  -19.7469  -12.7683 O   0  0  0  0  0  0  0  0  0  0  0  0
   17.0839  -26.1947  -12.9766 N   0  0  0  0  0  0  0  0  0  0  0  0
   18.0003  -25.7246  -13.9573 C   0  0  0  0  0  0  0  0  0  0  0  0
   18.1794  -26.4640  -15.0048 N   0  0  0  0  0  0  0  0  0  0  0  0
   18.6793  -24.4936  -13.7765 N   0  0  0  0  0  0  0  0  0  0  0  0
   18.4232  -23.6942  -12.6122 C   0  0  0  0  0  0  0  0  0  0  0  0
   19.2468  -22.4261  -12.5832 C   0  0  0  0  0  0  0  0  0  0  0  0
   20.6914  -22.7057  -12.2455 C   0  0  0  0  0  0  0  0  0  0  0  0
   21.5391  -21.4638  -12.2374 C   0  0  2  0  0  0  0  0  0  0  0  0
   22.9157  -21.7036  -11.9377 N   0  0  0  0  0  0  0  0  0  0  0  0
   20.9509  -20.3817  -11.4140 C   0  0  0  0  0  0  0  0  0  0  0  0
   20.0366  -19.4516  -11.8741 O   0  0  0  0  0  0  0  0  0  0  0  0
   21.2961  -20.2885  -10.2113 O   0  0  0  0  0  0  0  0  0  0  0  0
  2  3  1  0
  2  1  1  6
  4  9  2  0
  4  3  1  0
  5  4  1  0
  6  7  1  0
  6  5  2  0
  7  8  2  0
  8  9  1  0
 10 11  2  0
 10  2  1  0
 13 12  1  1
 13 14  1  0
 14 10  1  0
 15 13  1  0
 16 15  2  0
 17 18  1  0
 18 19  2  0
 20 21  1  0
 20 18  1  0
 21 22  1  0
 22 23  1  0
 24 23  1  1
 24 25  1  0
 25 15  1  0
 26 24  1  0
 27 26  1  0
 28 26  2  0
M  END
$$$$
