FAR.pdb
     RDKit          3D

 28 28  0  0  1  0  0  0  0  0999 V2000
   28.4211  -19.4068  -14.6250 N   0  0  0  0  0  0  0  0  0  0  0  0
   28.5168  -20.8448  -14.7312 C   0  0  1  0  0  0  0  0  0  0  0  0
   28.0043  -21.4348  -13.4300 C   0  0  0  0  0  0  0  0  0  0  0  0
   28.9924  -21.2618  -12.3340 C   0  0  0  0  0  0  0  0  0  0  0  0
   28.9571  -20.1557  -11.5099 C   0  0  0  0  0  0  0  0  0  0  0  0
   29.8925  -20.0150  -10.4912 C   0  0  0  0  0  0  0  0  0  0  0  0
   30.8757  -20.9538  -10.2640 C   0  0  0  0  0  0  0  0  0  0  0  0
   30.9105  -22.0577  -11.0868 C   0  0  0  0  0  0  0  0  0  0  0  0
   29.9739  -22.2038  -12.1107 C   0  0  0  0  0  0  0  0  0  0  0  0
   27.5994  -21.2826  -15.8127 C   0  0  0  0  0  0  0  0  0  0  0  0
   26.5416  -20.6091  -16.0461 O   0  0  0  0  0  0  0  0  0  0  0  0
   27.2405  -24.1040  -18.3177 C   0  0  0  0  0  0  0  0  0  0  0  0
   26.7830  -22.9356  -17.4913 C   0  0  2  0  0  0  0  0  0  0  0  0
   27.8078  -22.4165  -16.6281 N   0  0  0  0  0  0  0  0  0  0  0  0
   25.5414  -23.2842  -16.7365 C   0  0  0  0  0  0  0  0  0  0  0  0
   25.6543  -23.6050  -15.5468 O   0  0  0  0  0  0  0  0  0  0  0  0
   18.9707  -20.0195  -14.2522 N   0  0  0  0  0  0  0  0  0  0  0  0
   18.8590  -21.0801  -13.3113 C   0  0  0  0  0  0  0  0  0  0  0  0
   17.7139  -21.2379  -12.7283 N   0  0  0  0  0  0  0  0  0  0  0  0
   19.9681  -21.9192  -13.0375 N   0  0  0  0  0  0  0  0  0  0  0  0
   21.2133  -21.7126  -13.7208 C   0  0  0  0  0  0  0  0  0  0  0  0
   21.4723  -22.7529  -14.7876 C   0  0  0  0  0  0  0  0  0  0  0  0
   22.7854  -22.5143  -15.4934 C   0  0  0  0  0  0  0  0  0  0  0  0
   23.0242  -23.4788  -16.6220 C   0  0  2  0  0  0  0  0  0  0  0  0
   24.2536  -23.2635  -17.3181 N   0  0  0  0  0  0  0  0  0  0  0  0
   21.8594  -23.5866  -17.5311 C   0  0  0  0  0  0  0  0  0  0  0  0
   20.9330  -24.6132  -17.5043 O   0  0  0  0  0  0  0  0  0  0  0  0
   21.6864  -22.6909  -18.3926 O   0  0  0  0  0  0  0  0  0  0  0  0
  2  3  1  0
  2  1  1  1
  4  9  2  0
  4  3  1  0
  5  4  1  0
  6  7  1  0
  6  5  2  0
  7  8  2  0
  8  9  1  0
 10 11  2  0
 10  2  1  0
 13 12  1  1
 13 14  1  0
 14 10  1  0
 15 13  1  0
 16 15  2  0
 17 18  1  0
 18 19  2  0
 20 21  1  0
 20 18  1  0
 21 22  1  0
 22 23  1  0
 24 23  1  1
 24 25  1  0
 25 15  1  0
 26 24  1  0
 27 26  1  0
 28 26  2  0
M  END
$$$$
