FAR.pdb
     RDKit          3D

 28 28  0  0  1  0  0  0  0  0999 V2000
   23.4082  -20.3665  -14.3688 N   0  0  0  0  0  0  0  0  0  0  0  0
   21.9671  -20.4603  -14.4207 C   0  0  1  0  0  0  0  0  0  0  0  0
   21.6183  -21.7623  -15.1184 C   0  0  0  0  0  0  0  0  0  0  0  0
   21.8819  -21.6787  -16.5782 C   0  0  0  0  0  0  0  0  0  0  0  0
   21.0598  -20.9473  -17.4107 C   0  0  0  0  0  0  0  0  0  0  0  0
   21.3260  -20.8841  -18.7737 C   0  0  0  0  0  0  0  0  0  0  0  0
   22.3998  -21.5351  -19.3418 C   0  0  0  0  0  0  0  0  0  0  0  0
   23.2201  -22.2650  -18.5104 C   0  0  0  0  0  0  0  0  0  0  0  0
   22.9574  -22.3317  -17.1418 C   0  0  0  0  0  0  0  0  0  0  0  0
   21.4672  -20.5522  -13.0262 C   0  0  0  0  0  0  0  0  0  0  0  0
   22.1904  -21.1147  -12.1386 O   0  0  0  0  0  0  0  0  0  0  0  0
   18.8330  -19.0246  -10.8454 C   0  0  0  0  0  0  0  0  0  0  0  0
   19.8227  -20.0950  -11.2088 C   0  0  2  0  0  0  0  0  0  0  0  0
   20.2206  -20.0537  -12.5890 N   0  0  0  0  0  0  0  0  0  0  0  0
   19.3037  -21.4405  -10.8177 C   0  0  0  0  0  0  0  0  0  0  0  0
   18.7203  -22.1118  -11.6780 O   0  0  0  0  0  0  0  0  0  0  0  0
   15.7296  -24.9069   -5.6504 N   0  0  0  0  0  0  0  0  0  0  0  0
   16.4492  -26.0601   -5.2321 C   0  0  0  0  0  0  0  0  0  0  0  0
   15.7636  -27.1303   -4.9858 N   0  0  0  0  0  0  0  0  0  0  0  0
   17.8596  -26.0187   -5.0970 N   0  0  0  0  0  0  0  0  0  0  0  0
   18.5995  -24.9007   -5.6094 C   0  0  0  0  0  0  0  0  0  0  0  0
   18.2861  -24.6098   -7.0601 C   0  0  0  0  0  0  0  0  0  0  0  0
   19.1258  -23.4757   -7.5965 C   0  0  0  0  0  0  0  0  0  0  0  0
   18.8609  -23.1907   -9.0490 C   0  0  2  0  0  0  0  0  0  0  0  0
   19.4492  -21.9755   -9.5179 N   0  0  0  0  0  0  0  0  0  0  0  0
   17.4254  -23.3066   -9.3964 C   0  0  0  0  0  0  0  0  0  0  0  0
   16.8306  -24.4429   -9.9138 O   0  0  0  0  0  0  0  0  0  0  0  0
   16.6823  -22.3121   -9.2143 O   0  0  0  0  0  0  0  0  0  0  0  0
  2  3  1  0
  2  1  1  1
  4  9  2  0
  4  3  1  0
  5  4  1  0
  6  7  1  0
  6  5  2  0
  7  8  2  0
  8  9  1  0
 10 11  2  0
 10  2  1  0
 13 12  1  6
 13 14  1  0
 14 10  1  0
 15 13  1  0
 16 15  2  0
 17 18  1  0
 18 19  2  0
 20 21  1  0
 20 18  1  0
 21 22  1  0
 22 23  1  0
 24 23  1  1
 24 25  1  0
 25 15  1  0
 26 24  1  0
 27 26  1  0
 28 26  2  0
M  END
$$$$
