FAR.pdb
     RDKit          3D

 28 28  0  0  1  0  0  0  0  0999 V2000
   17.0011  -12.9278    3.9123 N   0  0  0  0  0  0  0  0  0  0  0  0
   18.0633  -13.4392    4.7481 C   0  0  1  0  0  0  0  0  0  0  0  0
   18.0149  -12.6831    6.0633 C   0  0  0  0  0  0  0  0  0  0  0  0
   19.3812  -12.3663    6.5533 C   0  0  0  0  0  0  0  0  0  0  0  0
   20.1750  -11.4423    5.9052 C   0  0  0  0  0  0  0  0  0  0  0  0
   21.4506  -11.1626    6.3817 C   0  0  0  0  0  0  0  0  0  0  0  0
   21.9681  -11.7825    7.4986 C   0  0  0  0  0  0  0  0  0  0  0  0
   21.1755  -12.7048    8.1451 C   0  0  0  0  0  0  0  0  0  0  0  0
   19.8945  -12.9891    7.6710 C   0  0  0  0  0  0  0  0  0  0  0  0
   17.7661  -14.8638    5.0400 C   0  0  0  0  0  0  0  0  0  0  0  0
   16.5531  -15.2580    5.0600 O   0  0  0  0  0  0  0  0  0  0  0  0
   19.5846  -18.1358    5.5866 C   0  0  0  0  0  0  0  0  0  0  0  0
   18.3985  -17.2136    5.5832 C   0  0  2  0  0  0  0  0  0  0  0  0
   18.7444  -15.8469    5.3049 N   0  0  0  0  0  0  0  0  0  0  0  0
   17.6302  -17.3462    6.8579 C   0  0  0  0  0  0  0  0  0  0  0  0
   17.8700  -16.5431    7.7682 O   0  0  0  0  0  0  0  0  0  0  0  0
    9.9407  -15.7669    6.9992 N   0  0  0  0  0  0  0  0  0  0  0  0
   10.3704  -16.6227    5.9478 C   0  0  0  0  0  0  0  0  0  0  0  0
    9.5919  -16.7364    4.9197 N   0  0  0  0  0  0  0  0  0  0  0  0
   11.6046  -17.3137    6.0409 N   0  0  0  0  0  0  0  0  0  0  0  0
   12.4550  -17.1182    7.1805 C   0  0  0  0  0  0  0  0  0  0  0  0
   13.7045  -17.9686    7.1280 C   0  0  0  0  0  0  0  0  0  0  0  0
   14.6210  -17.6874    8.2942 C   0  0  0  0  0  0  0  0  0  0  0  0
   15.8787  -18.5109    8.2590 C   0  0  2  0  0  0  0  0  0  0  0  0
   16.6492  -18.3415    7.0673 N   0  0  0  0  0  0  0  0  0  0  0  0
   15.6332  -19.9343    8.5882 C   0  0  0  0  0  0  0  0  0  0  0  0
   16.0315  -21.0027    7.8054 O   0  0  0  0  0  0  0  0  0  0  0  0
   15.0218  -20.2075    9.6493 O   0  0  0  0  0  0  0  0  0  0  0  0
  2  3  1  0
  2  1  1  6
  4  9  2  0
  4  3  1  0
  5  4  1  0
  6  7  1  0
  6  5  2  0
  7  8  2  0
  8  9  1  0
 10 11  2  0
 10  2  1  0
 13 12  1  1
 13 14  1  0
 14 10  1  0
 15 13  1  0
 16 15  2  0
 17 18  1  0
 18 19  2  0
 20 21  1  0
 20 18  1  0
 21 22  1  0
 22 23  1  0
 24 23  1  6
 24 25  1  0
 25 15  1  0
 26 24  1  0
 27 26  1  0
 28 26  2  0
M  END
$$$$
