FAR.pdb
     RDKit          3D

 28 28  0  0  1  0  0  0  0  0999 V2000
   29.0733  -21.2503   -9.1842 N   0  0  0  0  0  0  0  0  0  0  0  0
   27.6723  -20.9593   -8.9821 C   0  0  1  0  0  0  0  0  0  0  0  0
   27.5758  -19.5685   -8.3820 C   0  0  0  0  0  0  0  0  0  0  0  0
   28.0732  -19.5500   -6.9822 C   0  0  0  0  0  0  0  0  0  0  0  0
   27.5225  -20.3699   -6.0187 C   0  0  0  0  0  0  0  0  0  0  0  0
   28.0040  -20.3348   -4.7151 C   0  0  0  0  0  0  0  0  0  0  0  0
   29.0308  -19.4976   -4.3351 C   0  0  0  0  0  0  0  0  0  0  0  0
   29.5801  -18.6794   -5.2972 C   0  0  0  0  0  0  0  0  0  0  0  0
   29.1006  -18.7107   -6.6071 C   0  0  0  0  0  0  0  0  0  0  0  0
   27.0200  -20.9178  -10.3146 C   0  0  0  0  0  0  0  0  0  0  0  0
   27.6187  -20.3483  -11.2864 O   0  0  0  0  0  0  0  0  0  0  0  0
   24.9777  -22.8212  -12.5016 C   0  0  0  0  0  0  0  0  0  0  0  0
   25.1933  -21.4503  -11.9259 C   0  0  2  0  0  0  0  0  0  0  0  0
   25.7542  -21.4732  -10.6031 N   0  0  0  0  0  0  0  0  0  0  0  0
   23.9291  -20.6556  -11.9823 C   0  0  0  0  0  0  0  0  0  0  0  0
   23.3083  -20.4742  -10.9275 O   0  0  0  0  0  0  0  0  0  0  0  0
   20.0132  -15.6266  -18.3453 N   0  0  0  0  0  0  0  0  0  0  0  0
   19.0621  -15.7155  -17.2917 C   0  0  0  0  0  0  0  0  0  0  0  0
   17.9818  -15.0114  -17.4067 N   0  0  0  0  0  0  0  0  0  0  0  0
   19.3058  -16.5473  -16.1702 N   0  0  0  0  0  0  0  0  0  0  0  0
   20.5634  -17.2261  -16.0370 C   0  0  0  0  0  0  0  0  0  0  0  0
   20.6973  -17.9514  -14.7166 C   0  0  0  0  0  0  0  0  0  0  0  0
   22.0090  -18.6920  -14.6166 C   0  0  0  0  0  0  0  0  0  0  0  0
   22.1699  -19.4189  -13.3101 C   0  0  2  0  0  0  0  0  0  0  0  0
   23.4158  -20.1066  -13.1790 N   0  0  0  0  0  0  0  0  0  0  0  0
   21.0037  -20.2748  -12.9906 C   0  0  0  0  0  0  0  0  0  0  0  0
   19.9198  -19.8756  -12.2300 O   0  0  0  0  0  0  0  0  0  0  0  0
   20.9819  -21.4484  -13.4342 O   0  0  0  0  0  0  0  0  0  0  0  0
  2  3  1  0
  2  1  1  6
  4  9  2  0
  4  3  1  0
  5  4  1  0
  6  7  1  0
  6  5  2  0
  7  8  2  0
  8  9  1  0
 10 11  2  0
 10  2  1  0
 13 12  1  1
 13 14  1  0
 14 10  1  0
 15 13  1  0
 16 15  2  0
 17 18  1  0
 18 19  2  0
 20 21  1  0
 20 18  1  0
 21 22  1  0
 22 23  1  0
 24 23  1  6
 24 25  1  0
 25 15  1  0
 26 24  1  0
 27 26  1  0
 28 26  2  0
M  END
$$$$
