FAR.pdb
     RDKit          3D

 28 28  0  0  1  0  0  0  0  0999 V2000
   26.7292  -19.9274  -10.7228 N   0  0  0  0  0  0  0  0  0  0  0  0
   25.7261  -20.8647  -10.2715 C   0  0  1  0  0  0  0  0  0  0  0  0
   25.5332  -20.6463   -8.7819 C   0  0  0  0  0  0  0  0  0  0  0  0
   26.8257  -20.3605   -8.1075 C   0  0  0  0  0  0  0  0  0  0  0  0
   27.8833  -21.2430   -8.1890 C   0  0  0  0  0  0  0  0  0  0  0  0
   29.0831  -20.9545   -7.5490 C   0  0  0  0  0  0  0  0  0  0  0  0
   29.2659  -19.7990   -6.8203 C   0  0  0  0  0  0  0  0  0  0  0  0
   28.2101  -18.9185   -6.7391 C   0  0  0  0  0  0  0  0  0  0  0  0
   27.0037  -19.2032   -7.3796 C   0  0  0  0  0  0  0  0  0  0  0  0
   24.4480  -20.5209  -10.9432 C   0  0  0  0  0  0  0  0  0  0  0  0
   23.9585  -19.3523  -10.7953 O   0  0  0  0  0  0  0  0  0  0  0  0
   22.6150  -20.4770  -13.7470 C   0  0  0  0  0  0  0  0  0  0  0  0
   22.4594  -21.0295  -12.3586 C   0  0  2  0  0  0  0  0  0  0  0  0
   23.7081  -21.4073  -11.7561 N   0  0  0  0  0  0  0  0  0  0  0  0
   21.4738  -22.1527  -12.3509 C   0  0  0  0  0  0  0  0  0  0  0  0
   21.8847  -23.2893  -12.6156 O   0  0  0  0  0  0  0  0  0  0  0  0
   19.8216  -23.6888   -7.8388 N   0  0  0  0  0  0  0  0  0  0  0  0
   18.7929  -24.6590   -7.6867 C   0  0  0  0  0  0  0  0  0  0  0  0
   18.3871  -24.9099   -6.4832 N   0  0  0  0  0  0  0  0  0  0  0  0
   18.2471  -25.3131   -8.8196 N   0  0  0  0  0  0  0  0  0  0  0  0
   18.3229  -24.6960  -10.1133 C   0  0  0  0  0  0  0  0  0  0  0  0
   17.8408  -23.2625  -10.1044 C   0  0  0  0  0  0  0  0  0  0  0  0
   17.8139  -22.6736  -11.4943 C   0  0  0  0  0  0  0  0  0  0  0  0
   19.0752  -22.9446  -12.2667 C   0  0  2  0  0  0  0  0  0  0  0  0
   20.1032  -21.9742  -12.0567 N   0  0  0  0  0  0  0  0  0  0  0  0
   18.8157  -23.2067  -13.7015 C   0  0  0  0  0  0  0  0  0  0  0  0
   18.5849  -22.2278  -14.6508 O   0  0  0  0  0  0  0  0  0  0  0  0
   18.8008  -24.3963  -14.1005 O   0  0  0  0  0  0  0  0  0  0  0  0
  2  3  1  0
  2  1  1  6
  4  9  2  0
  4  3  1  0
  5  4  1  0
  6  7  1  0
  6  5  2  0
  7  8  2  0
  8  9  1  0
 10 11  2  0
 10  2  1  0
 13 12  1  6
 13 14  1  0
 14 10  1  0
 15 13  1  0
 16 15  2  0
 17 18  1  0
 18 19  2  0
 20 21  1  0
 20 18  1  0
 21 22  1  0
 22 23  1  0
 24 23  1  6
 24 25  1  0
 25 15  1  0
 26 24  1  0
 27 26  1  0
 28 26  2  0
M  END
$$$$
