FAR.pdb
     RDKit          3D

 28 28  0  0  1  0  0  0  0  0999 V2000
   27.4287  -19.7956  -10.7877 N   0  0  0  0  0  0  0  0  0  0  0  0
   26.5069  -20.8747  -10.5154 C   0  0  1  0  0  0  0  0  0  0  0  0
   25.9893  -20.6884   -9.1008 C   0  0  0  0  0  0  0  0  0  0  0  0
   27.0989  -20.4056   -8.1541 C   0  0  0  0  0  0  0  0  0  0  0  0
   28.1835  -21.2524   -8.0530 C   0  0  0  0  0  0  0  0  0  0  0  0
   29.2097  -20.9675   -7.1595 C   0  0  0  0  0  0  0  0  0  0  0  0
   29.1898  -19.8507   -6.3522 C   0  0  0  0  0  0  0  0  0  0  0  0
   28.1069  -19.0057   -6.4534 C   0  0  0  0  0  0  0  0  0  0  0  0
   27.0743  -19.2869   -7.3487 C   0  0  0  0  0  0  0  0  0  0  0  0
   25.3524  -20.7294  -11.4369 C   0  0  0  0  0  0  0  0  0  0  0  0
   24.5589  -19.7409  -11.2940 O   0  0  0  0  0  0  0  0  0  0  0  0
   24.2033  -21.6536  -14.7921 C   0  0  0  0  0  0  0  0  0  0  0  0
   23.9030  -21.4469  -13.3346 C   0  0  2  0  0  0  0  0  0  0  0  0
   25.0518  -21.6217  -12.4892 N   0  0  0  0  0  0  0  0  0  0  0  0
   22.7605  -22.3109  -12.9091 C   0  0  0  0  0  0  0  0  0  0  0  0
   23.0189  -23.3791  -12.3408 O   0  0  0  0  0  0  0  0  0  0  0  0
   18.8654  -24.4200   -7.0316 N   0  0  0  0  0  0  0  0  0  0  0  0
   18.1939  -24.2522   -8.2740 C   0  0  0  0  0  0  0  0  0  0  0  0
   17.5744  -25.2811   -8.7573 N   0  0  0  0  0  0  0  0  0  0  0  0
   18.2139  -23.0010   -8.9398 N   0  0  0  0  0  0  0  0  0  0  0  0
   17.5132  -22.8349  -10.1815 C   0  0  0  0  0  0  0  0  0  0  0  0
   18.3199  -23.3009  -11.3729 C   0  0  0  0  0  0  0  0  0  0  0  0
   19.4916  -22.3888  -11.6453 C   0  0  0  0  0  0  0  0  0  0  0  0
   20.2816  -22.8007  -12.8567 C   0  0  2  0  0  0  0  0  0  0  0  0
   21.4080  -21.9634  -13.1263 N   0  0  0  0  0  0  0  0  0  0  0  0
   19.4248  -23.0134  -14.0464 C   0  0  0  0  0  0  0  0  0  0  0  0
   18.8516  -24.2222  -14.3969 O   0  0  0  0  0  0  0  0  0  0  0  0
   19.1927  -22.0375  -14.8002 O   0  0  0  0  0  0  0  0  0  0  0  0
  2  3  1  0
  2  1  1  6
  4  9  2  0
  4  3  1  0
  5  4  1  0
  6  7  1  0
  6  5  2  0
  7  8  2  0
  8  9  1  0
 10 11  2  0
 10  2  1  0
 13 12  1  6
 13 14  1  0
 14 10  1  0
 15 13  1  0
 16 15  2  0
 17 18  1  0
 18 19  2  0
 20 21  1  0
 20 18  1  0
 21 22  1  0
 22 23  1  0
 24 23  1  1
 24 25  1  0
 25 15  1  0
 26 24  1  0
 27 26  1  0
 28 26  2  0
M  END
$$$$
