FAR.pdb
     RDKit          3D

 28 28  0  0  1  0  0  0  0  0999 V2000
   27.0059  -22.5075  -11.9352 N   0  0  0  0  0  0  0  0  0  0  0  0
   26.5501  -21.5703  -10.9340 C   0  0  1  0  0  0  0  0  0  0  0  0
   27.4446  -20.3465  -11.0120 C   0  0  0  0  0  0  0  0  0  0  0  0
   28.7785  -20.6154  -10.4156 C   0  0  0  0  0  0  0  0  0  0  0  0
   28.9734  -20.5621   -9.0507 C   0  0  0  0  0  0  0  0  0  0  0  0
   30.2308  -20.8168   -8.5154 C   0  0  0  0  0  0  0  0  0  0  0  0
   31.3154  -21.1272   -9.3071 C   0  0  0  0  0  0  0  0  0  0  0  0
   31.1204  -21.1803  -10.6695 C   0  0  0  0  0  0  0  0  0  0  0  0
   29.8604  -20.9255  -11.2119 C   0  0  0  0  0  0  0  0  0  0  0  0
   25.1766  -21.1446  -11.3018 C   0  0  0  0  0  0  0  0  0  0  0  0
   24.8030  -21.2219  -12.5190 O   0  0  0  0  0  0  0  0  0  0  0  0
   21.9764  -20.4635   -9.4148 C   0  0  0  0  0  0  0  0  0  0  0  0
   22.8092  -20.7347  -10.6355 C   0  0  2  0  0  0  0  0  0  0  0  0
   24.2221  -20.6466  -10.3882 N   0  0  0  0  0  0  0  0  0  0  0  0
   22.3843  -19.8526  -11.7642 C   0  0  0  0  0  0  0  0  0  0  0  0
   22.3367  -18.6326  -11.5633 O   0  0  0  0  0  0  0  0  0  0  0  0
   24.2617  -21.0396  -18.0377 N   0  0  0  0  0  0  0  0  0  0  0  0
   25.0073  -21.9355  -17.2228 C   0  0  0  0  0  0  0  0  0  0  0  0
   26.2139  -22.2154  -17.5992 N   0  0  0  0  0  0  0  0  0  0  0  0
   24.4344  -22.4883  -16.0501 N   0  0  0  0  0  0  0  0  0  0  0  0
   23.1061  -22.1163  -15.6534 C   0  0  0  0  0  0  0  0  0  0  0  0
   22.8231  -20.6465  -15.8701 C   0  0  0  0  0  0  0  0  0  0  0  0
   21.4300  -20.2741  -15.4232 C   0  0  0  0  0  0  0  0  0  0  0  0
   21.4103  -19.5945  -14.0820 C   0  0  2  0  0  0  0  0  0  0  0  0
   22.0368  -20.3475  -13.0414 N   0  0  0  0  0  0  0  0  0  0  0  0
   20.0593  -19.1131  -13.7106 C   0  0  0  0  0  0  0  0  0  0  0  0
   19.6612  -17.7889  -13.7375 O   0  0  0  0  0  0  0  0  0  0  0  0
   19.2033  -19.9538  -13.3432 O   0  0  0  0  0  0  0  0  0  0  0  0
  2  3  1  0
  2  1  1  6
  4  9  2  0
  4  3  1  0
  5  4  1  0
  6  7  1  0
  6  5  2  0
  7  8  2  0
  8  9  1  0
 10 11  2  0
 10  2  1  0
 13 12  1  1
 13 14  1  0
 14 10  1  0
 15 13  1  0
 16 15  2  0
 17 18  1  0
 18 19  2  0
 20 21  1  0
 20 18  1  0
 21 22  1  0
 22 23  1  0
 24 23  1  6
 24 25  1  0
 25 15  1  0
 26 24  1  0
 27 26  1  0
 28 26  2  0
M  END
$$$$
