FAR.pdb
     RDKit          3D

 28 28  0  0  1  0  0  0  0  0999 V2000
   28.4573  -19.1917  -13.1707 N   0  0  0  0  0  0  0  0  0  0  0  0
   27.5976  -20.3505  -13.0913 C   0  0  1  0  0  0  0  0  0  0  0  0
   27.6575  -20.8679  -11.6657 C   0  0  0  0  0  0  0  0  0  0  0  0
   29.0346  -21.2926  -11.3042 C   0  0  0  0  0  0  0  0  0  0  0  0
   29.6129  -20.8999  -10.1146 C   0  0  0  0  0  0  0  0  0  0  0  0
   30.9032  -21.3092   -9.7980 C   0  0  0  0  0  0  0  0  0  0  0  0
   31.6462  -22.1082  -10.6401 C   0  0  0  0  0  0  0  0  0  0  0  0
   31.0685  -22.4999  -11.8274 C   0  0  0  0  0  0  0  0  0  0  0  0
   29.7738  -22.0920  -12.1500 C   0  0  0  0  0  0  0  0  0  0  0  0
   26.2059  -19.9020  -13.3463 C   0  0  0  0  0  0  0  0  0  0  0  0
   25.8161  -18.7791  -12.8833 O   0  0  0  0  0  0  0  0  0  0  0  0
   23.6516  -19.9920  -15.8273 C   0  0  0  0  0  0  0  0  0  0  0  0
   23.9379  -20.1227  -14.3582 C   0  0  2  0  0  0  0  0  0  0  0  0
   25.2503  -20.6379  -14.0805 N   0  0  0  0  0  0  0  0  0  0  0  0
   22.8702  -20.9247  -13.6875 C   0  0  0  0  0  0  0  0  0  0  0  0
   23.0117  -22.1527  -13.6341 O   0  0  0  0  0  0  0  0  0  0  0  0
   18.3977  -24.7698   -8.9978 N   0  0  0  0  0  0  0  0  0  0  0  0
   18.8535  -23.7825   -8.0812 C   0  0  0  0  0  0  0  0  0  0  0  0
   18.4764  -23.8985   -6.8482 N   0  0  0  0  0  0  0  0  0  0  0  0
   19.6865  -22.7228   -8.5199 N   0  0  0  0  0  0  0  0  0  0  0  0
   20.3581  -22.8115   -9.7853 C   0  0  0  0  0  0  0  0  0  0  0  0
   21.0772  -21.5332  -10.1544 C   0  0  0  0  0  0  0  0  0  0  0  0
   20.2879  -20.7150  -11.1477 C   0  0  0  0  0  0  0  0  0  0  0  0
   20.6054  -21.0661  -12.5750 C   0  0  2  0  0  0  0  0  0  0  0  0
   21.7147  -20.3457  -13.1160 N   0  0  0  0  0  0  0  0  0  0  0  0
   19.4096  -21.0226  -13.4485 C   0  0  0  0  0  0  0  0  0  0  0  0
   18.5307  -22.0746  -13.6318 O   0  0  0  0  0  0  0  0  0  0  0  0
   19.1622  -19.9632  -14.0738 O   0  0  0  0  0  0  0  0  0  0  0  0
  2  3  1  0
  2  1  1  1
  4  9  2  0
  4  3  1  0
  5  4  1  0
  6  7  1  0
  6  5  2  0
  7  8  2  0
  8  9  1  0
 10 11  2  0
 10  2  1  0
 13 12  1  6
 13 14  1  0
 14 10  1  0
 15 13  1  0
 16 15  2  0
 17 18  1  0
 18 19  2  0
 20 21  1  0
 20 18  1  0
 21 22  1  0
 22 23  1  0
 24 23  1  1
 24 25  1  0
 25 15  1  0
 26 24  1  0
 27 26  1  0
 28 26  2  0
M  END
$$$$
