FAR.pdb
     RDKit          3D

 28 28  0  0  1  0  0  0  0  0999 V2000
   24.5396  -11.1013  -17.5840 N   0  0  0  0  0  0  0  0  0  0  0  0
   24.6816  -10.6014  -16.2356 C   0  0  1  0  0  0  0  0  0  0  0  0
   25.8850   -9.6767  -16.2148 C   0  0  0  0  0  0  0  0  0  0  0  0
   27.1429  -10.4237  -16.4739 C   0  0  0  0  0  0  0  0  0  0  0  0
   27.3899  -11.6374  -15.8657 C   0  0  0  0  0  0  0  0  0  0  0  0
   28.5745  -12.3179  -16.1230 C   0  0  0  0  0  0  0  0  0  0  0  0
   29.5341  -11.8215  -16.9786 C   0  0  0  0  0  0  0  0  0  0  0  0
   29.2871  -10.6101  -17.5854 C   0  0  0  0  0  0  0  0  0  0  0  0
   28.0999   -9.9229  -17.3307 C   0  0  0  0  0  0  0  0  0  0  0  0
   23.4830   -9.7827  -15.9259 C   0  0  0  0  0  0  0  0  0  0  0  0
   22.7910   -9.3003  -16.8828 O   0  0  0  0  0  0  0  0  0  0  0  0
   21.3113   -8.8979  -12.9731 C   0  0  0  0  0  0  0  0  0  0  0  0
   21.8203   -8.7532  -14.3792 C   0  0  2  0  0  0  0  0  0  0  0  0
   23.0329   -9.4853  -14.6209 N   0  0  0  0  0  0  0  0  0  0  0  0
   21.9593   -7.3094  -14.7383 C   0  0  0  0  0  0  0  0  0  0  0  0
   23.0791   -6.7915  -14.6444 O   0  0  0  0  0  0  0  0  0  0  0  0
   16.2054   -1.2339  -18.1026 N   0  0  0  0  0  0  0  0  0  0  0  0
   17.4544   -0.5618  -17.9979 C   0  0  0  0  0  0  0  0  0  0  0  0
   17.5015    0.6685  -18.3979 N   0  0  0  0  0  0  0  0  0  0  0  0
   18.5894   -1.2297  -17.4737 N   0  0  0  0  0  0  0  0  0  0  0  0
   18.4784   -2.5842  -17.0119 C   0  0  0  0  0  0  0  0  0  0  0  0
   19.7758   -3.1145  -16.4439 C   0  0  0  0  0  0  0  0  0  0  0  0
   19.6469   -4.5534  -16.0055 C   0  0  0  0  0  0  0  0  0  0  0  0
   20.9366   -5.1204  -15.4798 C   0  0  2  0  0  0  0  0  0  0  0  0
   20.8754   -6.5157  -15.1769 N   0  0  0  0  0  0  0  0  0  0  0  0
   21.4992   -4.3149  -14.3710 C   0  0  0  0  0  0  0  0  0  0  0  0
   22.5103   -3.3817  -14.5111 O   0  0  0  0  0  0  0  0  0  0  0  0
   21.0366   -4.4788  -13.2162 O   0  0  0  0  0  0  0  0  0  0  0  0
  2  3  1  0
  2  1  1  6
  4  9  2  0
  4  3  1  0
  5  4  1  0
  6  7  1  0
  6  5  2  0
  7  8  2  0
  8  9  1  0
 10 11  2  0
 10  2  1  0
 13 12  1  1
 13 14  1  0
 14 10  1  0
 15 13  1  0
 16 15  2  0
 17 18  1  0
 18 19  2  0
 20 21  1  0
 20 18  1  0
 21 22  1  0
 22 23  1  0
 24 23  1  1
 24 25  1  0
 25 15  1  0
 26 24  1  0
 27 26  1  0
 28 26  2  0
M  END
$$$$
