FAR.pdb
     RDKit          3D

 28 28  0  0  1  0  0  0  0  0999 V2000
   24.9824  -17.9393  -19.2469 N   0  0  0  0  0  0  0  0  0  0  0  0
   24.8145  -18.6995  -18.0294 C   0  0  1  0  0  0  0  0  0  0  0  0
   25.2503  -17.8161  -16.8747 C   0  0  0  0  0  0  0  0  0  0  0  0
   26.7040  -17.5176  -16.9435 C   0  0  0  0  0  0  0  0  0  0  0  0
   27.1611  -16.2214  -17.0651 C   0  0  0  0  0  0  0  0  0  0  0  0
   28.5262  -15.9664  -17.1283 C   0  0  0  0  0  0  0  0  0  0  0  0
   29.4637  -16.9752  -17.0735 C   0  0  0  0  0  0  0  0  0  0  0  0
   29.0070  -18.2688  -16.9522 C   0  0  0  0  0  0  0  0  0  0  0  0
   27.6380  -18.5303  -16.8883 C   0  0  0  0  0  0  0  0  0  0  0  0
   23.3656  -18.9736  -17.8609 C   0  0  0  0  0  0  0  0  0  0  0  0
   22.5424  -17.9993  -17.8478 O   0  0  0  0  0  0  0  0  0  0  0  0
   20.7312  -20.6070  -18.9720 C   0  0  0  0  0  0  0  0  0  0  0  0
   21.3889  -20.4752  -17.6276 C   0  0  2  0  0  0  0  0  0  0  0  0
   22.8076  -20.2619  -17.7096 N   0  0  0  0  0  0  0  0  0  0  0  0
   21.0498  -21.6461  -16.7633 C   0  0  0  0  0  0  0  0  0  0  0  0
   21.7856  -22.6395  -16.8143 O   0  0  0  0  0  0  0  0  0  0  0  0
   17.6155  -23.5223  -10.6910 N   0  0  0  0  0  0  0  0  0  0  0  0
   18.8970  -23.5613  -10.0753 C   0  0  0  0  0  0  0  0  0  0  0  0
   19.1128  -24.5031   -9.2137 N   0  0  0  0  0  0  0  0  0  0  0  0
   19.8840  -22.5991  -10.4058 N   0  0  0  0  0  0  0  0  0  0  0  0
   19.6172  -21.6101  -11.4113 C   0  0  0  0  0  0  0  0  0  0  0  0
   20.1487  -22.0037  -12.7714 C   0  0  0  0  0  0  0  0  0  0  0  0
   19.0348  -22.3754  -13.7203 C   0  0  0  0  0  0  0  0  0  0  0  0
   19.5364  -22.7719  -15.0812 C   0  0  2  0  0  0  0  0  0  0  0  0
   19.9336  -21.6677  -15.8969 N   0  0  0  0  0  0  0  0  0  0  0  0
   18.6138  -23.6990  -15.7771 C   0  0  0  0  0  0  0  0  0  0  0  0
   18.5877  -25.0692  -15.5915 O   0  0  0  0  0  0  0  0  0  0  0  0
   17.7911  -23.2233  -16.5964 O   0  0  0  0  0  0  0  0  0  0  0  0
  2  3  1  0
  2  1  1  6
  4  9  2  0
  4  3  1  0
  5  4  1  0
  6  7  1  0
  6  5  2  0
  7  8  2  0
  8  9  1  0
 10 11  2  0
 10  2  1  0
 13 12  1  6
 13 14  1  0
 14 10  1  0
 15 13  1  0
 16 15  2  0
 17 18  1  0
 18 19  2  0
 20 21  1  0
 20 18  1  0
 21 22  1  0
 22 23  1  0
 24 23  1  1
 24 25  1  0
 25 15  1  0
 26 24  1  0
 27 26  1  0
 28 26  2  0
M  END
$$$$
