FAR.pdb
     RDKit          3D

 28 28  0  0  1  0  0  0  0  0999 V2000
   20.8711  -11.1769    6.6429 N   0  0  0  0  0  0  0  0  0  0  0  0
   20.7480  -12.0636    7.7773 C   0  0  1  0  0  0  0  0  0  0  0  0
   19.3857  -11.8217    8.4013 C   0  0  0  0  0  0  0  0  0  0  0  0
   19.2181  -12.6082    9.6505 C   0  0  0  0  0  0  0  0  0  0  0  0
   19.9676  -12.3292   10.7750 C   0  0  0  0  0  0  0  0  0  0  0  0
   19.7939  -13.0792   11.9325 C   0  0  0  0  0  0  0  0  0  0  0  0
   18.8848  -14.1124   12.0070 C   0  0  0  0  0  0  0  0  0  0  0  0
   18.1369  -14.3905   10.8844 C   0  0  0  0  0  0  0  0  0  0  0  0
   18.3074  -13.6409    9.7201 C   0  0  0  0  0  0  0  0  0  0  0  0
   20.7658  -13.4577    7.2684 C   0  0  0  0  0  0  0  0  0  0  0  0
   20.2081  -13.7230    6.1522 O   0  0  0  0  0  0  0  0  0  0  0  0
   22.5150  -16.7151    7.9601 C   0  0  0  0  0  0  0  0  0  0  0  0
   21.4432  -15.8558    7.3519 C   0  0  2  0  0  0  0  0  0  0  0  0
   21.3668  -14.5459    7.9379 N   0  0  0  0  0  0  0  0  0  0  0  0
   20.1261  -16.5605    7.3873 C   0  0  0  0  0  0  0  0  0  0  0  0
   19.4478  -16.4750    8.4186 O   0  0  0  0  0  0  0  0  0  0  0  0
   13.4920  -17.5253    2.0930 N   0  0  0  0  0  0  0  0  0  0  0  0
   13.2349  -18.5755    3.0169 C   0  0  0  0  0  0  0  0  0  0  0  0
   12.0516  -19.1003    3.0044 N   0  0  0  0  0  0  0  0  0  0  0  0
   14.2469  -19.0152    3.9067 N   0  0  0  0  0  0  0  0  0  0  0  0
   15.5499  -18.4145    3.8686 C   0  0  0  0  0  0  0  0  0  0  0  0
   16.4554  -18.9159    4.9713 C   0  0  0  0  0  0  0  0  0  0  0  0
   17.8072  -18.2448    4.9326 C   0  0  0  0  0  0  0  0  0  0  0  0
   18.4042  -18.0572    6.2999 C   0  0  2  0  0  0  0  0  0  0  0  0
   19.6254  -17.3148    6.3022 N   0  0  0  0  0  0  0  0  0  0  0  0
   18.5019  -19.3282    7.0547 C   0  0  0  0  0  0  0  0  0  0  0  0
   19.6623  -20.0649    7.2077 O   0  0  0  0  0  0  0  0  0  0  0  0
   17.4673  -19.7825    7.6003 O   0  0  0  0  0  0  0  0  0  0  0  0
  2  3  1  0
  2  1  1  6
  4  9  2  0
  4  3  1  0
  5  4  1  0
  6  7  1  0
  6  5  2  0
  7  8  2  0
  8  9  1  0
 10 11  2  0
 10  2  1  0
 13 12  1  1
 13 14  1  0
 14 10  1  0
 15 13  1  0
 16 15  2  0
 17 18  1  0
 18 19  2  0
 20 21  1  0
 20 18  1  0
 21 22  1  0
 22 23  1  0
 24 23  1  6
 24 25  1  0
 25 15  1  0
 26 24  1  0
 27 26  1  0
 28 26  2  0
M  END
$$$$
