YVY.pdb
     RDKit          3D

 32 33  0  0  1  0  0  0  0  0999 V2000
   19.9955  -17.4106  -31.7350 O   0  0  0  0  0  0  0  0  0  0  0  0
   20.2117  -17.5393  -30.3718 C   0  0  0  0  0  0  0  0  0  0  0  0
   20.2766  -18.7546  -29.7394 C   0  0  0  0  0  0  0  0  0  0  0  0
   20.4939  -18.8389  -28.3779 C   0  0  0  0  0  0  0  0  0  0  0  0
   20.6550  -17.7091  -27.5938 C   0  0  0  0  0  0  0  0  0  0  0  0
   20.8890  -17.8106  -26.1252 C   0  0  0  0  0  0  0  0  0  0  0  0
   22.3557  -17.6021  -25.8669 C   0  0  2  0  0  0  0  0  0  0  0  0
   23.1053  -18.6710  -26.4625 N   0  0  0  0  0  0  0  0  0  0  0  0
   22.6015  -17.5060  -24.4042 C   0  0  0  0  0  0  0  0  0  0  0  0
   23.0365  -18.5118  -23.7871 O   0  0  0  0  0  0  0  0  0  0  0  0
   20.5875  -16.4929  -28.2420 C   0  0  0  0  0  0  0  0  0  0  0  0
   20.3694  -16.3928  -29.6118 C   0  0  0  0  0  0  0  0  0  0  0  0
   23.3844  -14.9776  -20.2731 C   0  0  0  0  0  0  0  0  0  0  0  0
   23.2829  -15.0366  -21.7786 C   0  0  1  0  0  0  0  0  0  0  0  0
   24.6506  -14.8811  -22.3808 C   0  0  0  0  0  0  0  0  0  0  0  0
   22.5915  -16.3032  -22.2405 C   0  0  2  0  0  0  0  0  0  0  0  0
   22.3698  -16.3252  -23.6519 N   0  0  0  0  0  0  0  0  0  0  0  0
   21.3095  -16.4933  -21.4715 C   0  0  0  0  0  0  0  0  0  0  0  0
   20.2854  -15.9351  -21.9606 O   0  0  0  0  0  0  0  0  0  0  0  0
   14.0743  -19.0339  -18.1171 O   0  0  0  0  0  0  0  0  0  0  0  0
   15.3332  -18.8141  -18.7013 C   0  0  0  0  0  0  0  0  0  0  0  0
   16.2577  -19.8350  -18.7238 C   0  0  0  0  0  0  0  0  0  0  0  0
   17.4747  -19.5620  -19.3095 C   0  0  0  0  0  0  0  0  0  0  0  0
   17.7754  -18.3301  -19.8547 C   0  0  0  0  0  0  0  0  0  0  0  0
   19.0959  -18.0634  -20.4694 C   0  0  0  0  0  0  0  0  0  0  0  0
   20.1067  -17.4726  -19.5580 C   0  0  2  0  0  0  0  0  0  0  0  0
   21.3222  -17.2572  -20.2894 N   0  0  0  0  0  0  0  0  0  0  0  0
   20.3186  -18.2051  -18.2873 C   0  0  0  0  0  0  0  0  0  0  0  0
   21.2732  -18.9963  -18.1058 O   0  0  0  0  0  0  0  0  0  0  0  0
   16.8504  -17.3097  -19.8314 C   0  0  0  0  0  0  0  0  0  0  0  0
   15.6181  -17.5823  -19.2398 C   0  0  0  0  0  0  0  0  0  0  0  0
   19.4474  -18.0426  -17.2218 O   0  0  0  0  0  0  0  0  0  0  0  0
  2  1  1  0
  3  2  2  0
  4  3  1  0
  5 11  1  0
  5  4  2  0
  6  7  1  0
  6  5  1  0
  7  8  1  1
  9  7  1  0
  9 17  1  0
 10  9  2  0
 11 12  2  0
 12  2  1  0
 14 13  1  1
 14 15  1  0
 14 16  1  0
 16 17  1  6
 16 18  1  0
 18 27  1  0
 19 18  2  0
 20 21  1  0
 21 31  2  0
 21 22  1  0
 22 23  2  0
 23 24  1  0
 24 25  1  0
 26 25  1  6
 26 28  1  0
 27 26  1  0
 28 29  2  0
 28 32  1  0
 30 24  2  0
 31 30  1  0
M  END
$$$$
