YVY.pdb
     RDKit          3D

 32 33  0  0  1  0  0  0  0  0999 V2000
   29.0425  -20.0405   -2.7910 O   0  0  0  0  0  0  0  0  0  0  0  0
   28.3997  -19.8727   -4.0077 C   0  0  0  0  0  0  0  0  0  0  0  0
   28.8737  -19.0441   -4.9924 C   0  0  0  0  0  0  0  0  0  0  0  0
   28.2022  -18.9053   -6.1915 C   0  0  0  0  0  0  0  0  0  0  0  0
   27.0281  -19.5909   -6.4534 C   0  0  0  0  0  0  0  0  0  0  0  0
   26.3107  -19.4343   -7.7506 C   0  0  0  0  0  0  0  0  0  0  0  0
   26.7059  -20.5748   -8.6475 C   0  0  2  0  0  0  0  0  0  0  0  0
   28.1297  -20.7490   -8.6046 N   0  0  0  0  0  0  0  0  0  0  0  0
   26.2243  -20.3192  -10.0303 C   0  0  0  0  0  0  0  0  0  0  0  0
   25.7175  -19.2020  -10.3074 O   0  0  0  0  0  0  0  0  0  0  0  0
   26.5620  -20.4211   -5.4547 C   0  0  0  0  0  0  0  0  0  0  0  0
   27.2274  -20.5707   -4.2428 C   0  0  0  0  0  0  0  0  0  0  0  0
   26.2226  -20.9661  -14.8351 C   0  0  0  0  0  0  0  0  0  0  0  0
   26.7335  -21.3996  -13.4819 C   0  0  1  0  0  0  0  0  0  0  0  0
   28.1215  -20.8633  -13.2734 C   0  0  0  0  0  0  0  0  0  0  0  0
   25.7862  -20.9910  -12.3723 C   0  0  2  0  0  0  0  0  0  0  0  0
   26.3049  -21.2790  -11.0724 N   0  0  0  0  0  0  0  0  0  0  0  0
   24.4397  -21.6319  -12.5901 C   0  0  0  0  0  0  0  0  0  0  0  0
   24.1252  -22.5448  -11.7733 O   0  0  0  0  0  0  0  0  0  0  0  0
   16.3504  -19.8759  -11.2495 O   0  0  0  0  0  0  0  0  0  0  0  0
   17.7238  -20.0186  -11.5094 C   0  0  0  0  0  0  0  0  0  0  0  0
   18.3609  -21.1903  -11.1650 C   0  0  0  0  0  0  0  0  0  0  0  0
   19.7077  -21.2737  -11.4438 C   0  0  0  0  0  0  0  0  0  0  0  0
   20.4066  -20.2435  -12.0401 C   0  0  0  0  0  0  0  0  0  0  0  0
   21.8562  -20.3587  -12.3192 C   0  0  0  0  0  0  0  0  0  0  0  0
   22.2048  -21.1653  -13.5147 C   0  0  2  0  0  0  0  0  0  0  0  0
   23.6324  -21.1931  -13.6563 N   0  0  0  0  0  0  0  0  0  0  0  0
   21.5072  -20.7800  -14.7641 C   0  0  0  0  0  0  0  0  0  0  0  0
   21.8865  -19.8352  -15.4948 O   0  0  0  0  0  0  0  0  0  0  0  0
   19.7687  -19.0720  -12.3840 C   0  0  0  0  0  0  0  0  0  0  0  0
   18.4062  -18.9842  -12.1035 C   0  0  0  0  0  0  0  0  0  0  0  0
   20.3780  -21.4642  -15.1853 O   0  0  0  0  0  0  0  0  0  0  0  0
  2  1  1  0
  3  2  2  0
  4  3  1  0
  5 11  1  0
  5  4  2  0
  6  7  1  0
  6  5  1  0
  7  8  1  6
  9  7  1  0
  9 17  1  0
 10  9  2  0
 11 12  2  0
 12  2  1  0
 14 13  1  6
 14 15  1  0
 14 16  1  0
 16 17  1  1
 16 18  1  0
 18 27  1  0
 19 18  2  0
 20 21  1  0
 21 31  2  0
 21 22  1  0
 22 23  2  0
 23 24  1  0
 24 25  1  0
 26 25  1  1
 26 28  1  0
 27 26  1  0
 28 29  2  0
 28 32  1  0
 30 24  2  0
 31 30  1  0
M  END
$$$$
