YVY.pdb
     RDKit          3D

 32 33  0  0  1  0  0  0  0  0999 V2000
   18.7831  -15.3327  -23.9157 O   0  0  0  0  0  0  0  0  0  0  0  0
   18.8919  -14.4509  -22.8517 C   0  0  0  0  0  0  0  0  0  0  0  0
   20.0806  -13.8779  -22.4778 C   0  0  0  0  0  0  0  0  0  0  0  0
   20.1457  -13.0035  -21.4104 C   0  0  0  0  0  0  0  0  0  0  0  0
   19.0226  -12.6670  -20.6738 C   0  0  0  0  0  0  0  0  0  0  0  0
   19.1033  -11.7223  -19.5236 C   0  0  0  0  0  0  0  0  0  0  0  0
   19.6098  -12.4798  -18.3273 C   0  0  2  0  0  0  0  0  0  0  0  0
   18.6058  -13.4038  -17.8830 N   0  0  0  0  0  0  0  0  0  0  0  0
   19.9947  -11.5271  -17.2532 C   0  0  0  0  0  0  0  0  0  0  0  0
   19.1363  -11.1829  -16.4009 O   0  0  0  0  0  0  0  0  0  0  0  0
   17.8333  -13.2502  -21.0601 C   0  0  0  0  0  0  0  0  0  0  0  0
   17.7528  -14.1321  -22.1323 C   0  0  0  0  0  0  0  0  0  0  0  0
   23.3019   -9.4400  -14.3216 C   0  0  0  0  0  0  0  0  0  0  0  0
   22.9866  -10.3784  -15.4618 C   0  0  1  0  0  0  0  0  0  0  0  0
   23.1250  -11.8000  -14.9957 C   0  0  0  0  0  0  0  0  0  0  0  0
   21.6199  -10.0971  -16.0524 C   0  0  2  0  0  0  0  0  0  0  0  0
   21.2963  -10.9747  -17.1325 N   0  0  0  0  0  0  0  0  0  0  0  0
   21.5306   -8.6500  -16.4636 C   0  0  0  0  0  0  0  0  0  0  0  0
   22.0733   -8.3562  -17.5676 O   0  0  0  0  0  0  0  0  0  0  0  0
   19.2083   -1.1604  -19.4395 O   0  0  0  0  0  0  0  0  0  0  0  0
   19.4508   -2.4464  -18.9280 C   0  0  0  0  0  0  0  0  0  0  0  0
   20.6758   -3.0400  -19.1387 C   0  0  0  0  0  0  0  0  0  0  0  0
   20.8566   -4.3012  -18.6141 C   0  0  0  0  0  0  0  0  0  0  0  0
   19.8702   -4.9585  -17.9069 C   0  0  0  0  0  0  0  0  0  0  0  0
   20.0907   -6.3179  -17.3628 C   0  0  0  0  0  0  0  0  0  0  0  0
   20.7262   -6.3640  -16.0228 C   0  0  2  0  0  0  0  0  0  0  0  0
   20.8693   -7.7347  -15.6235 N   0  0  0  0  0  0  0  0  0  0  0  0
   20.0805   -5.5241  -14.9865 C   0  0  0  0  0  0  0  0  0  0  0  0
   19.2033   -5.9585  -14.2041 O   0  0  0  0  0  0  0  0  0  0  0  0
   18.6453   -4.3643  -17.6970 C   0  0  0  0  0  0  0  0  0  0  0  0
   18.4589   -3.0884  -18.2262 C   0  0  0  0  0  0  0  0  0  0  0  0
   20.4275   -4.1907  -14.8374 O   0  0  0  0  0  0  0  0  0  0  0  0
  2  1  1  0
  3  2  2  0
  4  3  1  0
  5 11  1  0
  5  4  2  0
  6  7  1  0
  6  5  1  0
  7  8  1  1
  9  7  1  0
  9 17  1  0
 10  9  2  0
 11 12  2  0
 12  2  1  0
 14 13  1  1
 14 15  1  0
 14 16  1  0
 16 17  1  6
 16 18  1  0
 18 27  1  0
 19 18  2  0
 20 21  1  0
 21 31  2  0
 21 22  1  0
 22 23  2  0
 23 24  1  0
 24 25  1  0
 26 25  1  6
 26 28  1  0
 27 26  1  0
 28 29  2  0
 28 32  1  0
 30 24  2  0
 31 30  1  0
M  END
$$$$
