YVY.pdb
     RDKit          3D

 32 33  0  0  1  0  0  0  0  0999 V2000
   22.5104  -15.8959  -22.0438 O   0  0  0  0  0  0  0  0  0  0  0  0
   22.8362  -16.6740  -20.9439 C   0  0  0  0  0  0  0  0  0  0  0  0
   23.5864  -16.2052  -19.8958 C   0  0  0  0  0  0  0  0  0  0  0  0
   23.8889  -17.0142  -18.8177 C   0  0  0  0  0  0  0  0  0  0  0  0
   23.4522  -18.3261  -18.7453 C   0  0  0  0  0  0  0  0  0  0  0  0
   23.7839  -19.1911  -17.5776 C   0  0  0  0  0  0  0  0  0  0  0  0
   25.2277  -19.5971  -17.6879 C   0  0  2  0  0  0  0  0  0  0  0  0
   25.3828  -20.5335  -18.7640 N   0  0  0  0  0  0  0  0  0  0  0  0
   25.6926  -20.1631  -16.3945 C   0  0  0  0  0  0  0  0  0  0  0  0
   25.4031  -21.3523  -16.1051 O   0  0  0  0  0  0  0  0  0  0  0  0
   22.6985  -18.7854  -19.8059 C   0  0  0  0  0  0  0  0  0  0  0  0
   22.3863  -17.9825  -20.8975 C   0  0  0  0  0  0  0  0  0  0  0  0
   28.7712  -20.4173  -12.6358 C   0  0  0  0  0  0  0  0  0  0  0  0
   28.3656  -19.8541  -13.9769 C   0  0  1  0  0  0  0  0  0  0  0  0
   29.2031  -20.4771  -15.0576 C   0  0  0  0  0  0  0  0  0  0  0  0
   26.8814  -20.0273  -14.2274 C   0  0  2  0  0  0  0  0  0  0  0  0
   26.4567  -19.4267  -15.4523 N   0  0  0  0  0  0  0  0  0  0  0  0
   26.1013  -19.5031  -13.0493 C   0  0  0  0  0  0  0  0  0  0  0  0
   25.6573  -18.3243  -13.1627 O   0  0  0  0  0  0  0  0  0  0  0  0
   18.5821  -19.7827   -9.4095 O   0  0  0  0  0  0  0  0  0  0  0  0
   19.8220  -19.9754  -10.0418 C   0  0  0  0  0  0  0  0  0  0  0  0
   20.5170  -21.1455   -9.8290 C   0  0  0  0  0  0  0  0  0  0  0  0
   21.7267  -21.2791  -10.4750 C   0  0  0  0  0  0  0  0  0  0  0  0
   22.2381  -20.2990  -11.3016 C   0  0  0  0  0  0  0  0  0  0  0  0
   23.5459  -20.4672  -11.9754 C   0  0  0  0  0  0  0  0  0  0  0  0
   24.7314  -20.1996  -11.1243 C   0  0  2  0  0  0  0  0  0  0  0  0
   25.9158  -20.3279  -11.9240 N   0  0  0  0  0  0  0  0  0  0  0  0
   24.7963  -20.9790   -9.8656 C   0  0  0  0  0  0  0  0  0  0  0  0
   25.2249  -22.1553   -9.8117 O   0  0  0  0  0  0  0  0  0  0  0  0
   21.5425  -19.1291  -11.5136 C   0  0  0  0  0  0  0  0  0  0  0  0
   20.3183  -18.9906  -10.8618 C   0  0  0  0  0  0  0  0  0  0  0  0
   24.3736  -20.4262   -8.6671 O   0  0  0  0  0  0  0  0  0  0  0  0
  2  1  1  0
  3  2  2  0
  4  3  1  0
  5 11  1  0
  5  4  2  0
  6  7  1  0
  6  5  1  0
  7  8  1  6
  9  7  1  0
  9 17  1  0
 10  9  2  0
 11 12  2  0
 12  2  1  0
 14 13  1  1
 14 15  1  0
 14 16  1  0
 16 17  1  6
 16 18  1  0
 18 27  1  0
 19 18  2  0
 20 21  1  0
 21 31  2  0
 21 22  1  0
 22 23  2  0
 23 24  1  0
 24 25  1  0
 26 25  1  6
 26 28  1  0
 27 26  1  0
 28 29  2  0
 28 32  1  0
 30 24  2  0
 31 30  1  0
M  END
$$$$
