YVY.pdb
     RDKit          3D

 32 33  0  0  1  0  0  0  0  0999 V2000
   22.7618   -8.2433  -22.1094 O   0  0  0  0  0  0  0  0  0  0  0  0
   22.0530   -9.4344  -22.1247 C   0  0  0  0  0  0  0  0  0  0  0  0
   21.7267  -10.1217  -20.9835 C   0  0  0  0  0  0  0  0  0  0  0  0
   21.0185  -11.3062  -21.0427 C   0  0  0  0  0  0  0  0  0  0  0  0
   20.6081  -11.8511  -22.2477 C   0  0  0  0  0  0  0  0  0  0  0  0
   19.8444  -13.1300  -22.3011 C   0  0  0  0  0  0  0  0  0  0  0  0
   20.8278  -14.2671  -22.2656 C   0  0  2  0  0  0  0  0  0  0  0  0
   21.4916  -14.3683  -23.5338 N   0  0  0  0  0  0  0  0  0  0  0  0
   20.1274  -15.5286  -21.9089 C   0  0  0  0  0  0  0  0  0  0  0  0
   19.6555  -16.2494  -22.8252 O   0  0  0  0  0  0  0  0  0  0  0  0
   20.9427  -11.1500  -23.3881 C   0  0  0  0  0  0  0  0  0  0  0  0
   21.6551   -9.9565  -23.3437 C   0  0  0  0  0  0  0  0  0  0  0  0
   19.3320  -19.2446  -18.7990 C   0  0  0  0  0  0  0  0  0  0  0  0
   20.0990  -18.0159  -19.2257 C   0  0  1  0  0  0  0  0  0  0  0  0
   21.4801  -18.4128  -19.6642 C   0  0  0  0  0  0  0  0  0  0  0  0
   19.3568  -17.2398  -20.2945 C   0  0  2  0  0  0  0  0  0  0  0  0
   19.9578  -15.9736  -20.5721 N   0  0  0  0  0  0  0  0  0  0  0  0
   17.9077  -17.0962  -19.9062 C   0  0  0  0  0  0  0  0  0  0  0  0
   17.6571  -16.2249  -19.0244 O   0  0  0  0  0  0  0  0  0  0  0  0
    9.2405  -16.9268  -20.5969 O   0  0  0  0  0  0  0  0  0  0  0  0
   10.6401  -16.9195  -20.7209 C   0  0  0  0  0  0  0  0  0  0  0  0
   11.3420  -15.7747  -20.4142 C   0  0  0  0  0  0  0  0  0  0  0  0
   12.7118  -15.8261  -20.5545 C   0  0  0  0  0  0  0  0  0  0  0  0
   13.3714  -16.9611  -20.9809 C   0  0  0  0  0  0  0  0  0  0  0  0
   14.8444  -16.9834  -21.1309 C   0  0  0  0  0  0  0  0  0  0  0  0
   15.5652  -17.8208  -20.1407 C   0  0  2  0  0  0  0  0  0  0  0  0
   16.9441  -17.9133  -20.5266 N   0  0  0  0  0  0  0  0  0  0  0  0
   14.9527  -19.1414  -19.8627 C   0  0  0  0  0  0  0  0  0  0  0  0
   13.9891  -19.2957  -19.0767 O   0  0  0  0  0  0  0  0  0  0  0  0
   12.6687  -18.1054  -21.2877 C   0  0  0  0  0  0  0  0  0  0  0  0
   11.2828  -18.0571  -21.1468 C   0  0  0  0  0  0  0  0  0  0  0  0
   15.4334  -20.2884  -20.4743 O   0  0  0  0  0  0  0  0  0  0  0  0
  2  1  1  0
  3  2  2  0
  4  3  1  0
  5 11  1  0
  5  4  2  0
  6  7  1  0
  6  5  1  0
  7  8  1  6
  9  7  1  0
  9 17  1  0
 10  9  2  0
 11 12  2  0
 12  2  1  0
 14 13  1  6
 14 15  1  0
 14 16  1  0
 16 17  1  1
 16 18  1  0
 18 27  1  0
 19 18  2  0
 20 21  1  0
 21 31  2  0
 21 22  1  0
 22 23  2  0
 23 24  1  0
 24 25  1  0
 26 25  1  6
 26 28  1  0
 27 26  1  0
 28 29  2  0
 28 32  1  0
 30 24  2  0
 31 30  1  0
M  END
$$$$
