YVY.pdb
     RDKit          3D

 32 33  0  0  1  0  0  0  0  0999 V2000
   18.2799  -16.5131  -16.5298 O   0  0  0  0  0  0  0  0  0  0  0  0
   18.6368  -15.1910  -16.7444 C   0  0  0  0  0  0  0  0  0  0  0  0
   19.8960  -14.8135  -17.1356 C   0  0  0  0  0  0  0  0  0  0  0  0
   20.2107  -13.4839  -17.3388 C   0  0  0  0  0  0  0  0  0  0  0  0
   19.2767  -12.4777  -17.1586 C   0  0  0  0  0  0  0  0  0  0  0  0
   19.6260  -11.0457  -17.3805 C   0  0  0  0  0  0  0  0  0  0  0  0
   18.8016  -10.5328  -18.5289 C   0  0  2  0  0  0  0  0  0  0  0  0
   19.1875  -11.2060  -19.7360 N   0  0  0  0  0  0  0  0  0  0  0  0
   18.9608   -9.0596  -18.6454 C   0  0  0  0  0  0  0  0  0  0  0  0
   19.9477   -8.5961  -19.2723 O   0  0  0  0  0  0  0  0  0  0  0  0
   18.0139  -12.8707  -16.7652 C   0  0  0  0  0  0  0  0  0  0  0  0
   17.6829  -14.2052  -16.5568 C   0  0  0  0  0  0  0  0  0  0  0  0
   17.0450   -4.6163  -19.0244 C   0  0  0  0  0  0  0  0  0  0  0  0
   16.9400   -6.1201  -18.9363 C   0  0  1  0  0  0  0  0  0  0  0  0
   16.6356   -6.6830  -20.2957 C   0  0  0  0  0  0  0  0  0  0  0  0
   18.1857   -6.7302  -18.3268 C   0  0  2  0  0  0  0  0  0  0  0  0
   18.0481   -8.1310  -18.0809 N   0  0  0  0  0  0  0  0  0  0  0  0
   18.5613   -5.9786  -17.0757 C   0  0  0  0  0  0  0  0  0  0  0  0
   17.7856   -6.1293  -16.0883 O   0  0  0  0  0  0  0  0  0  0  0  0
   22.4274  -10.1439  -14.0698 O   0  0  0  0  0  0  0  0  0  0  0  0
   22.1859   -8.8058  -14.4239 C   0  0  0  0  0  0  0  0  0  0  0  0
   21.3279   -8.0464  -13.6594 C   0  0  0  0  0  0  0  0  0  0  0  0
   21.1294   -6.7413  -14.0542 C   0  0  0  0  0  0  0  0  0  0  0  0
   21.7509   -6.1987  -15.1608 C   0  0  0  0  0  0  0  0  0  0  0  0
   21.5108   -4.7948  -15.5659 C   0  0  0  0  0  0  0  0  0  0  0  0
   20.1007   -4.4654  -15.8891 C   0  0  2  0  0  0  0  0  0  0  0  0
   19.7177   -5.1762  -17.0753 N   0  0  0  0  0  0  0  0  0  0  0  0
   19.7876   -3.0184  -15.9557 C   0  0  0  0  0  0  0  0  0  0  0  0
   19.4461   -2.4413  -17.0143 O   0  0  0  0  0  0  0  0  0  0  0  0
   22.6087   -6.9589  -15.9248 C   0  0  0  0  0  0  0  0  0  0  0  0
   22.8119   -8.2796  -15.5284 C   0  0  0  0  0  0  0  0  0  0  0  0
   19.8631   -2.2241  -14.8226 O   0  0  0  0  0  0  0  0  0  0  0  0
  2  1  1  0
  3  2  2  0
  4  3  1  0
  5 11  1  0
  5  4  2  0
  6  7  1  0
  6  5  1  0
  7  8  1  6
  9  7  1  0
  9 17  1  0
 10  9  2  0
 11 12  2  0
 12  2  1  0
 14 13  1  6
 14 15  1  0
 14 16  1  0
 16 17  1  1
 16 18  1  0
 18 27  1  0
 19 18  2  0
 20 21  1  0
 21 31  2  0
 21 22  1  0
 22 23  2  0
 23 24  1  0
 24 25  1  0
 26 25  1  6
 26 28  1  0
 27 26  1  0
 28 29  2  0
 28 32  1  0
 30 24  2  0
 31 30  1  0
M  END
$$$$
