YVY.pdb
     RDKit          3D

 32 33  0  0  1  0  0  0  0  0999 V2000
   28.1925  -25.9992  -17.1736 O   0  0  0  0  0  0  0  0  0  0  0  0
   27.2028  -25.3602  -16.4431 C   0  0  0  0  0  0  0  0  0  0  0  0
   26.1604  -26.0306  -15.8556 C   0  0  0  0  0  0  0  0  0  0  0  0
   25.1942  -25.3554  -15.1355 C   0  0  0  0  0  0  0  0  0  0  0  0
   25.2325  -23.9807  -14.9741 C   0  0  0  0  0  0  0  0  0  0  0  0
   24.1850  -23.2612  -14.1951 C   0  0  0  0  0  0  0  0  0  0  0  0
   23.0659  -22.9006  -15.1327 C   0  0  2  0  0  0  0  0  0  0  0  0
   23.5098  -21.8835  -16.0423 N   0  0  0  0  0  0  0  0  0  0  0  0
   21.8776  -22.4625  -14.3546 C   0  0  0  0  0  0  0  0  0  0  0  0
   21.9317  -21.3876  -13.7040 O   0  0  0  0  0  0  0  0  0  0  0  0
   26.2861  -23.3183  -15.5700 C   0  0  0  0  0  0  0  0  0  0  0  0
   27.2659  -23.9848  -16.2978 C   0  0  0  0  0  0  0  0  0  0  0  0
   17.1733  -21.9584  -13.5860 C   0  0  0  0  0  0  0  0  0  0  0  0
   18.3882  -22.3037  -14.4135 C   0  0  1  0  0  0  0  0  0  0  0  0
   18.7328  -21.1463  -15.3075 C   0  0  0  0  0  0  0  0  0  0  0  0
   19.5540  -22.7244  -13.5420 C   0  0  2  0  0  0  0  0  0  0  0  0
   20.6661  -23.1996  -14.3030 N   0  0  0  0  0  0  0  0  0  0  0  0
   19.0932  -23.7434  -12.5318 C   0  0  0  0  0  0  0  0  0  0  0  0
   18.8704  -24.9041  -12.9819 O   0  0  0  0  0  0  0  0  0  0  0  0
   17.3663  -27.8108   -5.0151 O   0  0  0  0  0  0  0  0  0  0  0  0
   17.8302  -26.9288   -6.0056 C   0  0  0  0  0  0  0  0  0  0  0  0
   17.9597  -25.5889   -5.7136 C   0  0  0  0  0  0  0  0  0  0  0  0
   18.4192  -24.7717   -6.7234 C   0  0  0  0  0  0  0  0  0  0  0  0
   18.7410  -25.2516   -7.9770 C   0  0  0  0  0  0  0  0  0  0  0  0
   19.2239  -24.3472   -9.0454 C   0  0  0  0  0  0  0  0  0  0  0  0
   18.3501  -24.2633  -10.2416 C   0  0  2  0  0  0  0  0  0  0  0  0
   18.9412  -23.3594  -11.1862 N   0  0  0  0  0  0  0  0  0  0  0  0
   16.9258  -23.9612   -9.9655 C   0  0  0  0  0  0  0  0  0  0  0  0
   16.5093  -22.8075   -9.7091 O   0  0  0  0  0  0  0  0  0  0  0  0
   18.6110  -26.5916   -8.2682 C   0  0  0  0  0  0  0  0  0  0  0  0
   18.1465  -27.4213   -7.2490 C   0  0  0  0  0  0  0  0  0  0  0  0
   15.9726  -24.9672   -9.9781 O   0  0  0  0  0  0  0  0  0  0  0  0
  2  1  1  0
  3  2  2  0
  4  3  1  0
  5 11  1  0
  5  4  2  0
  6  7  1  0
  6  5  1  0
  7  8  1  6
  9  7  1  0
  9 17  1  0
 10  9  2  0
 11 12  2  0
 12  2  1  0
 14 13  1  1
 14 15  1  0
 14 16  1  0
 16 17  1  6
 16 18  1  0
 18 27  1  0
 19 18  2  0
 20 21  1  0
 21 31  2  0
 21 22  1  0
 22 23  2  0
 23 24  1  0
 24 25  1  0
 26 25  1  1
 26 28  1  0
 27 26  1  0
 28 29  2  0
 28 32  1  0
 30 24  2  0
 31 30  1  0
M  END
$$$$
