YVY.pdb
     RDKit          3D

 32 33  0  0  1  0  0  0  0  0999 V2000
   16.7102  -15.1356  -14.9250 O   0  0  0  0  0  0  0  0  0  0  0  0
   17.4811  -16.1792  -14.4369 C   0  0  0  0  0  0  0  0  0  0  0  0
   16.9463  -17.3786  -14.0413 C   0  0  0  0  0  0  0  0  0  0  0  0
   17.7505  -18.3936  -13.5603 C   0  0  0  0  0  0  0  0  0  0  0  0
   19.1236  -18.2487  -13.4559 C   0  0  0  0  0  0  0  0  0  0  0  0
   19.9828  -19.3500  -12.9356 C   0  0  0  0  0  0  0  0  0  0  0  0
   20.5516  -20.0978  -14.1097 C   0  0  2  0  0  0  0  0  0  0  0  0
   19.5359  -20.9312  -14.6867 N   0  0  0  0  0  0  0  0  0  0  0  0
   21.7337  -20.8892  -13.6788 C   0  0  0  0  0  0  0  0  0  0  0  0
   21.5571  -21.9651  -13.0519 O   0  0  0  0  0  0  0  0  0  0  0  0
   19.6489  -17.0375  -13.8572 C   0  0  0  0  0  0  0  0  0  0  0  0
   18.8517  -16.0070  -14.3433 C   0  0  0  0  0  0  0  0  0  0  0  0
   26.1608  -22.6198  -14.3910 C   0  0  0  0  0  0  0  0  0  0  0  0
   24.9465  -21.8186  -14.7954 C   0  0  1  0  0  0  0  0  0  0  0  0
   24.1019  -22.6275  -15.7387 C   0  0  0  0  0  0  0  0  0  0  0  0
   24.1654  -21.3436  -13.5871 C   0  0  2  0  0  0  0  0  0  0  0  0
   23.0717  -20.4940  -13.9385 N   0  0  0  0  0  0  0  0  0  0  0  0
   25.0972  -20.6771  -12.6079 C   0  0  0  0  0  0  0  0  0  0  0  0
   25.4289  -19.4884  -12.8844 O   0  0  0  0  0  0  0  0  0  0  0  0
   29.8441  -19.1635   -5.4018 O   0  0  0  0  0  0  0  0  0  0  0  0
   28.9681  -19.6964   -6.3625 C   0  0  0  0  0  0  0  0  0  0  0  0
   27.7551  -19.0840   -6.5879 C   0  0  0  0  0  0  0  0  0  0  0  0
   26.9375  -19.6505   -7.5414 C   0  0  0  0  0  0  0  0  0  0  0  0
   27.2967  -20.7792   -8.2502 C   0  0  0  0  0  0  0  0  0  0  0  0
   26.3927  -21.3709   -9.2628 C   0  0  0  0  0  0  0  0  0  0  0  0
   26.5718  -20.8572  -10.6431 C   0  0  2  0  0  0  0  0  0  0  0  0
   25.5328  -21.3914  -11.4761 N   0  0  0  0  0  0  0  0  0  0  0  0
   27.9256  -21.0422  -11.2171 C   0  0  0  0  0  0  0  0  0  0  0  0
   28.3960  -22.1664  -11.5090 O   0  0  0  0  0  0  0  0  0  0  0  0
   28.5099  -21.3912   -8.0239 C   0  0  0  0  0  0  0  0  0  0  0  0
   29.3396  -20.8207   -7.0601 C   0  0  0  0  0  0  0  0  0  0  0  0
   28.7477  -19.9531  -11.4589 O   0  0  0  0  0  0  0  0  0  0  0  0
  2  1  1  0
  3  2  2  0
  4  3  1  0
  5 11  1  0
  5  4  2  0
  6  7  1  0
  6  5  1  0
  7  8  1  1
  9  7  1  0
  9 17  1  0
 10  9  2  0
 11 12  2  0
 12  2  1  0
 14 13  1  1
 14 15  1  0
 14 16  1  0
 16 17  1  6
 16 18  1  0
 18 27  1  0
 19 18  2  0
 20 21  1  0
 21 31  2  0
 21 22  1  0
 22 23  2  0
 23 24  1  0
 24 25  1  0
 26 25  1  1
 26 28  1  0
 27 26  1  0
 28 29  2  0
 28 32  1  0
 30 24  2  0
 31 30  1  0
M  END
$$$$
