YVY.pdb
     RDKit          3D

 32 33  0  0  1  0  0  0  0  0999 V2000
   21.0553  -15.0621  -24.3443 O   0  0  0  0  0  0  0  0  0  0  0  0
   20.8277  -14.3006  -23.2086 C   0  0  0  0  0  0  0  0  0  0  0  0
   21.7506  -13.4196  -22.7053 C   0  0  0  0  0  0  0  0  0  0  0  0
   21.4839  -12.6791  -21.5701 C   0  0  0  0  0  0  0  0  0  0  0  0
   20.2817  -12.7907  -20.8923 C   0  0  0  0  0  0  0  0  0  0  0  0
   20.0035  -11.9873  -19.6681 C   0  0  0  0  0  0  0  0  0  0  0  0
   20.6852  -12.6520  -18.5041 C   0  0  2  0  0  0  0  0  0  0  0  0
   20.0497  -13.9086  -18.2285 N   0  0  0  0  0  0  0  0  0  0  0  0
   20.6583  -11.7509  -17.3223 C   0  0  0  0  0  0  0  0  0  0  0  0
   19.6285  -11.7141  -16.6013 O   0  0  0  0  0  0  0  0  0  0  0  0
   19.3621  -13.6803  -21.4089 C   0  0  0  0  0  0  0  0  0  0  0  0
   19.6167  -14.4322  -22.5506 C   0  0  0  0  0  0  0  0  0  0  0  0
   22.6489   -9.5332  -13.5568 C   0  0  0  0  0  0  0  0  0  0  0  0
   22.7776  -10.3847  -14.7972 C   0  0  1  0  0  0  0  0  0  0  0  0
   22.8247  -11.8352  -14.4083 C   0  0  0  0  0  0  0  0  0  0  0  0
   21.6721  -10.0910  -15.7909 C   0  0  2  0  0  0  0  0  0  0  0  0
   21.7457  -10.9162  -16.9550 N   0  0  0  0  0  0  0  0  0  0  0  0
   21.6806   -8.6260  -16.1442 C   0  0  0  0  0  0  0  0  0  0  0  0
   22.7063   -8.2131  -16.7582 O   0  0  0  0  0  0  0  0  0  0  0  0
   20.5288   -8.2524  -22.2268 O   0  0  0  0  0  0  0  0  0  0  0  0
   20.2726   -7.7483  -20.9405 C   0  0  0  0  0  0  0  0  0  0  0  0
   19.6345   -8.5442  -20.0150 C   0  0  0  0  0  0  0  0  0  0  0  0
   19.4100   -7.9971  -18.7705 C   0  0  0  0  0  0  0  0  0  0  0  0
   19.7976   -6.7132  -18.4441 C   0  0  0  0  0  0  0  0  0  0  0  0
   19.5343   -6.1490  -17.1006 C   0  0  0  0  0  0  0  0  0  0  0  0
   20.5829   -6.4217  -16.0869 C   0  0  2  0  0  0  0  0  0  0  0  0
   20.5818   -7.8240  -15.7831 N   0  0  0  0  0  0  0  0  0  0  0  0
   20.5312   -5.5678  -14.8768 C   0  0  0  0  0  0  0  0  0  0  0  0
   20.3496   -6.0259  -13.7246 O   0  0  0  0  0  0  0  0  0  0  0  0
   20.4354   -5.9178  -19.3704 C   0  0  0  0  0  0  0  0  0  0  0  0
   20.6643   -6.4681  -20.6304 C   0  0  0  0  0  0  0  0  0  0  0  0
   20.6837   -4.1936  -14.9720 O   0  0  0  0  0  0  0  0  0  0  0  0
  2  1  1  0
  3  2  2  0
  4  3  1  0
  5 11  1  0
  5  4  2  0
  6  7  1  0
  6  5  1  0
  7  8  1  1
  9  7  1  0
  9 17  1  0
 10  9  2  0
 11 12  2  0
 12  2  1  0
 14 13  1  1
 14 15  1  0
 14 16  1  0
 16 17  1  6
 16 18  1  0
 18 27  1  0
 19 18  2  0
 20 21  1  0
 21 31  2  0
 21 22  1  0
 22 23  2  0
 23 24  1  0
 24 25  1  0
 26 25  1  6
 26 28  1  0
 27 26  1  0
 28 29  2  0
 28 32  1  0
 30 24  2  0
 31 30  1  0
M  END
$$$$
