YVY.pdb
     RDKit          3D

 32 33  0  0  1  0  0  0  0  0999 V2000
   20.3305  -12.5453  -24.9530 O   0  0  0  0  0  0  0  0  0  0  0  0
   20.2173  -11.9561  -23.7035 C   0  0  0  0  0  0  0  0  0  0  0  0
   19.0096  -11.6374  -23.1369 C   0  0  0  0  0  0  0  0  0  0  0  0
   18.9407  -11.0506  -21.8883 C   0  0  0  0  0  0  0  0  0  0  0  0
   20.0789  -10.7589  -21.1558 C   0  0  0  0  0  0  0  0  0  0  0  0
   19.9941  -10.1256  -19.8091 C   0  0  0  0  0  0  0  0  0  0  0  0
   20.3516  -11.1611  -18.7789 C   0  0  2  0  0  0  0  0  0  0  0  0
   19.3334  -12.1715  -18.7395 N   0  0  0  0  0  0  0  0  0  0  0  0
   20.5344  -10.5122  -17.4541 C   0  0  0  0  0  0  0  0  0  0  0  0
   19.5352  -10.3454  -16.7088 O   0  0  0  0  0  0  0  0  0  0  0  0
   21.2873  -11.0845  -21.7369 C   0  0  0  0  0  0  0  0  0  0  0  0
   21.3719  -11.6754  -22.9929 C   0  0  0  0  0  0  0  0  0  0  0  0
   23.1324   -9.3711  -13.5100 C   0  0  0  0  0  0  0  0  0  0  0  0
   23.0545  -10.0118  -14.8751 C   0  0  1  0  0  0  0  0  0  0  0  0
   22.9704  -11.5045  -14.7255 C   0  0  0  0  0  0  0  0  0  0  0  0
   21.9068   -9.4497  -15.6890 C   0  0  2  0  0  0  0  0  0  0  0  0
   21.7921  -10.0629  -16.9745 N   0  0  0  0  0  0  0  0  0  0  0  0
   22.0430   -7.9525  -15.7954 C   0  0  0  0  0  0  0  0  0  0  0  0
   22.9582   -7.5354  -16.5621 O   0  0  0  0  0  0  0  0  0  0  0  0
   21.0149    0.1682  -17.7256 O   0  0  0  0  0  0  0  0  0  0  0  0
   21.0185   -1.2118  -17.4612 C   0  0  0  0  0  0  0  0  0  0  0  0
   19.8515   -1.9310  -17.5959 C   0  0  0  0  0  0  0  0  0  0  0  0
   19.9150   -3.2802  -17.3235 C   0  0  0  0  0  0  0  0  0  0  0  0
   21.0828   -3.9035  -16.9323 C   0  0  0  0  0  0  0  0  0  0  0  0
   21.1182   -5.3541  -16.6374 C   0  0  0  0  0  0  0  0  0  0  0  0
   21.2399   -5.7013  -15.2000 C   0  0  2  0  0  0  0  0  0  0  0  0
   21.1719   -7.1277  -15.0592 N   0  0  0  0  0  0  0  0  0  0  0  0
   20.3098   -4.9860  -14.2947 C   0  0  0  0  0  0  0  0  0  0  0  0
   19.1913   -5.4438  -13.9637 O   0  0  0  0  0  0  0  0  0  0  0  0
   22.2493   -3.1834  -16.7975 C   0  0  0  0  0  0  0  0  0  0  0  0
   22.1888   -1.8183  -17.0724 C   0  0  0  0  0  0  0  0  0  0  0  0
   20.6463   -3.7502  -13.7653 O   0  0  0  0  0  0  0  0  0  0  0  0
  2  1  1  0
  3  2  2  0
  4  3  1  0
  5 11  1  0
  5  4  2  0
  6  7  1  0
  6  5  1  0
  7  8  1  1
  9  7  1  0
  9 17  1  0
 10  9  2  0
 11 12  2  0
 12  2  1  0
 14 13  1  1
 14 15  1  0
 14 16  1  0
 16 17  1  6
 16 18  1  0
 18 27  1  0
 19 18  2  0
 20 21  1  0
 21 31  2  0
 21 22  1  0
 22 23  2  0
 23 24  1  0
 24 25  1  0
 26 25  1  6
 26 28  1  0
 27 26  1  0
 28 29  2  0
 28 32  1  0
 30 24  2  0
 31 30  1  0
M  END
$$$$
