YVY.pdb
     RDKit          3D

 32 33  0  0  1  0  0  0  0  0999 V2000
   17.1780  -17.5212  -14.2022 O   0  0  0  0  0  0  0  0  0  0  0  0
   18.3050  -18.1494  -13.6954 C   0  0  0  0  0  0  0  0  0  0  0  0
   19.5483  -17.5705  -13.7055 C   0  0  0  0  0  0  0  0  0  0  0  0
   20.6464  -18.2313  -13.1899 C   0  0  0  0  0  0  0  0  0  0  0  0
   20.5440  -19.4992  -12.6430 C   0  0  0  0  0  0  0  0  0  0  0  0
   21.7349  -20.2040  -12.0892 C   0  0  0  0  0  0  0  0  0  0  0  0
   22.6543  -20.5422  -13.2302 C   0  0  2  0  0  0  0  0  0  0  0  0
   22.0191  -21.4975  -14.0922 N   0  0  0  0  0  0  0  0  0  0  0  0
   23.9470  -21.0515  -12.7022 C   0  0  0  0  0  0  0  0  0  0  0  0
   23.9958  -22.2066  -12.2070 O   0  0  0  0  0  0  0  0  0  0  0  0
   19.2879  -20.0703  -12.6390 C   0  0  0  0  0  0  0  0  0  0  0  0
   18.1737  -19.4170  -13.1545 C   0  0  0  0  0  0  0  0  0  0  0  0
   28.8407  -21.0749  -12.5355 C   0  0  0  0  0  0  0  0  0  0  0  0
   27.5528  -20.5510  -13.1245 C   0  0  1  0  0  0  0  0  0  0  0  0
   27.3733  -21.1022  -14.5107 C   0  0  0  0  0  0  0  0  0  0  0  0
   26.3684  -20.8509  -12.2284 C   0  0  2  0  0  0  0  0  0  0  0  0
   25.1487  -20.2970  -12.7253 N   0  0  0  0  0  0  0  0  0  0  0  0
   26.6610  -20.3864  -10.8248 C   0  0  0  0  0  0  0  0  0  0  0  0
   25.9790  -19.4027  -10.4164 O   0  0  0  0  0  0  0  0  0  0  0  0
   28.4542  -18.4493   -2.7957 O   0  0  0  0  0  0  0  0  0  0  0  0
   28.0771  -18.9471   -4.0544 C   0  0  0  0  0  0  0  0  0  0  0  0
   27.0878  -19.9019   -4.1373 C   0  0  0  0  0  0  0  0  0  0  0  0
   26.7596  -20.3528   -5.3973 C   0  0  0  0  0  0  0  0  0  0  0  0
   27.3800  -19.8837   -6.5376 C   0  0  0  0  0  0  0  0  0  0  0  0
   27.0122  -20.3942   -7.8781 C   0  0  0  0  0  0  0  0  0  0  0  0
   28.1305  -20.4735   -8.8499 C   0  0  2  0  0  0  0  0  0  0  0  0
   27.6453  -21.0517  -10.0702 N   0  0  0  0  0  0  0  0  0  0  0  0
   29.3605  -21.1302   -8.3479 C   0  0  0  0  0  0  0  0  0  0  0  0
   29.7382  -22.2606   -8.7351 O   0  0  0  0  0  0  0  0  0  0  0  0
   28.3694  -18.9290   -6.4538 C   0  0  0  0  0  0  0  0  0  0  0  0
   28.7039  -18.4705   -5.1807 C   0  0  0  0  0  0  0  0  0  0  0  0
   30.1625  -20.5067   -7.4052 O   0  0  0  0  0  0  0  0  0  0  0  0
  2  1  1  0
  3  2  2  0
  4  3  1  0
  5 11  1  0
  5  4  2  0
  6  7  1  0
  6  5  1  0
  7  8  1  6
  9  7  1  0
  9 17  1  0
 10  9  2  0
 11 12  2  0
 12  2  1  0
 14 13  1  1
 14 15  1  0
 14 16  1  0
 16 17  1  6
 16 18  1  0
 18 27  1  0
 19 18  2  0
 20 21  1  0
 21 31  2  0
 21 22  1  0
 22 23  2  0
 23 24  1  0
 24 25  1  0
 26 25  1  1
 26 28  1  0
 27 26  1  0
 28 29  2  0
 28 32  1  0
 30 24  2  0
 31 30  1  0
M  END
$$$$
