PKR.pdb
     RDKit          3D

 28 28  0  0  1  0  0  0  0  0999 V2000
    9.0417  -14.6163   18.0081 N   0  0  0  0  0  0  0  0  0  0  0  0
    8.1864  -14.0968   16.9783 C   0  0  0  0  0  0  0  0  0  0  0  0
    7.1320  -13.2610   17.6164 C   0  0  0  0  0  0  0  0  0  0  0  0
    7.4773  -13.1867   19.0640 C   0  0  0  0  0  0  0  0  0  0  0  0
    8.7768  -13.9062   19.2097 C   0  0  1  0  0  0  0  0  0  0  0  0
    8.7324  -14.8831   20.3608 C   0  0  0  0  0  0  0  0  0  0  0  0
    8.2317  -14.5235   21.4572 O   0  0  0  0  0  0  0  0  0  0  0  0
    9.2565  -16.1694   20.1614 N   0  0  0  0  0  0  0  0  0  0  0  0
    9.2754  -17.2244   21.1326 C   0  0  1  0  0  0  0  0  0  0  0  0
    9.7513  -18.5696   20.5690 C   0  0  0  0  0  0  0  0  0  0  0  0
    8.7364  -19.1450   19.6172 C   0  0  0  0  0  0  0  0  0  0  0  0
    9.2870  -20.3818   18.9732 C   0  0  0  0  0  0  0  0  0  0  0  0
    8.3044  -20.9682   17.9996 C   0  0  0  0  0  0  0  0  0  0  0  0
    8.8657  -22.1234   17.3331 N   0  0  0  0  0  0  0  0  0  0  0  0
    9.9446  -16.9173   22.3898 C   0  0  0  0  0  0  0  0  0  0  0  0
   11.1557  -16.5248   22.3867 O   0  0  0  0  0  0  0  0  0  0  0  0
    5.2523  -12.5653   26.8728 N   0  0  0  0  0  0  0  0  0  0  0  0
    6.1967  -11.9025   26.0307 C   0  0  0  0  0  0  0  0  0  0  0  0
    6.0022  -10.6810   25.7424 N   0  0  0  0  0  0  0  0  0  0  0  0
    7.3146  -12.6133   25.5423 N   0  0  0  0  0  0  0  0  0  0  0  0
    7.5449  -13.9650   25.9478 C   0  0  0  0  0  0  0  0  0  0  0  0
    8.8265  -14.4833   25.3240 C   0  0  0  0  0  0  0  0  0  0  0  0
    8.9878  -15.9306   25.7742 C   0  0  0  0  0  0  0  0  0  0  0  0
   10.0350  -16.5953   24.8826 C   0  0  2  0  0  0  0  0  0  0  0  0
    9.3364  -17.0228   23.6672 N   0  0  0  0  0  0  0  0  0  0  0  0
   10.5578  -17.7592   25.6403 C   0  0  0  0  0  0  0  0  0  0  0  0
   10.2754  -18.9333   25.3617 O   0  0  0  0  0  0  0  0  0  0  0  0
   11.4089  -17.4890   26.7169 O   0  0  0  0  0  0  0  0  0  0  0  0
  1  2  1  0
  3  2  1  0
  4  3  1  0
  5  4  1  0
  5  1  1  0
  6  8  1  0
  5  6  1  1
  7  6  2  0
  9  8  1  0
 10 11  1  0
  9 10  1  6
 12 11  1  0
 13 14  1  0
 13 12  1  0
 15 16  2  0
 15  9  1  0
 17 18  1  0
 18 19  2  0
 20 18  1  0
 20 21  1  0
 21 22  1  0
 22 23  1  0
 24 23  1  1
 24 25  1  0
 24 26  1  0
 25 15  1  0
 26 28  1  0
 27 26  2  0
M  END
$$$$
