PKR.pdb
     RDKit          3D

 28 28  0  0  1  0  0  0  0  0999 V2000
    8.5255  -14.5562   16.9176 N   0  0  0  0  0  0  0  0  0  0  0  0
    7.6204  -13.8457   16.0587 C   0  0  0  0  0  0  0  0  0  0  0  0
    6.9767  -12.7581   16.8463 C   0  0  0  0  0  0  0  0  0  0  0  0
    7.6418  -12.7583   18.1796 C   0  0  0  0  0  0  0  0  0  0  0  0
    8.7196  -13.7875   18.0964 C   0  0  1  0  0  0  0  0  0  0  0  0
    8.6893  -14.7059   19.2951 C   0  0  0  0  0  0  0  0  0  0  0  0
    8.6086  -14.2126   20.4494 O   0  0  0  0  0  0  0  0  0  0  0  0
    8.7524  -16.0901   19.0737 N   0  0  0  0  0  0  0  0  0  0  0  0
    8.6227  -17.1046   20.0789 C   0  0  1  0  0  0  0  0  0  0  0  0
    8.5154  -18.5246   19.5082 C   0  0  0  0  0  0  0  0  0  0  0  0
    7.2409  -18.6964   18.7252 C   0  0  0  0  0  0  0  0  0  0  0  0
    7.1504  -20.0984   18.2021 C   0  0  0  0  0  0  0  0  0  0  0  0
    5.9208  -20.2829   17.3586 C   0  0  0  0  0  0  0  0  0  0  0  0
    5.8063  -21.6528   16.9067 N   0  0  0  0  0  0  0  0  0  0  0  0
    9.5919  -17.0487   21.1652 C   0  0  0  0  0  0  0  0  0  0  0  0
   10.8385  -17.0598   20.9070 O   0  0  0  0  0  0  0  0  0  0  0  0
    9.1364  -13.9797   29.4138 N   0  0  0  0  0  0  0  0  0  0  0  0
   10.1357  -14.9983   29.4779 C   0  0  0  0  0  0  0  0  0  0  0  0
   10.6594  -15.2667   30.6034 N   0  0  0  0  0  0  0  0  0  0  0  0
   10.5155  -15.6775   28.2997 N   0  0  0  0  0  0  0  0  0  0  0  0
    9.9246  -15.3322   27.0443 C   0  0  0  0  0  0  0  0  0  0  0  0
   10.5829  -16.1182   25.9266 C   0  0  0  0  0  0  0  0  0  0  0  0
    9.5812  -16.1866   24.7798 C   0  0  0  0  0  0  0  0  0  0  0  0
   10.2760  -16.8175   23.5745 C   0  0  2  0  0  0  0  0  0  0  0  0
    9.2501  -16.9801   22.5404 N   0  0  0  0  0  0  0  0  0  0  0  0
   10.7969  -18.1313   24.0269 C   0  0  0  0  0  0  0  0  0  0  0  0
   10.1225  -19.1709   24.0123 O   0  0  0  0  0  0  0  0  0  0  0  0
   12.1171  -18.1693   24.4874 O   0  0  0  0  0  0  0  0  0  0  0  0
  1  2  1  0
  3  2  1  0
  4  3  1  0
  5  4  1  0
  5  1  1  0
  6  8  1  0
  5  6  1  1
  7  6  2  0
  9  8  1  0
 10 11  1  0
  9 10  1  6
 12 11  1  0
 13 14  1  0
 13 12  1  0
 15 16  2  0
 15  9  1  0
 17 18  1  0
 18 19  2  0
 20 18  1  0
 20 21  1  0
 21 22  1  0
 22 23  1  0
 24 23  1  1
 24 25  1  0
 24 26  1  0
 25 15  1  0
 26 28  1  0
 27 26  2  0
M  END
$$$$
