PKR.pdb
     RDKit          3D

 28 28  0  0  1  0  0  0  0  0999 V2000
    7.1547  -14.6465   19.3862 N   0  0  0  0  0  0  0  0  0  0  0  0
    6.5720  -13.8027   18.3810 C   0  0  0  0  0  0  0  0  0  0  0  0
    7.5284  -12.7033   18.0742 C   0  0  0  0  0  0  0  0  0  0  0  0
    8.7713  -13.0058   18.8382 C   0  0  0  0  0  0  0  0  0  0  0  0
    8.5340  -14.3246   19.4955 C   0  0  1  0  0  0  0  0  0  0  0  0
    8.9166  -14.2817   20.9561 C   0  0  0  0  0  0  0  0  0  0  0  0
   10.1330  -14.2682   21.2759 O   0  0  0  0  0  0  0  0  0  0  0  0
    7.8894  -14.2578   21.9117 N   0  0  0  0  0  0  0  0  0  0  0  0
    8.0678  -14.1177   23.3278 C   0  0  1  0  0  0  0  0  0  0  0  0
    6.9309  -13.3522   24.0173 C   0  0  0  0  0  0  0  0  0  0  0  0
    7.2692  -13.0648   25.4560 C   0  0  0  0  0  0  0  0  0  0  0  0
    6.2041  -12.2046   26.0668 C   0  0  0  0  0  0  0  0  0  0  0  0
    6.4809  -11.9520   27.5218 C   0  0  0  0  0  0  0  0  0  0  0  0
    5.4867  -11.0672   28.0898 N   0  0  0  0  0  0  0  0  0  0  0  0
    8.3888  -15.3413   24.0507 C   0  0  0  0  0  0  0  0  0  0  0  0
    7.4688  -16.1761   24.3288 O   0  0  0  0  0  0  0  0  0  0  0  0
   12.8342  -23.2599   24.1466 N   0  0  0  0  0  0  0  0  0  0  0  0
   13.0982  -21.9173   24.5567 C   0  0  0  0  0  0  0  0  0  0  0  0
   14.2926  -21.4889   24.5037 N   0  0  0  0  0  0  0  0  0  0  0  0
   12.0355  -21.1042   25.0075 N   0  0  0  0  0  0  0  0  0  0  0  0
   11.7595  -19.8556   24.3677 C   0  0  0  0  0  0  0  0  0  0  0  0
   11.6355  -18.7564   25.4053 C   0  0  0  0  0  0  0  0  0  0  0  0
   11.2914  -17.4739   24.6570 C   0  0  0  0  0  0  0  0  0  0  0  0
    9.9478  -16.9636   25.1747 C   0  0  2  0  0  0  0  0  0  0  0  0
    9.6915  -15.6946   24.4876 N   0  0  0  0  0  0  0  0  0  0  0  0
   10.1073  -16.7615   26.6362 C   0  0  0  0  0  0  0  0  0  0  0  0
   10.4847  -15.6924   27.1368 O   0  0  0  0  0  0  0  0  0  0  0  0
    9.8102  -17.8474   27.4662 O   0  0  0  0  0  0  0  0  0  0  0  0
  1  2  1  0
  3  2  1  0
  4  3  1  0
  5  4  1  0
  5  1  1  0
  6  8  1  0
  5  6  1  1
  7  6  2  0
  9  8  1  0
 10 11  1  0
  9 10  1  1
 12 11  1  0
 13 14  1  0
 13 12  1  0
 15 16  2  0
 15  9  1  0
 17 18  1  0
 18 19  2  0
 20 18  1  0
 20 21  1  0
 21 22  1  0
 22 23  1  0
 24 23  1  6
 24 25  1  0
 24 26  1  0
 25 15  1  0
 26 28  1  0
 27 26  2  0
M  END
$$$$
