PKR.pdb
     RDKit          3D

 28 28  0  0  1  0  0  0  0  0999 V2000
    6.5410  -20.1157   19.3163 N   0  0  0  0  0  0  0  0  0  0  0  0
    5.5809  -20.1598   18.2494 C   0  0  0  0  0  0  0  0  0  0  0  0
    6.2420  -19.6945   16.9989 C   0  0  0  0  0  0  0  0  0  0  0  0
    7.6814  -19.5038   17.3336 C   0  0  0  0  0  0  0  0  0  0  0  0
    7.8331  -19.9541   18.7485 C   0  0  1  0  0  0  0  0  0  0  0  0
    8.6067  -18.9433   19.5617 C   0  0  0  0  0  0  0  0  0  0  0  0
    9.8416  -19.1062   19.7368 O   0  0  0  0  0  0  0  0  0  0  0  0
    7.9112  -17.8483   20.0967 N   0  0  0  0  0  0  0  0  0  0  0  0
    8.4977  -16.7574   20.8196 C   0  0  1  0  0  0  0  0  0  0  0  0
    7.6085  -15.5083   20.8744 C   0  0  0  0  0  0  0  0  0  0  0  0
    8.4327  -14.2539   20.7551 C   0  0  0  0  0  0  0  0  0  0  0  0
    7.7983  -13.3205   19.7683 C   0  0  0  0  0  0  0  0  0  0  0  0
    8.6071  -12.0637   19.6151 C   0  0  0  0  0  0  0  0  0  0  0  0
    8.1241  -11.2717   18.5045 N   0  0  0  0  0  0  0  0  0  0  0  0
    9.0268  -17.0815   22.1377 C   0  0  0  0  0  0  0  0  0  0  0  0
    8.3052  -17.7122   22.9757 O   0  0  0  0  0  0  0  0  0  0  0  0
   13.1604  -21.9751   24.1369 N   0  0  0  0  0  0  0  0  0  0  0  0
   14.4071  -21.5104   24.6565 C   0  0  0  0  0  0  0  0  0  0  0  0
   14.9583  -22.1673   25.5934 N   0  0  0  0  0  0  0  0  0  0  0  0
   14.9934  -20.3424   24.1222 N   0  0  0  0  0  0  0  0  0  0  0  0
   14.2530  -19.5056   23.2299 C   0  0  0  0  0  0  0  0  0  0  0  0
   13.0465  -18.9254   23.9426 C   0  0  0  0  0  0  0  0  0  0  0  0
   12.2803  -18.0959   22.9188 C   0  0  0  0  0  0  0  0  0  0  0  0
   11.0256  -17.5436   23.5929 C   0  0  2  0  0  0  0  0  0  0  0  0
   10.3298  -16.7404   22.5834 N   0  0  0  0  0  0  0  0  0  0  0  0
   11.4891  -16.7022   24.7239 C   0  0  0  0  0  0  0  0  0  0  0  0
   12.1114  -17.1537   25.6959 O   0  0  0  0  0  0  0  0  0  0  0  0
   11.1958  -15.3359   24.6642 O   0  0  0  0  0  0  0  0  0  0  0  0
  1  2  1  0
  3  2  1  0
  4  3  1  0
  5  4  1  0
  5  1  1  0
  6  8  1  0
  5  6  1  1
  7  6  2  0
  9  8  1  0
 10 11  1  0
  9 10  1  1
 12 11  1  0
 13 14  1  0
 13 12  1  0
 15 16  2  0
 15  9  1  0
 17 18  1  0
 18 19  2  0
 20 18  1  0
 20 21  1  0
 21 22  1  0
 22 23  1  0
 24 23  1  6
 24 25  1  0
 24 26  1  0
 25 15  1  0
 26 28  1  0
 27 26  2  0
M  END
$$$$
