PKR.pdb
     RDKit          3D

 28 28  0  0  1  0  0  0  0  0999 V2000
    9.7197  -19.1943   18.9188 N   0  0  0  0  0  0  0  0  0  0  0  0
    9.1544  -19.4513   17.6241 C   0  0  0  0  0  0  0  0  0  0  0  0
    9.8404  -18.5829   16.6277 C   0  0  0  0  0  0  0  0  0  0  0  0
   10.9408  -17.8957   17.3605 C   0  0  0  0  0  0  0  0  0  0  0  0
   10.9209  -18.4563   18.7435 C   0  0  1  0  0  0  0  0  0  0  0  0
   10.9800  -17.3570   19.7777 C   0  0  0  0  0  0  0  0  0  0  0  0
   11.9810  -16.5961   19.8138 O   0  0  0  0  0  0  0  0  0  0  0  0
    9.9042  -17.2240   20.6686 N   0  0  0  0  0  0  0  0  0  0  0  0
    9.8099  -16.2623   21.7282 C   0  0  1  0  0  0  0  0  0  0  0  0
    8.5862  -15.3436   21.6167 C   0  0  0  0  0  0  0  0  0  0  0  0
    8.6567  -14.5000   20.3716 C   0  0  0  0  0  0  0  0  0  0  0  0
    7.4244  -13.6536   20.2603 C   0  0  0  0  0  0  0  0  0  0  0  0
    7.4837  -12.7683   19.0478 C   0  0  0  0  0  0  0  0  0  0  0  0
    6.2965  -11.9467   18.9506 N   0  0  0  0  0  0  0  0  0  0  0  0
    9.9461  -16.7912   23.0789 C   0  0  0  0  0  0  0  0  0  0  0  0
    9.0280  -17.5228   23.5714 O   0  0  0  0  0  0  0  0  0  0  0  0
   14.7456  -15.4809   22.4826 N   0  0  0  0  0  0  0  0  0  0  0  0
   15.7372  -16.4992   22.6241 C   0  0  0  0  0  0  0  0  0  0  0  0
   16.4835  -16.7637   21.6311 N   0  0  0  0  0  0  0  0  0  0  0  0
   15.8645  -17.1824   23.8532 N   0  0  0  0  0  0  0  0  0  0  0  0
   14.9487  -16.9256   24.9209 C   0  0  0  0  0  0  0  0  0  0  0  0
   13.5445  -17.3226   24.5076 C   0  0  0  0  0  0  0  0  0  0  0  0
   12.6272  -17.0040   25.6825 C   0  0  0  0  0  0  0  0  0  0  0  0
   11.1822  -17.2054   25.2299 C   0  0  2  0  0  0  0  0  0  0  0  0
   11.0596  -16.5503   23.9244 N   0  0  0  0  0  0  0  0  0  0  0  0
   10.3253  -16.5452   26.2457 C   0  0  0  0  0  0  0  0  0  0  0  0
    9.7241  -15.4813   26.0394 O   0  0  0  0  0  0  0  0  0  0  0  0
   10.2079  -17.1765   27.4883 O   0  0  0  0  0  0  0  0  0  0  0  0
  1  2  1  0
  3  2  1  0
  4  3  1  0
  5  4  1  0
  5  1  1  0
  6  8  1  0
  5  6  1  1
  7  6  2  0
  9  8  1  0
 10 11  1  0
  9 10  1  1
 12 11  1  0
 13 14  1  0
 13 12  1  0
 15 16  2  0
 15  9  1  0
 17 18  1  0
 18 19  2  0
 20 18  1  0
 20 21  1  0
 21 22  1  0
 22 23  1  0
 24 23  1  1
 24 25  1  0
 24 26  1  0
 25 15  1  0
 26 28  1  0
 27 26  2  0
M  END
$$$$
