PKR.pdb
     RDKit          3D

 28 28  0  0  1  0  0  0  0  0999 V2000
    8.4213  -14.8861   17.9619 N   0  0  0  0  0  0  0  0  0  0  0  0
    7.5159  -14.3807   16.9685 C   0  0  0  0  0  0  0  0  0  0  0  0
    6.9298  -13.1060   17.4676 C   0  0  0  0  0  0  0  0  0  0  0  0
    7.6315  -12.7958   18.7449 C   0  0  0  0  0  0  0  0  0  0  0  0
    8.6728  -13.8531   18.9042 C   0  0  1  0  0  0  0  0  0  0  0  0
    8.6463  -14.4382   20.2966 C   0  0  0  0  0  0  0  0  0  0  0  0
    8.7506  -13.6735   21.2899 O   0  0  0  0  0  0  0  0  0  0  0  0
    8.5044  -15.8276   20.4310 N   0  0  0  0  0  0  0  0  0  0  0  0
    8.4249  -16.5439   21.6709 C   0  0  1  0  0  0  0  0  0  0  0  0
    8.2138  -18.0534   21.4956 C   0  0  0  0  0  0  0  0  0  0  0  0
    9.4776  -18.7237   21.0260 C   0  0  0  0  0  0  0  0  0  0  0  0
    9.2376  -20.1926   20.8461 C   0  0  0  0  0  0  0  0  0  0  0  0
   10.4529  -20.8747   20.2847 C   0  0  0  0  0  0  0  0  0  0  0  0
   10.6290  -22.1836   20.8760 N   0  0  0  0  0  0  0  0  0  0  0  0
    9.4873  -16.2717   22.6300 C   0  0  0  0  0  0  0  0  0  0  0  0
   10.6893  -16.1471   22.2297 O   0  0  0  0  0  0  0  0  0  0  0  0
   10.7094  -15.2338   31.0834 N   0  0  0  0  0  0  0  0  0  0  0  0
   10.0911  -15.9288   29.9995 C   0  0  0  0  0  0  0  0  0  0  0  0
   10.1564  -17.1969   29.9739 N   0  0  0  0  0  0  0  0  0  0  0  0
    9.4273  -15.1976   28.9904 N   0  0  0  0  0  0  0  0  0  0  0  0
   10.0763  -14.0953   28.3513 C   0  0  0  0  0  0  0  0  0  0  0  0
   10.7677  -14.5628   27.0849 C   0  0  0  0  0  0  0  0  0  0  0  0
    9.6907  -15.1489   26.1794 C   0  0  0  0  0  0  0  0  0  0  0  0
   10.3627  -15.6650   24.9084 C   0  0  2  0  0  0  0  0  0  0  0  0
    9.2870  -16.1280   24.0271 N   0  0  0  0  0  0  0  0  0  0  0  0
   11.2410  -16.7877   25.3209 C   0  0  0  0  0  0  0  0  0  0  0  0
   10.8917  -17.9759   25.2744 O   0  0  0  0  0  0  0  0  0  0  0  0
   12.5209  -16.4603   25.7806 O   0  0  0  0  0  0  0  0  0  0  0  0
  1  2  1  0
  3  2  1  0
  4  3  1  0
  5  4  1  0
  5  1  1  0
  6  8  1  0
  5  6  1  1
  7  6  2  0
  9  8  1  0
 10 11  1  0
  9 10  1  6
 12 11  1  0
 13 14  1  0
 13 12  1  0
 15 16  2  0
 15  9  1  0
 17 18  1  0
 18 19  2  0
 20 18  1  0
 20 21  1  0
 21 22  1  0
 22 23  1  0
 24 23  1  1
 24 25  1  0
 24 26  1  0
 25 15  1  0
 26 28  1  0
 27 26  2  0
M  END
$$$$
