PKR.pdb
     RDKit          3D

 28 28  0  0  1  0  0  0  0  0999 V2000
    7.2472  -14.3333   19.2714 N   0  0  0  0  0  0  0  0  0  0  0  0
    6.6959  -13.0100   19.3544 C   0  0  0  0  0  0  0  0  0  0  0  0
    7.8075  -12.0489   19.5954 C   0  0  0  0  0  0  0  0  0  0  0  0
    9.0680  -12.8390   19.5118 C   0  0  0  0  0  0  0  0  0  0  0  0
    8.6566  -14.2224   19.1315 C   0  0  1  0  0  0  0  0  0  0  0  0
    9.3227  -15.2508   20.0148 C   0  0  0  0  0  0  0  0  0  0  0  0
    8.8835  -15.4437   21.1777 O   0  0  0  0  0  0  0  0  0  0  0  0
   10.4178  -15.9605   19.4992 N   0  0  0  0  0  0  0  0  0  0  0  0
   11.2506  -16.8650   20.2374 C   0  0  1  0  0  0  0  0  0  0  0  0
   11.9442  -17.9157   19.3606 C   0  0  0  0  0  0  0  0  0  0  0  0
   13.3974  -17.5766   19.1600 C   0  0  0  0  0  0  0  0  0  0  0  0
   14.0527  -18.6267   18.3144 C   0  0  0  0  0  0  0  0  0  0  0  0
   15.5394  -18.4197   18.2502 C   0  0  0  0  0  0  0  0  0  0  0  0
   16.1640  -19.4217   17.4135 N   0  0  0  0  0  0  0  0  0  0  0  0
   12.1939  -16.2485   21.1608 C   0  0  0  0  0  0  0  0  0  0  0  0
   12.3881  -14.9908   21.1267 O   0  0  0  0  0  0  0  0  0  0  0  0
   11.1199  -15.0685   28.5912 N   0  0  0  0  0  0  0  0  0  0  0  0
   10.1597  -14.3841   27.7850 C   0  0  0  0  0  0  0  0  0  0  0  0
    9.6248  -13.3267   28.2419 N   0  0  0  0  0  0  0  0  0  0  0  0
    9.8299  -14.8936   26.5101 N   0  0  0  0  0  0  0  0  0  0  0  0
   10.2872  -16.1876   26.1087 C   0  0  0  0  0  0  0  0  0  0  0  0
   11.6947  -16.0916   25.5521 C   0  0  0  0  0  0  0  0  0  0  0  0
   11.6362  -16.5714   24.1066 C   0  0  0  0  0  0  0  0  0  0  0  0
   13.0426  -16.4858   23.5165 C   0  0  2  0  0  0  0  0  0  0  0  0
   12.9434  -16.9596   22.1331 N   0  0  0  0  0  0  0  0  0  0  0  0
   13.8984  -17.3826   24.3323 C   0  0  0  0  0  0  0  0  0  0  0  0
   14.6636  -16.9720   25.2164 O   0  0  0  0  0  0  0  0  0  0  0  0
   13.8174  -18.7540   24.0693 O   0  0  0  0  0  0  0  0  0  0  0  0
  1  2  1  0
  3  2  1  0
  4  3  1  0
  5  4  1  0
  5  1  1  0
  6  8  1  0
  5  6  1  1
  7  6  2  0
  9  8  1  0
 10 11  1  0
  9 10  1  6
 12 11  1  0
 13 14  1  0
 13 12  1  0
 15 16  2  0
 15  9  1  0
 17 18  1  0
 18 19  2  0
 20 18  1  0
 20 21  1  0
 21 22  1  0
 22 23  1  0
 24 23  1  1
 24 25  1  0
 24 26  1  0
 25 15  1  0
 26 28  1  0
 27 26  2  0
M  END
$$$$
