PKR.pdb
     RDKit          3D

 28 28  0  0  1  0  0  0  0  0999 V2000
    8.4015  -15.3710   17.9081 N   0  0  0  0  0  0  0  0  0  0  0  0
    7.7537  -14.5534   16.9212 C   0  0  0  0  0  0  0  0  0  0  0  0
    7.7171  -13.1506   17.4194 C   0  0  0  0  0  0  0  0  0  0  0  0
    8.4989  -13.1375   18.6878 C   0  0  0  0  0  0  0  0  0  0  0  0
    9.0469  -14.5172   18.8422 C   0  0  1  0  0  0  0  0  0  0  0  0
    8.8103  -15.0441   20.2378 C   0  0  0  0  0  0  0  0  0  0  0  0
    9.3359  -14.4557   21.2176 O   0  0  0  0  0  0  0  0  0  0  0  0
    8.0040  -16.1822   20.3908 N   0  0  0  0  0  0  0  0  0  0  0  0
    7.8359  -16.9313   21.6021 C   0  0  1  0  0  0  0  0  0  0  0  0
    6.7597  -18.0205   21.5063 C   0  0  0  0  0  0  0  0  0  0  0  0
    5.4248  -17.4289   21.1386 C   0  0  0  0  0  0  0  0  0  0  0  0
    4.4250  -18.5248   20.9224 C   0  0  0  0  0  0  0  0  0  0  0  0
    3.0641  -17.9640   20.6209 C   0  0  0  0  0  0  0  0  0  0  0  0
    2.1454  -19.0156   20.2416 N   0  0  0  0  0  0  0  0  0  0  0  0
    9.0578  -17.4538   22.1994 C   0  0  0  0  0  0  0  0  0  0  0  0
    9.6941  -18.3956   21.6260 O   0  0  0  0  0  0  0  0  0  0  0  0
   13.4044  -16.3277   19.2744 N   0  0  0  0  0  0  0  0  0  0  0  0
   13.3743  -15.0101   19.8252 C   0  0  0  0  0  0  0  0  0  0  0  0
   13.3901  -14.0186   19.0316 N   0  0  0  0  0  0  0  0  0  0  0  0
   13.3281  -14.8409   21.2262 N   0  0  0  0  0  0  0  0  0  0  0  0
   13.6017  -15.9420   22.0964 C   0  0  0  0  0  0  0  0  0  0  0  0
   12.3502  -16.7775   22.2863 C   0  0  0  0  0  0  0  0  0  0  0  0
   11.9755  -16.6902   23.7611 C   0  0  0  0  0  0  0  0  0  0  0  0
   10.7940  -17.6257   24.0110 C   0  0  2  0  0  0  0  0  0  0  0  0
    9.6202  -16.9826   23.4137 N   0  0  0  0  0  0  0  0  0  0  0  0
   10.6522  -17.7433   25.4834 C   0  0  0  0  0  0  0  0  0  0  0  0
    9.7332  -17.2107   26.1220 O   0  0  0  0  0  0  0  0  0  0  0  0
   11.6168  -18.4983   26.1586 O   0  0  0  0  0  0  0  0  0  0  0  0
  1  2  1  0
  3  2  1  0
  4  3  1  0
  5  4  1  0
  5  1  1  0
  6  8  1  0
  5  6  1  1
  7  6  2  0
  9  8  1  0
 10 11  1  0
  9 10  1  6
 12 11  1  0
 13 14  1  0
 13 12  1  0
 15 16  2  0
 15  9  1  0
 17 18  1  0
 18 19  2  0
 20 18  1  0
 20 21  1  0
 21 22  1  0
 22 23  1  0
 24 23  1  1
 24 25  1  0
 24 26  1  0
 25 15  1  0
 26 28  1  0
 27 26  2  0
M  END
$$$$
