PKR.pdb
     RDKit          3D

 28 28  0  0  1  0  0  0  0  0999 V2000
    8.2113  -14.8541   18.3391 N   0  0  0  0  0  0  0  0  0  0  0  0
    7.3584  -14.0624   17.4979 C   0  0  0  0  0  0  0  0  0  0  0  0
    7.0995  -12.7625   18.1766 C   0  0  0  0  0  0  0  0  0  0  0  0
    7.9509  -12.7532   19.3994 C   0  0  0  0  0  0  0  0  0  0  0  0
    8.7518  -14.0115   19.3471 C   0  0  1  0  0  0  0  0  0  0  0  0
    8.7123  -14.7377   20.6709 C   0  0  0  0  0  0  0  0  0  0  0  0
    9.2505  -14.2130   21.6796 O   0  0  0  0  0  0  0  0  0  0  0  0
    8.0693  -15.9836   20.7266 N   0  0  0  0  0  0  0  0  0  0  0  0
    7.9847  -16.8301   21.8811 C   0  0  1  0  0  0  0  0  0  0  0  0
    6.8864  -17.8967   21.7815 C   0  0  0  0  0  0  0  0  0  0  0  0
    6.9381  -18.8356   22.9574 C   0  0  0  0  0  0  0  0  0  0  0  0
    5.9143  -19.9178   22.7895 C   0  0  0  0  0  0  0  0  0  0  0  0
    5.9720  -20.8983   23.9264 C   0  0  0  0  0  0  0  0  0  0  0  0
    5.0731  -22.0086   23.6959 N   0  0  0  0  0  0  0  0  0  0  0  0
    9.2409  -17.4129   22.3338 C   0  0  0  0  0  0  0  0  0  0  0  0
    9.8884  -18.2002   21.5712 O   0  0  0  0  0  0  0  0  0  0  0  0
   17.1661  -15.6429   21.2807 N   0  0  0  0  0  0  0  0  0  0  0  0
   16.9382  -15.8878   22.6694 C   0  0  0  0  0  0  0  0  0  0  0  0
   17.7276  -15.3660   23.5166 N   0  0  0  0  0  0  0  0  0  0  0  0
   15.8509  -16.6967   23.0655 N   0  0  0  0  0  0  0  0  0  0  0  0
   14.5307  -16.1513   23.1310 C   0  0  0  0  0  0  0  0  0  0  0  0
   13.5630  -17.1946   23.6555 C   0  0  0  0  0  0  0  0  0  0  0  0
   12.1597  -16.6216   23.4953 C   0  0  0  0  0  0  0  0  0  0  0  0
   11.1556  -17.6824   23.9423 C   0  0  2  0  0  0  0  0  0  0  0  0
    9.8263  -17.1670   23.6025 N   0  0  0  0  0  0  0  0  0  0  0  0
   11.3179  -17.8259   25.4103 C   0  0  0  0  0  0  0  0  0  0  0  0
   10.4908  -17.4014   26.2299 O   0  0  0  0  0  0  0  0  0  0  0  0
   12.4702  -18.4764   25.8638 O   0  0  0  0  0  0  0  0  0  0  0  0
  1  2  1  0
  3  2  1  0
  4  3  1  0
  5  4  1  0
  5  1  1  0
  6  8  1  0
  5  6  1  1
  7  6  2  0
  9  8  1  0
 10 11  1  0
  9 10  1  6
 12 11  1  0
 13 14  1  0
 13 12  1  0
 15 16  2  0
 15  9  1  0
 17 18  1  0
 18 19  2  0
 20 18  1  0
 20 21  1  0
 21 22  1  0
 22 23  1  0
 24 23  1  1
 24 25  1  0
 24 26  1  0
 25 15  1  0
 26 28  1  0
 27 26  2  0
M  END
$$$$
