PKR.pdb
     RDKit          3D

 28 28  0  0  1  0  0  0  0  0999 V2000
    8.2163  -14.6842   17.8151 N   0  0  0  0  0  0  0  0  0  0  0  0
    7.7853  -13.7777   16.7881 C   0  0  0  0  0  0  0  0  0  0  0  0
    7.5284  -12.4484   17.4081 C   0  0  0  0  0  0  0  0  0  0  0  0
    7.9608  -12.5602   18.8296 C   0  0  0  0  0  0  0  0  0  0  0  0
    8.5445  -13.9265   18.9711 C   0  0  1  0  0  0  0  0  0  0  0  0
    7.9987  -14.6281   20.1923 C   0  0  0  0  0  0  0  0  0  0  0  0
    8.2566  -14.1697   21.3350 O   0  0  0  0  0  0  0  0  0  0  0  0
    7.2156  -15.7771   20.0043 N   0  0  0  0  0  0  0  0  0  0  0  0
    6.5470  -16.5119   21.0386 C   0  0  1  0  0  0  0  0  0  0  0  0
    5.5719  -17.5708   20.5076 C   0  0  0  0  0  0  0  0  0  0  0  0
    4.8949  -18.2965   21.6398 C   0  0  0  0  0  0  0  0  0  0  0  0
    3.9479  -19.3218   21.0927 C   0  0  0  0  0  0  0  0  0  0  0  0
    3.2203  -20.0315   22.1991 C   0  0  0  0  0  0  0  0  0  0  0  0
    2.2733  -20.9860   21.6644 N   0  0  0  0  0  0  0  0  0  0  0  0
    7.4038  -17.0643   22.0794 C   0  0  0  0  0  0  0  0  0  0  0  0
    8.3381  -17.8725   21.7721 O   0  0  0  0  0  0  0  0  0  0  0  0
   10.4316  -13.4289   29.5480 N   0  0  0  0  0  0  0  0  0  0  0  0
   10.2713  -14.8260   29.7983 C   0  0  0  0  0  0  0  0  0  0  0  0
   10.2649  -15.2315   31.0019 N   0  0  0  0  0  0  0  0  0  0  0  0
   10.1248  -15.7166   28.7125 N   0  0  0  0  0  0  0  0  0  0  0  0
    9.0477  -15.5554   27.7860 C   0  0  0  0  0  0  0  0  0  0  0  0
    9.1152  -16.6307   26.7186 C   0  0  0  0  0  0  0  0  0  0  0  0
    8.0398  -16.3047   25.6888 C   0  0  0  0  0  0  0  0  0  0  0  0
    8.3542  -17.0757   24.4081 C   0  0  2  0  0  0  0  0  0  0  0  0
    7.2797  -16.7654   23.4608 N   0  0  0  0  0  0  0  0  0  0  0  0
    8.3531  -18.5148   24.7702 C   0  0  0  0  0  0  0  0  0  0  0  0
    7.3348  -19.2207   24.7455 O   0  0  0  0  0  0  0  0  0  0  0  0
    9.5752  -19.0764   25.1544 O   0  0  0  0  0  0  0  0  0  0  0  0
  1  2  1  0
  3  2  1  0
  4  3  1  0
  5  4  1  0
  5  1  1  0
  6  8  1  0
  5  6  1  1
  7  6  2  0
  9  8  1  0
 10 11  1  0
  9 10  1  6
 12 11  1  0
 13 14  1  0
 13 12  1  0
 15 16  2  0
 15  9  1  0
 17 18  1  0
 18 19  2  0
 20 18  1  0
 20 21  1  0
 21 22  1  0
 22 23  1  0
 24 23  1  1
 24 25  1  0
 24 26  1  0
 25 15  1  0
 26 28  1  0
 27 26  2  0
M  END
$$$$
