PKR.pdb
     RDKit          3D

 28 28  0  0  1  0  0  0  0  0999 V2000
   10.1850  -19.2451   17.6969 N   0  0  0  0  0  0  0  0  0  0  0  0
    9.4441  -19.3349   16.4702 C   0  0  0  0  0  0  0  0  0  0  0  0
    9.6996  -18.1038   15.6723 C   0  0  0  0  0  0  0  0  0  0  0  0
   10.7392  -17.3348   16.4126 C   0  0  0  0  0  0  0  0  0  0  0  0
   11.1262  -18.1881   17.5743 C   0  0  1  0  0  0  0  0  0  0  0  0
   11.1408  -17.3890   18.8560 C   0  0  0  0  0  0  0  0  0  0  0  0
   12.2209  -16.8841   19.2569 O   0  0  0  0  0  0  0  0  0  0  0  0
    9.9357  -17.2379   19.5587 N   0  0  0  0  0  0  0  0  0  0  0  0
    9.7769  -16.5539   20.8092 C   0  0  1  0  0  0  0  0  0  0  0  0
    8.5175  -15.6803   20.8757 C   0  0  0  0  0  0  0  0  0  0  0  0
    8.5477  -14.6089   19.8182 C   0  0  0  0  0  0  0  0  0  0  0  0
    7.2076  -13.9428   19.7307 C   0  0  0  0  0  0  0  0  0  0  0  0
    7.1770  -12.9327   18.6189 C   0  0  0  0  0  0  0  0  0  0  0  0
    5.8548  -12.3620   18.4769 N   0  0  0  0  0  0  0  0  0  0  0  0
    9.9063  -17.3778   22.0037 C   0  0  0  0  0  0  0  0  0  0  0  0
    9.3753  -18.5343   22.0396 O   0  0  0  0  0  0  0  0  0  0  0  0
   13.8061  -22.6567   24.2567 N   0  0  0  0  0  0  0  0  0  0  0  0
   15.0395  -21.9856   23.9946 C   0  0  0  0  0  0  0  0  0  0  0  0
   16.1182  -22.5105   24.4118 N   0  0  0  0  0  0  0  0  0  0  0  0
   15.0321  -20.7653   23.2843 N   0  0  0  0  0  0  0  0  0  0  0  0
   14.4952  -19.5835   23.8840 C   0  0  0  0  0  0  0  0  0  0  0  0
   12.9946  -19.7230   24.0540 C   0  0  0  0  0  0  0  0  0  0  0  0
   12.3471  -18.6296   23.2121 C   0  0  0  0  0  0  0  0  0  0  0  0
   11.2499  -17.9704   24.0457 C   0  0  2  0  0  0  0  0  0  0  0  0
   10.6017  -16.9845   23.1761 N   0  0  0  0  0  0  0  0  0  0  0  0
   11.9265  -17.3143   25.1919 C   0  0  0  0  0  0  0  0  0  0  0  0
   12.2980  -16.1321   25.1753 O   0  0  0  0  0  0  0  0  0  0  0  0
   12.1429  -18.0916   26.3345 O   0  0  0  0  0  0  0  0  0  0  0  0
  1  2  1  0
  3  2  1  0
  4  3  1  0
  5  4  1  0
  5  1  1  0
  6  8  1  0
  5  6  1  1
  7  6  2  0
  9  8  1  0
 10 11  1  0
  9 10  1  6
 12 11  1  0
 13 14  1  0
 13 12  1  0
 15 16  2  0
 15  9  1  0
 17 18  1  0
 18 19  2  0
 20 18  1  0
 20 21  1  0
 21 22  1  0
 22 23  1  0
 24 23  1  6
 24 25  1  0
 24 26  1  0
 25 15  1  0
 26 28  1  0
 27 26  2  0
M  END
$$$$
