PKR.pdb
     RDKit          3D

 28 28  0  0  1  0  0  0  0  0999 V2000
    9.1721  -14.2279   18.7891 N   0  0  0  0  0  0  0  0  0  0  0  0
    8.2272  -13.5915   17.9151 C   0  0  0  0  0  0  0  0  0  0  0  0
    7.2415  -12.8465   18.7464 C   0  0  0  0  0  0  0  0  0  0  0  0
    7.7209  -12.9480   20.1535 C   0  0  0  0  0  0  0  0  0  0  0  0
    9.0244  -13.6719   20.0880 C   0  0  1  0  0  0  0  0  0  0  0  0
    9.0824  -14.7828   21.1098 C   0  0  0  0  0  0  0  0  0  0  0  0
    8.7801  -14.5381   22.3061 O   0  0  0  0  0  0  0  0  0  0  0  0
    9.4749  -16.0600   20.6815 N   0  0  0  0  0  0  0  0  0  0  0  0
    9.5571  -17.2301   21.5066 C   0  0  1  0  0  0  0  0  0  0  0  0
    9.4756  -18.5441   20.7188 C   0  0  0  0  0  0  0  0  0  0  0  0
    9.3655  -19.7239   21.6477 C   0  0  0  0  0  0  0  0  0  0  0  0
    9.1605  -20.9789   20.8537 C   0  0  0  0  0  0  0  0  0  0  0  0
    9.0291  -22.1739   21.7548 C   0  0  0  0  0  0  0  0  0  0  0  0
    8.7641  -23.3718   20.9874 N   0  0  0  0  0  0  0  0  0  0  0  0
   10.6591  -17.2584   22.4592 C   0  0  0  0  0  0  0  0  0  0  0  0
   11.8343  -16.9460   22.0823 O   0  0  0  0  0  0  0  0  0  0  0  0
   11.7003  -21.5671   30.1141 N   0  0  0  0  0  0  0  0  0  0  0  0
   12.7770  -20.6299   30.0616 C   0  0  0  0  0  0  0  0  0  0  0  0
   13.5007  -20.4764   31.0940 N   0  0  0  0  0  0  0  0  0  0  0  0
   13.0106  -19.9020   28.8745 N   0  0  0  0  0  0  0  0  0  0  0  0
   11.9136  -19.3965   28.1092 C   0  0  0  0  0  0  0  0  0  0  0  0
   12.4257  -18.7145   26.8550 C   0  0  0  0  0  0  0  0  0  0  0  0
   11.2136  -18.4304   25.9756 C   0  0  0  0  0  0  0  0  0  0  0  0
   11.6996  -17.7547   24.6946 C   0  0  2  0  0  0  0  0  0  0  0  0
   10.5275  -17.6186   23.8251 N   0  0  0  0  0  0  0  0  0  0  0  0
   12.7110  -18.6609   24.0964 C   0  0  0  0  0  0  0  0  0  0  0  0
   12.4219  -19.7344   23.5488 O   0  0  0  0  0  0  0  0  0  0  0  0
   14.0488  -18.2590   24.1681 O   0  0  0  0  0  0  0  0  0  0  0  0
  1  2  1  0
  3  2  1  0
  4  3  1  0
  5  4  1  0
  5  1  1  0
  6  8  1  0
  5  6  1  1
  7  6  2  0
  9  8  1  0
 10 11  1  0
  9 10  1  6
 12 11  1  0
 13 14  1  0
 13 12  1  0
 15 16  2  0
 15  9  1  0
 17 18  1  0
 18 19  2  0
 20 18  1  0
 20 21  1  0
 21 22  1  0
 22 23  1  0
 24 23  1  1
 24 25  1  0
 24 26  1  0
 25 15  1  0
 26 28  1  0
 27 26  2  0
M  END
$$$$
