YIQ.pdb
     RDKit          3D

 30 30  0  0  1  0  0  0  0  0999 V2000
    7.1760  -14.4004   15.4462 O   0  0  0  0  0  0  0  0  0  0  0  0
    7.6318  -14.2968   16.7625 C   0  0  0  0  0  0  0  0  0  0  0  0
    7.2831  -13.1736   17.4824 C   0  0  0  0  0  0  0  0  0  0  0  0
    7.7095  -13.0220   18.7921 C   0  0  0  0  0  0  0  0  0  0  0  0
    8.4870  -13.9893   19.3947 C   0  0  0  0  0  0  0  0  0  0  0  0
    8.9561  -13.8488   20.7974 C   0  0  0  0  0  0  0  0  0  0  0  0
    8.5050  -15.0410   21.6062 C   0  0  2  0  0  0  0  0  0  0  0  0
    7.0899  -15.2216   21.4285 N   0  0  0  0  0  0  0  0  0  0  0  0
    8.8801  -14.9177   23.0380 C   0  0  0  0  0  0  0  0  0  0  0  0
   10.1135  -14.8019   23.3307 O   0  0  0  0  0  0  0  0  0  0  0  0
    8.8221  -15.1034   18.6532 C   0  0  0  0  0  0  0  0  0  0  0  0
    8.4053  -15.2689   17.3479 C   0  0  0  0  0  0  0  0  0  0  0  0
    6.0853  -11.7739   26.1913 C   0  0  0  0  0  0  0  0  0  0  0  0
    7.1378  -12.6237   25.5153 C   0  0  0  0  0  0  0  0  0  0  0  0
    7.4369  -13.8824   26.2498 C   0  0  2  0  0  0  0  0  0  0  0  0
    7.8246  -13.6215   27.6834 C   0  0  0  0  0  0  0  0  0  0  0  0
    8.3740  -14.7694   25.5043 C   0  0  2  0  0  0  0  0  0  0  0  0
    7.9667  -14.9198   24.0966 N   0  0  0  0  0  0  0  0  0  0  0  0
    8.5258  -16.1336   26.0955 C   0  0  0  0  0  0  0  0  0  0  0  0
    7.5544  -16.9054   26.2935 O   0  0  0  0  0  0  0  0  0  0  0  0
   13.3158  -19.0426   24.6701 N   0  0  0  0  0  0  0  0  0  0  0  0
   12.0731  -18.9080   24.0071 C   0  0  0  0  0  0  0  0  0  0  0  0
   12.0435  -18.9534   22.7609 O   0  0  0  0  0  0  0  0  0  0  0  0
   10.8514  -18.7182   24.7917 C   0  0  0  0  0  0  0  0  0  0  0  0
   11.0434  -18.6695   26.2657 C   0  0  0  0  0  0  0  0  0  0  0  0
    9.9520  -17.9906   27.0363 C   0  0  2  0  0  0  0  0  0  0  0  0
    9.8111  -16.6374   26.4726 N   0  0  0  0  0  0  0  0  0  0  0  0
   10.3036  -17.8568   28.4697 C   0  0  0  0  0  0  0  0  0  0  0  0
   10.5811  -16.7315   28.9378 O   0  0  0  0  0  0  0  0  0  0  0  0
   10.3390  -18.9482   29.3353 O   0  0  0  0  0  0  0  0  0  0  0  0
  2  1  1  0
  3  2  2  0
  4  3  1  0
  5 11  1  0
  5  4  2  0
  6  5  1  0
  7  9  1  0
  7  6  1  0
  7  8  1  1
  9 10  2  0
 11 12  2  0
 12  2  1  0
 14 13  1  0
 15 14  1  0
 15 16  1  1
 17 15  1  0
 17 18  1  6
 18  9  1  0
 19 17  1  0
 20 19  2  0
 21 22  1  0
 22 24  1  0
 22 23  2  0
 24 25  1  0
 26 25  1  6
 26 27  1  0
 27 19  1  0
 28 30  1  0
 28 26  1  0
 29 28  2  0
M  END
$$$$
