YIQ.pdb
     RDKit          3D

 30 30  0  0  1  0  0  0  0  0999 V2000
    7.6969  -23.1236   30.0613 O   0  0  0  0  0  0  0  0  0  0  0  0
    7.8827  -21.9945   29.2602 C   0  0  0  0  0  0  0  0  0  0  0  0
    6.7915  -21.1885   29.0133 C   0  0  0  0  0  0  0  0  0  0  0  0
    6.9222  -20.0565   28.2249 C   0  0  0  0  0  0  0  0  0  0  0  0
    8.1422  -19.7189   27.6763 C   0  0  0  0  0  0  0  0  0  0  0  0
    8.3067  -18.5104   26.8279 C   0  0  0  0  0  0  0  0  0  0  0  0
    7.0372  -18.2577   26.0512 C   0  0  2  0  0  0  0  0  0  0  0  0
    6.7124  -19.4309   25.2865 N   0  0  0  0  0  0  0  0  0  0  0  0
    7.1353  -17.0431   25.2021 C   0  0  0  0  0  0  0  0  0  0  0  0
    7.1743  -17.1921   23.9384 O   0  0  0  0  0  0  0  0  0  0  0  0
    9.2183  -20.5415   27.9383 C   0  0  0  0  0  0  0  0  0  0  0  0
    9.1042  -21.6723   28.7215 C   0  0  0  0  0  0  0  0  0  0  0  0
    7.3884  -11.4793   27.0501 C   0  0  0  0  0  0  0  0  0  0  0  0
    7.5391  -12.9491   26.7274 C   0  0  0  0  0  0  0  0  0  0  0  0
    7.0007  -13.3147   25.3896 C   0  0  2  0  0  0  0  0  0  0  0  0
    5.4947  -13.2502   25.3497 C   0  0  0  0  0  0  0  0  0  0  0  0
    7.5822  -14.5836   24.8676 C   0  0  2  0  0  0  0  0  0  0  0  0
    7.1884  -15.7362   25.6962 N   0  0  0  0  0  0  0  0  0  0  0  0
    9.0727  -14.5738   24.7580 C   0  0  0  0  0  0  0  0  0  0  0  0
    9.8294  -14.3672   25.7395 O   0  0  0  0  0  0  0  0  0  0  0  0
   11.8677  -19.7411   25.4900 N   0  0  0  0  0  0  0  0  0  0  0  0
   12.3345  -18.4160   25.3220 C   0  0  0  0  0  0  0  0  0  0  0  0
   12.9808  -17.8800   26.2445 O   0  0  0  0  0  0  0  0  0  0  0  0
   12.0513  -17.7020   24.0754 C   0  0  0  0  0  0  0  0  0  0  0  0
   10.8593  -16.8132   24.1082 C   0  0  0  0  0  0  0  0  0  0  0  0
   11.0319  -15.4780   23.4498 C   0  0  2  0  0  0  0  0  0  0  0  0
    9.7236  -14.8041   23.5045 N   0  0  0  0  0  0  0  0  0  0  0  0
   11.4152  -15.6220   22.0256 C   0  0  0  0  0  0  0  0  0  0  0  0
   10.5336  -15.5927   21.1400 O   0  0  0  0  0  0  0  0  0  0  0  0
   12.7380  -15.7910   21.6213 O   0  0  0  0  0  0  0  0  0  0  0  0
  2  1  1  0
  3  2  2  0
  4  3  1  0
  5 11  1  0
  5  4  2  0
  6  5  1  0
  7  9  1  0
  7  6  1  0
  7  8  1  6
  9 10  2  0
 11 12  2  0
 12  2  1  0
 14 13  1  0
 15 14  1  0
 15 16  1  1
 17 15  1  0
 17 18  1  1
 18  9  1  0
 19 17  1  0
 20 19  2  0
 21 22  1  0
 22 24  1  0
 22 23  2  0
 24 25  1  0
 26 25  1  6
 26 27  1  0
 27 19  1  0
 28 30  1  0
 28 26  1  0
 29 28  2  0
M  END
$$$$
