YIQ.pdb
     RDKit          3D

 30 30  0  0  1  0  0  0  0  0999 V2000
    5.5581  -23.7780   29.0722 O   0  0  0  0  0  0  0  0  0  0  0  0
    6.0185  -22.6713   28.3548 C   0  0  0  0  0  0  0  0  0  0  0  0
    6.4278  -22.8677   27.0528 C   0  0  0  0  0  0  0  0  0  0  0  0
    6.8929  -21.8031   26.2977 C   0  0  0  0  0  0  0  0  0  0  0  0
    6.9537  -20.5338   26.8348 C   0  0  0  0  0  0  0  0  0  0  0  0
    7.4489  -19.3769   26.0448 C   0  0  0  0  0  0  0  0  0  0  0  0
    6.2966  -18.7275   25.3173 C   0  0  2  0  0  0  0  0  0  0  0  0
    5.7582  -19.6585   24.3633 N   0  0  0  0  0  0  0  0  0  0  0  0
    6.6890  -17.4412   24.6868 C   0  0  0  0  0  0  0  0  0  0  0  0
    6.9755  -17.4400   23.4465 O   0  0  0  0  0  0  0  0  0  0  0  0
    6.5385  -20.3636   28.1394 C   0  0  0  0  0  0  0  0  0  0  0  0
    6.0728  -21.4139   28.9043 C   0  0  0  0  0  0  0  0  0  0  0  0
    5.2723  -12.6318   26.5402 C   0  0  0  0  0  0  0  0  0  0  0  0
    5.7982  -13.5321   25.4447 C   0  0  0  0  0  0  0  0  0  0  0  0
    7.2498  -13.8303   25.5760 C   0  0  2  0  0  0  0  0  0  0  0  0
    8.1060  -12.6499   25.1921 C   0  0  0  0  0  0  0  0  0  0  0  0
    7.6306  -15.1133   24.9206 C   0  0  2  0  0  0  0  0  0  0  0  0
    6.7668  -16.2209   25.3647 N   0  0  0  0  0  0  0  0  0  0  0  0
    9.0538  -15.5133   25.1397 C   0  0  0  0  0  0  0  0  0  0  0  0
    9.4867  -15.9234   26.2456 O   0  0  0  0  0  0  0  0  0  0  0  0
   10.1550  -18.8734   26.6993 N   0  0  0  0  0  0  0  0  0  0  0  0
   11.5358  -18.9511   26.3999 C   0  0  0  0  0  0  0  0  0  0  0  0
   12.2936  -19.5506   27.1887 O   0  0  0  0  0  0  0  0  0  0  0  0
   12.0468  -18.3292   25.1767 C   0  0  0  0  0  0  0  0  0  0  0  0
   11.0423  -17.5782   24.3774 C   0  0  0  0  0  0  0  0  0  0  0  0
   11.3187  -16.1156   24.2041 C   0  0  2  0  0  0  0  0  0  0  0  0
   10.0123  -15.4473   24.0790 N   0  0  0  0  0  0  0  0  0  0  0  0
   12.0894  -15.8530   22.9659 C   0  0  0  0  0  0  0  0  0  0  0  0
   13.3057  -16.1374   22.9204 O   0  0  0  0  0  0  0  0  0  0  0  0
   11.5092  -15.2937   21.8292 O   0  0  0  0  0  0  0  0  0  0  0  0
  2  1  1  0
  3  2  2  0
  4  3  1  0
  5 11  1  0
  5  4  2  0
  6  5  1  0
  7  9  1  0
  7  6  1  0
  7  8  1  6
  9 10  2  0
 11 12  2  0
 12  2  1  0
 14 13  1  0
 15 14  1  0
 15 16  1  6
 17 15  1  0
 17 18  1  1
 18  9  1  0
 19 17  1  0
 20 19  2  0
 21 22  1  0
 22 24  1  0
 22 23  2  0
 24 25  1  0
 26 25  1  6
 26 27  1  0
 27 19  1  0
 28 30  1  0
 28 26  1  0
 29 28  2  0
M  END
$$$$
