YIQ.pdb
     RDKit          3D

 30 30  0  0  1  0  0  0  0  0999 V2000
    1.4422  -20.7683   20.5456 O   0  0  0  0  0  0  0  0  0  0  0  0
    2.5532  -20.1825   21.1569 C   0  0  0  0  0  0  0  0  0  0  0  0
    2.3411  -19.3972   22.2703 C   0  0  0  0  0  0  0  0  0  0  0  0
    3.4093  -18.7931   22.9139 C   0  0  0  0  0  0  0  0  0  0  0  0
    4.6977  -18.9672   22.4524 C   0  0  0  0  0  0  0  0  0  0  0  0
    5.8587  -18.3296   23.1257 C   0  0  0  0  0  0  0  0  0  0  0  0
    6.1269  -16.9792   22.5066 C   0  0  2  0  0  0  0  0  0  0  0  0
    6.5537  -17.1622   21.1460 N   0  0  0  0  0  0  0  0  0  0  0  0
    7.1009  -16.1860   23.2989 C   0  0  0  0  0  0  0  0  0  0  0  0
    8.3383  -16.2997   23.0223 O   0  0  0  0  0  0  0  0  0  0  0  0
    4.8833  -19.7573   21.3369 C   0  0  0  0  0  0  0  0  0  0  0  0
    3.8298  -20.3657   20.6849 C   0  0  0  0  0  0  0  0  0  0  0  0
    7.4238  -11.4946   27.4100 C   0  0  0  0  0  0  0  0  0  0  0  0
    8.0647  -12.6362   26.6530 C   0  0  0  0  0  0  0  0  0  0  0  0
    7.1094  -13.3731   25.7826 C   0  0  2  0  0  0  0  0  0  0  0  0
    5.8276  -13.7045   26.5042 C   0  0  0  0  0  0  0  0  0  0  0  0
    7.7455  -14.5260   25.0849 C   0  0  2  0  0  0  0  0  0  0  0  0
    6.7525  -15.3156   24.3362 N   0  0  0  0  0  0  0  0  0  0  0  0
    8.4932  -15.4514   25.9894 C   0  0  0  0  0  0  0  0  0  0  0  0
    7.9231  -16.2624   26.7613 O   0  0  0  0  0  0  0  0  0  0  0  0
   14.1692  -15.4030   24.8338 N   0  0  0  0  0  0  0  0  0  0  0  0
   13.2944  -16.2822   24.1527 C   0  0  0  0  0  0  0  0  0  0  0  0
   13.4944  -16.5202   22.9447 O   0  0  0  0  0  0  0  0  0  0  0  0
   12.1763  -16.8929   24.8746 C   0  0  0  0  0  0  0  0  0  0  0  0
   12.0515  -16.5003   26.3036 C   0  0  0  0  0  0  0  0  0  0  0  0
   10.6523  -16.4447   26.8375 C   0  0  2  0  0  0  0  0  0  0  0  0
    9.9240  -15.4590   26.0210 N   0  0  0  0  0  0  0  0  0  0  0  0
   10.6278  -15.9829   28.2454 C   0  0  0  0  0  0  0  0  0  0  0  0
   10.4334  -14.7744   28.4984 O   0  0  0  0  0  0  0  0  0  0  0  0
   10.8145  -16.8505   29.3196 O   0  0  0  0  0  0  0  0  0  0  0  0
  2  1  1  0
  3  2  2  0
  4  3  1  0
  5 11  1  0
  5  4  2  0
  6  5  1  0
  7  9  1  0
  7  6  1  0
  7  8  1  6
  9 10  2  0
 11 12  2  0
 12  2  1  0
 14 13  1  0
 15 14  1  0
 15 16  1  1
 17 15  1  0
 17 18  1  1
 18  9  1  0
 19 17  1  0
 20 19  2  0
 21 22  1  0
 22 24  1  0
 22 23  2  0
 24 25  1  0
 26 25  1  6
 26 27  1  0
 27 19  1  0
 28 30  1  0
 28 26  1  0
 29 28  2  0
M  END
$$$$
