YIQ.pdb
     RDKit          3D

 30 30  0  0  1  0  0  0  0  0999 V2000
   13.0054  -19.1622   31.3413 O   0  0  0  0  0  0  0  0  0  0  0  0
   12.2539  -18.6609   30.2759 C   0  0  0  0  0  0  0  0  0  0  0  0
   12.1932  -19.4073   29.1181 C   0  0  0  0  0  0  0  0  0  0  0  0
   11.4614  -18.9549   28.0318 C   0  0  0  0  0  0  0  0  0  0  0  0
   10.7842  -17.7544   28.0913 C   0  0  0  0  0  0  0  0  0  0  0  0
    9.9933  -17.2488   26.9396 C   0  0  0  0  0  0  0  0  0  0  0  0
    8.5195  -17.4035   27.2277 C   0  0  2  0  0  0  0  0  0  0  0  0
    8.2043  -18.8026   27.3271 N   0  0  0  0  0  0  0  0  0  0  0  0
    7.6784  -16.7084   26.2202 C   0  0  0  0  0  0  0  0  0  0  0  0
    6.9360  -17.4138   25.4640 O   0  0  0  0  0  0  0  0  0  0  0  0
   10.8607  -17.0266   29.2607 C   0  0  0  0  0  0  0  0  0  0  0  0
   11.5854  -17.4637   30.3511 C   0  0  0  0  0  0  0  0  0  0  0  0
    7.1236  -11.1779   26.4457 C   0  0  0  0  0  0  0  0  0  0  0  0
    6.6777  -12.6119   26.2667 C   0  0  0  0  0  0  0  0  0  0  0  0
    7.0889  -13.1962   24.9619 C   0  0  2  0  0  0  0  0  0  0  0  0
    6.4681  -12.4685   23.7962 C   0  0  0  0  0  0  0  0  0  0  0  0
    6.9312  -14.6776   24.9247 C   0  0  2  0  0  0  0  0  0  0  0  0
    7.6435  -15.3221   26.0416 N   0  0  0  0  0  0  0  0  0  0  0  0
    7.3897  -15.3098   23.6505 C   0  0  0  0  0  0  0  0  0  0  0  0
    6.6236  -15.9567   22.8934 O   0  0  0  0  0  0  0  0  0  0  0  0
    7.2495  -12.8888   19.0983 N   0  0  0  0  0  0  0  0  0  0  0  0
    8.1808  -13.8211   18.5830 C   0  0  0  0  0  0  0  0  0  0  0  0
    8.3932  -13.8488   17.3541 O   0  0  0  0  0  0  0  0  0  0  0  0
    8.8739  -14.7316   19.4966 C   0  0  0  0  0  0  0  0  0  0  0  0
    8.4746  -14.6249   20.9252 C   0  0  0  0  0  0  0  0  0  0  0  0
    9.1401  -15.5934   21.8552 C   0  0  2  0  0  0  0  0  0  0  0  0
    8.7513  -15.2070   23.2220 N   0  0  0  0  0  0  0  0  0  0  0  0
   10.6165  -15.5112   21.7570 C   0  0  0  0  0  0  0  0  0  0  0  0
   11.2707  -14.9790   22.6795 O   0  0  0  0  0  0  0  0  0  0  0  0
   11.3215  -16.0097   20.6634 O   0  0  0  0  0  0  0  0  0  0  0  0
  2  1  1  0
  3  2  2  0
  4  3  1  0
  5 11  1  0
  5  4  2  0
  6  5  1  0
  7  9  1  0
  7  6  1  0
  7  8  1  6
  9 10  2  0
 11 12  2  0
 12  2  1  0
 14 13  1  0
 15 14  1  0
 15 16  1  6
 17 15  1  0
 17 18  1  1
 18  9  1  0
 19 17  1  0
 20 19  2  0
 21 22  1  0
 22 24  1  0
 22 23  2  0
 24 25  1  0
 26 25  1  6
 26 27  1  0
 27 19  1  0
 28 30  1  0
 28 26  1  0
 29 28  2  0
M  END
$$$$
