YIQ.pdb
     RDKit          3D

 30 30  0  0  1  0  0  0  0  0999 V2000
    4.7167  -19.7240   17.5703 O   0  0  0  0  0  0  0  0  0  0  0  0
    5.4378  -19.1729   18.6321 C   0  0  0  0  0  0  0  0  0  0  0  0
    5.3918  -19.8174   19.8503 C   0  0  0  0  0  0  0  0  0  0  0  0
    6.0892  -19.3121   20.9357 C   0  0  0  0  0  0  0  0  0  0  0  0
    6.8383  -18.1598   20.8154 C   0  0  0  0  0  0  0  0  0  0  0  0
    7.5942  -17.5989   21.9649 C   0  0  0  0  0  0  0  0  0  0  0  0
    7.9345  -16.1535   21.6932 C   0  0  2  0  0  0  0  0  0  0  0  0
    8.8111  -16.0826   20.5559 N   0  0  0  0  0  0  0  0  0  0  0  0
    8.5081  -15.4816   22.8871 C   0  0  0  0  0  0  0  0  0  0  0  0
    9.7719  -15.3436   22.9528 O   0  0  0  0  0  0  0  0  0  0  0  0
    6.8680  -17.5338   19.5863 C   0  0  0  0  0  0  0  0  0  0  0  0
    6.1788  -18.0247   18.4958 C   0  0  0  0  0  0  0  0  0  0  0  0
    6.0561  -11.5713   25.6246 C   0  0  0  0  0  0  0  0  0  0  0  0
    7.1467  -12.4480   25.0508 C   0  0  0  0  0  0  0  0  0  0  0  0
    7.5224  -13.5776   25.9430 C   0  0  2  0  0  0  0  0  0  0  0  0
    8.0925  -13.0969   27.2536 C   0  0  0  0  0  0  0  0  0  0  0  0
    8.3468  -14.6052   25.2465 C   0  0  2  0  0  0  0  0  0  0  0  0
    7.7520  -14.9856   23.9536 N   0  0  0  0  0  0  0  0  0  0  0  0
    8.5725  -15.8502   26.0419 C   0  0  0  0  0  0  0  0  0  0  0  0
    7.6366  -16.5937   26.4291 O   0  0  0  0  0  0  0  0  0  0  0  0
   13.4576  -19.4604   25.2910 N   0  0  0  0  0  0  0  0  0  0  0  0
   12.5374  -18.7791   24.4596 C   0  0  0  0  0  0  0  0  0  0  0  0
   12.7331  -18.7601   23.2278 O   0  0  0  0  0  0  0  0  0  0  0  0
   11.3789  -18.1121   25.0574 C   0  0  0  0  0  0  0  0  0  0  0  0
   11.2958  -18.1890   26.5403 C   0  0  0  0  0  0  0  0  0  0  0  0
   10.1069  -17.5154   27.1555 C   0  0  2  0  0  0  0  0  0  0  0  0
    9.8923  -16.2645   26.4085 N   0  0  0  0  0  0  0  0  0  0  0  0
   10.3560  -17.1664   28.5741 C   0  0  0  0  0  0  0  0  0  0  0  0
   10.5259  -15.9712   28.8980 O   0  0  0  0  0  0  0  0  0  0  0  0
   10.4100  -18.1274   29.5816 O   0  0  0  0  0  0  0  0  0  0  0  0
  2  1  1  0
  3  2  2  0
  4  3  1  0
  5 11  1  0
  5  4  2  0
  6  5  1  0
  7  9  1  0
  7  6  1  0
  7  8  1  6
  9 10  2  0
 11 12  2  0
 12  2  1  0
 14 13  1  0
 15 14  1  0
 15 16  1  1
 17 15  1  0
 17 18  1  6
 18  9  1  0
 19 17  1  0
 20 19  2  0
 21 22  1  0
 22 24  1  0
 22 23  2  0
 24 25  1  0
 26 25  1  6
 26 27  1  0
 27 19  1  0
 28 30  1  0
 28 26  1  0
 29 28  2  0
M  END
$$$$
