YIQ.pdb
     RDKit          3D

 30 30  0  0  1  0  0  0  0  0999 V2000
    7.7195  -23.0264   30.3717 O   0  0  0  0  0  0  0  0  0  0  0  0
    7.7467  -22.1566   29.2791 C   0  0  0  0  0  0  0  0  0  0  0  0
    7.5748  -22.6922   28.0201 C   0  0  0  0  0  0  0  0  0  0  0  0
    7.5934  -21.8727   26.9029 C   0  0  0  0  0  0  0  0  0  0  0  0
    7.7835  -20.5124   27.0320 C   0  0  0  0  0  0  0  0  0  0  0  0
    7.8074  -19.6138   25.8489 C   0  0  0  0  0  0  0  0  0  0  0  0
    6.4911  -18.8829   25.7389 C   0  0  2  0  0  0  0  0  0  0  0  0
    5.4961  -19.7816   25.2202 N   0  0  0  0  0  0  0  0  0  0  0  0
    6.6072  -17.6444   24.9274 C   0  0  0  0  0  0  0  0  0  0  0  0
    6.4223  -17.7273   23.6706 O   0  0  0  0  0  0  0  0  0  0  0  0
    7.9530  -20.0013   28.3021 C   0  0  0  0  0  0  0  0  0  0  0  0
    7.9371  -20.8043   29.4246 C   0  0  0  0  0  0  0  0  0  0  0  0
    5.9720  -12.5629   26.8208 C   0  0  0  0  0  0  0  0  0  0  0  0
    6.0261  -13.6360   25.7565 C   0  0  0  0  0  0  0  0  0  0  0  0
    7.4126  -13.9896   25.3493 C   0  0  2  0  0  0  0  0  0  0  0  0
    8.1014  -12.8506   24.6409 C   0  0  0  0  0  0  0  0  0  0  0  0
    7.4825  -15.2970   24.6374 C   0  0  2  0  0  0  0  0  0  0  0  0
    6.9076  -16.3829   25.4501 N   0  0  0  0  0  0  0  0  0  0  0  0
    8.8631  -15.6985   24.2298 C   0  0  0  0  0  0  0  0  0  0  0  0
    9.6657  -16.2739   25.0066 O   0  0  0  0  0  0  0  0  0  0  0  0
   12.8426  -13.7714   19.0227 N   0  0  0  0  0  0  0  0  0  0  0  0
   12.5031  -15.1327   19.2067 C   0  0  0  0  0  0  0  0  0  0  0  0
   12.4067  -15.8732   18.2076 O   0  0  0  0  0  0  0  0  0  0  0  0
   12.2717  -15.6440   20.5591 C   0  0  0  0  0  0  0  0  0  0  0  0
   10.9077  -15.4092   21.1032 C   0  0  0  0  0  0  0  0  0  0  0  0
   10.6557  -15.9614   22.4734 C   0  0  2  0  0  0  0  0  0  0  0  0
    9.3481  -15.4419   22.9081 N   0  0  0  0  0  0  0  0  0  0  0  0
   11.6786  -15.4982   23.4405 C   0  0  0  0  0  0  0  0  0  0  0  0
   11.4723  -14.4660   24.1146 O   0  0  0  0  0  0  0  0  0  0  0  0
   12.8815  -16.1736   23.6366 O   0  0  0  0  0  0  0  0  0  0  0  0
  2  1  1  0
  3  2  2  0
  4  3  1  0
  5 11  1  0
  5  4  2  0
  6  5  1  0
  7  9  1  0
  7  6  1  0
  7  8  1  6
  9 10  2  0
 11 12  2  0
 12  2  1  0
 14 13  1  0
 15 14  1  0
 15 16  1  6
 17 15  1  0
 17 18  1  1
 18  9  1  0
 19 17  1  0
 20 19  2  0
 21 22  1  0
 22 24  1  0
 22 23  2  0
 24 25  1  0
 26 25  1  6
 26 27  1  0
 27 19  1  0
 28 30  1  0
 28 26  1  0
 29 28  2  0
M  END
$$$$
