YIQ.pdb
     RDKit          3D

 30 30  0  0  1  0  0  0  0  0999 V2000
    7.4540  -10.9684   26.9055 O   0  0  0  0  0  0  0  0  0  0  0  0
    7.1925  -12.3337   26.7686 C   0  0  0  0  0  0  0  0  0  0  0  0
    8.2647  -13.1858   26.6082 C   0  0  0  0  0  0  0  0  0  0  0  0
    8.0598  -14.5490   26.4682 C   0  0  0  0  0  0  0  0  0  0  0  0
    6.7840  -15.0738   26.4869 C   0  0  0  0  0  0  0  0  0  0  0  0
    6.5395  -16.5318   26.3385 C   0  0  0  0  0  0  0  0  0  0  0  0
    6.0895  -16.8310   24.9289 C   0  0  2  0  0  0  0  0  0  0  0  0
    5.5426  -18.1597   24.8820 N   0  0  0  0  0  0  0  0  0  0  0  0
    7.1824  -16.6383   23.9418 C   0  0  0  0  0  0  0  0  0  0  0  0
    8.0417  -17.5674   23.8042 O   0  0  0  0  0  0  0  0  0  0  0  0
    5.7284  -14.2004   26.6486 C   0  0  0  0  0  0  0  0  0  0  0  0
    5.9162  -12.8402   26.7894 C   0  0  0  0  0  0  0  0  0  0  0  0
    6.7356  -12.6128   20.1203 C   0  0  0  0  0  0  0  0  0  0  0  0
    6.9785  -13.9637   20.7552 C   0  0  0  0  0  0  0  0  0  0  0  0
    8.3098  -14.0739   21.4100 C   0  0  2  0  0  0  0  0  0  0  0  0
    9.4377  -13.8064   20.4457 C   0  0  0  0  0  0  0  0  0  0  0  0
    8.4541  -15.3278   22.2024 C   0  0  2  0  0  0  0  0  0  0  0  0
    7.3359  -15.4990   23.1460 N   0  0  0  0  0  0  0  0  0  0  0  0
    9.7328  -15.4223   22.9703 C   0  0  0  0  0  0  0  0  0  0  0  0
   10.0045  -14.6730   23.9414 O   0  0  0  0  0  0  0  0  0  0  0  0
   13.8512  -19.6215   26.7027 N   0  0  0  0  0  0  0  0  0  0  0  0
   13.2647  -19.4745   25.4235 C   0  0  0  0  0  0  0  0  0  0  0  0
   12.7658  -20.4735   24.8675 O   0  0  0  0  0  0  0  0  0  0  0  0
   13.2546  -18.1596   24.7792 C   0  0  0  0  0  0  0  0  0  0  0  0
   11.9905  -17.8027   24.0817 C   0  0  0  0  0  0  0  0  0  0  0  0
   11.9882  -16.4729   23.3908 C   0  0  2  0  0  0  0  0  0  0  0  0
   10.7301  -16.3906   22.6298 N   0  0  0  0  0  0  0  0  0  0  0  0
   13.1129  -16.3584   22.4326 C   0  0  0  0  0  0  0  0  0  0  0  0
   12.9132  -16.5584   21.2151 O   0  0  0  0  0  0  0  0  0  0  0  0
   14.4064  -16.0313   22.8345 O   0  0  0  0  0  0  0  0  0  0  0  0
  2  1  1  0
  3  2  2  0
  4  3  1  0
  5 11  1  0
  5  4  2  0
  6  5  1  0
  7  9  1  0
  7  6  1  0
  7  8  1  1
  9 10  2  0
 11 12  2  0
 12  2  1  0
 14 13  1  0
 15 14  1  0
 15 16  1  6
 17 15  1  0
 17 18  1  1
 18  9  1  0
 19 17  1  0
 20 19  2  0
 21 22  1  0
 22 24  1  0
 22 23  2  0
 24 25  1  0
 26 25  1  6
 26 27  1  0
 27 19  1  0
 28 30  1  0
 28 26  1  0
 29 28  2  0
M  END
$$$$
