YIQ.pdb
     RDKit          3D

 30 30  0  0  1  0  0  0  0  0999 V2000
    5.4670  -10.1749   26.9955 O   0  0  0  0  0  0  0  0  0  0  0  0
    5.9989  -11.4532   26.8105 C   0  0  0  0  0  0  0  0  0  0  0  0
    5.1213  -12.5123   26.7135 C   0  0  0  0  0  0  0  0  0  0  0  0
    5.5974  -13.8006   26.5296 C   0  0  0  0  0  0  0  0  0  0  0  0
    6.9526  -14.0432   26.4410 C   0  0  0  0  0  0  0  0  0  0  0  0
    7.4866  -15.4157   26.2441 C   0  0  0  0  0  0  0  0  0  0  0  0
    6.7364  -16.0976   25.1256 C   0  0  2  0  0  0  0  0  0  0  0  0
    6.0987  -17.2792   25.6392 N   0  0  0  0  0  0  0  0  0  0  0  0
    7.6139  -16.3926   23.9642 C   0  0  0  0  0  0  0  0  0  0  0  0
    8.2006  -17.5216   23.9229 O   0  0  0  0  0  0  0  0  0  0  0  0
    7.8097  -12.9668   26.5411 C   0  0  0  0  0  0  0  0  0  0  0  0
    7.3510  -11.6780   26.7244 C   0  0  0  0  0  0  0  0  0  0  0  0
    7.1077  -12.8454   20.3365 C   0  0  0  0  0  0  0  0  0  0  0  0
    7.2510  -14.3490   20.4123 C   0  0  0  0  0  0  0  0  0  0  0  0
    8.6409  -14.7925   20.7035 C   0  0  2  0  0  0  0  0  0  0  0  0
    9.4070  -15.1134   19.4451 C   0  0  0  0  0  0  0  0  0  0  0  0
    8.6946  -15.8514   21.7507 C   0  0  2  0  0  0  0  0  0  0  0  0
    7.8435  -15.5108   22.9038 N   0  0  0  0  0  0  0  0  0  0  0  0
   10.0707  -16.1435   22.2552 C   0  0  0  0  0  0  0  0  0  0  0  0
   10.7165  -15.3472   22.9814 O   0  0  0  0  0  0  0  0  0  0  0  0
   12.1085  -21.6004   24.1347 N   0  0  0  0  0  0  0  0  0  0  0  0
   13.3526  -20.9589   23.9279 C   0  0  0  0  0  0  0  0  0  0  0  0
   14.4022  -21.5600   24.2331 O   0  0  0  0  0  0  0  0  0  0  0  0
   13.3849  -19.6084   23.3630 C   0  0  0  0  0  0  0  0  0  0  0  0
   12.0605  -19.0417   22.9934 C   0  0  0  0  0  0  0  0  0  0  0  0
   12.0867  -17.6503   22.4372 C   0  0  2  0  0  0  0  0  0  0  0  0
   10.7333  -17.3694   21.9291 N   0  0  0  0  0  0  0  0  0  0  0  0
   13.0353  -17.5377   21.3043 C   0  0  0  0  0  0  0  0  0  0  0  0
   12.6269  -17.7036   20.1347 O   0  0  0  0  0  0  0  0  0  0  0  0
   14.3862  -17.2493   21.4868 O   0  0  0  0  0  0  0  0  0  0  0  0
  2  1  1  0
  3  2  2  0
  4  3  1  0
  5 11  1  0
  5  4  2  0
  6  5  1  0
  7  9  1  0
  7  6  1  0
  7  8  1  1
  9 10  2  0
 11 12  2  0
 12  2  1  0
 14 13  1  0
 15 14  1  0
 15 16  1  6
 17 15  1  0
 17 18  1  1
 18  9  1  0
 19 17  1  0
 20 19  2  0
 21 22  1  0
 22 24  1  0
 22 23  2  0
 24 25  1  0
 26 25  1  6
 26 27  1  0
 27 19  1  0
 28 30  1  0
 28 26  1  0
 29 28  2  0
M  END
$$$$
