YIQ.pdb
     RDKit          3D

 30 30  0  0  1  0  0  0  0  0999 V2000
    7.9170  -14.3755   15.1512 O   0  0  0  0  0  0  0  0  0  0  0  0
    8.2050  -14.1823   16.5044 C   0  0  0  0  0  0  0  0  0  0  0  0
    9.0710  -15.0648   17.1149 C   0  0  0  0  0  0  0  0  0  0  0  0
    9.3898  -14.9175   18.4553 C   0  0  0  0  0  0  0  0  0  0  0  0
    8.8477  -13.8889   19.1979 C   0  0  0  0  0  0  0  0  0  0  0  0
    9.1745  -13.7109   20.6363 C   0  0  0  0  0  0  0  0  0  0  0  0
    8.5297  -14.8111   21.4442 C   0  0  2  0  0  0  0  0  0  0  0  0
    7.1272  -14.8631   21.1327 N   0  0  0  0  0  0  0  0  0  0  0  0
    8.7761  -14.6517   22.9001 C   0  0  0  0  0  0  0  0  0  0  0  0
    9.9785  -14.5226   23.2979 O   0  0  0  0  0  0  0  0  0  0  0  0
    7.9842  -13.0196   18.5639 C   0  0  0  0  0  0  0  0  0  0  0  0
    7.6569  -13.1531   17.2297 C   0  0  0  0  0  0  0  0  0  0  0  0
    6.0688  -11.2685   25.8075 C   0  0  0  0  0  0  0  0  0  0  0  0
    7.0910  -12.2278   25.2400 C   0  0  0  0  0  0  0  0  0  0  0  0
    7.1436  -13.5261   25.9645 C   0  0  2  0  0  0  0  0  0  0  0  0
    7.3727  -13.3392   27.4431 C   0  0  0  0  0  0  0  0  0  0  0  0
    8.0577  -14.5065   25.3133 C   0  0  2  0  0  0  0  0  0  0  0  0
    7.7726  -14.6330   23.8735 N   0  0  0  0  0  0  0  0  0  0  0  0
    8.0215  -15.8723   25.9190 C   0  0  0  0  0  0  0  0  0  0  0  0
    7.0320  -16.6398   25.8173 O   0  0  0  0  0  0  0  0  0  0  0  0
   10.2031  -19.0968   22.5946 N   0  0  0  0  0  0  0  0  0  0  0  0
   10.7179  -19.8771   23.6567 C   0  0  0  0  0  0  0  0  0  0  0  0
   11.4576  -20.8462   23.3930 O   0  0  0  0  0  0  0  0  0  0  0  0
   10.3742  -19.5349   25.0384 C   0  0  0  0  0  0  0  0  0  0  0  0
    9.8092  -18.1733   25.2346 C   0  0  0  0  0  0  0  0  0  0  0  0
    9.4498  -17.8212   26.6463 C   0  0  2  0  0  0  0  0  0  0  0  0
    9.1348  -16.3827   26.6594 N   0  0  0  0  0  0  0  0  0  0  0  0
   10.5873  -18.0507   27.5680 C   0  0  0  0  0  0  0  0  0  0  0  0
   10.9115  -19.2184   27.8744 O   0  0  0  0  0  0  0  0  0  0  0  0
   11.3258  -17.0050   28.1183 O   0  0  0  0  0  0  0  0  0  0  0  0
  2  1  1  0
  3  2  2  0
  4  3  1  0
  5 11  1  0
  5  4  2  0
  6  5  1  0
  7  9  1  0
  7  6  1  0
  7  8  1  1
  9 10  2  0
 11 12  2  0
 12  2  1  0
 14 13  1  0
 15 14  1  0
 15 16  1  1
 17 15  1  0
 17 18  1  6
 18  9  1  0
 19 17  1  0
 20 19  2  0
 21 22  1  0
 22 24  1  0
 22 23  2  0
 24 25  1  0
 26 25  1  6
 26 27  1  0
 27 19  1  0
 28 30  1  0
 28 26  1  0
 29 28  2  0
M  END
$$$$
