YIQ.pdb
     RDKit          3D

 30 30  0  0  1  0  0  0  0  0999 V2000
   13.2277  -18.3352   31.7398 O   0  0  0  0  0  0  0  0  0  0  0  0
   12.4886  -17.8919   30.6405 C   0  0  0  0  0  0  0  0  0  0  0  0
   12.5987  -18.5952   29.4595 C   0  0  0  0  0  0  0  0  0  0  0  0
   11.8868  -18.1972   28.3394 C   0  0  0  0  0  0  0  0  0  0  0  0
   11.0592  -17.0943   28.3877 C   0  0  0  0  0  0  0  0  0  0  0  0
   10.2862  -16.6484   27.1998 C   0  0  0  0  0  0  0  0  0  0  0  0
    8.8211  -16.9491   27.4043 C   0  0  2  0  0  0  0  0  0  0  0  0
    8.6591  -18.3575   27.6431 N   0  0  0  0  0  0  0  0  0  0  0  0
    7.9902  -16.4727   26.2691 C   0  0  0  0  0  0  0  0  0  0  0  0
    7.4370  -17.3410   25.5204 O   0  0  0  0  0  0  0  0  0  0  0  0
   10.9665  -16.4078   29.5807 C   0  0  0  0  0  0  0  0  0  0  0  0
   11.6691  -16.7918   30.7050 C   0  0  0  0  0  0  0  0  0  0  0  0
    7.1148  -10.8954   25.4913 C   0  0  0  0  0  0  0  0  0  0  0  0
    7.4822  -12.3281   25.1759 C   0  0  0  0  0  0  0  0  0  0  0  0
    6.3323  -13.2660   25.2815 C   0  0  2  0  0  0  0  0  0  0  0  0
    5.5430  -13.0519   26.5483 C   0  0  0  0  0  0  0  0  0  0  0  0
    6.7242  -14.6808   25.0254 C   0  0  2  0  0  0  0  0  0  0  0  0
    7.7706  -15.1266   25.9616 N   0  0  0  0  0  0  0  0  0  0  0  0
    7.2007  -14.9410   23.6330 C   0  0  0  0  0  0  0  0  0  0  0  0
    6.4226  -15.0483   22.6524 O   0  0  0  0  0  0  0  0  0  0  0  0
    8.8619  -12.4134   18.9731 N   0  0  0  0  0  0  0  0  0  0  0  0
    8.1082  -13.5911   18.7561 C   0  0  0  0  0  0  0  0  0  0  0  0
    7.6519  -13.8169   17.6173 O   0  0  0  0  0  0  0  0  0  0  0  0
    7.8787  -14.5178   19.8664 C   0  0  0  0  0  0  0  0  0  0  0  0
    8.5331  -14.1477   21.1495 C   0  0  0  0  0  0  0  0  0  0  0  0
    9.0571  -15.2937   21.9606 C   0  0  2  0  0  0  0  0  0  0  0  0
    8.5949  -15.0835   23.3429 N   0  0  0  0  0  0  0  0  0  0  0  0
   10.5388  -15.3177   21.9703 C   0  0  0  0  0  0  0  0  0  0  0  0
   11.1566  -15.0434   23.0217 O   0  0  0  0  0  0  0  0  0  0  0  0
   11.2883  -15.6384   20.8402 O   0  0  0  0  0  0  0  0  0  0  0  0
  2  1  1  0
  3  2  2  0
  4  3  1  0
  5 11  1  0
  5  4  2  0
  6  5  1  0
  7  9  1  0
  7  6  1  0
  7  8  1  6
  9 10  2  0
 11 12  2  0
 12  2  1  0
 14 13  1  0
 15 14  1  0
 15 16  1  1
 17 15  1  0
 17 18  1  1
 18  9  1  0
 19 17  1  0
 20 19  2  0
 21 22  1  0
 22 24  1  0
 22 23  2  0
 24 25  1  0
 26 25  1  6
 26 27  1  0
 27 19  1  0
 28 30  1  0
 28 26  1  0
 29 28  2  0
M  END
$$$$
