YIQ.pdb
     RDKit          3D

 30 30  0  0  1  0  0  0  0  0999 V2000
    9.5450  -22.5435   30.8196 O   0  0  0  0  0  0  0  0  0  0  0  0
    8.8286  -21.6694   29.9986 C   0  0  0  0  0  0  0  0  0  0  0  0
    9.2525  -20.3595   29.9210 C   0  0  0  0  0  0  0  0  0  0  0  0
    8.5769  -19.4520   29.1211 C   0  0  0  0  0  0  0  0  0  0  0  0
    7.4729  -19.8432   28.3919 C   0  0  0  0  0  0  0  0  0  0  0  0
    6.7324  -18.8882   27.5276 C   0  0  0  0  0  0  0  0  0  0  0  0
    7.7067  -18.1185   26.6691 C   0  0  2  0  0  0  0  0  0  0  0  0
    8.7729  -17.6233   27.4965 N   0  0  0  0  0  0  0  0  0  0  0  0
    7.0399  -17.0344   25.9037 C   0  0  0  0  0  0  0  0  0  0  0  0
    6.0509  -17.3396   25.1625 O   0  0  0  0  0  0  0  0  0  0  0  0
    7.0691  -21.1589   28.4867 C   0  0  0  0  0  0  0  0  0  0  0  0
    7.7314  -22.0747   29.2790 C   0  0  0  0  0  0  0  0  0  0  0  0
    7.0456  -11.8144   27.1096 C   0  0  0  0  0  0  0  0  0  0  0  0
    6.5381  -12.9856   26.2987 C   0  0  0  0  0  0  0  0  0  0  0  0
    7.4449  -13.3630   25.1813 C   0  0  2  0  0  0  0  0  0  0  0  0
    7.3757  -12.3794   24.0406 C   0  0  0  0  0  0  0  0  0  0  0  0
    7.2938  -14.7904   24.7808 C   0  0  2  0  0  0  0  0  0  0  0  0
    7.4244  -15.6906   25.9395 N   0  0  0  0  0  0  0  0  0  0  0  0
    8.2591  -15.2366   23.7307 C   0  0  0  0  0  0  0  0  0  0  0  0
    8.0515  -15.0832   22.5011 O   0  0  0  0  0  0  0  0  0  0  0  0
   15.2122  -15.0532   22.0469 N   0  0  0  0  0  0  0  0  0  0  0  0
   14.2133  -15.3386   23.0076 C   0  0  0  0  0  0  0  0  0  0  0  0
   14.4425  -15.0969   24.2097 O   0  0  0  0  0  0  0  0  0  0  0  0
   12.9362  -15.9098   22.5754 C   0  0  0  0  0  0  0  0  0  0  0  0
   11.7668  -15.5726   23.4303 C   0  0  0  0  0  0  0  0  0  0  0  0
   10.4757  -16.2288   23.0453 C   0  0  2  0  0  0  0  0  0  0  0  0
    9.4918  -15.8732   24.0817 N   0  0  0  0  0  0  0  0  0  0  0  0
   10.6045  -17.7049   23.0212 C   0  0  0  0  0  0  0  0  0  0  0  0
   10.1837  -18.3800   23.9853 O   0  0  0  0  0  0  0  0  0  0  0  0
   11.1832  -18.3871   21.9529 O   0  0  0  0  0  0  0  0  0  0  0  0
  2  1  1  0
  3  2  2  0
  4  3  1  0
  5 11  1  0
  5  4  2  0
  6  5  1  0
  7  9  1  0
  7  6  1  0
  7  8  1  1
  9 10  2  0
 11 12  2  0
 12  2  1  0
 14 13  1  0
 15 14  1  0
 15 16  1  6
 17 15  1  0
 17 18  1  1
 18  9  1  0
 19 17  1  0
 20 19  2  0
 21 22  1  0
 22 24  1  0
 22 23  2  0
 24 25  1  0
 26 25  1  1
 26 27  1  0
 27 19  1  0
 28 30  1  0
 28 26  1  0
 29 28  2  0
M  END
$$$$
