ISV.pdb
     RDKit          3D

 22 21  0  0  1  0  0  0  0  0999 V2000
    7.8118  -11.9104   20.7185 C   0  0  0  0  0  0  0  0  0  0  0  0
    7.6385  -13.3931   20.8276 C   0  0  0  0  0  0  0  0  0  0  0  0
    8.6988  -14.1661   20.0963 C   0  0  2  0  0  0  0  0  0  0  0  0
    8.7199  -13.7548   18.6395 C   0  0  0  0  0  0  0  0  0  0  0  0
    8.5581  -15.6433   20.3095 C   0  0  2  0  0  0  0  0  0  0  0  0
    7.2644  -16.0044   19.6860 N   0  0  0  0  0  0  0  0  0  0  0  0
    8.4900  -16.0261   21.7425 C   0  0  0  0  0  0  0  0  0  0  0  0
    7.3792  -15.9769   22.3607 O   0  0  0  0  0  0  0  0  0  0  0  0
   11.4062  -18.1545   23.5684 O   0  0  0  0  0  0  0  0  0  0  0  0
   10.1111  -18.2960   24.0356 C   0  0  0  0  0  0  0  0  0  0  0  0
    9.4263  -16.9344   23.8694 C   0  0  2  0  0  0  0  0  0  0  0  0
    9.6053  -16.4590   22.4993 N   0  0  0  0  0  0  0  0  0  0  0  0
   10.0907  -15.9833   24.7933 C   0  0  0  0  0  0  0  0  0  0  0  0
   11.0899  -15.3010   24.4949 O   0  0  0  0  0  0  0  0  0  0  0  0
    8.6906  -13.0108   26.5486 C   0  0  0  0  0  0  0  0  0  0  0  0
    9.2863  -13.8805   27.6379 C   0  0  1  0  0  0  0  0  0  0  0  0
    8.1716  -14.5542   28.4080 C   0  0  0  0  0  0  0  0  0  0  0  0
   10.2459  -14.9141   27.0676 C   0  0  2  0  0  0  0  0  0  0  0  0
    9.5918  -15.7961   26.1329 N   0  0  0  0  0  0  0  0  0  0  0  0
   10.8124  -15.6530   28.2184 C   0  0  0  0  0  0  0  0  0  0  0  0
   11.6628  -15.0999   29.1549 O   0  0  0  0  0  0  0  0  0  0  0  0
   10.5000  -16.8623   28.3529 O   0  0  0  0  0  0  0  0  0  0  0  0
  2  1  1  0
  3  2  1  0
  3  5  1  0
  3  4  1  6
  5  7  1  0
  5  6  1  6
  7 12  1  0
  7  8  2  0
 11 10  1  6
 10  9  1  0
 11 13  1  0
 12 11  1  0
 13 14  2  0
 16 15  1  6
 16 18  1  0
 17 16  1  0
 18 20  1  0
 19 13  1  0
 18 19  1  6
 20 21  1  0
 22 20  2  0
M  END
$$$$
