ISV.pdb
     RDKit          3D

 22 21  0  0  1  0  0  0  0  0999 V2000
    7.5827  -12.0810   19.5765 C   0  0  0  0  0  0  0  0  0  0  0  0
    7.4673  -13.5676   19.7063 C   0  0  0  0  0  0  0  0  0  0  0  0
    7.6823  -14.0554   21.1107 C   0  0  2  0  0  0  0  0  0  0  0  0
    9.0217  -13.5695   21.6225 C   0  0  0  0  0  0  0  0  0  0  0  0
    7.4903  -15.5381   21.2209 C   0  0  2  0  0  0  0  0  0  0  0  0
    6.1030  -15.7852   20.7660 N   0  0  0  0  0  0  0  0  0  0  0  0
    7.6050  -16.0434   22.6124 C   0  0  0  0  0  0  0  0  0  0  0  0
    6.6539  -15.8558   23.4363 O   0  0  0  0  0  0  0  0  0  0  0  0
    9.1313  -19.1236   25.8215 O   0  0  0  0  0  0  0  0  0  0  0  0
    9.1648  -18.7101   24.5011 C   0  0  0  0  0  0  0  0  0  0  0  0
    8.7435  -17.2361   24.4851 C   0  0  2  0  0  0  0  0  0  0  0  0
    8.7301  -16.7444   23.1090 N   0  0  0  0  0  0  0  0  0  0  0  0
    9.7567  -16.4724   25.2530 C   0  0  0  0  0  0  0  0  0  0  0  0
   10.8443  -16.0854   24.7836 O   0  0  0  0  0  0  0  0  0  0  0  0
    9.4671  -13.2099   27.0524 C   0  0  0  0  0  0  0  0  0  0  0  0
    9.9755  -14.1993   28.0823 C   0  0  1  0  0  0  0  0  0  0  0  0
    8.8591  -14.5392   29.0454 C   0  0  0  0  0  0  0  0  0  0  0  0
   10.5217  -15.4590   27.4272 C   0  0  2  0  0  0  0  0  0  0  0  0
    9.5214  -16.1284   26.6331 N   0  0  0  0  0  0  0  0  0  0  0  0
   11.0288  -16.3227   28.5172 C   0  0  0  0  0  0  0  0  0  0  0  0
   10.4981  -17.5548   28.8435 O   0  0  0  0  0  0  0  0  0  0  0  0
   12.0057  -15.9090   29.1900 O   0  0  0  0  0  0  0  0  0  0  0  0
  2  1  1  0
  3  2  1  0
  3  5  1  0
  3  4  1  6
  5  7  1  0
  5  6  1  1
  7 12  1  0
  7  8  2  0
 11 10  1  6
 10  9  1  0
 11 13  1  0
 12 11  1  0
 13 14  2  0
 16 15  1  6
 16 18  1  0
 17 16  1  0
 18 20  1  0
 19 13  1  0
 18 19  1  1
 20 21  1  0
 22 20  2  0
M  END
$$$$
