ISV.pdb
     RDKit          3D

 22 21  0  0  1  0  0  0  0  0999 V2000
    7.3369  -11.9144   19.3805 C   0  0  0  0  0  0  0  0  0  0  0  0
    7.7197  -13.3605   19.4310 C   0  0  0  0  0  0  0  0  0  0  0  0
    7.8785  -13.8798   20.8316 C   0  0  2  0  0  0  0  0  0  0  0  0
    8.9048  -13.0497   21.5728 C   0  0  0  0  0  0  0  0  0  0  0  0
    8.1581  -15.3525   20.8513 C   0  0  2  0  0  0  0  0  0  0  0  0
    7.0325  -15.9716   20.1146 N   0  0  0  0  0  0  0  0  0  0  0  0
    8.1728  -15.9294   22.2193 C   0  0  0  0  0  0  0  0  0  0  0  0
    7.0965  -15.9884   22.8951 O   0  0  0  0  0  0  0  0  0  0  0  0
   11.0826  -18.3195   23.6039 O   0  0  0  0  0  0  0  0  0  0  0  0
    9.8535  -18.3877   24.2365 C   0  0  0  0  0  0  0  0  0  0  0  0
    9.2585  -16.9751   24.2077 C   0  0  2  0  0  0  0  0  0  0  0  0
    9.3331  -16.4388   22.8504 N   0  0  0  0  0  0  0  0  0  0  0  0
   10.0815  -16.1242   25.1010 C   0  0  0  0  0  0  0  0  0  0  0  0
   11.1537  -15.5869   24.7624 O   0  0  0  0  0  0  0  0  0  0  0  0
    9.1749  -12.9752   26.8752 C   0  0  0  0  0  0  0  0  0  0  0  0
    9.6714  -13.9207   27.9511 C   0  0  1  0  0  0  0  0  0  0  0  0
    8.4939  -14.4332   28.7513 C   0  0  0  0  0  0  0  0  0  0  0  0
   10.4625  -15.0774   27.3591 C   0  0  2  0  0  0  0  0  0  0  0  0
    9.6631  -15.8687   26.4568 N   0  0  0  0  0  0  0  0  0  0  0  0
   10.9652  -15.8791   28.4974 C   0  0  0  0  0  0  0  0  0  0  0  0
   11.9101  -15.4376   29.4020 O   0  0  0  0  0  0  0  0  0  0  0  0
   10.5027  -17.0369   28.6516 O   0  0  0  0  0  0  0  0  0  0  0  0
  2  1  1  0
  3  2  1  0
  3  5  1  0
  3  4  1  6
  5  7  1  0
  5  6  1  6
  7 12  1  0
  7  8  2  0
 11 10  1  6
 10  9  1  0
 11 13  1  0
 12 11  1  0
 13 14  2  0
 16 15  1  6
 16 18  1  0
 17 16  1  0
 18 20  1  0
 19 13  1  0
 18 19  1  6
 20 21  1  0
 22 20  2  0
M  END
$$$$
