ISV.pdb
     RDKit          3D

 22 21  0  0  1  0  0  0  0  0999 V2000
    5.8691  -11.1557   26.6191 C   0  0  0  0  0  0  0  0  0  0  0  0
    5.5824  -12.3964   25.8326 C   0  0  0  0  0  0  0  0  0  0  0  0
    6.7743  -13.3017   25.7041 C   0  0  2  0  0  0  0  0  0  0  0  0
    7.9399  -12.5341   25.1174 C   0  0  0  0  0  0  0  0  0  0  0  0
    6.4400  -14.5609   24.9625 C   0  0  2  0  0  0  0  0  0  0  0  0
    5.2425  -15.1058   25.6421 N   0  0  0  0  0  0  0  0  0  0  0  0
    7.5085  -15.5890   25.0391 C   0  0  0  0  0  0  0  0  0  0  0  0
    7.6743  -16.2537   26.1112 O   0  0  0  0  0  0  0  0  0  0  0  0
   10.3618  -15.8278   22.2568 O   0  0  0  0  0  0  0  0  0  0  0  0
   10.2099  -17.0739   22.8396 C   0  0  0  0  0  0  0  0  0  0  0  0
    9.4709  -16.8584   24.1655 C   0  0  2  0  0  0  0  0  0  0  0  0
    8.3861  -15.8985   23.9724 N   0  0  0  0  0  0  0  0  0  0  0  0
   10.4417  -16.2906   25.1322 C   0  0  0  0  0  0  0  0  0  0  0  0
   11.3459  -15.4895   24.8264 O   0  0  0  0  0  0  0  0  0  0  0  0
   10.2121  -13.9920   27.8599 C   0  0  0  0  0  0  0  0  0  0  0  0
   10.7627  -15.2491   28.5039 C   0  0  1  0  0  0  0  0  0  0  0  0
    9.6607  -15.9414   29.2758 C   0  0  0  0  0  0  0  0  0  0  0  0
   11.3673  -16.1888   27.4716 C   0  0  2  0  0  0  0  0  0  0  0  0
   10.3825  -16.6534   26.5262 N   0  0  0  0  0  0  0  0  0  0  0  0
   11.9833  -17.3075   28.2201 C   0  0  0  0  0  0  0  0  0  0  0  0
   13.0847  -17.1793   29.0426 O   0  0  0  0  0  0  0  0  0  0  0  0
   11.4716  -18.4485   28.1000 O   0  0  0  0  0  0  0  0  0  0  0  0
  2  1  1  0
  3  2  1  0
  3  5  1  0
  3  4  1  6
  5  7  1  0
  5  6  1  1
  7 12  1  0
  7  8  2  0
 11 10  1  6
 10  9  1  0
 11 13  1  0
 12 11  1  0
 13 14  2  0
 16 15  1  6
 16 18  1  0
 17 16  1  0
 18 20  1  0
 19 13  1  0
 18 19  1  6
 20 21  1  0
 22 20  2  0
M  END
$$$$
