ISV.pdb
     RDKit          3D

 22 21  0  0  1  0  0  0  0  0999 V2000
    7.6455  -18.6490   19.8604 C   0  0  0  0  0  0  0  0  0  0  0  0
    7.2393  -17.2232   20.0657 C   0  0  0  0  0  0  0  0  0  0  0  0
    7.7254  -16.6532   21.3677 C   0  0  2  0  0  0  0  0  0  0  0  0
    7.4557  -17.6339   22.4890 C   0  0  0  0  0  0  0  0  0  0  0  0
    7.1757  -15.2805   21.6146 C   0  0  2  0  0  0  0  0  0  0  0  0
    7.5819  -14.4814   20.4360 N   0  0  0  0  0  0  0  0  0  0  0  0
    7.7460  -14.6275   22.8200 C   0  0  0  0  0  0  0  0  0  0  0  0
    8.9663  -14.2677   22.8298 O   0  0  0  0  0  0  0  0  0  0  0  0
    5.6789  -14.2013   26.3380 O   0  0  0  0  0  0  0  0  0  0  0  0
    6.6258  -13.2142   26.1264 C   0  0  0  0  0  0  0  0  0  0  0  0
    7.6738  -13.7993   25.1726 C   0  0  2  0  0  0  0  0  0  0  0  0
    7.0093  -14.3633   23.9996 N   0  0  0  0  0  0  0  0  0  0  0  0
    8.3748  -14.8902   25.8922 C   0  0  0  0  0  0  0  0  0  0  0  0
    8.0968  -16.0990   25.7718 O   0  0  0  0  0  0  0  0  0  0  0  0
   12.3721  -14.3818   27.1579 C   0  0  0  0  0  0  0  0  0  0  0  0
   11.4538  -15.0899   28.1344 C   0  0  1  0  0  0  0  0  0  0  0  0
   11.0700  -14.1359   29.2442 C   0  0  0  0  0  0  0  0  0  0  0  0
   10.2138  -15.6355   27.4424 C   0  0  2  0  0  0  0  0  0  0  0  0
    9.4536  -14.5915   26.8008 N   0  0  0  0  0  0  0  0  0  0  0  0
    9.4211  -16.3384   28.4762 C   0  0  0  0  0  0  0  0  0  0  0  0
    9.8192  -17.5020   29.1034 O   0  0  0  0  0  0  0  0  0  0  0  0
    8.3136  -15.8450   28.8053 O   0  0  0  0  0  0  0  0  0  0  0  0
  2  1  1  0
  3  2  1  0
  3  5  1  0
  3  4  1  1
  5  7  1  0
  5  6  1  6
  7 12  1  0
  7  8  2  0
 11 10  1  1
 10  9  1  0
 11 13  1  0
 12 11  1  0
 13 14  2  0
 16 15  1  6
 16 18  1  0
 17 16  1  0
 18 20  1  0
 19 13  1  0
 18 19  1  1
 20 21  1  0
 22 20  2  0
M  END
$$$$
