ISV.pdb
     RDKit          3D

 22 21  0  0  1  0  0  0  0  0999 V2000
    7.6981  -17.9286   19.4139 C   0  0  0  0  0  0  0  0  0  0  0  0
    7.3364  -16.5241   19.7835 C   0  0  0  0  0  0  0  0  0  0  0  0
    7.7912  -16.1416   21.1631 C   0  0  2  0  0  0  0  0  0  0  0  0
    7.4193  -17.2315   22.1458 C   0  0  0  0  0  0  0  0  0  0  0  0
    7.3031  -14.7788   21.5527 C   0  0  2  0  0  0  0  0  0  0  0  0
    7.8173  -13.8676   20.5047 N   0  0  0  0  0  0  0  0  0  0  0  0
    7.8392  -14.3135   22.8568 C   0  0  0  0  0  0  0  0  0  0  0  0
    9.0888  -14.1200   22.9970 O   0  0  0  0  0  0  0  0  0  0  0  0
    5.5903  -14.0490   26.2566 O   0  0  0  0  0  0  0  0  0  0  0  0
    6.5586  -13.0631   26.1798 C   0  0  0  0  0  0  0  0  0  0  0  0
    7.6486  -13.5817   25.2346 C   0  0  2  0  0  0  0  0  0  0  0  0
    7.0377  -14.0576   23.9953 N   0  0  0  0  0  0  0  0  0  0  0  0
    8.3161  -14.7239   25.9047 C   0  0  0  0  0  0  0  0  0  0  0  0
    7.9603  -15.9119   25.7820 O   0  0  0  0  0  0  0  0  0  0  0  0
   12.3960  -14.9341   26.4924 C   0  0  0  0  0  0  0  0  0  0  0  0
   11.5848  -15.2374   27.7366 C   0  0  1  0  0  0  0  0  0  0  0  0
   11.6275  -14.0446   28.6666 C   0  0  0  0  0  0  0  0  0  0  0  0
   10.1477  -15.6000   27.3939 C   0  0  2  0  0  0  0  0  0  0  0  0
    9.4531  -14.5047   26.7636 N   0  0  0  0  0  0  0  0  0  0  0  0
    9.4968  -16.0106   28.6584 C   0  0  0  0  0  0  0  0  0  0  0  0
    8.4465  -15.3352   29.2472 O   0  0  0  0  0  0  0  0  0  0  0  0
    9.9271  -17.0408   29.2345 O   0  0  0  0  0  0  0  0  0  0  0  0
  2  1  1  0
  3  2  1  0
  3  5  1  0
  3  4  1  1
  5  7  1  0
  5  6  1  6
  7 12  1  0
  7  8  2  0
 11 10  1  1
 10  9  1  0
 11 13  1  0
 12 11  1  0
 13 14  2  0
 16 15  1  6
 16 18  1  0
 17 16  1  0
 18 20  1  0
 19 13  1  0
 18 19  1  1
 20 21  1  0
 22 20  2  0
M  END
$$$$
