ISV.pdb
     RDKit          3D

 22 21  0  0  1  0  0  0  0  0999 V2000
    5.8261  -10.9730   26.4294 C   0  0  0  0  0  0  0  0  0  0  0  0
    5.5839  -12.2213   25.6400 C   0  0  0  0  0  0  0  0  0  0  0  0
    6.7512  -13.1666   25.6586 C   0  0  2  0  0  0  0  0  0  0  0  0
    7.9958  -12.4536   25.1744 C   0  0  0  0  0  0  0  0  0  0  0  0
    6.4514  -14.4365   24.9204 C   0  0  2  0  0  0  0  0  0  0  0  0
    5.2147  -14.9640   25.5410 N   0  0  0  0  0  0  0  0  0  0  0  0
    7.5080  -15.4684   25.0736 C   0  0  0  0  0  0  0  0  0  0  0  0
    7.6687  -16.0511   26.1931 O   0  0  0  0  0  0  0  0  0  0  0  0
    9.1326  -17.7536   22.1075 O   0  0  0  0  0  0  0  0  0  0  0  0
   10.0977  -17.2398   22.9561 C   0  0  0  0  0  0  0  0  0  0  0  0
    9.3938  -16.8927   24.2730 C   0  0  2  0  0  0  0  0  0  0  0  0
    8.3792  -15.8689   24.0322 N   0  0  0  0  0  0  0  0  0  0  0  0
   10.4158  -16.3414   25.1954 C   0  0  0  0  0  0  0  0  0  0  0  0
   11.2386  -15.4598   24.8811 O   0  0  0  0  0  0  0  0  0  0  0  0
   10.7242  -14.0816   27.7398 C   0  0  0  0  0  0  0  0  0  0  0  0
   11.1452  -15.3657   28.4269 C   0  0  1  0  0  0  0  0  0  0  0  0
   10.0011  -15.8807   29.2724 C   0  0  0  0  0  0  0  0  0  0  0  0
   11.5876  -16.4194   27.4227 C   0  0  2  0  0  0  0  0  0  0  0  0
   10.5091  -16.8185   26.5527 N   0  0  0  0  0  0  0  0  0  0  0  0
   12.1160  -17.5601   28.2042 C   0  0  0  0  0  0  0  0  0  0  0  0
   13.3040  -17.5370   28.9073 O   0  0  0  0  0  0  0  0  0  0  0  0
   11.4405  -18.6190   28.2303 O   0  0  0  0  0  0  0  0  0  0  0  0
  2  1  1  0
  3  2  1  0
  3  5  1  0
  3  4  1  6
  5  7  1  0
  5  6  1  1
  7 12  1  0
  7  8  2  0
 11 10  1  6
 10  9  1  0
 11 13  1  0
 12 11  1  0
 13 14  2  0
 16 15  1  6
 16 18  1  0
 17 16  1  0
 18 20  1  0
 19 13  1  0
 18 19  1  1
 20 21  1  0
 22 20  2  0
M  END
$$$$
