ISV.pdb
     RDKit          3D

 22 21  0  0  1  0  0  0  0  0999 V2000
    7.6796  -11.9598   19.2234 C   0  0  0  0  0  0  0  0  0  0  0  0
    7.9875  -13.4223   19.3038 C   0  0  0  0  0  0  0  0  0  0  0  0
    8.0663  -13.9316   20.7148 C   0  0  2  0  0  0  0  0  0  0  0  0
    9.0181  -13.0709   21.5179 C   0  0  0  0  0  0  0  0  0  0  0  0
    8.3834  -15.3961   20.7615 C   0  0  2  0  0  0  0  0  0  0  0  0
    7.2933  -16.0541   20.0056 N   0  0  0  0  0  0  0  0  0  0  0  0
    8.3786  -15.9545   22.1373 C   0  0  0  0  0  0  0  0  0  0  0  0
    7.2849  -16.0485   22.7805 O   0  0  0  0  0  0  0  0  0  0  0  0
   11.2419  -18.3116   23.4394 O   0  0  0  0  0  0  0  0  0  0  0  0
   10.0508  -18.3994   24.1387 C   0  0  0  0  0  0  0  0  0  0  0  0
    9.4331  -16.9963   24.1444 C   0  0  2  0  0  0  0  0  0  0  0  0
    9.5381  -16.4084   22.8106 N   0  0  0  0  0  0  0  0  0  0  0  0
   10.2151  -16.1665   25.0927 C   0  0  0  0  0  0  0  0  0  0  0  0
   11.2945  -15.6114   24.8104 O   0  0  0  0  0  0  0  0  0  0  0  0
    9.2349  -13.1066   27.0960 C   0  0  0  0  0  0  0  0  0  0  0  0
    9.7249  -14.1394   28.0916 C   0  0  1  0  0  0  0  0  0  0  0  0
    8.5414  -14.7259   28.8297 C   0  0  0  0  0  0  0  0  0  0  0  0
   10.5303  -15.2359   27.4110 C   0  0  2  0  0  0  0  0  0  0  0  0
    9.7445  -15.9548   26.4388 N   0  0  0  0  0  0  0  0  0  0  0  0
   11.0313  -16.1265   28.4819 C   0  0  0  0  0  0  0  0  0  0  0  0
   11.9793  -15.7612   29.4168 O   0  0  0  0  0  0  0  0  0  0  0  0
   10.5644  -17.2910   28.5455 O   0  0  0  0  0  0  0  0  0  0  0  0
  2  1  1  0
  3  2  1  0
  3  5  1  0
  3  4  1  1
  5  7  1  0
  5  6  1  6
  7 12  1  0
  7  8  2  0
 11 10  1  6
 10  9  1  0
 11 13  1  0
 12 11  1  0
 13 14  2  0
 16 15  1  6
 16 18  1  0
 17 16  1  0
 18 20  1  0
 19 13  1  0
 18 19  1  6
 20 21  1  0
 22 20  2  0
M  END
$$$$
