ISV.pdb
     RDKit          3D

 22 21  0  0  1  0  0  0  0  0999 V2000
    5.7654  -11.5898   26.9663 C   0  0  0  0  0  0  0  0  0  0  0  0
    5.5661  -12.7186   26.0038 C   0  0  0  0  0  0  0  0  0  0  0  0
    6.8224  -13.4997   25.7428 C   0  0  2  0  0  0  0  0  0  0  0  0
    7.9161  -12.5673   25.2671 C   0  0  0  0  0  0  0  0  0  0  0  0
    6.5754  -14.6633   24.8304 C   0  0  2  0  0  0  0  0  0  0  0  0
    5.3785  -15.3405   25.3796 N   0  0  0  0  0  0  0  0  0  0  0  0
    7.6861  -15.6486   24.8212 C   0  0  0  0  0  0  0  0  0  0  0  0
    7.8451  -16.4353   25.8083 O   0  0  0  0  0  0  0  0  0  0  0  0
   10.6396  -15.4698   22.1206 O   0  0  0  0  0  0  0  0  0  0  0  0
   10.4863  -16.7803   22.5386 C   0  0  0  0  0  0  0  0  0  0  0  0
    9.7163  -16.7381   23.8636 C   0  0  2  0  0  0  0  0  0  0  0  0
    8.6126  -15.7859   23.7598 N   0  0  0  0  0  0  0  0  0  0  0  0
   10.6538  -16.2668   24.9116 C   0  0  0  0  0  0  0  0  0  0  0  0
   11.7621  -15.7478   24.6764 O   0  0  0  0  0  0  0  0  0  0  0  0
   10.7855  -13.6602   27.3913 C   0  0  0  0  0  0  0  0  0  0  0  0
   10.8652  -14.9363   28.2056 C   0  0  1  0  0  0  0  0  0  0  0  0
    9.5297  -15.1924   28.8690 C   0  0  0  0  0  0  0  0  0  0  0  0
   11.2750  -16.1238   27.3475 C   0  0  2  0  0  0  0  0  0  0  0  0
   10.3134  -16.3918   26.3069 N   0  0  0  0  0  0  0  0  0  0  0  0
   11.4341  -17.2774   28.2613 C   0  0  0  0  0  0  0  0  0  0  0  0
   10.6260  -18.3968   28.2481 O   0  0  0  0  0  0  0  0  0  0  0  0
   12.3646  -17.2367   29.1043 O   0  0  0  0  0  0  0  0  0  0  0  0
  2  1  1  0
  3  2  1  0
  3  5  1  0
  3  4  1  6
  5  7  1  0
  5  6  1  1
  7 12  1  0
  7  8  2  0
 11 10  1  6
 10  9  1  0
 11 13  1  0
 12 11  1  0
 13 14  2  0
 16 15  1  6
 16 18  1  0
 17 16  1  0
 18 20  1  0
 19 13  1  0
 18 19  1  6
 20 21  1  0
 22 20  2  0
M  END
$$$$
