ISV.pdb
     RDKit          3D

 22 21  0  0  1  0  0  0  0  0999 V2000
    7.6029  -12.3592   17.9887 C   0  0  0  0  0  0  0  0  0  0  0  0
    7.8752  -13.7716   18.4021 C   0  0  0  0  0  0  0  0  0  0  0  0
    7.4904  -14.0538   19.8264 C   0  0  2  0  0  0  0  0  0  0  0  0
    8.1496  -13.0465   20.7444 C   0  0  0  0  0  0  0  0  0  0  0  0
    7.7519  -15.4814   20.2018 C   0  0  2  0  0  0  0  0  0  0  0  0
    6.9563  -16.2863   19.2469 N   0  0  0  0  0  0  0  0  0  0  0  0
    7.2915  -15.8224   21.5716 C   0  0  0  0  0  0  0  0  0  0  0  0
    6.0549  -15.7513   21.8618 O   0  0  0  0  0  0  0  0  0  0  0  0
    9.2364  -18.0645   24.2829 O   0  0  0  0  0  0  0  0  0  0  0  0
    7.8955  -17.7906   24.4891 C   0  0  0  0  0  0  0  0  0  0  0  0
    7.6486  -16.3655   23.9806 C   0  0  2  0  0  0  0  0  0  0  0  0
    8.1533  -16.2373   22.6152 N   0  0  0  0  0  0  0  0  0  0  0  0
    8.4068  -15.4397   24.8566 C   0  0  0  0  0  0  0  0  0  0  0  0
    9.6342  -15.2421   24.7693 O   0  0  0  0  0  0  0  0  0  0  0  0
    7.6620  -11.6165   26.0076 C   0  0  0  0  0  0  0  0  0  0  0  0
    7.6820  -12.5966   27.1639 C   0  0  1  0  0  0  0  0  0  0  0  0
    6.2613  -12.9347   27.5598 C   0  0  0  0  0  0  0  0  0  0  0  0
    8.4570  -13.8585   26.8154 C   0  0  2  0  0  0  0  0  0  0  0  0
    7.7328  -14.6956   25.8912 N   0  0  0  0  0  0  0  0  0  0  0  0
    8.7336  -14.5568   28.0910 C   0  0  0  0  0  0  0  0  0  0  0  0
    9.6188  -14.1043   29.0490 O   0  0  0  0  0  0  0  0  0  0  0  0
    8.1237  -15.6314   28.3180 O   0  0  0  0  0  0  0  0  0  0  0  0
  2  1  1  0
  3  2  1  0
  3  5  1  0
  3  4  1  1
  5  7  1  0
  5  6  1  6
  7 12  1  0
  7  8  2  0
 11 10  1  1
 10  9  1  0
 11 13  1  0
 12 11  1  0
 13 14  2  0
 16 15  1  6
 16 18  1  0
 17 16  1  0
 18 20  1  0
 19 13  1  0
 18 19  1  6
 20 21  1  0
 22 20  2  0
M  END
$$$$
