ISV.pdb
     RDKit          3D

 22 21  0  0  1  0  0  0  0  0999 V2000
    7.1825  -12.0008   26.9950 C   0  0  0  0  0  0  0  0  0  0  0  0
    6.8553  -13.3407   26.4138 C   0  0  0  0  0  0  0  0  0  0  0  0
    6.9872  -13.3828   24.9180 C   0  0  2  0  0  0  0  0  0  0  0  0
    6.0977  -12.3278   24.2953 C   0  0  0  0  0  0  0  0  0  0  0  0
    6.7637  -14.7632   24.3778 C   0  0  2  0  0  0  0  0  0  0  0  0
    5.5243  -15.2408   25.0325 N   0  0  0  0  0  0  0  0  0  0  0  0
    7.8512  -15.7128   24.7245 C   0  0  0  0  0  0  0  0  0  0  0  0
    7.8549  -16.2867   25.8599 O   0  0  0  0  0  0  0  0  0  0  0  0
   10.3832  -16.6274   22.0087 O   0  0  0  0  0  0  0  0  0  0  0  0
   10.9025  -17.2727   23.1175 C   0  0  0  0  0  0  0  0  0  0  0  0
    9.9605  -16.9726   24.2893 C   0  0  2  0  0  0  0  0  0  0  0  0
    8.9203  -16.0418   23.8569 N   0  0  0  0  0  0  0  0  0  0  0  0
   10.7637  -16.3262   25.3554 C   0  0  0  0  0  0  0  0  0  0  0  0
   11.5230  -15.3561   25.1679 O   0  0  0  0  0  0  0  0  0  0  0  0
   10.1190  -14.2105   28.0440 C   0  0  0  0  0  0  0  0  0  0  0  0
   10.7461  -15.4089   28.7286 C   0  0  1  0  0  0  0  0  0  0  0  0
    9.6636  -16.2290   29.3957 C   0  0  0  0  0  0  0  0  0  0  0  0
   11.5395  -16.2615   27.7499 C   0  0  2  0  0  0  0  0  0  0  0  0
   10.7010  -16.8091   26.7123 N   0  0  0  0  0  0  0  0  0  0  0  0
   12.1983  -17.3232   28.5437 C   0  0  0  0  0  0  0  0  0  0  0  0
   13.2455  -17.1049   29.4164 O   0  0  0  0  0  0  0  0  0  0  0  0
   11.7780  -18.5002   28.4159 O   0  0  0  0  0  0  0  0  0  0  0  0
  2  1  1  0
  3  2  1  0
  3  5  1  0
  3  4  1  6
  5  7  1  0
  5  6  1  1
  7 12  1  0
  7  8  2  0
 11 10  1  6
 10  9  1  0
 11 13  1  0
 12 11  1  0
 13 14  2  0
 16 15  1  6
 16 18  1  0
 17 16  1  0
 18 20  1  0
 19 13  1  0
 18 19  1  6
 20 21  1  0
 22 20  2  0
M  END
$$$$
