ISV.pdb
     RDKit          3D

 22 21  0  0  1  0  0  0  0  0999 V2000
    7.9563  -12.5602   18.1644 C   0  0  0  0  0  0  0  0  0  0  0  0
    8.0530  -13.9991   18.5647 C   0  0  0  0  0  0  0  0  0  0  0  0
    7.6152  -14.2481   19.9799 C   0  0  2  0  0  0  0  0  0  0  0  0
    8.3876  -13.3484   20.9211 C   0  0  0  0  0  0  0  0  0  0  0  0
    7.6829  -15.7027   20.3362 C   0  0  2  0  0  0  0  0  0  0  0  0
    6.7559  -16.3761   19.3981 N   0  0  0  0  0  0  0  0  0  0  0  0
    7.2166  -15.9918   21.7159 C   0  0  0  0  0  0  0  0  0  0  0  0
    5.9964  -15.8075   22.0254 O   0  0  0  0  0  0  0  0  0  0  0  0
    9.1036  -18.2595   24.4327 O   0  0  0  0  0  0  0  0  0  0  0  0
    7.7999  -17.8980   24.7246 C   0  0  0  0  0  0  0  0  0  0  0  0
    7.5813  -16.5015   24.1311 C   0  0  2  0  0  0  0  0  0  0  0  0
    8.0548  -16.4761   22.7488 N   0  0  0  0  0  0  0  0  0  0  0  0
    8.3877  -15.5451   24.9275 C   0  0  0  0  0  0  0  0  0  0  0  0
    9.5723  -15.2505   24.6765 O   0  0  0  0  0  0  0  0  0  0  0  0
    7.4945  -11.8942   26.0076 C   0  0  0  0  0  0  0  0  0  0  0  0
    7.8015  -12.7235   27.2389 C   0  0  1  0  0  0  0  0  0  0  0  0
    6.5083  -13.0818   27.9379 C   0  0  0  0  0  0  0  0  0  0  0  0
    8.5876  -13.9778   26.8880 C   0  0  2  0  0  0  0  0  0  0  0  0
    7.8163  -14.8851   26.0748 N   0  0  0  0  0  0  0  0  0  0  0  0
    8.9977  -14.5979   28.1680 C   0  0  0  0  0  0  0  0  0  0  0  0
    9.9282  -14.0554   29.0317 O   0  0  0  0  0  0  0  0  0  0  0  0
    8.4653  -15.6890   28.4908 O   0  0  0  0  0  0  0  0  0  0  0  0
  2  1  1  0
  3  2  1  0
  3  5  1  0
  3  4  1  1
  5  7  1  0
  5  6  1  6
  7 12  1  0
  7  8  2  0
 11 10  1  1
 10  9  1  0
 11 13  1  0
 12 11  1  0
 13 14  2  0
 16 15  1  6
 16 18  1  0
 17 16  1  0
 18 20  1  0
 19 13  1  0
 18 19  1  1
 20 21  1  0
 22 20  2  0
M  END
$$$$
