ASF.pdb
     RDKit          3D

 23 23  0  0  1  0  0  0  0  0999 V2000
    7.4909  -12.6347   18.6948 C   0  0  0  0  0  0  0  0  0  0  0  0
    8.5004  -13.6724   19.0857 C   0  0  2  0  0  0  0  0  0  0  0  0
    8.6773  -14.6746   18.0323 N   0  0  0  0  0  0  0  0  0  0  0  0
    8.1884  -14.3253   20.3725 C   0  0  0  0  0  0  0  0  0  0  0  0
    8.0808  -13.6354   21.4172 O   0  0  0  0  0  0  0  0  0  0  0  0
    8.7244  -18.4370   21.0480 O   0  0  0  0  0  0  0  0  0  0  0  0
    7.5445  -17.8628   21.4932 C   0  0  0  0  0  0  0  0  0  0  0  0
    7.6948  -16.3838   21.7579 C   0  0  2  0  0  0  0  0  0  0  0  0
    7.9965  -15.7265   20.5071 N   0  0  0  0  0  0  0  0  0  0  0  0
    8.7372  -16.1527   22.7815 C   0  0  0  0  0  0  0  0  0  0  0  0
    9.9332  -16.0581   22.4056 O   0  0  0  0  0  0  0  0  0  0  0  0
    8.4794  -16.0287   24.1733 N   0  0  0  0  0  0  0  0  0  0  0  0
    9.5301  -15.7623   25.1415 C   0  0  1  0  0  0  0  0  0  0  0  0
    9.7145  -14.2934   25.3270 C   0  0  0  0  0  0  0  0  0  0  0  0
    8.5112  -13.5971   25.7637 C   0  0  0  0  0  0  0  0  0  0  0  0
    8.2328  -13.3235   27.1037 C   0  0  0  0  0  0  0  0  0  0  0  0
    7.1112  -12.6603   27.5219 C   0  0  0  0  0  0  0  0  0  0  0  0
    6.1900  -12.2273   26.5992 C   0  0  0  0  0  0  0  0  0  0  0  0
    6.4206  -12.4728   25.2743 C   0  0  0  0  0  0  0  0  0  0  0  0
    7.5652  -13.1482   24.8612 C   0  0  0  0  0  0  0  0  0  0  0  0
    9.1978  -16.4807   26.3867 C   0  0  0  0  0  0  0  0  0  0  0  0
   10.1098  -16.5309   27.4480 O   0  0  0  0  0  0  0  0  0  0  0  0
    8.0783  -17.0488   26.4759 O   0  0  0  0  0  0  0  0  0  0  0  0
  2  4  1  0
  2  3  1  0
  2  1  1  6
  4  5  2  0
  6  7  1  0
  8  7  1  6
  8 10  1  0
  9  8  1  0
  9  4  1  0
 10 12  1  0
 10 11  2  0
 12 13  1  0
 13 14  1  1
 14 15  1  0
 15 16  2  0
 15 20  1  0
 16 17  1  0
 17 18  2  0
 19 18  1  0
 20 19  2  0
 21 22  1  0
 21 13  1  0
 23 21  2  0
M  END
$$$$
