ASF.pdb
     RDKit          3D

 23 23  0  0  1  0  0  0  0  0999 V2000
    8.2884  -11.9797   19.7456 C   0  0  0  0  0  0  0  0  0  0  0  0
    8.4000  -13.3637   19.1792 C   0  0  2  0  0  0  0  0  0  0  0  0
    7.5826  -13.5192   17.9738 N   0  0  0  0  0  0  0  0  0  0  0  0
    8.0770  -14.4172   20.1616 C   0  0  0  0  0  0  0  0  0  0  0  0
    6.9096  -14.8773   20.2286 O   0  0  0  0  0  0  0  0  0  0  0  0
    9.2860  -18.4259   22.1359 O   0  0  0  0  0  0  0  0  0  0  0  0
    9.5079  -17.2859   21.3801 C   0  0  0  0  0  0  0  0  0  0  0  0
    8.7755  -16.0857   21.9305 C   0  0  2  0  0  0  0  0  0  0  0  0
    9.0322  -14.9593   21.0628 N   0  0  0  0  0  0  0  0  0  0  0  0
    9.1941  -15.8289   23.3257 C   0  0  0  0  0  0  0  0  0  0  0  0
   10.2980  -15.2604   23.5233 O   0  0  0  0  0  0  0  0  0  0  0  0
    8.4289  -16.1828   24.4694 N   0  0  0  0  0  0  0  0  0  0  0  0
    8.8596  -15.8752   25.8230 C   0  0  1  0  0  0  0  0  0  0  0  0
    7.6978  -15.4649   26.6644 C   0  0  0  0  0  0  0  0  0  0  0  0
    7.2803  -14.0834   26.4624 C   0  0  0  0  0  0  0  0  0  0  0  0
    5.9862  -13.7262   26.0808 C   0  0  0  0  0  0  0  0  0  0  0  0
    5.5824  -12.4313   25.8999 C   0  0  0  0  0  0  0  0  0  0  0  0
    6.4736  -11.4043   26.0963 C   0  0  0  0  0  0  0  0  0  0  0  0
    7.7531  -11.7064   26.4710 C   0  0  0  0  0  0  0  0  0  0  0  0
    8.1519  -13.0273   26.6519 C   0  0  0  0  0  0  0  0  0  0  0  0
    9.5890  -17.0453   26.3482 C   0  0  0  0  0  0  0  0  0  0  0  0
    9.6530  -18.2361   25.6143 O   0  0  0  0  0  0  0  0  0  0  0  0
   10.1520  -16.9526   27.4700 O   0  0  0  0  0  0  0  0  0  0  0  0
  2  4  1  0
  2  3  1  0
  2  1  1  1
  4  5  2  0
  6  7  1  0
  8  7  1  6
  8 10  1  0
  9  8  1  0
  9  4  1  0
 10 12  1  0
 10 11  2  0
 12 13  1  0
 13 14  1  1
 14 15  1  0
 15 16  2  0
 15 20  1  0
 16 17  1  0
 17 18  2  0
 19 18  1  0
 20 19  2  0
 21 22  1  0
 21 13  1  0
 23 21  2  0
M  END
$$$$
