ASF.pdb
     RDKit          3D

 23 23  0  0  1  0  0  0  0  0999 V2000
    7.2501  -12.6121   18.7693 C   0  0  0  0  0  0  0  0  0  0  0  0
    8.4305  -13.1894   19.4920 C   0  0  2  0  0  0  0  0  0  0  0  0
    9.3376  -13.8816   18.5737 N   0  0  0  0  0  0  0  0  0  0  0  0
    8.0466  -14.0782   20.6065 C   0  0  0  0  0  0  0  0  0  0  0  0
    7.2446  -13.6736   21.4852 O   0  0  0  0  0  0  0  0  0  0  0  0
    9.8622  -17.8578   21.2040 O   0  0  0  0  0  0  0  0  0  0  0  0
    8.4931  -17.7175   21.3642 C   0  0  0  0  0  0  0  0  0  0  0  0
    8.1085  -16.3181   21.7811 C   0  0  2  0  0  0  0  0  0  0  0  0
    8.5422  -15.4017   20.7517 N   0  0  0  0  0  0  0  0  0  0  0  0
    8.6946  -16.0005   23.1015 C   0  0  0  0  0  0  0  0  0  0  0  0
    9.8290  -15.4594   23.1370 O   0  0  0  0  0  0  0  0  0  0  0  0
    8.0597  -16.2664   24.3444 N   0  0  0  0  0  0  0  0  0  0  0  0
    8.6642  -15.9200   25.6200 C   0  0  1  0  0  0  0  0  0  0  0  0
    7.6275  -15.4430   26.5812 C   0  0  0  0  0  0  0  0  0  0  0  0
    7.3322  -14.0200   26.4742 C   0  0  0  0  0  0  0  0  0  0  0  0
    8.3212  -13.0440   26.3434 C   0  0  0  0  0  0  0  0  0  0  0  0
    8.0527  -11.7069   26.2310 C   0  0  0  0  0  0  0  0  0  0  0  0
    6.7507  -11.2685   26.2442 C   0  0  0  0  0  0  0  0  0  0  0  0
    5.7478  -12.1889   26.3704 C   0  0  0  0  0  0  0  0  0  0  0  0
    6.0337  -13.5462   26.4838 C   0  0  0  0  0  0  0  0  0  0  0  0
    9.4242  -17.0904   26.0991 C   0  0  0  0  0  0  0  0  0  0  0  0
   10.4792  -16.9349   27.0065 O   0  0  0  0  0  0  0  0  0  0  0  0
    9.1062  -18.2319   25.6751 O   0  0  0  0  0  0  0  0  0  0  0  0
  2  4  1  0
  2  3  1  0
  2  1  1  6
  4  5  2  0
  6  7  1  0
  8  7  1  6
  8 10  1  0
  9  8  1  0
  9  4  1  0
 10 12  1  0
 10 11  2  0
 12 13  1  0
 13 14  1  1
 14 15  1  0
 15 16  2  0
 15 20  1  0
 16 17  1  0
 17 18  2  0
 19 18  1  0
 20 19  2  0
 21 22  1  0
 21 13  1  0
 23 21  2  0
M  END
$$$$
