ASF.pdb
     RDKit          3D

 23 23  0  0  1  0  0  0  0  0999 V2000
    8.4235  -12.1061   19.6473 C   0  0  0  0  0  0  0  0  0  0  0  0
    8.4399  -13.5324   19.1848 C   0  0  2  0  0  0  0  0  0  0  0  0
    7.7369  -13.6927   17.9098 N   0  0  0  0  0  0  0  0  0  0  0  0
    7.9055  -14.4715   20.1908 C   0  0  0  0  0  0  0  0  0  0  0  0
    6.6649  -14.5622   20.3692 O   0  0  0  0  0  0  0  0  0  0  0  0
   10.1090  -17.6919   21.4166 O   0  0  0  0  0  0  0  0  0  0  0  0
    8.7265  -17.6460   21.4974 C   0  0  0  0  0  0  0  0  0  0  0  0
    8.2253  -16.2869   21.9235 C   0  0  2  0  0  0  0  0  0  0  0  0
    8.7310  -15.3038   20.9934 N   0  0  0  0  0  0  0  0  0  0  0  0
    8.6343  -16.0068   23.3171 C   0  0  0  0  0  0  0  0  0  0  0  0
    9.7453  -15.4519   23.5136 O   0  0  0  0  0  0  0  0  0  0  0  0
    7.8525  -16.3238   24.4604 N   0  0  0  0  0  0  0  0  0  0  0  0
    8.3239  -16.0969   25.8163 C   0  0  1  0  0  0  0  0  0  0  0  0
    7.2236  -15.5688   26.6745 C   0  0  0  0  0  0  0  0  0  0  0  0
    7.0411  -14.1261   26.5804 C   0  0  0  0  0  0  0  0  0  0  0  0
    5.7962  -13.5264   26.3841 C   0  0  0  0  0  0  0  0  0  0  0  0
    5.6140  -12.1725   26.3058 C   0  0  0  0  0  0  0  0  0  0  0  0
    6.6932  -11.3303   26.4227 C   0  0  0  0  0  0  0  0  0  0  0  0
    7.9330  -11.8728   26.6161 C   0  0  0  0  0  0  0  0  0  0  0  0
    8.1056  -13.2515   26.6940 C   0  0  0  0  0  0  0  0  0  0  0  0
    8.9120  -17.3557   26.3130 C   0  0  0  0  0  0  0  0  0  0  0  0
    9.8397  -17.3463   27.3617 O   0  0  0  0  0  0  0  0  0  0  0  0
    8.5640  -18.4387   25.7745 O   0  0  0  0  0  0  0  0  0  0  0  0
  2  4  1  0
  2  3  1  0
  2  1  1  1
  4  5  2  0
  6  7  1  0
  8  7  1  6
  8 10  1  0
  9  8  1  0
  9  4  1  0
 10 12  1  0
 10 11  2  0
 12 13  1  0
 13 14  1  1
 14 15  1  0
 15 16  2  0
 15 20  1  0
 16 17  1  0
 17 18  2  0
 19 18  1  0
 20 19  2  0
 21 22  1  0
 21 13  1  0
 23 21  2  0
M  END
$$$$
