ASF.pdb
     RDKit          3D

 23 23  0  0  1  0  0  0  0  0999 V2000
    8.3695  -12.0745   19.4277 C   0  0  0  0  0  0  0  0  0  0  0  0
    8.4681  -13.4983   18.9676 C   0  0  2  0  0  0  0  0  0  0  0  0
    7.7249  -13.7145   17.7241 N   0  0  0  0  0  0  0  0  0  0  0  0
    8.0454  -14.4681   19.9971 C   0  0  0  0  0  0  0  0  0  0  0  0
    6.8365  -14.7981   20.0909 O   0  0  0  0  0  0  0  0  0  0  0  0
   10.5840  -17.3069   21.4431 O   0  0  0  0  0  0  0  0  0  0  0  0
    9.2010  -17.3849   21.4767 C   0  0  0  0  0  0  0  0  0  0  0  0
    8.5658  -16.0757   21.8800 C   0  0  2  0  0  0  0  0  0  0  0  0
    8.9470  -15.0696   20.9157 N   0  0  0  0  0  0  0  0  0  0  0  0
    8.9683  -15.7171   23.2574 C   0  0  0  0  0  0  0  0  0  0  0  0
   10.0750  -15.1448   23.4266 O   0  0  0  0  0  0  0  0  0  0  0  0
    8.1846  -15.9762   24.4139 N   0  0  0  0  0  0  0  0  0  0  0  0
    8.6742  -15.7309   25.7602 C   0  0  1  0  0  0  0  0  0  0  0  0
    7.5518  -15.3534   26.6676 C   0  0  0  0  0  0  0  0  0  0  0  0
    7.1802  -13.9462   26.5946 C   0  0  0  0  0  0  0  0  0  0  0  0
    8.1140  -12.9093   26.6133 C   0  0  0  0  0  0  0  0  0  0  0  0
    7.7750  -11.5859   26.5338 C   0  0  0  0  0  0  0  0  0  0  0  0
    6.4536  -11.2247   26.4291 C   0  0  0  0  0  0  0  0  0  0  0  0
    5.5029  -12.2068   26.4068 C   0  0  0  0  0  0  0  0  0  0  0  0
    5.8603  -13.5494   26.4883 C   0  0  0  0  0  0  0  0  0  0  0  0
    9.4179  -16.9264   26.2015 C   0  0  0  0  0  0  0  0  0  0  0  0
    9.2919  -18.1403   25.5150 O   0  0  0  0  0  0  0  0  0  0  0  0
   10.1674  -16.8340   27.2083 O   0  0  0  0  0  0  0  0  0  0  0  0
  2  4  1  0
  2  3  1  0
  2  1  1  1
  4  5  2  0
  6  7  1  0
  8  7  1  6
  8 10  1  0
  9  8  1  0
  9  4  1  0
 10 12  1  0
 10 11  2  0
 12 13  1  0
 13 14  1  1
 14 15  1  0
 15 16  2  0
 15 20  1  0
 16 17  1  0
 17 18  2  0
 19 18  1  0
 20 19  2  0
 21 22  1  0
 21 13  1  0
 23 21  2  0
M  END
$$$$
