ASF.pdb
     RDKit          3D

 23 23  0  0  1  0  0  0  0  0999 V2000
    8.6892  -12.1198   19.6549 C   0  0  0  0  0  0  0  0  0  0  0  0
    8.4349  -13.5286   19.2083 C   0  0  2  0  0  0  0  0  0  0  0  0
    7.4511  -13.5800   18.1243 N   0  0  0  0  0  0  0  0  0  0  0  0
    8.0326  -14.4207   20.3135 C   0  0  0  0  0  0  0  0  0  0  0  0
    6.8172  -14.5521   20.6043 O   0  0  0  0  0  0  0  0  0  0  0  0
   10.6135  -17.3903   21.4704 O   0  0  0  0  0  0  0  0  0  0  0  0
    9.2344  -17.4976   21.5505 C   0  0  0  0  0  0  0  0  0  0  0  0
    8.5885  -16.2126   22.0107 C   0  0  2  0  0  0  0  0  0  0  0  0
    8.9617  -15.1619   21.0920 N   0  0  0  0  0  0  0  0  0  0  0  0
    8.9877  -15.9117   23.4029 C   0  0  0  0  0  0  0  0  0  0  0  0
   10.0381  -15.2476   23.5929 O   0  0  0  0  0  0  0  0  0  0  0  0
    8.2603  -16.3245   24.5515 N   0  0  0  0  0  0  0  0  0  0  0  0
    8.7096  -16.0403   25.9042 C   0  0  1  0  0  0  0  0  0  0  0  0
    7.5711  -15.5788   26.7508 C   0  0  0  0  0  0  0  0  0  0  0  0
    7.2675  -14.1604   26.6112 C   0  0  0  0  0  0  0  0  0  0  0  0
    6.0078  -13.6828   26.2467 C   0  0  0  0  0  0  0  0  0  0  0  0
    5.7108  -12.3526   26.1242 C   0  0  0  0  0  0  0  0  0  0  0  0
    6.6817  -11.4110   26.3659 C   0  0  0  0  0  0  0  0  0  0  0  0
    7.9314  -11.8323   26.7260 C   0  0  0  0  0  0  0  0  0  0  0  0
    8.2213  -13.1881   26.8473 C   0  0  0  0  0  0  0  0  0  0  0  0
    9.3861  -17.2442   26.4240 C   0  0  0  0  0  0  0  0  0  0  0  0
   10.2064  -17.1702   27.5564 O   0  0  0  0  0  0  0  0  0  0  0  0
    9.2121  -18.3393   25.8288 O   0  0  0  0  0  0  0  0  0  0  0  0
  2  4  1  0
  2  3  1  0
  2  1  1  1
  4  5  2  0
  6  7  1  0
  8  7  1  6
  8 10  1  0
  9  8  1  0
  9  4  1  0
 10 12  1  0
 10 11  2  0
 12 13  1  0
 13 14  1  1
 14 15  1  0
 15 16  2  0
 15 20  1  0
 16 17  1  0
 17 18  2  0
 19 18  1  0
 20 19  2  0
 21 22  1  0
 21 13  1  0
 23 21  2  0
M  END
$$$$
