ASF.pdb
     RDKit          3D

 23 23  0  0  1  0  0  0  0  0999 V2000
    7.2203  -13.0734   18.3664 C   0  0  0  0  0  0  0  0  0  0  0  0
    8.5527  -13.4847   18.9181 C   0  0  2  0  0  0  0  0  0  0  0  0
    9.4181  -14.0409   17.8755 N   0  0  0  0  0  0  0  0  0  0  0  0
    8.4429  -14.4227   20.0528 C   0  0  0  0  0  0  0  0  0  0  0  0
    7.7506  -14.1170   21.0559 O   0  0  0  0  0  0  0  0  0  0  0  0
   11.1955  -17.5651   20.7102 O   0  0  0  0  0  0  0  0  0  0  0  0
    9.8425  -17.8251   20.8584 C   0  0  0  0  0  0  0  0  0  0  0  0
    9.0593  -16.5841   21.2141 C   0  0  2  0  0  0  0  0  0  0  0  0
    9.0905  -15.6869   20.0821 N   0  0  0  0  0  0  0  0  0  0  0  0
    9.6126  -15.9658   22.4386 C   0  0  0  0  0  0  0  0  0  0  0  0
   10.3988  -14.9926   22.3135 O   0  0  0  0  0  0  0  0  0  0  0  0
    9.3153  -16.3984   23.7588 N   0  0  0  0  0  0  0  0  0  0  0  0
    9.0662  -15.4687   24.8479 C   0  0  1  0  0  0  0  0  0  0  0  0
    7.8350  -14.6681   24.5850 C   0  0  0  0  0  0  0  0  0  0  0  0
    7.5278  -13.6968   25.6270 C   0  0  0  0  0  0  0  0  0  0  0  0
    6.3104  -13.0184   25.7018 C   0  0  0  0  0  0  0  0  0  0  0  0
    6.0091  -12.1133   26.6828 C   0  0  0  0  0  0  0  0  0  0  0  0
    6.9321  -11.8345   27.6616 C   0  0  0  0  0  0  0  0  0  0  0  0
    8.1392  -12.4754   27.6291 C   0  0  0  0  0  0  0  0  0  0  0  0
    8.4339  -13.3940   26.6261 C   0  0  0  0  0  0  0  0  0  0  0  0
    9.0160  -16.2394   26.1051 C   0  0  0  0  0  0  0  0  0  0  0  0
    8.0916  -17.2781   26.2701 O   0  0  0  0  0  0  0  0  0  0  0  0
    9.8200  -15.9441   27.0271 O   0  0  0  0  0  0  0  0  0  0  0  0
  2  4  1  0
  2  3  1  0
  2  1  1  6
  4  5  2  0
  6  7  1  0
  8  7  1  6
  8 10  1  0
  9  8  1  0
  9  4  1  0
 10 12  1  0
 10 11  2  0
 12 13  1  0
 13 14  1  6
 14 15  1  0
 15 16  2  0
 15 20  1  0
 16 17  1  0
 17 18  2  0
 19 18  1  0
 20 19  2  0
 21 22  1  0
 21 13  1  0
 23 21  2  0
M  END
$$$$
