ASF.pdb
     RDKit          3D

 23 23  0  0  1  0  0  0  0  0999 V2000
    8.7588  -12.0477   19.6806 C   0  0  0  0  0  0  0  0  0  0  0  0
    8.5106  -13.4797   19.3109 C   0  0  2  0  0  0  0  0  0  0  0  0
    7.5085  -13.5952   18.2490 N   0  0  0  0  0  0  0  0  0  0  0  0
    8.1368  -14.3178   20.4672 C   0  0  0  0  0  0  0  0  0  0  0  0
    6.9647  -14.2790   20.9187 O   0  0  0  0  0  0  0  0  0  0  0  0
   10.5571  -17.5184   21.4732 O   0  0  0  0  0  0  0  0  0  0  0  0
    9.1816  -17.5266   21.6403 C   0  0  0  0  0  0  0  0  0  0  0  0
    8.6545  -16.1859   22.0929 C   0  0  2  0  0  0  0  0  0  0  0  0
    9.0467  -15.1916   21.1208 N   0  0  0  0  0  0  0  0  0  0  0  0
    9.1530  -15.8742   23.4502 C   0  0  0  0  0  0  0  0  0  0  0  0
   10.2642  -15.2963   23.5604 O   0  0  0  0  0  0  0  0  0  0  0  0
    8.4577  -16.1848   24.6497 N   0  0  0  0  0  0  0  0  0  0  0  0
    9.0286  -15.9525   25.9659 C   0  0  1  0  0  0  0  0  0  0  0  0
    7.9736  -15.5202   26.9282 C   0  0  0  0  0  0  0  0  0  0  0  0
    7.4617  -14.1785   26.6808 C   0  0  0  0  0  0  0  0  0  0  0  0
    6.2019  -13.9322   26.1330 C   0  0  0  0  0  0  0  0  0  0  0  0
    5.7087  -12.6758   25.9078 C   0  0  0  0  0  0  0  0  0  0  0  0
    6.4686  -11.5766   26.2268 C   0  0  0  0  0  0  0  0  0  0  0  0
    7.7099  -11.7691   26.7662 C   0  0  0  0  0  0  0  0  0  0  0  0
    8.2005  -13.0519   26.9906 C   0  0  0  0  0  0  0  0  0  0  0  0
    9.7422  -17.1766   26.3777 C   0  0  0  0  0  0  0  0  0  0  0  0
    9.6897  -18.3334   25.5906 O   0  0  0  0  0  0  0  0  0  0  0  0
   10.3984  -17.1609   27.4515 O   0  0  0  0  0  0  0  0  0  0  0  0
  2  4  1  0
  2  3  1  0
  2  1  1  1
  4  5  2  0
  6  7  1  0
  8  7  1  6
  8 10  1  0
  9  8  1  0
  9  4  1  0
 10 12  1  0
 10 11  2  0
 12 13  1  0
 13 14  1  1
 14 15  1  0
 15 16  2  0
 15 20  1  0
 16 17  1  0
 17 18  2  0
 19 18  1  0
 20 19  2  0
 21 22  1  0
 21 13  1  0
 23 21  2  0
M  END
$$$$
