ASF.pdb
     RDKit          3D

 23 23  0  0  1  0  0  0  0  0999 V2000
    8.2686  -12.0792   19.4828 C   0  0  0  0  0  0  0  0  0  0  0  0
    8.4355  -13.4851   18.9885 C   0  0  2  0  0  0  0  0  0  0  0  0
    7.6896  -13.7115   17.7484 N   0  0  0  0  0  0  0  0  0  0  0  0
    8.0761  -14.4989   19.9997 C   0  0  0  0  0  0  0  0  0  0  0  0
    6.8712  -14.8065   20.1804 O   0  0  0  0  0  0  0  0  0  0  0  0
   10.8338  -17.2332   21.2491 O   0  0  0  0  0  0  0  0  0  0  0  0
    9.4705  -17.4611   21.3477 C   0  0  0  0  0  0  0  0  0  0  0  0
    8.7120  -16.2171   21.7443 C   0  0  2  0  0  0  0  0  0  0  0  0
    9.0362  -15.1682   20.8051 N   0  0  0  0  0  0  0  0  0  0  0  0
    9.0368  -15.8450   23.1386 C   0  0  0  0  0  0  0  0  0  0  0  0
   10.0582  -15.1420   23.3468 O   0  0  0  0  0  0  0  0  0  0  0  0
    8.2683  -16.2298   24.2699 N   0  0  0  0  0  0  0  0  0  0  0  0
    8.6836  -15.9384   25.6319 C   0  0  1  0  0  0  0  0  0  0  0  0
    7.5147  -15.5233   26.4610 C   0  0  0  0  0  0  0  0  0  0  0  0
    7.2649  -14.0876   26.4538 C   0  0  0  0  0  0  0  0  0  0  0  0
    8.2710  -13.1398   26.2609 C   0  0  0  0  0  0  0  0  0  0  0  0
    8.0439  -11.7905   26.2414 C   0  0  0  0  0  0  0  0  0  0  0  0
    6.7690  -11.3100   26.4180 C   0  0  0  0  0  0  0  0  0  0  0  0
    5.7508  -12.2017   26.6105 C   0  0  0  0  0  0  0  0  0  0  0  0
    5.9944  -13.5718   26.6283 C   0  0  0  0  0  0  0  0  0  0  0  0
    9.3935  -17.1207   26.1567 C   0  0  0  0  0  0  0  0  0  0  0  0
   10.2560  -17.0078   27.2539 O   0  0  0  0  0  0  0  0  0  0  0  0
    9.2094  -18.2332   25.5977 O   0  0  0  0  0  0  0  0  0  0  0  0
  2  4  1  0
  2  3  1  0
  2  1  1  1
  4  5  2  0
  6  7  1  0
  8  7  1  6
  8 10  1  0
  9  8  1  0
  9  4  1  0
 10 12  1  0
 10 11  2  0
 12 13  1  0
 13 14  1  1
 14 15  1  0
 15 16  2  0
 15 20  1  0
 16 17  1  0
 17 18  2  0
 19 18  1  0
 20 19  2  0
 21 22  1  0
 21 13  1  0
 23 21  2  0
M  END
$$$$
