ASF.pdb
     RDKit          3D

 23 23  0  0  1  0  0  0  0  0999 V2000
    7.5383  -12.3792   18.9284 C   0  0  0  0  0  0  0  0  0  0  0  0
    8.3995  -13.5893   19.1351 C   0  0  2  0  0  0  0  0  0  0  0  0
    8.2728  -14.5358   18.0246 N   0  0  0  0  0  0  0  0  0  0  0  0
    8.1445  -14.2660   20.4221 C   0  0  0  0  0  0  0  0  0  0  0  0
    8.2632  -13.6312   21.5001 O   0  0  0  0  0  0  0  0  0  0  0  0
    8.3529  -18.4125   21.1012 O   0  0  0  0  0  0  0  0  0  0  0  0
    7.1938  -17.7527   21.4768 C   0  0  0  0  0  0  0  0  0  0  0  0
    7.4379  -16.2907   21.7644 C   0  0  2  0  0  0  0  0  0  0  0  0
    7.7620  -15.6307   20.5208 N   0  0  0  0  0  0  0  0  0  0  0  0
    8.5064  -16.1418   22.7763 C   0  0  0  0  0  0  0  0  0  0  0  0
    9.7020  -16.2520   22.4033 O   0  0  0  0  0  0  0  0  0  0  0  0
    8.2745  -15.8804   24.1535 N   0  0  0  0  0  0  0  0  0  0  0  0
    9.3562  -15.6834   25.1040 C   0  0  1  0  0  0  0  0  0  0  0  0
    9.6088  -14.2288   25.3195 C   0  0  0  0  0  0  0  0  0  0  0  0
    8.4304  -13.4795   25.7362 C   0  0  0  0  0  0  0  0  0  0  0  0
    7.4082  -13.1163   24.8582 C   0  0  0  0  0  0  0  0  0  0  0  0
    6.2930  -12.4227   25.2428 C   0  0  0  0  0  0  0  0  0  0  0  0
    6.1406  -12.0488   26.5561 C   0  0  0  0  0  0  0  0  0  0  0  0
    7.1169  -12.3830   27.4527 C   0  0  0  0  0  0  0  0  0  0  0  0
    8.2466  -13.0886   27.0494 C   0  0  0  0  0  0  0  0  0  0  0  0
    9.0191  -16.4167   26.3393 C   0  0  0  0  0  0  0  0  0  0  0  0
    7.7971  -17.0895   26.4601 O   0  0  0  0  0  0  0  0  0  0  0  0
    9.8516  -16.4247   27.2832 O   0  0  0  0  0  0  0  0  0  0  0  0
  2  4  1  0
  2  3  1  0
  2  1  1  6
  4  5  2  0
  6  7  1  0
  8  7  1  6
  8 10  1  0
  9  8  1  0
  9  4  1  0
 10 12  1  0
 10 11  2  0
 12 13  1  0
 13 14  1  1
 14 15  1  0
 15 16  2  0
 15 20  1  0
 16 17  1  0
 17 18  2  0
 19 18  1  0
 20 19  2  0
 21 22  1  0
 21 13  1  0
 23 21  2  0
M  END
$$$$
