FVG.pdb
     RDKit          3D

 23 23  0  0  1  0  0  0  0  0999 V2000
    6.1774  -17.9073   26.0267 N   0  0  0  0  0  0  0  0  0  0  0  0
    6.5872  -16.5711   25.6633 C   0  0  1  0  0  0  0  0  0  0  0  0
    7.2768  -15.9192   26.8421 C   0  0  0  0  0  0  0  0  0  0  0  0
    7.0330  -14.4667   26.7561 C   0  0  0  0  0  0  0  0  0  0  0  0
    8.1410  -13.6243   26.6786 C   0  0  0  0  0  0  0  0  0  0  0  0
    7.9415  -12.2735   26.5981 C   0  0  0  0  0  0  0  0  0  0  0  0
    6.6486  -11.7732   26.5952 C   0  0  0  0  0  0  0  0  0  0  0  0
    5.5638  -12.6307   26.6731 C   0  0  0  0  0  0  0  0  0  0  0  0
    5.7559  -13.9960   26.7547 C   0  0  0  0  0  0  0  0  0  0  0  0
    7.5498  -16.5703   24.5367 C   0  0  0  0  0  0  0  0  0  0  0  0
    8.2134  -17.6233   24.3500 O   0  0  0  0  0  0  0  0  0  0  0  0
    9.0456  -14.5420   20.3687 C   0  0  0  0  0  0  0  0  0  0  0  0
    8.1613  -14.3954   21.5889 C   0  0  1  0  0  0  0  0  0  0  0  0
    6.7268  -14.5400   21.1785 C   0  0  0  0  0  0  0  0  0  0  0  0
    8.5043  -15.5445   22.5179 C   0  0  2  0  0  0  0  0  0  0  0  0
    7.7159  -15.4424   23.7110 N   0  0  0  0  0  0  0  0  0  0  0  0
    9.9468  -15.4593   22.9462 C   0  0  0  0  0  0  0  0  0  0  0  0
   10.4295  -14.4300   23.4861 O   0  0  0  0  0  0  0  0  0  0  0  0
   10.8297  -16.5537   22.7539 N   0  0  0  0  0  0  0  0  0  0  0  0
   12.1986  -16.5253   23.2133 C   0  0  0  0  0  0  0  0  0  0  0  0
   13.1389  -16.1763   22.1156 C   0  0  0  0  0  0  0  0  0  0  0  0
   12.7405  -16.1346   20.9252 O   0  0  0  0  0  0  0  0  0  0  0  0
   14.4736  -15.8874   22.3591 O   0  0  0  0  0  0  0  0  0  0  0  0
  2 10  1  0
  2  1  1  1
  3  2  1  0
  4  3  1  0
  5  4  2  0
  6  5  1  0
  7  8  1  0
  7  6  2  0
  8  9  2  0
  9  4  1  0
 10 11  2  0
 13 12  1  6
 13 14  1  0
 15 13  1  0
 16 10  1  0
 15 16  1  1
 17 19  1  0
 17 15  1  0
 18 17  2  0
 20 21  1  0
 20 19  1  0
 21 23  1  0
 22 21  2  0
M  END
$$$$
