FVG.pdb
     RDKit          3D

 23 23  0  0  1  0  0  0  0  0999 V2000
    6.3698  -19.3458   20.6297 N   0  0  0  0  0  0  0  0  0  0  0  0
    5.9257  -17.9753   20.7288 C   0  0  1  0  0  0  0  0  0  0  0  0
    5.1012  -17.8042   21.9862 C   0  0  0  0  0  0  0  0  0  0  0  0
    3.8640  -18.5907   21.8207 C   0  0  0  0  0  0  0  0  0  0  0  0
    3.6309  -19.6332   22.7164 C   0  0  0  0  0  0  0  0  0  0  0  0
    2.4910  -20.3774   22.5841 C   0  0  0  0  0  0  0  0  0  0  0  0
    1.5961  -20.0811   21.5675 C   0  0  0  0  0  0  0  0  0  0  0  0
    1.8502  -19.0401   20.6900 C   0  0  0  0  0  0  0  0  0  0  0  0
    2.9986  -18.2834   20.8161 C   0  0  0  0  0  0  0  0  0  0  0  0
    7.0606  -17.0264   20.8162 C   0  0  0  0  0  0  0  0  0  0  0  0
    8.2175  -17.5203   20.8590 O   0  0  0  0  0  0  0  0  0  0  0  0
    8.6333  -12.4377   20.2750 C   0  0  0  0  0  0  0  0  0  0  0  0
    7.4404  -13.3701   20.2758 C   0  0  1  0  0  0  0  0  0  0  0  0
    6.8676  -13.4393   18.8922 C   0  0  0  0  0  0  0  0  0  0  0  0
    7.9621  -14.7472   20.6398 C   0  0  2  0  0  0  0  0  0  0  0  0
    6.8555  -15.6342   20.8497 N   0  0  0  0  0  0  0  0  0  0  0  0
    8.7229  -14.6925   21.9396 C   0  0  0  0  0  0  0  0  0  0  0  0
    9.7981  -14.0502   22.0643 O   0  0  0  0  0  0  0  0  0  0  0  0
    8.2485  -15.3738   23.0908 N   0  0  0  0  0  0  0  0  0  0  0  0
    8.9549  -15.3369   24.3499 C   0  0  0  0  0  0  0  0  0  0  0  0
   10.1079  -16.2757   24.3603 C   0  0  0  0  0  0  0  0  0  0  0  0
   10.3382  -17.0122   23.3693 O   0  0  0  0  0  0  0  0  0  0  0  0
   10.9623  -16.3738   25.4486 O   0  0  0  0  0  0  0  0  0  0  0  0
  2 10  1  0
  2  1  1  1
  3  2  1  0
  4  3  1  0
  5  4  2  0
  6  5  1  0
  7  8  1  0
  7  6  2  0
  8  9  2  0
  9  4  1  0
 10 11  2  0
 13 12  1  6
 13 14  1  0
 15 13  1  0
 16 10  1  0
 15 16  1  1
 17 19  1  0
 17 15  1  0
 18 17  2  0
 20 21  1  0
 20 19  1  0
 21 23  1  0
 22 21  2  0
M  END
$$$$
