FVG.pdb
     RDKit          3D

 23 23  0  0  1  0  0  0  0  0999 V2000
    6.0255  -17.6945   26.0156 N   0  0  0  0  0  0  0  0  0  0  0  0
    6.5998  -16.4719   25.5050 C   0  0  1  0  0  0  0  0  0  0  0  0
    7.5235  -15.8777   26.5461 C   0  0  0  0  0  0  0  0  0  0  0  0
    7.1513  -14.4604   26.7180 C   0  0  0  0  0  0  0  0  0  0  0  0
    8.1741  -13.5432   26.9544 C   0  0  0  0  0  0  0  0  0  0  0  0
    7.8551  -12.2230   27.1173 C   0  0  0  0  0  0  0  0  0  0  0  0
    6.5285  -11.8271   27.0443 C   0  0  0  0  0  0  0  0  0  0  0  0
    5.5301  -12.7576   26.8083 C   0  0  0  0  0  0  0  0  0  0  0  0
    5.8430  -14.0925   26.6427 C   0  0  0  0  0  0  0  0  0  0  0  0
    7.4066  -16.7025   24.2835 C   0  0  0  0  0  0  0  0  0  0  0  0
    7.7844  -17.8824   24.0615 O   0  0  0  0  0  0  0  0  0  0  0  0
    6.4261  -14.5319   21.0652 C   0  0  0  0  0  0  0  0  0  0  0  0
    7.9231  -14.7151   21.1982 C   0  0  1  0  0  0  0  0  0  0  0  0
    8.5031  -13.5319   21.9131 C   0  0  0  0  0  0  0  0  0  0  0  0
    8.1383  -15.9416   22.0645 C   0  0  2  0  0  0  0  0  0  0  0  0
    7.7366  -15.6497   23.4094 N   0  0  0  0  0  0  0  0  0  0  0  0
    9.6025  -16.2942   22.1191 C   0  0  0  0  0  0  0  0  0  0  0  0
   10.2099  -16.8029   21.1411 O   0  0  0  0  0  0  0  0  0  0  0  0
   10.3644  -16.0623   23.2938 N   0  0  0  0  0  0  0  0  0  0  0  0
   11.7294  -16.5156   23.4253 C   0  0  0  0  0  0  0  0  0  0  0  0
   12.6644  -15.6812   22.6252 C   0  0  0  0  0  0  0  0  0  0  0  0
   12.2931  -15.1724   21.5386 O   0  0  0  0  0  0  0  0  0  0  0  0
   13.9647  -15.4352   23.0409 O   0  0  0  0  0  0  0  0  0  0  0  0
  2 10  1  0
  2  1  1  1
  3  2  1  0
  4  3  1  0
  5  4  2  0
  6  5  1  0
  7  8  1  0
  7  6  2  0
  8  9  2  0
  9  4  1  0
 10 11  2  0
 13 12  1  1
 13 14  1  0
 15 13  1  0
 16 10  1  0
 15 16  1  1
 17 19  1  0
 17 15  1  0
 18 17  2  0
 20 21  1  0
 20 19  1  0
 21 23  1  0
 22 21  2  0
M  END
$$$$
