FVG.pdb
     RDKit          3D

 23 23  0  0  1  0  0  0  0  0999 V2000
    6.4243  -17.2122   25.5731 N   0  0  0  0  0  0  0  0  0  0  0  0
    6.7073  -15.9573   24.9169 C   0  0  1  0  0  0  0  0  0  0  0  0
    7.7978  -15.2298   25.6731 C   0  0  0  0  0  0  0  0  0  0  0  0
    7.2074  -14.0019   26.2390 C   0  0  0  0  0  0  0  0  0  0  0  0
    7.8142  -13.4472   27.3648 C   0  0  0  0  0  0  0  0  0  0  0  0
    7.2859  -12.3086   27.9085 C   0  0  0  0  0  0  0  0  0  0  0  0
    6.1641  -11.7334   27.3318 C   0  0  0  0  0  0  0  0  0  0  0  0
    5.5792  -12.3035   26.2133 C   0  0  0  0  0  0  0  0  0  0  0  0
    6.1059  -13.4530   25.6576 C   0  0  0  0  0  0  0  0  0  0  0  0
    7.1897  -16.1502   23.5291 C   0  0  0  0  0  0  0  0  0  0  0  0
    6.8968  -17.2377   22.9674 O   0  0  0  0  0  0  0  0  0  0  0  0
    8.3503  -13.8005   19.4449 C   0  0  0  0  0  0  0  0  0  0  0  0
    8.1453  -13.7281   20.9433 C   0  0  1  0  0  0  0  0  0  0  0  0
    6.8624  -13.0082   21.2313 C   0  0  0  0  0  0  0  0  0  0  0  0
    8.0053  -15.1564   21.4349 C   0  0  2  0  0  0  0  0  0  0  0  0
    7.9423  -15.1618   22.8672 N   0  0  0  0  0  0  0  0  0  0  0  0
    9.2201  -15.9629   21.0540 C   0  0  0  0  0  0  0  0  0  0  0  0
    9.4505  -16.3144   19.8676 O   0  0  0  0  0  0  0  0  0  0  0  0
   10.1655  -16.3632   22.0340 N   0  0  0  0  0  0  0  0  0  0  0  0
   11.3191  -17.1671   21.7042 C   0  0  0  0  0  0  0  0  0  0  0  0
   12.5888  -16.4620   22.0226 C   0  0  0  0  0  0  0  0  0  0  0  0
   12.5726  -15.3726   22.6475 O   0  0  0  0  0  0  0  0  0  0  0  0
   13.8232  -16.9718   21.6478 O   0  0  0  0  0  0  0  0  0  0  0  0
  2 10  1  0
  2  1  1  1
  3  2  1  0
  4  3  1  0
  5  4  2  0
  6  5  1  0
  7  8  1  0
  7  6  2  0
  8  9  2  0
  9  4  1  0
 10 11  2  0
 13 12  1  6
 13 14  1  0
 15 13  1  0
 16 10  1  0
 15 16  1  1
 17 19  1  0
 17 15  1  0
 18 17  2  0
 20 21  1  0
 20 19  1  0
 21 23  1  0
 22 21  2  0
M  END
$$$$
