FVG.pdb
     RDKit          3D

 23 23  0  0  1  0  0  0  0  0999 V2000
    6.5282  -15.6775   22.5254 N   0  0  0  0  0  0  0  0  0  0  0  0
    7.5046  -14.6142   22.5620 C   0  0  1  0  0  0  0  0  0  0  0  0
    6.9283  -13.3803   21.9020 C   0  0  0  0  0  0  0  0  0  0  0  0
    7.3802  -13.3715   20.4975 C   0  0  0  0  0  0  0  0  0  0  0  0
    6.4126  -13.4970   19.5018 C   0  0  0  0  0  0  0  0  0  0  0  0
    6.8061  -13.4917   18.1918 C   0  0  0  0  0  0  0  0  0  0  0  0
    8.1514  -13.3623   17.8834 C   0  0  0  0  0  0  0  0  0  0  0  0
    9.0939  -13.2390   18.8908 C   0  0  0  0  0  0  0  0  0  0  0  0
    8.7057  -13.2434   20.2162 C   0  0  0  0  0  0  0  0  0  0  0  0
    7.8695  -14.2398   23.9486 C   0  0  0  0  0  0  0  0  0  0  0  0
    7.5562  -13.0821   24.3301 O   0  0  0  0  0  0  0  0  0  0  0  0
    8.6193  -13.6818   28.2115 C   0  0  0  0  0  0  0  0  0  0  0  0
    7.9745  -14.1432   26.9217 C   0  0  1  0  0  0  0  0  0  0  0  0
    7.3488  -12.9668   26.2348 C   0  0  0  0  0  0  0  0  0  0  0  0
    9.0907  -14.6667   26.0378 C   0  0  2  0  0  0  0  0  0  0  0  0
    8.5369  -15.1382   24.8023 N   0  0  0  0  0  0  0  0  0  0  0  0
    9.7629  -15.8488   26.6876 C   0  0  0  0  0  0  0  0  0  0  0  0
    9.1251  -16.8723   27.0478 O   0  0  0  0  0  0  0  0  0  0  0  0
   11.1627  -15.8530   26.9218 N   0  0  0  0  0  0  0  0  0  0  0  0
   11.8466  -17.0035   27.4644 C   0  0  0  0  0  0  0  0  0  0  0  0
   11.3766  -17.3242   28.8381 C   0  0  0  0  0  0  0  0  0  0  0  0
   10.9059  -16.4237   29.5764 O   0  0  0  0  0  0  0  0  0  0  0  0
   11.4384  -18.6115   29.3512 O   0  0  0  0  0  0  0  0  0  0  0  0
  2 10  1  0
  2  1  1  1
  3  2  1  0
  4  3  1  0
  5  4  2  0
  6  5  1  0
  7  8  1  0
  7  6  2  0
  8  9  2  0
  9  4  1  0
 10 11  2  0
 13 12  1  1
 13 14  1  0
 15 13  1  0
 16 10  1  0
 15 16  1  6
 17 19  1  0
 17 15  1  0
 18 17  2  0
 20 21  1  0
 20 19  1  0
 21 23  1  0
 22 21  2  0
M  END
$$$$
