FVG.pdb
     RDKit          3D

 23 23  0  0  1  0  0  0  0  0999 V2000
    6.1159  -18.0304   25.7867 N   0  0  0  0  0  0  0  0  0  0  0  0
    6.4919  -16.6589   25.5361 C   0  0  1  0  0  0  0  0  0  0  0  0
    7.2245  -16.1106   26.7414 C   0  0  0  0  0  0  0  0  0  0  0  0
    7.0251  -14.6489   26.7597 C   0  0  0  0  0  0  0  0  0  0  0  0
    5.7163  -14.1702   26.7237 C   0  0  0  0  0  0  0  0  0  0  0  0
    5.5049  -12.8189   26.7397 C   0  0  0  0  0  0  0  0  0  0  0  0
    6.5907  -11.9584   26.7910 C   0  0  0  0  0  0  0  0  0  0  0  0
    7.8818  -12.4585   26.8260 C   0  0  0  0  0  0  0  0  0  0  0  0
    8.1046  -13.8214   26.8102 C   0  0  0  0  0  0  0  0  0  0  0  0
    7.4037  -16.5341   24.3746 C   0  0  0  0  0  0  0  0  0  0  0  0
    8.1807  -17.4986   24.1508 O   0  0  0  0  0  0  0  0  0  0  0  0
    8.6571  -14.2113   20.2733 C   0  0  0  0  0  0  0  0  0  0  0  0
    7.7206  -14.2438   21.4626 C   0  0  1  0  0  0  0  0  0  0  0  0
    6.3386  -14.5853   20.9927 C   0  0  0  0  0  0  0  0  0  0  0  0
    8.2012  -15.3628   22.3670 C   0  0  2  0  0  0  0  0  0  0  0  0
    7.4020  -15.3883   23.5570 N   0  0  0  0  0  0  0  0  0  0  0  0
    9.6202  -15.1083   22.8064 C   0  0  0  0  0  0  0  0  0  0  0  0
    9.9008  -14.3529   23.7733 O   0  0  0  0  0  0  0  0  0  0  0  0
   10.7113  -15.7204   22.1363 N   0  0  0  0  0  0  0  0  0  0  0  0
   12.0836  -15.4352   22.4847 C   0  0  0  0  0  0  0  0  0  0  0  0
   12.7039  -16.5582   23.2363 C   0  0  0  0  0  0  0  0  0  0  0  0
   13.9320  -16.7970   23.1253 O   0  0  0  0  0  0  0  0  0  0  0  0
   11.9620  -17.3745   24.0773 O   0  0  0  0  0  0  0  0  0  0  0  0
  2 10  1  0
  2  1  1  1
  3  2  1  0
  4  3  1  0
  5  4  2  0
  6  5  1  0
  7  8  1  0
  7  6  2  0
  8  9  2  0
  9  4  1  0
 10 11  2  0
 13 12  1  6
 13 14  1  0
 15 13  1  0
 16 10  1  0
 15 16  1  1
 17 19  1  0
 17 15  1  0
 18 17  2  0
 20 21  1  0
 20 19  1  0
 21 23  1  0
 22 21  2  0
M  END
$$$$
