FVG.pdb
     RDKit          3D

 23 23  0  0  1  0  0  0  0  0999 V2000
    6.4611  -17.6790   26.1009 N   0  0  0  0  0  0  0  0  0  0  0  0
    6.5910  -16.3615   25.5242 C   0  0  1  0  0  0  0  0  0  0  0  0
    7.6790  -15.6005   26.2503 C   0  0  0  0  0  0  0  0  0  0  0  0
    7.2411  -14.1965   26.3680 C   0  0  0  0  0  0  0  0  0  0  0  0
    8.2249  -13.2105   26.4233 C   0  0  0  0  0  0  0  0  0  0  0  0
    7.8446  -11.9011   26.5325 C   0  0  0  0  0  0  0  0  0  0  0  0
    6.4961  -11.5838   26.5857 C   0  0  0  0  0  0  0  0  0  0  0  0
    5.5374  -12.5817   26.5289 C   0  0  0  0  0  0  0  0  0  0  0  0
    5.9122  -13.9064   26.4187 C   0  0  0  0  0  0  0  0  0  0  0  0
    6.9729  -16.4143   24.0934 C   0  0  0  0  0  0  0  0  0  0  0  0
    6.0664  -16.7029   23.2693 O   0  0  0  0  0  0  0  0  0  0  0  0
    8.5351  -13.5881   21.0337 C   0  0  0  0  0  0  0  0  0  0  0  0
    7.9328  -14.2346   22.2632 C   0  0  1  0  0  0  0  0  0  0  0  0
    6.4523  -14.3723   22.0728 C   0  0  0  0  0  0  0  0  0  0  0  0
    8.5274  -15.6268   22.3607 C   0  0  2  0  0  0  0  0  0  0  0  0
    8.2908  -16.1535   23.6730 N   0  0  0  0  0  0  0  0  0  0  0  0
   10.0228  -15.5715   22.1819 C   0  0  0  0  0  0  0  0  0  0  0  0
   10.5593  -15.2623   21.0861 O   0  0  0  0  0  0  0  0  0  0  0  0
   10.8970  -15.8706   23.2593 N   0  0  0  0  0  0  0  0  0  0  0  0
   12.3335  -15.8293   23.1162 C   0  0  0  0  0  0  0  0  0  0  0  0
   12.8512  -17.0385   22.4230 C   0  0  0  0  0  0  0  0  0  0  0  0
   13.6008  -17.8461   23.0259 O   0  0  0  0  0  0  0  0  0  0  0  0
   12.5315  -17.3186   21.1026 O   0  0  0  0  0  0  0  0  0  0  0  0
  2 10  1  0
  2  1  1  1
  3  2  1  0
  4  3  1  0
  5  4  2  0
  6  5  1  0
  7  8  1  0
  7  6  2  0
  8  9  2  0
  9  4  1  0
 10 11  2  0
 13 12  1  6
 13 14  1  0
 15 13  1  0
 16 10  1  0
 15 16  1  1
 17 19  1  0
 17 15  1  0
 18 17  2  0
 20 21  1  0
 20 19  1  0
 21 23  1  0
 22 21  2  0
M  END
$$$$
