FVG.pdb
     RDKit          3D

 23 23  0  0  1  0  0  0  0  0999 V2000
    6.3089  -17.2737   25.7648 N   0  0  0  0  0  0  0  0  0  0  0  0
    6.6790  -16.0428   25.1066 C   0  0  1  0  0  0  0  0  0  0  0  0
    7.8096  -15.3861   25.8685 C   0  0  0  0  0  0  0  0  0  0  0  0
    7.3173  -14.0889   26.3701 C   0  0  0  0  0  0  0  0  0  0  0  0
    6.0515  -13.6713   25.9616 C   0  0  0  0  0  0  0  0  0  0  0  0
    5.5723  -12.4723   26.4128 C   0  0  0  0  0  0  0  0  0  0  0  0
    6.3510  -11.7017   27.2623 C   0  0  0  0  0  0  0  0  0  0  0  0
    7.6056  -12.1384   27.6540 C   0  0  0  0  0  0  0  0  0  0  0  0
    8.0976  -13.3477   27.2034 C   0  0  0  0  0  0  0  0  0  0  0  0
    7.1578  -16.2725   23.7231 C   0  0  0  0  0  0  0  0  0  0  0  0
    6.8044  -17.3442   23.1657 O   0  0  0  0  0  0  0  0  0  0  0  0
    8.3004  -13.8574   19.6821 C   0  0  0  0  0  0  0  0  0  0  0  0
    8.0802  -13.8347   21.1800 C   0  0  1  0  0  0  0  0  0  0  0  0
    6.7768  -13.1561   21.4766 C   0  0  0  0  0  0  0  0  0  0  0  0
    7.9722  -15.2800   21.6278 C   0  0  2  0  0  0  0  0  0  0  0  0
    7.9719  -15.3347   23.0605 N   0  0  0  0  0  0  0  0  0  0  0  0
    9.1750  -16.0625   21.1671 C   0  0  0  0  0  0  0  0  0  0  0  0
    9.4000  -16.2985   19.9514 O   0  0  0  0  0  0  0  0  0  0  0  0
   10.1147  -16.5712   22.1012 N   0  0  0  0  0  0  0  0  0  0  0  0
   11.2199  -17.4094   21.6990 C   0  0  0  0  0  0  0  0  0  0  0  0
   12.4811  -16.6320   21.5729 C   0  0  0  0  0  0  0  0  0  0  0  0
   13.5812  -17.2216   21.4328 O   0  0  0  0  0  0  0  0  0  0  0  0
   12.4925  -15.2452   21.6045 O   0  0  0  0  0  0  0  0  0  0  0  0
  2 10  1  0
  2  1  1  1
  3  2  1  0
  4  3  1  0
  5  4  2  0
  6  5  1  0
  7  8  1  0
  7  6  2  0
  8  9  2  0
  9  4  1  0
 10 11  2  0
 13 12  1  6
 13 14  1  0
 15 13  1  0
 16 10  1  0
 15 16  1  1
 17 19  1  0
 17 15  1  0
 18 17  2  0
 20 21  1  0
 20 19  1  0
 21 23  1  0
 22 21  2  0
M  END
$$$$
