FVG.pdb
     RDKit          3D

 23 23  0  0  1  0  0  0  0  0999 V2000
    5.9458  -18.0568   25.9654 N   0  0  0  0  0  0  0  0  0  0  0  0
    6.4054  -16.7247   25.6495 C   0  0  1  0  0  0  0  0  0  0  0  0
    7.1673  -16.1630   26.8302 C   0  0  0  0  0  0  0  0  0  0  0  0
    7.1551  -14.6924   26.7121 C   0  0  0  0  0  0  0  0  0  0  0  0
    8.3781  -14.0253   26.7642 C   0  0  0  0  0  0  0  0  0  0  0  0
    8.3936  -12.6618   26.6571 C   0  0  0  0  0  0  0  0  0  0  0  0
    7.1993  -11.9755   26.4998 C   0  0  0  0  0  0  0  0  0  0  0  0
    5.9969  -12.6611   26.4509 C   0  0  0  0  0  0  0  0  0  0  0  0
    5.9717  -14.0378   26.5583 C   0  0  0  0  0  0  0  0  0  0  0  0
    7.3259  -16.7134   24.4882 C   0  0  0  0  0  0  0  0  0  0  0  0
    8.0247  -17.7435   24.3017 O   0  0  0  0  0  0  0  0  0  0  0  0
    8.8286  -14.6669   20.3322 C   0  0  0  0  0  0  0  0  0  0  0  0
    7.9181  -14.5288   21.5340 C   0  0  1  0  0  0  0  0  0  0  0  0
    6.4964  -14.7243   21.1006 C   0  0  0  0  0  0  0  0  0  0  0  0
    8.2793  -15.6520   22.4874 C   0  0  2  0  0  0  0  0  0  0  0  0
    7.4158  -15.6006   23.6308 N   0  0  0  0  0  0  0  0  0  0  0  0
    9.6849  -15.4719   23.0006 C   0  0  0  0  0  0  0  0  0  0  0  0
   10.0366  -14.4593   23.6603 O   0  0  0  0  0  0  0  0  0  0  0  0
   10.6811  -16.4526   22.7558 N   0  0  0  0  0  0  0  0  0  0  0  0
   12.0333  -16.3112   23.2430 C   0  0  0  0  0  0  0  0  0  0  0  0
   12.9710  -15.9246   22.1558 C   0  0  0  0  0  0  0  0  0  0  0  0
   12.6809  -16.1500   20.9547 O   0  0  0  0  0  0  0  0  0  0  0  0
   14.1853  -15.3087   22.4208 O   0  0  0  0  0  0  0  0  0  0  0  0
  2 10  1  0
  2  1  1  1
  3  2  1  0
  4  3  1  0
  5  4  2  0
  6  5  1  0
  7  8  1  0
  7  6  2  0
  8  9  2  0
  9  4  1  0
 10 11  2  0
 13 12  1  6
 13 14  1  0
 15 13  1  0
 16 10  1  0
 15 16  1  1
 17 19  1  0
 17 15  1  0
 18 17  2  0
 20 21  1  0
 20 19  1  0
 21 23  1  0
 22 21  2  0
M  END
$$$$
