FVG.pdb
     RDKit          3D

 23 23  0  0  1  0  0  0  0  0999 V2000
    6.4310  -18.0703   25.9888 N   0  0  0  0  0  0  0  0  0  0  0  0
    6.7625  -16.7329   25.5565 C   0  0  1  0  0  0  0  0  0  0  0  0
    7.6726  -16.0861   26.5780 C   0  0  0  0  0  0  0  0  0  0  0  0
    7.2878  -14.6658   26.6846 C   0  0  0  0  0  0  0  0  0  0  0  0
    6.0875  -14.2709   26.0958 C   0  0  0  0  0  0  0  0  0  0  0  0
    5.7083  -12.9594   26.1807 C   0  0  0  0  0  0  0  0  0  0  0  0
    6.5211  -12.0553   26.8469 C   0  0  0  0  0  0  0  0  0  0  0  0
    7.7093  -12.4721   27.4239 C   0  0  0  0  0  0  0  0  0  0  0  0
    8.1000  -13.7943   27.3431 C   0  0  0  0  0  0  0  0  0  0  0  0
    7.4832  -16.7281   24.2617 C   0  0  0  0  0  0  0  0  0  0  0  0
    7.9632  -17.8236   23.8698 O   0  0  0  0  0  0  0  0  0  0  0  0
    8.4911  -14.5042   20.0542 C   0  0  0  0  0  0  0  0  0  0  0  0
    7.7287  -14.4548   21.3614 C   0  0  1  0  0  0  0  0  0  0  0  0
    6.2708  -14.6745   21.0904 C   0  0  0  0  0  0  0  0  0  0  0  0
    8.2313  -15.6113   22.2046 C   0  0  2  0  0  0  0  0  0  0  0  0
    7.6255  -15.5512   23.5026 N   0  0  0  0  0  0  0  0  0  0  0  0
    9.7188  -15.4966   22.4177 C   0  0  0  0  0  0  0  0  0  0  0  0
   10.2258  -14.6303   23.1771 O   0  0  0  0  0  0  0  0  0  0  0  0
   10.6189  -16.3749   21.7599 N   0  0  0  0  0  0  0  0  0  0  0  0
   12.0369  -16.3669   22.0337 C   0  0  0  0  0  0  0  0  0  0  0  0
   12.7729  -17.3051   21.1455 C   0  0  0  0  0  0  0  0  0  0  0  0
   12.3845  -18.4921   21.0117 O   0  0  0  0  0  0  0  0  0  0  0  0
   13.9008  -16.9127   20.4399 O   0  0  0  0  0  0  0  0  0  0  0  0
  2 10  1  0
  2  1  1  1
  3  2  1  0
  4  3  1  0
  5  4  2  0
  6  5  1  0
  7  8  1  0
  7  6  2  0
  8  9  2  0
  9  4  1  0
 10 11  2  0
 13 12  1  6
 13 14  1  0
 15 13  1  0
 16 10  1  0
 15 16  1  1
 17 19  1  0
 17 15  1  0
 18 17  2  0
 20 21  1  0
 20 19  1  0
 21 23  1  0
 22 21  2  0
M  END
$$$$
