FVG.pdb
     RDKit          3D

 23 23  0  0  1  0  0  0  0  0999 V2000
    7.1456  -18.6526   26.9329 N   0  0  0  0  0  0  0  0  0  0  0  0
    7.8452  -17.4039   26.7408 C   0  0  1  0  0  0  0  0  0  0  0  0
    9.1758  -17.4580   27.4595 C   0  0  0  0  0  0  0  0  0  0  0  0
    9.6334  -16.0696   27.6593 C   0  0  0  0  0  0  0  0  0  0  0  0
    8.7096  -15.1429   28.1400 C   0  0  0  0  0  0  0  0  0  0  0  0
    9.1092  -13.8491   28.3336 C   0  0  0  0  0  0  0  0  0  0  0  0
   10.4173  -13.4886   28.0493 C   0  0  0  0  0  0  0  0  0  0  0  0
   11.3166  -14.4278   27.5726 C   0  0  0  0  0  0  0  0  0  0  0  0
   10.9219  -15.7364   27.3741 C   0  0  0  0  0  0  0  0  0  0  0  0
    8.1297  -17.1386   25.3109 C   0  0  0  0  0  0  0  0  0  0  0  0
    8.2171  -18.1373   24.5498 O   0  0  0  0  0  0  0  0  0  0  0  0
    7.7113  -13.9003   21.7178 C   0  0  0  0  0  0  0  0  0  0  0  0
    7.5944  -14.1962   23.1981 C   0  0  1  0  0  0  0  0  0  0  0  0
    6.1451  -14.2491   23.5774 C   0  0  0  0  0  0  0  0  0  0  0  0
    8.1898  -15.5742   23.4168 C   0  0  2  0  0  0  0  0  0  0  0  0
    8.2951  -15.8283   24.8238 N   0  0  0  0  0  0  0  0  0  0  0  0
    9.5899  -15.6339   22.8623 C   0  0  0  0  0  0  0  0  0  0  0  0
    9.8303  -15.5525   21.6295 O   0  0  0  0  0  0  0  0  0  0  0  0
   10.7083  -15.7867   23.7225 N   0  0  0  0  0  0  0  0  0  0  0  0
   12.0662  -15.7174   23.2356 C   0  0  0  0  0  0  0  0  0  0  0  0
   12.6218  -17.0696   22.9641 C   0  0  0  0  0  0  0  0  0  0  0  0
   11.9040  -18.0915   23.0983 O   0  0  0  0  0  0  0  0  0  0  0  0
   13.9353  -17.2534   22.5579 O   0  0  0  0  0  0  0  0  0  0  0  0
  2 10  1  0
  2  1  1  6
  3  2  1  0
  4  3  1  0
  5  4  2  0
  6  5  1  0
  7  8  1  0
  7  6  2  0
  8  9  2  0
  9  4  1  0
 10 11  2  0
 13 12  1  6
 13 14  1  0
 15 13  1  0
 16 10  1  0
 15 16  1  1
 17 19  1  0
 17 15  1  0
 18 17  2  0
 20 21  1  0
 20 19  1  0
 21 23  1  0
 22 21  2  0
M  END
$$$$
