FVG.pdb
     RDKit          3D

 23 23  0  0  1  0  0  0  0  0999 V2000
    5.7279  -17.9376   25.8117 N   0  0  0  0  0  0  0  0  0  0  0  0
    6.2661  -16.6125   25.6125 C   0  0  1  0  0  0  0  0  0  0  0  0
    7.0329  -16.1910   26.8472 C   0  0  0  0  0  0  0  0  0  0  0  0
    7.3041  -14.7452   26.7338 C   0  0  0  0  0  0  0  0  0  0  0  0
    8.6306  -14.3412   26.5908 C   0  0  0  0  0  0  0  0  0  0  0  0
    8.9083  -13.0061   26.4838 C   0  0  0  0  0  0  0  0  0  0  0  0
    7.8704  -12.0877   26.5195 C   0  0  0  0  0  0  0  0  0  0  0  0
    6.5604  -12.5140   26.6624 C   0  0  0  0  0  0  0  0  0  0  0  0
    6.2707  -13.8600   26.7712 C   0  0  0  0  0  0  0  0  0  0  0  0
    7.2098  -16.5598   24.4711 C   0  0  0  0  0  0  0  0  0  0  0  0
    7.9791  -17.5442   24.3187 O   0  0  0  0  0  0  0  0  0  0  0  0
    8.5406  -14.6169   20.2242 C   0  0  0  0  0  0  0  0  0  0  0  0
    7.5751  -14.5530   21.3887 C   0  0  1  0  0  0  0  0  0  0  0  0
    6.2397  -15.0752   20.9512 C   0  0  0  0  0  0  0  0  0  0  0  0
    8.1177  -15.4822   22.4579 C   0  0  2  0  0  0  0  0  0  0  0  0
    7.2453  -15.4584   23.5953 N   0  0  0  0  0  0  0  0  0  0  0  0
    9.4631  -15.0007   22.9368 C   0  0  0  0  0  0  0  0  0  0  0  0
    9.6067  -13.9214   23.5683 O   0  0  0  0  0  0  0  0  0  0  0  0
   10.6380  -15.7576   22.6902 N   0  0  0  0  0  0  0  0  0  0  0  0
   11.9457  -15.3000   23.0981 C   0  0  0  0  0  0  0  0  0  0  0  0
   13.0138  -16.2455   22.6787 C   0  0  0  0  0  0  0  0  0  0  0  0
   12.7194  -17.3873   22.2459 O   0  0  0  0  0  0  0  0  0  0  0  0
   14.3577  -15.9091   22.7476 O   0  0  0  0  0  0  0  0  0  0  0  0
  2 10  1  0
  2  1  1  1
  3  2  1  0
  4  3  1  0
  5  4  2  0
  6  5  1  0
  7  8  1  0
  7  6  2  0
  8  9  2  0
  9  4  1  0
 10 11  2  0
 13 12  1  6
 13 14  1  0
 15 13  1  0
 16 10  1  0
 15 16  1  1
 17 19  1  0
 17 15  1  0
 18 17  2  0
 20 21  1  0
 20 19  1  0
 21 23  1  0
 22 21  2  0
M  END
$$$$
