KFT.pdb
     RDKit          3D

 28 28  0  0  1  0  0  0  0  0999 V2000
    9.8083  -16.4658   19.1054 N   0  0  0  0  0  0  0  0  0  0  0  0
    8.6500  -16.6164   19.9585 C   0  0  1  0  0  0  0  0  0  0  0  0
    8.2458  -18.0401   20.1444 C   0  0  0  0  0  0  0  0  0  0  0  0
    8.0982  -18.7935   18.8627 C   0  0  0  0  0  0  0  0  0  0  0  0
    6.8738  -19.6620   18.9070 C   0  0  0  0  0  0  0  0  0  0  0  0
    6.7401  -20.4604   17.6035 C   0  0  0  0  0  0  0  0  0  0  0  0
    5.5162  -21.2465   17.7158 N   0  0  0  0  0  0  0  0  0  0  0  0
    8.9259  -16.0631   21.3271 C   0  0  0  0  0  0  0  0  0  0  0  0
   10.0289  -16.2569   21.8797 O   0  0  0  0  0  0  0  0  0  0  0  0
    7.9432  -15.3234   21.9935 N   0  0  0  0  0  0  0  0  0  0  0  0
    8.0818  -14.7744   23.3235 C   0  0  1  0  0  0  0  0  0  0  0  0
    7.1141  -13.6773   23.6108 C   0  0  0  0  0  0  0  0  0  0  0  0
    7.1637  -13.1365   24.9637 C   0  0  0  0  0  0  0  0  0  0  0  0
    6.1248  -13.3313   25.8489 C   0  0  0  0  0  0  0  0  0  0  0  0
    6.1199  -12.8440   27.1323 C   0  0  0  0  0  0  0  0  0  0  0  0
    7.2063  -12.1156   27.5822 C   0  0  0  0  0  0  0  0  0  0  0  0
    8.2746  -11.8973   26.7194 C   0  0  0  0  0  0  0  0  0  0  0  0
    8.2418  -12.4109   25.4173 C   0  0  0  0  0  0  0  0  0  0  0  0
    8.1506  -15.8323   24.3473 C   0  0  0  0  0  0  0  0  0  0  0  0
    7.1455  -16.5365   24.6221 O   0  0  0  0  0  0  0  0  0  0  0  0
    9.9219  -18.7323   24.1335 C   0  0  0  0  0  0  0  0  0  0  0  0
   10.4616  -18.1901   25.4395 C   0  0  1  0  0  0  0  0  0  0  0  0
   11.6498  -17.5486   25.1836 O   0  0  0  0  0  0  0  0  0  0  0  0
    9.4079  -17.2406   25.9960 C   0  0  2  0  0  0  0  0  0  0  0  0
    9.3447  -16.1093   25.0672 N   0  0  0  0  0  0  0  0  0  0  0  0
    9.7803  -16.7459   27.3204 C   0  0  0  0  0  0  0  0  0  0  0  0
   10.0059  -15.5259   27.4969 O   0  0  0  0  0  0  0  0  0  0  0  0
    9.8881  -17.6042   28.3880 O   0  0  0  0  0  0  0  0  0  0  0  0
  2  1  1  6
  2  8  1  0
  2  3  1  0
  4  3  1  0
  5  4  1  0
  6  5  1  0
  7  6  1  0
  8  9  2  0
 10 11  1  0
 10  8  1  0
 12 13  1  0
 11 12  1  1
 13 18  2  0
 14 15  2  0
 14 13  1  0
 15 16  1  0
 16 17  2  0
 18 17  1  0
 19 20  2  0
 19 11  1  0
 22 21  1  6
 22 24  1  0
 23 22  1  0
 24 26  1  0
 24 25  1  6
 25 19  1  0
 26 28  1  0
 27 26  2  0
M  END
$$$$
