KFT.pdb
     RDKit          3D

 28 28  0  0  1  0  0  0  0  0999 V2000
    8.5378  -18.7630   19.7532 N   0  0  0  0  0  0  0  0  0  0  0  0
    9.6321  -18.0342   19.1506 C   0  0  1  0  0  0  0  0  0  0  0  0
    9.2339  -17.3074   17.9105 C   0  0  0  0  0  0  0  0  0  0  0  0
    9.4180  -18.1068   16.6619 C   0  0  0  0  0  0  0  0  0  0  0  0
    8.0895  -18.3787   16.0167 C   0  0  0  0  0  0  0  0  0  0  0  0
    8.2835  -19.1427   14.7003 C   0  0  0  0  0  0  0  0  0  0  0  0
    6.9588  -19.3103   14.1124 N   0  0  0  0  0  0  0  0  0  0  0  0
   10.1685  -17.0038   20.1023 C   0  0  0  0  0  0  0  0  0  0  0  0
   11.0941  -16.2403   19.7559 O   0  0  0  0  0  0  0  0  0  0  0  0
    9.6309  -16.8932   21.3891 N   0  0  0  0  0  0  0  0  0  0  0  0
   10.0593  -15.9364   22.3844 C   0  0  1  0  0  0  0  0  0  0  0  0
    8.9433  -15.1057   22.9204 C   0  0  0  0  0  0  0  0  0  0  0  0
    8.2246  -14.3097   21.9329 C   0  0  0  0  0  0  0  0  0  0  0  0
    7.0120  -14.7260   21.4260 C   0  0  0  0  0  0  0  0  0  0  0  0
    6.2946  -14.0162   20.4953 C   0  0  0  0  0  0  0  0  0  0  0  0
    6.7974  -12.8157   20.0271 C   0  0  0  0  0  0  0  0  0  0  0  0
    8.0180  -12.3613   20.5139 C   0  0  0  0  0  0  0  0  0  0  0  0
    8.7197  -13.1143   21.4631 C   0  0  0  0  0  0  0  0  0  0  0  0
   10.9228  -16.5578   23.4043 C   0  0  0  0  0  0  0  0  0  0  0  0
   10.4323  -17.0986   24.4284 O   0  0  0  0  0  0  0  0  0  0  0  0
   13.2281  -19.2337   22.9644 C   0  0  0  0  0  0  0  0  0  0  0  0
   14.0977  -18.1683   23.5964 C   0  0  1  0  0  0  0  0  0  0  0  0
   14.8119  -17.5458   22.6008 O   0  0  0  0  0  0  0  0  0  0  0  0
   13.1650  -17.2042   24.3190 C   0  0  2  0  0  0  0  0  0  0  0  0
   12.3389  -16.5796   23.2827 N   0  0  0  0  0  0  0  0  0  0  0  0
   13.9128  -16.1620   25.0206 C   0  0  0  0  0  0  0  0  0  0  0  0
   13.8631  -14.9746   24.6230 O   0  0  0  0  0  0  0  0  0  0  0  0
   14.6776  -16.4641   26.1215 O   0  0  0  0  0  0  0  0  0  0  0  0
  2  1  1  1
  2  8  1  0
  2  3  1  0
  4  3  1  0
  5  4  1  0
  6  5  1  0
  7  6  1  0
  8  9  2  0
 10 11  1  0
 10  8  1  0
 12 13  1  0
 11 12  1  1
 13 18  2  0
 14 15  2  0
 14 13  1  0
 15 16  1  0
 16 17  2  0
 18 17  1  0
 19 20  2  0
 19 11  1  0
 22 21  1  6
 22 24  1  0
 23 22  1  0
 24 26  1  0
 24 25  1  6
 25 19  1  0
 26 28  1  0
 27 26  2  0
M  END
$$$$
