KFT.pdb
     RDKit          3D

 28 28  0  0  1  0  0  0  0  0999 V2000
    7.0343  -18.5421   20.5579 N   0  0  0  0  0  0  0  0  0  0  0  0
    6.9548  -18.8354   21.9720 C   0  0  1  0  0  0  0  0  0  0  0  0
    7.6395  -20.1080   22.3413 C   0  0  0  0  0  0  0  0  0  0  0  0
    7.9081  -21.0041   21.1765 C   0  0  0  0  0  0  0  0  0  0  0  0
    8.4283  -22.3313   21.6493 C   0  0  0  0  0  0  0  0  0  0  0  0
    8.5860  -23.2938   20.4647 C   0  0  0  0  0  0  0  0  0  0  0  0
    9.1264  -24.5375   21.0028 N   0  0  0  0  0  0  0  0  0  0  0  0
    7.6047  -17.7457   22.7753 C   0  0  0  0  0  0  0  0  0  0  0  0
    8.7535  -17.3468   22.4916 O   0  0  0  0  0  0  0  0  0  0  0  0
    6.9224  -17.1686   23.8517 N   0  0  0  0  0  0  0  0  0  0  0  0
    7.4723  -16.1674   24.7375 C   0  0  1  0  0  0  0  0  0  0  0  0
    6.4380  -15.2649   25.3193 C   0  0  0  0  0  0  0  0  0  0  0  0
    6.9508  -14.1448   26.0989 C   0  0  0  0  0  0  0  0  0  0  0  0
    7.2612  -12.9418   25.5012 C   0  0  0  0  0  0  0  0  0  0  0  0
    7.7472  -11.8566   26.1874 C   0  0  0  0  0  0  0  0  0  0  0  0
    7.9437  -11.9539   27.5532 C   0  0  0  0  0  0  0  0  0  0  0  0
    7.6425  -13.1509   28.1932 C   0  0  0  0  0  0  0  0  0  0  0  0
    7.1485  -14.2353   27.4581 C   0  0  0  0  0  0  0  0  0  0  0  0
    8.4100  -16.7544   25.7113 C   0  0  0  0  0  0  0  0  0  0  0  0
    8.0396  -17.6535   26.5088 O   0  0  0  0  0  0  0  0  0  0  0  0
   11.8199  -17.8492   24.6267 C   0  0  0  0  0  0  0  0  0  0  0  0
   12.0403  -17.0725   25.9069 C   0  0  1  0  0  0  0  0  0  0  0  0
   12.4585  -15.8054   25.5778 O   0  0  0  0  0  0  0  0  0  0  0  0
   10.7122  -17.0600   26.6537 C   0  0  2  0  0  0  0  0  0  0  0  0
    9.7672  -16.3402   25.7963 N   0  0  0  0  0  0  0  0  0  0  0  0
   10.8237  -16.3567   27.9306 C   0  0  0  0  0  0  0  0  0  0  0  0
   11.5776  -16.7977   28.8292 O   0  0  0  0  0  0  0  0  0  0  0  0
   10.1088  -15.2070   28.1660 O   0  0  0  0  0  0  0  0  0  0  0  0
  2  1  1  6
  2  8  1  0
  2  3  1  0
  4  3  1  0
  5  4  1  0
  6  5  1  0
  7  6  1  0
  8  9  2  0
 10 11  1  0
 10  8  1  0
 12 13  1  0
 11 12  1  1
 13 18  2  0
 14 15  2  0
 14 13  1  0
 15 16  1  0
 16 17  2  0
 18 17  1  0
 19 20  2  0
 19 11  1  0
 22 21  1  6
 22 24  1  0
 23 22  1  0
 24 26  1  0
 24 25  1  6
 25 19  1  0
 26 28  1  0
 27 26  2  0
M  END
$$$$
