KFT.pdb
     RDKit          3D

 28 28  0  0  1  0  0  0  0  0999 V2000
    8.1407  -17.9039   20.6843 N   0  0  0  0  0  0  0  0  0  0  0  0
    9.5148  -17.5312   20.9396 C   0  0  1  0  0  0  0  0  0  0  0  0
   10.1819  -16.9210   19.7532 C   0  0  0  0  0  0  0  0  0  0  0  0
    9.8495  -17.5989   18.4640 C   0  0  0  0  0  0  0  0  0  0  0  0
   11.0882  -18.1840   17.8486 C   0  0  0  0  0  0  0  0  0  0  0  0
   10.7809  -18.7261   16.4464 C   0  0  0  0  0  0  0  0  0  0  0  0
   12.0338  -19.2519   15.9152 N   0  0  0  0  0  0  0  0  0  0  0  0
    9.5911  -16.5194   22.0466 C   0  0  0  0  0  0  0  0  0  0  0  0
   10.6902  -16.0360   22.3902 O   0  0  0  0  0  0  0  0  0  0  0  0
    8.4248  -16.1107   22.7022 N   0  0  0  0  0  0  0  0  0  0  0  0
    8.3880  -15.2583   23.8690 C   0  0  1  0  0  0  0  0  0  0  0  0
    7.2411  -14.3059   23.8658 C   0  0  0  0  0  0  0  0  0  0  0  0
    7.1047  -13.4853   25.0631 C   0  0  0  0  0  0  0  0  0  0  0  0
    7.8658  -12.3496   25.2406 C   0  0  0  0  0  0  0  0  0  0  0  0
    7.7779  -11.5426   26.3478 C   0  0  0  0  0  0  0  0  0  0  0  0
    6.8838  -11.8683   27.3516 C   0  0  0  0  0  0  0  0  0  0  0  0
    6.0979  -13.0065   27.2100 C   0  0  0  0  0  0  0  0  0  0  0  0
    6.2169  -13.8042   26.0655 C   0  0  0  0  0  0  0  0  0  0  0  0
    8.5588  -16.0281   25.1142 C   0  0  0  0  0  0  0  0  0  0  0  0
    7.7128  -16.8895   25.4663 O   0  0  0  0  0  0  0  0  0  0  0  0
   12.3471  -16.3302   26.1103 C   0  0  0  0  0  0  0  0  0  0  0  0
   11.3838  -17.4832   26.2931 C   0  0  1  0  0  0  0  0  0  0  0  0
   11.9659  -18.4048   27.1302 O   0  0  0  0  0  0  0  0  0  0  0  0
   10.1038  -16.9041   26.8827 C   0  0  2  0  0  0  0  0  0  0  0  0
    9.6777  -15.8398   25.9705 N   0  0  0  0  0  0  0  0  0  0  0  0
   10.3377  -16.3282   28.2060 C   0  0  0  0  0  0  0  0  0  0  0  0
   10.1826  -15.0991   28.3948 O   0  0  0  0  0  0  0  0  0  0  0  0
   10.7285  -17.1196   29.2593 O   0  0  0  0  0  0  0  0  0  0  0  0
  2  1  1  6
  2  8  1  0
  2  3  1  0
  4  3  1  0
  5  4  1  0
  6  5  1  0
  7  6  1  0
  8  9  2  0
 10 11  1  0
 10  8  1  0
 12 13  1  0
 11 12  1  1
 13 18  2  0
 14 15  2  0
 14 13  1  0
 15 16  1  0
 16 17  2  0
 18 17  1  0
 19 20  2  0
 19 11  1  0
 22 21  1  1
 22 24  1  0
 23 22  1  0
 24 26  1  0
 24 25  1  6
 25 19  1  0
 26 28  1  0
 27 26  2  0
M  END
$$$$
