KFT.pdb
     RDKit          3D

 28 28  0  0  1  0  0  0  0  0999 V2000
   10.3002  -17.2931   20.2352 N   0  0  0  0  0  0  0  0  0  0  0  0
    9.4955  -17.6610   21.3794 C   0  0  1  0  0  0  0  0  0  0  0  0
    9.9222  -18.9480   22.0008 C   0  0  0  0  0  0  0  0  0  0  0  0
   10.2162  -20.0247   21.0076 C   0  0  0  0  0  0  0  0  0  0  0  0
    8.9690  -20.8014   20.6967 C   0  0  0  0  0  0  0  0  0  0  0  0
    9.2612  -21.8782   19.6434 C   0  0  0  0  0  0  0  0  0  0  0  0
    7.9983  -22.5577   19.3755 N   0  0  0  0  0  0  0  0  0  0  0  0
    9.5884  -16.6122   22.4501 C   0  0  0  0  0  0  0  0  0  0  0  0
   10.6954  -16.1368   22.7789 O   0  0  0  0  0  0  0  0  0  0  0  0
    8.4286  -16.1597   23.0883 N   0  0  0  0  0  0  0  0  0  0  0  0
    8.4045  -15.2476   24.2095 C   0  0  1  0  0  0  0  0  0  0  0  0
    7.1841  -14.3921   24.2456 C   0  0  0  0  0  0  0  0  0  0  0  0
    7.1098  -13.4533   25.3585 C   0  0  0  0  0  0  0  0  0  0  0  0
    7.9271  -12.3444   25.4128 C   0  0  0  0  0  0  0  0  0  0  0  0
    7.8989  -11.4302   26.4366 C   0  0  0  0  0  0  0  0  0  0  0  0
    7.0097  -11.6125   27.4803 C   0  0  0  0  0  0  0  0  0  0  0  0
    6.1681  -12.7191   27.4624 C   0  0  0  0  0  0  0  0  0  0  0  0
    6.2272  -13.6292   26.4001 C   0  0  0  0  0  0  0  0  0  0  0  0
    8.7290  -15.9287   25.4756 C   0  0  0  0  0  0  0  0  0  0  0  0
    7.9308  -16.7508   25.9939 O   0  0  0  0  0  0  0  0  0  0  0  0
   11.5059  -18.0099   25.7442 C   0  0  0  0  0  0  0  0  0  0  0  0
   11.6993  -17.1211   26.9539 C   0  0  1  0  0  0  0  0  0  0  0  0
   12.6097  -16.1434   26.6314 O   0  0  0  0  0  0  0  0  0  0  0  0
   10.3346  -16.5391   27.3008 C   0  0  2  0  0  0  0  0  0  0  0  0
    9.9490  -15.6954   26.1669 N   0  0  0  0  0  0  0  0  0  0  0  0
   10.3962  -15.7137   28.5060 C   0  0  0  0  0  0  0  0  0  0  0  0
   10.6579  -16.2360   29.6147 O   0  0  0  0  0  0  0  0  0  0  0  0
   10.1704  -14.3597   28.4445 O   0  0  0  0  0  0  0  0  0  0  0  0
  2  1  1  6
  2  8  1  0
  2  3  1  0
  4  3  1  0
  5  4  1  0
  6  5  1  0
  7  6  1  0
  8  9  2  0
 10 11  1  0
 10  8  1  0
 12 13  1  0
 11 12  1  1
 13 18  2  0
 14 15  2  0
 14 13  1  0
 15 16  1  0
 16 17  2  0
 18 17  1  0
 19 20  2  0
 19 11  1  0
 22 21  1  6
 22 24  1  0
 23 22  1  0
 24 26  1  0
 24 25  1  6
 25 19  1  0
 26 28  1  0
 27 26  2  0
M  END
$$$$
