KFT.pdb
     RDKit          3D

 28 28  0  0  1  0  0  0  0  0999 V2000
    7.4901  -15.8109   19.2416 N   0  0  0  0  0  0  0  0  0  0  0  0
    8.6450  -14.9491   19.3663 C   0  0  1  0  0  0  0  0  0  0  0  0
    8.5304  -13.7022   18.5559 C   0  0  0  0  0  0  0  0  0  0  0  0
    7.8271  -13.8971   17.2522 C   0  0  0  0  0  0  0  0  0  0  0  0
    8.8240  -14.0157   16.1352 C   0  0  0  0  0  0  0  0  0  0  0  0
    8.1016  -14.2120   14.7958 C   0  0  0  0  0  0  0  0  0  0  0  0
    9.1350  -14.4255   13.7883 N   0  0  0  0  0  0  0  0  0  0  0  0
    8.8339  -14.5215   20.7934 C   0  0  0  0  0  0  0  0  0  0  0  0
    9.8535  -13.8873   21.1365 O   0  0  0  0  0  0  0  0  0  0  0  0
    7.8629  -14.8330   21.7511 N   0  0  0  0  0  0  0  0  0  0  0  0
    7.9859  -14.5728   23.1677 C   0  0  1  0  0  0  0  0  0  0  0  0
    6.8238  -13.8286   23.7320 C   0  0  0  0  0  0  0  0  0  0  0  0
    6.9590  -13.4185   25.1245 C   0  0  0  0  0  0  0  0  0  0  0  0
    6.4111  -14.1660   26.1452 C   0  0  0  0  0  0  0  0  0  0  0  0
    6.5082  -13.8255   27.4716 C   0  0  0  0  0  0  0  0  0  0  0  0
    7.1881  -12.6740   27.8253 C   0  0  0  0  0  0  0  0  0  0  0  0
    7.7551  -11.8927   26.8246 C   0  0  0  0  0  0  0  0  0  0  0  0
    7.6343  -12.2738   25.4828 C   0  0  0  0  0  0  0  0  0  0  0  0
    8.3768  -15.7820   23.9139 C   0  0  0  0  0  0  0  0  0  0  0  0
    7.6066  -16.7730   23.9941 O   0  0  0  0  0  0  0  0  0  0  0  0
   10.8827  -17.8751   23.0546 C   0  0  0  0  0  0  0  0  0  0  0  0
   11.2776  -17.6225   24.4937 C   0  0  1  0  0  0  0  0  0  0  0  0
   12.2764  -16.6786   24.5090 O   0  0  0  0  0  0  0  0  0  0  0  0
   10.0271  -17.1429   25.2203 C   0  0  2  0  0  0  0  0  0  0  0  0
    9.6321  -15.8898   24.5722 N   0  0  0  0  0  0  0  0  0  0  0  0
   10.2972  -16.8809   26.6330 C   0  0  0  0  0  0  0  0  0  0  0  0
   10.2751  -15.7073   27.0717 O   0  0  0  0  0  0  0  0  0  0  0  0
   10.5774  -17.9103   27.4991 O   0  0  0  0  0  0  0  0  0  0  0  0
  2  1  1  1
  2  8  1  0
  2  3  1  0
  4  3  1  0
  5  4  1  0
  6  5  1  0
  7  6  1  0
  8  9  2  0
 10 11  1  0
 10  8  1  0
 12 13  1  0
 11 12  1  1
 13 18  2  0
 14 15  2  0
 14 13  1  0
 15 16  1  0
 16 17  2  0
 18 17  1  0
 19 20  2  0
 19 11  1  0
 22 21  1  6
 22 24  1  0
 23 22  1  0
 24 26  1  0
 24 25  1  6
 25 19  1  0
 26 28  1  0
 27 26  2  0
M  END
$$$$
