KFT.pdb
     RDKit          3D

 28 28  0  0  1  0  0  0  0  0999 V2000
    7.8918  -16.6350   19.7183 N   0  0  0  0  0  0  0  0  0  0  0  0
    9.1524  -15.9354   19.8350 C   0  0  1  0  0  0  0  0  0  0  0  0
    9.2520  -14.7603   18.9218 C   0  0  0  0  0  0  0  0  0  0  0  0
    9.7620  -15.1012   17.5596 C   0  0  0  0  0  0  0  0  0  0  0  0
    8.6252  -15.1742   16.5809 C   0  0  0  0  0  0  0  0  0  0  0  0
    9.1386  -15.6022   15.1997 C   0  0  0  0  0  0  0  0  0  0  0  0
    7.9829  -15.6227   14.3095 N   0  0  0  0  0  0  0  0  0  0  0  0
    9.3411  -15.4154   21.2310 C   0  0  0  0  0  0  0  0  0  0  0  0
   10.4337  -14.9235   21.5831 O   0  0  0  0  0  0  0  0  0  0  0  0
    8.2878  -15.4795   22.1495 N   0  0  0  0  0  0  0  0  0  0  0  0
    8.3427  -14.9830   23.5060 C   0  0  1  0  0  0  0  0  0  0  0  0
    7.2524  -14.0169   23.8232 C   0  0  0  0  0  0  0  0  0  0  0  0
    7.2360  -13.5186   25.1933 C   0  0  0  0  0  0  0  0  0  0  0  0
    8.2001  -12.6433   25.6460 C   0  0  0  0  0  0  0  0  0  0  0  0
    8.2318  -12.1446   26.9247 C   0  0  0  0  0  0  0  0  0  0  0  0
    7.2531  -12.5281   27.8237 C   0  0  0  0  0  0  0  0  0  0  0  0
    6.2628  -13.4099   27.4053 C   0  0  0  0  0  0  0  0  0  0  0  0
    6.2648  -13.8966   26.0925 C   0  0  0  0  0  0  0  0  0  0  0  0
    8.5153  -16.0744   24.4813 C   0  0  0  0  0  0  0  0  0  0  0  0
    7.5785  -16.8751   24.7323 O   0  0  0  0  0  0  0  0  0  0  0  0
   10.2493  -18.8637   24.2004 C   0  0  0  0  0  0  0  0  0  0  0  0
   10.8798  -18.3555   25.4790 C   0  0  1  0  0  0  0  0  0  0  0  0
   12.0635  -17.7340   25.1604 O   0  0  0  0  0  0  0  0  0  0  0  0
    9.8830  -17.3945   26.1149 C   0  0  2  0  0  0  0  0  0  0  0  0
    9.7372  -16.2770   25.1788 N   0  0  0  0  0  0  0  0  0  0  0  0
   10.3756  -16.8813   27.3922 C   0  0  0  0  0  0  0  0  0  0  0  0
   10.6011  -15.6569   27.5346 O   0  0  0  0  0  0  0  0  0  0  0  0
   10.5978  -17.7269   28.4522 O   0  0  0  0  0  0  0  0  0  0  0  0
  2  1  1  1
  2  8  1  0
  2  3  1  0
  4  3  1  0
  5  4  1  0
  6  5  1  0
  7  6  1  0
  8  9  2  0
 10 11  1  0
 10  8  1  0
 12 13  1  0
 11 12  1  1
 13 18  2  0
 14 15  2  0
 14 13  1  0
 15 16  1  0
 16 17  2  0
 18 17  1  0
 19 20  2  0
 19 11  1  0
 22 21  1  6
 22 24  1  0
 23 22  1  0
 24 26  1  0
 24 25  1  6
 25 19  1  0
 26 28  1  0
 27 26  2  0
M  END
$$$$
