KFT.pdb
     RDKit          3D

 28 28  0  0  1  0  0  0  0  0999 V2000
    9.1134  -16.3985   19.0835 N   0  0  0  0  0  0  0  0  0  0  0  0
    8.8545  -17.1575   20.2872 C   0  0  1  0  0  0  0  0  0  0  0  0
    9.7114  -18.3728   20.4039 C   0  0  0  0  0  0  0  0  0  0  0  0
   10.2561  -18.8500   19.0971 C   0  0  0  0  0  0  0  0  0  0  0  0
   11.0691  -20.0969   19.2957 C   0  0  0  0  0  0  0  0  0  0  0  0
   11.5953  -20.6095   17.9486 C   0  0  0  0  0  0  0  0  0  0  0  0
   12.4951  -21.7194   18.2436 N   0  0  0  0  0  0  0  0  0  0  0  0
    9.1205  -16.3221   21.5064 C   0  0  0  0  0  0  0  0  0  0  0  0
   10.2781  -15.9352   21.7708 O   0  0  0  0  0  0  0  0  0  0  0  0
    8.0668  -15.9710   22.3570 N   0  0  0  0  0  0  0  0  0  0  0  0
    8.2055  -15.1908   23.5659 C   0  0  1  0  0  0  0  0  0  0  0  0
    7.1482  -14.1509   23.7194 C   0  0  0  0  0  0  0  0  0  0  0  0
    7.2054  -13.3766   24.9533 C   0  0  0  0  0  0  0  0  0  0  0  0
    8.1232  -12.3609   25.1168 C   0  0  0  0  0  0  0  0  0  0  0  0
    8.2203  -11.6021   26.2568 C   0  0  0  0  0  0  0  0  0  0  0  0
    7.3606  -11.8537   27.3107 C   0  0  0  0  0  0  0  0  0  0  0  0
    6.4204  -12.8702   27.1848 C   0  0  0  0  0  0  0  0  0  0  0  0
    6.3527  -13.6221   26.0056 C   0  0  0  0  0  0  0  0  0  0  0  0
    8.4184  -16.0458   24.7473 C   0  0  0  0  0  0  0  0  0  0  0  0
    7.4925  -16.7637   25.2048 O   0  0  0  0  0  0  0  0  0  0  0  0
   10.9644  -18.5575   24.8998 C   0  0  0  0  0  0  0  0  0  0  0  0
   11.1909  -17.7838   26.1808 C   0  0  1  0  0  0  0  0  0  0  0  0
   12.2261  -16.9030   25.9770 O   0  0  0  0  0  0  0  0  0  0  0  0
    9.8859  -17.0669   26.5040 C   0  0  2  0  0  0  0  0  0  0  0  0
    9.6686  -16.1041   25.4213 N   0  0  0  0  0  0  0  0  0  0  0  0
    9.9734  -16.3431   27.7712 C   0  0  0  0  0  0  0  0  0  0  0  0
    9.9754  -15.0899   27.7823 O   0  0  0  0  0  0  0  0  0  0  0  0
   10.0536  -17.0196   28.9645 O   0  0  0  0  0  0  0  0  0  0  0  0
  2  1  1  6
  2  8  1  0
  2  3  1  0
  4  3  1  0
  5  4  1  0
  6  5  1  0
  7  6  1  0
  8  9  2  0
 10 11  1  0
 10  8  1  0
 12 13  1  0
 11 12  1  1
 13 18  2  0
 14 15  2  0
 14 13  1  0
 15 16  1  0
 16 17  2  0
 18 17  1  0
 19 20  2  0
 19 11  1  0
 22 21  1  6
 22 24  1  0
 23 22  1  0
 24 26  1  0
 24 25  1  6
 25 19  1  0
 26 28  1  0
 27 26  2  0
M  END
$$$$
