KFT.pdb
     RDKit          3D

 28 28  0  0  1  0  0  0  0  0999 V2000
    9.8280  -16.3633   19.1841 N   0  0  0  0  0  0  0  0  0  0  0  0
    8.7014  -16.5807   20.0647 C   0  0  1  0  0  0  0  0  0  0  0  0
    8.4073  -18.0260   20.2869 C   0  0  0  0  0  0  0  0  0  0  0  0
    8.3050  -18.8179   19.0241 C   0  0  0  0  0  0  0  0  0  0  0  0
    6.9112  -19.3512   18.8552 C   0  0  0  0  0  0  0  0  0  0  0  0
    6.7945  -20.1272   17.5366 C   0  0  0  0  0  0  0  0  0  0  0  0
    5.4129  -20.5859   17.4399 N   0  0  0  0  0  0  0  0  0  0  0  0
    8.9631  -15.9800   21.4159 C   0  0  0  0  0  0  0  0  0  0  0  0
   10.0688  -16.1336   21.9757 O   0  0  0  0  0  0  0  0  0  0  0  0
    7.9638  -15.2410   22.0581 N   0  0  0  0  0  0  0  0  0  0  0  0
    8.0653  -14.7009   23.3951 C   0  0  1  0  0  0  0  0  0  0  0  0
    7.0442  -13.6542   23.6858 C   0  0  0  0  0  0  0  0  0  0  0  0
    7.0436  -13.1416   25.0506 C   0  0  0  0  0  0  0  0  0  0  0  0
    8.0558  -12.3241   25.5065 C   0  0  0  0  0  0  0  0  0  0  0  0
    8.1043  -11.8151   26.7806 C   0  0  0  0  0  0  0  0  0  0  0  0
    7.0930  -12.1267   27.6713 C   0  0  0  0  0  0  0  0  0  0  0  0
    6.0539  -12.9486   27.2495 C   0  0  0  0  0  0  0  0  0  0  0  0
    6.0402  -13.4481   25.9416 C   0  0  0  0  0  0  0  0  0  0  0  0
    8.1760  -15.7657   24.4080 C   0  0  0  0  0  0  0  0  0  0  0  0
    7.1915  -16.4940   24.6949 O   0  0  0  0  0  0  0  0  0  0  0  0
   10.1073  -18.5273   24.0393 C   0  0  0  0  0  0  0  0  0  0  0  0
   10.6011  -18.0631   25.3926 C   0  0  1  0  0  0  0  0  0  0  0  0
   11.7752  -17.3721   25.2111 O   0  0  0  0  0  0  0  0  0  0  0  0
    9.5074  -17.1849   25.9877 C   0  0  2  0  0  0  0  0  0  0  0  0
    9.3889  -16.0229   25.1034 N   0  0  0  0  0  0  0  0  0  0  0  0
    9.8622  -16.7249   27.3293 C   0  0  0  0  0  0  0  0  0  0  0  0
    9.9777  -17.5475   28.2676 O   0  0  0  0  0  0  0  0  0  0  0  0
   10.0747  -15.3912   27.5832 O   0  0  0  0  0  0  0  0  0  0  0  0
  2  1  1  6
  2  8  1  0
  2  3  1  0
  4  3  1  0
  5  4  1  0
  6  5  1  0
  7  6  1  0
  8  9  2  0
 10 11  1  0
 10  8  1  0
 12 13  1  0
 11 12  1  1
 13 18  2  0
 14 15  2  0
 14 13  1  0
 15 16  1  0
 16 17  2  0
 18 17  1  0
 19 20  2  0
 19 11  1  0
 22 21  1  6
 22 24  1  0
 23 22  1  0
 24 26  1  0
 24 25  1  6
 25 19  1  0
 26 28  1  0
 27 26  2  0
M  END
$$$$
