KFT.pdb
     RDKit          3D

 28 28  0  0  1  0  0  0  0  0999 V2000
    7.0618  -15.8571   20.9951 N   0  0  0  0  0  0  0  0  0  0  0  0
    8.3727  -15.2833   21.2058 C   0  0  1  0  0  0  0  0  0  0  0  0
    8.4735  -13.8731   20.7305 C   0  0  0  0  0  0  0  0  0  0  0  0
    7.6246  -13.5809   19.5364 C   0  0  0  0  0  0  0  0  0  0  0  0
    8.4546  -13.6178   18.2854 C   0  0  0  0  0  0  0  0  0  0  0  0
    7.5861  -13.3011   17.0608 C   0  0  0  0  0  0  0  0  0  0  0  0
    8.4153  -13.5397   15.8844 N   0  0  0  0  0  0  0  0  0  0  0  0
    8.7163  -15.2725   22.6677 C   0  0  0  0  0  0  0  0  0  0  0  0
    9.8070  -14.8078   23.0601 O   0  0  0  0  0  0  0  0  0  0  0  0
    7.8109  -15.7857   23.6026 N   0  0  0  0  0  0  0  0  0  0  0  0
    8.0554  -15.8801   25.0242 C   0  0  1  0  0  0  0  0  0  0  0  0
    6.9305  -15.3562   25.8505 C   0  0  0  0  0  0  0  0  0  0  0  0
    6.9303  -13.9144   26.0664 C   0  0  0  0  0  0  0  0  0  0  0  0
    5.7759  -13.1727   25.9326 C   0  0  0  0  0  0  0  0  0  0  0  0
    5.7202  -11.8143   26.1236 C   0  0  0  0  0  0  0  0  0  0  0  0
    6.8733  -11.1332   26.4694 C   0  0  0  0  0  0  0  0  0  0  0  0
    8.0585  -11.8457   26.6140 C   0  0  0  0  0  0  0  0  0  0  0  0
    8.0744  -13.2309   26.4107 C   0  0  0  0  0  0  0  0  0  0  0  0
    8.5440  -17.2167   25.4074 C   0  0  0  0  0  0  0  0  0  0  0  0
    7.7675  -18.2052   25.4469 O   0  0  0  0  0  0  0  0  0  0  0  0
   10.8404  -19.1366   23.6852 C   0  0  0  0  0  0  0  0  0  0  0  0
   11.4752  -19.1204   25.0591 C   0  0  1  0  0  0  0  0  0  0  0  0
   12.4613  -18.1632   25.0689 O   0  0  0  0  0  0  0  0  0  0  0  0
   10.3669  -18.8093   26.0573 C   0  0  2  0  0  0  0  0  0  0  0  0
    9.9039  -17.4547   25.7461 N   0  0  0  0  0  0  0  0  0  0  0  0
   10.8631  -18.8362   27.4323 C   0  0  0  0  0  0  0  0  0  0  0  0
   11.2593  -19.9120   27.9384 O   0  0  0  0  0  0  0  0  0  0  0  0
   10.9041  -17.6897   28.1886 O   0  0  0  0  0  0  0  0  0  0  0  0
  2  1  1  1
  2  8  1  0
  2  3  1  0
  4  3  1  0
  5  4  1  0
  6  5  1  0
  7  6  1  0
  8  9  2  0
 10 11  1  0
 10  8  1  0
 12 13  1  0
 11 12  1  1
 13 18  2  0
 14 15  2  0
 14 13  1  0
 15 16  1  0
 16 17  2  0
 18 17  1  0
 19 20  2  0
 19 11  1  0
 22 21  1  6
 22 24  1  0
 23 22  1  0
 24 26  1  0
 24 25  1  6
 25 19  1  0
 26 28  1  0
 27 26  2  0
M  END
$$$$
