MSW.pdb
     RDKit          3D

 29 30  0  0  1  0  0  0  0  0999 V2000
   24.5622  -20.0525  -19.1319 C   0  0  0  0  0  0  0  0  0  0  0  0
   24.8785  -21.5327  -20.1573 S   0  0  0  0  0  0  0  0  0  0  0  0
   26.6610  -21.9406  -20.1058 C   0  0  0  0  0  0  0  0  0  0  0  0
   27.1086  -22.1162  -18.6654 C   0  0  0  0  0  0  0  0  0  0  0  0
   28.1130  -21.0163  -18.3703 C   0  0  2  0  0  0  0  0  0  0  0  0
   29.4150  -21.3574  -18.9117 N   0  0  0  0  0  0  0  0  0  0  0  0
   28.1351  -20.8378  -16.9145 C   0  0  0  0  0  0  0  0  0  0  0  0
   28.6880  -21.7362  -16.2108 O   0  0  0  0  0  0  0  0  0  0  0  0
   26.3951  -17.5574  -14.9709 O   0  0  0  0  0  0  0  0  0  0  0  0
   27.5149  -18.1069  -14.3893 C   0  0  0  0  0  0  0  0  0  0  0  0
   27.6770  -19.5839  -14.8170 C   0  0  2  0  0  0  0  0  0  0  0  0
   27.5663  -19.7008  -16.2464 N   0  0  0  0  0  0  0  0  0  0  0  0
   26.5962  -20.3383  -14.1258 C   0  0  0  0  0  0  0  0  0  0  0  0
   25.4743  -20.5431  -14.6526 O   0  0  0  0  0  0  0  0  0  0  0  0
   26.7691  -20.8752  -12.8178 N   0  0  0  0  0  0  0  0  0  0  0  0
   25.6596  -21.4890  -12.1192 C   0  0  1  0  0  0  0  0  0  0  0  0
   26.2731  -22.0292  -10.8174 C   0  0  0  0  0  0  0  0  0  0  0  0
   26.3546  -21.0299   -9.7594 C   0  0  0  0  0  0  0  0  0  0  0  0
   25.3475  -20.1525   -9.4322 C   0  0  0  0  0  0  0  0  0  0  0  0
   25.7831  -19.3874   -8.4159 N   0  0  0  0  0  0  0  0  0  0  0  0
   27.0534  -19.7656   -8.0927 C   0  0  0  0  0  0  0  0  0  0  0  0
   27.9292  -19.2861   -7.1212 C   0  0  0  0  0  0  0  0  0  0  0  0
   29.1625  -19.8846   -7.0381 C   0  0  0  0  0  0  0  0  0  0  0  0
   29.5338  -20.9126   -7.8703 C   0  0  0  0  0  0  0  0  0  0  0  0
   28.6898  -21.3883   -8.8213 C   0  0  0  0  0  0  0  0  0  0  0  0
   27.4256  -20.8007   -8.9309 C   0  0  0  0  0  0  0  0  0  0  0  0
   24.6410  -20.4831  -11.7164 C   0  0  0  0  0  0  0  0  0  0  0  0
   24.9508  -19.2667  -11.6312 O   0  0  0  0  0  0  0  0  0  0  0  0
   23.3344  -20.8342  -11.4224 O   0  0  0  0  0  0  0  0  0  0  0  0
  2  1  1  0
  3  2  1  0
  4  5  1  0
  4  3  1  0
  5  7  1  0
  5  6  1  1
  7  8  2  0
  9 10  1  0
 11 10  1  6
 11 13  1  0
 12 11  1  0
 12  7  1  0
 13 14  2  0
 15 16  1  0
 15 13  1  0
 16 27  1  0
 16 17  1  1
 18 17  1  0
 19 18  2  0
 20 21  1  0
 20 19  1  0
 21 26  2  0
 22 21  1  0
 22 23  2  0
 23 24  1  0
 24 25  2  0
 26 18  1  0
 26 25  1  0
 27 28  2  0
 27 29  1  0
M  END
$$$$
