MSW.pdb
     RDKit          3D

 29 30  0  0  1  0  0  0  0  0999 V2000
   27.2501  -16.5352  -16.9980 C   0  0  0  0  0  0  0  0  0  0  0  0
   28.2493  -17.3901  -15.7279 S   0  0  0  0  0  0  0  0  0  0  0  0
   28.4521  -19.1477  -16.1928 C   0  0  0  0  0  0  0  0  0  0  0  0
   27.0988  -19.8362  -16.2099 C   0  0  0  0  0  0  0  0  0  0  0  0
   27.3513  -21.3167  -16.4336 C   0  0  2  0  0  0  0  0  0  0  0  0
   28.1321  -21.5235  -17.6386 N   0  0  0  0  0  0  0  0  0  0  0  0
   26.0390  -21.9696  -16.4913 C   0  0  0  0  0  0  0  0  0  0  0  0
   25.0714  -21.3225  -16.9943 O   0  0  0  0  0  0  0  0  0  0  0  0
   25.2936  -25.7304  -14.8105 O   0  0  0  0  0  0  0  0  0  0  0  0
   24.4781  -25.3589  -15.8550 C   0  0  0  0  0  0  0  0  0  0  0  0
   24.4523  -23.8197  -16.0000 C   0  0  2  0  0  0  0  0  0  0  0  0
   25.7937  -23.3006  -16.0105 N   0  0  0  0  0  0  0  0  0  0  0  0
   23.6806  -23.3050  -14.8362 C   0  0  0  0  0  0  0  0  0  0  0  0
   24.2038  -23.1204  -13.7091 O   0  0  0  0  0  0  0  0  0  0  0  0
   22.2946  -22.9901  -14.9302 N   0  0  0  0  0  0  0  0  0  0  0  0
   21.5875  -22.4257  -13.8001 C   0  0  1  0  0  0  0  0  0  0  0  0
   22.1805  -21.0170  -13.6367 C   0  0  0  0  0  0  0  0  0  0  0  0
   22.7536  -20.7814  -12.3174 C   0  0  0  0  0  0  0  0  0  0  0  0
   22.0349  -20.4011  -11.2082 C   0  0  0  0  0  0  0  0  0  0  0  0
   22.8958  -20.2796  -10.1825 N   0  0  0  0  0  0  0  0  0  0  0  0
   24.1520  -20.5767  -10.6239 C   0  0  0  0  0  0  0  0  0  0  0  0
   25.3737  -20.5963   -9.9548 C   0  0  0  0  0  0  0  0  0  0  0  0
   26.4834  -20.9443  -10.6852 C   0  0  0  0  0  0  0  0  0  0  0  0
   26.4103  -21.2612  -12.0200 C   0  0  0  0  0  0  0  0  0  0  0  0
   25.2261  -21.2450  -12.6835 C   0  0  0  0  0  0  0  0  0  0  0  0
   24.0767  -20.8957  -11.9675 C   0  0  0  0  0  0  0  0  0  0  0  0
   20.1417  -22.2399  -14.0948 C   0  0  0  0  0  0  0  0  0  0  0  0
   19.3052  -22.1884  -13.1564 O   0  0  0  0  0  0  0  0  0  0  0  0
   19.6627  -22.1191  -15.3881 O   0  0  0  0  0  0  0  0  0  0  0  0
  2  1  1  0
  3  2  1  0
  4  5  1  0
  4  3  1  0
  5  7  1  0
  5  6  1  6
  7  8  2  0
  9 10  1  0
 11 10  1  1
 11 13  1  0
 12 11  1  0
 12  7  1  0
 13 14  2  0
 15 16  1  0
 15 13  1  0
 16 27  1  0
 16 17  1  6
 18 17  1  0
 19 18  2  0
 20 21  1  0
 20 19  1  0
 21 26  2  0
 22 21  1  0
 22 23  2  0
 23 24  1  0
 24 25  2  0
 26 18  1  0
 26 25  1  0
 27 28  2  0
 27 29  1  0
M  END
$$$$
