MSW.pdb
     RDKit          3D

 29 30  0  0  1  0  0  0  0  0999 V2000
   26.9795  -25.6830  -21.0151 C   0  0  0  0  0  0  0  0  0  0  0  0
   26.9780  -23.8608  -20.8674 S   0  0  0  0  0  0  0  0  0  0  0  0
   26.6396  -23.3900  -19.1324 C   0  0  0  0  0  0  0  0  0  0  0  0
   27.8480  -23.7031  -18.2678 C   0  0  0  0  0  0  0  0  0  0  0  0
   28.6514  -22.4211  -18.1383 C   0  0  2  0  0  0  0  0  0  0  0  0
   30.0263  -22.6386  -18.5469 N   0  0  0  0  0  0  0  0  0  0  0  0
   28.5386  -21.9859  -16.7420 C   0  0  0  0  0  0  0  0  0  0  0  0
   28.8720  -22.8042  -15.8324 O   0  0  0  0  0  0  0  0  0  0  0  0
   27.0344  -18.2355  -15.5846 O   0  0  0  0  0  0  0  0  0  0  0  0
   28.0316  -18.7835  -14.8105 C   0  0  0  0  0  0  0  0  0  0  0  0
   28.0487  -20.3223  -14.9604 C   0  0  2  0  0  0  0  0  0  0  0  0
   28.0732  -20.6843  -16.3523 N   0  0  0  0  0  0  0  0  0  0  0  0
   26.8151  -20.8192  -14.2923 C   0  0  0  0  0  0  0  0  0  0  0  0
   25.7435  -21.0176  -14.9173 O   0  0  0  0  0  0  0  0  0  0  0  0
   26.7743  -21.0999  -12.8964 N   0  0  0  0  0  0  0  0  0  0  0  0
   25.5487  -21.5469  -12.2688 C   0  0  1  0  0  0  0  0  0  0  0  0
   25.9993  -22.1623  -10.9342 C   0  0  0  0  0  0  0  0  0  0  0  0
   26.2352  -21.1711   -9.8919 C   0  0  0  0  0  0  0  0  0  0  0  0
   25.2894  -20.2914   -9.4197 C   0  0  0  0  0  0  0  0  0  0  0  0
   25.8686  -19.5358   -8.4703 N   0  0  0  0  0  0  0  0  0  0  0  0
   27.1697  -19.9222   -8.3324 C   0  0  0  0  0  0  0  0  0  0  0  0
   28.1768  -19.4537   -7.4915 C   0  0  0  0  0  0  0  0  0  0  0  0
   29.4061  -20.0585   -7.5876 C   0  0  0  0  0  0  0  0  0  0  0  0
   29.6502  -21.0822   -8.4707 C   0  0  0  0  0  0  0  0  0  0  0  0
   28.6776  -21.5470   -9.2959 C   0  0  0  0  0  0  0  0  0  0  0  0
   27.4138  -20.9528   -9.2217 C   0  0  0  0  0  0  0  0  0  0  0  0
   24.6605  -20.4048  -11.9247 C   0  0  0  0  0  0  0  0  0  0  0  0
   25.1283  -19.2397  -11.8454 O   0  0  0  0  0  0  0  0  0  0  0  0
   23.3078  -20.5706  -11.6806 O   0  0  0  0  0  0  0  0  0  0  0  0
  2  1  1  0
  3  2  1  0
  4  5  1  0
  4  3  1  0
  5  7  1  0
  5  6  1  1
  7  8  2  0
  9 10  1  0
 11 10  1  6
 11 13  1  0
 12 11  1  0
 12  7  1  0
 13 14  2  0
 15 16  1  0
 15 13  1  0
 16 27  1  0
 16 17  1  1
 18 17  1  0
 19 18  2  0
 20 21  1  0
 20 19  1  0
 21 26  2  0
 22 21  1  0
 22 23  2  0
 23 24  1  0
 24 25  2  0
 26 18  1  0
 26 25  1  0
 27 28  2  0
 27 29  1  0
M  END
$$$$
