MSW.pdb
     RDKit          3D

 29 30  0  0  1  0  0  0  0  0999 V2000
   21.7081  -23.1567  -18.3343 C   0  0  0  0  0  0  0  0  0  0  0  0
   22.8708  -22.4618  -19.5621 S   0  0  0  0  0  0  0  0  0  0  0  0
   24.5569  -22.4266  -18.8533 C   0  0  0  0  0  0  0  0  0  0  0  0
   24.5677  -23.1387  -17.5122 C   0  0  0  0  0  0  0  0  0  0  0  0
   24.3598  -22.0823  -16.4415 C   0  0  2  0  0  0  0  0  0  0  0  0
   24.2411  -20.7665  -17.0409 N   0  0  0  0  0  0  0  0  0  0  0  0
   25.4945  -22.1823  -15.5172 C   0  0  0  0  0  0  0  0  0  0  0  0
   25.7103  -23.2981  -14.9547 O   0  0  0  0  0  0  0  0  0  0  0  0
   27.5467  -18.7796  -14.2049 O   0  0  0  0  0  0  0  0  0  0  0  0
   28.2286  -19.9684  -14.0787 C   0  0  0  0  0  0  0  0  0  0  0  0
   27.2429  -21.1597  -14.0753 C   0  0  2  0  0  0  0  0  0  0  0  0
   26.3724  -21.0857  -15.2180 N   0  0  0  0  0  0  0  0  0  0  0  0
   26.4770  -21.0624  -12.8029 C   0  0  0  0  0  0  0  0  0  0  0  0
   25.3594  -20.4933  -12.7309 O   0  0  0  0  0  0  0  0  0  0  0  0
   26.9683  -21.6104  -11.5833 N   0  0  0  0  0  0  0  0  0  0  0  0
   26.3178  -21.3118  -10.3249 C   0  0  1  0  0  0  0  0  0  0  0  0
   27.4208  -21.4849   -9.2683 C   0  0  0  0  0  0  0  0  0  0  0  0
   27.1086  -20.8430   -7.9975 C   0  0  0  0  0  0  0  0  0  0  0  0
   25.8385  -20.5474   -7.5609 C   0  0  0  0  0  0  0  0  0  0  0  0
   25.9442  -19.9628   -6.3547 N   0  0  0  0  0  0  0  0  0  0  0  0
   27.2638  -19.8818   -6.0183 C   0  0  0  0  0  0  0  0  0  0  0  0
   27.8867  -19.3650   -4.8844 C   0  0  0  0  0  0  0  0  0  0  0  0
   29.2576  -19.4312   -4.8367 C   0  0  0  0  0  0  0  0  0  0  0  0
   29.9991  -19.9790   -5.8552 C   0  0  0  0  0  0  0  0  0  0  0  0
   29.4041  -20.4852   -6.9656 C   0  0  0  0  0  0  0  0  0  0  0  0
   28.0088  -20.4339   -7.0444 C   0  0  0  0  0  0  0  0  0  0  0  0
   25.8885  -19.8898  -10.2531 C   0  0  0  0  0  0  0  0  0  0  0  0
   24.7481  -19.5936   -9.8120 O   0  0  0  0  0  0  0  0  0  0  0  0
   26.7078  -18.8510  -10.6613 O   0  0  0  0  0  0  0  0  0  0  0  0
  2  1  1  0
  3  2  1  0
  4  5  1  0
  4  3  1  0
  5  7  1  0
  5  6  1  6
  7  8  2  0
  9 10  1  0
 11 10  1  6
 11 13  1  0
 12 11  1  0
 12  7  1  0
 13 14  2  0
 15 16  1  0
 15 13  1  0
 16 27  1  0
 16 17  1  1
 18 17  1  0
 19 18  2  0
 20 21  1  0
 20 19  1  0
 21 26  2  0
 22 21  1  0
 22 23  2  0
 23 24  1  0
 24 25  2  0
 26 18  1  0
 26 25  1  0
 27 28  2  0
 27 29  1  0
M  END
$$$$
