MSW.pdb
     RDKit          3D

 29 30  0  0  1  0  0  0  0  0999 V2000
   19.5973  -17.7933  -11.1106 C   0  0  0  0  0  0  0  0  0  0  0  0
   18.8158  -17.9708  -12.7538 S   0  0  0  0  0  0  0  0  0  0  0  0
   19.7378  -19.2075  -13.7371 C   0  0  0  0  0  0  0  0  0  0  0  0
   20.8367  -19.8247  -12.8901 C   0  0  0  0  0  0  0  0  0  0  0  0
   21.6459  -20.7339  -13.7980 C   0  0  2  0  0  0  0  0  0  0  0  0
   20.7905  -21.7316  -14.4125 N   0  0  0  0  0  0  0  0  0  0  0  0
   22.7047  -21.3271  -12.9741 C   0  0  0  0  0  0  0  0  0  0  0  0
   22.3729  -21.8804  -11.8824 O   0  0  0  0  0  0  0  0  0  0  0  0
   26.8334  -21.2998  -13.9716 O   0  0  0  0  0  0  0  0  0  0  0  0
   26.2970  -22.3817  -13.3114 C   0  0  0  0  0  0  0  0  0  0  0  0
   25.0609  -21.9538  -12.4869 C   0  0  2  0  0  0  0  0  0  0  0  0
   24.0937  -21.3156  -13.3391 N   0  0  0  0  0  0  0  0  0  0  0  0
   25.5612  -21.0212  -11.4406 C   0  0  0  0  0  0  0  0  0  0  0  0
   25.1292  -19.8475  -11.3217 O   0  0  0  0  0  0  0  0  0  0  0  0
   26.5661  -21.4045  -10.5068 N   0  0  0  0  0  0  0  0  0  0  0  0
   27.2388  -20.4110   -9.6968 C   0  0  1  0  0  0  0  0  0  0  0  0
   26.4801  -20.4230   -8.3600 C   0  0  0  0  0  0  0  0  0  0  0  0
   27.0747  -19.5555   -7.3508 C   0  0  0  0  0  0  0  0  0  0  0  0
   27.1254  -18.1835   -7.4295 C   0  0  0  0  0  0  0  0  0  0  0  0
   27.7442  -17.7311   -6.3248 N   0  0  0  0  0  0  0  0  0  0  0  0
   28.0884  -18.7963   -5.5450 C   0  0  0  0  0  0  0  0  0  0  0  0
   28.7402  -18.8543   -4.3151 C   0  0  0  0  0  0  0  0  0  0  0  0
   28.9441  -20.0989   -3.7714 C   0  0  0  0  0  0  0  0  0  0  0  0
   28.5307  -21.2482   -4.4004 C   0  0  0  0  0  0  0  0  0  0  0  0
   27.8953  -21.2050   -5.5993 C   0  0  0  0  0  0  0  0  0  0  0  0
   27.6714  -19.9523   -6.1792 C   0  0  0  0  0  0  0  0  0  0  0  0
   28.6376  -20.8105   -9.3880 C   0  0  0  0  0  0  0  0  0  0  0  0
   28.9537  -22.0274   -9.3423 O   0  0  0  0  0  0  0  0  0  0  0  0
   29.6326  -19.8798   -9.1415 O   0  0  0  0  0  0  0  0  0  0  0  0
  2  1  1  0
  3  2  1  0
  4  5  1  0
  4  3  1  0
  5  7  1  0
  5  6  1  1
  7  8  2  0
  9 10  1  0
 11 10  1  6
 11 13  1  0
 12 11  1  0
 12  7  1  0
 13 14  2  0
 15 16  1  0
 15 13  1  0
 16 27  1  0
 16 17  1  1
 18 17  1  0
 19 18  2  0
 20 21  1  0
 20 19  1  0
 21 26  2  0
 22 21  1  0
 22 23  2  0
 23 24  1  0
 24 25  2  0
 26 18  1  0
 26 25  1  0
 27 28  2  0
 27 29  1  0
M  END
$$$$
