MSW.pdb
     RDKit          3D

 29 30  0  0  1  0  0  0  0  0999 V2000
   23.6666  -25.9588  -15.5228 C   0  0  0  0  0  0  0  0  0  0  0  0
   24.1405  -25.7915  -17.2806 S   0  0  0  0  0  0  0  0  0  0  0  0
   25.9096  -26.2132  -17.4779 C   0  0  0  0  0  0  0  0  0  0  0  0
   26.7548  -25.3239  -16.5831 C   0  0  0  0  0  0  0  0  0  0  0  0
   26.7930  -23.9482  -17.2247 C   0  0  2  0  0  0  0  0  0  0  0  0
   27.7130  -23.9350  -18.3464 N   0  0  0  0  0  0  0  0  0  0  0  0
   27.1696  -22.9972  -16.1734 C   0  0  0  0  0  0  0  0  0  0  0  0
   28.1727  -23.2741  -15.4487 O   0  0  0  0  0  0  0  0  0  0  0  0
   24.9743  -19.4826  -15.1343 O   0  0  0  0  0  0  0  0  0  0  0  0
   26.3490  -19.4800  -15.0694 C   0  0  0  0  0  0  0  0  0  0  0  0
   26.8827  -20.9141  -14.8467 C   0  0  2  0  0  0  0  0  0  0  0  0
   26.4646  -21.7710  -15.9237 N   0  0  0  0  0  0  0  0  0  0  0  0
   26.3242  -21.3682  -13.5440 C   0  0  0  0  0  0  0  0  0  0  0  0
   25.2650  -22.0388  -13.4620 O   0  0  0  0  0  0  0  0  0  0  0  0
   26.9595  -21.0673  -12.3052 N   0  0  0  0  0  0  0  0  0  0  0  0
   26.3588  -21.4689  -11.0508 C   0  0  1  0  0  0  0  0  0  0  0  0
   27.4916  -21.3389  -10.0199 C   0  0  0  0  0  0  0  0  0  0  0  0
   27.0918  -20.6334   -8.8087 C   0  0  0  0  0  0  0  0  0  0  0  0
   25.8117  -20.2119   -8.5348 C   0  0  0  0  0  0  0  0  0  0  0  0
   25.8272  -19.6029   -7.3361 N   0  0  0  0  0  0  0  0  0  0  0  0
   27.0994  -19.6307   -6.8441 C   0  0  0  0  0  0  0  0  0  0  0  0
   27.6285  -19.1380   -5.6533 C   0  0  0  0  0  0  0  0  0  0  0  0
   28.9719  -19.3256   -5.4387 C   0  0  0  0  0  0  0  0  0  0  0  0
   29.7750  -19.9684   -6.3494 C   0  0  0  0  0  0  0  0  0  0  0  0
   29.2717  -20.4523   -7.5136 C   0  0  0  0  0  0  0  0  0  0  0  0
   27.9064  -20.2783   -7.7617 C   0  0  0  0  0  0  0  0  0  0  0  0
   25.2939  -20.5224  -10.6246 C   0  0  0  0  0  0  0  0  0  0  0  0
   25.3128  -19.3279  -11.0192 O   0  0  0  0  0  0  0  0  0  0  0  0
   24.2570  -20.9061   -9.7912 O   0  0  0  0  0  0  0  0  0  0  0  0
  2  1  1  0
  3  2  1  0
  4  5  1  0
  4  3  1  0
  5  7  1  0
  5  6  1  6
  7  8  2  0
  9 10  1  0
 11 10  1  6
 11 13  1  0
 12 11  1  0
 12  7  1  0
 13 14  2  0
 15 16  1  0
 15 13  1  0
 16 27  1  0
 16 17  1  1
 18 17  1  0
 19 18  2  0
 20 21  1  0
 20 19  1  0
 21 26  2  0
 22 21  1  0
 22 23  2  0
 23 24  1  0
 24 25  2  0
 26 18  1  0
 26 25  1  0
 27 28  2  0
 27 29  1  0
M  END
$$$$
