MSW.pdb
     RDKit          3D

 29 30  0  0  1  0  0  0  0  0999 V2000
   23.9521  -12.2046  -16.6814 C   0  0  0  0  0  0  0  0  0  0  0  0
   24.4648  -13.8826  -16.1678 S   0  0  0  0  0  0  0  0  0  0  0  0
   22.9908  -14.9584  -16.0405 C   0  0  0  0  0  0  0  0  0  0  0  0
   23.4098  -16.3627  -15.6427 C   0  0  0  0  0  0  0  0  0  0  0  0
   24.5495  -16.2263  -14.6486 C   0  0  2  0  0  0  0  0  0  0  0  0
   25.6738  -15.5382  -15.2546 N   0  0  0  0  0  0  0  0  0  0  0  0
   24.8903  -17.5812  -14.2014 C   0  0  0  0  0  0  0  0  0  0  0  0
   23.9539  -18.3230  -13.7760 O   0  0  0  0  0  0  0  0  0  0  0  0
   28.7302  -19.1297  -14.5148 O   0  0  0  0  0  0  0  0  0  0  0  0
   27.7001  -20.0423  -14.5132 C   0  0  0  0  0  0  0  0  0  0  0  0
   26.4638  -19.4613  -13.7886 C   0  0  2  0  0  0  0  0  0  0  0  0
   26.2252  -18.1106  -14.2217 N   0  0  0  0  0  0  0  0  0  0  0  0
   26.7697  -19.5184  -12.3332 C   0  0  0  0  0  0  0  0  0  0  0  0
   26.9852  -18.4871  -11.6490 O   0  0  0  0  0  0  0  0  0  0  0  0
   26.8382  -20.7522  -11.6248 N   0  0  0  0  0  0  0  0  0  0  0  0
   27.1843  -20.7784  -10.2194 C   0  0  1  0  0  0  0  0  0  0  0  0
   25.9705  -20.1566   -9.5101 C   0  0  0  0  0  0  0  0  0  0  0  0
   26.0142  -20.2983   -8.0601 C   0  0  0  0  0  0  0  0  0  0  0  0
   25.0704  -20.9595   -7.3094 C   0  0  0  0  0  0  0  0  0  0  0  0
   25.4426  -20.8813   -6.0197 N   0  0  0  0  0  0  0  0  0  0  0  0
   26.6095  -20.1790   -5.9396 C   0  0  0  0  0  0  0  0  0  0  0  0
   27.3905  -19.8291   -4.8404 C   0  0  0  0  0  0  0  0  0  0  0  0
   28.5325  -19.1069   -5.0868 C   0  0  0  0  0  0  0  0  0  0  0  0
   28.9032  -18.7359   -6.3565 C   0  0  0  0  0  0  0  0  0  0  0  0
   28.1504  -19.0701   -7.4356 C   0  0  0  0  0  0  0  0  0  0  0  0
   26.9816  -19.8065   -7.2185 C   0  0  0  0  0  0  0  0  0  0  0  0
   27.3002  -22.1703   -9.7087 C   0  0  0  0  0  0  0  0  0  0  0  0
   28.1103  -22.4410   -8.7851 O   0  0  0  0  0  0  0  0  0  0  0  0
   26.5380  -23.2080  -10.2178 O   0  0  0  0  0  0  0  0  0  0  0  0
  2  1  1  0
  3  2  1  0
  4  5  1  0
  4  3  1  0
  5  7  1  0
  5  6  1  6
  7  8  2  0
  9 10  1  0
 11 10  1  6
 11 13  1  0
 12 11  1  0
 12  7  1  0
 13 14  2  0
 15 16  1  0
 15 13  1  0
 16 27  1  0
 16 17  1  1
 18 17  1  0
 19 18  2  0
 20 21  1  0
 20 19  1  0
 21 26  2  0
 22 21  1  0
 22 23  2  0
 23 24  1  0
 24 25  2  0
 26 18  1  0
 26 25  1  0
 27 28  2  0
 27 29  1  0
M  END
$$$$
