MSW.pdb
     RDKit          3D

 29 30  0  0  1  0  0  0  0  0999 V2000
   26.7501  -27.1139  -17.9695 C   0  0  0  0  0  0  0  0  0  0  0  0
   25.1937  -26.1630  -17.8446 S   0  0  0  0  0  0  0  0  0  0  0  0
   25.5608  -24.3746  -17.9596 C   0  0  0  0  0  0  0  0  0  0  0  0
   26.2561  -23.9082  -16.6928 C   0  0  0  0  0  0  0  0  0  0  0  0
   27.4526  -23.0756  -17.1180 C   0  0  2  0  0  0  0  0  0  0  0  0
   28.4973  -23.9247  -17.6586 N   0  0  0  0  0  0  0  0  0  0  0  0
   27.8900  -22.3229  -15.9374 C   0  0  0  0  0  0  0  0  0  0  0  0
   29.1058  -22.4125  -15.5885 O   0  0  0  0  0  0  0  0  0  0  0  0
   25.9392  -19.0170  -14.6612 O   0  0  0  0  0  0  0  0  0  0  0  0
   27.2611  -19.2018  -14.3261 C   0  0  0  0  0  0  0  0  0  0  0  0
   27.5532  -20.7007  -14.0835 C   0  0  2  0  0  0  0  0  0  0  0  0
   27.0159  -21.4904  -15.1591 N   0  0  0  0  0  0  0  0  0  0  0  0
   26.9121  -21.0448  -12.7852 C   0  0  0  0  0  0  0  0  0  0  0  0
   25.8131  -21.6494  -12.7156 O   0  0  0  0  0  0  0  0  0  0  0  0
   27.5084  -20.7064  -11.5367 N   0  0  0  0  0  0  0  0  0  0  0  0
   26.8164  -20.9694  -10.2926 C   0  0  1  0  0  0  0  0  0  0  0  0
   27.6658  -20.2672   -9.2211 C   0  0  0  0  0  0  0  0  0  0  0  0
   27.0683  -20.3084   -7.8923 C   0  0  0  0  0  0  0  0  0  0  0  0
   25.7624  -20.6517   -7.6315 C   0  0  0  0  0  0  0  0  0  0  0  0
   25.5752  -20.5758   -6.3021 N   0  0  0  0  0  0  0  0  0  0  0  0
   26.7436  -20.1884   -5.7139 C   0  0  0  0  0  0  0  0  0  0  0  0
   27.0627  -19.9681   -4.3759 C   0  0  0  0  0  0  0  0  0  0  0  0
   28.3492  -19.5792   -4.0936 C   0  0  0  0  0  0  0  0  0  0  0  0
   29.2938  -19.4086   -5.0766 C   0  0  0  0  0  0  0  0  0  0  0  0
   28.9951  -19.6194   -6.3840 C   0  0  0  0  0  0  0  0  0  0  0  0
   27.6934  -20.0174   -6.7045 C   0  0  0  0  0  0  0  0  0  0  0  0
   25.4796  -20.3185  -10.2603 C   0  0  0  0  0  0  0  0  0  0  0  0
   25.2961  -19.2186  -10.8429 O   0  0  0  0  0  0  0  0  0  0  0  0
   24.4010  -20.8824   -9.6004 O   0  0  0  0  0  0  0  0  0  0  0  0
  2  1  1  0
  3  2  1  0
  4  5  1  0
  4  3  1  0
  5  7  1  0
  5  6  1  1
  7  8  2  0
  9 10  1  0
 11 10  1  6
 11 13  1  0
 12 11  1  0
 12  7  1  0
 13 14  2  0
 15 16  1  0
 15 13  1  0
 16 27  1  0
 16 17  1  1
 18 17  1  0
 19 18  2  0
 20 21  1  0
 20 19  1  0
 21 26  2  0
 22 21  1  0
 22 23  2  0
 23 24  1  0
 24 25  2  0
 26 18  1  0
 26 25  1  0
 27 28  2  0
 27 29  1  0
M  END
$$$$
