MSW.pdb
     RDKit          3D

 29 30  0  0  1  0  0  0  0  0999 V2000
   31.5674  -17.5974  -17.9830 C   0  0  0  0  0  0  0  0  0  0  0  0
   31.4206  -18.4888  -19.5724 S   0  0  0  0  0  0  0  0  0  0  0  0
   30.5437  -20.0718  -19.3049 C   0  0  0  0  0  0  0  0  0  0  0  0
   29.3055  -19.8388  -18.4573 C   0  0  0  0  0  0  0  0  0  0  0  0
   29.2890  -20.9113  -17.3825 C   0  0  2  0  0  0  0  0  0  0  0  0
   29.4321  -22.2278  -17.9749 N   0  0  0  0  0  0  0  0  0  0  0  0
   28.0306  -20.7570  -16.6448 C   0  0  0  0  0  0  0  0  0  0  0  0
   27.5141  -19.6007  -16.5798 O   0  0  0  0  0  0  0  0  0  0  0  0
   25.5290  -23.9092  -15.3843 O   0  0  0  0  0  0  0  0  0  0  0  0
   25.0678  -22.6331  -15.6149 C   0  0  0  0  0  0  0  0  0  0  0  0
   26.1508  -21.5922  -15.2482 C   0  0  2  0  0  0  0  0  0  0  0  0
   27.3537  -21.8446  -15.9954 N   0  0  0  0  0  0  0  0  0  0  0  0
   26.3822  -21.7304  -13.7846 C   0  0  0  0  0  0  0  0  0  0  0  0
   27.4771  -22.1225  -13.3096 O   0  0  0  0  0  0  0  0  0  0  0  0
   25.3706  -21.4263  -12.8291 N   0  0  0  0  0  0  0  0  0  0  0  0
   25.6595  -21.4629  -11.4110 C   0  0  1  0  0  0  0  0  0  0  0  0
   26.7078  -20.3584  -11.2010 C   0  0  0  0  0  0  0  0  0  0  0  0
   27.0014  -20.1006   -9.7967 C   0  0  0  0  0  0  0  0  0  0  0  0
   26.1770  -19.4115   -8.9384 C   0  0  0  0  0  0  0  0  0  0  0  0
   26.7761  -19.3732   -7.7352 N   0  0  0  0  0  0  0  0  0  0  0  0
   27.9704  -20.0278   -7.8166 C   0  0  0  0  0  0  0  0  0  0  0  0
   28.9506  -20.2614   -6.8547 C   0  0  0  0  0  0  0  0  0  0  0  0
   30.0611  -20.9666   -7.2491 C   0  0  0  0  0  0  0  0  0  0  0  0
   30.2158  -21.4283   -8.5337 C   0  0  0  0  0  0  0  0  0  0  0  0
   29.2683  -21.2066   -9.4803 C   0  0  0  0  0  0  0  0  0  0  0  0
   28.1245  -20.4922   -9.1101 C   0  0  0  0  0  0  0  0  0  0  0  0
   24.4749  -21.0757  -10.5996 C   0  0  0  0  0  0  0  0  0  0  0  0
   23.6792  -20.1963  -11.0195 O   0  0  0  0  0  0  0  0  0  0  0  0
   24.2021  -21.6535   -9.3714 O   0  0  0  0  0  0  0  0  0  0  0  0
  2  1  1  0
  3  2  1  0
  4  5  1  0
  4  3  1  0
  5  7  1  0
  5  6  1  6
  7  8  2  0
  9 10  1  0
 11 10  1  6
 11 13  1  0
 12 11  1  0
 12  7  1  0
 13 14  2  0
 15 16  1  0
 15 13  1  0
 16 27  1  0
 16 17  1  6
 18 17  1  0
 19 18  2  0
 20 21  1  0
 20 19  1  0
 21 26  2  0
 22 21  1  0
 22 23  2  0
 23 24  1  0
 24 25  2  0
 26 18  1  0
 26 25  1  0
 27 28  2  0
 27 29  1  0
M  END
$$$$
