MSW.pdb
     RDKit          3D

 29 30  0  0  1  0  0  0  0  0999 V2000
   17.9950  -20.2437  -16.9977 C   0  0  0  0  0  0  0  0  0  0  0  0
   19.1652  -18.9353  -17.5086 S   0  0  0  0  0  0  0  0  0  0  0  0
   19.5395  -17.8593  -16.0774 C   0  0  0  0  0  0  0  0  0  0  0  0
   20.4912  -16.7534  -16.4983 C   0  0  0  0  0  0  0  0  0  0  0  0
   20.1274  -16.3654  -17.9205 C   0  0  2  0  0  0  0  0  0  0  0  0
   20.8370  -17.1985  -18.8728 N   0  0  0  0  0  0  0  0  0  0  0  0
   20.4448  -14.9410  -18.0688 C   0  0  0  0  0  0  0  0  0  0  0  0
   21.6406  -14.6209  -18.3435 O   0  0  0  0  0  0  0  0  0  0  0  0
   19.2476  -10.6858  -19.6518 O   0  0  0  0  0  0  0  0  0  0  0  0
   18.8751  -11.9645  -19.3050 C   0  0  0  0  0  0  0  0  0  0  0  0
   19.8350  -12.5364  -18.2362 C   0  0  2  0  0  0  0  0  0  0  0  0
   19.4741  -13.8927  -17.9212 N   0  0  0  0  0  0  0  0  0  0  0  0
   19.7081  -11.6511  -17.0466 C   0  0  0  0  0  0  0  0  0  0  0  0
   18.7860  -11.7831  -16.2037 O   0  0  0  0  0  0  0  0  0  0  0  0
   20.6285  -10.5944  -16.7915 N   0  0  0  0  0  0  0  0  0  0  0  0
   20.4017   -9.6639  -15.7059 C   0  0  1  0  0  0  0  0  0  0  0  0
   21.8029   -9.1515  -15.3361 C   0  0  0  0  0  0  0  0  0  0  0  0
   21.7793   -7.9961  -14.4478 C   0  0  0  0  0  0  0  0  0  0  0  0
   21.4589   -8.0428  -13.1112 C   0  0  0  0  0  0  0  0  0  0  0  0
   21.5433   -6.7922  -12.6245 N   0  0  0  0  0  0  0  0  0  0  0  0
   21.9122   -5.9508  -13.6330 C   0  0  0  0  0  0  0  0  0  0  0  0
   22.1313   -4.5750  -13.6397 C   0  0  0  0  0  0  0  0  0  0  0  0
   22.5026   -4.0048  -14.8327 C   0  0  0  0  0  0  0  0  0  0  0  0
   22.6549   -4.7443  -15.9804 C   0  0  0  0  0  0  0  0  0  0  0  0
   22.4437   -6.0853  -15.9870 C   0  0  0  0  0  0  0  0  0  0  0  0
   22.0654   -6.6966  -14.7875 C   0  0  0  0  0  0  0  0  0  0  0  0
   19.6263   -8.4766  -16.1540 C   0  0  0  0  0  0  0  0  0  0  0  0
   19.7276   -8.0636  -17.3380 O   0  0  0  0  0  0  0  0  0  0  0  0
   18.7772   -7.7875  -15.3048 O   0  0  0  0  0  0  0  0  0  0  0  0
  2  1  1  0
  3  2  1  0
  4  5  1  0
  4  3  1  0
  5  7  1  0
  5  6  1  6
  7  8  2  0
  9 10  1  0
 11 10  1  6
 11 13  1  0
 12 11  1  0
 12  7  1  0
 13 14  2  0
 15 16  1  0
 15 13  1  0
 16 27  1  0
 16 17  1  6
 18 17  1  0
 19 18  2  0
 20 21  1  0
 20 19  1  0
 21 26  2  0
 22 21  1  0
 22 23  2  0
 23 24  1  0
 24 25  2  0
 26 18  1  0
 26 25  1  0
 27 28  2  0
 27 29  1  0
M  END
$$$$
