MSW.pdb
     RDKit          3D

 29 30  0  0  1  0  0  0  0  0999 V2000
   35.4744  -28.3555  -17.7017 C   0  0  0  0  0  0  0  0  0  0  0  0
   34.2024  -29.5724  -18.1954 S   0  0  0  0  0  0  0  0  0  0  0  0
   32.6734  -29.2801  -17.2344 C   0  0  0  0  0  0  0  0  0  0  0  0
   31.5474  -30.1387  -17.7829 C   0  0  0  0  0  0  0  0  0  0  0  0
   31.5018  -31.4061  -16.9480 C   0  0  2  0  0  0  0  0  0  0  0  0
   32.5928  -32.2921  -17.3076 N   0  0  0  0  0  0  0  0  0  0  0  0
   30.1847  -32.0138  -17.1660 C   0  0  0  0  0  0  0  0  0  0  0  0
   29.9402  -32.5176  -18.3037 O   0  0  0  0  0  0  0  0  0  0  0  0
   27.4330  -32.5746  -14.0987 O   0  0  0  0  0  0  0  0  0  0  0  0
   27.3723  -33.4231  -15.1805 C   0  0  0  0  0  0  0  0  0  0  0  0
   27.9120  -32.7222  -16.4486 C   0  0  2  0  0  0  0  0  0  0  0  0
   29.1608  -32.0692  -16.1603 N   0  0  0  0  0  0  0  0  0  0  0  0
   26.8693  -31.7422  -16.8580 C   0  0  0  0  0  0  0  0  0  0  0  0
   26.8172  -30.5781  -16.3886 O   0  0  0  0  0  0  0  0  0  0  0  0
   25.8615  -32.0672  -17.8107 N   0  0  0  0  0  0  0  0  0  0  0  0
   24.8012  -31.1290  -18.1128 C   0  0  1  0  0  0  0  0  0  0  0  0
   24.3062  -31.5406  -19.5087 C   0  0  0  0  0  0  0  0  0  0  0  0
   23.2914  -30.6445  -20.0488 C   0  0  0  0  0  0  0  0  0  0  0  0
   23.5486  -29.4084  -20.5940 C   0  0  0  0  0  0  0  0  0  0  0  0
   22.3754  -28.8779  -20.9814 N   0  0  0  0  0  0  0  0  0  0  0  0
   21.3756  -29.7590  -20.6896 C   0  0  0  0  0  0  0  0  0  0  0  0
   19.9995  -29.6776  -20.8914 C   0  0  0  0  0  0  0  0  0  0  0  0
   19.2415  -30.7482  -20.4848 C   0  0  0  0  0  0  0  0  0  0  0  0
   19.7997  -31.8596  -19.9011 C   0  0  0  0  0  0  0  0  0  0  0  0
   21.1389  -31.9507  -19.6984 C   0  0  0  0  0  0  0  0  0  0  0  0
   21.9390  -30.8773  -20.1025 C   0  0  0  0  0  0  0  0  0  0  0  0
   23.6444  -31.2936  -17.1929 C   0  0  0  0  0  0  0  0  0  0  0  0
   23.4000  -32.4145  -16.6764 O   0  0  0  0  0  0  0  0  0  0  0  0
   22.8025  -30.2424  -16.8719 O   0  0  0  0  0  0  0  0  0  0  0  0
  2  1  1  0
  3  2  1  0
  4  5  1  0
  4  3  1  0
  5  7  1  0
  5  6  1  6
  7  8  2  0
  9 10  1  0
 11 10  1  1
 11 13  1  0
 12 11  1  0
 12  7  1  0
 13 14  2  0
 15 16  1  0
 15 13  1  0
 16 27  1  0
 16 17  1  6
 18 17  1  0
 19 18  2  0
 20 21  1  0
 20 19  1  0
 21 26  2  0
 22 21  1  0
 22 23  2  0
 23 24  1  0
 24 25  2  0
 26 18  1  0
 26 25  1  0
 27 28  2  0
 27 29  1  0
M  END
$$$$
