MSW.pdb
     RDKit          3D

 29 30  0  0  1  0  0  0  0  0999 V2000
   29.1455  -16.5255  -19.0373 C   0  0  0  0  0  0  0  0  0  0  0  0
   29.1483  -17.2719  -17.3684 S   0  0  0  0  0  0  0  0  0  0  0  0
   27.8000  -16.5408  -16.3712 C   0  0  0  0  0  0  0  0  0  0  0  0
   27.9496  -16.9560  -14.9183 C   0  0  0  0  0  0  0  0  0  0  0  0
   27.6633  -18.4454  -14.8454 C   0  0  2  0  0  0  0  0  0  0  0  0
   26.9242  -18.8795  -16.0158 N   0  0  0  0  0  0  0  0  0  0  0  0
   26.9314  -18.6787  -13.5958 C   0  0  0  0  0  0  0  0  0  0  0  0
   27.2101  -17.9511  -12.5954 O   0  0  0  0  0  0  0  0  0  0  0  0
   23.9667  -21.4081  -13.4852 O   0  0  0  0  0  0  0  0  0  0  0  0
   23.8852  -20.5630  -12.4020 C   0  0  0  0  0  0  0  0  0  0  0  0
   25.2253  -19.8205  -12.1932 C   0  0  2  0  0  0  0  0  0  0  0  0
   25.9169  -19.6845  -13.4470 N   0  0  0  0  0  0  0  0  0  0  0  0
   26.0083  -20.6389  -11.2277 C   0  0  0  0  0  0  0  0  0  0  0  0
   26.8176  -21.5259  -11.5973 O   0  0  0  0  0  0  0  0  0  0  0  0
   25.8859  -20.4659   -9.8192 N   0  0  0  0  0  0  0  0  0  0  0  0
   26.2927  -21.5150   -8.9084 C   0  0  1  0  0  0  0  0  0  0  0  0
   27.7162  -21.1248   -8.4795 C   0  0  0  0  0  0  0  0  0  0  0  0
   27.7476  -20.0689   -7.4752 C   0  0  0  0  0  0  0  0  0  0  0  0
   27.0148  -18.9068   -7.5381 C   0  0  0  0  0  0  0  0  0  0  0  0
   27.3025  -18.1799   -6.4441 N   0  0  0  0  0  0  0  0  0  0  0  0
   28.2084  -18.8631   -5.6867 C   0  0  0  0  0  0  0  0  0  0  0  0
   28.8142  -18.5390   -4.4747 C   0  0  0  0  0  0  0  0  0  0  0  0
   29.6986  -19.4504   -3.9520 C   0  0  0  0  0  0  0  0  0  0  0  0
   29.9864  -20.6356   -4.5844 C   0  0  0  0  0  0  0  0  0  0  0  0
   29.4033  -20.9627   -5.7659 C   0  0  0  0  0  0  0  0  0  0  0  0
   28.4968  -20.0560   -6.3243 C   0  0  0  0  0  0  0  0  0  0  0  0
   25.4681  -21.5172   -7.6708 C   0  0  0  0  0  0  0  0  0  0  0  0
   25.6983  -22.3512   -6.7574 O   0  0  0  0  0  0  0  0  0  0  0  0
   24.4316  -20.6206   -7.4741 O   0  0  0  0  0  0  0  0  0  0  0  0
  2  1  1  0
  3  2  1  0
  4  5  1  0
  4  3  1  0
  5  7  1  0
  5  6  1  6
  7  8  2  0
  9 10  1  0
 11 10  1  6
 11 13  1  0
 12 11  1  0
 12  7  1  0
 13 14  2  0
 15 16  1  0
 15 13  1  0
 16 27  1  0
 16 17  1  1
 18 17  1  0
 19 18  2  0
 20 21  1  0
 20 19  1  0
 21 26  2  0
 22 21  1  0
 22 23  2  0
 23 24  1  0
 24 25  2  0
 26 18  1  0
 26 25  1  0
 27 28  2  0
 27 29  1  0
M  END
$$$$
