MSW.pdb
     RDKit          3D

 29 30  0  0  1  0  0  0  0  0999 V2000
   31.1455  -17.9797  -18.2569 C   0  0  0  0  0  0  0  0  0  0  0  0
   29.6645  -18.4741  -17.3057 S   0  0  0  0  0  0  0  0  0  0  0  0
   29.2060  -17.1320  -16.1502 C   0  0  0  0  0  0  0  0  0  0  0  0
   28.0571  -17.5831  -15.2656 C   0  0  0  0  0  0  0  0  0  0  0  0
   26.9542  -18.0824  -16.1821 C   0  0  2  0  0  0  0  0  0  0  0  0
   26.3038  -16.9700  -16.8486 N   0  0  0  0  0  0  0  0  0  0  0  0
   26.0301  -18.8628  -15.3522 C   0  0  0  0  0  0  0  0  0  0  0  0
   25.1455  -18.2373  -14.6932 O   0  0  0  0  0  0  0  0  0  0  0  0
   26.0383  -23.0894  -15.0853 O   0  0  0  0  0  0  0  0  0  0  0  0
   24.8839  -22.3898  -14.8171 C   0  0  0  0  0  0  0  0  0  0  0  0
   25.2186  -20.9685  -14.3086 C   0  0  2  0  0  0  0  0  0  0  0  0
   26.0737  -20.2946  -15.2486 N   0  0  0  0  0  0  0  0  0  0  0  0
   25.8914  -21.1449  -12.9929 C   0  0  0  0  0  0  0  0  0  0  0  0
   27.1283  -21.3389  -12.8892 O   0  0  0  0  0  0  0  0  0  0  0  0
   25.1697  -21.1058  -11.7655 N   0  0  0  0  0  0  0  0  0  0  0  0
   25.8422  -21.3433  -10.5057 C   0  0  1  0  0  0  0  0  0  0  0  0
   26.8180  -20.1646  -10.3595 C   0  0  0  0  0  0  0  0  0  0  0  0
   27.8614  -20.3984   -9.3689 C   0  0  0  0  0  0  0  0  0  0  0  0
   28.9949  -21.1459   -9.5873 C   0  0  0  0  0  0  0  0  0  0  0  0
   29.7171  -21.1382   -8.4532 N   0  0  0  0  0  0  0  0  0  0  0  0
   29.0584  -20.3969   -7.5163 C   0  0  0  0  0  0  0  0  0  0  0  0
   29.3883  -20.0901   -6.1980 C   0  0  0  0  0  0  0  0  0  0  0  0
   28.5061  -19.3048   -5.4971 C   0  0  0  0  0  0  0  0  0  0  0  0
   27.3427  -18.8343   -6.0561 C   0  0  0  0  0  0  0  0  0  0  0  0
   27.0096  -19.1268   -7.3392 C   0  0  0  0  0  0  0  0  0  0  0  0
   27.8878  -19.9237   -8.0805 C   0  0  0  0  0  0  0  0  0  0  0  0
   24.9023  -21.2540   -9.3567 C   0  0  0  0  0  0  0  0  0  0  0  0
   25.1538  -21.8608   -8.2837 O   0  0  0  0  0  0  0  0  0  0  0  0
   23.7329  -20.5153   -9.4168 O   0  0  0  0  0  0  0  0  0  0  0  0
  2  1  1  0
  3  2  1  0
  4  5  1  0
  4  3  1  0
  5  7  1  0
  5  6  1  1
  7  8  2  0
  9 10  1  0
 11 10  1  6
 11 13  1  0
 12 11  1  0
 12  7  1  0
 13 14  2  0
 15 16  1  0
 15 13  1  0
 16 27  1  0
 16 17  1  1
 18 17  1  0
 19 18  2  0
 20 21  1  0
 20 19  1  0
 21 26  2  0
 22 21  1  0
 22 23  2  0
 23 24  1  0
 24 25  2  0
 26 18  1  0
 26 25  1  0
 27 28  2  0
 27 29  1  0
M  END
$$$$
