MSW.pdb
     RDKit          3D

 29 30  0  0  1  0  0  0  0  0999 V2000
   22.7156  -11.6677  -20.2646 C   0  0  0  0  0  0  0  0  0  0  0  0
   21.8478  -13.0236  -19.3981 S   0  0  0  0  0  0  0  0  0  0  0  0
   20.2249  -12.4261  -18.8017 C   0  0  0  0  0  0  0  0  0  0  0  0
   20.3763  -11.0432  -18.1930 C   0  0  0  0  0  0  0  0  0  0  0  0
   19.8161  -11.1096  -16.7833 C   0  0  2  0  0  0  0  0  0  0  0  0
   18.5455  -11.8096  -16.7729 N   0  0  0  0  0  0  0  0  0  0  0  0
   19.7045   -9.7282  -16.3028 C   0  0  0  0  0  0  0  0  0  0  0  0
   18.8402   -8.9752  -16.8448 O   0  0  0  0  0  0  0  0  0  0  0  0
   20.2187   -8.0049  -12.4850 O   0  0  0  0  0  0  0  0  0  0  0  0
   21.0335   -7.5562  -13.4993 C   0  0  0  0  0  0  0  0  0  0  0  0
   20.3725   -7.8057  -14.8746 C   0  0  2  0  0  0  0  0  0  0  0  0
   20.5198   -9.1859  -15.2520 N   0  0  0  0  0  0  0  0  0  0  0  0
   21.0614   -6.9036  -15.8372 C   0  0  0  0  0  0  0  0  0  0  0  0
   22.0643   -7.2663  -16.5012 O   0  0  0  0  0  0  0  0  0  0  0  0
   20.6238   -5.5672  -16.0639 N   0  0  0  0  0  0  0  0  0  0  0  0
   21.2564   -4.7444  -17.0731 C   0  0  1  0  0  0  0  0  0  0  0  0
   20.8423   -5.3829  -18.4086 C   0  0  0  0  0  0  0  0  0  0  0  0
   19.5298   -4.9508  -18.8727 C   0  0  0  0  0  0  0  0  0  0  0  0
   18.3629   -5.0866  -18.1577 C   0  0  0  0  0  0  0  0  0  0  0  0
   17.3640   -4.5791  -18.9011 N   0  0  0  0  0  0  0  0  0  0  0  0
   17.8793   -4.1231  -20.0791 C   0  0  0  0  0  0  0  0  0  0  0  0
   17.2621   -3.5187  -21.1721 C   0  0  0  0  0  0  0  0  0  0  0  0
   18.0647   -3.1637  -22.2285 C   0  0  0  0  0  0  0  0  0  0  0  0
   19.4199   -3.3889  -22.2250 C   0  0  0  0  0  0  0  0  0  0  0  0
   20.0330   -3.9776  -21.1665 C   0  0  0  0  0  0  0  0  0  0  0  0
   19.2435   -4.3501  -20.0740 C   0  0  0  0  0  0  0  0  0  0  0  0
   20.7045   -3.3634  -17.0801 C   0  0  0  0  0  0  0  0  0  0  0  0
   19.7333   -3.0654  -16.3380 O   0  0  0  0  0  0  0  0  0  0  0  0
   21.2240   -2.3662  -17.8878 O   0  0  0  0  0  0  0  0  0  0  0  0
  2  1  1  0
  3  2  1  0
  4  5  1  0
  4  3  1  0
  5  7  1  0
  5  6  1  6
  7  8  2  0
  9 10  1  0
 11 10  1  1
 11 13  1  0
 12 11  1  0
 12  7  1  0
 13 14  2  0
 15 16  1  0
 15 13  1  0
 16 27  1  0
 16 17  1  6
 18 17  1  0
 19 18  2  0
 20 21  1  0
 20 19  1  0
 21 26  2  0
 22 21  1  0
 22 23  2  0
 23 24  1  0
 24 25  2  0
 26 18  1  0
 26 25  1  0
 27 28  2  0
 27 29  1  0
M  END
$$$$
