VCR.pdb
     RDKit          3D

 25 24  0  0  1  0  0  0  0  0999 V2000
   26.4783  -19.5960   -9.9399 C   0  0  0  0  0  0  0  0  0  0  0  0
   25.3110  -20.5918  -10.0194 C   0  0  2  0  0  0  0  0  0  0  0  0
   25.4423  -21.4898   -8.8380 C   0  0  0  0  0  0  0  0  0  0  0  0
   25.4815  -21.2846  -11.3563 C   0  0  2  0  0  0  0  0  0  0  0  0
   26.8555  -21.8246  -11.2999 N   0  0  0  0  0  0  0  0  0  0  0  0
   25.4337  -20.3725  -12.5115 C   0  0  0  0  0  0  0  0  0  0  0  0
   24.3452  -19.8326  -12.8261 O   0  0  0  0  0  0  0  0  0  0  0  0
   26.5450  -20.0250  -13.3406 N   0  0  0  0  0  0  0  0  0  0  0  0
   26.3870  -19.2553  -14.5547 C   0  0  1  0  0  0  0  0  0  0  0  0
   27.8057  -19.0094  -15.1241 C   0  0  0  0  0  0  0  0  0  0  0  0
   28.9245  -18.7417  -13.7070 S   0  0  0  0  0  0  0  0  0  0  0  0
   25.5239  -19.8640  -15.5683 C   0  0  0  0  0  0  0  0  0  0  0  0
   25.6881  -21.0981  -15.8718 O   0  0  0  0  0  0  0  0  0  0  0  0
   20.9374  -21.0740  -11.4611 N   0  0  0  0  0  0  0  0  0  0  0  0
   19.7902  -21.5837  -12.0947 C   0  0  0  0  0  0  0  0  0  0  0  0
   18.8803  -22.1634  -11.3875 N   0  0  0  0  0  0  0  0  0  0  0  0
   19.6668  -21.4437  -13.5093 N   0  0  0  0  0  0  0  0  0  0  0  0
   20.8373  -21.5544  -14.3483 C   0  0  0  0  0  0  0  0  0  0  0  0
   21.0513  -20.2471  -15.0807 C   0  0  0  0  0  0  0  0  0  0  0  0
   22.4652  -19.7485  -15.0118 C   0  0  0  0  0  0  0  0  0  0  0  0
   23.1092  -19.7388  -16.3444 C   0  0  2  0  0  0  0  0  0  0  0  0
   24.4818  -19.2196  -16.2828 N   0  0  0  0  0  0  0  0  0  0  0  0
   22.3143  -18.9739  -17.3199 C   0  0  0  0  0  0  0  0  0  0  0  0
   21.5888  -19.5549  -18.3279 O   0  0  0  0  0  0  0  0  0  0  0  0
   22.2927  -17.7230  -17.2380 O   0  0  0  0  0  0  0  0  0  0  0  0
  2  1  1  1
  2  3  1  0
  4  2  1  0
  4  5  1  1
  6  4  1  0
  7  6  2  0
  8  6  1  0
  9  8  1  0
  9 10  1  6
 11 10  1  0
 12 22  1  0
 12  9  1  0
 13 12  2  0
 14 15  1  0
 15 16  2  0
 17 18  1  0
 17 15  1  0
 19 18  1  0
 20 19  1  0
 21 20  1  1
 21 22  1  0
 23 21  1  0
 24 23  1  0
 25 23  2  0
M  END
$$$$
