VCR.pdb
     RDKit          3D

 25 24  0  0  1  0  0  0  0  0999 V2000
   18.2750  -23.4015   -9.0138 C   0  0  0  0  0  0  0  0  0  0  0  0
   19.3544  -24.4653   -9.2663 C   0  0  2  0  0  0  0  0  0  0  0  0
   19.4044  -24.6727  -10.7407 C   0  0  0  0  0  0  0  0  0  0  0  0
   18.8989  -25.6762   -8.4773 C   0  0  2  0  0  0  0  0  0  0  0  0
   17.5965  -26.0212   -9.0834 N   0  0  0  0  0  0  0  0  0  0  0  0
   18.6418  -25.3989   -7.0541 C   0  0  0  0  0  0  0  0  0  0  0  0
   19.5916  -25.0463   -6.3132 O   0  0  0  0  0  0  0  0  0  0  0  0
   17.3705  -25.4921   -6.4072 N   0  0  0  0  0  0  0  0  0  0  0  0
   17.2313  -25.4073   -4.9703 C   0  0  1  0  0  0  0  0  0  0  0  0
   15.9951  -24.5194   -4.6856 C   0  0  0  0  0  0  0  0  0  0  0  0
   15.8377  -24.3668   -2.8736 S   0  0  0  0  0  0  0  0  0  0  0  0
   17.1114  -26.6930   -4.2808 C   0  0  0  0  0  0  0  0  0  0  0  0
   16.1901  -27.5102   -4.6348 O   0  0  0  0  0  0  0  0  0  0  0  0
   22.1048  -32.2162    0.7970 N   0  0  0  0  0  0  0  0  0  0  0  0
   21.1328  -32.9658    0.1112 C   0  0  0  0  0  0  0  0  0  0  0  0
   21.2106  -34.2535    0.1089 N   0  0  0  0  0  0  0  0  0  0  0  0
   20.0837  -32.2753   -0.5660 N   0  0  0  0  0  0  0  0  0  0  0  0
   20.1953  -30.8556   -0.8076 C   0  0  0  0  0  0  0  0  0  0  0  0
   18.9534  -30.3730   -1.5260 C   0  0  0  0  0  0  0  0  0  0  0  0
   19.0508  -28.9515   -1.9974 C   0  0  0  0  0  0  0  0  0  0  0  0
   17.7902  -28.4934   -2.6234 C   0  0  2  0  0  0  0  0  0  0  0  0
   17.9322  -27.1598   -3.2224 N   0  0  0  0  0  0  0  0  0  0  0  0
   16.6759  -28.5078   -1.6608 C   0  0  0  0  0  0  0  0  0  0  0  0
   15.8054  -29.5584   -1.5252 O   0  0  0  0  0  0  0  0  0  0  0  0
   16.5000  -27.5112   -0.9206 O   0  0  0  0  0  0  0  0  0  0  0  0
  2  1  1  6
  2  3  1  0
  4  2  1  0
  4  5  1  6
  6  4  1  0
  7  6  2  0
  8  6  1  0
  9  8  1  0
  9 10  1  6
 11 10  1  0
 12 22  1  0
 12  9  1  0
 13 12  2  0
 14 15  1  0
 15 16  2  0
 17 18  1  0
 17 15  1  0
 19 18  1  0
 20 19  1  0
 21 20  1  1
 21 22  1  0
 23 21  1  0
 24 23  1  0
 25 23  2  0
M  END
$$$$
