VCR.pdb
     RDKit          3D

 25 24  0  0  1  0  0  0  0  0999 V2000
   24.2588  -23.0321  -18.9845 C   0  0  0  0  0  0  0  0  0  0  0  0
   23.6600  -22.8240  -17.5850 C   0  0  2  0  0  0  0  0  0  0  0  0
   22.3971  -23.6132  -17.5457 C   0  0  0  0  0  0  0  0  0  0  0  0
   23.4679  -21.3257  -17.4634 C   0  0  2  0  0  0  0  0  0  0  0  0
   24.8464  -20.7944  -17.4493 N   0  0  0  0  0  0  0  0  0  0  0  0
   22.8407  -20.9052  -16.1992 C   0  0  0  0  0  0  0  0  0  0  0  0
   23.4814  -21.0174  -15.1257 O   0  0  0  0  0  0  0  0  0  0  0  0
   21.5263  -20.3592  -16.0666 N   0  0  0  0  0  0  0  0  0  0  0  0
   20.9267  -20.1040  -14.7756 C   0  0  1  0  0  0  0  0  0  0  0  0
   20.1339  -18.7796  -14.8971 C   0  0  0  0  0  0  0  0  0  0  0  0
   21.1916  -17.4469  -14.2363 S   0  0  0  0  0  0  0  0  0  0  0  0
   20.0665  -21.1741  -14.2677 C   0  0  0  0  0  0  0  0  0  0  0  0
   19.2666  -21.7700  -15.0721 O   0  0  0  0  0  0  0  0  0  0  0  0
   18.7361  -25.1222   -6.4180 N   0  0  0  0  0  0  0  0  0  0  0  0
   17.5890  -25.2876   -7.2143 C   0  0  0  0  0  0  0  0  0  0  0  0
   16.5302  -25.8144   -6.6989 N   0  0  0  0  0  0  0  0  0  0  0  0
   17.6314  -24.8654   -8.5766 N   0  0  0  0  0  0  0  0  0  0  0  0
   18.8962  -24.8009   -9.2711 C   0  0  0  0  0  0  0  0  0  0  0  0
   18.6568  -24.3786  -10.7049 C   0  0  0  0  0  0  0  0  0  0  0  0
   19.4076  -23.1393  -11.0956 C   0  0  0  0  0  0  0  0  0  0  0  0
   19.1852  -22.7879  -12.5161 C   0  0  2  0  0  0  0  0  0  0  0  0
   20.0144  -21.6491  -12.9322 N   0  0  0  0  0  0  0  0  0  0  0  0
   17.7638  -22.5136  -12.7857 C   0  0  0  0  0  0  0  0  0  0  0  0
   17.1809  -21.2862  -12.6021 O   0  0  0  0  0  0  0  0  0  0  0  0
   17.0346  -23.4439  -13.2038 O   0  0  0  0  0  0  0  0  0  0  0  0
  2  1  1  6
  2  3  1  0
  4  2  1  0
  4  5  1  1
  6  4  1  0
  7  6  2  0
  8  6  1  0
  9  8  1  0
  9 10  1  6
 11 10  1  0
 12 22  1  0
 12  9  1  0
 13 12  2  0
 14 15  1  0
 15 16  2  0
 17 18  1  0
 17 15  1  0
 19 18  1  0
 20 19  1  0
 21 20  1  1
 21 22  1  0
 23 21  1  0
 24 23  1  0
 25 23  2  0
M  END
$$$$
