VCR.pdb
     RDKit          3D

 25 24  0  0  1  0  0  0  0  0999 V2000
   18.7189  -10.9824  -16.1903 C   0  0  0  0  0  0  0  0  0  0  0  0
   17.6769  -12.0459  -15.8112 C   0  0  2  0  0  0  0  0  0  0  0  0
   17.1264  -12.5715  -17.0919 C   0  0  0  0  0  0  0  0  0  0  0  0
   16.6692  -11.3127  -14.9489 C   0  0  2  0  0  0  0  0  0  0  0  0
   15.9170  -10.4847  -15.9139 N   0  0  0  0  0  0  0  0  0  0  0  0
   17.2761  -10.3848  -13.9798 C   0  0  0  0  0  0  0  0  0  0  0  0
   17.9215  -10.8449  -13.0066 O   0  0  0  0  0  0  0  0  0  0  0  0
   17.2036   -8.9585  -14.0395 N   0  0  0  0  0  0  0  0  0  0  0  0
   17.7517   -8.1169  -12.9990 C   0  0  1  0  0  0  0  0  0  0  0  0
   18.6676   -7.0778  -13.6910 C   0  0  0  0  0  0  0  0  0  0  0  0
   19.3343   -5.9848  -12.3901 S   0  0  0  0  0  0  0  0  0  0  0  0
   16.7605   -7.4478  -12.1547 C   0  0  0  0  0  0  0  0  0  0  0  0
   15.7850   -6.8264  -12.7060 O   0  0  0  0  0  0  0  0  0  0  0  0
   10.6713   -9.1368   -6.4275 N   0  0  0  0  0  0  0  0  0  0  0  0
   10.8443   -7.7515   -6.2598 C   0  0  0  0  0  0  0  0  0  0  0  0
   10.0884   -7.1140   -5.4313 N   0  0  0  0  0  0  0  0  0  0  0  0
   11.8567   -7.0887   -7.0161 N   0  0  0  0  0  0  0  0  0  0  0  0
   12.8599   -7.8628   -7.7094 C   0  0  0  0  0  0  0  0  0  0  0  0
   13.8082   -6.9240   -8.4240 C   0  0  0  0  0  0  0  0  0  0  0  0
   14.9280   -7.6304   -9.1308 C   0  0  0  0  0  0  0  0  0  0  0  0
   15.7281   -6.6999   -9.9583 C   0  0  2  0  0  0  0  0  0  0  0  0
   16.7535   -7.4070  -10.7369 N   0  0  0  0  0  0  0  0  0  0  0  0
   16.3441   -5.6443   -9.1371 C   0  0  0  0  0  0  0  0  0  0  0  0
   15.6499   -4.5751   -8.6322 O   0  0  0  0  0  0  0  0  0  0  0  0
   17.5693   -5.7125   -8.8798 O   0  0  0  0  0  0  0  0  0  0  0  0
  2  1  1  6
  2  3  1  0
  4  2  1  0
  4  5  1  6
  6  4  1  0
  7  6  2  0
  8  6  1  0
  9  8  1  0
  9 10  1  6
 11 10  1  0
 12 22  1  0
 12  9  1  0
 13 12  2  0
 14 15  1  0
 15 16  2  0
 17 18  1  0
 17 15  1  0
 19 18  1  0
 20 19  1  0
 21 20  1  1
 21 22  1  0
 23 21  1  0
 24 23  1  0
 25 23  2  0
M  END
$$$$
