VCR.pdb
     RDKit          3D

 25 24  0  0  1  0  0  0  0  0999 V2000
   27.3752  -17.9097  -14.0743 C   0  0  0  0  0  0  0  0  0  0  0  0
   27.5928  -18.9105  -15.2195 C   0  0  2  0  0  0  0  0  0  0  0  0
   26.3190  -18.9511  -15.9910 C   0  0  0  0  0  0  0  0  0  0  0  0
   27.9532  -20.2131  -14.5341 C   0  0  2  0  0  0  0  0  0  0  0  0
   28.2051  -21.1422  -15.6548 N   0  0  0  0  0  0  0  0  0  0  0  0
   26.8559  -20.7944  -13.7425 C   0  0  0  0  0  0  0  0  0  0  0  0
   25.9453  -21.4317  -14.3258 O   0  0  0  0  0  0  0  0  0  0  0  0
   26.7194  -20.7047  -12.3224 N   0  0  0  0  0  0  0  0  0  0  0  0
   25.5445  -21.1874  -11.6313 C   0  0  1  0  0  0  0  0  0  0  0  0
   25.8600  -21.1456  -10.1160 C   0  0  0  0  0  0  0  0  0  0  0  0
   27.4937  -21.9235   -9.8763 S   0  0  0  0  0  0  0  0  0  0  0  0
   24.3096  -20.4564  -11.9203 C   0  0  0  0  0  0  0  0  0  0  0  0
   24.3803  -19.2453  -12.3328 O   0  0  0  0  0  0  0  0  0  0  0  0
   19.2069  -19.7651  -18.3119 N   0  0  0  0  0  0  0  0  0  0  0  0
   20.2436  -18.8524  -18.0486 C   0  0  0  0  0  0  0  0  0  0  0  0
   20.2651  -17.7215  -18.6690 N   0  0  0  0  0  0  0  0  0  0  0  0
   21.2466  -19.2070  -17.0976 N   0  0  0  0  0  0  0  0  0  0  0  0
   21.1408  -20.4501  -16.3698 C   0  0  0  0  0  0  0  0  0  0  0  0
   20.9863  -20.1520  -14.8938 C   0  0  0  0  0  0  0  0  0  0  0  0
   22.1071  -20.6928  -14.0549 C   0  0  0  0  0  0  0  0  0  0  0  0
   21.8658  -20.4755  -12.6108 C   0  0  2  0  0  0  0  0  0  0  0  0
   22.9877  -20.9545  -11.7925 N   0  0  0  0  0  0  0  0  0  0  0  0
   20.6076  -21.1045  -12.1755 C   0  0  0  0  0  0  0  0  0  0  0  0
   19.4053  -20.4464  -12.1365 O   0  0  0  0  0  0  0  0  0  0  0  0
   20.6219  -22.3055  -11.8157 O   0  0  0  0  0  0  0  0  0  0  0  0
  2  1  1  1
  2  3  1  0
  4  2  1  0
  4  5  1  6
  6  4  1  0
  7  6  2  0
  8  6  1  0
  9  8  1  0
  9 10  1  1
 11 10  1  0
 12 22  1  0
 12  9  1  0
 13 12  2  0
 14 15  1  0
 15 16  2  0
 17 18  1  0
 17 15  1  0
 19 18  1  0
 20 19  1  0
 21 20  1  6
 21 22  1  0
 23 21  1  0
 24 23  1  0
 25 23  2  0
M  END
$$$$
