VCR.pdb
     RDKit          3D

 25 24  0  0  1  0  0  0  0  0999 V2000
   19.1805  -32.7764   -1.8032 C   0  0  0  0  0  0  0  0  0  0  0  0
   19.2756  -32.9585   -3.3258 C   0  0  2  0  0  0  0  0  0  0  0  0
   20.2700  -34.0430   -3.5590 C   0  0  0  0  0  0  0  0  0  0  0  0
   19.6921  -31.6007   -3.8544 C   0  0  2  0  0  0  0  0  0  0  0  0
   21.0530  -31.4140   -3.3105 N   0  0  0  0  0  0  0  0  0  0  0  0
   18.8770  -30.4858   -3.3436 C   0  0  0  0  0  0  0  0  0  0  0  0
   17.7107  -30.3247   -3.7787 O   0  0  0  0  0  0  0  0  0  0  0  0
   19.2952  -29.5335   -2.3629 N   0  0  0  0  0  0  0  0  0  0  0  0
   18.4676  -28.4114   -1.9793 C   0  0  1  0  0  0  0  0  0  0  0  0
   18.9432  -27.9546   -0.5784 C   0  0  0  0  0  0  0  0  0  0  0  0
   18.0906  -26.3866   -0.1964 S   0  0  0  0  0  0  0  0  0  0  0  0
   18.4724  -27.2869   -2.9165 C   0  0  0  0  0  0  0  0  0  0  0  0
   19.5763  -26.9283   -3.4593 O   0  0  0  0  0  0  0  0  0  0  0  0
   18.9249  -25.8694  -10.8054 N   0  0  0  0  0  0  0  0  0  0  0  0
   18.8418  -24.5529  -10.3186 C   0  0  0  0  0  0  0  0  0  0  0  0
   19.1740  -23.5710  -11.0866 N   0  0  0  0  0  0  0  0  0  0  0  0
   18.3902  -24.3416   -8.9816 N   0  0  0  0  0  0  0  0  0  0  0  0
   18.3652  -25.4434   -8.0480 C   0  0  0  0  0  0  0  0  0  0  0  0
   17.8406  -24.9552   -6.7146 C   0  0  0  0  0  0  0  0  0  0  0  0
   17.8719  -26.0031   -5.6408 C   0  0  0  0  0  0  0  0  0  0  0  0
   17.4143  -25.4683   -4.3387 C   0  0  2  0  0  0  0  0  0  0  0  0
   17.3490  -26.5163   -3.3115 N   0  0  0  0  0  0  0  0  0  0  0  0
   16.1133  -24.7901   -4.4635 C   0  0  0  0  0  0  0  0  0  0  0  0
   15.9716  -23.4963   -4.8950 O   0  0  0  0  0  0  0  0  0  0  0  0
   15.0704  -25.4163   -4.1598 O   0  0  0  0  0  0  0  0  0  0  0  0
  2  1  1  1
  2  3  1  0
  4  2  1  0
  4  5  1  1
  6  4  1  0
  7  6  2  0
  8  6  1  0
  9  8  1  0
  9 10  1  1
 11 10  1  0
 12 22  1  0
 12  9  1  0
 13 12  2  0
 14 15  1  0
 15 16  2  0
 17 18  1  0
 17 15  1  0
 19 18  1  0
 20 19  1  0
 21 20  1  6
 21 22  1  0
 23 21  1  0
 24 23  1  0
 25 23  2  0
M  END
$$$$
