VCR.pdb
     RDKit          3D

 25 24  0  0  1  0  0  0  0  0999 V2000
   16.3208  -26.4838   -8.5973 C   0  0  0  0  0  0  0  0  0  0  0  0
   16.2887  -25.0017   -8.1936 C   0  0  2  0  0  0  0  0  0  0  0  0
   16.4529  -24.2192   -9.4507 C   0  0  0  0  0  0  0  0  0  0  0  0
   17.4247  -24.8439   -7.2032 C   0  0  2  0  0  0  0  0  0  0  0  0
   18.6226  -25.2279   -7.9779 N   0  0  0  0  0  0  0  0  0  0  0  0
   17.3498  -25.7658   -6.0574 C   0  0  0  0  0  0  0  0  0  0  0  0
   17.9740  -26.8539   -6.0997 O   0  0  0  0  0  0  0  0  0  0  0  0
   16.6116  -25.5365   -4.8550 N   0  0  0  0  0  0  0  0  0  0  0  0
   16.8231  -26.3247   -3.6611 C   0  0  1  0  0  0  0  0  0  0  0  0
   17.8814  -25.5826   -2.8087 C   0  0  0  0  0  0  0  0  0  0  0  0
   19.4740  -26.4423   -3.0449 S   0  0  0  0  0  0  0  0  0  0  0  0
   15.6198  -26.5904   -2.8709 C   0  0  0  0  0  0  0  0  0  0  0  0
   14.7886  -25.6392   -2.6561 O   0  0  0  0  0  0  0  0  0  0  0  0
   10.9362  -32.3385   -2.3204 N   0  0  0  0  0  0  0  0  0  0  0  0
   12.2699  -32.6612   -2.0134 C   0  0  0  0  0  0  0  0  0  0  0  0
   12.8563  -33.6125   -2.6581 N   0  0  0  0  0  0  0  0  0  0  0  0
   12.9382  -31.9226   -0.9918 N   0  0  0  0  0  0  0  0  0  0  0  0
   12.1805  -31.0622   -0.1132 C   0  0  0  0  0  0  0  0  0  0  0  0
   12.4821  -29.6172   -0.4485 C   0  0  0  0  0  0  0  0  0  0  0  0
   13.7768  -29.4329   -1.1849 C   0  0  0  0  0  0  0  0  0  0  0  0
   14.0550  -28.0047   -1.4565 C   0  0  2  0  0  0  0  0  0  0  0  0
   15.2507  -27.8316   -2.2920 N   0  0  0  0  0  0  0  0  0  0  0  0
   14.1856  -27.2355   -0.2077 C   0  0  0  0  0  0  0  0  0  0  0  0
   13.1357  -26.6003    0.4041 O   0  0  0  0  0  0  0  0  0  0  0  0
   15.3121  -27.1460    0.3353 O   0  0  0  0  0  0  0  0  0  0  0  0
  2  1  1  6
  2  3  1  0
  4  2  1  0
  4  5  1  6
  6  4  1  0
  7  6  2  0
  8  6  1  0
  9  8  1  0
  9 10  1  1
 11 10  1  0
 12 22  1  0
 12  9  1  0
 13 12  2  0
 14 15  1  0
 15 16  2  0
 17 18  1  0
 17 15  1  0
 19 18  1  0
 20 19  1  0
 21 20  1  1
 21 22  1  0
 23 21  1  0
 24 23  1  0
 25 23  2  0
M  END
$$$$
