VCR.pdb
     RDKit          3D

 25 24  0  0  1  0  0  0  0  0999 V2000
   26.7134  -19.3512  -10.6342 C   0  0  0  0  0  0  0  0  0  0  0  0
   25.6512  -20.3926  -10.2499 C   0  0  2  0  0  0  0  0  0  0  0  0
   26.2542  -21.2335   -9.1781 C   0  0  0  0  0  0  0  0  0  0  0  0
   25.3515  -21.1352  -11.5364 C   0  0  2  0  0  0  0  0  0  0  0  0
   26.6606  -21.6931  -11.9335 N   0  0  0  0  0  0  0  0  0  0  0  0
   24.9118  -20.2644  -12.6395 C   0  0  0  0  0  0  0  0  0  0  0  0
   23.7388  -19.8178  -12.6424 O   0  0  0  0  0  0  0  0  0  0  0  0
   25.7177  -19.8593  -13.7484 N   0  0  0  0  0  0  0  0  0  0  0  0
   25.1662  -19.1468  -14.8795 C   0  0  1  0  0  0  0  0  0  0  0  0
   26.3605  -18.6724  -15.7433 C   0  0  0  0  0  0  0  0  0  0  0  0
   27.6937  -18.1689  -14.6030 S   0  0  0  0  0  0  0  0  0  0  0  0
   24.2153  -19.9091  -15.6903 C   0  0  0  0  0  0  0  0  0  0  0  0
   24.5077  -21.1073  -16.0380 O   0  0  0  0  0  0  0  0  0  0  0  0
   18.8030  -23.1698  -10.4732 N   0  0  0  0  0  0  0  0  0  0  0  0
   19.3046  -23.6200  -11.7072 C   0  0  0  0  0  0  0  0  0  0  0  0
   18.8865  -24.7406  -12.1905 N   0  0  0  0  0  0  0  0  0  0  0  0
   20.2670  -22.8190  -12.3915 N   0  0  0  0  0  0  0  0  0  0  0  0
   19.9431  -21.4595  -12.7564 C   0  0  0  0  0  0  0  0  0  0  0  0
   20.2482  -21.2512  -14.2244 C   0  0  0  0  0  0  0  0  0  0  0  0
   21.4840  -20.4349  -14.4674 C   0  0  0  0  0  0  0  0  0  0  0  0
   21.7000  -20.1825  -15.9098 C   0  0  2  0  0  0  0  0  0  0  0  0
   22.9535  -19.4570  -16.1544 N   0  0  0  0  0  0  0  0  0  0  0  0
   20.5637  -19.4595  -16.5050 C   0  0  0  0  0  0  0  0  0  0  0  0
   19.6213  -20.0548  -17.3033 O   0  0  0  0  0  0  0  0  0  0  0  0
   20.4401  -18.2322  -16.2803 O   0  0  0  0  0  0  0  0  0  0  0  0
  2  1  1  6
  2  3  1  0
  4  2  1  0
  4  5  1  6
  6  4  1  0
  7  6  2  0
  8  6  1  0
  9  8  1  0
  9 10  1  6
 11 10  1  0
 12 22  1  0
 12  9  1  0
 13 12  2  0
 14 15  1  0
 15 16  2  0
 17 18  1  0
 17 15  1  0
 19 18  1  0
 20 19  1  0
 21 20  1  1
 21 22  1  0
 23 21  1  0
 24 23  1  0
 25 23  2  0
M  END
$$$$
