VCR.pdb
     RDKit          3D

 25 24  0  0  1  0  0  0  0  0999 V2000
   26.4360  -17.7205  -14.8782 C   0  0  0  0  0  0  0  0  0  0  0  0
   26.1063  -17.5609  -16.3703 C   0  0  2  0  0  0  0  0  0  0  0  0
   26.3093  -16.1211  -16.6948 C   0  0  0  0  0  0  0  0  0  0  0  0
   24.6746  -18.0388  -16.5052 C   0  0  2  0  0  0  0  0  0  0  0  0
   23.8728  -16.8687  -16.0922 N   0  0  0  0  0  0  0  0  0  0  0  0
   24.3229  -19.1362  -15.5883 C   0  0  0  0  0  0  0  0  0  0  0  0
   24.7822  -20.2854  -15.7974 O   0  0  0  0  0  0  0  0  0  0  0  0
   23.4809  -19.0194  -14.4391 N   0  0  0  0  0  0  0  0  0  0  0  0
   23.1872  -20.1478  -13.5837 C   0  0  1  0  0  0  0  0  0  0  0  0
   23.1894  -19.6253  -12.1262 C   0  0  0  0  0  0  0  0  0  0  0  0
   21.7109  -20.3053  -11.2997 S   0  0  0  0  0  0  0  0  0  0  0  0
   21.9327  -20.8418  -13.8798 C   0  0  0  0  0  0  0  0  0  0  0  0
   20.9036  -20.1582  -14.2196 O   0  0  0  0  0  0  0  0  0  0  0  0
   19.9903  -29.2405  -14.7916 N   0  0  0  0  0  0  0  0  0  0  0  0
   21.0321  -28.2984  -14.8575 C   0  0  0  0  0  0  0  0  0  0  0  0
   22.2500  -28.7074  -14.9745 N   0  0  0  0  0  0  0  0  0  0  0  0
   20.7086  -26.9102  -14.7921 N   0  0  0  0  0  0  0  0  0  0  0  0
   19.3267  -26.4957  -14.7227 C   0  0  0  0  0  0  0  0  0  0  0  0
   19.2613  -24.9841  -14.6775 C   0  0  0  0  0  0  0  0  0  0  0  0
   20.5243  -24.3465  -14.1769 C   0  0  0  0  0  0  0  0  0  0  0  0
   20.4344  -22.8691  -14.1866 C   0  0  2  0  0  0  0  0  0  0  0  0
   21.7152  -22.2427  -13.8337 N   0  0  0  0  0  0  0  0  0  0  0  0
   19.3655  -22.3899  -13.2944 C   0  0  0  0  0  0  0  0  0  0  0  0
   18.0719  -22.1885  -13.7019 O   0  0  0  0  0  0  0  0  0  0  0  0
   19.6390  -22.1463  -12.0953 O   0  0  0  0  0  0  0  0  0  0  0  0
  2  1  1  1
  2  3  1  0
  4  2  1  0
  4  5  1  1
  6  4  1  0
  7  6  2  0
  8  6  1  0
  9  8  1  0
  9 10  1  1
 11 10  1  0
 12 22  1  0
 12  9  1  0
 13 12  2  0
 14 15  1  0
 15 16  2  0
 17 18  1  0
 17 15  1  0
 19 18  1  0
 20 19  1  0
 21 20  1  1
 21 22  1  0
 23 21  1  0
 24 23  1  0
 25 23  2  0
M  END
$$$$
