VCR.pdb
     RDKit          3D

 25 24  0  0  1  0  0  0  0  0999 V2000
   29.3715  -12.9267  -16.8394 C   0  0  0  0  0  0  0  0  0  0  0  0
   28.3462  -13.7865  -16.0844 C   0  0  2  0  0  0  0  0  0  0  0  0
   28.5717  -15.1925  -16.5223 C   0  0  0  0  0  0  0  0  0  0  0  0
   26.9977  -13.2161  -16.4751 C   0  0  2  0  0  0  0  0  0  0  0  0
   26.9355  -13.4292  -17.9357 N   0  0  0  0  0  0  0  0  0  0  0  0
   26.8771  -11.7650  -16.2549 C   0  0  0  0  0  0  0  0  0  0  0  0
   26.8181  -11.3222  -15.0819 O   0  0  0  0  0  0  0  0  0  0  0  0
   26.8208  -10.7720  -17.2815 N   0  0  0  0  0  0  0  0  0  0  0  0
   26.5583   -9.3799  -16.9907 C   0  0  1  0  0  0  0  0  0  0  0  0
   27.5469   -8.5445  -17.8405 C   0  0  0  0  0  0  0  0  0  0  0  0
   27.1577   -8.8571  -19.5961 S   0  0  0  0  0  0  0  0  0  0  0  0
   25.1808   -8.9448  -17.2274 C   0  0  0  0  0  0  0  0  0  0  0  0
   24.5311   -9.4329  -18.2182 O   0  0  0  0  0  0  0  0  0  0  0  0
   17.5463  -10.2256  -14.6328 N   0  0  0  0  0  0  0  0  0  0  0  0
   18.6243  -10.8135  -15.3179 C   0  0  0  0  0  0  0  0  0  0  0  0
   18.6504  -12.0932  -15.4794 N   0  0  0  0  0  0  0  0  0  0  0  0
   19.6630   -9.9719  -15.8165 N   0  0  0  0  0  0  0  0  0  0  0  0
   19.5888   -8.5430  -15.6185 C   0  0  0  0  0  0  0  0  0  0  0  0
   20.6760   -7.8703  -16.4290 C   0  0  0  0  0  0  0  0  0  0  0  0
   22.0624   -8.2687  -16.0151 C   0  0  0  0  0  0  0  0  0  0  0  0
   23.0954   -7.5592  -16.8027 C   0  0  2  0  0  0  0  0  0  0  0  0
   24.4502   -8.0070  -16.4538 N   0  0  0  0  0  0  0  0  0  0  0  0
   22.9814   -6.0994  -16.6472 C   0  0  0  0  0  0  0  0  0  0  0  0
   21.8637   -5.3854  -16.9953 O   0  0  0  0  0  0  0  0  0  0  0  0
   23.9518   -5.4614  -16.1749 O   0  0  0  0  0  0  0  0  0  0  0  0
  2  1  1  6
  2  3  1  0
  4  2  1  0
  4  5  1  6
  6  4  1  0
  7  6  2  0
  8  6  1  0
  9  8  1  0
  9 10  1  6
 11 10  1  0
 12 22  1  0
 12  9  1  0
 13 12  2  0
 14 15  1  0
 15 16  2  0
 17 18  1  0
 17 15  1  0
 19 18  1  0
 20 19  1  0
 21 20  1  1
 21 22  1  0
 23 21  1  0
 24 23  1  0
 25 23  2  0
M  END
$$$$
