VCR.pdb
     RDKit          3D

 25 24  0  0  1  0  0  0  0  0999 V2000
   24.8424  -13.7890  -16.7405 C   0  0  0  0  0  0  0  0  0  0  0  0
   23.3573  -13.8795  -17.1234 C   0  0  2  0  0  0  0  0  0  0  0  0
   23.2418  -14.9977  -18.1010 C   0  0  0  0  0  0  0  0  0  0  0  0
   23.0176  -12.5147  -17.6878 C   0  0  2  0  0  0  0  0  0  0  0  0
   23.8289  -12.4317  -18.9196 N   0  0  0  0  0  0  0  0  0  0  0  0
   23.4364  -11.3933  -16.8302 C   0  0  0  0  0  0  0  0  0  0  0  0
   22.8892  -11.2345  -15.7118 O   0  0  0  0  0  0  0  0  0  0  0  0
   24.4434  -10.4320  -17.1546 N   0  0  0  0  0  0  0  0  0  0  0  0
   24.6655   -9.2506  -16.3507 C   0  0  1  0  0  0  0  0  0  0  0  0
   26.0970   -8.7507  -16.6644 C   0  0  0  0  0  0  0  0  0  0  0  0
   27.2650   -9.9861  -16.0004 S   0  0  0  0  0  0  0  0  0  0  0  0
   23.6910   -8.1755  -16.5438 C   0  0  0  0  0  0  0  0  0  0  0  0
   23.1773   -7.9964  -17.7040 O   0  0  0  0  0  0  0  0  0  0  0  0
   15.7896   -7.9315  -17.2462 N   0  0  0  0  0  0  0  0  0  0  0  0
   16.0027   -6.5471  -17.1235 C   0  0  0  0  0  0  0  0  0  0  0  0
   15.0157   -5.7357  -17.3017 N   0  0  0  0  0  0  0  0  0  0  0  0
   17.3121   -6.0788  -16.8039 N   0  0  0  0  0  0  0  0  0  0  0  0
   18.3940   -7.0219  -16.6418 C   0  0  0  0  0  0  0  0  0  0  0  0
   19.6573   -6.2731  -16.2748 C   0  0  0  0  0  0  0  0  0  0  0  0
   20.8472   -7.1675  -16.0834 C   0  0  0  0  0  0  0  0  0  0  0  0
   22.0645   -6.3963  -15.7449 C   0  0  2  0  0  0  0  0  0  0  0  0
   23.2286   -7.2714  -15.5535 N   0  0  0  0  0  0  0  0  0  0  0  0
   21.8540   -5.5545  -14.5552 C   0  0  0  0  0  0  0  0  0  0  0  0
   22.4711   -5.7766  -13.3511 O   0  0  0  0  0  0  0  0  0  0  0  0
   21.0688   -4.5801  -14.6321 O   0  0  0  0  0  0  0  0  0  0  0  0
  2  1  1  6
  2  3  1  0
  4  2  1  0
  4  5  1  6
  6  4  1  0
  7  6  2  0
  8  6  1  0
  9  8  1  0
  9 10  1  6
 11 10  1  0
 12 22  1  0
 12  9  1  0
 13 12  2  0
 14 15  1  0
 15 16  2  0
 17 18  1  0
 17 15  1  0
 19 18  1  0
 20 19  1  0
 21 20  1  1
 21 22  1  0
 23 21  1  0
 24 23  1  0
 25 23  2  0
M  END
$$$$
