VCR.pdb
     RDKit          3D

 25 24  0  0  1  0  0  0  0  0999 V2000
   20.3919  -29.1517  -10.1283 C   0  0  0  0  0  0  0  0  0  0  0  0
   21.1512  -30.4116   -9.6848 C   0  0  2  0  0  0  0  0  0  0  0  0
   22.0950  -30.7448  -10.7884 C   0  0  0  0  0  0  0  0  0  0  0  0
   20.0742  -31.4503   -9.4449 C   0  0  2  0  0  0  0  0  0  0  0  0
   19.3351  -31.4923  -10.7234 N   0  0  0  0  0  0  0  0  0  0  0  0
   19.1007  -31.0717   -8.4070 C   0  0  0  0  0  0  0  0  0  0  0  0
   18.0537  -30.4630   -8.7363 O   0  0  0  0  0  0  0  0  0  0  0  0
   19.2319  -31.3401   -7.0091 N   0  0  0  0  0  0  0  0  0  0  0  0
   18.2939  -30.8252   -6.0363 C   0  0  1  0  0  0  0  0  0  0  0  0
   18.1092  -31.9220   -4.9591 C   0  0  0  0  0  0  0  0  0  0  0  0
   17.4847  -31.1064   -3.4504 S   0  0  0  0  0  0  0  0  0  0  0  0
   18.6755  -29.5548   -5.4172 C   0  0  0  0  0  0  0  0  0  0  0  0
   19.8042  -29.4642   -4.8173 O   0  0  0  0  0  0  0  0  0  0  0  0
   17.4729  -22.7068   -8.6761 N   0  0  0  0  0  0  0  0  0  0  0  0
   18.3350  -23.7269   -9.1158 C   0  0  0  0  0  0  0  0  0  0  0  0
   18.4127  -23.9916  -10.3760 N   0  0  0  0  0  0  0  0  0  0  0  0
   19.1020  -24.4429   -8.1488 N   0  0  0  0  0  0  0  0  0  0  0  0
   18.4828  -25.4914   -7.3721 C   0  0  0  0  0  0  0  0  0  0  0  0
   18.2436  -24.9930   -5.9629 C   0  0  0  0  0  0  0  0  0  0  0  0
   17.5028  -25.9729   -5.1007 C   0  0  0  0  0  0  0  0  0  0  0  0
   18.3490  -27.1307   -4.7343 C   0  0  2  0  0  0  0  0  0  0  0  0
   17.9092  -28.3613   -5.4049 N   0  0  0  0  0  0  0  0  0  0  0  0
   18.3888  -27.3271   -3.2755 C   0  0  0  0  0  0  0  0  0  0  0  0
   19.3989  -26.8588   -2.4753 O   0  0  0  0  0  0  0  0  0  0  0  0
   17.4567  -27.9570   -2.7220 O   0  0  0  0  0  0  0  0  0  0  0  0
  2  1  1  6
  2  3  1  0
  4  2  1  0
  4  5  1  6
  6  4  1  0
  7  6  2  0
  8  6  1  0
  9  8  1  0
  9 10  1  1
 11 10  1  0
 12 22  1  0
 12  9  1  0
 13 12  2  0
 14 15  1  0
 15 16  2  0
 17 18  1  0
 17 15  1  0
 19 18  1  0
 20 19  1  0
 21 20  1  1
 21 22  1  0
 23 21  1  0
 24 23  1  0
 25 23  2  0
M  END
$$$$
