VCR.pdb
     RDKit          3D

 25 24  0  0  1  0  0  0  0  0999 V2000
   22.5222  -18.5694  -16.6602 C   0  0  0  0  0  0  0  0  0  0  0  0
   23.6941  -18.8244  -15.6999 C   0  0  2  0  0  0  0  0  0  0  0  0
   24.9147  -18.9399  -16.5464 C   0  0  0  0  0  0  0  0  0  0  0  0
   23.3212  -20.0932  -14.9599 C   0  0  2  0  0  0  0  0  0  0  0  0
   23.3084  -21.1257  -16.0164 N   0  0  0  0  0  0  0  0  0  0  0  0
   21.9690  -20.0687  -14.3774 C   0  0  0  0  0  0  0  0  0  0  0  0
   21.7318  -19.3166  -13.4009 O   0  0  0  0  0  0  0  0  0  0  0  0
   20.8562  -20.8429  -14.8308 N   0  0  0  0  0  0  0  0  0  0  0  0
   19.5635  -20.7818  -14.1855 C   0  0  1  0  0  0  0  0  0  0  0  0
   18.5104  -20.5607  -15.2989 C   0  0  0  0  0  0  0  0  0  0  0  0
   16.8715  -20.5045  -14.4974 S   0  0  0  0  0  0  0  0  0  0  0  0
   19.2179  -21.9507  -13.3750 C   0  0  0  0  0  0  0  0  0  0  0  0
   19.4893  -23.1223  -13.8172 O   0  0  0  0  0  0  0  0  0  0  0  0
   16.6239  -24.7738   -6.4850 N   0  0  0  0  0  0  0  0  0  0  0  0
   17.6186  -25.7677   -6.4844 C   0  0  0  0  0  0  0  0  0  0  0  0
   17.3621  -26.9208   -5.9659 N   0  0  0  0  0  0  0  0  0  0  0  0
   18.8894  -25.4686   -7.0604 N   0  0  0  0  0  0  0  0  0  0  0  0
   19.1017  -24.1991   -7.7157 C   0  0  0  0  0  0  0  0  0  0  0  0
   18.6243  -24.2920   -9.1492 C   0  0  0  0  0  0  0  0  0  0  0  0
   18.8536  -23.0356   -9.9374 C   0  0  0  0  0  0  0  0  0  0  0  0
   18.3356  -23.1525  -11.3191 C   0  0  2  0  0  0  0  0  0  0  0  0
   18.5922  -21.9365  -12.1021 N   0  0  0  0  0  0  0  0  0  0  0  0
   16.8991  -23.4759  -11.3289 C   0  0  0  0  0  0  0  0  0  0  0  0
   16.3970  -24.7053  -10.9877 O   0  0  0  0  0  0  0  0  0  0  0  0
   16.0795  -22.5898  -11.6680 O   0  0  0  0  0  0  0  0  0  0  0  0
  2  1  1  6
  2  3  1  0
  4  2  1  0
  4  5  1  6
  6  4  1  0
  7  6  2  0
  8  6  1  0
  9  8  1  0
  9 10  1  6
 11 10  1  0
 12 22  1  0
 12  9  1  0
 13 12  2  0
 14 15  1  0
 15 16  2  0
 17 18  1  0
 17 15  1  0
 19 18  1  0
 20 19  1  0
 21 20  1  1
 21 22  1  0
 23 21  1  0
 24 23  1  0
 25 23  2  0
M  END
$$$$
