VCR.pdb
     RDKit          3D

 25 24  0  0  1  0  0  0  0  0999 V2000
   39.9243   -8.5420  -13.1821 C   0  0  0  0  0  0  0  0  0  0  0  0
   39.8171   -7.0094  -13.1981 C   0  0  2  0  0  0  0  0  0  0  0  0
   40.4448   -6.5302  -11.9348 C   0  0  0  0  0  0  0  0  0  0  0  0
   38.3329   -6.7247  -13.3087 C   0  0  2  0  0  0  0  0  0  0  0  0
   37.7865   -7.2006  -12.0213 N   0  0  0  0  0  0  0  0  0  0  0  0
   37.6547   -7.4944  -14.3652 C   0  0  0  0  0  0  0  0  0  0  0  0
   38.0251   -7.3639  -15.5574 O   0  0  0  0  0  0  0  0  0  0  0  0
   36.5777   -8.4120  -14.1618 N   0  0  0  0  0  0  0  0  0  0  0  0
   35.8619   -9.0136  -15.2649 C   0  0  1  0  0  0  0  0  0  0  0  0
   35.7122  -10.5203  -14.9411 C   0  0  0  0  0  0  0  0  0  0  0  0
   35.7511  -10.6953  -13.1247 S   0  0  0  0  0  0  0  0  0  0  0  0
   34.5571   -8.4179  -15.5574 C   0  0  0  0  0  0  0  0  0  0  0  0
   33.7214   -8.2396  -14.6025 O   0  0  0  0  0  0  0  0  0  0  0  0
   30.5829   -3.4916  -21.9315 N   0  0  0  0  0  0  0  0  0  0  0  0
   29.6311   -3.6810  -20.9140 C   0  0  0  0  0  0  0  0  0  0  0  0
   28.4713   -3.1261  -21.0197 N   0  0  0  0  0  0  0  0  0  0  0  0
   29.9792   -4.4858  -19.7883 N   0  0  0  0  0  0  0  0  0  0  0  0
   31.2903   -5.0868  -19.7112 C   0  0  0  0  0  0  0  0  0  0  0  0
   31.3845   -5.9176  -18.4493 C   0  0  0  0  0  0  0  0  0  0  0  0
   32.7371   -6.5331  -18.2394 C   0  0  0  0  0  0  0  0  0  0  0  0
   32.7640   -7.4035  -17.0424 C   0  0  2  0  0  0  0  0  0  0  0  0
   34.0911   -7.9958  -16.8289 N   0  0  0  0  0  0  0  0  0  0  0  0
   31.7383   -8.4570  -17.1208 C   0  0  0  0  0  0  0  0  0  0  0  0
   30.4597   -8.3062  -16.6490 O   0  0  0  0  0  0  0  0  0  0  0  0
   32.0367   -9.5575  -17.6422 O   0  0  0  0  0  0  0  0  0  0  0  0
  2  1  1  1
  2  3  1  0
  4  2  1  0
  4  5  1  1
  6  4  1  0
  7  6  2  0
  8  6  1  0
  9  8  1  0
  9 10  1  1
 11 10  1  0
 12 22  1  0
 12  9  1  0
 13 12  2  0
 14 15  1  0
 15 16  2  0
 17 18  1  0
 17 15  1  0
 19 18  1  0
 20 19  1  0
 21 20  1  6
 21 22  1  0
 23 21  1  0
 24 23  1  0
 25 23  2  0
M  END
$$$$
