WEC.pdb
     RDKit          3D

 30 31  0  0  1  0  0  0  0  0999 V2000
    6.5784  -17.7385   24.9154 N   0  0  0  0  0  0  0  0  0  0  0  0
    7.6197  -17.0256   24.2266 C   0  0  1  0  0  0  0  0  0  0  0  0
    8.2570  -16.0593   25.2019 C   0  0  0  0  0  0  0  0  0  0  0  0
    7.2229  -15.0475   25.6209 C   0  0  0  0  0  0  0  0  0  0  0  0
    5.9332  -15.3260   26.0029 C   0  0  0  0  0  0  0  0  0  0  0  0
    5.3046  -14.1765   26.3048 N   0  0  0  0  0  0  0  0  0  0  0  0
    6.1716  -13.1478   26.1237 C   0  0  0  0  0  0  0  0  0  0  0  0
    6.0306  -11.7908   26.2911 C   0  0  0  0  0  0  0  0  0  0  0  0
    7.0946  -10.9788   26.0290 C   0  0  0  0  0  0  0  0  0  0  0  0
    8.3027  -11.4884   25.6018 C   0  0  0  0  0  0  0  0  0  0  0  0
    8.4491  -12.8486   25.4324 C   0  0  0  0  0  0  0  0  0  0  0  0
    7.3759  -13.6772   25.6959 C   0  0  0  0  0  0  0  0  0  0  0  0
    8.6998  -17.9850   23.8251 C   0  0  0  0  0  0  0  0  0  0  0  0
    9.0586  -18.8830   24.6046 O   0  0  0  0  0  0  0  0  0  0  0  0
    9.3237  -17.8832   22.5602 N   0  0  0  0  0  0  0  0  0  0  0  0
   10.7023  -17.6932   22.2776 C   0  0  1  0  0  0  0  0  0  0  0  0
   11.0063  -16.8588   21.0450 C   0  0  0  0  0  0  0  0  0  0  0  0
   12.4929  -16.8019   20.8612 C   0  0  0  0  0  0  0  0  0  0  0  0
   12.8678  -16.6993   19.4181 C   0  0  0  0  0  0  0  0  0  0  0  0
   12.9584  -15.6246   18.7836 O   0  0  0  0  0  0  0  0  0  0  0  0
   11.5835  -17.4441   23.4164 C   0  0  0  0  0  0  0  0  0  0  0  0
   12.4328  -16.5416   23.3476 O   0  0  0  0  0  0  0  0  0  0  0  0
   13.1301  -17.8833   18.7501 O   0  0  0  0  0  0  0  0  0  0  0  0
   11.4545  -18.2394   24.5857 N   0  0  0  0  0  0  0  0  0  0  0  0
   12.4383  -18.2341   25.6506 C   0  0  1  0  0  0  0  0  0  0  0  0
   11.8002  -18.3530   27.0224 C   0  0  0  0  0  0  0  0  0  0  0  0
   10.4120  -17.1863   27.0794 S   0  0  0  0  0  0  0  0  0  0  0  0
   13.4590  -19.2785   25.4633 C   0  0  0  0  0  0  0  0  0  0  0  0
   13.2994  -20.1007   24.5274 O   0  0  0  0  0  0  0  0  0  0  0  0
   14.5715  -19.3730   26.2814 O   0  0  0  0  0  0  0  0  0  0  0  0
  2  1  1  1
  2  3  1  0
  2 13  1  0
  3  4  1  0
  4 12  1  0
  4  5  2  0
  5  6  1  0
  7  6  1  0
  7  8  2  0
  9  8  1  0
 10  9  2  0
 11 12  2  0
 11 10  1  0
 12  7  1  0
 13 14  2  0
 15 13  1  0
 15 16  1  0
 16 21  1  0
 16 17  1  6
 18 17  1  0
 19 20  2  0
 19 18  1  0
 21 22  2  0
 23 19  1  0
 24 25  1  0
 24 21  1  0
 25 28  1  0
 26 27  1  0
 25 26  1  1
 28 29  2  0
 28 30  1  0
M  END
$$$$
