WEC.pdb
     RDKit          3D

 30 31  0  0  1  0  0  0  0  0999 V2000
    6.0884  -17.2754   23.2669 N   0  0  0  0  0  0  0  0  0  0  0  0
    7.2658  -16.4975   22.9922 C   0  0  1  0  0  0  0  0  0  0  0  0
    7.9430  -16.1825   24.3088 C   0  0  0  0  0  0  0  0  0  0  0  0
    7.0852  -15.2048   25.0685 C   0  0  0  0  0  0  0  0  0  0  0  0
    5.9870  -15.5209   25.8306 C   0  0  0  0  0  0  0  0  0  0  0  0
    5.4750  -14.3939   26.3553 N   0  0  0  0  0  0  0  0  0  0  0  0
    6.2285  -13.3426   25.9433 C   0  0  0  0  0  0  0  0  0  0  0  0
    6.1337  -11.9943   26.1927 C   0  0  0  0  0  0  0  0  0  0  0  0
    7.0505  -11.1531   25.6340 C   0  0  0  0  0  0  0  0  0  0  0  0
    8.0653  -11.6250   24.8283 C   0  0  0  0  0  0  0  0  0  0  0  0
    8.1645  -12.9765   24.5752 C   0  0  0  0  0  0  0  0  0  0  0  0
    7.2397  -13.8344   25.1375 C   0  0  0  0  0  0  0  0  0  0  0  0
    8.2405  -17.3266   22.2106 C   0  0  0  0  0  0  0  0  0  0  0  0
    7.8606  -17.9620   21.2133 O   0  0  0  0  0  0  0  0  0  0  0  0
    9.5996  -17.3979   22.5942 N   0  0  0  0  0  0  0  0  0  0  0  0
   10.7491  -17.2620   21.7714 C   0  0  1  0  0  0  0  0  0  0  0  0
   10.6147  -16.2790   20.6209 C   0  0  0  0  0  0  0  0  0  0  0  0
    9.7509  -16.8967   19.5630 C   0  0  0  0  0  0  0  0  0  0  0  0
   10.3390  -16.7254   18.1997 C   0  0  0  0  0  0  0  0  0  0  0  0
    9.7076  -16.3109   17.2021 O   0  0  0  0  0  0  0  0  0  0  0  0
   12.0463  -17.2417   22.4439 C   0  0  0  0  0  0  0  0  0  0  0  0
   13.0739  -17.0157   21.7855 O   0  0  0  0  0  0  0  0  0  0  0  0
   11.6755  -17.0520   18.0451 O   0  0  0  0  0  0  0  0  0  0  0  0
   12.1113  -17.4813   23.8420 N   0  0  0  0  0  0  0  0  0  0  0  0
   13.3470  -17.8116   24.5248 C   0  0  1  0  0  0  0  0  0  0  0  0
   13.3992  -17.2361   25.9279 C   0  0  0  0  0  0  0  0  0  0  0  0
   11.7636  -17.4760   26.6755 S   0  0  0  0  0  0  0  0  0  0  0  0
   13.5904  -19.2634   24.5523 C   0  0  0  0  0  0  0  0  0  0  0  0
   12.6737  -20.0247   24.1556 O   0  0  0  0  0  0  0  0  0  0  0  0
   14.7864  -19.7990   24.9981 O   0  0  0  0  0  0  0  0  0  0  0  0
  2  1  1  1
  2  3  1  0
  2 13  1  0
  3  4  1  0
  4 12  1  0
  4  5  2  0
  5  6  1  0
  7  6  1  0
  7  8  2  0
  9  8  1  0
 10  9  2  0
 11 12  2  0
 11 10  1  0
 12  7  1  0
 13 14  2  0
 15 13  1  0
 15 16  1  0
 16 21  1  0
 16 17  1  1
 18 17  1  0
 19 20  2  0
 19 18  1  0
 21 22  2  0
 23 19  1  0
 24 25  1  0
 24 21  1  0
 25 28  1  0
 26 27  1  0
 25 26  1  1
 28 29  2  0
 28 30  1  0
M  END
$$$$
