WEC.pdb
     RDKit          3D

 30 31  0  0  1  0  0  0  0  0999 V2000
    7.0804  -17.2933   24.1490 N   0  0  0  0  0  0  0  0  0  0  0  0
    8.1305  -16.3114   24.1445 C   0  0  1  0  0  0  0  0  0  0  0  0
    8.2667  -15.7574   25.5466 C   0  0  0  0  0  0  0  0  0  0  0  0
    7.0942  -14.8528   25.8218 C   0  0  0  0  0  0  0  0  0  0  0  0
    5.8529  -15.2530   26.2529 C   0  0  0  0  0  0  0  0  0  0  0  0
    5.0636  -14.1731   26.3882 N   0  0  0  0  0  0  0  0  0  0  0  0
    5.7775  -13.0692   26.0494 C   0  0  0  0  0  0  0  0  0  0  0  0
    5.4428  -11.7365   26.0166 C   0  0  0  0  0  0  0  0  0  0  0  0
    6.3834  -10.8286   25.6278 C   0  0  0  0  0  0  0  0  0  0  0  0
    7.6567  -11.2181   25.2688 C   0  0  0  0  0  0  0  0  0  0  0  0
    7.9971  -12.5535   25.3001 C   0  0  0  0  0  0  0  0  0  0  0  0
    7.0498  -13.4787   25.6929 C   0  0  0  0  0  0  0  0  0  0  0  0
    9.4363  -16.9788   23.8319 C   0  0  0  0  0  0  0  0  0  0  0  0
    9.6861  -18.1066   24.2884 O   0  0  0  0  0  0  0  0  0  0  0  0
   10.3986  -16.3387   23.0171 N   0  0  0  0  0  0  0  0  0  0  0  0
   11.8035  -16.5445   22.9967 C   0  0  1  0  0  0  0  0  0  0  0  0
   12.5558  -15.8003   21.9067 C   0  0  0  0  0  0  0  0  0  0  0  0
   13.9956  -16.2149   21.9513 C   0  0  0  0  0  0  0  0  0  0  0  0
   14.7981  -15.5408   20.8858 C   0  0  0  0  0  0  0  0  0  0  0  0
   15.2524  -14.3779   20.9691 O   0  0  0  0  0  0  0  0  0  0  0  0
   12.4852  -16.5885   24.2886 C   0  0  0  0  0  0  0  0  0  0  0  0
   13.6788  -16.9251   24.3400 O   0  0  0  0  0  0  0  0  0  0  0  0
   15.0478  -16.2652   19.7327 O   0  0  0  0  0  0  0  0  0  0  0  0
   11.7708  -16.2450   25.4667 N   0  0  0  0  0  0  0  0  0  0  0  0
   12.3824  -16.2377   26.7811 C   0  0  1  0  0  0  0  0  0  0  0  0
   12.1624  -14.9246   27.5094 C   0  0  0  0  0  0  0  0  0  0  0  0
   10.4063  -14.8382   27.9565 S   0  0  0  0  0  0  0  0  0  0  0  0
   11.9283  -17.3689   27.6068 C   0  0  0  0  0  0  0  0  0  0  0  0
   10.9931  -18.0835   27.1684 O   0  0  0  0  0  0  0  0  0  0  0  0
   12.4990  -17.6577   28.8343 O   0  0  0  0  0  0  0  0  0  0  0  0
  2  1  1  1
  2  3  1  0
  2 13  1  0
  3  4  1  0
  4 12  1  0
  4  5  2  0
  5  6  1  0
  7  6  1  0
  7  8  2  0
  9  8  1  0
 10  9  2  0
 11 12  2  0
 11 10  1  0
 12  7  1  0
 13 14  2  0
 15 13  1  0
 15 16  1  0
 16 21  1  0
 16 17  1  6
 18 17  1  0
 19 20  2  0
 19 18  1  0
 21 22  2  0
 23 19  1  0
 24 25  1  0
 24 21  1  0
 25 28  1  0
 26 27  1  0
 25 26  1  1
 28 29  2  0
 28 30  1  0
M  END
$$$$
