WEC.pdb
     RDKit          3D

 30 31  0  0  1  0  0  0  0  0999 V2000
    9.7483  -17.4460   19.8685 N   0  0  0  0  0  0  0  0  0  0  0  0
   10.5837  -16.3317   20.2257 C   0  0  1  0  0  0  0  0  0  0  0  0
   10.0835  -15.7664   21.5378 C   0  0  0  0  0  0  0  0  0  0  0  0
    8.7413  -15.1243   21.3037 C   0  0  0  0  0  0  0  0  0  0  0  0
    7.5403  -15.5646   21.8044 C   0  0  0  0  0  0  0  0  0  0  0  0
    6.5606  -14.7445   21.3859 N   0  0  0  0  0  0  0  0  0  0  0  0
    7.1098  -13.7709   20.6156 C   0  0  0  0  0  0  0  0  0  0  0  0
    6.5526  -12.7016   19.9557 C   0  0  0  0  0  0  0  0  0  0  0  0
    7.3646  -11.8691   19.2431 C   0  0  0  0  0  0  0  0  0  0  0  0
    8.7259  -12.0770   19.1713 C   0  0  0  0  0  0  0  0  0  0  0  0
    9.2895  -13.1480   19.8313 C   0  0  0  0  0  0  0  0  0  0  0  0
    8.4734  -13.9954   20.5550 C   0  0  0  0  0  0  0  0  0  0  0  0
   11.9783  -16.8170   20.4862 C   0  0  0  0  0  0  0  0  0  0  0  0
   12.1646  -17.8946   21.0752 O   0  0  0  0  0  0  0  0  0  0  0  0
   13.0971  -16.0602   20.0679 N   0  0  0  0  0  0  0  0  0  0  0  0
   14.4369  -16.1513   20.5297 C   0  0  1  0  0  0  0  0  0  0  0  0
   15.4827  -15.5226   19.6247 C   0  0  0  0  0  0  0  0  0  0  0  0
   14.7926  -14.5986   18.6671 C   0  0  0  0  0  0  0  0  0  0  0  0
   15.7628  -13.9312   17.7468 C   0  0  0  0  0  0  0  0  0  0  0  0
   16.9947  -14.1501   17.7352 O   0  0  0  0  0  0  0  0  0  0  0  0
   14.6605  -15.9425   21.9586 C   0  0  0  0  0  0  0  0  0  0  0  0
   14.1685  -14.9489   22.5166 O   0  0  0  0  0  0  0  0  0  0  0  0
   15.2486  -13.0095   16.8508 O   0  0  0  0  0  0  0  0  0  0  0  0
   15.4381  -16.8806   22.6878 N   0  0  0  0  0  0  0  0  0  0  0  0
   15.6626  -16.7719   24.1160 C   0  0  1  0  0  0  0  0  0  0  0  0
   14.3787  -16.9177   24.9118 C   0  0  0  0  0  0  0  0  0  0  0  0
   13.6518  -18.5234   24.4820 S   0  0  0  0  0  0  0  0  0  0  0  0
   16.6756  -17.7299   24.5892 C   0  0  0  0  0  0  0  0  0  0  0  0
   17.0244  -18.6537   23.8131 O   0  0  0  0  0  0  0  0  0  0  0  0
   17.2422  -17.6370   25.8486 O   0  0  0  0  0  0  0  0  0  0  0  0
  2  1  1  1
  2  3  1  0
  2 13  1  0
  3  4  1  0
  4 12  1  0
  4  5  2  0
  5  6  1  0
  7  6  1  0
  7  8  2  0
  9  8  1  0
 10  9  2  0
 11 12  2  0
 11 10  1  0
 12  7  1  0
 13 14  2  0
 15 13  1  0
 15 16  1  0
 16 21  1  0
 16 17  1  6
 18 17  1  0
 19 20  2  0
 19 18  1  0
 21 22  2  0
 23 19  1  0
 24 25  1  0
 24 21  1  0
 25 28  1  0
 26 27  1  0
 25 26  1  1
 28 29  2  0
 28 30  1  0
M  END
$$$$
