WEC.pdb
     RDKit          3D

 30 31  0  0  1  0  0  0  0  0999 V2000
    6.4512  -17.4238   24.1245 N   0  0  0  0  0  0  0  0  0  0  0  0
    7.7276  -16.7665   24.0481 C   0  0  1  0  0  0  0  0  0  0  0  0
    8.0800  -16.2549   25.4284 C   0  0  0  0  0  0  0  0  0  0  0  0
    7.1045  -15.1698   25.8022 C   0  0  0  0  0  0  0  0  0  0  0  0
    5.8471  -15.3620   26.3208 C   0  0  0  0  0  0  0  0  0  0  0  0
    5.2681  -14.1665   26.5284 N   0  0  0  0  0  0  0  0  0  0  0  0
    6.1356  -13.1932   26.1502 C   0  0  0  0  0  0  0  0  0  0  0  0
    6.0348  -11.8225   26.1588 C   0  0  0  0  0  0  0  0  0  0  0  0
    7.0875  -11.0798   25.7111 C   0  0  0  0  0  0  0  0  0  0  0  0
    8.2450  -11.6727   25.2525 C   0  0  0  0  0  0  0  0  0  0  0  0
    8.3510  -13.0471   25.2418 C   0  0  0  0  0  0  0  0  0  0  0  0
    7.2889  -13.8057   25.6936 C   0  0  0  0  0  0  0  0  0  0  0  0
    8.7846  -17.7690   23.6931 C   0  0  0  0  0  0  0  0  0  0  0  0
    8.7387  -18.9177   24.1635 O   0  0  0  0  0  0  0  0  0  0  0  0
    9.8443  -17.4247   22.8225 N   0  0  0  0  0  0  0  0  0  0  0  0
   11.2103  -17.8018   22.9154 C   0  0  1  0  0  0  0  0  0  0  0  0
   12.0683  -17.4453   21.7135 C   0  0  0  0  0  0  0  0  0  0  0  0
   11.4979  -16.2196   21.0660 C   0  0  0  0  0  0  0  0  0  0  0  0
   12.3175  -15.7805   19.8958 C   0  0  0  0  0  0  0  0  0  0  0  0
   13.3962  -15.1522   19.9816 O   0  0  0  0  0  0  0  0  0  0  0  0
   11.8628  -17.6131   24.2093 C   0  0  0  0  0  0  0  0  0  0  0  0
   12.6332  -16.6537   24.3725 O   0  0  0  0  0  0  0  0  0  0  0  0
   11.8376  -16.0976   18.6365 O   0  0  0  0  0  0  0  0  0  0  0  0
   11.6051  -18.5314   25.2613 N   0  0  0  0  0  0  0  0  0  0  0  0
   12.3062  -18.4882   26.5296 C   0  0  1  0  0  0  0  0  0  0  0  0
   11.6376  -17.5568   27.5238 C   0  0  0  0  0  0  0  0  0  0  0  0
    9.8809  -18.0049   27.5926 S   0  0  0  0  0  0  0  0  0  0  0  0
   12.4756  -19.8299   27.1118 C   0  0  0  0  0  0  0  0  0  0  0  0
   11.9214  -20.7989   26.5361 O   0  0  0  0  0  0  0  0  0  0  0  0
   13.2190  -20.0437   28.2596 O   0  0  0  0  0  0  0  0  0  0  0  0
  2  1  1  1
  2  3  1  0
  2 13  1  0
  3  4  1  0
  4 12  1  0
  4  5  2  0
  5  6  1  0
  7  6  1  0
  7  8  2  0
  9  8  1  0
 10  9  2  0
 11 12  2  0
 11 10  1  0
 12  7  1  0
 13 14  2  0
 15 13  1  0
 15 16  1  0
 16 21  1  0
 16 17  1  6
 18 17  1  0
 19 20  2  0
 19 18  1  0
 21 22  2  0
 23 19  1  0
 24 25  1  0
 24 21  1  0
 25 28  1  0
 26 27  1  0
 25 26  1  1
 28 29  2  0
 28 30  1  0
M  END
$$$$
