WEC.pdb
     RDKit          3D

 30 31  0  0  1  0  0  0  0  0999 V2000
    6.6063  -17.2276   23.5356 N   0  0  0  0  0  0  0  0  0  0  0  0
    7.8359  -16.4826   23.5417 C   0  0  1  0  0  0  0  0  0  0  0  0
    8.1577  -16.1116   24.9735 C   0  0  0  0  0  0  0  0  0  0  0  0
    7.1796  -15.0605   25.4289 C   0  0  0  0  0  0  0  0  0  0  0  0
    5.9687  -15.2960   26.0331 C   0  0  0  0  0  0  0  0  0  0  0  0
    5.3709  -14.1208   26.2959 N   0  0  0  0  0  0  0  0  0  0  0  0
    6.1800  -13.1179   25.8691 C   0  0  0  0  0  0  0  0  0  0  0  0
    6.0395  -11.7510   25.9017 C   0  0  0  0  0  0  0  0  0  0  0  0
    7.0353  -10.9721   25.3896 C   0  0  0  0  0  0  0  0  0  0  0  0
    8.1741  -11.5249   24.8427 C   0  0  0  0  0  0  0  0  0  0  0  0
    8.3197  -12.8953   24.8077 C   0  0  0  0  0  0  0  0  0  0  0  0
    7.3154  -13.6904   25.3243 C   0  0  0  0  0  0  0  0  0  0  0  0
    8.9562  -17.3649   23.0784 C   0  0  0  0  0  0  0  0  0  0  0  0
    9.0430  -18.5328   23.4922 O   0  0  0  0  0  0  0  0  0  0  0  0
    9.9260  -16.8844   22.1684 N   0  0  0  0  0  0  0  0  0  0  0  0
   11.3295  -17.0999   22.1912 C   0  0  1  0  0  0  0  0  0  0  0  0
   12.1080  -16.4453   21.0628 C   0  0  0  0  0  0  0  0  0  0  0  0
   11.5647  -16.9414   19.7568 C   0  0  0  0  0  0  0  0  0  0  0  0
   12.5873  -16.8684   18.6693 C   0  0  0  0  0  0  0  0  0  0  0  0
   13.1178  -17.8634   18.1269 O   0  0  0  0  0  0  0  0  0  0  0  0
   11.9861  -17.0497   23.4958 C   0  0  0  0  0  0  0  0  0  0  0  0
   12.3701  -15.9589   23.9465 O   0  0  0  0  0  0  0  0  0  0  0  0
   12.9638  -15.6061   18.2430 O   0  0  0  0  0  0  0  0  0  0  0  0
   12.1748  -18.2512   24.2287 N   0  0  0  0  0  0  0  0  0  0  0  0
   12.8138  -18.2845   25.5297 C   0  0  1  0  0  0  0  0  0  0  0  0
   12.1734  -17.3178   26.5086 C   0  0  0  0  0  0  0  0  0  0  0  0
   10.5442  -17.9857   26.9455 S   0  0  0  0  0  0  0  0  0  0  0  0
   12.8469  -19.6443   26.0930 C   0  0  0  0  0  0  0  0  0  0  0  0
   12.1457  -20.5296   25.5434 O   0  0  0  0  0  0  0  0  0  0  0  0
   13.6201  -19.9636   27.1958 O   0  0  0  0  0  0  0  0  0  0  0  0
  2  1  1  1
  2  3  1  0
  2 13  1  0
  3  4  1  0
  4 12  1  0
  4  5  2  0
  5  6  1  0
  7  6  1  0
  7  8  2  0
  9  8  1  0
 10  9  2  0
 11 12  2  0
 11 10  1  0
 12  7  1  0
 13 14  2  0
 15 13  1  0
 15 16  1  0
 16 21  1  0
 16 17  1  6
 18 17  1  0
 19 20  2  0
 19 18  1  0
 21 22  2  0
 23 19  1  0
 24 25  1  0
 24 21  1  0
 25 28  1  0
 26 27  1  0
 25 26  1  1
 28 29  2  0
 28 30  1  0
M  END
$$$$
