WEC.pdb
     RDKit          3D

 30 31  0  0  1  0  0  0  0  0999 V2000
    6.7296  -17.3228   25.0523 N   0  0  0  0  0  0  0  0  0  0  0  0
    7.7638  -16.4674   24.5369 C   0  0  1  0  0  0  0  0  0  0  0  0
    8.1539  -15.4885   25.6236 C   0  0  0  0  0  0  0  0  0  0  0  0
    7.0008  -14.5489   25.8604 C   0  0  0  0  0  0  0  0  0  0  0  0
    5.7326  -14.9119   26.2435 C   0  0  0  0  0  0  0  0  0  0  0  0
    4.9727  -13.8085   26.3556 N   0  0  0  0  0  0  0  0  0  0  0  0
    5.7325  -12.7260   26.0492 C   0  0  0  0  0  0  0  0  0  0  0  0
    5.4408  -11.3834   26.0112 C   0  0  0  0  0  0  0  0  0  0  0  0
    6.4228  -10.5036   25.6620 C   0  0  0  0  0  0  0  0  0  0  0  0
    7.6957  -10.9312   25.3480 C   0  0  0  0  0  0  0  0  0  0  0  0
    7.9932  -12.2768   25.3846 C   0  0  0  0  0  0  0  0  0  0  0  0
    7.0038  -13.1736   25.7373 C   0  0  0  0  0  0  0  0  0  0  0  0
    8.9894  -17.2826   24.2514 C   0  0  0  0  0  0  0  0  0  0  0  0
    9.2336  -18.2988   24.9226 O   0  0  0  0  0  0  0  0  0  0  0  0
    9.8815  -16.9098   23.2195 N   0  0  0  0  0  0  0  0  0  0  0  0
   11.2832  -17.1284   23.1537 C   0  0  1  0  0  0  0  0  0  0  0  0
   11.9281  -16.8248   21.8122 C   0  0  0  0  0  0  0  0  0  0  0  0
   13.3732  -17.2177   21.8769 C   0  0  0  0  0  0  0  0  0  0  0  0
   14.0516  -17.0486   20.5559 C   0  0  0  0  0  0  0  0  0  0  0  0
   14.4162  -17.9926   19.8201 O   0  0  0  0  0  0  0  0  0  0  0  0
   12.0716  -16.7246   24.3159 C   0  0  0  0  0  0  0  0  0  0  0  0
   12.5184  -15.5685   24.3811 O   0  0  0  0  0  0  0  0  0  0  0  0
   14.2865  -15.7523   20.1302 O   0  0  0  0  0  0  0  0  0  0  0  0
   12.3148  -17.6623   25.3542 N   0  0  0  0  0  0  0  0  0  0  0  0
   12.3053  -17.2988   26.7577 C   0  0  1  0  0  0  0  0  0  0  0  0
   11.0133  -16.6146   27.1647 C   0  0  0  0  0  0  0  0  0  0  0  0
   11.4557  -15.0407   27.9511 S   0  0  0  0  0  0  0  0  0  0  0  0
   12.5742  -18.4552   27.6285 C   0  0  0  0  0  0  0  0  0  0  0  0
   11.9808  -19.5338   27.3798 O   0  0  0  0  0  0  0  0  0  0  0  0
   13.4513  -18.3815   28.6967 O   0  0  0  0  0  0  0  0  0  0  0  0
  2  1  1  1
  2  3  1  0
  2 13  1  0
  3  4  1  0
  4 12  1  0
  4  5  2  0
  5  6  1  0
  7  6  1  0
  7  8  2  0
  9  8  1  0
 10  9  2  0
 11 12  2  0
 11 10  1  0
 12  7  1  0
 13 14  2  0
 15 13  1  0
 15 16  1  0
 16 21  1  0
 16 17  1  6
 18 17  1  0
 19 20  2  0
 19 18  1  0
 21 22  2  0
 23 19  1  0
 24 25  1  0
 24 21  1  0
 25 28  1  0
 26 27  1  0
 25 26  1  1
 28 29  2  0
 28 30  1  0
M  END
$$$$
