WEC.pdb
     RDKit          3D

 30 31  0  0  1  0  0  0  0  0999 V2000
    6.4366  -17.9345   24.7463 N   0  0  0  0  0  0  0  0  0  0  0  0
    7.5279  -17.1521   24.2327 C   0  0  1  0  0  0  0  0  0  0  0  0
    8.1431  -16.3848   25.3834 C   0  0  0  0  0  0  0  0  0  0  0  0
    7.2447  -15.2243   25.7221 C   0  0  0  0  0  0  0  0  0  0  0  0
    6.1789  -15.2579   26.5879 C   0  0  0  0  0  0  0  0  0  0  0  0
    5.6132  -14.0392   26.6387 N   0  0  0  0  0  0  0  0  0  0  0  0
    6.2997  -13.2081   25.8135 C   0  0  0  0  0  0  0  0  0  0  0  0
    6.1336  -11.8783   25.5081 C   0  0  0  0  0  0  0  0  0  0  0  0
    6.9923  -11.2908   24.6262 C   0  0  0  0  0  0  0  0  0  0  0  0
    8.0184  -11.9998   24.0378 C   0  0  0  0  0  0  0  0  0  0  0  0
    8.1890  -13.3337   24.3409 C   0  0  0  0  0  0  0  0  0  0  0  0
    7.3232  -13.9354   25.2331 C   0  0  0  0  0  0  0  0  0  0  0  0
    8.6004  -18.0668   23.7214 C   0  0  0  0  0  0  0  0  0  0  0  0
    8.8059  -19.1591   24.2759 O   0  0  0  0  0  0  0  0  0  0  0  0
    9.3903  -17.7026   22.6066 N   0  0  0  0  0  0  0  0  0  0  0  0
   10.7950  -17.8386   22.4480 C   0  0  1  0  0  0  0  0  0  0  0  0
   11.3885  -17.1185   21.2493 C   0  0  0  0  0  0  0  0  0  0  0  0
   12.8520  -17.4351   21.1782 C   0  0  0  0  0  0  0  0  0  0  0  0
   13.4245  -17.1041   19.8378 C   0  0  0  0  0  0  0  0  0  0  0  0
   13.5791  -15.9421   19.4002 O   0  0  0  0  0  0  0  0  0  0  0  0
   11.6073  -17.7775   23.6612 C   0  0  0  0  0  0  0  0  0  0  0  0
   11.8099  -16.6818   24.2079 O   0  0  0  0  0  0  0  0  0  0  0  0
   13.8056  -18.1666   19.0362 O   0  0  0  0  0  0  0  0  0  0  0  0
   12.1531  -18.9741   24.1966 N   0  0  0  0  0  0  0  0  0  0  0  0
   12.6029  -19.0852   25.5704 C   0  0  1  0  0  0  0  0  0  0  0  0
   11.4950  -18.7855   26.5633 C   0  0  0  0  0  0  0  0  0  0  0  0
   12.2497  -18.6990   28.2107 S   0  0  0  0  0  0  0  0  0  0  0  0
   13.2046  -20.3997   25.8489 C   0  0  0  0  0  0  0  0  0  0  0  0
   12.9331  -21.3506   25.0746 O   0  0  0  0  0  0  0  0  0  0  0  0
   14.0483  -20.6077   26.9263 O   0  0  0  0  0  0  0  0  0  0  0  0
  2  1  1  1
  2  3  1  0
  2 13  1  0
  3  4  1  0
  4 12  1  0
  4  5  2  0
  5  6  1  0
  7  6  1  0
  7  8  2  0
  9  8  1  0
 10  9  2  0
 11 12  2  0
 11 10  1  0
 12  7  1  0
 13 14  2  0
 15 13  1  0
 15 16  1  0
 16 21  1  0
 16 17  1  6
 18 17  1  0
 19 20  2  0
 19 18  1  0
 21 22  2  0
 23 19  1  0
 24 25  1  0
 24 21  1  0
 25 28  1  0
 26 27  1  0
 25 26  1  1
 28 29  2  0
 28 30  1  0
M  END
$$$$
