WEC.pdb
     RDKit          3D

 30 31  0  0  1  0  0  0  0  0999 V2000
    6.8887  -17.4034   24.2146 N   0  0  0  0  0  0  0  0  0  0  0  0
    7.7786  -16.3541   23.7974 C   0  0  1  0  0  0  0  0  0  0  0  0
    8.3029  -15.6580   25.0350 C   0  0  0  0  0  0  0  0  0  0  0  0
    7.1800  -14.8675   25.6538 C   0  0  0  0  0  0  0  0  0  0  0  0
    5.9983  -15.3836   26.1271 C   0  0  0  0  0  0  0  0  0  0  0  0
    5.2396  -14.3819   26.6053 N   0  0  0  0  0  0  0  0  0  0  0  0
    5.9144  -13.2144   26.4491 C   0  0  0  0  0  0  0  0  0  0  0  0
    5.5881  -11.9181   26.7687 C   0  0  0  0  0  0  0  0  0  0  0  0
    6.4803  -10.9246   26.4911 C   0  0  0  0  0  0  0  0  0  0  0  0
    7.6968  -11.1925   25.8993 C   0  0  0  0  0  0  0  0  0  0  0  0
    8.0287  -12.4910   25.5769 C   0  0  0  0  0  0  0  0  0  0  0  0
    7.1301  -13.5024   25.8551 C   0  0  0  0  0  0  0  0  0  0  0  0
    8.9739  -16.9538   23.1191 C   0  0  0  0  0  0  0  0  0  0  0  0
    9.1954  -18.1728   23.2072 O   0  0  0  0  0  0  0  0  0  0  0  0
    9.8627  -16.1459   22.3729 N   0  0  0  0  0  0  0  0  0  0  0  0
   11.1791  -16.4606   21.9428 C   0  0  1  0  0  0  0  0  0  0  0  0
   11.6785  -15.6737   20.7432 C   0  0  0  0  0  0  0  0  0  0  0  0
   12.9906  -16.2514   20.3055 C   0  0  0  0  0  0  0  0  0  0  0  0
   13.5127  -15.5719   19.0808 C   0  0  0  0  0  0  0  0  0  0  0  0
   14.3731  -14.6635   19.0863 O   0  0  0  0  0  0  0  0  0  0  0  0
   12.1793  -16.6879   22.9837 C   0  0  0  0  0  0  0  0  0  0  0  0
   13.3459  -16.3031   22.8065 O   0  0  0  0  0  0  0  0  0  0  0  0
   12.9995  -15.9867   17.8637 O   0  0  0  0  0  0  0  0  0  0  0  0
   11.8006  -17.3464   24.1835 N   0  0  0  0  0  0  0  0  0  0  0  0
   12.7413  -17.6432   25.2460 C   0  0  1  0  0  0  0  0  0  0  0  0
   12.3549  -16.9818   26.5561 C   0  0  0  0  0  0  0  0  0  0  0  0
   10.6243  -17.4101   26.8920 S   0  0  0  0  0  0  0  0  0  0  0  0
   12.9231  -19.0922   25.4326 C   0  0  0  0  0  0  0  0  0  0  0  0
   12.1631  -19.8697   24.8038 O   0  0  0  0  0  0  0  0  0  0  0  0
   13.8961  -19.6082   26.2711 O   0  0  0  0  0  0  0  0  0  0  0  0
  2  1  1  1
  2  3  1  0
  2 13  1  0
  3  4  1  0
  4 12  1  0
  4  5  2  0
  5  6  1  0
  7  6  1  0
  7  8  2  0
  9  8  1  0
 10  9  2  0
 11 12  2  0
 11 10  1  0
 12  7  1  0
 13 14  2  0
 15 13  1  0
 15 16  1  0
 16 21  1  0
 16 17  1  6
 18 17  1  0
 19 20  2  0
 19 18  1  0
 21 22  2  0
 23 19  1  0
 24 25  1  0
 24 21  1  0
 25 28  1  0
 26 27  1  0
 25 26  1  1
 28 29  2  0
 28 30  1  0
M  END
$$$$
