WEC.pdb
     RDKit          3D

 30 31  0  0  1  0  0  0  0  0999 V2000
   10.0617  -14.9084   22.7262 N   0  0  0  0  0  0  0  0  0  0  0  0
    9.4307  -15.5157   23.8663 C   0  0  1  0  0  0  0  0  0  0  0  0
    7.9747  -15.7563   23.5294 C   0  0  0  0  0  0  0  0  0  0  0  0
    7.2367  -14.4468   23.6252 C   0  0  0  0  0  0  0  0  0  0  0  0
    6.4903  -13.8690   22.6273 C   0  0  0  0  0  0  0  0  0  0  0  0
    5.9826  -12.7065   23.0729 N   0  0  0  0  0  0  0  0  0  0  0  0
    6.3902  -12.5183   24.3540 C   0  0  0  0  0  0  0  0  0  0  0  0
    6.1526  -11.5045   25.2512 C   0  0  0  0  0  0  0  0  0  0  0  0
    6.7025  -11.5823   26.4969 C   0  0  0  0  0  0  0  0  0  0  0  0
    7.4878  -12.6517   26.8729 C   0  0  0  0  0  0  0  0  0  0  0  0
    7.7291  -13.6709   25.9767 C   0  0  0  0  0  0  0  0  0  0  0  0
    7.1755  -13.5989   24.7133 C   0  0  0  0  0  0  0  0  0  0  0  0
   10.0313  -16.8683   24.1073 C   0  0  0  0  0  0  0  0  0  0  0  0
   10.8961  -17.3140   23.3351 O   0  0  0  0  0  0  0  0  0  0  0  0
    9.6251  -17.6535   25.2110 N   0  0  0  0  0  0  0  0  0  0  0  0
   10.4026  -18.5733   25.9634 C   0  0  1  0  0  0  0  0  0  0  0  0
    9.8184  -18.9745   27.3072 C   0  0  0  0  0  0  0  0  0  0  0  0
    8.6583  -19.8934   27.0687 C   0  0  0  0  0  0  0  0  0  0  0  0
    7.9903  -20.2834   28.3475 C   0  0  0  0  0  0  0  0  0  0  0  0
    8.3194  -19.8589   29.4776 O   0  0  0  0  0  0  0  0  0  0  0  0
   11.0394  -19.6615   25.2247 C   0  0  0  0  0  0  0  0  0  0  0  0
   10.3727  -20.3235   24.4137 O   0  0  0  0  0  0  0  0  0  0  0  0
    6.9363  -21.1769   28.2601 O   0  0  0  0  0  0  0  0  0  0  0  0
   12.4130  -19.9453   25.4464 N   0  0  0  0  0  0  0  0  0  0  0  0
   13.2495  -20.5953   24.4566 C   0  0  1  0  0  0  0  0  0  0  0  0
   13.2985  -19.8241   23.1506 C   0  0  0  0  0  0  0  0  0  0  0  0
   14.3771  -20.7421   22.0170 S   0  0  0  0  0  0  0  0  0  0  0  0
   14.6101  -20.8432   24.9618 C   0  0  0  0  0  0  0  0  0  0  0  0
   15.3214  -21.6838   24.3578 O   0  0  0  0  0  0  0  0  0  0  0  0
   15.1142  -20.1820   26.0684 O   0  0  0  0  0  0  0  0  0  0  0  0
  2  1  1  6
  2  3  1  0
  2 13  1  0
  3  4  1  0
  4 12  1  0
  4  5  2  0
  5  6  1  0
  7  6  1  0
  7  8  2  0
  9  8  1  0
 10  9  2  0
 11 12  2  0
 11 10  1  0
 12  7  1  0
 13 14  2  0
 15 13  1  0
 15 16  1  0
 16 21  1  0
 16 17  1  1
 18 17  1  0
 19 20  2  0
 19 18  1  0
 21 22  2  0
 23 19  1  0
 24 25  1  0
 24 21  1  0
 25 28  1  0
 26 27  1  0
 25 26  1  6
 28 29  2  0
 28 30  1  0
M  END
$$$$
