ISY.pdb
     RDKit          3D

 27 27  0  0  1  0  0  0  0  0999 V2000
   23.1452  -13.7040  -20.4420 C   0  0  0  0  0  0  0  0  0  0  0  0
   23.6032  -12.5657  -19.5947 C   0  0  0  0  0  0  0  0  0  0  0  0
   22.7676  -11.3357  -19.6383 C   0  0  2  0  0  0  0  0  0  0  0  0
   22.5084  -10.8523  -21.0516 C   0  0  0  0  0  0  0  0  0  0  0  0
   23.2572  -10.2145  -18.7881 C   0  0  2  0  0  0  0  0  0  0  0  0
   23.4349  -10.6052  -17.4246 N   0  0  0  0  0  0  0  0  0  0  0  0
   22.3913   -9.0142  -18.8532 C   0  0  0  0  0  0  0  0  0  0  0  0
   22.1078   -8.4793  -19.9816 O   0  0  0  0  0  0  0  0  0  0  0  0
   19.0870   -6.4177  -16.5037 O   0  0  0  0  0  0  0  0  0  0  0  0
   19.9387   -7.4919  -16.6397 C   0  0  0  0  0  0  0  0  0  0  0  0
   21.0100   -7.2519  -17.7057 C   0  0  2  0  0  0  0  0  0  0  0  0
   21.8695   -8.4427  -17.6908 N   0  0  0  0  0  0  0  0  0  0  0  0
   21.8794   -6.0970  -17.2970 C   0  0  0  0  0  0  0  0  0  0  0  0
   22.7426   -6.2150  -16.3855 O   0  0  0  0  0  0  0  0  0  0  0  0
   27.9477   -6.5676  -19.5696 O   0  0  0  0  0  0  0  0  0  0  0  0
   26.8292   -5.7742  -19.3569 C   0  0  0  0  0  0  0  0  0  0  0  0
   25.5742   -6.1168  -19.8131 C   0  0  0  0  0  0  0  0  0  0  0  0
   24.4605   -5.3080  -19.5907 C   0  0  0  0  0  0  0  0  0  0  0  0
   24.5815   -4.1219  -18.8970 C   0  0  0  0  0  0  0  0  0  0  0  0
   23.4608   -3.2366  -18.6415 C   0  0  0  0  0  0  0  0  0  0  0  0
   22.6257   -3.7071  -17.4964 C   0  0  2  0  0  0  0  0  0  0  0  0
   21.7646   -4.8281  -17.9195 N   0  0  0  0  0  0  0  0  0  0  0  0
   21.7416   -2.6435  -17.0177 C   0  0  0  0  0  0  0  0  0  0  0  0
   20.5002   -2.7729  -17.0717 O   0  0  0  0  0  0  0  0  0  0  0  0
   25.8603   -3.7856  -18.4392 C   0  0  0  0  0  0  0  0  0  0  0  0
   26.9596   -4.5905  -18.6623 C   0  0  0  0  0  0  0  0  0  0  0  0
   22.2593   -1.4788  -16.4952 O   0  0  0  0  0  0  0  0  0  0  0  0
  1  2  1  0
  2  3  1  0
  3  4  1  6
  5  3  1  0
  5  6  1  1
  7  5  1  0
  8  7  2  0
  9 10  1  0
 11 10  1  1
 11 12  1  0
 12  7  1  0
 13 22  1  0
 13 11  1  0
 14 13  2  0
 16 15  1  0
 17 16  2  0
 18 17  1  0
 19 25  1  0
 19 18  2  0
 21 20  1  6
 20 19  1  0
 21 22  1  0
 23 21  1  0
 24 23  2  0
 25 26  2  0
 26 16  1  0
 27 23  1  0
M  END
$$$$
