ISY.pdb
     RDKit          3D

 27 27  0  0  1  0  0  0  0  0999 V2000
   28.3915  -12.5953  -15.8165 C   0  0  0  0  0  0  0  0  0  0  0  0
   26.9743  -12.5051  -16.2714 C   0  0  0  0  0  0  0  0  0  0  0  0
   26.4411  -11.1342  -16.4941 C   0  0  2  0  0  0  0  0  0  0  0  0
   26.4673  -10.2835  -15.2396 C   0  0  0  0  0  0  0  0  0  0  0  0
   25.0946  -11.0806  -17.1293 C   0  0  2  0  0  0  0  0  0  0  0  0
   25.0202  -11.8810  -18.3114 N   0  0  0  0  0  0  0  0  0  0  0  0
   24.6496   -9.7008  -17.4336 C   0  0  0  0  0  0  0  0  0  0  0  0
   25.0596   -9.1051  -18.4905 O   0  0  0  0  0  0  0  0  0  0  0  0
   21.4054   -8.5499  -18.0091 O   0  0  0  0  0  0  0  0  0  0  0  0
   22.4976   -7.7185  -18.1249 C   0  0  0  0  0  0  0  0  0  0  0  0
   23.3166   -7.6528  -16.8339 C   0  0  2  0  0  0  0  0  0  0  0  0
   23.7787   -9.0231  -16.5778 N   0  0  0  0  0  0  0  0  0  0  0  0
   22.4203   -7.2865  -15.6854 C   0  0  0  0  0  0  0  0  0  0  0  0
   21.7800   -8.1644  -15.0459 O   0  0  0  0  0  0  0  0  0  0  0  0
   18.1233   -3.7079   -9.0402 O   0  0  0  0  0  0  0  0  0  0  0  0
   19.0339   -4.1738   -9.9780 C   0  0  0  0  0  0  0  0  0  0  0  0
   19.4555   -5.4857  -10.0205 C   0  0  0  0  0  0  0  0  0  0  0  0
   20.3713   -5.9375  -10.9696 C   0  0  0  0  0  0  0  0  0  0  0  0
   20.8924   -5.0730  -11.9098 C   0  0  0  0  0  0  0  0  0  0  0  0
   21.8531   -5.4837  -12.9163 C   0  0  0  0  0  0  0  0  0  0  0  0
   21.2358   -5.5809  -14.2725 C   0  0  2  0  0  0  0  0  0  0  0  0
   22.2583   -5.9391  -15.2742 N   0  0  0  0  0  0  0  0  0  0  0  0
   20.6631   -4.2981  -14.6834 C   0  0  0  0  0  0  0  0  0  0  0  0
   21.3814   -3.4133  -15.1951 O   0  0  0  0  0  0  0  0  0  0  0  0
   20.4566   -3.7443  -11.8561 C   0  0  0  0  0  0  0  0  0  0  0  0
   19.5491   -3.3025  -10.9139 C   0  0  0  0  0  0  0  0  0  0  0  0
   19.3202   -4.0405  -14.5170 O   0  0  0  0  0  0  0  0  0  0  0  0
  1  2  1  0
  2  3  1  0
  3  4  1  1
  5  3  1  0
  5  6  1  6
  7  5  1  0
  8  7  2  0
  9 10  1  0
 11 10  1  6
 11 12  1  0
 12  7  1  0
 13 22  1  0
 13 11  1  0
 14 13  2  0
 16 15  1  0
 17 16  2  0
 18 17  1  0
 19 25  1  0
 19 18  2  0
 21 20  1  1
 20 19  1  0
 21 22  1  0
 23 21  1  0
 24 23  2  0
 25 26  2  0
 26 16  1  0
 27 23  1  0
M  END
$$$$
