ISY.pdb
     RDKit          3D

 27 27  0  0  1  0  0  0  0  0999 V2000
   18.8286  -12.5365  -20.1510 C   0  0  0  0  0  0  0  0  0  0  0  0
   18.8453  -11.3233  -21.0177 C   0  0  0  0  0  0  0  0  0  0  0  0
   19.7084  -10.2009  -20.5611 C   0  0  2  0  0  0  0  0  0  0  0  0
   19.3349   -9.6974  -19.1808 C   0  0  0  0  0  0  0  0  0  0  0  0
   19.8154   -9.0631  -21.5170 C   0  0  2  0  0  0  0  0  0  0  0  0
   20.2682   -9.4795  -22.8073 N   0  0  0  0  0  0  0  0  0  0  0  0
   20.6744   -7.9638  -21.0188 C   0  0  0  0  0  0  0  0  0  0  0  0
   21.8931   -7.8689  -21.4003 O   0  0  0  0  0  0  0  0  0  0  0  0
   20.9748   -3.4802  -19.7721 O   0  0  0  0  0  0  0  0  0  0  0  0
   20.3781   -4.6291  -20.2428 C   0  0  0  0  0  0  0  0  0  0  0  0
   20.9818   -5.8920  -19.6246 C   0  0  2  0  0  0  0  0  0  0  0  0
   20.1760   -7.0129  -20.1258 N   0  0  0  0  0  0  0  0  0  0  0  0
   20.7908   -5.8660  -18.1348 C   0  0  0  0  0  0  0  0  0  0  0  0
   19.6830   -6.1599  -17.6094 O   0  0  0  0  0  0  0  0  0  0  0  0
   22.4259  -11.7475  -15.7024 O   0  0  0  0  0  0  0  0  0  0  0  0
   22.4750  -10.3726  -15.5206 C   0  0  0  0  0  0  0  0  0  0  0  0
   21.7364   -9.7211  -14.5559 C   0  0  0  0  0  0  0  0  0  0  0  0
   21.7973   -8.3386  -14.3866 C   0  0  0  0  0  0  0  0  0  0  0  0
   22.6107   -7.5678  -15.1911 C   0  0  0  0  0  0  0  0  0  0  0  0
   22.7097   -6.1257  -15.0665 C   0  0  0  0  0  0  0  0  0  0  0  0
   21.6178   -5.4239  -15.8048 C   0  0  2  0  0  0  0  0  0  0  0  0
   21.8482   -5.5100  -17.2596 N   0  0  0  0  0  0  0  0  0  0  0  0
   21.5785   -4.0020  -15.4596 C   0  0  0  0  0  0  0  0  0  0  0  0
   21.8276   -3.1298  -16.3186 O   0  0  0  0  0  0  0  0  0  0  0  0
   23.3552   -8.2409  -16.1661 C   0  0  0  0  0  0  0  0  0  0  0  0
   23.2909   -9.6104  -16.3292 C   0  0  0  0  0  0  0  0  0  0  0  0
   21.2634   -3.5957  -14.1817 O   0  0  0  0  0  0  0  0  0  0  0  0
  1  2  1  0
  2  3  1  0
  3  4  1  1
  5  3  1  0
  5  6  1  6
  7  5  1  0
  8  7  2  0
  9 10  1  0
 11 10  1  6
 11 12  1  0
 12  7  1  0
 13 22  1  0
 13 11  1  0
 14 13  2  0
 16 15  1  0
 17 16  2  0
 18 17  1  0
 19 25  1  0
 19 18  2  0
 21 20  1  1
 20 19  1  0
 21 22  1  0
 23 21  1  0
 24 23  2  0
 25 26  2  0
 26 16  1  0
 27 23  1  0
M  END
$$$$
