ISY.pdb
     RDKit          3D

 27 27  0  0  1  0  0  0  0  0999 V2000
   27.2729  -17.9483  -20.2048 C   0  0  0  0  0  0  0  0  0  0  0  0
   27.5065  -17.3944  -18.8402 C   0  0  0  0  0  0  0  0  0  0  0  0
   26.2937  -16.9999  -18.0742 C   0  0  2  0  0  0  0  0  0  0  0  0
   25.4325  -15.9960  -18.8151 C   0  0  0  0  0  0  0  0  0  0  0  0
   26.5545  -16.5333  -16.6836 C   0  0  2  0  0  0  0  0  0  0  0  0
   27.2707  -17.5006  -15.9123 N   0  0  0  0  0  0  0  0  0  0  0  0
   25.3229  -16.1350  -15.9632 C   0  0  0  0  0  0  0  0  0  0  0  0
   24.5632  -17.0219  -15.4375 O   0  0  0  0  0  0  0  0  0  0  0  0
   22.8145  -12.2509  -14.3788 O   0  0  0  0  0  0  0  0  0  0  0  0
   23.9426  -12.8360  -14.9103 C   0  0  0  0  0  0  0  0  0  0  0  0
   23.7783  -14.3453  -15.1021 C   0  0  2  0  0  0  0  0  0  0  0  0
   24.9652  -14.7905  -15.8436 N   0  0  0  0  0  0  0  0  0  0  0  0
   22.5977  -14.6159  -15.9907 C   0  0  0  0  0  0  0  0  0  0  0  0
   22.6704  -14.4729  -17.2413 O   0  0  0  0  0  0  0  0  0  0  0  0
   18.7100  -18.3888  -10.9097 O   0  0  0  0  0  0  0  0  0  0  0  0
   18.9874  -18.0092  -12.2153 C   0  0  0  0  0  0  0  0  0  0  0  0
   18.0491  -17.4205  -13.0362 C   0  0  0  0  0  0  0  0  0  0  0  0
   18.3443  -17.0450  -14.3459 C   0  0  0  0  0  0  0  0  0  0  0  0
   19.6033  -17.2541  -14.8695 C   0  0  0  0  0  0  0  0  0  0  0  0
   19.9665  -16.8912  -16.2264 C   0  0  0  0  0  0  0  0  0  0  0  0
   20.2506  -15.4311  -16.3582 C   0  0  2  0  0  0  0  0  0  0  0  0
   21.3543  -15.0427  -15.4592 N   0  0  0  0  0  0  0  0  0  0  0  0
   19.0852  -14.6316  -15.9775 C   0  0  0  0  0  0  0  0  0  0  0  0
   17.9995  -14.7581  -16.5824 O   0  0  0  0  0  0  0  0  0  0  0  0
   20.5466  -17.8521  -14.0264 C   0  0  0  0  0  0  0  0  0  0  0  0
   20.2486  -18.2218  -12.7299 C   0  0  0  0  0  0  0  0  0  0  0  0
   19.1600  -13.7253  -14.9429 O   0  0  0  0  0  0  0  0  0  0  0  0
  1  2  1  0
  2  3  1  0
  3  4  1  6
  5  3  1  0
  5  6  1  1
  7  5  1  0
  8  7  2  0
  9 10  1  0
 11 10  1  6
 11 12  1  0
 12  7  1  0
 13 22  1  0
 13 11  1  0
 14 13  2  0
 16 15  1  0
 17 16  2  0
 18 17  1  0
 19 25  1  0
 19 18  2  0
 21 20  1  1
 20 19  1  0
 21 22  1  0
 23 21  1  0
 24 23  2  0
 25 26  2  0
 26 16  1  0
 27 23  1  0
M  END
$$$$
