ISY.pdb
     RDKit          3D

 27 27  0  0  1  0  0  0  0  0999 V2000
   24.3142  -15.1556  -15.2211 C   0  0  0  0  0  0  0  0  0  0  0  0
   23.1233  -14.7490  -16.0210 C   0  0  0  0  0  0  0  0  0  0  0  0
   22.9453  -13.2882  -16.2393 C   0  0  2  0  0  0  0  0  0  0  0  0
   22.9040  -12.5022  -14.9437 C   0  0  0  0  0  0  0  0  0  0  0  0
   21.7913  -12.9198  -17.1066 C   0  0  2  0  0  0  0  0  0  0  0  0
   21.7925  -13.6357  -18.3439 N   0  0  0  0  0  0  0  0  0  0  0  0
   21.7053  -11.4651  -17.3731 C   0  0  0  0  0  0  0  0  0  0  0  0
   22.6006  -10.8807  -18.0779 O   0  0  0  0  0  0  0  0  0  0  0  0
   18.1838   -9.5419  -16.5662 O   0  0  0  0  0  0  0  0  0  0  0  0
   19.0620   -9.0273  -17.4944 C   0  0  0  0  0  0  0  0  0  0  0  0
   20.5229   -9.2607  -17.1031 C   0  0  2  0  0  0  0  0  0  0  0  0
   20.6517  -10.7038  -16.8628 N   0  0  0  0  0  0  0  0  0  0  0  0
   20.8086   -8.5858  -15.7918 C   0  0  0  0  0  0  0  0  0  0  0  0
   20.5276   -9.1383  -14.6938 O   0  0  0  0  0  0  0  0  0  0  0  0
   26.4841   -5.3570  -18.5165 O   0  0  0  0  0  0  0  0  0  0  0  0
   25.6774   -5.6982  -17.4403 C   0  0  0  0  0  0  0  0  0  0  0  0
   25.1527   -4.7619  -16.5750 C   0  0  0  0  0  0  0  0  0  0  0  0
   24.3437   -5.1218  -15.4982 C   0  0  0  0  0  0  0  0  0  0  0  0
   24.0384   -6.4460  -15.2611 C   0  0  0  0  0  0  0  0  0  0  0  0
   23.2085   -6.8808  -14.1534 C   0  0  0  0  0  0  0  0  0  0  0  0
   21.7542   -6.6944  -14.4368 C   0  0  2  0  0  0  0  0  0  0  0  0
   21.4055   -7.3008  -15.7359 N   0  0  0  0  0  0  0  0  0  0  0  0
   21.4122   -5.2737  -14.5205 C   0  0  0  0  0  0  0  0  0  0  0  0
   21.6162   -4.5101  -13.5530 O   0  0  0  0  0  0  0  0  0  0  0  0
   24.5767   -7.3865  -16.1464 C   0  0  0  0  0  0  0  0  0  0  0  0
   25.3774   -7.0242  -17.2113 C   0  0  0  0  0  0  0  0  0  0  0  0
   20.8609   -4.7482  -15.6683 O   0  0  0  0  0  0  0  0  0  0  0  0
  1  2  1  0
  2  3  1  0
  3  4  1  1
  5  3  1  0
  5  6  1  6
  7  5  1  0
  8  7  2  0
  9 10  1  0
 11 10  1  1
 11 12  1  0
 12  7  1  0
 13 22  1  0
 13 11  1  0
 14 13  2  0
 16 15  1  0
 17 16  2  0
 18 17  1  0
 19 25  1  0
 19 18  2  0
 21 20  1  6
 20 19  1  0
 21 22  1  0
 23 21  1  0
 24 23  2  0
 25 26  2  0
 26 16  1  0
 27 23  1  0
M  END
$$$$
