ISY.pdb
     RDKit          3D

 27 27  0  0  1  0  0  0  0  0999 V2000
   24.9709    0.2604    3.7147 C   0  0  0  0  0  0  0  0  0  0  0  0
   26.0207    0.2185    4.7729 C   0  0  0  0  0  0  0  0  0  0  0  0
   26.4438   -1.1337    5.2263 C   0  0  2  0  0  0  0  0  0  0  0  0
   25.2760   -2.0022    5.6509 C   0  0  0  0  0  0  0  0  0  0  0  0
   27.5034   -1.1410    6.2736 C   0  0  2  0  0  0  0  0  0  0  0  0
   28.6316   -0.3423    5.9092 N   0  0  0  0  0  0  0  0  0  0  0  0
   27.9547   -2.5049    6.6348 C   0  0  0  0  0  0  0  0  0  0  0  0
   29.1901   -2.8271    6.5349 O   0  0  0  0  0  0  0  0  0  0  0  0
   27.4252   -4.2765    9.9188 O   0  0  0  0  0  0  0  0  0  0  0  0
   28.2473   -4.5568    8.8496 C   0  0  0  0  0  0  0  0  0  0  0  0
   27.4604   -4.7925    7.5585 C   0  0  2  0  0  0  0  0  0  0  0  0
   27.0468   -3.4639    7.0885 N   0  0  0  0  0  0  0  0  0  0  0  0
   26.1973   -5.5448    7.8670 C   0  0  0  0  0  0  0  0  0  0  0  0
   25.1447   -4.9454    8.2172 O   0  0  0  0  0  0  0  0  0  0  0  0
   19.9053  -11.6767    8.2181 O   0  0  0  0  0  0  0  0  0  0  0  0
   21.0344  -10.9211    7.9354 C   0  0  0  0  0  0  0  0  0  0  0  0
   20.9743   -9.5816    7.6150 C   0  0  0  0  0  0  0  0  0  0  0  0
   22.1188   -8.8368    7.3335 C   0  0  0  0  0  0  0  0  0  0  0  0
   23.3657   -9.4258    7.3670 C   0  0  0  0  0  0  0  0  0  0  0  0
   24.5901   -8.7038    7.0765 C   0  0  0  0  0  0  0  0  0  0  0  0
   24.8953   -7.6779    8.1178 C   0  0  2  0  0  0  0  0  0  0  0  0
   26.1377   -6.9587    7.7770 N   0  0  0  0  0  0  0  0  0  0  0  0
   25.1050   -8.3012    9.4254 C   0  0  0  0  0  0  0  0  0  0  0  0
   24.1826   -8.3445   10.2669 O   0  0  0  0  0  0  0  0  0  0  0  0
   23.4133  -10.7857    7.6936 C   0  0  0  0  0  0  0  0  0  0  0  0
   22.2765  -11.5183    7.9715 C   0  0  0  0  0  0  0  0  0  0  0  0
   26.3223   -8.8554    9.7547 O   0  0  0  0  0  0  0  0  0  0  0  0
  1  2  1  0
  2  3  1  0
  3  4  1  1
  5  3  1  0
  5  6  1  6
  7  5  1  0
  8  7  2  0
  9 10  1  0
 11 10  1  1
 11 12  1  0
 12  7  1  0
 13 22  1  0
 13 11  1  0
 14 13  2  0
 16 15  1  0
 17 16  2  0
 18 17  1  0
 19 25  1  0
 19 18  2  0
 21 20  1  6
 20 19  1  0
 21 22  1  0
 23 21  1  0
 24 23  2  0
 25 26  2  0
 26 16  1  0
 27 23  1  0
M  END
$$$$
