ISY.pdb
     RDKit          3D

 27 27  0  0  1  0  0  0  0  0999 V2000
   20.0334  -14.5937  -17.8335 C   0  0  0  0  0  0  0  0  0  0  0  0
   19.4298  -13.3172  -17.3543 C   0  0  0  0  0  0  0  0  0  0  0  0
   20.1535  -12.0698  -17.7194 C   0  0  2  0  0  0  0  0  0  0  0  0
   21.6030  -12.0810  -17.2753 C   0  0  0  0  0  0  0  0  0  0  0  0
   19.4880  -10.8091  -17.2866 C   0  0  2  0  0  0  0  0  0  0  0  0
   18.1782  -10.6690  -17.8417 N   0  0  0  0  0  0  0  0  0  0  0  0
   20.2871   -9.5977  -17.5844 C   0  0  0  0  0  0  0  0  0  0  0  0
   21.4577   -9.4540  -17.0855 O   0  0  0  0  0  0  0  0  0  0  0  0
   18.3599   -6.5975  -19.4873 O   0  0  0  0  0  0  0  0  0  0  0  0
   19.7091   -6.6170  -19.7647 C   0  0  0  0  0  0  0  0  0  0  0  0
   20.5129   -7.3473  -18.6866 C   0  0  2  0  0  0  0  0  0  0  0  0
   19.7826   -8.5912  -18.4104 N   0  0  0  0  0  0  0  0  0  0  0  0
   20.4898   -6.5509  -17.4131 C   0  0  0  0  0  0  0  0  0  0  0  0
   19.4572   -6.4955  -16.6917 O   0  0  0  0  0  0  0  0  0  0  0  0
   19.0583   -9.5529  -11.9795 O   0  0  0  0  0  0  0  0  0  0  0  0
   19.8287   -8.5926  -12.6198 C   0  0  0  0  0  0  0  0  0  0  0  0
   19.4545   -7.2682  -12.7001 C   0  0  0  0  0  0  0  0  0  0  0  0
   20.2404   -6.3158  -13.3473 C   0  0  0  0  0  0  0  0  0  0  0  0
   21.4351   -6.6743  -13.9366 C   0  0  0  0  0  0  0  0  0  0  0  0
   22.2907   -5.7296  -14.6296 C   0  0  0  0  0  0  0  0  0  0  0  0
   21.5706   -5.0279  -15.7337 C   0  0  2  0  0  0  0  0  0  0  0  0
   21.6279   -5.8297  -16.9709 N   0  0  0  0  0  0  0  0  0  0  0  0
   22.1920   -3.7362  -16.0300 C   0  0  0  0  0  0  0  0  0  0  0  0
   22.6740   -3.5040  -17.1589 O   0  0  0  0  0  0  0  0  0  0  0  0
   21.8037   -8.0213  -13.8481 C   0  0  0  0  0  0  0  0  0  0  0  0
   21.0213   -8.9601  -13.2057 C   0  0  0  0  0  0  0  0  0  0  0  0
   22.2562   -2.7489  -15.0716 O   0  0  0  0  0  0  0  0  0  0  0  0
  1  2  1  0
  2  3  1  0
  3  4  1  1
  5  3  1  0
  5  6  1  6
  7  5  1  0
  8  7  2  0
  9 10  1  0
 11 10  1  6
 11 12  1  0
 12  7  1  0
 13 22  1  0
 13 11  1  0
 14 13  2  0
 16 15  1  0
 17 16  2  0
 18 17  1  0
 19 25  1  0
 19 18  2  0
 21 20  1  1
 20 19  1  0
 21 22  1  0
 23 21  1  0
 24 23  2  0
 25 26  2  0
 26 16  1  0
 27 23  1  0
M  END
$$$$
