ISY.pdb
     RDKit          3D

 27 27  0  0  1  0  0  0  0  0999 V2000
   20.6406  -14.0046  -17.0882 C   0  0  0  0  0  0  0  0  0  0  0  0
   19.4863  -13.3019  -17.7185 C   0  0  0  0  0  0  0  0  0  0  0  0
   19.4263  -11.8285  -17.5216 C   0  0  2  0  0  0  0  0  0  0  0  0
   20.7257  -11.1351  -17.8811 C   0  0  0  0  0  0  0  0  0  0  0  0
   18.9620  -11.3942  -16.1743 C   0  0  2  0  0  0  0  0  0  0  0  0
   17.8123  -12.1220  -15.7361 N   0  0  0  0  0  0  0  0  0  0  0  0
   18.6914   -9.9400  -16.0932 C   0  0  0  0  0  0  0  0  0  0  0  0
   18.4394   -9.2670  -17.1531 O   0  0  0  0  0  0  0  0  0  0  0  0
   18.5190   -8.1526  -12.3492 O   0  0  0  0  0  0  0  0  0  0  0  0
   17.8190   -7.6013  -13.3999 C   0  0  0  0  0  0  0  0  0  0  0  0
   18.5175   -7.8240  -14.7431 C   0  0  2  0  0  0  0  0  0  0  0  0
   18.7065   -9.2753  -14.8652 N   0  0  0  0  0  0  0  0  0  0  0  0
   19.8922   -7.2197  -14.7038 C   0  0  0  0  0  0  0  0  0  0  0  0
   20.9265   -7.9407  -14.6918 O   0  0  0  0  0  0  0  0  0  0  0  0
   26.6513   -2.8121  -17.6387 O   0  0  0  0  0  0  0  0  0  0  0  0
   25.5263   -3.5323  -17.2629 C   0  0  0  0  0  0  0  0  0  0  0  0
   25.5743   -4.5731  -16.3601 C   0  0  0  0  0  0  0  0  0  0  0  0
   24.4342   -5.2867  -15.9932 C   0  0  0  0  0  0  0  0  0  0  0  0
   23.2040   -4.9689  -16.5303 C   0  0  0  0  0  0  0  0  0  0  0  0
   21.9853   -5.6799  -16.1923 C   0  0  0  0  0  0  0  0  0  0  0  0
   21.4253   -5.2381  -14.8803 C   0  0  2  0  0  0  0  0  0  0  0  0
   20.0822   -5.8147  -14.6786 N   0  0  0  0  0  0  0  0  0  0  0  0
   21.2791   -3.7825  -14.8338 C   0  0  0  0  0  0  0  0  0  0  0  0
   22.2764   -3.0455  -14.6830 O   0  0  0  0  0  0  0  0  0  0  0  0
   23.1685   -3.9107  -17.4452 C   0  0  0  0  0  0  0  0  0  0  0  0
   24.3010   -3.2074  -17.8047 C   0  0  0  0  0  0  0  0  0  0  0  0
   20.0395   -3.1946  -14.9580 O   0  0  0  0  0  0  0  0  0  0  0  0
  1  2  1  0
  2  3  1  0
  3  4  1  1
  5  3  1  0
  5  6  1  6
  7  5  1  0
  8  7  2  0
  9 10  1  0
 11 10  1  1
 11 12  1  0
 12  7  1  0
 13 22  1  0
 13 11  1  0
 14 13  2  0
 16 15  1  0
 17 16  2  0
 18 17  1  0
 19 25  1  0
 19 18  2  0
 21 20  1  6
 20 19  1  0
 21 22  1  0
 23 21  1  0
 24 23  2  0
 25 26  2  0
 26 16  1  0
 27 23  1  0
M  END
$$$$
