ISY.pdb
     RDKit          3D

 27 27  0  0  1  0  0  0  0  0999 V2000
   29.3518  -17.5610  -20.8722 C   0  0  0  0  0  0  0  0  0  0  0  0
   28.1016  -17.0585  -20.2334 C   0  0  0  0  0  0  0  0  0  0  0  0
   26.8447  -17.7626  -20.6045 C   0  0  2  0  0  0  0  0  0  0  0  0
   26.6304  -17.8295  -22.1038 C   0  0  0  0  0  0  0  0  0  0  0  0
   25.6184  -17.2556  -19.9273 C   0  0  2  0  0  0  0  0  0  0  0  0
   25.4828  -15.8372  -20.0416 N   0  0  0  0  0  0  0  0  0  0  0  0
   25.5359  -17.6503  -18.5018 C   0  0  0  0  0  0  0  0  0  0  0  0
   25.6435  -18.8803  -18.1620 O   0  0  0  0  0  0  0  0  0  0  0  0
   24.4819  -14.7494  -15.7702 O   0  0  0  0  0  0  0  0  0  0  0  0
   25.3211  -15.7388  -15.3071 C   0  0  0  0  0  0  0  0  0  0  0  0
   25.1645  -17.0454  -16.0880 C   0  0  2  0  0  0  0  0  0  0  0  0
   25.3388  -16.6942  -17.5033 N   0  0  0  0  0  0  0  0  0  0  0  0
   23.7573  -17.5522  -15.9476 C   0  0  0  0  0  0  0  0  0  0  0  0
   22.8462  -17.1886  -16.7397 O   0  0  0  0  0  0  0  0  0  0  0  0
   16.3225  -21.7364  -15.4735 O   0  0  0  0  0  0  0  0  0  0  0  0
   17.5924  -21.1945  -15.6119 C   0  0  0  0  0  0  0  0  0  0  0  0
   17.8130  -19.9304  -16.1161 C   0  0  0  0  0  0  0  0  0  0  0  0
   19.0958  -19.4008  -16.2486 C   0  0  0  0  0  0  0  0  0  0  0  0
   20.2012  -20.1362  -15.8740 C   0  0  0  0  0  0  0  0  0  0  0  0
   21.5595  -19.6411  -15.9953 C   0  0  0  0  0  0  0  0  0  0  0  0
   21.9984  -18.9057  -14.7719 C   0  0  2  0  0  0  0  0  0  0  0  0
   23.3970  -18.4594  -14.9190 N   0  0  0  0  0  0  0  0  0  0  0  0
   21.9452  -19.7692  -13.5913 C   0  0  0  0  0  0  0  0  0  0  0  0
   20.8487  -20.1285  -13.1124 O   0  0  0  0  0  0  0  0  0  0  0  0
   19.9640  -21.4174  -15.3637 C   0  0  0  0  0  0  0  0  0  0  0  0
   18.6912  -21.9367  -15.2347 C   0  0  0  0  0  0  0  0  0  0  0  0
   23.1025  -20.2060  -12.9851 O   0  0  0  0  0  0  0  0  0  0  0  0
  1  2  1  0
  2  3  1  0
  3  4  1  6
  5  3  1  0
  5  6  1  1
  7  5  1  0
  8  7  2  0
  9 10  1  0
 11 10  1  1
 11 12  1  0
 12  7  1  0
 13 22  1  0
 13 11  1  0
 14 13  2  0
 16 15  1  0
 17 16  2  0
 18 17  1  0
 19 25  1  0
 19 18  2  0
 21 20  1  6
 20 19  1  0
 21 22  1  0
 23 21  1  0
 24 23  2  0
 25 26  2  0
 26 16  1  0
 27 23  1  0
M  END
$$$$
