SKA.pdb
     RDKit          3D

 21 20  0  0  1  0  0  0  0  0999 V2000
   27.4923  -10.7696  -14.9720 O   0  0  0  0  0  0  0  0  0  0  0  0
   26.5476   -9.8574  -15.4406 C   0  0  0  0  0  0  0  0  0  0  0  0
   25.9892  -10.3897  -16.7577 C   0  0  2  0  0  0  0  0  0  0  0  0
   27.0541  -10.5389  -17.7219 N   0  0  0  0  0  0  0  0  0  0  0  0
   24.8762   -9.5665  -17.2472 C   0  0  0  0  0  0  0  0  0  0  0  0
   25.0027   -8.6301  -18.0753 O   0  0  0  0  0  0  0  0  0  0  0  0
   23.5752   -9.8359  -16.7626 N   0  0  0  0  0  0  0  0  0  0  0  0
   22.3912   -9.1492  -17.2112 C   0  0  1  0  0  0  0  0  0  0  0  0
   21.2028  -10.0161  -16.8787 C   0  0  0  0  0  0  0  0  0  0  0  0
   21.0143  -11.1724  -17.7980 C   0  0  0  0  0  0  0  0  0  0  0  0
   19.8832  -12.0889  -17.4053 C   0  0  0  0  0  0  0  0  0  0  0  0
   19.7526  -13.2785  -18.2896 C   0  0  0  0  0  0  0  0  0  0  0  0
   18.7205  -14.2008  -17.8959 N   0  0  0  0  0  0  0  0  0  0  0  0
   22.2297   -7.8242  -16.5613 C   0  0  0  0  0  0  0  0  0  0  0  0
   22.3627   -7.7164  -15.3151 O   0  0  0  0  0  0  0  0  0  0  0  0
   21.7423   -4.2689  -17.7314 C   0  0  0  0  0  0  0  0  0  0  0  0
   21.7532   -5.3466  -16.6642 C   0  0  2  0  0  0  0  0  0  0  0  0
   21.9255   -6.6321  -17.2753 N   0  0  0  0  0  0  0  0  0  0  0  0
   20.6056   -5.2634  -15.7647 C   0  0  0  0  0  0  0  0  0  0  0  0
   19.5980   -5.9811  -15.9873 O   0  0  0  0  0  0  0  0  0  0  0  0
   20.5587   -4.4260  -14.6603 O   0  0  0  0  0  0  0  0  0  0  0  0
  1  2  1  0
  2  3  1  0
  3  4  1  6
  5  3  1  0
  5  7  1  0
  6  5  2  0
  8  7  1  0
  8 14  1  0
  8  9  1  1
 10  9  1  0
 11 10  1  0
 12 11  1  0
 13 12  1  0
 14 15  2  0
 17 16  1  6
 17 19  1  0
 18 14  1  0
 18 17  1  0
 19 21  1  0
 20 19  2  0
M  END
$$$$
