SKA.pdb
     RDKit          3D

 21 20  0  0  1  0  0  0  0  0999 V2000
   13.8645   -8.4592  -11.8009 O   0  0  0  0  0  0  0  0  0  0  0  0
   15.2046   -8.0938  -11.9221 C   0  0  0  0  0  0  0  0  0  0  0  0
   16.0543   -9.3510  -11.7555 C   0  0  2  0  0  0  0  0  0  0  0  0
   15.8925   -9.8841  -10.4230 N   0  0  0  0  0  0  0  0  0  0  0  0
   17.4569   -9.1094  -12.1161 C   0  0  0  0  0  0  0  0  0  0  0  0
   18.3715   -8.8898  -11.2829 O   0  0  0  0  0  0  0  0  0  0  0  0
   17.8125   -9.1223  -13.4848 N   0  0  0  0  0  0  0  0  0  0  0  0
   19.1523   -8.9133  -13.9702 C   0  0  1  0  0  0  0  0  0  0  0  0
   19.2647   -9.5865  -15.3151 C   0  0  0  0  0  0  0  0  0  0  0  0
   20.6070   -9.4648  -15.9483 C   0  0  0  0  0  0  0  0  0  0  0  0
   20.7038  -10.1109  -17.3074 C   0  0  0  0  0  0  0  0  0  0  0  0
   22.0968  -10.1953  -17.8235 C   0  0  0  0  0  0  0  0  0  0  0  0
   22.2279  -10.9108  -19.0652 N   0  0  0  0  0  0  0  0  0  0  0  0
   19.4798   -7.4723  -14.1134 C   0  0  0  0  0  0  0  0  0  0  0  0
   18.6656   -6.6971  -14.6778 O   0  0  0  0  0  0  0  0  0  0  0  0
   22.0186   -5.1261  -12.6707 C   0  0  0  0  0  0  0  0  0  0  0  0
   21.0085   -5.4976  -13.7394 C   0  0  2  0  0  0  0  0  0  0  0  0
   20.6894   -6.8920  -13.6407 N   0  0  0  0  0  0  0  0  0  0  0  0
   21.4170   -5.0730  -15.0757 C   0  0  0  0  0  0  0  0  0  0  0  0
   21.9243   -5.9150  -15.8591 O   0  0  0  0  0  0  0  0  0  0  0  0
   21.2770   -3.7744  -15.5417 O   0  0  0  0  0  0  0  0  0  0  0  0
  1  2  1  0
  2  3  1  0
  3  4  1  1
  5  3  1  0
  5  7  1  0
  6  5  2  0
  8  7  1  0
  8 14  1  0
  8  9  1  6
 10  9  1  0
 11 10  1  0
 12 11  1  0
 13 12  1  0
 14 15  2  0
 17 16  1  1
 17 19  1  0
 18 14  1  0
 18 17  1  0
 19 21  1  0
 20 19  2  0
M  END
$$$$
