SKA.pdb
     RDKit          3D

 21 20  0  0  1  0  0  0  0  0999 V2000
   18.2978   -8.4119  -11.7796 O   0  0  0  0  0  0  0  0  0  0  0  0
   17.1658   -7.5992  -11.7312 C   0  0  0  0  0  0  0  0  0  0  0  0
   17.4408   -6.4636  -10.7489 C   0  0  2  0  0  0  0  0  0  0  0  0
   17.8354   -7.0024   -9.4683 N   0  0  0  0  0  0  0  0  0  0  0  0
   16.3065   -5.5353  -10.6617 C   0  0  0  0  0  0  0  0  0  0  0  0
   15.7780   -4.9726  -11.6531 O   0  0  0  0  0  0  0  0  0  0  0  0
   15.7668   -5.2490   -9.3863 N   0  0  0  0  0  0  0  0  0  0  0  0
   14.6983   -4.3108   -9.1567 C   0  0  1  0  0  0  0  0  0  0  0  0
   13.8697   -4.8292   -8.0082 C   0  0  0  0  0  0  0  0  0  0  0  0
   12.7058   -3.9689   -7.6581 C   0  0  0  0  0  0  0  0  0  0  0  0
   11.8306   -4.5361   -6.5690 C   0  0  0  0  0  0  0  0  0  0  0  0
   10.7405   -3.6152   -6.1474 C   0  0  0  0  0  0  0  0  0  0  0  0
    9.9178   -4.1183   -5.0792 N   0  0  0  0  0  0  0  0  0  0  0  0
   15.2029   -2.9544   -8.8254 C   0  0  0  0  0  0  0  0  0  0  0  0
   16.1125   -2.8159   -7.9676 O   0  0  0  0  0  0  0  0  0  0  0  0
   14.8420    0.4899  -10.2827 C   0  0  0  0  0  0  0  0  0  0  0  0
   15.2109   -0.4505   -9.1513 C   0  0  2  0  0  0  0  0  0  0  0  0
   14.7116   -1.7650   -9.4314 N   0  0  0  0  0  0  0  0  0  0  0  0
   14.8281    0.0654   -7.8397 C   0  0  0  0  0  0  0  0  0  0  0  0
   13.8120   -0.4042   -7.2680 O   0  0  0  0  0  0  0  0  0  0  0  0
   15.5298    1.0594   -7.1743 O   0  0  0  0  0  0  0  0  0  0  0  0
  1  2  1  0
  2  3  1  0
  3  4  1  1
  5  3  1  0
  5  7  1  0
  6  5  2  0
  8  7  1  0
  8 14  1  0
  8  9  1  1
 10  9  1  0
 11 10  1  0
 12 11  1  0
 13 12  1  0
 14 15  2  0
 17 16  1  6
 17 19  1  0
 18 14  1  0
 18 17  1  0
 19 21  1  0
 20 19  2  0
M  END
$$$$
