SKA.pdb
     RDKit          3D

 21 20  0  0  1  0  0  0  0  0999 V2000
   18.7066  -12.8969  -14.6212 O   0  0  0  0  0  0  0  0  0  0  0  0
   19.3722  -11.7620  -15.0828 C   0  0  0  0  0  0  0  0  0  0  0  0
   18.4890  -11.0895  -16.1307 C   0  0  2  0  0  0  0  0  0  0  0  0
   18.3692  -11.9372  -17.2938 N   0  0  0  0  0  0  0  0  0  0  0  0
   18.9588   -9.7349  -16.4475 C   0  0  0  0  0  0  0  0  0  0  0  0
   19.8116   -9.4732  -17.3323 O   0  0  0  0  0  0  0  0  0  0  0  0
   18.4243   -8.6485  -15.7167 N   0  0  0  0  0  0  0  0  0  0  0  0
   18.7896   -7.2729  -15.9373 C   0  0  1  0  0  0  0  0  0  0  0  0
   17.6019   -6.4175  -15.5739 C   0  0  0  0  0  0  0  0  0  0  0  0
   17.7938   -4.9640  -15.8348 C   0  0  0  0  0  0  0  0  0  0  0  0
   16.5726   -4.1250  -15.5543 C   0  0  0  0  0  0  0  0  0  0  0  0
   16.7876   -2.6716  -15.7898 C   0  0  0  0  0  0  0  0  0  0  0  0
   15.6713   -1.8394  -15.4261 N   0  0  0  0  0  0  0  0  0  0  0  0
   19.9586   -6.8635  -15.1187 C   0  0  0  0  0  0  0  0  0  0  0  0
   19.9670   -7.0882  -13.8810 O   0  0  0  0  0  0  0  0  0  0  0  0
   23.3606   -5.3744  -15.8291 C   0  0  0  0  0  0  0  0  0  0  0  0
   22.2788   -5.8914  -14.9002 C   0  0  2  0  0  0  0  0  0  0  0  0
   21.1044   -6.2146  -15.6566 N   0  0  0  0  0  0  0  0  0  0  0  0
   22.0325   -5.0018  -13.7684 C   0  0  0  0  0  0  0  0  0  0  0  0
   22.7161   -5.1359  -12.7222 O   0  0  0  0  0  0  0  0  0  0  0  0
   21.0734   -4.0003  -13.7775 O   0  0  0  0  0  0  0  0  0  0  0  0
  1  2  1  0
  2  3  1  0
  3  4  1  6
  5  3  1  0
  5  7  1  0
  6  5  2  0
  8  7  1  0
  8 14  1  0
  8  9  1  1
 10  9  1  0
 11 10  1  0
 12 11  1  0
 13 12  1  0
 14 15  2  0
 17 16  1  6
 17 19  1  0
 18 14  1  0
 18 17  1  0
 19 21  1  0
 20 19  2  0
M  END
$$$$
