SKA.pdb
     RDKit          3D

 21 20  0  0  1  0  0  0  0  0999 V2000
   17.4524  -13.3562  -15.9458 O   0  0  0  0  0  0  0  0  0  0  0  0
   18.5827  -12.6701  -15.5032 C   0  0  0  0  0  0  0  0  0  0  0  0
   18.7093  -11.3889  -16.3234 C   0  0  2  0  0  0  0  0  0  0  0  0
   18.7612  -11.7064  -17.7313 N   0  0  0  0  0  0  0  0  0  0  0  0
   19.8393  -10.5663  -15.8734 C   0  0  0  0  0  0  0  0  0  0  0  0
   20.0611  -10.2689  -14.6729 O   0  0  0  0  0  0  0  0  0  0  0  0
   20.7413  -10.0721  -16.8440 N   0  0  0  0  0  0  0  0  0  0  0  0
   21.8899   -9.2597  -16.5354 C   0  0  1  0  0  0  0  0  0  0  0  0
   22.9142   -9.4800  -17.6202 C   0  0  0  0  0  0  0  0  0  0  0  0
   23.5128  -10.8435  -17.6267 C   0  0  0  0  0  0  0  0  0  0  0  0
   24.4797  -11.0824  -18.7589 C   0  0  0  0  0  0  0  0  0  0  0  0
   25.0871  -12.4407  -18.7404 C   0  0  0  0  0  0  0  0  0  0  0  0
   26.0397  -12.6797  -19.7922 N   0  0  0  0  0  0  0  0  0  0  0  0
   21.5539   -7.8154  -16.4632 C   0  0  0  0  0  0  0  0  0  0  0  0
   20.9778   -7.2564  -17.4318 O   0  0  0  0  0  0  0  0  0  0  0  0
   19.9594   -5.5068  -15.1446 C   0  0  0  0  0  0  0  0  0  0  0  0
   21.4700   -5.6187  -15.2209 C   0  0  2  0  0  0  0  0  0  0  0  0
   21.8486   -6.9966  -15.3380 N   0  0  0  0  0  0  0  0  0  0  0  0
   22.1453   -4.9050  -14.1402 C   0  0  0  0  0  0  0  0  0  0  0  0
   22.8164   -5.5560  -13.3001 O   0  0  0  0  0  0  0  0  0  0  0  0
   22.0903   -3.5285  -13.9813 O   0  0  0  0  0  0  0  0  0  0  0  0
  1  2  1  0
  2  3  1  0
  3  4  1  6
  5  3  1  0
  5  7  1  0
  6  5  2  0
  8  7  1  0
  8 14  1  0
  8  9  1  6
 10  9  1  0
 11 10  1  0
 12 11  1  0
 13 12  1  0
 14 15  2  0
 17 16  1  1
 17 19  1  0
 18 14  1  0
 18 17  1  0
 19 21  1  0
 20 19  2  0
M  END
$$$$
