SKA.pdb
     RDKit          3D

 21 20  0  0  1  0  0  0  0  0999 V2000
   19.9998  -13.1007  -16.6795 O   0  0  0  0  0  0  0  0  0  0  0  0
   19.3430  -13.2766  -15.4622 C   0  0  0  0  0  0  0  0  0  0  0  0
   17.8620  -13.5052  -15.7528 C   0  0  2  0  0  0  0  0  0  0  0  0
   17.6997  -14.6425  -16.6280 N   0  0  0  0  0  0  0  0  0  0  0  0
   17.2144  -12.2884  -16.2587 C   0  0  0  0  0  0  0  0  0  0  0  0
   17.0434  -12.0351  -17.4775 O   0  0  0  0  0  0  0  0  0  0  0  0
   16.7498  -11.3342  -15.3240 N   0  0  0  0  0  0  0  0  0  0  0  0
   16.0924  -10.1053  -15.6877 C   0  0  1  0  0  0  0  0  0  0  0  0
   14.8869   -9.9468  -14.7954 C   0  0  0  0  0  0  0  0  0  0  0  0
   13.7245  -10.7926  -15.1838 C   0  0  0  0  0  0  0  0  0  0  0  0
   12.5450  -10.6778  -14.2514 C   0  0  0  0  0  0  0  0  0  0  0  0
   11.3444  -11.4193  -14.7236 C   0  0  0  0  0  0  0  0  0  0  0  0
   10.1777  -11.2475  -13.8988 N   0  0  0  0  0  0  0  0  0  0  0  0
   16.9792   -8.9252  -15.5294 C   0  0  0  0  0  0  0  0  0  0  0  0
   17.6797   -8.8018  -14.4918 O   0  0  0  0  0  0  0  0  0  0  0  0
   18.0434   -6.0177  -17.6872 C   0  0  0  0  0  0  0  0  0  0  0  0
   17.9248   -6.7345  -16.3559 C   0  0  2  0  0  0  0  0  0  0  0  0
   17.0933   -7.8935  -16.5020 N   0  0  0  0  0  0  0  0  0  0  0  0
   17.5226   -5.8458  -15.2690 C   0  0  0  0  0  0  0  0  0  0  0  0
   16.3114   -5.7907  -14.9374 O   0  0  0  0  0  0  0  0  0  0  0  0
   18.4110   -5.0447  -14.5677 O   0  0  0  0  0  0  0  0  0  0  0  0
  1  2  1  0
  2  3  1  0
  3  4  1  6
  5  3  1  0
  5  7  1  0
  6  5  2  0
  8  7  1  0
  8 14  1  0
  8  9  1  1
 10  9  1  0
 11 10  1  0
 12 11  1  0
 13 12  1  0
 14 15  2  0
 17 16  1  6
 17 19  1  0
 18 14  1  0
 18 17  1  0
 19 21  1  0
 20 19  2  0
M  END
$$$$
