SKA.pdb
     RDKit          3D

 21 20  0  0  1  0  0  0  0  0999 V2000
   19.6971   -9.9249  -15.7620 O   0  0  0  0  0  0  0  0  0  0  0  0
   19.3515  -10.6615  -14.6298 C   0  0  0  0  0  0  0  0  0  0  0  0
   18.0858  -11.4530  -14.9489 C   0  0  2  0  0  0  0  0  0  0  0  0
   18.3000  -12.2792  -16.1139 N   0  0  0  0  0  0  0  0  0  0  0  0
   16.9138  -10.5767  -15.0682 C   0  0  0  0  0  0  0  0  0  0  0  0
   16.3959  -10.2365  -16.1613 O   0  0  0  0  0  0  0  0  0  0  0  0
   16.3222  -10.0781  -13.8843 N   0  0  0  0  0  0  0  0  0  0  0  0
   15.1013   -9.3146  -13.8547 C   0  0  1  0  0  0  0  0  0  0  0  0
   14.2904   -9.7891  -12.6750 C   0  0  0  0  0  0  0  0  0  0  0  0
   12.9107   -9.2315  -12.6186 C   0  0  0  0  0  0  0  0  0  0  0  0
   12.0779   -9.7714  -11.4834 C   0  0  0  0  0  0  0  0  0  0  0  0
   10.7006   -9.2096  -11.4420 C   0  0  0  0  0  0  0  0  0  0  0  0
    9.8221   -9.8592  -10.5055 N   0  0  0  0  0  0  0  0  0  0  0  0
   15.3528   -7.8573  -13.7235 C   0  0  0  0  0  0  0  0  0  0  0  0
   16.1458   -7.4344  -12.8433 O   0  0  0  0  0  0  0  0  0  0  0  0
   14.2666   -4.8383  -13.3494 C   0  0  0  0  0  0  0  0  0  0  0  0
   15.0298   -5.4748  -14.4952 C   0  0  2  0  0  0  0  0  0  0  0  0
   14.7383   -6.8775  -14.5516 N   0  0  0  0  0  0  0  0  0  0  0  0
   16.4564   -5.1634  -14.4665 C   0  0  0  0  0  0  0  0  0  0  0  0
   17.2097   -5.8066  -13.6926 O   0  0  0  0  0  0  0  0  0  0  0  0
   17.0414   -4.1840  -15.2549 O   0  0  0  0  0  0  0  0  0  0  0  0
  1  2  1  0
  2  3  1  0
  3  4  1  6
  5  3  1  0
  5  7  1  0
  6  5  2  0
  8  7  1  0
  8 14  1  0
  8  9  1  1
 10  9  1  0
 11 10  1  0
 12 11  1  0
 13 12  1  0
 14 15  2  0
 17 16  1  1
 17 19  1  0
 18 14  1  0
 18 17  1  0
 19 21  1  0
 20 19  2  0
M  END
$$$$
