SKA.pdb
     RDKit          3D

 21 20  0  0  1  0  0  0  0  0999 V2000
   20.3742   -8.1922  -12.6968 O   0  0  0  0  0  0  0  0  0  0  0  0
   19.0087   -7.9650  -12.5299 C   0  0  0  0  0  0  0  0  0  0  0  0
   18.2525   -9.0057  -13.3516 C   0  0  2  0  0  0  0  0  0  0  0  0
   18.6909   -8.9633  -14.7271 N   0  0  0  0  0  0  0  0  0  0  0  0
   16.7988   -8.8626  -13.2027 C   0  0  0  0  0  0  0  0  0  0  0  0
   16.0608   -8.2662  -14.0264 O   0  0  0  0  0  0  0  0  0  0  0  0
   16.1794   -9.4279  -12.0640 N   0  0  0  0  0  0  0  0  0  0  0  0
   14.7703   -9.3299  -11.7824 C   0  0  1  0  0  0  0  0  0  0  0  0
   14.3212  -10.6535  -11.2159 C   0  0  0  0  0  0  0  0  0  0  0  0
   12.8608  -10.7337  -10.9358 C   0  0  0  0  0  0  0  0  0  0  0  0
   12.4271  -12.0374  -10.3145 C   0  0  0  0  0  0  0  0  0  0  0  0
   10.9769  -12.0808   -9.9843 C   0  0  0  0  0  0  0  0  0  0  0  0
   10.5465  -13.3032   -9.3587 N   0  0  0  0  0  0  0  0  0  0  0  0
   14.4651   -8.2505  -10.8098 C   0  0  0  0  0  0  0  0  0  0  0  0
   13.2759   -7.8770  -10.6401 O   0  0  0  0  0  0  0  0  0  0  0  0
   16.0227   -6.7180   -7.8550 C   0  0  0  0  0  0  0  0  0  0  0  0
   15.1848   -6.5319   -9.1055 C   0  0  2  0  0  0  0  0  0  0  0  0
   15.4575   -7.5905  -10.0334 N   0  0  0  0  0  0  0  0  0  0  0  0
   15.3092   -5.1931   -9.6756 C   0  0  0  0  0  0  0  0  0  0  0  0
   15.8391   -5.0544  -10.8069 O   0  0  0  0  0  0  0  0  0  0  0  0
   14.8706   -4.0448   -9.0336 O   0  0  0  0  0  0  0  0  0  0  0  0
  1  2  1  0
  2  3  1  0
  3  4  1  6
  5  3  1  0
  5  7  1  0
  6  5  2  0
  8  7  1  0
  8 14  1  0
  8  9  1  1
 10  9  1  0
 11 10  1  0
 12 11  1  0
 13 12  1  0
 14 15  2  0
 17 16  1  1
 17 19  1  0
 18 14  1  0
 18 17  1  0
 19 21  1  0
 20 19  2  0
M  END
$$$$
