SKA.pdb
     RDKit          3D

 21 20  0  0  1  0  0  0  0  0999 V2000
   13.5607   -9.0000  -12.0248 O   0  0  0  0  0  0  0  0  0  0  0  0
   14.9330   -8.8499  -12.2209 C   0  0  0  0  0  0  0  0  0  0  0  0
   15.2908   -9.4836  -13.5628 C   0  0  2  0  0  0  0  0  0  0  0  0
   15.0718  -10.9102  -13.5099 N   0  0  0  0  0  0  0  0  0  0  0  0
   16.6486   -9.1217  -13.9886 C   0  0  0  0  0  0  0  0  0  0  0  0
   17.6267   -9.9102  -13.9715 O   0  0  0  0  0  0  0  0  0  0  0  0
   16.8817   -7.8051  -14.4491 N   0  0  0  0  0  0  0  0  0  0  0  0
   18.1233   -7.3639  -15.0307 C   0  0  1  0  0  0  0  0  0  0  0  0
   17.8022   -6.6751  -16.3333 C   0  0  0  0  0  0  0  0  0  0  0  0
   17.5651   -7.6040  -17.4728 C   0  0  0  0  0  0  0  0  0  0  0  0
   17.2934   -6.9090  -18.7831 C   0  0  0  0  0  0  0  0  0  0  0  0
   16.9824   -7.8467  -19.8958 C   0  0  0  0  0  0  0  0  0  0  0  0
   16.6613   -7.2035  -21.1424 N   0  0  0  0  0  0  0  0  0  0  0  0
   18.8560   -6.4238  -14.1455 C   0  0  0  0  0  0  0  0  0  0  0  0
   18.2711   -5.4083  -13.6881 O   0  0  0  0  0  0  0  0  0  0  0  0
   22.0852   -6.3952  -12.2550 C   0  0  0  0  0  0  0  0  0  0  0  0
   20.9586   -5.6712  -12.9670 C   0  0  2  0  0  0  0  0  0  0  0  0
   20.2162   -6.5997  -13.7687 N   0  0  0  0  0  0  0  0  0  0  0  0
   21.4156   -4.4895  -13.6933 C   0  0  0  0  0  0  0  0  0  0  0  0
   21.5076   -4.5363  -14.9460 O   0  0  0  0  0  0  0  0  0  0  0  0
   21.7605   -3.2974  -13.0744 O   0  0  0  0  0  0  0  0  0  0  0  0
  1  2  1  0
  2  3  1  0
  3  4  1  1
  5  3  1  0
  5  7  1  0
  6  5  2  0
  8  7  1  0
  8 14  1  0
  8  9  1  6
 10  9  1  0
 11 10  1  0
 12 11  1  0
 13 12  1  0
 14 15  2  0
 17 16  1  6
 17 19  1  0
 18 14  1  0
 18 17  1  0
 19 21  1  0
 20 19  2  0
M  END
$$$$
