SKA.pdb
     RDKit          3D

 21 20  0  0  1  0  0  0  0  0999 V2000
   23.8376  -12.7197  -15.1322 O   0  0  0  0  0  0  0  0  0  0  0  0
   23.4877  -11.4045  -15.4356 C   0  0  0  0  0  0  0  0  0  0  0  0
   22.1708  -11.4318  -16.2071 C   0  0  2  0  0  0  0  0  0  0  0  0
   22.3337  -12.1709  -17.4372 N   0  0  0  0  0  0  0  0  0  0  0  0
   21.6332  -10.0806  -16.4105 C   0  0  0  0  0  0  0  0  0  0  0  0
   21.7679   -9.4202  -17.4709 O   0  0  0  0  0  0  0  0  0  0  0  0
   20.9167   -9.4745  -15.3526 N   0  0  0  0  0  0  0  0  0  0  0  0
   20.3042   -8.1737  -15.4370 C   0  0  1  0  0  0  0  0  0  0  0  0
   18.9377   -8.2666  -14.8056 C   0  0  0  0  0  0  0  0  0  0  0  0
   17.9294   -8.9824  -15.6352 C   0  0  0  0  0  0  0  0  0  0  0  0
   16.5925   -9.1561  -14.9596 C   0  0  0  0  0  0  0  0  0  0  0  0
   15.5743   -9.8117  -15.8244 C   0  0  0  0  0  0  0  0  0  0  0  0
   14.2896   -9.9875  -15.2004 N   0  0  0  0  0  0  0  0  0  0  0  0
   21.0984   -7.1320  -14.7380 C   0  0  0  0  0  0  0  0  0  0  0  0
   21.4978   -7.3318  -13.5620 O   0  0  0  0  0  0  0  0  0  0  0  0
   22.6787   -3.8424  -15.6990 C   0  0  0  0  0  0  0  0  0  0  0  0
   22.2518   -4.8864  -14.6850 C   0  0  2  0  0  0  0  0  0  0  0  0
   21.4485   -5.8855  -15.3270 N   0  0  0  0  0  0  0  0  0  0  0  0
   21.6378   -4.3018  -13.4958 C   0  0  0  0  0  0  0  0  0  0  0  0
   20.3849   -4.2894  -13.3949 O   0  0  0  0  0  0  0  0  0  0  0  0
   22.3654   -3.7497  -12.4523 O   0  0  0  0  0  0  0  0  0  0  0  0
  1  2  1  0
  2  3  1  0
  3  4  1  6
  5  3  1  0
  5  7  1  0
  6  5  2  0
  8  7  1  0
  8 14  1  0
  8  9  1  1
 10  9  1  0
 11 10  1  0
 12 11  1  0
 13 12  1  0
 14 15  2  0
 17 16  1  6
 17 19  1  0
 18 14  1  0
 18 17  1  0
 19 21  1  0
 20 19  2  0
M  END
$$$$
