GWC.pdb
     RDKit          3D

 25 26  0  0  1  0  0  0  0  0999 V2000
   31.0711  -21.4897  -11.1931 N   0  0  0  0  0  0  0  0  0  0  0  0
   30.1626  -20.5164  -10.6518 C   0  0  0  0  0  0  0  0  0  0  0  0
   28.8641  -21.1797  -10.3208 C   0  0  0  0  0  0  0  0  0  0  0  0
   28.7134  -22.3820  -10.6139 O   0  0  0  0  0  0  0  0  0  0  0  0
   27.8328  -20.4363   -9.6848 N   0  0  0  0  0  0  0  0  0  0  0  0
   26.5584  -21.0450   -9.4481 C   0  0  1  0  0  0  0  0  0  0  0  0
   26.0192  -20.7863   -8.0514 C   0  0  0  0  0  0  0  0  0  0  0  0
   26.8375  -19.8509   -7.2890 C   0  0  0  0  0  0  0  0  0  0  0  0
   27.0685  -18.5245   -7.5581 C   0  0  0  0  0  0  0  0  0  0  0  0
   27.8899  -18.0231   -6.5937 N   0  0  0  0  0  0  0  0  0  0  0  0
   28.1741  -19.0036   -5.7347 C   0  0  0  0  0  0  0  0  0  0  0  0
   28.9409  -19.0693   -4.5914 C   0  0  0  0  0  0  0  0  0  0  0  0
   29.0744  -20.2400   -3.8632 C   0  0  0  0  0  0  0  0  0  0  0  0
   28.4279  -21.3868   -4.2792 C   0  0  0  0  0  0  0  0  0  0  0  0
   27.6715  -21.3166   -5.4101 C   0  0  0  0  0  0  0  0  0  0  0  0
   27.5335  -20.1534   -6.1407 C   0  0  0  0  0  0  0  0  0  0  0  0
   25.5111  -20.5686  -10.3842 C   0  0  0  0  0  0  0  0  0  0  0  0
   25.2827  -19.3514  -10.4278 O   0  0  0  0  0  0  0  0  0  0  0  0
   24.8096  -21.4691  -11.1866 N   0  0  0  0  0  0  0  0  0  0  0  0
   23.8546  -21.1590  -12.1951 C   0  0  1  0  0  0  0  0  0  0  0  0
   23.7759  -22.2287  -13.2522 C   0  0  0  0  0  0  0  0  0  0  0  0
   25.4760  -22.4900  -13.8644 S   0  0  0  0  0  0  0  0  0  0  0  0
   22.4902  -20.8099  -11.7092 C   0  0  0  0  0  0  0  0  0  0  0  0
   21.6105  -20.3860  -12.7180 O   0  0  0  0  0  0  0  0  0  0  0  0
   22.0884  -20.8610  -10.5439 O   0  0  0  0  0  0  0  0  0  0  0  0
  1  2  1  0
  2  3  1  0
  3  4  2  0
  5  3  1  0
  6  5  1  0
  6  7  1  1
  8  7  1  0
  8 16  1  0
  9 10  1  0
  9  8  2  0
 10 11  1  0
 11 16  2  0
 11 12  1  0
 12 13  2  0
 13 14  1  0
 15 14  2  0
 16 15  1  0
 17  6  1  0
 18 17  2  0
 19 17  1  0
 20 19  1  0
 20 23  1  0
 20 21  1  6
 22 21  1  0
 23 25  2  0
 23 24  1  0
M  END
$$$$
