GWC.pdb
     RDKit          3D

 25 26  0  0  1  0  0  0  0  0999 V2000
   16.9258  -16.8958  -17.8159 N   0  0  0  0  0  0  0  0  0  0  0  0
   16.8425  -15.5603  -18.3404 C   0  0  0  0  0  0  0  0  0  0  0  0
   17.4742  -14.6080  -17.3761 C   0  0  0  0  0  0  0  0  0  0  0  0
   16.9143  -14.4045  -16.2810 O   0  0  0  0  0  0  0  0  0  0  0  0
   18.6896  -13.9562  -17.7203 N   0  0  0  0  0  0  0  0  0  0  0  0
   19.2511  -12.9819  -16.8337 C   0  0  1  0  0  0  0  0  0  0  0  0
   20.6689  -13.3119  -16.3985 C   0  0  0  0  0  0  0  0  0  0  0  0
   20.7742  -14.6051  -15.7334 C   0  0  0  0  0  0  0  0  0  0  0  0
   20.5712  -14.8851  -14.4046 C   0  0  0  0  0  0  0  0  0  0  0  0
   20.7728  -16.2179  -14.2068 N   0  0  0  0  0  0  0  0  0  0  0  0
   21.0955  -16.7707  -15.3773 C   0  0  0  0  0  0  0  0  0  0  0  0
   21.4007  -18.0574  -15.7657 C   0  0  0  0  0  0  0  0  0  0  0  0
   21.7076  -18.3747  -17.0786 C   0  0  0  0  0  0  0  0  0  0  0  0
   21.7136  -17.3860  -18.0422 C   0  0  0  0  0  0  0  0  0  0  0  0
   21.4115  -16.1159  -17.6531 C   0  0  0  0  0  0  0  0  0  0  0  0
   21.1044  -15.7922  -16.3466 C   0  0  0  0  0  0  0  0  0  0  0  0
   19.3138  -11.6269  -17.4340 C   0  0  0  0  0  0  0  0  0  0  0  0
   19.4205  -11.5429  -18.6656 O   0  0  0  0  0  0  0  0  0  0  0  0
   19.2543  -10.4880  -16.6301 N   0  0  0  0  0  0  0  0  0  0  0  0
   19.1919   -9.1333  -17.0613 C   0  0  1  0  0  0  0  0  0  0  0  0
   18.0803   -8.9018  -18.0505 C   0  0  0  0  0  0  0  0  0  0  0  0
   16.5130   -9.1756  -17.1549 S   0  0  0  0  0  0  0  0  0  0  0  0
   19.1429   -8.1110  -15.9787 C   0  0  0  0  0  0  0  0  0  0  0  0
   19.1139   -8.6468  -14.6813 O   0  0  0  0  0  0  0  0  0  0  0  0
   19.1266   -6.8859  -16.1234 O   0  0  0  0  0  0  0  0  0  0  0  0
  1  2  1  0
  2  3  1  0
  3  4  2  0
  5  3  1  0
  6  5  1  0
  6  7  1  6
  8  7  1  0
  8 16  1  0
  9 10  1  0
  9  8  2  0
 10 11  1  0
 11 16  2  0
 11 12  1  0
 12 13  2  0
 13 14  1  0
 15 14  2  0
 16 15  1  0
 17  6  1  0
 18 17  2  0
 19 17  1  0
 20 19  1  0
 20 23  1  0
 20 21  1  6
 22 21  1  0
 23 25  2  0
 23 24  1  0
M  END
$$$$
