GWC.pdb
     RDKit          3D

 25 26  0  0  1  0  0  0  0  0999 V2000
   28.8161  -21.6562  -14.4681 N   0  0  0  0  0  0  0  0  0  0  0  0
   28.6445  -20.6058  -13.5023 C   0  0  0  0  0  0  0  0  0  0  0  0
   27.5486  -20.9766  -12.5551 C   0  0  0  0  0  0  0  0  0  0  0  0
   26.7935  -21.9228  -12.8530 O   0  0  0  0  0  0  0  0  0  0  0  0
   27.3866  -20.2514  -11.3432 N   0  0  0  0  0  0  0  0  0  0  0  0
   26.2504  -20.5036  -10.5089 C   0  0  1  0  0  0  0  0  0  0  0  0
   26.4029  -19.9490   -9.1026 C   0  0  0  0  0  0  0  0  0  0  0  0
   27.6100  -20.4182   -8.4329 C   0  0  0  0  0  0  0  0  0  0  0  0
   28.5053  -21.3594   -8.8778 C   0  0  0  0  0  0  0  0  0  0  0  0
   29.4884  -21.4975   -7.9447 N   0  0  0  0  0  0  0  0  0  0  0  0
   29.2258  -20.6674   -6.9338 C   0  0  0  0  0  0  0  0  0  0  0  0
   29.8648  -20.3903   -5.7445 C   0  0  0  0  0  0  0  0  0  0  0  0
   29.3712  -19.4592   -4.8455 C   0  0  0  0  0  0  0  0  0  0  0  0
   28.2049  -18.7778   -5.1311 C   0  0  0  0  0  0  0  0  0  0  0  0
   27.5771  -19.0557   -6.3078 C   0  0  0  0  0  0  0  0  0  0  0  0
   28.0631  -19.9820   -7.2087 C   0  0  0  0  0  0  0  0  0  0  0  0
   25.0001  -19.9138  -11.0465 C   0  0  0  0  0  0  0  0  0  0  0  0
   25.1007  -19.0154  -11.8941 O   0  0  0  0  0  0  0  0  0  0  0  0
   23.7542  -20.3616  -10.6062 N   0  0  0  0  0  0  0  0  0  0  0  0
   22.5830  -20.5544  -11.3912 C   0  0  1  0  0  0  0  0  0  0  0  0
   22.8189  -21.4947  -12.5436 C   0  0  0  0  0  0  0  0  0  0  0  0
   21.1860  -22.1497  -13.0314 S   0  0  0  0  0  0  0  0  0  0  0  0
   21.3589  -20.9520  -10.6408 C   0  0  0  0  0  0  0  0  0  0  0  0
   21.5711  -21.9570   -9.6836 O   0  0  0  0  0  0  0  0  0  0  0  0
   20.2242  -20.4899  -10.7856 O   0  0  0  0  0  0  0  0  0  0  0  0
  1  2  1  0
  2  3  1  0
  3  4  2  0
  5  3  1  0
  6  5  1  0
  6  7  1  1
  8  7  1  0
  8 16  1  0
  9 10  1  0
  9  8  2  0
 10 11  1  0
 11 16  2  0
 11 12  1  0
 12 13  2  0
 13 14  1  0
 15 14  2  0
 16 15  1  0
 17  6  1  0
 18 17  2  0
 19 17  1  0
 20 19  1  0
 20 23  1  0
 20 21  1  6
 22 21  1  0
 23 25  2  0
 23 24  1  0
M  END
$$$$
