GWC.pdb
     RDKit          3D

 25 26  0  0  1  0  0  0  0  0999 V2000
   27.2970  -23.9198  -17.2698 N   0  0  0  0  0  0  0  0  0  0  0  0
   27.2757  -22.5377  -16.8762 C   0  0  0  0  0  0  0  0  0  0  0  0
   26.7560  -22.4277  -15.4785 C   0  0  0  0  0  0  0  0  0  0  0  0
   26.2607  -23.4382  -14.9419 O   0  0  0  0  0  0  0  0  0  0  0  0
   26.8332  -21.1856  -14.7916 N   0  0  0  0  0  0  0  0  0  0  0  0
   26.4132  -21.1001  -13.4252 C   0  0  1  0  0  0  0  0  0  0  0  0
   27.1129  -19.9968  -12.6496 C   0  0  0  0  0  0  0  0  0  0  0  0
   26.8323  -20.0398  -11.2194 C   0  0  0  0  0  0  0  0  0  0  0  0
   25.6712  -19.6812  -10.5802 C   0  0  0  0  0  0  0  0  0  0  0  0
   25.8350  -19.8768   -9.2419 N   0  0  0  0  0  0  0  0  0  0  0  0
   27.0664  -20.3467   -9.0352 C   0  0  0  0  0  0  0  0  0  0  0  0
   27.7627  -20.7154   -7.9043 C   0  0  0  0  0  0  0  0  0  0  0  0
   29.0646  -21.1846   -7.9641 C   0  0  0  0  0  0  0  0  0  0  0  0
   29.7017  -21.2932   -9.1842 C   0  0  0  0  0  0  0  0  0  0  0  0
   29.0091  -20.9272  -10.2988 C   0  0  0  0  0  0  0  0  0  0  0  0
   27.7114  -20.4590  -10.2470 C   0  0  0  0  0  0  0  0  0  0  0  0
   24.9599  -20.8379  -13.2860 C   0  0  0  0  0  0  0  0  0  0  0  0
   24.4473  -19.9991  -14.0404 O   0  0  0  0  0  0  0  0  0  0  0  0
   24.2013  -21.5182  -12.3328 N   0  0  0  0  0  0  0  0  0  0  0  0
   22.7945  -21.4361  -12.1351 C   0  0  1  0  0  0  0  0  0  0  0  0
   22.4370  -21.1608  -10.6983 C   0  0  0  0  0  0  0  0  0  0  0  0
   20.6278  -21.3617  -10.5581 S   0  0  0  0  0  0  0  0  0  0  0  0
   22.0674  -20.5002  -13.0379 C   0  0  0  0  0  0  0  0  0  0  0  0
   22.2356  -19.1436  -12.7177 O   0  0  0  0  0  0  0  0  0  0  0  0
   21.3610  -20.8071  -14.0017 O   0  0  0  0  0  0  0  0  0  0  0  0
  1  2  1  0
  2  3  1  0
  3  4  2  0
  5  3  1  0
  6  5  1  0
  6  7  1  6
  8  7  1  0
  8 16  1  0
  9 10  1  0
  9  8  2  0
 10 11  1  0
 11 16  2  0
 11 12  1  0
 12 13  2  0
 13 14  1  0
 15 14  2  0
 16 15  1  0
 17  6  1  0
 18 17  2  0
 19 17  1  0
 20 19  1  0
 20 23  1  0
 20 21  1  1
 22 21  1  0
 23 25  2  0
 23 24  1  0
M  END
$$$$
