GWC.pdb
     RDKit          3D

 25 26  0  0  1  0  0  0  0  0999 V2000
   26.8863  -21.9765  -13.2930 N   0  0  0  0  0  0  0  0  0  0  0  0
   26.4372  -20.8468  -12.5264 C   0  0  0  0  0  0  0  0  0  0  0  0
   25.9588  -21.3135  -11.1888 C   0  0  0  0  0  0  0  0  0  0  0  0
   25.9410  -22.5374  -10.9521 O   0  0  0  0  0  0  0  0  0  0  0  0
   25.5355  -20.3641  -10.2190 N   0  0  0  0  0  0  0  0  0  0  0  0
   24.9990  -20.8132   -8.9696 C   0  0  1  0  0  0  0  0  0  0  0  0
   25.2377  -19.8390   -7.8284 C   0  0  0  0  0  0  0  0  0  0  0  0
   26.6466  -19.7077   -7.4766 C   0  0  0  0  0  0  0  0  0  0  0  0
   27.6964  -19.4119   -8.3107 C   0  0  0  0  0  0  0  0  0  0  0  0
   28.8419  -19.3868   -7.5735 N   0  0  0  0  0  0  0  0  0  0  0  0
   28.5296  -19.6595   -6.3054 C   0  0  0  0  0  0  0  0  0  0  0  0
   29.2713  -19.7662   -5.1486 C   0  0  0  0  0  0  0  0  0  0  0  0
   28.6890  -20.0669   -3.9283 C   0  0  0  0  0  0  0  0  0  0  0  0
   27.3257  -20.2698   -3.8476 C   0  0  0  0  0  0  0  0  0  0  0  0
   26.5973  -20.1634   -4.9940 C   0  0  0  0  0  0  0  0  0  0  0  0
   27.1706  -19.8638   -6.2136 C   0  0  0  0  0  0  0  0  0  0  0  0
   23.5328  -21.0320   -9.0191 C   0  0  0  0  0  0  0  0  0  0  0  0
   22.8895  -20.4505   -9.9042 O   0  0  0  0  0  0  0  0  0  0  0  0
   22.9055  -21.8673   -8.0941 N   0  0  0  0  0  0  0  0  0  0  0  0
   21.5190  -22.1790   -8.0187 C   0  0  1  0  0  0  0  0  0  0  0  0
   21.1342  -22.7399   -6.6752 C   0  0  0  0  0  0  0  0  0  0  0  0
   19.3989  -23.2908   -6.8120 S   0  0  0  0  0  0  0  0  0  0  0  0
   20.5872  -21.0839   -8.4087 C   0  0  0  0  0  0  0  0  0  0  0  0
   19.5422  -21.4903   -9.2537 O   0  0  0  0  0  0  0  0  0  0  0  0
   20.6562  -19.9012   -8.0644 O   0  0  0  0  0  0  0  0  0  0  0  0
  1  2  1  0
  2  3  1  0
  3  4  2  0
  5  3  1  0
  6  5  1  0
  6  7  1  1
  8  7  1  0
  8 16  1  0
  9 10  1  0
  9  8  2  0
 10 11  1  0
 11 16  2  0
 11 12  1  0
 12 13  2  0
 13 14  1  0
 15 14  2  0
 16 15  1  0
 17  6  1  0
 18 17  2  0
 19 17  1  0
 20 19  1  0
 20 23  1  0
 20 21  1  1
 22 21  1  0
 23 25  2  0
 23 24  1  0
M  END
$$$$
