GWC.pdb
     RDKit          3D

 25 26  0  0  1  0  0  0  0  0999 V2000
   24.3481  -25.1315  -15.3897 N   0  0  0  0  0  0  0  0  0  0  0  0
   24.8205  -26.4077  -15.8520 C   0  0  0  0  0  0  0  0  0  0  0  0
   25.6636  -26.2127  -17.0714 C   0  0  0  0  0  0  0  0  0  0  0  0
   25.7741  -25.0654  -17.5466 O   0  0  0  0  0  0  0  0  0  0  0  0
   26.3180  -27.3271  -17.6636 N   0  0  0  0  0  0  0  0  0  0  0  0
   27.1030  -27.1455  -18.8475 C   0  0  1  0  0  0  0  0  0  0  0  0
   28.5910  -27.3504  -18.6189 C   0  0  0  0  0  0  0  0  0  0  0  0
   29.1710  -26.3601  -17.7197 C   0  0  0  0  0  0  0  0  0  0  0  0
   29.3348  -26.4546  -16.3597 C   0  0  0  0  0  0  0  0  0  0  0  0
   29.9167  -25.3067  -15.9124 N   0  0  0  0  0  0  0  0  0  0  0  0
   30.1173  -24.5038  -16.9589 C   0  0  0  0  0  0  0  0  0  0  0  0
   30.6602  -23.2445  -17.0970 C   0  0  0  0  0  0  0  0  0  0  0  0
   30.7550  -22.6169  -18.3281 C   0  0  0  0  0  0  0  0  0  0  0  0
   30.2971  -23.2556  -19.4633 C   0  0  0  0  0  0  0  0  0  0  0  0
   29.7611  -24.4999  -19.3213 C   0  0  0  0  0  0  0  0  0  0  0  0
   29.6636  -25.1318  -18.0977 C   0  0  0  0  0  0  0  0  0  0  0  0
   26.7253  -28.0791  -19.9365 C   0  0  0  0  0  0  0  0  0  0  0  0
   26.3160  -29.2048  -19.6190 O   0  0  0  0  0  0  0  0  0  0  0  0
   26.8310  -27.6944  -21.2735 N   0  0  0  0  0  0  0  0  0  0  0  0
   26.4323  -28.4412  -22.4173 C   0  0  1  0  0  0  0  0  0  0  0  0
   25.7843  -27.5748  -23.4648 C   0  0  0  0  0  0  0  0  0  0  0  0
   24.2556  -26.9064  -22.7232 S   0  0  0  0  0  0  0  0  0  0  0  0
   27.4865  -29.2959  -23.0320 C   0  0  0  0  0  0  0  0  0  0  0  0
   27.0653  -30.6000  -23.3371 O   0  0  0  0  0  0  0  0  0  0  0  0
   28.6481  -28.9652  -23.2837 O   0  0  0  0  0  0  0  0  0  0  0  0
  1  2  1  0
  2  3  1  0
  3  4  2  0
  5  3  1  0
  6  5  1  0
  6  7  1  1
  8  7  1  0
  8 16  1  0
  9 10  1  0
  9  8  2  0
 10 11  1  0
 11 16  2  0
 11 12  1  0
 12 13  2  0
 13 14  1  0
 15 14  2  0
 16 15  1  0
 17  6  1  0
 18 17  2  0
 19 17  1  0
 20 19  1  0
 20 23  1  0
 20 21  1  6
 22 21  1  0
 23 25  2  0
 23 24  1  0
M  END
$$$$
