GWC.pdb
     RDKit          3D

 25 26  0  0  1  0  0  0  0  0999 V2000
   28.6591  -22.6936  -15.3820 N   0  0  0  0  0  0  0  0  0  0  0  0
   28.7775  -21.4730  -14.6324 C   0  0  0  0  0  0  0  0  0  0  0  0
   27.8993  -21.5453  -13.4244 C   0  0  0  0  0  0  0  0  0  0  0  0
   26.7776  -22.0790  -13.5300 O   0  0  0  0  0  0  0  0  0  0  0  0
   28.3522  -21.0090  -12.1883 N   0  0  0  0  0  0  0  0  0  0  0  0
   27.4575  -20.9374  -11.0726 C   0  0  1  0  0  0  0  0  0  0  0  0
   28.1265  -20.4568   -9.7959 C   0  0  0  0  0  0  0  0  0  0  0  0
   27.2433  -20.5050   -8.6369 C   0  0  0  0  0  0  0  0  0  0  0  0
   25.9097  -20.8309   -8.6103 C   0  0  0  0  0  0  0  0  0  0  0  0
   25.4695  -20.7507   -7.3235 N   0  0  0  0  0  0  0  0  0  0  0  0
   26.4945  -20.3836   -6.5525 C   0  0  0  0  0  0  0  0  0  0  0  0
   26.6282  -20.1518   -5.2005 C   0  0  0  0  0  0  0  0  0  0  0  0
   27.8347  -19.7709   -4.6366 C   0  0  0  0  0  0  0  0  0  0  0  0
   28.9488  -19.6131   -5.4366 C   0  0  0  0  0  0  0  0  0  0  0  0
   28.8113  -19.8432   -6.7723 C   0  0  0  0  0  0  0  0  0  0  0  0
   27.6123  -20.2232   -7.3413 C   0  0  0  0  0  0  0  0  0  0  0  0
   26.3183  -20.0169  -11.3074 C   0  0  0  0  0  0  0  0  0  0  0  0
   26.5713  -18.8719  -11.7079 O   0  0  0  0  0  0  0  0  0  0  0  0
   25.0064  -20.4348  -11.0815 N   0  0  0  0  0  0  0  0  0  0  0  0
   23.8573  -20.1189  -11.8592 C   0  0  1  0  0  0  0  0  0  0  0  0
   24.0364  -20.4778  -13.3107 C   0  0  0  0  0  0  0  0  0  0  0  0
   24.6619  -18.9816  -14.1496 S   0  0  0  0  0  0  0  0  0  0  0  0
   22.5636  -20.6539  -11.3494 C   0  0  0  0  0  0  0  0  0  0  0  0
   21.6673  -19.6682  -10.9061 O   0  0  0  0  0  0  0  0  0  0  0  0
   22.2307  -21.8402  -11.2881 O   0  0  0  0  0  0  0  0  0  0  0  0
  1  2  1  0
  2  3  1  0
  3  4  2  0
  5  3  1  0
  6  5  1  0
  6  7  1  1
  8  7  1  0
  8 16  1  0
  9 10  1  0
  9  8  2  0
 10 11  1  0
 11 16  2  0
 11 12  1  0
 12 13  2  0
 13 14  1  0
 15 14  2  0
 16 15  1  0
 17  6  1  0
 18 17  2  0
 19 17  1  0
 20 19  1  0
 20 23  1  0
 20 21  1  6
 22 21  1  0
 23 25  2  0
 23 24  1  0
M  END
$$$$
