GWC.pdb
     RDKit          3D

 25 26  0  0  1  0  0  0  0  0999 V2000
   28.0464  -23.9837  -16.9253 N   0  0  0  0  0  0  0  0  0  0  0  0
   28.0193  -22.6070  -16.5135 C   0  0  0  0  0  0  0  0  0  0  0  0
   27.2293  -22.4823  -15.2501 C   0  0  0  0  0  0  0  0  0  0  0  0
   26.2960  -23.2831  -15.0453 O   0  0  0  0  0  0  0  0  0  0  0  0
   27.5512  -21.4628  -14.3132 N   0  0  0  0  0  0  0  0  0  0  0  0
   26.7463  -21.2930  -13.1410 C   0  0  1  0  0  0  0  0  0  0  0  0
   27.4110  -20.4391  -12.0744 C   0  0  0  0  0  0  0  0  0  0  0  0
   26.7008  -20.4629  -10.8013 C   0  0  0  0  0  0  0  0  0  0  0  0
   25.3437  -20.4268  -10.5959 C   0  0  0  0  0  0  0  0  0  0  0  0
   25.1070  -20.4682   -9.2548 N   0  0  0  0  0  0  0  0  0  0  0  0
   26.2811  -20.5287   -8.6242 C   0  0  0  0  0  0  0  0  0  0  0  0
   26.6412  -20.5888   -7.2952 C   0  0  0  0  0  0  0  0  0  0  0  0
   27.9661  -20.6464   -6.8954 C   0  0  0  0  0  0  0  0  0  0  0  0
   28.9713  -20.6442   -7.8418 C   0  0  0  0  0  0  0  0  0  0  0  0
   28.6101  -20.5844   -9.1540 C   0  0  0  0  0  0  0  0  0  0  0  0
   27.2918  -20.5272   -9.5600 C   0  0  0  0  0  0  0  0  0  0  0  0
   25.4428  -20.6459  -13.4276 C   0  0  0  0  0  0  0  0  0  0  0  0
   25.4500  -19.4562  -13.7742 O   0  0  0  0  0  0  0  0  0  0  0  0
   24.2507  -21.3611  -13.3078 N   0  0  0  0  0  0  0  0  0  0  0  0
   22.9274  -20.8562  -13.4458 C   0  0  1  0  0  0  0  0  0  0  0  0
   22.2238  -21.4257  -14.6493 C   0  0  0  0  0  0  0  0  0  0  0  0
   23.5004  -22.2414  -15.6684 S   0  0  0  0  0  0  0  0  0  0  0  0
   22.0621  -20.9697  -12.2383 C   0  0  0  0  0  0  0  0  0  0  0  0
   20.8281  -20.3092  -12.3497 O   0  0  0  0  0  0  0  0  0  0  0  0
   22.3299  -21.5707  -11.1947 O   0  0  0  0  0  0  0  0  0  0  0  0
  1  2  1  0
  2  3  1  0
  3  4  2  0
  5  3  1  0
  6  5  1  0
  6  7  1  1
  8  7  1  0
  8 16  1  0
  9 10  1  0
  9  8  2  0
 10 11  1  0
 11 16  2  0
 11 12  1  0
 12 13  2  0
 13 14  1  0
 15 14  2  0
 16 15  1  0
 17  6  1  0
 18 17  2  0
 19 17  1  0
 20 19  1  0
 20 23  1  0
 20 21  1  6
 22 21  1  0
 23 25  2  0
 23 24  1  0
M  END
$$$$
