GWC.pdb
     RDKit          3D

 25 26  0  0  1  0  0  0  0  0999 V2000
   27.9525  -17.9758  -15.6090 N   0  0  0  0  0  0  0  0  0  0  0  0
   27.2074  -17.8476  -14.3868 C   0  0  0  0  0  0  0  0  0  0  0  0
   26.6125  -19.1714  -14.0270 C   0  0  0  0  0  0  0  0  0  0  0  0
   26.6805  -20.1033  -14.8524 O   0  0  0  0  0  0  0  0  0  0  0  0
   25.9846  -19.3440  -12.7634 N   0  0  0  0  0  0  0  0  0  0  0  0
   25.3216  -20.5765  -12.4600 C   0  0  1  0  0  0  0  0  0  0  0  0
   25.5244  -21.0301  -11.0242 C   0  0  0  0  0  0  0  0  0  0  0  0
   26.9272  -21.0566  -10.6278 C   0  0  0  0  0  0  0  0  0  0  0  0
   28.0100  -21.4102  -11.3945 C   0  0  0  0  0  0  0  0  0  0  0  0
   29.1352  -21.2945  -10.6351 N   0  0  0  0  0  0  0  0  0  0  0  0
   28.7782  -20.8789   -9.4186 C   0  0  0  0  0  0  0  0  0  0  0  0
   29.4835  -20.5970   -8.2685 C   0  0  0  0  0  0  0  0  0  0  0  0
   28.8571  -20.1698   -7.1093 C   0  0  0  0  0  0  0  0  0  0  0  0
   27.4853  -20.0157   -7.0850 C   0  0  0  0  0  0  0  0  0  0  0  0
   26.7929  -20.2959   -8.2243 C   0  0  0  0  0  0  0  0  0  0  0  0
   27.4103  -20.7218   -9.3833 C   0  0  0  0  0  0  0  0  0  0  0  0
   23.8538  -20.5043  -12.6615 C   0  0  0  0  0  0  0  0  0  0  0  0
   23.2417  -19.5652  -12.1334 O   0  0  0  0  0  0  0  0  0  0  0  0
   23.1909  -21.4678  -13.4224 N   0  0  0  0  0  0  0  0  0  0  0  0
   21.8836  -21.3756  -13.9771 C   0  0  1  0  0  0  0  0  0  0  0  0
   21.7005  -20.1259  -14.7972 C   0  0  0  0  0  0  0  0  0  0  0  0
   20.5471  -20.5471  -16.1484 S   0  0  0  0  0  0  0  0  0  0  0  0
   21.4184  -22.5680  -14.7396 C   0  0  0  0  0  0  0  0  0  0  0  0
   22.4339  -23.2328  -15.4453 O   0  0  0  0  0  0  0  0  0  0  0  0
   20.2642  -22.9997  -14.7983 O   0  0  0  0  0  0  0  0  0  0  0  0
  1  2  1  0
  2  3  1  0
  3  4  2  0
  5  3  1  0
  6  5  1  0
  6  7  1  1
  8  7  1  0
  8 16  1  0
  9 10  1  0
  9  8  2  0
 10 11  1  0
 11 16  2  0
 11 12  1  0
 12 13  2  0
 13 14  1  0
 15 14  2  0
 16 15  1  0
 17  6  1  0
 18 17  2  0
 19 17  1  0
 20 19  1  0
 20 23  1  0
 20 21  1  6
 22 21  1  0
 23 25  2  0
 23 24  1  0
M  END
$$$$
