GWC.pdb
     RDKit          3D

 25 26  0  0  1  0  0  0  0  0999 V2000
   28.7067  -17.9092  -14.3790 N   0  0  0  0  0  0  0  0  0  0  0  0
   27.5201  -17.9609  -13.5699 C   0  0  0  0  0  0  0  0  0  0  0  0
   27.0455  -19.3756  -13.4746 C   0  0  0  0  0  0  0  0  0  0  0  0
   27.5486  -20.2288  -14.2318 O   0  0  0  0  0  0  0  0  0  0  0  0
   26.0385  -19.7213  -12.5328 N   0  0  0  0  0  0  0  0  0  0  0  0
   25.6197  -21.0848  -12.4060 C   0  0  1  0  0  0  0  0  0  0  0  0
   25.2159  -21.4601  -10.9902 C   0  0  0  0  0  0  0  0  0  0  0  0
   26.1452  -20.9638   -9.9823 C   0  0  0  0  0  0  0  0  0  0  0  0
   25.8436  -20.3470   -8.7932 C   0  0  0  0  0  0  0  0  0  0  0  0
   27.0082  -20.0450   -8.1540 N   0  0  0  0  0  0  0  0  0  0  0  0
   28.0229  -20.4579   -8.9154 C   0  0  0  0  0  0  0  0  0  0  0  0
   29.3931  -20.4153   -8.7732 C   0  0  0  0  0  0  0  0  0  0  0  0
   30.2474  -20.9283   -9.7353 C   0  0  0  0  0  0  0  0  0  0  0  0
   29.7301  -21.5036  -10.8788 C   0  0  0  0  0  0  0  0  0  0  0  0
   28.3751  -21.5429  -11.0146 C   0  0  0  0  0  0  0  0  0  0  0  0
   27.5175  -21.0340  -10.0599 C   0  0  0  0  0  0  0  0  0  0  0  0
   24.4531  -21.4097  -13.2625 C   0  0  0  0  0  0  0  0  0  0  0  0
   23.5942  -20.5322  -13.4295 O   0  0  0  0  0  0  0  0  0  0  0  0
   24.3338  -22.6663  -13.8572 N   0  0  0  0  0  0  0  0  0  0  0  0
   23.3386  -23.0887  -14.7826 C   0  0  1  0  0  0  0  0  0  0  0  0
   23.7478  -24.3299  -15.5309 C   0  0  0  0  0  0  0  0  0  0  0  0
   24.9671  -25.1974  -14.4848 S   0  0  0  0  0  0  0  0  0  0  0  0
   21.9649  -23.2476  -14.2283 C   0  0  0  0  0  0  0  0  0  0  0  0
   20.9792  -23.5006  -15.1955 O   0  0  0  0  0  0  0  0  0  0  0  0
   21.6378  -23.1781  -13.0408 O   0  0  0  0  0  0  0  0  0  0  0  0
  1  2  1  0
  2  3  1  0
  3  4  2  0
  5  3  1  0
  6  5  1  0
  6  7  1  1
  8  7  1  0
  8 16  1  0
  9 10  1  0
  9  8  2  0
 10 11  1  0
 11 16  2  0
 11 12  1  0
 12 13  2  0
 13 14  1  0
 15 14  2  0
 16 15  1  0
 17  6  1  0
 18 17  2  0
 19 17  1  0
 20 19  1  0
 20 23  1  0
 20 21  1  1
 22 21  1  0
 23 25  2  0
 23 24  1  0
M  END
$$$$
