GWC.pdb
     RDKit          3D

 25 26  0  0  1  0  0  0  0  0999 V2000
   28.8497  -18.0209  -13.6214 N   0  0  0  0  0  0  0  0  0  0  0  0
   27.5688  -18.3777  -14.1669 C   0  0  0  0  0  0  0  0  0  0  0  0
   27.2345  -19.7806  -13.7718 C   0  0  0  0  0  0  0  0  0  0  0  0
   27.8663  -20.7180  -14.2973 O   0  0  0  0  0  0  0  0  0  0  0  0
   26.2116  -20.0203  -12.8142 N   0  0  0  0  0  0  0  0  0  0  0  0
   25.8694  -21.3647  -12.4592 C   0  0  1  0  0  0  0  0  0  0  0  0
   25.3549  -21.4978  -11.0358 C   0  0  0  0  0  0  0  0  0  0  0  0
   26.2510  -20.9078  -10.0486 C   0  0  0  0  0  0  0  0  0  0  0  0
   25.9314  -20.0282   -9.0439 C   0  0  0  0  0  0  0  0  0  0  0  0
   27.0665  -19.7294   -8.3521 N   0  0  0  0  0  0  0  0  0  0  0  0
   28.0804  -20.4002   -8.9016 C   0  0  0  0  0  0  0  0  0  0  0  0
   29.4274  -20.4794   -8.6206 C   0  0  0  0  0  0  0  0  0  0  0  0
   30.2870  -21.2715   -9.3636 C   0  0  0  0  0  0  0  0  0  0  0  0
   29.7991  -22.0116  -10.4221 C   0  0  0  0  0  0  0  0  0  0  0  0
   28.4671  -21.9295  -10.6958 C   0  0  0  0  0  0  0  0  0  0  0  0
   27.6042  -21.1425   -9.9596 C   0  0  0  0  0  0  0  0  0  0  0  0
   24.8139  -21.9380  -13.3296 C   0  0  0  0  0  0  0  0  0  0  0  0
   23.9699  -21.1644  -13.8036 O   0  0  0  0  0  0  0  0  0  0  0  0
   24.7793  -23.3063  -13.6006 N   0  0  0  0  0  0  0  0  0  0  0  0
   23.8209  -24.0028  -14.3889 C   0  0  1  0  0  0  0  0  0  0  0  0
   24.0771  -25.4866  -14.4162 C   0  0  0  0  0  0  0  0  0  0  0  0
   22.8698  -26.2079  -15.5806 S   0  0  0  0  0  0  0  0  0  0  0  0
   22.3931  -23.7298  -14.0627 C   0  0  0  0  0  0  0  0  0  0  0  0
   21.6369  -23.2495  -15.1438 O   0  0  0  0  0  0  0  0  0  0  0  0
   21.8454  -23.8850  -12.9682 O   0  0  0  0  0  0  0  0  0  0  0  0
  1  2  1  0
  2  3  1  0
  3  4  2  0
  5  3  1  0
  6  5  1  0
  6  7  1  1
  8  7  1  0
  8 16  1  0
  9 10  1  0
  9  8  2  0
 10 11  1  0
 11 16  2  0
 11 12  1  0
 12 13  2  0
 13 14  1  0
 15 14  2  0
 16 15  1  0
 17  6  1  0
 18 17  2  0
 19 17  1  0
 20 19  1  0
 20 23  1  0
 20 21  1  1
 22 21  1  0
 23 25  2  0
 23 24  1  0
M  END
$$$$
