GWC.pdb
     RDKit          3D

 25 26  0  0  1  0  0  0  0  0999 V2000
   28.6540  -19.7741  -15.6358 N   0  0  0  0  0  0  0  0  0  0  0  0
   28.0923  -19.1828  -14.4523 C   0  0  0  0  0  0  0  0  0  0  0  0
   27.2144  -20.1808  -13.7676 C   0  0  0  0  0  0  0  0  0  0  0  0
   27.0330  -21.2897  -14.3076 O   0  0  0  0  0  0  0  0  0  0  0  0
   26.6063  -19.8523  -12.5254 N   0  0  0  0  0  0  0  0  0  0  0  0
   25.7340  -20.7927  -11.8887 C   0  0  1  0  0  0  0  0  0  0  0  0
   25.7470  -20.6932  -10.3727 C   0  0  0  0  0  0  0  0  0  0  0  0
   27.0759  -20.8759   -9.8012 C   0  0  0  0  0  0  0  0  0  0  0  0
   28.1412  -21.5460  -10.3501 C   0  0  0  0  0  0  0  0  0  0  0  0
   29.1907  -21.4749   -9.4841 N   0  0  0  0  0  0  0  0  0  0  0  0
   28.8037  -20.7791   -8.4137 C   0  0  0  0  0  0  0  0  0  0  0  0
   29.4365  -20.4022   -7.2487 C   0  0  0  0  0  0  0  0  0  0  0  0
   28.7937  -19.6613   -6.2707 C   0  0  0  0  0  0  0  0  0  0  0  0
   27.4790  -19.2793   -6.4494 C   0  0  0  0  0  0  0  0  0  0  0  0
   26.8581  -19.6546   -7.6024 C   0  0  0  0  0  0  0  0  0  0  0  0
   27.4923  -20.3927   -8.5817 C   0  0  0  0  0  0  0  0  0  0  0  0
   24.3171  -20.6293  -12.2959 C   0  0  0  0  0  0  0  0  0  0  0  0
   23.8152  -19.4998  -12.2078 O   0  0  0  0  0  0  0  0  0  0  0  0
   23.5795  -21.7182  -12.7619 N   0  0  0  0  0  0  0  0  0  0  0  0
   22.2876  -21.6900  -13.3579 C   0  0  1  0  0  0  0  0  0  0  0  0
   22.0435  -22.8833  -14.2436 C   0  0  0  0  0  0  0  0  0  0  0  0
   22.2728  -24.3664  -13.2037 S   0  0  0  0  0  0  0  0  0  0  0  0
   21.1460  -21.4993  -12.4198 C   0  0  0  0  0  0  0  0  0  0  0  0
   19.9203  -21.2331  -13.0507 O   0  0  0  0  0  0  0  0  0  0  0  0
   21.1884  -21.5542  -11.1880 O   0  0  0  0  0  0  0  0  0  0  0  0
  1  2  1  0
  2  3  1  0
  3  4  2  0
  5  3  1  0
  6  5  1  0
  6  7  1  1
  8  7  1  0
  8 16  1  0
  9 10  1  0
  9  8  2  0
 10 11  1  0
 11 16  2  0
 11 12  1  0
 12 13  2  0
 13 14  1  0
 15 14  2  0
 16 15  1  0
 17  6  1  0
 18 17  2  0
 19 17  1  0
 20 19  1  0
 20 23  1  0
 20 21  1  1
 22 21  1  0
 23 25  2  0
 23 24  1  0
M  END
$$$$
