GWC.pdb
     RDKit          3D

 25 26  0  0  1  0  0  0  0  0999 V2000
   27.2831  -22.7525  -16.4715 N   0  0  0  0  0  0  0  0  0  0  0  0
   27.7114  -21.9749  -15.3412 C   0  0  0  0  0  0  0  0  0  0  0  0
   26.6824  -22.0628  -14.2599 C   0  0  0  0  0  0  0  0  0  0  0  0
   26.0521  -23.1289  -14.1175 O   0  0  0  0  0  0  0  0  0  0  0  0
   26.4414  -20.9408  -13.4210 N   0  0  0  0  0  0  0  0  0  0  0  0
   25.4697  -21.0308  -12.3731 C   0  0  1  0  0  0  0  0  0  0  0  0
   25.8257  -20.2016  -11.1507 C   0  0  0  0  0  0  0  0  0  0  0  0
   27.0433  -20.6554  -10.4894 C   0  0  0  0  0  0  0  0  0  0  0  0
   28.0803  -21.3694  -11.0373 C   0  0  0  0  0  0  0  0  0  0  0  0
   29.0169  -21.5837  -10.0713 N   0  0  0  0  0  0  0  0  0  0  0  0
   28.5876  -21.0218   -8.9400 C   0  0  0  0  0  0  0  0  0  0  0  0
   29.1136  -20.9276   -7.6695 C   0  0  0  0  0  0  0  0  0  0  0  0
   28.4489  -20.2715   -6.6466 C   0  0  0  0  0  0  0  0  0  0  0  0
   27.2210  -19.6879   -6.8868 C   0  0  0  0  0  0  0  0  0  0  0  0
   26.7055  -19.7841   -8.1441 C   0  0  0  0  0  0  0  0  0  0  0  0
   27.3621  -20.4361   -9.1687 C   0  0  0  0  0  0  0  0  0  0  0  0
   24.1233  -20.5750  -12.7969 C   0  0  0  0  0  0  0  0  0  0  0  0
   24.0230  -19.4419  -13.2885 O   0  0  0  0  0  0  0  0  0  0  0  0
   23.0100  -21.4019  -12.6431 N   0  0  0  0  0  0  0  0  0  0  0  0
   21.7041  -21.1924  -13.1683 C   0  0  1  0  0  0  0  0  0  0  0  0
   20.9138  -22.4713  -13.2549 C   0  0  0  0  0  0  0  0  0  0  0  0
   20.6880  -23.0676  -11.5440 S   0  0  0  0  0  0  0  0  0  0  0  0
   20.9000  -20.1311  -12.4997 C   0  0  0  0  0  0  0  0  0  0  0  0
   21.4434  -19.6739  -11.2885 O   0  0  0  0  0  0  0  0  0  0  0  0
   19.8424  -19.6430  -12.9061 O   0  0  0  0  0  0  0  0  0  0  0  0
  1  2  1  0
  2  3  1  0
  3  4  2  0
  5  3  1  0
  6  5  1  0
  6  7  1  1
  8  7  1  0
  8 16  1  0
  9 10  1  0
  9  8  2  0
 10 11  1  0
 11 16  2  0
 11 12  1  0
 12 13  2  0
 13 14  1  0
 15 14  2  0
 16 15  1  0
 17  6  1  0
 18 17  2  0
 19 17  1  0
 20 19  1  0
 20 23  1  0
 20 21  1  1
 22 21  1  0
 23 25  2  0
 23 24  1  0
M  END
$$$$
