GWC.pdb
     RDKit          3D

 25 26  0  0  1  0  0  0  0  0999 V2000
   28.8960  -27.7599  -15.8257 N   0  0  0  0  0  0  0  0  0  0  0  0
   28.0370  -27.3309  -16.8951 C   0  0  0  0  0  0  0  0  0  0  0  0
   27.4171  -26.0180  -16.5375 C   0  0  0  0  0  0  0  0  0  0  0  0
   27.6249  -25.5465  -15.4023 O   0  0  0  0  0  0  0  0  0  0  0  0
   26.6087  -25.3362  -17.4874 N   0  0  0  0  0  0  0  0  0  0  0  0
   26.1167  -24.0241  -17.1926 C   0  0  1  0  0  0  0  0  0  0  0  0
   25.8350  -23.1951  -18.4343 C   0  0  0  0  0  0  0  0  0  0  0  0
   25.4514  -21.8223  -18.1278 C   0  0  0  0  0  0  0  0  0  0  0  0
   25.9912  -20.9919  -17.1769 C   0  0  0  0  0  0  0  0  0  0  0  0
   25.3394  -19.7964  -17.2250 N   0  0  0  0  0  0  0  0  0  0  0  0
   24.4104  -19.8643  -18.1800 C   0  0  0  0  0  0  0  0  0  0  0  0
   23.4765  -18.9711  -18.6591 C   0  0  0  0  0  0  0  0  0  0  0  0
   22.6067  -19.2984  -19.6861 C   0  0  0  0  0  0  0  0  0  0  0  0
   22.6609  -20.5528  -20.2604 C   0  0  0  0  0  0  0  0  0  0  0  0
   23.5855  -21.4321  -19.7831 C   0  0  0  0  0  0  0  0  0  0  0  0
   24.4558  -21.1129  -18.7600 C   0  0  0  0  0  0  0  0  0  0  0  0
   24.8505  -24.0450  -16.4203 C   0  0  0  0  0  0  0  0  0  0  0  0
   24.0004  -24.8939  -16.7238 O   0  0  0  0  0  0  0  0  0  0  0  0
   24.6313  -23.1338  -15.3866 N   0  0  0  0  0  0  0  0  0  0  0  0
   23.4841  -23.0425  -14.5496 C   0  0  1  0  0  0  0  0  0  0  0  0
   23.7095  -22.1301  -13.3729 C   0  0  0  0  0  0  0  0  0  0  0  0
   22.5749  -20.7147  -13.5793 S   0  0  0  0  0  0  0  0  0  0  0  0
   22.2078  -22.6966  -15.2360 C   0  0  0  0  0  0  0  0  0  0  0  0
   22.3683  -21.9115  -16.3888 O   0  0  0  0  0  0  0  0  0  0  0  0
   21.0717  -23.0295  -14.8889 O   0  0  0  0  0  0  0  0  0  0  0  0
  1  2  1  0
  2  3  1  0
  3  4  2  0
  5  3  1  0
  6  5  1  0
  6  7  1  6
  8  7  1  0
  8 16  1  0
  9 10  1  0
  9  8  2  0
 10 11  1  0
 11 16  2  0
 11 12  1  0
 12 13  2  0
 13 14  1  0
 15 14  2  0
 16 15  1  0
 17  6  1  0
 18 17  2  0
 19 17  1  0
 20 19  1  0
 20 23  1  0
 20 21  1  1
 22 21  1  0
 23 25  2  0
 23 24  1  0
M  END
$$$$
