GWC.pdb
     RDKit          3D

 25 26  0  0  1  0  0  0  0  0999 V2000
   28.3793  -23.4939  -17.7134 N   0  0  0  0  0  0  0  0  0  0  0  0
   27.7867  -22.2117  -17.4484 C   0  0  0  0  0  0  0  0  0  0  0  0
   27.2555  -22.1898  -16.0508 C   0  0  0  0  0  0  0  0  0  0  0  0
   26.7908  -23.2418  -15.5697 O   0  0  0  0  0  0  0  0  0  0  0  0
   27.2878  -20.9822  -15.3015 N   0  0  0  0  0  0  0  0  0  0  0  0
   26.8193  -20.9711  -13.9483 C   0  0  1  0  0  0  0  0  0  0  0  0
   27.3900  -19.8292  -13.1244 C   0  0  0  0  0  0  0  0  0  0  0  0
   27.2113  -20.0172  -11.6896 C   0  0  0  0  0  0  0  0  0  0  0  0
   26.1152  -19.6905  -10.9299 C   0  0  0  0  0  0  0  0  0  0  0  0
   26.3663  -20.0353   -9.6360 N   0  0  0  0  0  0  0  0  0  0  0  0
   27.5886  -20.5665   -9.5740 C   0  0  0  0  0  0  0  0  0  0  0  0
   28.3482  -21.0790   -8.5444 C   0  0  0  0  0  0  0  0  0  0  0  0
   29.6215  -21.5830   -8.7520 C   0  0  0  0  0  0  0  0  0  0  0  0
   30.1642  -21.5806  -10.0215 C   0  0  0  0  0  0  0  0  0  0  0  0
   29.4094  -21.0727  -11.0355 C   0  0  0  0  0  0  0  0  0  0  0  0
   28.1396  -20.5689  -10.8363 C   0  0  0  0  0  0  0  0  0  0  0  0
   25.3444  -20.8462  -13.8517 C   0  0  0  0  0  0  0  0  0  0  0  0
   24.7718  -20.0998  -14.6582 O   0  0  0  0  0  0  0  0  0  0  0  0
   24.6319  -21.5500  -12.8802 N   0  0  0  0  0  0  0  0  0  0  0  0
   23.2402  -21.4564  -12.5980 C   0  0  1  0  0  0  0  0  0  0  0  0
   22.9463  -21.6074  -11.1288 C   0  0  0  0  0  0  0  0  0  0  0  0
   21.1300  -21.6868  -10.9606 S   0  0  0  0  0  0  0  0  0  0  0  0
   22.5485  -20.2550  -13.1436 C   0  0  0  0  0  0  0  0  0  0  0  0
   21.5337  -20.5454  -14.0694 O   0  0  0  0  0  0  0  0  0  0  0  0
   22.7845  -19.0777  -12.8603 O   0  0  0  0  0  0  0  0  0  0  0  0
  1  2  1  0
  2  3  1  0
  3  4  2  0
  5  3  1  0
  6  5  1  0
  6  7  1  1
  8  7  1  0
  8 16  1  0
  9 10  1  0
  9  8  2  0
 10 11  1  0
 11 16  2  0
 11 12  1  0
 12 13  2  0
 13 14  1  0
 15 14  2  0
 16 15  1  0
 17  6  1  0
 18 17  2  0
 19 17  1  0
 20 19  1  0
 20 23  1  0
 20 21  1  1
 22 21  1  0
 23 25  2  0
 23 24  1  0
M  END
$$$$
