GWC.pdb
     RDKit          3D

 25 26  0  0  1  0  0  0  0  0999 V2000
   27.9241  -23.1709  -15.7723 N   0  0  0  0  0  0  0  0  0  0  0  0
   27.4979  -21.8885  -15.2830 C   0  0  0  0  0  0  0  0  0  0  0  0
   26.5975  -22.0810  -14.1049 C   0  0  0  0  0  0  0  0  0  0  0  0
   25.9295  -23.1307  -14.0262 O   0  0  0  0  0  0  0  0  0  0  0  0
   26.5177  -21.0742  -13.1046 N   0  0  0  0  0  0  0  0  0  0  0  0
   25.5370  -21.1780  -12.0663 C   0  0  1  0  0  0  0  0  0  0  0  0
   25.8723  -20.3489  -10.8381 C   0  0  0  0  0  0  0  0  0  0  0  0
   27.1591  -20.6987  -10.2486 C   0  0  0  0  0  0  0  0  0  0  0  0
   28.1800  -21.4138  -10.8244 C   0  0  0  0  0  0  0  0  0  0  0  0
   29.2007  -21.5113   -9.9273 N   0  0  0  0  0  0  0  0  0  0  0  0
   28.8392  -20.8759   -8.8113 C   0  0  0  0  0  0  0  0  0  0  0  0
   29.4615  -20.6573   -7.6011 C   0  0  0  0  0  0  0  0  0  0  0  0
   28.8526  -19.9463   -6.5802 C   0  0  0  0  0  0  0  0  0  0  0  0
   27.5836  -19.4331   -6.7608 C   0  0  0  0  0  0  0  0  0  0  0  0
   26.9728  -19.6522   -7.9586 C   0  0  0  0  0  0  0  0  0  0  0  0
   27.5736  -20.3596   -8.9807 C   0  0  0  0  0  0  0  0  0  0  0  0
   24.1898  -20.7354  -12.5017 C   0  0  0  0  0  0  0  0  0  0  0  0
   24.0659  -19.5723  -12.9105 O   0  0  0  0  0  0  0  0  0  0  0  0
   23.1018  -21.6073  -12.4489 N   0  0  0  0  0  0  0  0  0  0  0  0
   21.7728  -21.3517  -12.8888 C   0  0  1  0  0  0  0  0  0  0  0  0
   21.0644  -22.6088  -13.3195 C   0  0  0  0  0  0  0  0  0  0  0  0
   22.1181  -23.4004  -14.5831 S   0  0  0  0  0  0  0  0  0  0  0  0
   20.9188  -20.5720  -11.9494 C   0  0  0  0  0  0  0  0  0  0  0  0
   19.6824  -20.1788  -12.4862 O   0  0  0  0  0  0  0  0  0  0  0  0
   21.1974  -20.2580  -10.7893 O   0  0  0  0  0  0  0  0  0  0  0  0
  1  2  1  0
  2  3  1  0
  3  4  2  0
  5  3  1  0
  6  5  1  0
  6  7  1  1
  8  7  1  0
  8 16  1  0
  9 10  1  0
  9  8  2  0
 10 11  1  0
 11 16  2  0
 11 12  1  0
 12 13  2  0
 13 14  1  0
 15 14  2  0
 16 15  1  0
 17  6  1  0
 18 17  2  0
 19 17  1  0
 20 19  1  0
 20 23  1  0
 20 21  1  1
 22 21  1  0
 23 25  2  0
 23 24  1  0
M  END
$$$$
