GWC.pdb
     RDKit          3D

 25 26  0  0  1  0  0  0  0  0999 V2000
   22.4350  -29.6159  -11.4883 N   0  0  0  0  0  0  0  0  0  0  0  0
   22.8937  -29.4437  -10.1372 C   0  0  0  0  0  0  0  0  0  0  0  0
   23.0046  -30.7804   -9.4764 C   0  0  0  0  0  0  0  0  0  0  0  0
   22.0297  -31.5560   -9.5255 O   0  0  0  0  0  0  0  0  0  0  0  0
   24.2068  -31.1412   -8.8092 N   0  0  0  0  0  0  0  0  0  0  0  0
   24.3162  -32.4245   -8.1832 C   0  0  1  0  0  0  0  0  0  0  0  0
   25.7292  -32.9828   -8.2005 C   0  0  0  0  0  0  0  0  0  0  0  0
   26.0727  -33.6246   -9.4638 C   0  0  0  0  0  0  0  0  0  0  0  0
   26.6518  -33.0493  -10.5678 C   0  0  0  0  0  0  0  0  0  0  0  0
   26.7980  -34.0047  -11.5280 N   0  0  0  0  0  0  0  0  0  0  0  0
   26.3247  -35.1562  -11.0483 C   0  0  0  0  0  0  0  0  0  0  0  0
   26.2189  -36.4279  -11.5692 C   0  0  0  0  0  0  0  0  0  0  0  0
   25.6747  -37.4752  -10.8442 C   0  0  0  0  0  0  0  0  0  0  0  0
   25.2184  -37.2589   -9.5592 C   0  0  0  0  0  0  0  0  0  0  0  0
   25.3250  -36.0001   -9.0493 C   0  0  0  0  0  0  0  0  0  0  0  0
   25.8665  -34.9515   -9.7656 C   0  0  0  0  0  0  0  0  0  0  0  0
   23.9023  -32.4065   -6.7589 C   0  0  0  0  0  0  0  0  0  0  0  0
   24.2990  -31.4694   -6.0518 O   0  0  0  0  0  0  0  0  0  0  0  0
   23.0922  -33.4168   -6.2395 N   0  0  0  0  0  0  0  0  0  0  0  0
   22.6786  -33.5777   -4.8874 C   0  0  1  0  0  0  0  0  0  0  0  0
   21.1841  -33.4752   -4.7336 C   0  0  0  0  0  0  0  0  0  0  0  0
   20.8294  -33.5932   -2.9465 S   0  0  0  0  0  0  0  0  0  0  0  0
   23.1881  -34.7946   -4.1951 C   0  0  0  0  0  0  0  0  0  0  0  0
   23.8205  -35.7176   -5.0433 O   0  0  0  0  0  0  0  0  0  0  0  0
   23.1033  -35.0458   -2.9903 O   0  0  0  0  0  0  0  0  0  0  0  0
  1  2  1  0
  2  3  1  0
  3  4  2  0
  5  3  1  0
  6  5  1  0
  6  7  1  1
  8  7  1  0
  8 16  1  0
  9 10  1  0
  9  8  2  0
 10 11  1  0
 11 16  2  0
 11 12  1  0
 12 13  2  0
 13 14  1  0
 15 14  2  0
 16 15  1  0
 17  6  1  0
 18 17  2  0
 19 17  1  0
 20 19  1  0
 20 23  1  0
 20 21  1  6
 22 21  1  0
 23 25  2  0
 23 24  1  0
M  END
$$$$
