GKV.pdb
     RDKit          3D

 21 20  0  0  1  0  0  0  0  0999 V2000
   25.1979   -8.9527  -20.3007 N   0  0  0  0  0  0  0  0  0  0  0  0
   24.4276   -9.9351  -19.6066 C   0  0  0  0  0  0  0  0  0  0  0  0
   23.3984   -9.3083  -18.7409 C   0  0  0  0  0  0  0  0  0  0  0  0
   22.9473   -8.1755  -19.0548 O   0  0  0  0  0  0  0  0  0  0  0  0
   22.8774   -9.8936  -17.5731 N   0  0  0  0  0  0  0  0  0  0  0  0
   21.8370   -9.2893  -16.8150 C   0  0  1  0  0  0  0  0  0  0  0  0
   21.0088  -10.2621  -16.0139 C   0  0  0  0  0  0  0  0  0  0  0  0
   19.9247   -9.5940  -15.2211 C   0  0  0  0  0  0  0  0  0  0  0  0
   18.5535  -10.1448  -15.5426 C   0  0  0  0  0  0  0  0  0  0  0  0
   17.4980   -9.4484  -14.7124 C   0  0  0  0  0  0  0  0  0  0  0  0
   16.1578   -9.8523  -15.1331 N   0  0  0  0  0  0  0  0  0  0  0  0
   22.3148   -8.1539  -15.9708 C   0  0  0  0  0  0  0  0  0  0  0  0
   23.3235   -8.3682  -15.2534 O   0  0  0  0  0  0  0  0  0  0  0  0
   22.6536   -4.3183  -17.1353 C   0  0  0  0  0  0  0  0  0  0  0  0
   21.9846   -4.4380  -15.8052 C   0  0  2  0  0  0  0  0  0  0  0  0
   22.3534   -3.3233  -14.8533 C   0  0  0  0  0  0  0  0  0  0  0  0
   22.2234   -5.7735  -15.1418 C   0  0  2  0  0  0  0  0  0  0  0  0
   21.7264   -6.8796  -15.9207 N   0  0  0  0  0  0  0  0  0  0  0  0
   21.5497   -5.7654  -13.8155 C   0  0  0  0  0  0  0  0  0  0  0  0
   22.0867   -5.2100  -12.8200 O   0  0  0  0  0  0  0  0  0  0  0  0
   20.3108   -6.3595  -13.6017 O   0  0  0  0  0  0  0  0  0  0  0  0
  2  1  1  0
  3  2  1  0
  4  3  2  0
  5  3  1  0
  6  5  1  0
  6 12  1  0
  6  7  1  1
  8  7  1  0
  9  8  1  0
  9 10  1  0
 10 11  1  0
 12 13  2  0
 15 14  1  6
 16 15  1  0
 17 15  1  0
 18 12  1  0
 17 18  1  6
 19 21  1  0
 19 17  1  0
 20 19  2  0
M  END
$$$$
