GKV.pdb
     RDKit          3D

 21 20  0  0  1  0  0  0  0  0999 V2000
   16.2300  -10.9729  -20.3513 N   0  0  0  0  0  0  0  0  0  0  0  0
   17.5980  -10.6143  -20.1511 C   0  0  0  0  0  0  0  0  0  0  0  0
   17.9560  -10.6146  -18.7111 C   0  0  0  0  0  0  0  0  0  0  0  0
   17.4924   -9.7095  -17.9688 O   0  0  0  0  0  0  0  0  0  0  0  0
   18.7900  -11.5673  -18.0990 N   0  0  0  0  0  0  0  0  0  0  0  0
   19.1574  -11.4913  -16.7273 C   0  0  1  0  0  0  0  0  0  0  0  0
   19.6411  -12.7943  -16.1423 C   0  0  0  0  0  0  0  0  0  0  0  0
   18.6323  -13.8984  -16.2573 C   0  0  0  0  0  0  0  0  0  0  0  0
   19.1383  -15.2028  -15.6834 C   0  0  0  0  0  0  0  0  0  0  0  0
   18.1126  -16.2973  -15.8784 C   0  0  0  0  0  0  0  0  0  0  0  0
   18.6324  -17.5830  -15.4168 N   0  0  0  0  0  0  0  0  0  0  0  0
   20.1084  -10.3766  -16.4394 C   0  0  0  0  0  0  0  0  0  0  0  0
   21.2055  -10.3974  -17.0509 O   0  0  0  0  0  0  0  0  0  0  0  0
   19.9999   -6.9011  -17.2724 C   0  0  0  0  0  0  0  0  0  0  0  0
   20.2575   -6.9059  -15.8010 C   0  0  2  0  0  0  0  0  0  0  0  0
   21.1784   -5.7929  -15.3564 C   0  0  0  0  0  0  0  0  0  0  0  0
   20.7796   -8.2304  -15.2970 C   0  0  2  0  0  0  0  0  0  0  0  0
   19.8693   -9.3196  -15.5460 N   0  0  0  0  0  0  0  0  0  0  0  0
   21.0171   -8.1142  -13.8330 C   0  0  0  0  0  0  0  0  0  0  0  0
   20.1129   -8.4061  -13.0054 O   0  0  0  0  0  0  0  0  0  0  0  0
   22.2288   -7.6847  -13.3031 O   0  0  0  0  0  0  0  0  0  0  0  0
  2  1  1  0
  3  2  1  0
  4  3  2  0
  5  3  1  0
  6  5  1  0
  6 12  1  0
  6  7  1  6
  8  7  1  0
  9  8  1  0
  9 10  1  0
 10 11  1  0
 12 13  2  0
 15 14  1  6
 16 15  1  0
 17 15  1  0
 18 12  1  0
 17 18  1  1
 19 21  1  0
 19 17  1  0
 20 19  2  0
M  END
$$$$
