GKV.pdb
     RDKit          3D

 21 20  0  0  1  0  0  0  0  0999 V2000
   17.1040  -22.8044    2.8560 N   0  0  0  0  0  0  0  0  0  0  0  0
   16.4567  -22.2717    4.0124 C   0  0  0  0  0  0  0  0  0  0  0  0
   15.9672  -20.8911    3.7750 C   0  0  0  0  0  0  0  0  0  0  0  0
   16.1561  -20.3643    2.6472 O   0  0  0  0  0  0  0  0  0  0  0  0
   15.2950  -20.1100    4.7319 N   0  0  0  0  0  0  0  0  0  0  0  0
   14.9474  -18.7507    4.5000 C   0  0  1  0  0  0  0  0  0  0  0  0
   13.8044  -18.2502    5.3467 C   0  0  0  0  0  0  0  0  0  0  0  0
   12.4605  -18.6387    4.8053 C   0  0  0  0  0  0  0  0  0  0  0  0
   11.3235  -18.0802    5.6313 C   0  0  0  0  0  0  0  0  0  0  0  0
    9.9935  -18.5368    5.0740 C   0  0  0  0  0  0  0  0  0  0  0  0
    8.8878  -17.9887    5.8569 N   0  0  0  0  0  0  0  0  0  0  0  0
   16.1208  -17.8294    4.5666 C   0  0  0  0  0  0  0  0  0  0  0  0
   16.9587  -18.0459    5.4772 O   0  0  0  0  0  0  0  0  0  0  0  0
   19.2916  -14.7235    2.4334 C   0  0  0  0  0  0  0  0  0  0  0  0
   18.0675  -15.5780    2.3824 C   0  0  2  0  0  0  0  0  0  0  0  0
   16.9815  -15.0064    1.5000 C   0  0  0  0  0  0  0  0  0  0  0  0
   17.5036  -15.8846    3.7494 C   0  0  2  0  0  0  0  0  0  0  0  0
   16.3536  -16.7518    3.6965 N   0  0  0  0  0  0  0  0  0  0  0  0
   17.1210  -14.6013    4.3974 C   0  0  0  0  0  0  0  0  0  0  0  0
   17.9958  -13.7563    4.7266 O   0  0  0  0  0  0  0  0  0  0  0  0
   15.7997  -14.2664    4.6722 O   0  0  0  0  0  0  0  0  0  0  0  0
  2  1  1  0
  3  2  1  0
  4  3  2  0
  5  3  1  0
  6  5  1  0
  6 12  1  0
  6  7  1  1
  8  7  1  0
  9  8  1  0
  9 10  1  0
 10 11  1  0
 12 13  2  0
 15 14  1  1
 16 15  1  0
 17 15  1  0
 18 12  1  0
 17 18  1  6
 19 21  1  0
 19 17  1  0
 20 19  2  0
M  END
$$$$
