GKV.pdb
     RDKit          3D

 21 20  0  0  1  0  0  0  0  0999 V2000
   28.7816  -20.1755  -17.9663 N   0  0  0  0  0  0  0  0  0  0  0  0
   27.8602  -21.1532  -17.4813 C   0  0  0  0  0  0  0  0  0  0  0  0
   26.8613  -20.5520  -16.5634 C   0  0  0  0  0  0  0  0  0  0  0  0
   27.2660  -19.8561  -15.5954 O   0  0  0  0  0  0  0  0  0  0  0  0
   25.4691  -20.7025  -16.6941 N   0  0  0  0  0  0  0  0  0  0  0  0
   24.5525  -20.1886  -15.7360 C   0  0  1  0  0  0  0  0  0  0  0  0
   23.1702  -19.9271  -16.2790 C   0  0  0  0  0  0  0  0  0  0  0  0
   23.1224  -18.7624  -17.2231 C   0  0  0  0  0  0  0  0  0  0  0  0
   21.7424  -18.5474  -17.8029 C   0  0  0  0  0  0  0  0  0  0  0  0
   21.7694  -17.4369  -18.8296 C   0  0  0  0  0  0  0  0  0  0  0  0
   20.4238  -17.1587  -19.3278 N   0  0  0  0  0  0  0  0  0  0  0  0
   24.5029  -20.9996  -14.4831 C   0  0  0  0  0  0  0  0  0  0  0  0
   24.3054  -22.2331  -14.6156 O   0  0  0  0  0  0  0  0  0  0  0  0
   25.7636  -21.6822   -9.7624 C   0  0  0  0  0  0  0  0  0  0  0  0
   25.7295  -20.8457  -10.9994 C   0  0  2  0  0  0  0  0  0  0  0  0
   25.5726  -19.3699  -10.7134 C   0  0  0  0  0  0  0  0  0  0  0  0
   24.6727  -21.2887  -11.9832 C   0  0  2  0  0  0  0  0  0  0  0  0
   24.6588  -20.4908  -13.1833 N   0  0  0  0  0  0  0  0  0  0  0  0
   23.3452  -21.1974  -11.3180 C   0  0  0  0  0  0  0  0  0  0  0  0
   23.0513  -21.9528  -10.3532 O   0  0  0  0  0  0  0  0  0  0  0  0
   22.3698  -20.2896  -11.7153 O   0  0  0  0  0  0  0  0  0  0  0  0
  2  1  1  0
  3  2  1  0
  4  3  2  0
  5  3  1  0
  6  5  1  0
  6 12  1  0
  6  7  1  6
  8  7  1  0
  9  8  1  0
  9 10  1  0
 10 11  1  0
 12 13  2  0
 15 14  1  1
 16 15  1  0
 17 15  1  0
 18 12  1  0
 17 18  1  6
 19 21  1  0
 19 17  1  0
 20 19  2  0
M  END
$$$$
