GKV.pdb
     RDKit          3D

 21 20  0  0  1  0  0  0  0  0999 V2000
   12.2916  -12.8166  -12.6382 N   0  0  0  0  0  0  0  0  0  0  0  0
   12.1550  -12.0615  -11.4335 C   0  0  0  0  0  0  0  0  0  0  0  0
   13.3076  -11.1497  -11.2287 C   0  0  0  0  0  0  0  0  0  0  0  0
   13.6263  -10.8265  -10.0543 O   0  0  0  0  0  0  0  0  0  0  0  0
   14.0873  -10.6078  -12.2660 N   0  0  0  0  0  0  0  0  0  0  0  0
   15.2085   -9.7684  -12.0197 C   0  0  1  0  0  0  0  0  0  0  0  0
   16.1970   -9.7054  -13.1568 C   0  0  0  0  0  0  0  0  0  0  0  0
   16.8438  -11.0278  -13.4447 C   0  0  0  0  0  0  0  0  0  0  0  0
   16.3736  -11.6264  -14.7514 C   0  0  0  0  0  0  0  0  0  0  0  0
   16.9845  -12.9953  -14.9539 C   0  0  0  0  0  0  0  0  0  0  0  0
   16.3781  -13.6690  -16.1005 N   0  0  0  0  0  0  0  0  0  0  0  0
   14.8233   -8.4028  -11.5543 C   0  0  0  0  0  0  0  0  0  0  0  0
   13.9326   -7.8111  -12.2136 O   0  0  0  0  0  0  0  0  0  0  0  0
   15.7388   -6.8798   -7.6512 C   0  0  0  0  0  0  0  0  0  0  0  0
   14.6379   -6.3870   -8.5323 C   0  0  2  0  0  0  0  0  0  0  0  0
   13.3296   -7.1097   -8.3072 C   0  0  0  0  0  0  0  0  0  0  0  0
   14.9939   -6.4240   -9.9995 C   0  0  2  0  0  0  0  0  0  0  0  0
   15.3770   -7.7393  -10.4471 N   0  0  0  0  0  0  0  0  0  0  0  0
   16.1190   -5.4792  -10.2329 C   0  0  0  0  0  0  0  0  0  0  0  0
   15.9792   -4.2434  -10.0305 O   0  0  0  0  0  0  0  0  0  0  0  0
   17.3674   -5.8978  -10.6799 O   0  0  0  0  0  0  0  0  0  0  0  0
  2  1  1  0
  3  2  1  0
  4  3  2  0
  5  3  1  0
  6  5  1  0
  6 12  1  0
  6  7  1  6
  8  7  1  0
  9  8  1  0
  9 10  1  0
 10 11  1  0
 12 13  2  0
 15 14  1  1
 16 15  1  0
 17 15  1  0
 18 12  1  0
 17 18  1  1
 19 21  1  0
 19 17  1  0
 20 19  2  0
M  END
$$$$
