GKV.pdb
     RDKit          3D

 21 20  0  0  1  0  0  0  0  0999 V2000
   22.1549  -21.1945  -14.3744 N   0  0  0  0  0  0  0  0  0  0  0  0
   21.3107  -20.1129  -13.9774 C   0  0  0  0  0  0  0  0  0  0  0  0
   21.5476  -18.9048  -14.8057 C   0  0  0  0  0  0  0  0  0  0  0  0
   22.4785  -18.9214  -15.6533 O   0  0  0  0  0  0  0  0  0  0  0  0
   20.7975  -17.7187  -14.7153 N   0  0  0  0  0  0  0  0  0  0  0  0
   20.9253  -16.6609  -15.6571 C   0  0  1  0  0  0  0  0  0  0  0  0
   19.6316  -15.9542  -15.9747 C   0  0  0  0  0  0  0  0  0  0  0  0
   18.6003  -16.8625  -16.5758 C   0  0  0  0  0  0  0  0  0  0  0  0
   17.3551  -16.1176  -17.0020 C   0  0  0  0  0  0  0  0  0  0  0  0
   16.3351  -17.0787  -17.5711 C   0  0  0  0  0  0  0  0  0  0  0  0
   15.1906  -16.3544  -18.1204 N   0  0  0  0  0  0  0  0  0  0  0  0
   22.0044  -15.6916  -15.3020 C   0  0  0  0  0  0  0  0  0  0  0  0
   21.8460  -15.0312  -14.2452 O   0  0  0  0  0  0  0  0  0  0  0  0
   25.9599  -15.6264  -17.0418 C   0  0  0  0  0  0  0  0  0  0  0  0
   25.5617  -14.9918  -15.7496 C   0  0  2  0  0  0  0  0  0  0  0  0
   25.7432  -15.9056  -14.5593 C   0  0  0  0  0  0  0  0  0  0  0  0
   24.1514  -14.4519  -15.7664 C   0  0  2  0  0  0  0  0  0  0  0  0
   23.1693  -15.4668  -16.0538 N   0  0  0  0  0  0  0  0  0  0  0  0
   24.0704  -13.3842  -16.7992 C   0  0  0  0  0  0  0  0  0  0  0  0
   23.4056  -13.5549  -17.8559 O   0  0  0  0  0  0  0  0  0  0  0  0
   24.7120  -12.1585  -16.6605 O   0  0  0  0  0  0  0  0  0  0  0  0
  2  1  1  0
  3  2  1  0
  4  3  2  0
  5  3  1  0
  6  5  1  0
  6 12  1  0
  6  7  1  1
  8  7  1  0
  9  8  1  0
  9 10  1  0
 10 11  1  0
 12 13  2  0
 15 14  1  6
 16 15  1  0
 17 15  1  0
 18 12  1  0
 17 18  1  6
 19 21  1  0
 19 17  1  0
 20 19  2  0
M  END
$$$$
