GKV.pdb
     RDKit          3D

 21 20  0  0  1  0  0  0  0  0999 V2000
   21.8996  -29.3287  -10.0652 N   0  0  0  0  0  0  0  0  0  0  0  0
   21.3049  -29.0044  -11.3227 C   0  0  0  0  0  0  0  0  0  0  0  0
   20.8154  -27.6038  -11.3485 C   0  0  0  0  0  0  0  0  0  0  0  0
   20.7084  -26.9767  -10.2620 O   0  0  0  0  0  0  0  0  0  0  0  0
   20.4543  -26.9088  -12.5166 N   0  0  0  0  0  0  0  0  0  0  0  0
   20.0810  -25.5367  -12.5038 C   0  0  1  0  0  0  0  0  0  0  0  0
   20.5256  -24.7622  -13.7190 C   0  0  0  0  0  0  0  0  0  0  0  0
   20.1700  -23.3066  -13.6482 C   0  0  0  0  0  0  0  0  0  0  0  0
   20.5631  -22.5563  -14.9010 C   0  0  0  0  0  0  0  0  0  0  0  0
   20.1181  -21.1133  -14.8124 C   0  0  0  0  0  0  0  0  0  0  0  0
   20.5470  -20.3653  -15.9925 N   0  0  0  0  0  0  0  0  0  0  0  0
   18.6284  -25.3303  -12.2258 C   0  0  0  0  0  0  0  0  0  0  0  0
   17.8186  -25.9380  -12.9694 O   0  0  0  0  0  0  0  0  0  0  0  0
   17.0986  -23.6148   -8.5534 C   0  0  0  0  0  0  0  0  0  0  0  0
   16.3882  -24.5748   -9.4507 C   0  0  2  0  0  0  0  0  0  0  0  0
   16.6292  -26.0206   -9.0820 C   0  0  0  0  0  0  0  0  0  0  0  0
   16.7050  -24.3625  -10.9120 C   0  0  2  0  0  0  0  0  0  0  0  0
   18.1074  -24.5166  -11.2064 N   0  0  0  0  0  0  0  0  0  0  0  0
   16.2719  -22.9908  -11.2912 C   0  0  0  0  0  0  0  0  0  0  0  0
   17.1073  -22.0530  -11.3928 O   0  0  0  0  0  0  0  0  0  0  0  0
   14.9440  -22.6702  -11.5508 O   0  0  0  0  0  0  0  0  0  0  0  0
  2  1  1  0
  3  2  1  0
  4  3  2  0
  5  3  1  0
  6  5  1  0
  6 12  1  0
  6  7  1  6
  8  7  1  0
  9  8  1  0
  9 10  1  0
 10 11  1  0
 12 13  2  0
 15 14  1  1
 16 15  1  0
 17 15  1  0
 18 12  1  0
 17 18  1  1
 19 21  1  0
 19 17  1  0
 20 19  2  0
M  END
$$$$
