GKV.pdb
     RDKit          3D

 21 20  0  0  1  0  0  0  0  0999 V2000
   19.2735  -19.5978  -13.7113 N   0  0  0  0  0  0  0  0  0  0  0  0
   19.8782  -19.7692  -14.9939 C   0  0  0  0  0  0  0  0  0  0  0  0
   21.3074  -19.3706  -14.9798 C   0  0  0  0  0  0  0  0  0  0  0  0
   21.6655  -18.4164  -14.2405 O   0  0  0  0  0  0  0  0  0  0  0  0
   22.3132  -19.9889  -15.7439 N   0  0  0  0  0  0  0  0  0  0  0  0
   23.6680  -19.5576  -15.7146 C   0  0  1  0  0  0  0  0  0  0  0  0
   24.6586  -20.5943  -16.1813 C   0  0  0  0  0  0  0  0  0  0  0  0
   24.4107  -21.9499  -15.5888 C   0  0  0  0  0  0  0  0  0  0  0  0
   25.3995  -22.9829  -16.0808 C   0  0  0  0  0  0  0  0  0  0  0  0
   25.0457  -24.3505  -15.5399 C   0  0  0  0  0  0  0  0  0  0  0  0
   25.9593  -25.3659  -16.0600 N   0  0  0  0  0  0  0  0  0  0  0  0
   23.8787  -18.2505  -16.4054 C   0  0  0  0  0  0  0  0  0  0  0  0
   23.2350  -18.0623  -17.4676 O   0  0  0  0  0  0  0  0  0  0  0  0
   24.8762  -13.4545  -16.2271 C   0  0  0  0  0  0  0  0  0  0  0  0
   24.8274  -14.8016  -15.5835 C   0  0  2  0  0  0  0  0  0  0  0  0
   25.9080  -15.0028  -14.5461 C   0  0  0  0  0  0  0  0  0  0  0  0
   24.8625  -15.9347  -16.5814 C   0  0  2  0  0  0  0  0  0  0  0  0
   24.7333  -17.2288  -15.9602 N   0  0  0  0  0  0  0  0  0  0  0  0
   26.1533  -15.8707  -17.3182 C   0  0  0  0  0  0  0  0  0  0  0  0
   27.1146  -16.6234  -17.0065 O   0  0  0  0  0  0  0  0  0  0  0  0
   26.3696  -14.9924  -18.3743 O   0  0  0  0  0  0  0  0  0  0  0  0
  2  1  1  0
  3  2  1  0
  4  3  2  0
  5  3  1  0
  6  5  1  0
  6 12  1  0
  6  7  1  6
  8  7  1  0
  9  8  1  0
  9 10  1  0
 10 11  1  0
 12 13  2  0
 15 14  1  6
 16 15  1  0
 17 15  1  0
 18 12  1  0
 17 18  1  1
 19 21  1  0
 19 17  1  0
 20 19  2  0
M  END
$$$$
