GKV.pdb
     RDKit          3D

 21 20  0  0  1  0  0  0  0  0999 V2000
   19.3873  -14.7318  -17.8515 N   0  0  0  0  0  0  0  0  0  0  0  0
   19.0490  -14.2840  -16.5381 C   0  0  0  0  0  0  0  0  0  0  0  0
   19.0577  -12.8028  -16.4487 C   0  0  0  0  0  0  0  0  0  0  0  0
   20.0436  -12.1713  -16.9117 O   0  0  0  0  0  0  0  0  0  0  0  0
   18.0290  -12.0345  -15.8750 N   0  0  0  0  0  0  0  0  0  0  0  0
   18.1003  -10.6179  -15.7730 C   0  0  1  0  0  0  0  0  0  0  0  0
   16.7823   -9.9513  -15.4686 C   0  0  0  0  0  0  0  0  0  0  0  0
   15.6980  -10.3297  -16.4335 C   0  0  0  0  0  0  0  0  0  0  0  0
   14.3598   -9.7334  -16.0586 C   0  0  0  0  0  0  0  0  0  0  0  0
   13.2916  -10.1829  -17.0308 C   0  0  0  0  0  0  0  0  0  0  0  0
   11.9904   -9.6275  -16.6643 N   0  0  0  0  0  0  0  0  0  0  0  0
   19.1745  -10.1535  -14.8454 C   0  0  0  0  0  0  0  0  0  0  0  0
   19.0864  -10.5235  -13.6482 O   0  0  0  0  0  0  0  0  0  0  0  0
   23.1036   -9.0008  -16.0002 C   0  0  0  0  0  0  0  0  0  0  0  0
   22.6508   -9.3781  -14.6277 C   0  0  2  0  0  0  0  0  0  0  0  0
   22.7124  -10.8664  -14.3710 C   0  0  0  0  0  0  0  0  0  0  0  0
   21.2705   -8.8615  -14.2981 C   0  0  2  0  0  0  0  0  0  0  0  0
   20.2627   -9.3434  -15.2088 N   0  0  0  0  0  0  0  0  0  0  0  0
   21.3029   -7.3749  -14.3441 C   0  0  0  0  0  0  0  0  0  0  0  0
   21.9594   -6.7151  -13.4948 O   0  0  0  0  0  0  0  0  0  0  0  0
   20.6228   -6.6410  -15.3097 O   0  0  0  0  0  0  0  0  0  0  0  0
  2  1  1  0
  3  2  1  0
  4  3  2  0
  5  3  1  0
  6  5  1  0
  6 12  1  0
  6  7  1  1
  8  7  1  0
  9  8  1  0
  9 10  1  0
 10 11  1  0
 12 13  2  0
 15 14  1  6
 16 15  1  0
 17 15  1  0
 18 12  1  0
 17 18  1  6
 19 21  1  0
 19 17  1  0
 20 19  2  0
M  END
$$$$
