GKV.pdb
     RDKit          3D

 21 20  0  0  1  0  0  0  0  0999 V2000
   24.7419  -20.7713   -9.1297 N   0  0  0  0  0  0  0  0  0  0  0  0
   23.5236  -20.7508   -8.3844 C   0  0  0  0  0  0  0  0  0  0  0  0
   22.3664  -21.1539   -9.2211 C   0  0  0  0  0  0  0  0  0  0  0  0
   22.5281  -21.2780  -10.4636 O   0  0  0  0  0  0  0  0  0  0  0  0
   21.0769  -21.4132   -8.7235 N   0  0  0  0  0  0  0  0  0  0  0  0
   20.0276  -21.9109   -9.5442 C   0  0  1  0  0  0  0  0  0  0  0  0
   18.8741  -22.5102   -8.7799 C   0  0  0  0  0  0  0  0  0  0  0  0
   19.2543  -23.7459   -8.0193 C   0  0  0  0  0  0  0  0  0  0  0  0
   18.1020  -24.3042   -7.2147 C   0  0  0  0  0  0  0  0  0  0  0  0
   18.5459  -25.5205   -6.4327 C   0  0  0  0  0  0  0  0  0  0  0  0
   17.4635  -26.0144   -5.5838 N   0  0  0  0  0  0  0  0  0  0  0  0
   19.5563  -20.9171  -10.5543 C   0  0  0  0  0  0  0  0  0  0  0  0
   19.1766  -19.8026  -10.1164 O   0  0  0  0  0  0  0  0  0  0  0  0
   20.5815  -20.9701  -14.7168 C   0  0  0  0  0  0  0  0  0  0  0  0
   20.1000  -19.8022  -13.9197 C   0  0  2  0  0  0  0  0  0  0  0  0
   21.2179  -19.0507  -13.2340 C   0  0  0  0  0  0  0  0  0  0  0  0
   19.0412  -20.1732  -12.9087 C   0  0  2  0  0  0  0  0  0  0  0  0
   19.5068  -21.1344  -11.9410 N   0  0  0  0  0  0  0  0  0  0  0  0
   17.8737  -20.7373  -13.6380 C   0  0  0  0  0  0  0  0  0  0  0  0
   17.5574  -21.9506  -13.5137 O   0  0  0  0  0  0  0  0  0  0  0  0
   17.0785  -19.9718  -14.4837 O   0  0  0  0  0  0  0  0  0  0  0  0
  2  1  1  0
  3  2  1  0
  4  3  2  0
  5  3  1  0
  6  5  1  0
  6 12  1  0
  6  7  1  1
  8  7  1  0
  9  8  1  0
  9 10  1  0
 10 11  1  0
 12 13  2  0
 15 14  1  1
 16 15  1  0
 17 15  1  0
 18 12  1  0
 17 18  1  1
 19 21  1  0
 19 17  1  0
 20 19  2  0
M  END
$$$$
