GKV.pdb
     RDKit          3D

 21 20  0  0  1  0  0  0  0  0999 V2000
   30.7883  -25.1344  -15.9898 N   0  0  0  0  0  0  0  0  0  0  0  0
   29.7378  -24.7415  -16.8741 C   0  0  0  0  0  0  0  0  0  0  0  0
   29.0578  -23.5111  -16.3993 C   0  0  0  0  0  0  0  0  0  0  0  0
   29.3949  -23.0192  -15.2904 O   0  0  0  0  0  0  0  0  0  0  0  0
   28.0455  -22.8384  -17.1066 N   0  0  0  0  0  0  0  0  0  0  0  0
   27.4640  -21.6273  -16.6403 C   0  0  1  0  0  0  0  0  0  0  0  0
   26.9316  -20.7345  -17.7328 C   0  0  0  0  0  0  0  0  0  0  0  0
   26.2703  -19.4953  -17.2064 C   0  0  0  0  0  0  0  0  0  0  0  0
   25.7731  -18.5933  -18.3137 C   0  0  0  0  0  0  0  0  0  0  0  0
   25.3008  -17.2732  -17.7459 C   0  0  0  0  0  0  0  0  0  0  0  0
   24.8685  -16.3744  -18.8143 N   0  0  0  0  0  0  0  0  0  0  0  0
   26.4476  -21.8437  -15.5678 C   0  0  0  0  0  0  0  0  0  0  0  0
   25.5186  -22.6497  -15.8237 O   0  0  0  0  0  0  0  0  0  0  0  0
   25.2030  -21.6027  -10.7553 C   0  0  0  0  0  0  0  0  0  0  0  0
   26.1386  -21.2739  -11.8723 C   0  0  2  0  0  0  0  0  0  0  0  0
   26.6758  -19.8629  -11.8003 C   0  0  0  0  0  0  0  0  0  0  0  0
   25.5401  -21.5215  -13.2366 C   0  0  2  0  0  0  0  0  0  0  0  0
   26.4540  -21.2200  -14.3094 N   0  0  0  0  0  0  0  0  0  0  0  0
   24.3241  -20.6758  -13.3757 C   0  0  0  0  0  0  0  0  0  0  0  0
   24.3727  -19.5644  -13.9671 O   0  0  0  0  0  0  0  0  0  0  0  0
   23.0860  -21.0564  -12.8700 O   0  0  0  0  0  0  0  0  0  0  0  0
  2  1  1  0
  3  2  1  0
  4  3  2  0
  5  3  1  0
  6  5  1  0
  6 12  1  0
  6  7  1  6
  8  7  1  0
  9  8  1  0
  9 10  1  0
 10 11  1  0
 12 13  2  0
 15 14  1  1
 16 15  1  0
 17 15  1  0
 18 12  1  0
 17 18  1  6
 19 21  1  0
 19 17  1  0
 20 19  2  0
M  END
$$$$
