GKV.pdb
     RDKit          3D

 21 20  0  0  1  0  0  0  0  0999 V2000
   23.2814  -20.4428   -7.9647 N   0  0  0  0  0  0  0  0  0  0  0  0
   24.2697  -21.1508   -8.7144 C   0  0  0  0  0  0  0  0  0  0  0  0
   24.2224  -20.7917  -10.1533 C   0  0  0  0  0  0  0  0  0  0  0  0
   23.3727  -19.9479  -10.5421 O   0  0  0  0  0  0  0  0  0  0  0  0
   25.0707  -21.3320  -11.1363 N   0  0  0  0  0  0  0  0  0  0  0  0
   25.0397  -20.9021  -12.4915 C   0  0  1  0  0  0  0  0  0  0  0  0
   26.2048  -21.3814  -13.3204 C   0  0  0  0  0  0  0  0  0  0  0  0
   26.1844  -20.8487  -14.7225 C   0  0  0  0  0  0  0  0  0  0  0  0
   27.3744  -21.3129  -15.5321 C   0  0  0  0  0  0  0  0  0  0  0  0
   27.3445  -20.6970  -16.9133 C   0  0  0  0  0  0  0  0  0  0  0  0
   28.4977  -21.1310  -17.6994 N   0  0  0  0  0  0  0  0  0  0  0  0
   23.7371  -21.1870  -13.1638 C   0  0  0  0  0  0  0  0  0  0  0  0
   23.2873  -22.3547  -13.0533 O   0  0  0  0  0  0  0  0  0  0  0  0
   21.2659  -18.1014  -14.9679 C   0  0  0  0  0  0  0  0  0  0  0  0
   20.7440  -19.3653  -14.3665 C   0  0  2  0  0  0  0  0  0  0  0  0
   20.3337  -19.2087  -12.9202 C   0  0  0  0  0  0  0  0  0  0  0  0
   21.7037  -20.5236  -14.5007 C   0  0  2  0  0  0  0  0  0  0  0  0
   22.9871  -20.2566  -13.9016 N   0  0  0  0  0  0  0  0  0  0  0  0
   21.8887  -20.8140  -15.9480 C   0  0  0  0  0  0  0  0  0  0  0  0
   22.9666  -20.5259  -16.5334 O   0  0  0  0  0  0  0  0  0  0  0  0
   20.9005  -21.4093  -16.7241 O   0  0  0  0  0  0  0  0  0  0  0  0
  2  1  1  0
  3  2  1  0
  4  3  2  0
  5  3  1  0
  6  5  1  0
  6 12  1  0
  6  7  1  6
  8  7  1  0
  9  8  1  0
  9 10  1  0
 10 11  1  0
 12 13  2  0
 15 14  1  1
 16 15  1  0
 17 15  1  0
 18 12  1  0
 17 18  1  6
 19 21  1  0
 19 17  1  0
 20 19  2  0
M  END
$$$$
