GKV.pdb
     RDKit          3D

 21 20  0  0  1  0  0  0  0  0999 V2000
   33.3319  -32.7397  -15.6898 N   0  0  0  0  0  0  0  0  0  0  0  0
   32.7243  -32.0677  -16.7939 C   0  0  0  0  0  0  0  0  0  0  0  0
   31.3877  -31.5314  -16.4364 C   0  0  0  0  0  0  0  0  0  0  0  0
   30.9458  -31.7250  -15.2735 O   0  0  0  0  0  0  0  0  0  0  0  0
   30.5598  -30.8089  -17.3141 N   0  0  0  0  0  0  0  0  0  0  0  0
   29.3623  -30.1734  -16.8846 C   0  0  1  0  0  0  0  0  0  0  0  0
   29.2499  -28.7251  -17.2892 C   0  0  0  0  0  0  0  0  0  0  0  0
   28.0478  -28.0450  -16.7039 C   0  0  0  0  0  0  0  0  0  0  0  0
   27.9966  -26.5725  -17.0444 C   0  0  0  0  0  0  0  0  0  0  0  0
   26.7744  -25.9308  -16.4258 C   0  0  0  0  0  0  0  0  0  0  0  0
   26.7011  -24.5132  -16.7736 N   0  0  0  0  0  0  0  0  0  0  0  0
   28.1331  -30.9393  -17.2483 C   0  0  0  0  0  0  0  0  0  0  0  0
   27.9865  -31.2301  -18.4616 O   0  0  0  0  0  0  0  0  0  0  0  0
   25.6167  -32.9190  -14.3410 C   0  0  0  0  0  0  0  0  0  0  0  0
   25.7824  -33.3197  -15.7704 C   0  0  2  0  0  0  0  0  0  0  0  0
   26.8882  -34.3288  -15.9791 C   0  0  0  0  0  0  0  0  0  0  0  0
   25.9867  -32.1425  -16.6941 C   0  0  2  0  0  0  0  0  0  0  0  0
   27.1409  -31.3534  -16.3446 N   0  0  0  0  0  0  0  0  0  0  0  0
   24.7715  -31.2861  -16.6379 C   0  0  0  0  0  0  0  0  0  0  0  0
   24.8076  -30.1454  -16.1041 O   0  0  0  0  0  0  0  0  0  0  0  0
   23.5478  -31.6881  -17.1618 O   0  0  0  0  0  0  0  0  0  0  0  0
  2  1  1  0
  3  2  1  0
  4  3  2  0
  5  3  1  0
  6  5  1  0
  6 12  1  0
  6  7  1  6
  8  7  1  0
  9  8  1  0
  9 10  1  0
 10 11  1  0
 12 13  2  0
 15 14  1  1
 16 15  1  0
 17 15  1  0
 18 12  1  0
 17 18  1  1
 19 21  1  0
 19 17  1  0
 20 19  2  0
M  END
$$$$
