GKV.pdb
     RDKit          3D

 21 20  0  0  1  0  0  0  0  0999 V2000
   13.5810  -10.6783  -15.1733 N   0  0  0  0  0  0  0  0  0  0  0  0
   14.5018   -9.5873  -15.1301 C   0  0  0  0  0  0  0  0  0  0  0  0
   15.8880  -10.0330  -15.4154 C   0  0  0  0  0  0  0  0  0  0  0  0
   16.4653  -10.7900  -14.5913 O   0  0  0  0  0  0  0  0  0  0  0  0
   16.6217   -9.6679  -16.5582 N   0  0  0  0  0  0  0  0  0  0  0  0
   17.9654  -10.0836  -16.7679 C   0  0  1  0  0  0  0  0  0  0  0  0
   18.3488  -10.2326  -18.2187 C   0  0  0  0  0  0  0  0  0  0  0  0
   19.7359  -10.7723  -18.4055 C   0  0  0  0  0  0  0  0  0  0  0  0
   20.0933  -10.9490  -19.8642 C   0  0  0  0  0  0  0  0  0  0  0  0
   21.4648  -11.5728  -19.9988 C   0  0  0  0  0  0  0  0  0  0  0  0
   21.7654  -11.8667  -21.3986 N   0  0  0  0  0  0  0  0  0  0  0  0
   18.9563   -9.2503  -16.0237 C   0  0  0  0  0  0  0  0  0  0  0  0
   18.7304   -8.0157  -15.9710 O   0  0  0  0  0  0  0  0  0  0  0  0
   22.7366   -9.0142  -12.7682 C   0  0  0  0  0  0  0  0  0  0  0  0
   21.9783   -9.7940  -13.7920 C   0  0  2  0  0  0  0  0  0  0  0  0
   22.8748  -10.5409  -14.7526 C   0  0  0  0  0  0  0  0  0  0  0  0
   20.9929   -8.9510  -14.5662 C   0  0  2  0  0  0  0  0  0  0  0  0
   20.1081   -9.7396  -15.3862 N   0  0  0  0  0  0  0  0  0  0  0  0
   21.7570   -8.0123  -15.4311 C   0  0  0  0  0  0  0  0  0  0  0  0
   22.0192   -8.3032  -16.6287 O   0  0  0  0  0  0  0  0  0  0  0  0
   22.2176   -6.7818  -14.9759 O   0  0  0  0  0  0  0  0  0  0  0  0
  2  1  1  0
  3  2  1  0
  4  3  2  0
  5  3  1  0
  6  5  1  0
  6 12  1  0
  6  7  1  6
  8  7  1  0
  9  8  1  0
  9 10  1  0
 10 11  1  0
 12 13  2  0
 15 14  1  1
 16 15  1  0
 17 15  1  0
 18 12  1  0
 17 18  1  6
 19 21  1  0
 19 17  1  0
 20 19  2  0
M  END
$$$$
