AFE.pdb
     RDKit          3D

 26 26  0  0  1  0  0  0  0  0999 V2000
   26.3538  -20.6374  -17.8612 C   0  0  0  0  0  0  0  0  0  0  0  0
   27.3675  -21.4571  -17.0694 C   0  0  2  0  0  0  0  0  0  0  0  0
   27.5048  -22.7298  -17.7463 N   0  0  0  0  0  0  0  0  0  0  0  0
   26.8890  -21.6448  -15.6889 C   0  0  0  0  0  0  0  0  0  0  0  0
   26.2142  -22.6508  -15.3543 O   0  0  0  0  0  0  0  0  0  0  0  0
   27.1799  -20.6851  -14.6893 N   0  0  0  0  0  0  0  0  0  0  0  0
   26.7387  -20.9119  -13.3276 C   0  0  1  0  0  0  0  0  0  0  0  0
   27.5571  -20.1130  -12.3418 C   0  0  0  0  0  0  0  0  0  0  0  0
   27.1158  -20.2591  -10.9539 C   0  0  0  0  0  0  0  0  0  0  0  0
   26.1775  -19.4165  -10.4021 C   0  0  0  0  0  0  0  0  0  0  0  0
   25.7239  -19.5039   -9.1070 C   0  0  0  0  0  0  0  0  0  0  0  0
   26.2507  -20.5122   -8.3041 C   0  0  0  0  0  0  0  0  0  0  0  0
   27.1917  -21.3719   -8.8270 C   0  0  0  0  0  0  0  0  0  0  0  0
   27.6270  -21.2555  -10.1373 C   0  0  0  0  0  0  0  0  0  0  0  0
   25.3409  -20.3918  -13.2365 C   0  0  0  0  0  0  0  0  0  0  0  0
   24.9840  -19.3373  -13.8235 O   0  0  0  0  0  0  0  0  0  0  0  0
   24.3538  -21.0561  -12.4893 N   0  0  0  0  0  0  0  0  0  0  0  0
   22.9527  -20.6112  -12.4157 C   0  0  1  0  0  0  0  0  0  0  0  0
   22.1303  -21.2857  -13.4474 C   0  0  0  0  0  0  0  0  0  0  0  0
   21.6272  -20.3368  -14.4848 C   0  0  0  0  0  0  0  0  0  0  0  0
   20.2304  -20.5344  -14.8863 C   0  0  0  0  0  0  0  0  0  0  0  0
   19.8325  -21.6272  -15.3202 O   0  0  0  0  0  0  0  0  0  0  0  0
   22.4451  -20.8863  -11.0537 C   0  0  0  0  0  0  0  0  0  0  0  0
   23.0814  -21.6550  -10.1054 O   0  0  0  0  0  0  0  0  0  0  0  0
   19.3428  -19.4792  -14.7775 O   0  0  0  0  0  0  0  0  0  0  0  0
   21.3237  -20.3911  -10.6838 O   0  0  0  0  0  0  0  0  0  0  0  0
  2  4  1  0
  2  1  1  6
  3  2  1  0
  4  5  2  0
  6  7  1  0
  6  4  1  0
  7  8  1  1
  8  9  1  0
  9 14  2  0
 10 11  2  0
 10  9  1  0
 11 12  1  0
 12 13  2  0
 14 13  1  0
 15 16  2  0
 15  7  1  0
 17 15  1  0
 18 23  1  0
 18 17  1  0
 18 19  1  6
 20 19  1  0
 20 21  1  0
 21 25  1  0
 22 21  2  0
 23 24  1  0
 26 23  2  0
M  END
$$$$
