AFE.pdb
     RDKit          3D

 26 26  0  0  1  0  0  0  0  0999 V2000
   27.9347  -18.8482  -14.0615 C   0  0  0  0  0  0  0  0  0  0  0  0
   28.4696  -19.9402  -13.1407 C   0  0  2  0  0  0  0  0  0  0  0  0
   29.0899  -20.9399  -13.9848 N   0  0  0  0  0  0  0  0  0  0  0  0
   27.3634  -20.5228  -12.3617 C   0  0  0  0  0  0  0  0  0  0  0  0
   26.7857  -21.5790  -12.7222 O   0  0  0  0  0  0  0  0  0  0  0  0
   26.9155  -19.9008  -11.1712 N   0  0  0  0  0  0  0  0  0  0  0  0
   25.8458  -20.5073  -10.4041 C   0  0  1  0  0  0  0  0  0  0  0  0
   25.6862  -19.8424   -9.0579 C   0  0  0  0  0  0  0  0  0  0  0  0
   26.8419  -20.0121   -8.1759 C   0  0  0  0  0  0  0  0  0  0  0  0
   27.4013  -21.2492   -7.9485 C   0  0  0  0  0  0  0  0  0  0  0  0
   28.4853  -21.4712   -7.1323 C   0  0  0  0  0  0  0  0  0  0  0  0
   29.0517  -20.3699   -6.4957 C   0  0  0  0  0  0  0  0  0  0  0  0
   28.5148  -19.1181   -6.7028 C   0  0  0  0  0  0  0  0  0  0  0  0
   27.4212  -18.9297   -7.5323 C   0  0  0  0  0  0  0  0  0  0  0  0
   24.5797  -20.2510  -11.1552 C   0  0  0  0  0  0  0  0  0  0  0  0
   24.2899  -19.1102  -11.6008 O   0  0  0  0  0  0  0  0  0  0  0  0
   23.6482  -21.2736  -11.4016 N   0  0  0  0  0  0  0  0  0  0  0  0
   22.5131  -21.1337  -12.3281 C   0  0  1  0  0  0  0  0  0  0  0  0
   22.4024  -22.3198  -13.2094 C   0  0  0  0  0  0  0  0  0  0  0  0
   21.2720  -22.2059  -14.1784 C   0  0  0  0  0  0  0  0  0  0  0  0
   21.0874  -23.3630  -15.0605 C   0  0  0  0  0  0  0  0  0  0  0  0
   20.1246  -23.4318  -15.8410 O   0  0  0  0  0  0  0  0  0  0  0  0
   21.2819  -20.9329  -11.5331 C   0  0  0  0  0  0  0  0  0  0  0  0
   21.1115  -21.3050  -10.2188 O   0  0  0  0  0  0  0  0  0  0  0  0
   22.0070  -24.3954  -15.0183 O   0  0  0  0  0  0  0  0  0  0  0  0
   20.2643  -20.3730  -12.0721 O   0  0  0  0  0  0  0  0  0  0  0  0
  2  4  1  0
  2  1  1  6
  3  2  1  0
  4  5  2  0
  6  7  1  0
  6  4  1  0
  7  8  1  1
  8  9  1  0
  9 14  2  0
 10 11  2  0
 10  9  1  0
 11 12  1  0
 12 13  2  0
 14 13  1  0
 15 16  2  0
 15  7  1  0
 17 15  1  0
 18 23  1  0
 18 17  1  0
 18 19  1  1
 20 19  1  0
 20 21  1  0
 21 25  1  0
 22 21  2  0
 23 24  1  0
 26 23  2  0
M  END
$$$$
