AFE.pdb
     RDKit          3D

 26 26  0  0  1  0  0  0  0  0999 V2000
   19.8723   -8.3002  -19.2871 C   0  0  0  0  0  0  0  0  0  0  0  0
   20.8497   -8.5910  -18.1529 C   0  0  2  0  0  0  0  0  0  0  0  0
   20.7577  -10.0076  -17.8670 N   0  0  0  0  0  0  0  0  0  0  0  0
   20.4925   -7.7914  -16.9685 C   0  0  0  0  0  0  0  0  0  0  0  0
   19.4642   -8.0385  -16.2896 O   0  0  0  0  0  0  0  0  0  0  0  0
   21.3081   -6.7092  -16.5577 N   0  0  0  0  0  0  0  0  0  0  0  0
   20.9742   -5.9770  -15.3524 C   0  0  1  0  0  0  0  0  0  0  0  0
   22.0915   -6.0429  -14.3390 C   0  0  0  0  0  0  0  0  0  0  0  0
   22.1870   -7.3306  -13.6497 C   0  0  0  0  0  0  0  0  0  0  0  0
   23.0450   -8.3177  -14.0793 C   0  0  0  0  0  0  0  0  0  0  0  0
   23.1790   -9.5452  -13.4743 C   0  0  0  0  0  0  0  0  0  0  0  0
   22.3936   -9.8029  -12.3538 C   0  0  0  0  0  0  0  0  0  0  0  0
   21.5248   -8.8352  -11.8989 C   0  0  0  0  0  0  0  0  0  0  0  0
   21.4147   -7.6081  -12.5328 C   0  0  0  0  0  0  0  0  0  0  0  0
   20.8429   -4.5410  -15.7444 C   0  0  0  0  0  0  0  0  0  0  0  0
   21.7013   -3.9668  -16.4637 O   0  0  0  0  0  0  0  0  0  0  0  0
   19.7520   -3.7595  -15.3285 N   0  0  0  0  0  0  0  0  0  0  0  0
   19.5759   -2.3460  -15.6993 C   0  0  1  0  0  0  0  0  0  0  0  0
   18.3177   -2.1525  -16.4577 C   0  0  0  0  0  0  0  0  0  0  0  0
   18.0979   -0.7265  -16.8422 C   0  0  0  0  0  0  0  0  0  0  0  0
   18.6917   -0.3268  -18.1224 C   0  0  0  0  0  0  0  0  0  0  0  0
   19.1334   -1.1696  -18.9195 O   0  0  0  0  0  0  0  0  0  0  0  0
   19.5941   -1.5322  -14.4640 C   0  0  0  0  0  0  0  0  0  0  0  0
   20.2127   -0.3106  -14.3227 O   0  0  0  0  0  0  0  0  0  0  0  0
   18.7585    1.0169  -18.4433 O   0  0  0  0  0  0  0  0  0  0  0  0
   19.0004   -1.9617  -13.4140 O   0  0  0  0  0  0  0  0  0  0  0  0
  2  4  1  0
  2  1  1  6
  3  2  1  0
  4  5  2  0
  6  7  1  0
  6  4  1  0
  7  8  1  1
  8  9  1  0
  9 14  2  0
 10 11  2  0
 10  9  1  0
 11 12  1  0
 12 13  2  0
 14 13  1  0
 15 16  2  0
 15  7  1  0
 17 15  1  0
 18 23  1  0
 18 17  1  0
 18 19  1  1
 20 19  1  0
 20 21  1  0
 21 25  1  0
 22 21  2  0
 23 24  1  0
 26 23  2  0
M  END
$$$$
