AFE.pdb
     RDKit          3D

 26 26  0  0  1  0  0  0  0  0999 V2000
   21.6431   -9.8355  -21.4175 C   0  0  0  0  0  0  0  0  0  0  0  0
   21.9554  -10.7172  -20.2127 C   0  0  2  0  0  0  0  0  0  0  0  0
   21.2350  -11.9594  -20.3987 N   0  0  0  0  0  0  0  0  0  0  0  0
   21.5281  -10.0418  -18.9753 C   0  0  0  0  0  0  0  0  0  0  0  0
   20.3835  -10.2184  -18.4874 O   0  0  0  0  0  0  0  0  0  0  0  0
   22.4060   -9.1646  -18.2938 N   0  0  0  0  0  0  0  0  0  0  0  0
   21.9547   -8.4873  -17.0946 C   0  0  1  0  0  0  0  0  0  0  0  0
   23.0791   -8.3146  -16.1018 C   0  0  0  0  0  0  0  0  0  0  0  0
   22.6812   -7.6230  -14.8748 C   0  0  0  0  0  0  0  0  0  0  0  0
   22.7941   -6.2570  -14.7467 C   0  0  0  0  0  0  0  0  0  0  0  0
   22.4373   -5.5521  -13.6213 C   0  0  0  0  0  0  0  0  0  0  0  0
   21.9287   -6.2707  -12.5425 C   0  0  0  0  0  0  0  0  0  0  0  0
   21.8032   -7.6393  -12.6394 C   0  0  0  0  0  0  0  0  0  0  0  0
   22.1726   -8.3186  -13.7891 C   0  0  0  0  0  0  0  0  0  0  0  0
   21.5403   -7.1124  -17.5078 C   0  0  0  0  0  0  0  0  0  0  0  0
   22.2120   -6.4333  -18.3273 O   0  0  0  0  0  0  0  0  0  0  0  0
   20.3775   -6.5087  -17.0005 N   0  0  0  0  0  0  0  0  0  0  0  0
   19.9140   -5.1709  -17.4028 C   0  0  1  0  0  0  0  0  0  0  0  0
   18.5404   -5.2326  -17.9550 C   0  0  0  0  0  0  0  0  0  0  0  0
   18.0544   -3.9007  -18.4235 C   0  0  0  0  0  0  0  0  0  0  0  0
   16.6896   -3.8880  -18.9605 C   0  0  0  0  0  0  0  0  0  0  0  0
   15.9769   -4.9040  -18.9346 O   0  0  0  0  0  0  0  0  0  0  0  0
   19.9847   -4.2774  -16.2258 C   0  0  0  0  0  0  0  0  0  0  0  0
   20.4262   -2.9736  -16.2395 O   0  0  0  0  0  0  0  0  0  0  0  0
   16.1912   -2.7185  -19.5053 O   0  0  0  0  0  0  0  0  0  0  0  0
   19.6174   -4.7112  -15.0785 O   0  0  0  0  0  0  0  0  0  0  0  0
  2  4  1  0
  2  1  1  6
  3  2  1  0
  4  5  2  0
  6  7  1  0
  6  4  1  0
  7  8  1  1
  8  9  1  0
  9 14  2  0
 10 11  2  0
 10  9  1  0
 11 12  1  0
 12 13  2  0
 14 13  1  0
 15 16  2  0
 15  7  1  0
 17 15  1  0
 18 23  1  0
 18 17  1  0
 18 19  1  1
 20 19  1  0
 20 21  1  0
 21 25  1  0
 22 21  2  0
 23 24  1  0
 26 23  2  0
M  END
$$$$
