AFE.pdb
     RDKit          3D

 26 26  0  0  1  0  0  0  0  0999 V2000
   26.4355  -22.1819  -17.5317 C   0  0  0  0  0  0  0  0  0  0  0  0
   27.4006  -22.6783  -16.4599 C   0  0  2  0  0  0  0  0  0  0  0  0
   27.6806  -24.0684  -16.7529 N   0  0  0  0  0  0  0  0  0  0  0  0
   26.7857  -22.5349  -15.1291 C   0  0  0  0  0  0  0  0  0  0  0  0
   25.8723  -23.3037  -14.7367 O   0  0  0  0  0  0  0  0  0  0  0  0
   27.2122  -21.5144  -14.2450 N   0  0  0  0  0  0  0  0  0  0  0  0
   26.6274  -21.4211  -12.9222 C   0  0  1  0  0  0  0  0  0  0  0  0
   27.5084  -20.6321  -11.9836 C   0  0  0  0  0  0  0  0  0  0  0  0
   26.9271  -20.4358  -10.6547 C   0  0  0  0  0  0  0  0  0  0  0  0
   27.3699  -21.1447   -9.5609 C   0  0  0  0  0  0  0  0  0  0  0  0
   26.8643  -21.0042   -8.2900 C   0  0  0  0  0  0  0  0  0  0  0  0
   25.8371  -20.0833   -8.1009 C   0  0  0  0  0  0  0  0  0  0  0  0
   25.3717  -19.3580   -9.1758 C   0  0  0  0  0  0  0  0  0  0  0  0
   25.9041  -19.5246  -10.4441 C   0  0  0  0  0  0  0  0  0  0  0  0
   25.3598  -20.6433  -13.0667 C   0  0  0  0  0  0  0  0  0  0  0  0
   25.3026  -19.5846  -13.7449 O   0  0  0  0  0  0  0  0  0  0  0  0
   24.1664  -21.0566  -12.4512 N   0  0  0  0  0  0  0  0  0  0  0  0
   22.8471  -20.4877  -12.7708 C   0  0  1  0  0  0  0  0  0  0  0  0
   22.3109  -21.0704  -14.0233 C   0  0  0  0  0  0  0  0  0  0  0  0
   20.9704  -20.5178  -14.3804 C   0  0  0  0  0  0  0  0  0  0  0  0
   20.3514  -21.1046  -15.5736 C   0  0  0  0  0  0  0  0  0  0  0  0
   20.9657  -21.9131  -16.2875 O   0  0  0  0  0  0  0  0  0  0  0  0
   21.9413  -20.7347  -11.6275 C   0  0  0  0  0  0  0  0  0  0  0  0
   20.8183  -19.9979  -11.3259 O   0  0  0  0  0  0  0  0  0  0  0  0
   19.0572  -20.7468  -15.9058 O   0  0  0  0  0  0  0  0  0  0  0  0
   22.1847  -21.7016  -10.8243 O   0  0  0  0  0  0  0  0  0  0  0  0
  2  4  1  0
  2  1  1  6
  3  2  1  0
  4  5  2  0
  6  7  1  0
  6  4  1  0
  7  8  1  1
  8  9  1  0
  9 14  2  0
 10 11  2  0
 10  9  1  0
 11 12  1  0
 12 13  2  0
 14 13  1  0
 15 16  2  0
 15  7  1  0
 17 15  1  0
 18 23  1  0
 18 17  1  0
 18 19  1  6
 20 19  1  0
 20 21  1  0
 21 25  1  0
 22 21  2  0
 23 24  1  0
 26 23  2  0
M  END
$$$$
