AFE.pdb
     RDKit          3D

 26 26  0  0  1  0  0  0  0  0999 V2000
   30.2554  -20.5450  -11.9280 C   0  0  0  0  0  0  0  0  0  0  0  0
   30.2709  -21.0287  -10.4815 C   0  0  2  0  0  0  0  0  0  0  0  0
   30.9855  -22.2879  -10.4635 N   0  0  0  0  0  0  0  0  0  0  0  0
   28.8904  -21.2006   -9.9974 C   0  0  0  0  0  0  0  0  0  0  0  0
   28.2445  -22.2586  -10.2041 O   0  0  0  0  0  0  0  0  0  0  0  0
   28.2457  -20.1657   -9.2775 N   0  0  0  0  0  0  0  0  0  0  0  0
   26.9110  -20.3799   -8.7547 C   0  0  1  0  0  0  0  0  0  0  0  0
   26.5938  -19.4138   -7.6385 C   0  0  0  0  0  0  0  0  0  0  0  0
   27.3601  -19.6544   -6.4149 C   0  0  0  0  0  0  0  0  0  0  0  0
   28.1755  -18.6876   -5.8716 C   0  0  0  0  0  0  0  0  0  0  0  0
   28.9183  -18.8541   -4.7265 C   0  0  0  0  0  0  0  0  0  0  0  0
   28.8377  -20.0830   -4.0767 C   0  0  0  0  0  0  0  0  0  0  0  0
   28.0302  -21.0715   -4.5953 C   0  0  0  0  0  0  0  0  0  0  0  0
   27.2946  -20.8700   -5.7521 C   0  0  0  0  0  0  0  0  0  0  0  0
   25.9599  -20.0706   -9.8649 C   0  0  0  0  0  0  0  0  0  0  0  0
   26.0749  -19.0345  -10.5701 O   0  0  0  0  0  0  0  0  0  0  0  0
   24.8879  -20.9235  -10.1770 N   0  0  0  0  0  0  0  0  0  0  0  0
   23.9901  -20.7147  -11.3244 C   0  0  1  0  0  0  0  0  0  0  0  0
   24.2425  -21.7217  -12.3817 C   0  0  0  0  0  0  0  0  0  0  0  0
   24.0848  -21.1575  -13.7551 C   0  0  0  0  0  0  0  0  0  0  0  0
   24.4039  -22.0805  -14.8494 C   0  0  0  0  0  0  0  0  0  0  0  0
   24.8271  -23.2256  -14.6245 O   0  0  0  0  0  0  0  0  0  0  0  0
   22.5927  -20.7744  -10.8424 C   0  0  0  0  0  0  0  0  0  0  0  0
   22.2003  -21.1546   -9.5789 O   0  0  0  0  0  0  0  0  0  0  0  0
   24.2283  -21.6622  -16.1560 O   0  0  0  0  0  0  0  0  0  0  0  0
   21.6363  -20.4573  -11.6325 O   0  0  0  0  0  0  0  0  0  0  0  0
  2  4  1  0
  2  1  1  6
  3  2  1  0
  4  5  2  0
  6  7  1  0
  6  4  1  0
  7  8  1  1
  8  9  1  0
  9 14  2  0
 10 11  2  0
 10  9  1  0
 11 12  1  0
 12 13  2  0
 14 13  1  0
 15 16  2  0
 15  7  1  0
 17 15  1  0
 18 23  1  0
 18 17  1  0
 18 19  1  6
 20 19  1  0
 20 21  1  0
 21 25  1  0
 22 21  2  0
 23 24  1  0
 26 23  2  0
M  END
$$$$
