AFE.pdb
     RDKit          3D

 26 26  0  0  1  0  0  0  0  0999 V2000
   19.5656  -15.1915  -17.7215 C   0  0  0  0  0  0  0  0  0  0  0  0
   21.0499  -15.4971  -17.5481 C   0  0  2  0  0  0  0  0  0  0  0  0
   21.1441  -16.8040  -16.9318 N   0  0  0  0  0  0  0  0  0  0  0  0
   21.6756  -14.4690  -16.6989 C   0  0  0  0  0  0  0  0  0  0  0  0
   21.5215  -14.4583  -15.4517 O   0  0  0  0  0  0  0  0  0  0  0  0
   22.4776  -13.4523  -17.2718 N   0  0  0  0  0  0  0  0  0  0  0  0
   23.1274  -12.4824  -16.4131 C   0  0  1  0  0  0  0  0  0  0  0  0
   24.6101  -12.4073  -16.6881 C   0  0  0  0  0  0  0  0  0  0  0  0
   25.3374  -13.6279  -16.3369 C   0  0  0  0  0  0  0  0  0  0  0  0
   25.7615  -14.5176  -17.2978 C   0  0  0  0  0  0  0  0  0  0  0  0
   26.4478  -15.6787  -17.0301 C   0  0  0  0  0  0  0  0  0  0  0  0
   26.7306  -15.9700  -15.6981 C   0  0  0  0  0  0  0  0  0  0  0  0
   26.3196  -15.0994  -14.7126 C   0  0  0  0  0  0  0  0  0  0  0  0
   25.6294  -13.9373  -15.0177 C   0  0  0  0  0  0  0  0  0  0  0  0
   22.5626  -11.1459  -16.7702 C   0  0  0  0  0  0  0  0  0  0  0  0
   22.1531  -10.8855  -17.9314 O   0  0  0  0  0  0  0  0  0  0  0  0
   22.4607  -10.1115  -15.8248 N   0  0  0  0  0  0  0  0  0  0  0  0
   21.9718   -8.7610  -16.1465 C   0  0  1  0  0  0  0  0  0  0  0  0
   22.0443   -7.8772  -14.9594 C   0  0  0  0  0  0  0  0  0  0  0  0
   21.5673   -6.4924  -15.2502 C   0  0  0  0  0  0  0  0  0  0  0  0
   21.5890   -5.5723  -14.1083 C   0  0  0  0  0  0  0  0  0  0  0  0
   21.9547   -5.9489  -12.9834 O   0  0  0  0  0  0  0  0  0  0  0  0
   22.7746   -8.2275  -17.2687 C   0  0  0  0  0  0  0  0  0  0  0  0
   24.1494   -8.2295  -17.3377 O   0  0  0  0  0  0  0  0  0  0  0  0
   21.1935   -4.2599  -14.2935 O   0  0  0  0  0  0  0  0  0  0  0  0
   22.1838   -7.7091  -18.2795 O   0  0  0  0  0  0  0  0  0  0  0  0
  2  4  1  0
  2  1  1  1
  3  2  1  0
  4  5  2  0
  6  7  1  0
  6  4  1  0
  7  8  1  6
  8  9  1  0
  9 14  2  0
 10 11  2  0
 10  9  1  0
 11 12  1  0
 12 13  2  0
 14 13  1  0
 15 16  2  0
 15  7  1  0
 17 15  1  0
 18 23  1  0
 18 17  1  0
 18 19  1  1
 20 19  1  0
 20 21  1  0
 21 25  1  0
 22 21  2  0
 23 24  1  0
 26 23  2  0
M  END
$$$$
