AFE.pdb
     RDKit          3D

 26 26  0  0  1  0  0  0  0  0999 V2000
   27.6476  -16.6701  -16.0995 C   0  0  0  0  0  0  0  0  0  0  0  0
   28.7013  -17.7251  -15.7783 C   0  0  2  0  0  0  0  0  0  0  0  0
   29.3970  -18.0191  -17.0137 N   0  0  0  0  0  0  0  0  0  0  0  0
   28.0513  -18.9327  -15.2407 C   0  0  0  0  0  0  0  0  0  0  0  0
   27.5680  -19.8144  -15.9947 O   0  0  0  0  0  0  0  0  0  0  0  0
   27.9522  -19.1354  -13.8429 N   0  0  0  0  0  0  0  0  0  0  0  0
   27.2837  -20.3169  -13.3353 C   0  0  1  0  0  0  0  0  0  0  0  0
   27.7107  -20.6281  -11.9209 C   0  0  0  0  0  0  0  0  0  0  0  0
   29.0696  -21.1623  -11.8194 C   0  0  0  0  0  0  0  0  0  0  0  0
   29.5708  -22.0431  -12.7511 C   0  0  0  0  0  0  0  0  0  0  0  0
   30.8369  -22.5779  -12.7094 C   0  0  0  0  0  0  0  0  0  0  0  0
   31.6633  -22.2013  -11.6539 C   0  0  0  0  0  0  0  0  0  0  0  0
   31.1911  -21.3212  -10.7050 C   0  0  0  0  0  0  0  0  0  0  0  0
   29.9090  -20.8009  -10.7773 C   0  0  0  0  0  0  0  0  0  0  0  0
   25.8260  -19.9937  -13.2757 C   0  0  0  0  0  0  0  0  0  0  0  0
   25.3765  -19.0831  -12.5321 O   0  0  0  0  0  0  0  0  0  0  0  0
   24.8833  -20.6920  -14.0487 N   0  0  0  0  0  0  0  0  0  0  0  0
   23.4699  -20.2965  -14.1603 C   0  0  1  0  0  0  0  0  0  0  0  0
   23.0407  -20.2677  -15.5782 C   0  0  0  0  0  0  0  0  0  0  0  0
   21.6342  -19.7924  -15.7381 C   0  0  0  0  0  0  0  0  0  0  0  0
   20.6574  -20.8346  -16.0709 C   0  0  0  0  0  0  0  0  0  0  0  0
   19.8538  -21.2590  -15.2253 O   0  0  0  0  0  0  0  0  0  0  0  0
   22.6551  -21.2426  -13.3670 C   0  0  0  0  0  0  0  0  0  0  0  0
   21.4952  -20.9280  -12.6957 O   0  0  0  0  0  0  0  0  0  0  0  0
   20.6350  -21.3517  -17.3536 O   0  0  0  0  0  0  0  0  0  0  0  0
   23.0225  -22.4651  -13.2667 O   0  0  0  0  0  0  0  0  0  0  0  0
  2  4  1  0
  2  1  1  6
  3  2  1  0
  4  5  2  0
  6  7  1  0
  6  4  1  0
  7  8  1  1
  8  9  1  0
  9 14  2  0
 10 11  2  0
 10  9  1  0
 11 12  1  0
 12 13  2  0
 14 13  1  0
 15 16  2  0
 15  7  1  0
 17 15  1  0
 18 23  1  0
 18 17  1  0
 18 19  1  6
 20 19  1  0
 20 21  1  0
 21 25  1  0
 22 21  2  0
 23 24  1  0
 26 23  2  0
M  END
$$$$
