AFE.pdb
     RDKit          3D

 26 26  0  0  1  0  0  0  0  0999 V2000
   20.7163  -23.1393  -13.3997 C   0  0  0  0  0  0  0  0  0  0  0  0
   21.6659  -22.6019  -12.3339 C   0  0  2  0  0  0  0  0  0  0  0  0
   20.8913  -22.4336  -11.1222 N   0  0  0  0  0  0  0  0  0  0  0  0
   22.2370  -21.3178  -12.7754 C   0  0  0  0  0  0  0  0  0  0  0  0
   21.5605  -20.2587  -12.7754 O   0  0  0  0  0  0  0  0  0  0  0  0
   23.5800  -21.2411  -13.2174 N   0  0  0  0  0  0  0  0  0  0  0  0
   24.1072  -19.9777  -13.6930 C   0  0  1  0  0  0  0  0  0  0  0  0
   25.5983  -20.0517  -13.9190 C   0  0  0  0  0  0  0  0  0  0  0  0
   26.1708  -18.8277  -14.4814 C   0  0  0  0  0  0  0  0  0  0  0  0
   26.2119  -17.6537  -13.7639 C   0  0  0  0  0  0  0  0  0  0  0  0
   26.7362  -16.4740  -14.2373 C   0  0  0  0  0  0  0  0  0  0  0  0
   27.2591  -16.4708  -15.5279 C   0  0  0  0  0  0  0  0  0  0  0  0
   27.2329  -17.6301  -16.2719 C   0  0  0  0  0  0  0  0  0  0  0  0
   26.6966  -18.8022  -15.7637 C   0  0  0  0  0  0  0  0  0  0  0  0
   23.4884  -19.7300  -15.0304 C   0  0  0  0  0  0  0  0  0  0  0  0
   23.2415  -20.6676  -15.8330 O   0  0  0  0  0  0  0  0  0  0  0  0
   23.1509  -18.4352  -15.4588 N   0  0  0  0  0  0  0  0  0  0  0  0
   22.4135  -18.1562  -16.7016 C   0  0  1  0  0  0  0  0  0  0  0  0
   21.0872  -17.5649  -16.4065 C   0  0  0  0  0  0  0  0  0  0  0  0
   20.3165  -17.2477  -17.6455 C   0  0  0  0  0  0  0  0  0  0  0  0
   18.9241  -17.7084  -17.6493 C   0  0  0  0  0  0  0  0  0  0  0  0
   18.4196  -18.2452  -16.6501 O   0  0  0  0  0  0  0  0  0  0  0  0
   23.2336  -17.2548  -17.5403 C   0  0  0  0  0  0  0  0  0  0  0  0
   23.2512  -17.2424  -18.9167 O   0  0  0  0  0  0  0  0  0  0  0  0
   18.1619  -17.5391  -18.7910 O   0  0  0  0  0  0  0  0  0  0  0  0
   24.0080  -16.4012  -16.9825 O   0  0  0  0  0  0  0  0  0  0  0  0
  2  4  1  0
  2  1  1  6
  3  2  1  0
  4  5  2  0
  6  7  1  0
  6  4  1  0
  7  8  1  6
  8  9  1  0
  9 14  2  0
 10 11  2  0
 10  9  1  0
 11 12  1  0
 12 13  2  0
 14 13  1  0
 15 16  2  0
 15  7  1  0
 17 15  1  0
 18 23  1  0
 18 17  1  0
 18 19  1  1
 20 19  1  0
 20 21  1  0
 21 25  1  0
 22 21  2  0
 23 24  1  0
 26 23  2  0
M  END
$$$$
