AFE.pdb
     RDKit          3D

 26 26  0  0  1  0  0  0  0  0999 V2000
   16.9145   -9.2708  -16.8374 C   0  0  0  0  0  0  0  0  0  0  0  0
   18.2723   -8.7258  -16.4060 C   0  0  2  0  0  0  0  0  0  0  0  0
   19.2769   -9.6253  -16.9336 N   0  0  0  0  0  0  0  0  0  0  0  0
   18.3416   -8.6642  -14.9359 C   0  0  0  0  0  0  0  0  0  0  0  0
   18.0155   -9.6422  -14.2173 O   0  0  0  0  0  0  0  0  0  0  0  0
   18.7829   -7.4869  -14.2847 N   0  0  0  0  0  0  0  0  0  0  0  0
   19.0628   -7.5160  -12.8629 C   0  0  1  0  0  0  0  0  0  0  0  0
   20.4859   -7.1037  -12.5720 C   0  0  0  0  0  0  0  0  0  0  0  0
   21.4822   -8.0947  -12.9815 C   0  0  0  0  0  0  0  0  0  0  0  0
   22.1840   -7.9691  -14.1591 C   0  0  0  0  0  0  0  0  0  0  0  0
   23.1306   -8.8654  -14.5964 C   0  0  0  0  0  0  0  0  0  0  0  0
   23.3938   -9.9715  -13.7926 C   0  0  0  0  0  0  0  0  0  0  0  0
   22.7080  -10.1259  -12.6077 C   0  0  0  0  0  0  0  0  0  0  0  0
   21.7598   -9.2029  -12.1967 C   0  0  0  0  0  0  0  0  0  0  0  0
   18.1859   -6.4841  -12.2311 C   0  0  0  0  0  0  0  0  0  0  0  0
   18.1968   -5.2825  -12.6053 O   0  0  0  0  0  0  0  0  0  0  0  0
   17.3039   -6.8055  -11.1858 N   0  0  0  0  0  0  0  0  0  0  0  0
   16.4437   -5.8174  -10.5149 C   0  0  1  0  0  0  0  0  0  0  0  0
   15.0861   -6.3666  -10.2895 C   0  0  0  0  0  0  0  0  0  0  0  0
   14.1812   -5.3895   -9.6142 C   0  0  0  0  0  0  0  0  0  0  0  0
   12.7962   -5.8396   -9.4390 C   0  0  0  0  0  0  0  0  0  0  0  0
   11.9544   -5.1285   -8.8677 O   0  0  0  0  0  0  0  0  0  0  0  0
   17.0869   -5.4244   -9.2420 C   0  0  0  0  0  0  0  0  0  0  0  0
   18.2012   -6.0189   -8.6945 O   0  0  0  0  0  0  0  0  0  0  0  0
   12.4258   -7.0817   -9.9219 O   0  0  0  0  0  0  0  0  0  0  0  0
   16.5993   -4.4579   -8.5581 O   0  0  0  0  0  0  0  0  0  0  0  0
  2  4  1  0
  2  1  1  1
  3  2  1  0
  4  5  2  0
  6  7  1  0
  6  4  1  0
  7  8  1  6
  8  9  1  0
  9 14  2  0
 10 11  2  0
 10  9  1  0
 11 12  1  0
 12 13  2  0
 14 13  1  0
 15 16  2  0
 15  7  1  0
 17 15  1  0
 18 23  1  0
 18 17  1  0
 18 19  1  1
 20 19  1  0
 20 21  1  0
 21 25  1  0
 22 21  2  0
 23 24  1  0
 26 23  2  0
M  END
$$$$
