AFE.pdb
     RDKit          3D

 26 26  0  0  1  0  0  0  0  0999 V2000
   27.6189  -18.9069  -14.7410 C   0  0  0  0  0  0  0  0  0  0  0  0
   27.9901  -20.1018  -13.8687 C   0  0  2  0  0  0  0  0  0  0  0  0
   28.5898  -21.0916  -14.7391 N   0  0  0  0  0  0  0  0  0  0  0  0
   26.7833  -20.6378  -13.2159 C   0  0  0  0  0  0  0  0  0  0  0  0
   26.1801  -21.6443  -13.6659 O   0  0  0  0  0  0  0  0  0  0  0  0
   26.2638  -20.0260  -12.0494 N   0  0  0  0  0  0  0  0  0  0  0  0
   25.1335  -20.6252  -11.3683 C   0  0  1  0  0  0  0  0  0  0  0  0
   24.9717  -20.0697   -9.9736 C   0  0  0  0  0  0  0  0  0  0  0  0
   26.1508  -20.2520   -9.1259 C   0  0  0  0  0  0  0  0  0  0  0  0
   26.8063  -21.4602   -9.0506 C   0  0  0  0  0  0  0  0  0  0  0  0
   27.9170  -21.6921   -8.2740 C   0  0  0  0  0  0  0  0  0  0  0  0
   28.4080  -20.6328   -7.5152 C   0  0  0  0  0  0  0  0  0  0  0  0
   27.7742  -19.4107   -7.5687 C   0  0  0  0  0  0  0  0  0  0  0  0
   26.6563  -19.2113   -8.3626 C   0  0  0  0  0  0  0  0  0  0  0  0
   23.9114  -20.2231  -12.1282 C   0  0  0  0  0  0  0  0  0  0  0  0
   23.8299  -19.1146  -12.7186 O   0  0  0  0  0  0  0  0  0  0  0  0
   22.7904  -21.0649  -12.2213 N   0  0  0  0  0  0  0  0  0  0  0  0
   21.6821  -20.8421  -13.1640 C   0  0  1  0  0  0  0  0  0  0  0  0
   21.9129  -21.5737  -14.4317 C   0  0  0  0  0  0  0  0  0  0  0  0
   20.8261  -21.3419  -15.4291 C   0  0  0  0  0  0  0  0  0  0  0  0
   20.9665  -22.0813  -16.6880 C   0  0  0  0  0  0  0  0  0  0  0  0
   20.6311  -23.2731  -16.7767 O   0  0  0  0  0  0  0  0  0  0  0  0
   20.4227  -21.2674  -12.5149 C   0  0  0  0  0  0  0  0  0  0  0  0
   20.3318  -22.0511  -11.3869 O   0  0  0  0  0  0  0  0  0  0  0  0
   21.4832  -21.4334  -17.7955 O   0  0  0  0  0  0  0  0  0  0  0  0
   19.3001  -20.9017  -13.0103 O   0  0  0  0  0  0  0  0  0  0  0  0
  2  4  1  0
  2  1  1  6
  3  2  1  0
  4  5  2  0
  6  7  1  0
  6  4  1  0
  7  8  1  1
  8  9  1  0
  9 14  2  0
 10 11  2  0
 10  9  1  0
 11 12  1  0
 12 13  2  0
 14 13  1  0
 15 16  2  0
 15  7  1  0
 17 15  1  0
 18 23  1  0
 18 17  1  0
 18 19  1  6
 20 19  1  0
 20 21  1  0
 21 25  1  0
 22 21  2  0
 23 24  1  0
 26 23  2  0
M  END
$$$$
