AFE.pdb
     RDKit          3D

 26 26  0  0  1  0  0  0  0  0999 V2000
   20.6907  -13.5733  -17.1933 C   0  0  0  0  0  0  0  0  0  0  0  0
   22.2115  -13.6250  -17.2989 C   0  0  2  0  0  0  0  0  0  0  0  0
   22.6410  -14.8401  -16.6388 N   0  0  0  0  0  0  0  0  0  0  0  0
   22.7978  -12.4392  -16.6509 C   0  0  0  0  0  0  0  0  0  0  0  0
   22.8688  -12.3367  -15.4004 O   0  0  0  0  0  0  0  0  0  0  0  0
   23.3032  -11.3696  -17.4289 N   0  0  0  0  0  0  0  0  0  0  0  0
   23.9011  -10.2247  -16.7713 C   0  0  1  0  0  0  0  0  0  0  0  0
   25.3464  -10.0506  -17.1718 C   0  0  0  0  0  0  0  0  0  0  0  0
   26.2488  -11.0295  -16.5637 C   0  0  0  0  0  0  0  0  0  0  0  0
   26.6404  -12.1654  -17.2354 C   0  0  0  0  0  0  0  0  0  0  0  0
   27.4845  -13.1195  -16.7178 C   0  0  0  0  0  0  0  0  0  0  0  0
   27.9731  -12.9199  -15.4292 C   0  0  0  0  0  0  0  0  0  0  0  0
   27.5998  -11.7927  -14.7306 C   0  0  0  0  0  0  0  0  0  0  0  0
   26.7469  -10.8506  -15.2827 C   0  0  0  0  0  0  0  0  0  0  0  0
   23.1758   -9.0165  -17.2683 C   0  0  0  0  0  0  0  0  0  0  0  0
   22.7625   -8.9297  -18.4539 O   0  0  0  0  0  0  0  0  0  0  0  0
   22.9190   -7.9153  -16.4345 N   0  0  0  0  0  0  0  0  0  0  0  0
   22.2720   -6.6773  -16.8985 C   0  0  1  0  0  0  0  0  0  0  0  0
   21.9148   -5.8076  -15.7532 C   0  0  0  0  0  0  0  0  0  0  0  0
   21.3044   -4.5159  -16.1874 C   0  0  0  0  0  0  0  0  0  0  0  0
   20.8376   -3.6496  -15.0999 C   0  0  0  0  0  0  0  0  0  0  0  0
   20.3480   -2.5325  -15.3302 O   0  0  0  0  0  0  0  0  0  0  0  0
   23.1904   -5.9912  -17.8336 C   0  0  0  0  0  0  0  0  0  0  0  0
   24.5548   -5.8898  -17.6811 O   0  0  0  0  0  0  0  0  0  0  0  0
   20.9471   -4.0906  -13.7935 O   0  0  0  0  0  0  0  0  0  0  0  0
   22.7210   -5.4288  -18.8837 O   0  0  0  0  0  0  0  0  0  0  0  0
  2  4  1  0
  2  1  1  1
  3  2  1  0
  4  5  2  0
  6  7  1  0
  6  4  1  0
  7  8  1  6
  8  9  1  0
  9 14  2  0
 10 11  2  0
 10  9  1  0
 11 12  1  0
 12 13  2  0
 14 13  1  0
 15 16  2  0
 15  7  1  0
 17 15  1  0
 18 23  1  0
 18 17  1  0
 18 19  1  1
 20 19  1  0
 20 21  1  0
 21 25  1  0
 22 21  2  0
 23 24  1  0
 26 23  2  0
M  END
$$$$
