AFE.pdb
     RDKit          3D

 26 26  0  0  1  0  0  0  0  0999 V2000
   27.5541  -23.5155  -16.9758 C   0  0  0  0  0  0  0  0  0  0  0  0
   26.6523  -22.3114  -16.7241 C   0  0  2  0  0  0  0  0  0  0  0  0
   27.4461  -21.1272  -16.9777 N   0  0  0  0  0  0  0  0  0  0  0  0
   26.1683  -22.3320  -15.3330 C   0  0  0  0  0  0  0  0  0  0  0  0
   25.4521  -23.2677  -14.8961 O   0  0  0  0  0  0  0  0  0  0  0  0
   26.5008  -21.2852  -14.4394 N   0  0  0  0  0  0  0  0  0  0  0  0
   25.9420  -21.2794  -13.1022 C   0  0  1  0  0  0  0  0  0  0  0  0
   26.8412  -20.5525  -12.1312 C   0  0  0  0  0  0  0  0  0  0  0  0
   26.3171  -20.5037  -10.7655 C   0  0  0  0  0  0  0  0  0  0  0  0
   25.2742  -19.6736  -10.4216 C   0  0  0  0  0  0  0  0  0  0  0  0
   24.7394  -19.5840   -9.1580 C   0  0  0  0  0  0  0  0  0  0  0  0
   25.2917  -20.3873   -8.1637 C   0  0  0  0  0  0  0  0  0  0  0  0
   26.3367  -21.2290   -8.4761 C   0  0  0  0  0  0  0  0  0  0  0  0
   26.8519  -21.2945   -9.7606 C   0  0  0  0  0  0  0  0  0  0  0  0
   24.6718  -20.4953  -13.1706 C   0  0  0  0  0  0  0  0  0  0  0  0
   24.6310  -19.3366  -13.6600 O   0  0  0  0  0  0  0  0  0  0  0  0
   23.4576  -21.0145  -12.6909 N   0  0  0  0  0  0  0  0  0  0  0  0
   22.1553  -20.3605  -12.8976 C   0  0  1  0  0  0  0  0  0  0  0  0
   21.5590  -20.7697  -14.1908 C   0  0  0  0  0  0  0  0  0  0  0  0
   21.6240  -19.6863  -15.2163 C   0  0  0  0  0  0  0  0  0  0  0  0
   21.5203  -20.1374  -16.6081 C   0  0  0  0  0  0  0  0  0  0  0  0
   21.2292  -21.3118  -16.8854 O   0  0  0  0  0  0  0  0  0  0  0  0
   21.2729  -20.7049  -11.7613 C   0  0  0  0  0  0  0  0  0  0  0  0
   20.2406  -19.9266  -11.2886 O   0  0  0  0  0  0  0  0  0  0  0  0
   21.7523  -19.2327  -17.6282 O   0  0  0  0  0  0  0  0  0  0  0  0
   21.4491  -21.8073  -11.1342 O   0  0  0  0  0  0  0  0  0  0  0  0
  2  4  1  0
  2  1  1  1
  3  2  1  0
  4  5  2  0
  6  7  1  0
  6  4  1  0
  7  8  1  1
  8  9  1  0
  9 14  2  0
 10 11  2  0
 10  9  1  0
 11 12  1  0
 12 13  2  0
 14 13  1  0
 15 16  2  0
 15  7  1  0
 17 15  1  0
 18 23  1  0
 18 17  1  0
 18 19  1  6
 20 19  1  0
 20 21  1  0
 21 25  1  0
 22 21  2  0
 23 24  1  0
 26 23  2  0
M  END
$$$$
