FSG.pdb
     RDKit          3D

 22 22  0  0  1  0  0  0  0  0999 V2000
    5.4543  -18.2600   21.4616 N   0  0  0  0  0  0  0  0  0  0  0  0
    6.3519  -17.1641   21.1825 C   0  0  1  0  0  0  0  0  0  0  0  0
    5.8683  -15.9534   21.9915 C   0  0  0  0  0  0  0  0  0  0  0  0
    6.7256  -14.8179   21.6052 C   0  0  0  0  0  0  0  0  0  0  0  0
    6.7451  -14.3916   20.2977 C   0  0  0  0  0  0  0  0  0  0  0  0
    7.5428  -13.3345   19.9359 C   0  0  0  0  0  0  0  0  0  0  0  0
    8.3192  -12.7109   20.8980 C   0  0  0  0  0  0  0  0  0  0  0  0
    8.3209  -13.1136   22.2107 C   0  0  0  0  0  0  0  0  0  0  0  0
    7.5116  -14.1761   22.5451 C   0  0  0  0  0  0  0  0  0  0  0  0
    7.6930  -17.5035   21.6585 C   0  0  0  0  0  0  0  0  0  0  0  0
    7.8524  -17.9692   22.8179 O   0  0  0  0  0  0  0  0  0  0  0  0
   10.9582  -17.4396   19.0843 O   0  0  0  0  0  0  0  0  0  0  0  0
   10.8341  -18.3657   20.1057 C   0  0  0  0  0  0  0  0  0  0  0  0
   10.1104  -17.7886   21.3053 C   0  0  2  0  0  0  0  0  0  0  0  0
    8.8272  -17.3221   20.8464 N   0  0  0  0  0  0  0  0  0  0  0  0
   10.8306  -16.6676   21.9162 C   0  0  0  0  0  0  0  0  0  0  0  0
   10.7508  -15.5280   21.3952 O   0  0  0  0  0  0  0  0  0  0  0  0
   11.6188  -16.8311   23.0832 N   0  0  0  0  0  0  0  0  0  0  0  0
   12.3778  -15.7158   23.5639 C   0  0  0  0  0  0  0  0  0  0  0  0
   13.8298  -15.9109   23.3303 C   0  0  0  0  0  0  0  0  0  0  0  0
   14.7881  -15.3300   24.1158 O   0  0  0  0  0  0  0  0  0  0  0  0
   14.2069  -16.6367   22.3756 O   0  0  0  0  0  0  0  0  0  0  0  0
  2  1  1  1
  2 10  1  0
  3  2  1  0
  4  3  1  0
  4  5  2  0
  6  5  1  0
  7  6  2  0
  8  9  2  0
  8  7  1  0
  9  4  1  0
 10 15  1  0
 10 11  2  0
 12 13  1  0
 14 13  1  6
 14 16  1  0
 15 14  1  0
 16 17  2  0
 16 18  1  0
 18 19  1  0
 19 20  1  0
 20 21  1  0
 22 20  2  0
M  END
$$$$
