FSG.pdb
     RDKit          3D

 22 22  0  0  1  0  0  0  0  0999 V2000
    6.0397  -18.2395   20.3157 N   0  0  0  0  0  0  0  0  0  0  0  0
    7.0199  -17.1979   20.5122 C   0  0  1  0  0  0  0  0  0  0  0  0
    6.4657  -16.2358   21.5711 C   0  0  0  0  0  0  0  0  0  0  0  0
    7.0585  -14.9150   21.2928 C   0  0  0  0  0  0  0  0  0  0  0  0
    7.5388  -14.1504   22.3303 C   0  0  0  0  0  0  0  0  0  0  0  0
    8.0912  -12.9202   22.0733 C   0  0  0  0  0  0  0  0  0  0  0  0
    8.1565  -12.4660   20.7669 C   0  0  0  0  0  0  0  0  0  0  0  0
    7.6855  -13.2062   19.7105 C   0  0  0  0  0  0  0  0  0  0  0  0
    7.1368  -14.4360   19.9976 C   0  0  0  0  0  0  0  0  0  0  0  0
    8.2477  -17.7839   21.0503 C   0  0  0  0  0  0  0  0  0  0  0  0
    8.1867  -18.6510   21.9619 O   0  0  0  0  0  0  0  0  0  0  0  0
   12.0877  -16.3727   20.0818 O   0  0  0  0  0  0  0  0  0  0  0  0
   11.8304  -17.7318   20.1356 C   0  0  0  0  0  0  0  0  0  0  0  0
   10.6924  -18.0532   21.0829 C   0  0  2  0  0  0  0  0  0  0  0  0
    9.5140  -17.4011   20.5719 N   0  0  0  0  0  0  0  0  0  0  0  0
   10.9406  -17.5802   22.4479 C   0  0  0  0  0  0  0  0  0  0  0  0
   10.6751  -16.3894   22.7441 O   0  0  0  0  0  0  0  0  0  0  0  0
   11.4740  -18.4303   23.4493 N   0  0  0  0  0  0  0  0  0  0  0  0
   11.6593  -17.9077   24.7698 C   0  0  0  0  0  0  0  0  0  0  0  0
   12.8083  -18.5548   25.4494 C   0  0  0  0  0  0  0  0  0  0  0  0
   13.1509  -18.2771   26.7449 O   0  0  0  0  0  0  0  0  0  0  0  0
   13.5021  -19.3934   24.8203 O   0  0  0  0  0  0  0  0  0  0  0  0
  2  1  1  1
  2 10  1  0
  3  2  1  0
  4  3  1  0
  4  5  2  0
  6  5  1  0
  7  6  2  0
  8  9  2  0
  8  7  1  0
  9  4  1  0
 10 15  1  0
 10 11  2  0
 12 13  1  0
 14 13  1  6
 14 16  1  0
 15 14  1  0
 16 17  2  0
 16 18  1  0
 18 19  1  0
 19 20  1  0
 20 21  1  0
 22 20  2  0
M  END
$$$$
