FSG.pdb
     RDKit          3D

 22 22  0  0  1  0  0  0  0  0999 V2000
    5.6451  -18.2131   19.6620 N   0  0  0  0  0  0  0  0  0  0  0  0
    6.5124  -17.0655   19.7850 C   0  0  1  0  0  0  0  0  0  0  0  0
    5.7871  -16.0294   20.6537 C   0  0  0  0  0  0  0  0  0  0  0  0
    6.6189  -14.8122   20.6418 C   0  0  0  0  0  0  0  0  0  0  0  0
    6.8808  -14.1763   19.4506 C   0  0  0  0  0  0  0  0  0  0  0  0
    7.6551  -13.0428   19.4374 C   0  0  0  0  0  0  0  0  0  0  0  0
    8.1629  -12.5549   20.6296 C   0  0  0  0  0  0  0  0  0  0  0  0
    7.9189  -13.1674   21.8340 C   0  0  0  0  0  0  0  0  0  0  0  0
    7.1393  -14.3023   21.8175 C   0  0  0  0  0  0  0  0  0  0  0  0
    7.7329  -17.4546   20.4917 C   0  0  0  0  0  0  0  0  0  0  0  0
    7.6590  -18.0234   21.6132 O   0  0  0  0  0  0  0  0  0  0  0  0
   11.4425  -17.5056   18.5516 O   0  0  0  0  0  0  0  0  0  0  0  0
   10.9900  -18.4348   19.4725 C   0  0  0  0  0  0  0  0  0  0  0  0
   10.1686  -17.7879   20.5691 C   0  0  2  0  0  0  0  0  0  0  0  0
    9.0061  -17.2081   19.9468 N   0  0  0  0  0  0  0  0  0  0  0  0
   10.9004  -16.7346   21.2788 C   0  0  0  0  0  0  0  0  0  0  0  0
   11.1604  -15.6592   20.6852 O   0  0  0  0  0  0  0  0  0  0  0  0
   11.3258  -16.8933   22.6218 N   0  0  0  0  0  0  0  0  0  0  0  0
   12.1584  -15.8842   23.2047 C   0  0  0  0  0  0  0  0  0  0  0  0
   13.5098  -16.4126   23.5138 C   0  0  0  0  0  0  0  0  0  0  0  0
   14.4472  -15.6866   24.1971 O   0  0  0  0  0  0  0  0  0  0  0  0
   13.8174  -17.5722   23.1381 O   0  0  0  0  0  0  0  0  0  0  0  0
  2  1  1  1
  2 10  1  0
  3  2  1  0
  4  3  1  0
  4  5  2  0
  6  5  1  0
  7  6  2  0
  8  9  2  0
  8  7  1  0
  9  4  1  0
 10 15  1  0
 10 11  2  0
 12 13  1  0
 14 13  1  6
 14 16  1  0
 15 14  1  0
 16 17  2  0
 16 18  1  0
 18 19  1  0
 19 20  1  0
 20 21  1  0
 22 20  2  0
M  END
$$$$
