FSG.pdb
     RDKit          3D

 22 22  0  0  1  0  0  0  0  0999 V2000
    6.5795  -17.1134   25.7110 N   0  0  0  0  0  0  0  0  0  0  0  0
    7.3872  -16.0933   25.0855 C   0  0  1  0  0  0  0  0  0  0  0  0
    7.9921  -15.2333   26.2030 C   0  0  0  0  0  0  0  0  0  0  0  0
    7.3098  -13.9276   26.1469 C   0  0  0  0  0  0  0  0  0  0  0  0
    6.2847  -13.6552   27.0225 C   0  0  0  0  0  0  0  0  0  0  0  0
    5.6481  -12.4400   26.9719 C   0  0  0  0  0  0  0  0  0  0  0  0
    6.0501  -11.5027   26.0353 C   0  0  0  0  0  0  0  0  0  0  0  0
    7.0697  -11.7454   25.1483 C   0  0  0  0  0  0  0  0  0  0  0  0
    7.6903  -12.9724   25.2217 C   0  0  0  0  0  0  0  0  0  0  0  0
    8.4951  -16.7250   24.3685 C   0  0  0  0  0  0  0  0  0  0  0  0
    9.1037  -17.7015   24.8809 O   0  0  0  0  0  0  0  0  0  0  0  0
    9.7703  -15.4267   20.5675 O   0  0  0  0  0  0  0  0  0  0  0  0
    9.8677  -16.7447   20.9795 C   0  0  0  0  0  0  0  0  0  0  0  0
   10.0634  -16.8539   22.4780 C   0  0  2  0  0  0  0  0  0  0  0  0
    8.9068  -16.2663   23.1040 N   0  0  0  0  0  0  0  0  0  0  0  0
   11.2623  -16.1521   22.9456 C   0  0  0  0  0  0  0  0  0  0  0  0
   11.1537  -14.9897   23.4077 O   0  0  0  0  0  0  0  0  0  0  0  0
   12.5474  -16.7483   22.8920 N   0  0  0  0  0  0  0  0  0  0  0  0
   13.6805  -15.9828   23.3179 C   0  0  0  0  0  0  0  0  0  0  0  0
   14.9263  -16.7861   23.2604 C   0  0  0  0  0  0  0  0  0  0  0  0
   16.1521  -16.2707   23.5840 O   0  0  0  0  0  0  0  0  0  0  0  0
   14.8661  -17.9895   22.9016 O   0  0  0  0  0  0  0  0  0  0  0  0
  2  1  1  1
  2 10  1  0
  3  2  1  0
  4  3  1  0
  4  5  2  0
  6  5  1  0
  7  6  2  0
  8  9  2  0
  8  7  1  0
  9  4  1  0
 10 15  1  0
 10 11  2  0
 12 13  1  0
 14 13  1  6
 14 16  1  0
 15 14  1  0
 16 17  2  0
 16 18  1  0
 18 19  1  0
 19 20  1  0
 20 21  1  0
 22 20  2  0
M  END
$$$$
