FSG.pdb
     RDKit          3D

 22 22  0  0  1  0  0  0  0  0999 V2000
    6.9840  -16.6493   26.2666 N   0  0  0  0  0  0  0  0  0  0  0  0
    7.2183  -15.6616   25.2401 C   0  0  1  0  0  0  0  0  0  0  0  0
    8.1432  -14.5901   25.8325 C   0  0  0  0  0  0  0  0  0  0  0  0
    7.2744  -13.4955   26.3022 C   0  0  0  0  0  0  0  0  0  0  0  0
    7.5291  -12.8937   27.5124 C   0  0  0  0  0  0  0  0  0  0  0  0
    6.7213  -11.8743   27.9516 C   0  0  0  0  0  0  0  0  0  0  0  0
    5.6574  -11.4658   27.1651 C   0  0  0  0  0  0  0  0  0  0  0  0
    5.3781  -12.0469   25.9528 C   0  0  0  0  0  0  0  0  0  0  0  0
    6.2046  -13.0668   25.5375 C   0  0  0  0  0  0  0  0  0  0  0  0
    7.9268  -16.2843   24.1218 C   0  0  0  0  0  0  0  0  0  0  0  0
    8.6804  -17.2732   24.3238 O   0  0  0  0  0  0  0  0  0  0  0  0
    8.2892  -14.5469   20.2065 O   0  0  0  0  0  0  0  0  0  0  0  0
    8.0334  -15.8870   20.4409 C   0  0  0  0  0  0  0  0  0  0  0  0
    8.6151  -16.3495   21.7613 C   0  0  2  0  0  0  0  0  0  0  0  0
    7.7888  -15.8033   22.8071 N   0  0  0  0  0  0  0  0  0  0  0  0
    9.9944  -15.8963   21.9626 C   0  0  0  0  0  0  0  0  0  0  0  0
   10.2038  -14.7367   22.3960 O   0  0  0  0  0  0  0  0  0  0  0  0
   11.1053  -16.7311   21.6815 N   0  0  0  0  0  0  0  0  0  0  0  0
   12.4225  -16.2413   21.9573 C   0  0  0  0  0  0  0  0  0  0  0  0
   13.4606  -17.1862   21.4773 C   0  0  0  0  0  0  0  0  0  0  0  0
   14.4122  -16.8328   20.5595 O   0  0  0  0  0  0  0  0  0  0  0  0
   13.4768  -18.3611   21.9243 O   0  0  0  0  0  0  0  0  0  0  0  0
  2  1  1  1
  2 10  1  0
  3  2  1  0
  4  3  1  0
  4  5  2  0
  6  5  1  0
  7  6  2  0
  8  9  2  0
  8  7  1  0
  9  4  1  0
 10 15  1  0
 10 11  2  0
 12 13  1  0
 14 13  1  6
 14 16  1  0
 15 14  1  0
 16 17  2  0
 16 18  1  0
 18 19  1  0
 19 20  1  0
 20 21  1  0
 22 20  2  0
M  END
$$$$
