FSG.pdb
     RDKit          3D

 22 22  0  0  1  0  0  0  0  0999 V2000
    7.7843  -13.8063   20.9195 N   0  0  0  0  0  0  0  0  0  0  0  0
    7.9592  -13.6496   22.3440 C   0  0  1  0  0  0  0  0  0  0  0  0
    6.6838  -13.0002   22.8973 C   0  0  0  0  0  0  0  0  0  0  0  0
    6.8594  -12.9028   24.3579 C   0  0  0  0  0  0  0  0  0  0  0  0
    6.1051  -13.6966   25.1902 C   0  0  0  0  0  0  0  0  0  0  0  0
    6.2670  -13.6074   26.5505 C   0  0  0  0  0  0  0  0  0  0  0  0
    7.1918  -12.7150   27.0660 C   0  0  0  0  0  0  0  0  0  0  0  0
    7.9591  -11.9097   26.2608 C   0  0  0  0  0  0  0  0  0  0  0  0
    7.7757  -12.0202   24.9006 C   0  0  0  0  0  0  0  0  0  0  0  0
    8.0854  -14.9686   22.9643 C   0  0  0  0  0  0  0  0  0  0  0  0
    7.1854  -15.8338   22.7969 O   0  0  0  0  0  0  0  0  0  0  0  0
   11.6384  -16.6483   23.5468 O   0  0  0  0  0  0  0  0  0  0  0  0
   10.4308  -17.3158   23.4345 C   0  0  0  0  0  0  0  0  0  0  0  0
    9.3404  -16.6495   24.2487 C   0  0  2  0  0  0  0  0  0  0  0  0
    9.1999  -15.3038   23.7544 N   0  0  0  0  0  0  0  0  0  0  0  0
    9.6532  -16.5978   25.6798 C   0  0  0  0  0  0  0  0  0  0  0  0
   10.0066  -15.5079   26.1932 O   0  0  0  0  0  0  0  0  0  0  0  0
    9.5685  -17.7464   26.5065 N   0  0  0  0  0  0  0  0  0  0  0  0
    9.9607  -17.6374   27.8796 C   0  0  0  0  0  0  0  0  0  0  0  0
   10.8611  -18.7488   28.2730 C   0  0  0  0  0  0  0  0  0  0  0  0
   11.4134  -19.6085   27.3626 O   0  0  0  0  0  0  0  0  0  0  0  0
   11.1351  -18.9176   29.4883 O   0  0  0  0  0  0  0  0  0  0  0  0
  2  1  1  6
  2 10  1  0
  3  2  1  0
  4  3  1  0
  4  5  2  0
  6  5  1  0
  7  6  2  0
  8  9  2  0
  8  7  1  0
  9  4  1  0
 10 15  1  0
 10 11  2  0
 12 13  1  0
 14 13  1  6
 14 16  1  0
 15 14  1  0
 16 17  2  0
 16 18  1  0
 18 19  1  0
 19 20  1  0
 20 21  1  0
 22 20  2  0
M  END
$$$$
