FSG.pdb
     RDKit          3D

 22 22  0  0  1  0  0  0  0  0999 V2000
    6.5581  -17.5746   26.1135 N   0  0  0  0  0  0  0  0  0  0  0  0
    6.6985  -16.2798   25.4905 C   0  0  1  0  0  0  0  0  0  0  0  0
    7.6737  -15.4594   26.3451 C   0  0  0  0  0  0  0  0  0  0  0  0
    7.1385  -14.0866   26.3956 C   0  0  0  0  0  0  0  0  0  0  0  0
    7.2220  -13.2803   25.2844 C   0  0  0  0  0  0  0  0  0  0  0  0
    6.7243  -12.0018   25.3293 C   0  0  0  0  0  0  0  0  0  0  0  0
    6.1430  -11.5414   26.4987 C   0  0  0  0  0  0  0  0  0  0  0  0
    6.0451  -12.3224   27.6239 C   0  0  0  0  0  0  0  0  0  0  0  0
    6.5525  -13.6003   27.5502 C   0  0  0  0  0  0  0  0  0  0  0  0
    7.3024  -16.4419   24.1678 C   0  0  0  0  0  0  0  0  0  0  0  0
    7.8500  -17.5317   23.8530 O   0  0  0  0  0  0  0  0  0  0  0  0
    7.2714  -14.7941   19.6527 O   0  0  0  0  0  0  0  0  0  0  0  0
    6.9413  -14.6534   20.9897 C   0  0  0  0  0  0  0  0  0  0  0  0
    7.6463  -15.6777   21.8553 C   0  0  2  0  0  0  0  0  0  0  0  0
    7.2891  -15.4000   23.2229 N   0  0  0  0  0  0  0  0  0  0  0  0
    9.1053  -15.6206   21.7264 C   0  0  0  0  0  0  0  0  0  0  0  0
    9.6301  -15.7860   20.5978 O   0  0  0  0  0  0  0  0  0  0  0  0
    9.9467  -15.3831   22.8425 N   0  0  0  0  0  0  0  0  0  0  0  0
   11.3557  -15.2450   22.6261 C   0  0  0  0  0  0  0  0  0  0  0  0
   12.0467  -16.5543   22.7213 C   0  0  0  0  0  0  0  0  0  0  0  0
   11.3706  -17.7421   22.7901 O   0  0  0  0  0  0  0  0  0  0  0  0
   13.3033  -16.5865   22.7402 O   0  0  0  0  0  0  0  0  0  0  0  0
  2  1  1  1
  2 10  1  0
  3  2  1  0
  4  3  1  0
  4  5  2  0
  6  5  1  0
  7  6  2  0
  8  9  2  0
  8  7  1  0
  9  4  1  0
 10 15  1  0
 10 11  2  0
 12 13  1  0
 14 13  1  6
 14 16  1  0
 15 14  1  0
 16 17  2  0
 16 18  1  0
 18 19  1  0
 19 20  1  0
 20 21  1  0
 22 20  2  0
M  END
$$$$
