FSG.pdb
     RDKit          3D

 22 22  0  0  1  0  0  0  0  0999 V2000
    6.5401  -17.0797   26.1530 N   0  0  0  0  0  0  0  0  0  0  0  0
    6.8980  -15.9548   25.3218 C   0  0  1  0  0  0  0  0  0  0  0  0
    7.8926  -15.0944   26.1121 C   0  0  0  0  0  0  0  0  0  0  0  0
    7.1973  -13.8354   26.4360 C   0  0  0  0  0  0  0  0  0  0  0  0
    7.9187  -12.7528   26.8825 C   0  0  0  0  0  0  0  0  0  0  0  0
    7.2731  -11.5796   27.1846 C   0  0  0  0  0  0  0  0  0  0  0  0
    5.8987  -11.5041   27.0343 C   0  0  0  0  0  0  0  0  0  0  0  0
    5.1516  -12.5674   26.5908 C   0  0  0  0  0  0  0  0  0  0  0  0
    5.8252  -13.7313   26.2953 C   0  0  0  0  0  0  0  0  0  0  0  0
    7.5879  -16.4371   24.1252 C   0  0  0  0  0  0  0  0  0  0  0  0
    8.2253  -17.5230   24.1584 O   0  0  0  0  0  0  0  0  0  0  0  0
    7.8090  -14.1603   20.6054 O   0  0  0  0  0  0  0  0  0  0  0  0
    7.7116  -15.5401   20.5509 C   0  0  0  0  0  0  0  0  0  0  0  0
    8.3003  -16.1960   21.7833 C   0  0  2  0  0  0  0  0  0  0  0  0
    7.5597  -15.7121   22.9201 N   0  0  0  0  0  0  0  0  0  0  0  0
    9.7186  -15.8774   21.9721 C   0  0  0  0  0  0  0  0  0  0  0  0
   10.0414  -14.9432   22.7463 O   0  0  0  0  0  0  0  0  0  0  0  0
   10.7424  -16.5952   21.3040 N   0  0  0  0  0  0  0  0  0  0  0  0
   12.1078  -16.3159   21.6342 C   0  0  0  0  0  0  0  0  0  0  0  0
   13.0391  -17.0453   20.7389 C   0  0  0  0  0  0  0  0  0  0  0  0
   14.0210  -16.4147   20.0242 O   0  0  0  0  0  0  0  0  0  0  0  0
   12.9315  -18.2926   20.6242 O   0  0  0  0  0  0  0  0  0  0  0  0
  2  1  1  1
  2 10  1  0
  3  2  1  0
  4  3  1  0
  4  5  2  0
  6  5  1  0
  7  6  2  0
  8  9  2  0
  8  7  1  0
  9  4  1  0
 10 15  1  0
 10 11  2  0
 12 13  1  0
 14 13  1  6
 14 16  1  0
 15 14  1  0
 16 17  2  0
 16 18  1  0
 18 19  1  0
 19 20  1  0
 20 21  1  0
 22 20  2  0
M  END
$$$$
