FSG.pdb
     RDKit          3D

 22 22  0  0  1  0  0  0  0  0999 V2000
    6.4663  -17.3249   25.9262 N   0  0  0  0  0  0  0  0  0  0  0  0
    6.9994  -16.1097   25.3573 C   0  0  1  0  0  0  0  0  0  0  0  0
    7.8556  -15.4320   26.4352 C   0  0  0  0  0  0  0  0  0  0  0  0
    7.3328  -14.0622   26.5900 C   0  0  0  0  0  0  0  0  0  0  0  0
    8.0596  -13.1299   27.2931 C   0  0  0  0  0  0  0  0  0  0  0  0
    7.5746  -11.8539   27.4384 C   0  0  0  0  0  0  0  0  0  0  0  0
    6.3550  -11.5237   26.8718 C   0  0  0  0  0  0  0  0  0  0  0  0
    5.6068  -12.4323   26.1646 C   0  0  0  0  0  0  0  0  0  0  0  0
    6.1176  -13.7043   26.0348 C   0  0  0  0  0  0  0  0  0  0  0  0
    7.8830  -16.4450   24.2405 C   0  0  0  0  0  0  0  0  0  0  0  0
    8.5611  -17.5061   24.2685 O   0  0  0  0  0  0  0  0  0  0  0  0
    7.3815  -15.7716   20.2540 O   0  0  0  0  0  0  0  0  0  0  0  0
    8.5019  -15.1963   20.8285 C   0  0  0  0  0  0  0  0  0  0  0  0
    8.9374  -15.9351   22.0776 C   0  0  2  0  0  0  0  0  0  0  0  0
    7.9990  -15.6038   23.1191 N   0  0  0  0  0  0  0  0  0  0  0  0
   10.2844  -15.5598   22.5173 C   0  0  0  0  0  0  0  0  0  0  0  0
   10.4211  -14.6530   23.3749 O   0  0  0  0  0  0  0  0  0  0  0  0
   11.4436  -16.1922   22.0014 N   0  0  0  0  0  0  0  0  0  0  0  0
   12.7262  -15.7864   22.4926 C   0  0  0  0  0  0  0  0  0  0  0  0
   13.8167  -16.5764   21.8699 C   0  0  0  0  0  0  0  0  0  0  0  0
   14.8238  -15.9999   21.1445 O   0  0  0  0  0  0  0  0  0  0  0  0
   13.8265  -17.8260   22.0074 O   0  0  0  0  0  0  0  0  0  0  0  0
  2  1  1  1
  2 10  1  0
  3  2  1  0
  4  3  1  0
  4  5  2  0
  6  5  1  0
  7  6  2  0
  8  9  2  0
  8  7  1  0
  9  4  1  0
 10 15  1  0
 10 11  2  0
 12 13  1  0
 14 13  1  6
 14 16  1  0
 15 14  1  0
 16 17  2  0
 16 18  1  0
 18 19  1  0
 19 20  1  0
 20 21  1  0
 22 20  2  0
M  END
$$$$
