FSG.pdb
     RDKit          3D

 22 22  0  0  1  0  0  0  0  0999 V2000
    7.7974  -16.7729   22.3627 N   0  0  0  0  0  0  0  0  0  0  0  0
    8.9672  -16.1606   21.7787 C   0  0  1  0  0  0  0  0  0  0  0  0
    8.9521  -14.6754   22.1639 C   0  0  0  0  0  0  0  0  0  0  0  0
    8.2455  -13.9659   21.0819 C   0  0  0  0  0  0  0  0  0  0  0  0
    6.9554  -13.5318   21.2793 C   0  0  0  0  0  0  0  0  0  0  0  0
    6.2956  -12.8709   20.2731 C   0  0  0  0  0  0  0  0  0  0  0  0
    6.9426  -12.6506   19.0689 C   0  0  0  0  0  0  0  0  0  0  0  0
    8.2297  -13.0719   18.8420 C   0  0  0  0  0  0  0  0  0  0  0  0
    8.8671  -13.7319   19.8686 C   0  0  0  0  0  0  0  0  0  0  0  0
   10.1686  -16.7547   22.3653 C   0  0  0  0  0  0  0  0  0  0  0  0
   10.1886  -17.0633   23.5864 O   0  0  0  0  0  0  0  0  0  0  0  0
   12.5803  -19.3141   20.5532 O   0  0  0  0  0  0  0  0  0  0  0  0
   13.2784  -18.2622   21.1209 C   0  0  0  0  0  0  0  0  0  0  0  0
   12.4805  -17.5804   22.2137 C   0  0  2  0  0  0  0  0  0  0  0  0
   11.3197  -16.9949   21.5935 N   0  0  0  0  0  0  0  0  0  0  0  0
   13.2371  -16.5247   22.8932 C   0  0  0  0  0  0  0  0  0  0  0  0
   13.1929  -15.3519   22.4472 O   0  0  0  0  0  0  0  0  0  0  0  0
   14.0214  -16.7884   24.0444 N   0  0  0  0  0  0  0  0  0  0  0  0
   14.7453  -15.7094   24.6469 C   0  0  0  0  0  0  0  0  0  0  0  0
   15.9649  -16.1971   25.3365 C   0  0  0  0  0  0  0  0  0  0  0  0
   16.7990  -15.3672   26.0353 O   0  0  0  0  0  0  0  0  0  0  0  0
   16.2539  -17.4195   25.2839 O   0  0  0  0  0  0  0  0  0  0  0  0
  2  1  1  1
  2 10  1  0
  3  2  1  0
  4  3  1  0
  4  5  2  0
  6  5  1  0
  7  6  2  0
  8  9  2  0
  8  7  1  0
  9  4  1  0
 10 15  1  0
 10 11  2  0
 12 13  1  0
 14 13  1  6
 14 16  1  0
 15 14  1  0
 16 17  2  0
 16 18  1  0
 18 19  1  0
 19 20  1  0
 20 21  1  0
 22 20  2  0
M  END
$$$$
