FSG.pdb
     RDKit          3D

 22 22  0  0  1  0  0  0  0  0999 V2000
    6.3152  -16.9275   25.6218 N   0  0  0  0  0  0  0  0  0  0  0  0
    7.0816  -15.8974   24.9616 C   0  0  1  0  0  0  0  0  0  0  0  0
    7.7877  -15.0778   26.0498 C   0  0  0  0  0  0  0  0  0  0  0  0
    7.0996  -13.7753   26.1103 C   0  0  0  0  0  0  0  0  0  0  0  0
    6.2263  -13.5122   27.1398 C   0  0  0  0  0  0  0  0  0  0  0  0
    5.5846  -12.3000   27.1979 C   0  0  0  0  0  0  0  0  0  0  0  0
    5.8279  -11.3564   26.2142 C   0  0  0  0  0  0  0  0  0  0  0  0
    6.6939  -11.5899   25.1745 C   0  0  0  0  0  0  0  0  0  0  0  0
    7.3235  -12.8140   25.1414 C   0  0  0  0  0  0  0  0  0  0  0  0
    8.1183  -16.5187   24.1372 C   0  0  0  0  0  0  0  0  0  0  0  0
    8.6066  -17.6313   24.4692 O   0  0  0  0  0  0  0  0  0  0  0  0
   10.1115  -14.6829   20.7518 O   0  0  0  0  0  0  0  0  0  0  0  0
    9.5683  -15.9554   20.7958 C   0  0  0  0  0  0  0  0  0  0  0  0
    9.6224  -16.5436   22.1911 C   0  0  2  0  0  0  0  0  0  0  0  0
    8.5929  -15.9001   22.9664 N   0  0  0  0  0  0  0  0  0  0  0  0
   10.9147  -16.3265   22.8478 C   0  0  0  0  0  0  0  0  0  0  0  0
   11.0925  -15.2855   23.5269 O   0  0  0  0  0  0  0  0  0  0  0  0
   11.9757  -17.2606   22.7394 N   0  0  0  0  0  0  0  0  0  0  0  0
   13.1433  -17.0740   23.5477 C   0  0  0  0  0  0  0  0  0  0  0  0
   14.2981  -16.6259   22.7314 C   0  0  0  0  0  0  0  0  0  0  0  0
   15.5402  -16.4127   23.2649 O   0  0  0  0  0  0  0  0  0  0  0  0
   14.1416  -16.4309   21.4993 O   0  0  0  0  0  0  0  0  0  0  0  0
  2  1  1  1
  2 10  1  0
  3  2  1  0
  4  3  1  0
  4  5  2  0
  6  5  1  0
  7  6  2  0
  8  9  2  0
  8  7  1  0
  9  4  1  0
 10 15  1  0
 10 11  2  0
 12 13  1  0
 14 13  1  6
 14 16  1  0
 15 14  1  0
 16 17  2  0
 16 18  1  0
 18 19  1  0
 19 20  1  0
 20 21  1  0
 22 20  2  0
M  END
$$$$
