FSG.pdb
     RDKit          3D

 22 22  0  0  1  0  0  0  0  0999 V2000
    6.0239  -17.8641   18.7939 N   0  0  0  0  0  0  0  0  0  0  0  0
    6.8432  -16.7700   19.2587 C   0  0  1  0  0  0  0  0  0  0  0  0
    5.9432  -15.8333   20.0753 C   0  0  0  0  0  0  0  0  0  0  0  0
    6.8103  -14.7583   20.5910 C   0  0  0  0  0  0  0  0  0  0  0  0
    7.1323  -14.7236   21.9278 C   0  0  0  0  0  0  0  0  0  0  0  0
    7.9396  -13.7235   22.4100 C   0  0  0  0  0  0  0  0  0  0  0  0
    8.4196  -12.7604   21.5386 C   0  0  0  0  0  0  0  0  0  0  0  0
    8.1158  -12.7686   20.1996 C   0  0  0  0  0  0  0  0  0  0  0  0
    7.3042  -13.7831   19.7436 C   0  0  0  0  0  0  0  0  0  0  0  0
    7.8737  -17.2857   20.1601 C   0  0  0  0  0  0  0  0  0  0  0  0
    7.5511  -18.0086   21.1399 O   0  0  0  0  0  0  0  0  0  0  0  0
   11.9446  -17.3136   19.1634 O   0  0  0  0  0  0  0  0  0  0  0  0
   11.2564  -18.2495   19.9162 C   0  0  0  0  0  0  0  0  0  0  0  0
   10.2235  -17.6010   20.8151 C   0  0  2  0  0  0  0  0  0  0  0  0
    9.2352  -16.9933   19.9614 N   0  0  0  0  0  0  0  0  0  0  0  0
   10.7966  -16.5692   21.6844 C   0  0  0  0  0  0  0  0  0  0  0  0
   10.9664  -15.4098   21.2336 O   0  0  0  0  0  0  0  0  0  0  0  0
   11.1670  -16.8415   23.0255 N   0  0  0  0  0  0  0  0  0  0  0  0
   11.7234  -15.7839   23.8149 C   0  0  0  0  0  0  0  0  0  0  0  0
   13.1964  -15.9157   23.9316 C   0  0  0  0  0  0  0  0  0  0  0  0
   13.9518  -15.0853   24.7143 O   0  0  0  0  0  0  0  0  0  0  0  0
   13.7853  -16.8226   23.2904 O   0  0  0  0  0  0  0  0  0  0  0  0
  2  1  1  1
  2 10  1  0
  3  2  1  0
  4  3  1  0
  4  5  2  0
  6  5  1  0
  7  6  2  0
  8  9  2  0
  8  7  1  0
  9  4  1  0
 10 15  1  0
 10 11  2  0
 12 13  1  0
 14 13  1  6
 14 16  1  0
 15 14  1  0
 16 17  2  0
 16 18  1  0
 18 19  1  0
 19 20  1  0
 20 21  1  0
 22 20  2  0
M  END
$$$$
