FSG.pdb
     RDKit          3D

 22 22  0  0  1  0  0  0  0  0999 V2000
    5.7267  -17.6517   25.7338 N   0  0  0  0  0  0  0  0  0  0  0  0
    6.2603  -16.3444   25.4329 C   0  0  1  0  0  0  0  0  0  0  0  0
    7.0716  -15.8849   26.6515 C   0  0  0  0  0  0  0  0  0  0  0  0
    7.1257  -14.4128   26.5919 C   0  0  0  0  0  0  0  0  0  0  0  0
    8.3435  -13.7769   26.5265 C   0  0  0  0  0  0  0  0  0  0  0  0
    8.3961  -12.4062   26.4709 C   0  0  0  0  0  0  0  0  0  0  0  0
    7.2162  -11.6817   26.4815 C   0  0  0  0  0  0  0  0  0  0  0  0
    5.9858  -12.2879   26.5462 C   0  0  0  0  0  0  0  0  0  0  0  0
    5.9631  -13.6635   26.6010 C   0  0  0  0  0  0  0  0  0  0  0  0
    7.1842  -16.4469   24.3031 C   0  0  0  0  0  0  0  0  0  0  0  0
    8.0378  -17.3724   24.2675 O   0  0  0  0  0  0  0  0  0  0  0  0
    8.3947  -14.8833   19.9009 O   0  0  0  0  0  0  0  0  0  0  0  0
    7.5753  -14.8004   21.0136 C   0  0  0  0  0  0  0  0  0  0  0  0
    8.0833  -15.6602   22.1531 C   0  0  2  0  0  0  0  0  0  0  0  0
    7.1462  -15.5276   23.2390 N   0  0  0  0  0  0  0  0  0  0  0  0
    9.4112  -15.2533   22.6216 C   0  0  0  0  0  0  0  0  0  0  0  0
    9.5081  -14.3428   23.4807 O   0  0  0  0  0  0  0  0  0  0  0  0
   10.5958  -15.8592   22.1322 N   0  0  0  0  0  0  0  0  0  0  0  0
   11.8600  -15.2890   22.4901 C   0  0  0  0  0  0  0  0  0  0  0  0
   12.9668  -15.9029   21.7163 C   0  0  0  0  0  0  0  0  0  0  0  0
   13.2227  -15.5795   20.4114 O   0  0  0  0  0  0  0  0  0  0  0  0
   13.7059  -16.7554   22.2707 O   0  0  0  0  0  0  0  0  0  0  0  0
  2  1  1  1
  2 10  1  0
  3  2  1  0
  4  3  1  0
  4  5  2  0
  6  5  1  0
  7  6  2  0
  8  9  2  0
  8  7  1  0
  9  4  1  0
 10 15  1  0
 10 11  2  0
 12 13  1  0
 14 13  1  6
 14 16  1  0
 15 14  1  0
 16 17  2  0
 16 18  1  0
 18 19  1  0
 19 20  1  0
 20 21  1  0
 22 20  2  0
M  END
$$$$
