FSG.pdb
     RDKit          3D

 22 22  0  0  1  0  0  0  0  0999 V2000
   10.7482  -16.7092   21.4769 N   0  0  0  0  0  0  0  0  0  0  0  0
    9.6196  -16.0041   22.0367 C   0  0  1  0  0  0  0  0  0  0  0  0
    8.3827  -16.3829   21.2115 C   0  0  0  0  0  0  0  0  0  0  0  0
    8.0266  -15.1944   20.4151 C   0  0  0  0  0  0  0  0  0  0  0  0
    7.4772  -14.0968   21.0357 C   0  0  0  0  0  0  0  0  0  0  0  0
    7.1448  -12.9891   20.2960 C   0  0  0  0  0  0  0  0  0  0  0  0
    7.3690  -12.9943   18.9296 C   0  0  0  0  0  0  0  0  0  0  0  0
    7.9157  -14.0746   18.2819 C   0  0  0  0  0  0  0  0  0  0  0  0
    8.2393  -15.1716   19.0486 C   0  0  0  0  0  0  0  0  0  0  0  0
    9.3919  -16.4647   23.4066 C   0  0  0  0  0  0  0  0  0  0  0  0
   10.2429  -17.1988   23.9754 O   0  0  0  0  0  0  0  0  0  0  0  0
    5.8542  -15.8039   25.5224 O   0  0  0  0  0  0  0  0  0  0  0  0
    7.0576  -15.3730   26.0537 C   0  0  0  0  0  0  0  0  0  0  0  0
    8.2234  -16.2024   25.5549 C   0  0  2  0  0  0  0  0  0  0  0  0
    8.2325  -16.1060   24.1178 N   0  0  0  0  0  0  0  0  0  0  0  0
    8.1173  -17.6145   25.9338 C   0  0  0  0  0  0  0  0  0  0  0  0
    7.5308  -18.4153   25.1649 O   0  0  0  0  0  0  0  0  0  0  0  0
    8.6593  -18.1065   27.1479 N   0  0  0  0  0  0  0  0  0  0  0  0
    8.4112  -19.4696   27.5108 C   0  0  0  0  0  0  0  0  0  0  0  0
    9.4795  -20.3655   27.0040 C   0  0  0  0  0  0  0  0  0  0  0  0
    9.2161  -21.4648   26.2326 O   0  0  0  0  0  0  0  0  0  0  0  0
   10.6783  -20.1151   27.2879 O   0  0  0  0  0  0  0  0  0  0  0  0
  2  1  1  6
  2 10  1  0
  3  2  1  0
  4  3  1  0
  4  5  2  0
  6  5  1  0
  7  6  2  0
  8  9  2  0
  8  7  1  0
  9  4  1  0
 10 15  1  0
 10 11  2  0
 12 13  1  0
 14 13  1  6
 14 16  1  0
 15 14  1  0
 16 17  2  0
 16 18  1  0
 18 19  1  0
 19 20  1  0
 20 21  1  0
 22 20  2  0
M  END
$$$$
