RWR.pdb
     RDKit          3D

 37 38  0  0  1  0  0  0  0  0999 V2000
    9.5031  -14.6523   15.0231 N   0  0  0  0  0  0  0  0  0  0  0  0
    8.1776  -14.3589   15.4713 C   0  0  0  0  0  0  0  0  0  0  0  0
    7.3545  -13.6737   14.7396 N   0  0  0  0  0  0  0  0  0  0  0  0
    7.7021  -14.8030   16.7357 N   0  0  0  0  0  0  0  0  0  0  0  0
    7.9503  -14.0502   17.9431 C   0  0  0  0  0  0  0  0  0  0  0  0
    9.4411  -14.1479   18.3321 C   0  0  0  0  0  0  0  0  0  0  0  0
    9.5049  -14.2473   19.8204 C   0  0  0  0  0  0  0  0  0  0  0  0
    9.7732  -15.5980   20.3782 C   0  0  2  0  0  0  0  0  0  0  0  0
    8.7673  -16.5737   19.9176 N   0  0  0  0  0  0  0  0  0  0  0  0
    9.7536  -15.5594   21.8555 C   0  0  0  0  0  0  0  0  0  0  0  0
   10.4511  -14.8009   22.5665 O   0  0  0  0  0  0  0  0  0  0  0  0
    6.3890  -13.4659   15.0016 N   0  0  0  0  0  0  0  0  0  0  0  0
    8.8771  -16.4507   22.5592 C   0  0  2  0  0  0  0  0  0  0  0  0
    8.7754  -16.3669   23.9975 C   0  0  0  0  0  0  0  0  0  0  0  0
    7.3541  -16.0273   24.3454 C   0  0  0  0  0  0  0  0  0  0  0  0
    7.0182  -14.5990   24.1800 C   0  0  0  0  0  0  0  0  0  0  0  0
    6.7868  -13.8515   23.0450 N   0  0  0  0  0  0  0  0  0  0  0  0
    6.5266  -12.5955   23.4426 C   0  0  0  0  0  0  0  0  0  0  0  0
    6.5755  -12.4814   24.7768 C   0  0  0  0  0  0  0  0  0  0  0  0
    6.3883  -11.4351   25.6614 C   0  0  0  0  0  0  0  0  0  0  0  0
    6.5038  -11.6155   27.0150 C   0  0  0  0  0  0  0  0  0  0  0  0
    6.8115  -12.8598   27.5088 C   0  0  0  0  0  0  0  0  0  0  0  0
    6.9955  -13.8941   26.6215 C   0  0  0  0  0  0  0  0  0  0  0  0
    6.8829  -13.7319   25.2413 C   0  0  0  0  0  0  0  0  0  0  0  0
    9.1220  -17.7061   24.6154 O   0  0  0  0  0  0  0  0  0  0  0  0
    8.6229  -18.7670   24.1646 N   0  0  0  0  0  0  0  0  0  0  0  0
   15.6800  -21.3796   25.0305 C   0  0  0  0  0  0  0  0  0  0  0  0
   15.1501  -22.0237   23.8466 N   0  0  0  0  0  0  0  0  0  0  0  0
   15.6702  -22.9914   23.3349 N   0  0  0  0  0  0  0  0  0  0  0  0
   13.9521  -21.4752   23.2616 C   0  0  0  0  0  0  0  0  0  0  0  0
   13.6253  -20.1045   23.5383 C   0  0  0  0  0  0  0  0  0  0  0  0
   12.8468  -20.0703   24.8404 C   0  0  0  0  0  0  0  0  0  0  0  0
   11.7806  -19.0236   24.7200 C   0  0  1  0  0  0  0  0  0  0  0  0
   10.9306  -18.8681   25.9429 N   0  0  0  0  0  0  0  0  0  0  0  0
   10.0142  -17.7471   25.7082 C   0  0  0  0  0  0  0  0  0  0  0  0
   11.6963  -18.6655   27.1853 O   0  0  0  0  0  0  0  0  0  0  0  0
   12.2285  -19.5730   27.8559 O   0  0  0  0  0  0  0  0  0  0  0  0
  2  1  1  0
  3  2  2  0
  4  2  1  0
  5  4  1  0
  6  5  1  0
  7  6  1  0
  8 10  1  0
  8  9  1  6
  8  7  1  0
 10 12  1  0
 11 10  2  0
 12 13  1  0
 13 14  1  6
 14 15  1  0
 15 16  2  0
 15 23  1  0
 16 17  1  0
 17 18  1  0
 18 19  2  0
 19 20  1  0
 21 20  2  0
 22 21  1  0
 23 22  2  0
 23 18  1  0
 24 13  1  0
 25 24  2  0
 27 29  1  0
 27 26  1  0
 28 27  2  0
 30 31  1  0
 30 29  1  0
 31 32  1  0
 33 32  1  6
 33 34  1  0
 34 24  1  0
 35 37  1  0
 35 33  1  0
 36 35  2  0
M  END
$$$$
