RWR.pdb
     RDKit          3D

 37 38  0  0  1  0  0  0  0  0999 V2000
    8.3209  -12.4072   18.3214 N   0  0  0  0  0  0  0  0  0  0  0  0
    7.4149  -13.3386   17.7252 C   0  0  0  0  0  0  0  0  0  0  0  0
    6.4436  -12.9410   16.9631 N   0  0  0  0  0  0  0  0  0  0  0  0
    7.5360  -14.7391   17.9397 N   0  0  0  0  0  0  0  0  0  0  0  0
    8.6422  -15.2968   18.6825 C   0  0  0  0  0  0  0  0  0  0  0  0
    8.4342  -15.0683   20.1951 C   0  0  0  0  0  0  0  0  0  0  0  0
    9.6213  -15.6403   20.8968 C   0  0  0  0  0  0  0  0  0  0  0  0
    9.3528  -16.7565   21.8400 C   0  0  2  0  0  0  0  0  0  0  0  0
    7.9142  -17.0783   21.8883 N   0  0  0  0  0  0  0  0  0  0  0  0
    9.8045  -16.4013   23.2016 C   0  0  0  0  0  0  0  0  0  0  0  0
   10.6819  -15.5499   23.4715 O   0  0  0  0  0  0  0  0  0  0  0  0
    5.7749  -13.5672   16.5104 N   0  0  0  0  0  0  0  0  0  0  0  0
    9.2100  -17.0687   24.3238 C   0  0  1  0  0  0  0  0  0  0  0  0
    9.7530  -16.8663   25.6467 C   0  0  0  0  0  0  0  0  0  0  0  0
    8.6260  -16.4713   26.5579 C   0  0  0  0  0  0  0  0  0  0  0  0
    7.6748  -15.5136   25.9595 C   0  0  0  0  0  0  0  0  0  0  0  0
    6.6090  -15.7123   25.1078 N   0  0  0  0  0  0  0  0  0  0  0  0
    6.0715  -14.5077   24.8562 C   0  0  0  0  0  0  0  0  0  0  0  0
    6.7285  -13.5318   25.4977 C   0  0  0  0  0  0  0  0  0  0  0  0
    6.5807  -12.1589   25.5722 C   0  0  0  0  0  0  0  0  0  0  0  0
    7.4244  -11.3903   26.3308 C   0  0  0  0  0  0  0  0  0  0  0  0
    8.4399  -11.9911   27.0341 C   0  0  0  0  0  0  0  0  0  0  0  0
    8.5789  -13.3568   26.9540 C   0  0  0  0  0  0  0  0  0  0  0  0
    7.7318  -14.1568   26.1883 C   0  0  0  0  0  0  0  0  0  0  0  0
   10.3613  -18.1575   26.1549 O   0  0  0  0  0  0  0  0  0  0  0  0
    9.7810  -19.2555   25.9667 N   0  0  0  0  0  0  0  0  0  0  0  0
   16.6865  -21.3585   29.4781 C   0  0  0  0  0  0  0  0  0  0  0  0
   16.8811  -20.1713   30.2841 N   0  0  0  0  0  0  0  0  0  0  0  0
   17.3113  -20.2075   31.4166 N   0  0  0  0  0  0  0  0  0  0  0  0
   16.5405  -18.8982   29.6997 C   0  0  0  0  0  0  0  0  0  0  0  0
   15.8824  -18.8892   28.4234 C   0  0  0  0  0  0  0  0  0  0  0  0
   14.4038  -19.1292   28.6658 C   0  0  0  0  0  0  0  0  0  0  0  0
   13.7050  -19.1180   27.3396 C   0  0  1  0  0  0  0  0  0  0  0  0
   12.2214  -19.3025   27.4246 N   0  0  0  0  0  0  0  0  0  0  0  0
   11.5910  -18.1113   26.8458 C   0  0  0  0  0  0  0  0  0  0  0  0
   11.7234  -19.5460   28.7898 O   0  0  0  0  0  0  0  0  0  0  0  0
   11.1193  -18.7105   29.4925 O   0  0  0  0  0  0  0  0  0  0  0  0
  2  1  1  0
  3  2  2  0
  4  2  1  0
  5  4  1  0
  6  5  1  0
  7  6  1  0
  8 10  1  0
  8  9  1  1
  8  7  1  0
 10 12  1  0
 11 10  2  0
 12 13  1  0
 13 14  1  6
 14 15  1  0
 15 16  2  0
 15 23  1  0
 16 17  1  0
 17 18  1  0
 18 19  2  0
 19 20  1  0
 21 20  2  0
 22 21  1  0
 23 22  2  0
 23 18  1  0
 24 13  1  0
 25 24  2  0
 27 29  1  0
 27 26  1  0
 28 27  2  0
 30 31  1  0
 30 29  1  0
 31 32  1  0
 33 32  1  6
 33 34  1  0
 34 24  1  0
 35 37  1  0
 35 33  1  0
 36 35  2  0
M  END
$$$$
