RWR.pdb
     RDKit          3D

 37 38  0  0  1  0  0  0  0  0999 V2000
    8.8600  -19.3684   14.9364 N   0  0  0  0  0  0  0  0  0  0  0  0
    9.7143  -20.3264   15.5658 C   0  0  0  0  0  0  0  0  0  0  0  0
    9.7276  -21.5678   15.1901 N   0  0  0  0  0  0  0  0  0  0  0  0
   10.5857  -19.9640   16.6295 N   0  0  0  0  0  0  0  0  0  0  0  0
   10.7084  -18.5947   17.0724 C   0  0  0  0  0  0  0  0  0  0  0  0
    9.3184  -18.0268   17.4316 C   0  0  0  0  0  0  0  0  0  0  0  0
    9.5002  -17.1182   18.6022 C   0  0  0  0  0  0  0  0  0  0  0  0
    8.5497  -17.3003   19.7296 C   0  0  2  0  0  0  0  0  0  0  0  0
    7.3024  -16.5468   19.5013 N   0  0  0  0  0  0  0  0  0  0  0  0
    9.1566  -16.8391   20.9958 C   0  0  0  0  0  0  0  0  0  0  0  0
   10.2267  -17.2703   21.4819 O   0  0  0  0  0  0  0  0  0  0  0  0
   10.2154  -22.3142   15.6891 N   0  0  0  0  0  0  0  0  0  0  0  0
    8.4894  -15.8181   21.7510 C   0  0  2  0  0  0  0  0  0  0  0  0
    9.0534  -15.3701   23.0029 C   0  0  0  0  0  0  0  0  0  0  0  0
    8.2277  -14.2183   23.5007 C   0  0  0  0  0  0  0  0  0  0  0  0
    8.4116  -13.9207   24.9352 C   0  0  0  0  0  0  0  0  0  0  0  0
    9.3894  -14.3188   25.8218 N   0  0  0  0  0  0  0  0  0  0  0  0
    9.0907  -13.7754   27.0130 C   0  0  0  0  0  0  0  0  0  0  0  0
    7.9701  -13.0433   26.9531 C   0  0  0  0  0  0  0  0  0  0  0  0
    7.2559  -12.2985   27.8737 C   0  0  0  0  0  0  0  0  0  0  0  0
    6.1109  -11.6340   27.5198 C   0  0  0  0  0  0  0  0  0  0  0  0
    5.6586  -11.7056   26.2248 C   0  0  0  0  0  0  0  0  0  0  0  0
    6.3756  -12.4484   25.3164 C   0  0  0  0  0  0  0  0  0  0  0  0
    7.5424  -13.1320   25.6556 C   0  0  0  0  0  0  0  0  0  0  0  0
    8.9939  -16.4892   24.0224 O   0  0  0  0  0  0  0  0  0  0  0  0
    7.9175  -17.0982   24.2417 N   0  0  0  0  0  0  0  0  0  0  0  0
   13.7203  -23.0724   24.1007 C   0  0  0  0  0  0  0  0  0  0  0  0
   13.4854  -21.8718   23.3257 N   0  0  0  0  0  0  0  0  0  0  0  0
   14.1180  -21.5972   22.3291 N   0  0  0  0  0  0  0  0  0  0  0  0
   12.4519  -20.9727   23.7749 C   0  0  0  0  0  0  0  0  0  0  0  0
   11.4545  -20.5555   22.8296 C   0  0  0  0  0  0  0  0  0  0  0  0
   10.4441  -19.7014   23.5728 C   0  0  0  0  0  0  0  0  0  0  0  0
   11.1513  -19.0200   24.7053 C   0  0  2  0  0  0  0  0  0  0  0  0
   10.2894  -18.0831   25.4937 N   0  0  0  0  0  0  0  0  0  0  0  0
   10.1662  -16.8393   24.7260 C   0  0  0  0  0  0  0  0  0  0  0  0
   10.7859  -17.8104   26.8539 O   0  0  0  0  0  0  0  0  0  0  0  0
   10.7290  -18.6081   27.8115 O   0  0  0  0  0  0  0  0  0  0  0  0
  2  1  1  0
  3  2  2  0
  4  2  1  0
  5  4  1  0
  6  5  1  0
  7  6  1  0
  8 10  1  0
  8  9  1  6
  8  7  1  0
 10 12  1  0
 11 10  2  0
 12 13  1  0
 13 14  1  6
 14 15  1  0
 15 16  2  0
 15 23  1  0
 16 17  1  0
 17 18  1  0
 18 19  2  0
 19 20  1  0
 21 20  2  0
 22 21  1  0
 23 22  2  0
 23 18  1  0
 24 13  1  0
 25 24  2  0
 27 29  1  0
 27 26  1  0
 28 27  2  0
 30 31  1  0
 30 29  1  0
 31 32  1  0
 33 32  1  6
 33 34  1  0
 34 24  1  0
 35 37  1  0
 35 33  1  0
 36 35  2  0
M  END
$$$$
