RWR.pdb
     RDKit          3D

 37 38  0  0  1  0  0  0  0  0999 V2000
    9.2593  -12.4681   16.1756 N   0  0  0  0  0  0  0  0  0  0  0  0
    8.3974  -13.5602   15.8460 C   0  0  0  0  0  0  0  0  0  0  0  0
    8.6604  -14.3505   14.8517 N   0  0  0  0  0  0  0  0  0  0  0  0
    7.2161  -13.8294   16.5903 N   0  0  0  0  0  0  0  0  0  0  0  0
    7.2037  -13.7753   18.0337 C   0  0  0  0  0  0  0  0  0  0  0  0
    8.5104  -14.3732   18.5980 C   0  0  0  0  0  0  0  0  0  0  0  0
    8.4304  -14.2866   20.0863 C   0  0  0  0  0  0  0  0  0  0  0  0
    8.1991  -15.5647   20.8078 C   0  0  2  0  0  0  0  0  0  0  0  0
    6.8870  -16.1422   20.4605 N   0  0  0  0  0  0  0  0  0  0  0  0
    8.2497  -15.3490   22.2689 C   0  0  0  0  0  0  0  0  0  0  0  0
    7.8383  -14.3259   22.8617 O   0  0  0  0  0  0  0  0  0  0  0  0
    8.1246  -15.1915   14.6287 N   0  0  0  0  0  0  0  0  0  0  0  0
    8.8104  -16.3747   23.1006 C   0  0  1  0  0  0  0  0  0  0  0  0
    9.4308  -16.0190   24.3554 C   0  0  0  0  0  0  0  0  0  0  0  0
    8.4783  -16.3700   25.4626 C   0  0  0  0  0  0  0  0  0  0  0  0
    7.3821  -15.3977   25.6452 C   0  0  0  0  0  0  0  0  0  0  0  0
    6.0150  -15.5732   25.6740 N   0  0  0  0  0  0  0  0  0  0  0  0
    5.4631  -14.3636   25.8628 C   0  0  0  0  0  0  0  0  0  0  0  0
    6.3958  -13.4065   25.9589 C   0  0  0  0  0  0  0  0  0  0  0  0
    6.3549  -12.0376   26.1512 C   0  0  0  0  0  0  0  0  0  0  0  0
    7.5022  -11.2906   26.2106 C   0  0  0  0  0  0  0  0  0  0  0  0
    8.7212  -11.9094   26.0772 C   0  0  0  0  0  0  0  0  0  0  0  0
    8.7520  -13.2709   25.8867 C   0  0  0  0  0  0  0  0  0  0  0  0
    7.5969  -14.0491   25.8231 C   0  0  0  0  0  0  0  0  0  0  0  0
   10.7074  -16.8138   24.5402 O   0  0  0  0  0  0  0  0  0  0  0  0
   11.0248  -17.7134   23.7230 N   0  0  0  0  0  0  0  0  0  0  0  0
   12.0270  -19.5788   31.2405 C   0  0  0  0  0  0  0  0  0  0  0  0
   11.3541  -20.8311   30.9650 N   0  0  0  0  0  0  0  0  0  0  0  0
   11.3299  -21.7526   31.7518 N   0  0  0  0  0  0  0  0  0  0  0  0
   10.6910  -20.9728   29.6927 C   0  0  0  0  0  0  0  0  0  0  0  0
   10.3043  -19.7815   28.9902 C   0  0  0  0  0  0  0  0  0  0  0  0
   11.4828  -19.3451   28.1397 C   0  0  0  0  0  0  0  0  0  0  0  0
   11.0799  -18.1195   27.3765 C   0  0  1  0  0  0  0  0  0  0  0  0
   12.1444  -17.5809   26.4715 N   0  0  0  0  0  0  0  0  0  0  0  0
   11.5375  -16.5312   25.6461 C   0  0  0  0  0  0  0  0  0  0  0  0
   12.7888  -18.6021   25.6273 O   0  0  0  0  0  0  0  0  0  0  0  0
   12.3263  -19.0428   24.5556 O   0  0  0  0  0  0  0  0  0  0  0  0
  2  1  1  0
  3  2  2  0
  4  2  1  0
  5  4  1  0
  6  5  1  0
  7  6  1  0
  8 10  1  0
  8  9  1  1
  8  7  1  0
 10 12  1  0
 11 10  2  0
 12 13  1  0
 13 14  1  6
 14 15  1  0
 15 16  2  0
 15 23  1  0
 16 17  1  0
 17 18  1  0
 18 19  2  0
 19 20  1  0
 21 20  2  0
 22 21  1  0
 23 22  2  0
 23 18  1  0
 24 13  1  0
 25 24  2  0
 27 29  1  0
 27 26  1  0
 28 27  2  0
 30 31  1  0
 30 29  1  0
 31 32  1  0
 33 32  1  1
 33 34  1  0
 34 24  1  0
 35 37  1  0
 35 33  1  0
 36 35  2  0
M  END
$$$$
