RWR.pdb
     RDKit          3D

 37 38  0  0  1  0  0  0  0  0999 V2000
    7.4554  -15.3707   16.3183 N   0  0  0  0  0  0  0  0  0  0  0  0
    7.6332  -13.9527   16.3590 C   0  0  0  0  0  0  0  0  0  0  0  0
    8.1344  -13.3068   15.3521 N   0  0  0  0  0  0  0  0  0  0  0  0
    7.2702  -13.1877   17.5014 N   0  0  0  0  0  0  0  0  0  0  0  0
    7.9745  -13.3216   18.7553 C   0  0  0  0  0  0  0  0  0  0  0  0
    7.4631  -14.5608   19.5212 C   0  0  0  0  0  0  0  0  0  0  0  0
    8.1607  -14.5847   20.8409 C   0  0  0  0  0  0  0  0  0  0  0  0
    8.7261  -15.8926   21.2620 C   0  0  2  0  0  0  0  0  0  0  0  0
    7.7240  -16.9686   21.1444 N   0  0  0  0  0  0  0  0  0  0  0  0
    9.1886  -15.8274   22.6642 C   0  0  0  0  0  0  0  0  0  0  0  0
   10.0497  -15.0319   23.1035 O   0  0  0  0  0  0  0  0  0  0  0  0
    8.2826  -12.2959   15.3340 N   0  0  0  0  0  0  0  0  0  0  0  0
    8.6255  -16.7357   23.6212 C   0  0  1  0  0  0  0  0  0  0  0  0
    9.0045  -16.6362   25.0113 C   0  0  0  0  0  0  0  0  0  0  0  0
    7.7651  -16.3600   25.8139 C   0  0  0  0  0  0  0  0  0  0  0  0
    7.0681  -15.1142   25.4365 C   0  0  0  0  0  0  0  0  0  0  0  0
    6.0038  -14.8966   24.5877 N   0  0  0  0  0  0  0  0  0  0  0  0
    5.7580  -13.5764   24.5890 C   0  0  0  0  0  0  0  0  0  0  0  0
    6.6045  -12.9189   25.3930 C   0  0  0  0  0  0  0  0  0  0  0  0
    6.7692  -11.5898   25.7377 C   0  0  0  0  0  0  0  0  0  0  0  0
    7.7482  -11.1952   26.6118 C   0  0  0  0  0  0  0  0  0  0  0  0
    8.5861  -12.1354   27.1601 C   0  0  0  0  0  0  0  0  0  0  0  0
    8.4145  -13.4545   26.8116 C   0  0  0  0  0  0  0  0  0  0  0  0
    7.4253  -13.8770   25.9245 C   0  0  0  0  0  0  0  0  0  0  0  0
    9.6035  -17.9482   25.4752 O   0  0  0  0  0  0  0  0  0  0  0  0
    8.8716  -18.9477   25.6828 N   0  0  0  0  0  0  0  0  0  0  0  0
   14.9608  -20.2647   21.9599 C   0  0  0  0  0  0  0  0  0  0  0  0
   14.5529  -18.9583   21.4865 N   0  0  0  0  0  0  0  0  0  0  0  0
   14.3719  -18.7098   20.3142 N   0  0  0  0  0  0  0  0  0  0  0  0
   14.3609  -17.9177   22.4657 C   0  0  0  0  0  0  0  0  0  0  0  0
   14.3456  -18.2839   23.8542 C   0  0  0  0  0  0  0  0  0  0  0  0
   13.0176  -18.9615   24.1373 C   0  0  0  0  0  0  0  0  0  0  0  0
   12.9922  -19.3536   25.5839 C   0  0  2  0  0  0  0  0  0  0  0  0
   11.6490  -19.2232   26.2328 N   0  0  0  0  0  0  0  0  0  0  0  0
   10.9982  -18.0336   25.6734 C   0  0  0  0  0  0  0  0  0  0  0  0
   11.6968  -19.1494   27.7036 O   0  0  0  0  0  0  0  0  0  0  0  0
   11.3484  -18.1634   28.3840 O   0  0  0  0  0  0  0  0  0  0  0  0
  2  1  1  0
  3  2  2  0
  4  2  1  0
  5  4  1  0
  6  5  1  0
  7  6  1  0
  8 10  1  0
  8  9  1  1
  8  7  1  0
 10 12  1  0
 11 10  2  0
 12 13  1  0
 13 14  1  1
 14 15  1  0
 15 16  2  0
 15 23  1  0
 16 17  1  0
 17 18  1  0
 18 19  2  0
 19 20  1  0
 21 20  2  0
 22 21  1  0
 23 22  2  0
 23 18  1  0
 24 13  1  0
 25 24  2  0
 27 29  1  0
 27 26  1  0
 28 27  2  0
 30 31  1  0
 30 29  1  0
 31 32  1  0
 33 32  1  6
 33 34  1  0
 34 24  1  0
 35 37  1  0
 35 33  1  0
 36 35  2  0
M  END
$$$$
