RWR.pdb
     RDKit          3D

 37 38  0  0  1  0  0  0  0  0999 V2000
    8.3769  -15.2424   16.6338 N   0  0  0  0  0  0  0  0  0  0  0  0
    8.4802  -13.8171   16.5906 C   0  0  0  0  0  0  0  0  0  0  0  0
    8.7376  -13.1928   15.4832 N   0  0  0  0  0  0  0  0  0  0  0  0
    8.3063  -13.0208   17.7558 N   0  0  0  0  0  0  0  0  0  0  0  0
    8.3893  -13.5914   19.0802 C   0  0  0  0  0  0  0  0  0  0  0  0
    7.0568  -14.2804   19.4453 C   0  0  0  0  0  0  0  0  0  0  0  0
    7.1349  -14.6595   20.8872 C   0  0  0  0  0  0  0  0  0  0  0  0
    7.8483  -15.9256   21.1964 C   0  0  2  0  0  0  0  0  0  0  0  0
    6.8985  -17.0347   21.4052 N   0  0  0  0  0  0  0  0  0  0  0  0
    8.6703  -15.7704   22.4148 C   0  0  0  0  0  0  0  0  0  0  0  0
    9.6012  -14.9453   22.5566 O   0  0  0  0  0  0  0  0  0  0  0  0
    8.8133  -12.1772   15.4002 N   0  0  0  0  0  0  0  0  0  0  0  0
    8.4053  -16.6189   23.5408 C   0  0  1  0  0  0  0  0  0  0  0  0
    9.2546  -16.5468   24.7067 C   0  0  0  0  0  0  0  0  0  0  0  0
    8.3776  -16.3574   25.9114 C   0  0  0  0  0  0  0  0  0  0  0  0
    7.4323  -15.2289   25.7971 C   0  0  0  0  0  0  0  0  0  0  0  0
    6.0963  -15.2009   25.4583 N   0  0  0  0  0  0  0  0  0  0  0  0
    5.7034  -13.9174   25.4964 C   0  0  0  0  0  0  0  0  0  0  0  0
    6.7109  -13.1043   25.8419 C   0  0  0  0  0  0  0  0  0  0  0  0
    6.8278  -11.7380   26.0207 C   0  0  0  0  0  0  0  0  0  0  0  0
    8.0176  -11.1654   26.3877 C   0  0  0  0  0  0  0  0  0  0  0  0
    9.1203  -11.9608   26.5835 C   0  0  0  0  0  0  0  0  0  0  0  0
    8.9943  -13.3182   26.4036 C   0  0  0  0  0  0  0  0  0  0  0  0
    7.7936  -13.9206   26.0305 C   0  0  0  0  0  0  0  0  0  0  0  0
   10.0237  -17.8429   24.8623 O   0  0  0  0  0  0  0  0  0  0  0  0
    9.4172  -18.9321   25.0154 N   0  0  0  0  0  0  0  0  0  0  0  0
   17.4522  -20.6458   23.8500 C   0  0  0  0  0  0  0  0  0  0  0  0
   17.3708  -19.7193   22.7400 N   0  0  0  0  0  0  0  0  0  0  0  0
   18.3409  -19.3642   22.1062 N   0  0  0  0  0  0  0  0  0  0  0  0
   16.0713  -19.2036   22.3881 C   0  0  0  0  0  0  0  0  0  0  0  0
   14.9297  -20.0568   22.5645 C   0  0  0  0  0  0  0  0  0  0  0  0
   14.4542  -19.8998   23.9970 C   0  0  0  0  0  0  0  0  0  0  0  0
   13.4860  -18.7564   24.0452 C   0  0  1  0  0  0  0  0  0  0  0  0
   12.2561  -19.0259   24.8558 N   0  0  0  0  0  0  0  0  0  0  0  0
   11.4344  -17.8111   24.8348 C   0  0  0  0  0  0  0  0  0  0  0  0
   12.5298  -19.4474   26.2408 O   0  0  0  0  0  0  0  0  0  0  0  0
   12.3140  -18.7562   27.2569 O   0  0  0  0  0  0  0  0  0  0  0  0
  2  1  1  0
  3  2  2  0
  4  2  1  0
  5  4  1  0
  6  5  1  0
  7  6  1  0
  8 10  1  0
  8  9  1  1
  8  7  1  0
 10 12  1  0
 11 10  2  0
 12 13  1  0
 13 14  1  1
 14 15  1  0
 15 16  2  0
 15 23  1  0
 16 17  1  0
 17 18  1  0
 18 19  2  0
 19 20  1  0
 21 20  2  0
 22 21  1  0
 23 22  2  0
 23 18  1  0
 24 13  1  0
 25 24  2  0
 27 29  1  0
 27 26  1  0
 28 27  2  0
 30 31  1  0
 30 29  1  0
 31 32  1  0
 33 32  1  6
 33 34  1  0
 34 24  1  0
 35 37  1  0
 35 33  1  0
 36 35  2  0
M  END
$$$$
