RWR.pdb
     RDKit          3D

 37 38  0  0  1  0  0  0  0  0999 V2000
    6.8520  -12.4935   16.4305 N   0  0  0  0  0  0  0  0  0  0  0  0
    7.7980  -13.5164   16.1099 C   0  0  0  0  0  0  0  0  0  0  0  0
    7.9800  -13.9073   14.8866 N   0  0  0  0  0  0  0  0  0  0  0  0
    8.5801  -14.1507   17.1139 N   0  0  0  0  0  0  0  0  0  0  0  0
    8.1260  -14.2385   18.4822 C   0  0  0  0  0  0  0  0  0  0  0  0
    9.1864  -14.9521   19.3482 C   0  0  0  0  0  0  0  0  0  0  0  0
    8.5866  -15.1622   20.6991 C   0  0  0  0  0  0  0  0  0  0  0  0
    8.8380  -16.4827   21.3320 C   0  0  2  0  0  0  0  0  0  0  0  0
    7.6107  -17.3003   21.3637 N   0  0  0  0  0  0  0  0  0  0  0  0
    9.3259  -16.3071   22.7160 C   0  0  0  0  0  0  0  0  0  0  0  0
   10.3514  -15.6681   23.0437 O   0  0  0  0  0  0  0  0  0  0  0  0
    8.6986  -14.5735   14.5969 N   0  0  0  0  0  0  0  0  0  0  0  0
    8.5879  -16.9056   23.7908 C   0  0  1  0  0  0  0  0  0  0  0  0
    9.0567  -16.7598   25.1490 C   0  0  0  0  0  0  0  0  0  0  0  0
    7.8763  -16.4274   26.0166 C   0  0  0  0  0  0  0  0  0  0  0  0
    7.1098  -15.2488   25.5655 C   0  0  0  0  0  0  0  0  0  0  0  0
    5.9893  -15.1515   24.7683 N   0  0  0  0  0  0  0  0  0  0  0  0
    5.6924  -13.8465   24.6577 C   0  0  0  0  0  0  0  0  0  0  0  0
    6.5587  -13.0851   25.3397 C   0  0  0  0  0  0  0  0  0  0  0  0
    6.6914  -11.7238   25.5436 C   0  0  0  0  0  0  0  0  0  0  0  0
    7.7042  -11.2125   26.3122 C   0  0  0  0  0  0  0  0  0  0  0  0
    8.6095  -12.0657   26.8948 C   0  0  0  0  0  0  0  0  0  0  0  0
    8.4694  -13.4177   26.6866 C   0  0  0  0  0  0  0  0  0  0  0  0
    7.4466  -13.9583   25.9084 C   0  0  0  0  0  0  0  0  0  0  0  0
    9.6607  -18.0646   25.6264 O   0  0  0  0  0  0  0  0  0  0  0  0
    9.3106  -19.1568   25.1141 N   0  0  0  0  0  0  0  0  0  0  0  0
   17.3456  -19.6435   24.7418 C   0  0  0  0  0  0  0  0  0  0  0  0
   16.6570  -20.6956   24.0232 N   0  0  0  0  0  0  0  0  0  0  0  0
   17.2224  -21.6764   23.5905 N   0  0  0  0  0  0  0  0  0  0  0  0
   15.2370  -20.5531   23.8196 C   0  0  0  0  0  0  0  0  0  0  0  0
   14.6032  -19.3441   24.2657 C   0  0  0  0  0  0  0  0  0  0  0  0
   13.8175  -19.6723   25.5218 C   0  0  0  0  0  0  0  0  0  0  0  0
   12.5653  -18.8481   25.5183 C   0  0  1  0  0  0  0  0  0  0  0  0
   11.7208  -19.0076   26.7445 N   0  0  0  0  0  0  0  0  0  0  0  0
   10.6234  -18.0382   26.6581 C   0  0  0  0  0  0  0  0  0  0  0  0
   12.4605  -18.8478   28.0087 O   0  0  0  0  0  0  0  0  0  0  0  0
   12.3244  -17.8962   28.8040 O   0  0  0  0  0  0  0  0  0  0  0  0
  2  1  1  0
  3  2  2  0
  4  2  1  0
  5  4  1  0
  6  5  1  0
  7  6  1  0
  8 10  1  0
  8  9  1  1
  8  7  1  0
 10 12  1  0
 11 10  2  0
 12 13  1  0
 13 14  1  1
 14 15  1  0
 15 16  2  0
 15 23  1  0
 16 17  1  0
 17 18  1  0
 18 19  2  0
 19 20  1  0
 21 20  2  0
 22 21  1  0
 23 22  2  0
 23 18  1  0
 24 13  1  0
 25 24  2  0
 27 29  1  0
 27 26  1  0
 28 27  2  0
 30 31  1  0
 30 29  1  0
 31 32  1  0
 33 32  1  6
 33 34  1  0
 34 24  1  0
 35 37  1  0
 35 33  1  0
 36 35  2  0
M  END
$$$$
