RWR.pdb
     RDKit          3D

 37 38  0  0  1  0  0  0  0  0999 V2000
    9.1906  -15.3654   16.3762 N   0  0  0  0  0  0  0  0  0  0  0  0
    8.2279  -14.3627   16.0416 C   0  0  0  0  0  0  0  0  0  0  0  0
    7.7498  -14.2612   14.8402 N   0  0  0  0  0  0  0  0  0  0  0  0
    7.7520  -13.4336   17.0071 N   0  0  0  0  0  0  0  0  0  0  0  0
    8.2468  -13.4338   18.3641 C   0  0  0  0  0  0  0  0  0  0  0  0
    7.2290  -14.1214   19.2995 C   0  0  0  0  0  0  0  0  0  0  0  0
    7.8578  -14.2080   20.6509 C   0  0  0  0  0  0  0  0  0  0  0  0
    8.3510  -15.5480   21.0618 C   0  0  2  0  0  0  0  0  0  0  0  0
    7.2642  -16.5450   21.0399 N   0  0  0  0  0  0  0  0  0  0  0  0
    8.9162  -15.4936   22.4263 C   0  0  0  0  0  0  0  0  0  0  0  0
    9.8068  -14.7003   22.8071 O   0  0  0  0  0  0  0  0  0  0  0  0
    7.1318  -13.5093   14.5292 N   0  0  0  0  0  0  0  0  0  0  0  0
    8.4267  -16.4107   23.4149 C   0  0  1  0  0  0  0  0  0  0  0  0
    9.0550  -16.4649   24.7142 C   0  0  0  0  0  0  0  0  0  0  0  0
    7.9855  -16.3025   25.7565 C   0  0  0  0  0  0  0  0  0  0  0  0
    7.1680  -15.0835   25.5959 C   0  0  0  0  0  0  0  0  0  0  0  0
    5.9601  -14.8833   24.9621 N   0  0  0  0  0  0  0  0  0  0  0  0
    5.6491  -13.5843   25.1007 C   0  0  0  0  0  0  0  0  0  0  0  0
    6.5887  -12.9241   25.7910 C   0  0  0  0  0  0  0  0  0  0  0  0
    6.7415  -11.6109   26.1965 C   0  0  0  0  0  0  0  0  0  0  0  0
    7.8375  -11.2082   26.9138 C   0  0  0  0  0  0  0  0  0  0  0  0
    8.8078  -12.1243   27.2398 C   0  0  0  0  0  0  0  0  0  0  0  0
    8.6471  -13.4278   26.8325 C   0  0  0  0  0  0  0  0  0  0  0  0
    7.5401  -13.8580   26.1022 C   0  0  0  0  0  0  0  0  0  0  0  0
    9.7222  -17.8116   24.9059 O   0  0  0  0  0  0  0  0  0  0  0  0
    9.0676  -18.8749   24.7697 N   0  0  0  0  0  0  0  0  0  0  0  0
   14.5426  -18.2090   19.1536 C   0  0  0  0  0  0  0  0  0  0  0  0
   14.7037  -18.7912   20.4697 N   0  0  0  0  0  0  0  0  0  0  0  0
   15.7880  -19.0257   20.9578 N   0  0  0  0  0  0  0  0  0  0  0  0
   13.5115  -19.1026   21.2181 C   0  0  0  0  0  0  0  0  0  0  0  0
   13.3366  -18.4906   22.5054 C   0  0  0  0  0  0  0  0  0  0  0  0
   13.3545  -19.5945   23.5465 C   0  0  0  0  0  0  0  0  0  0  0  0
   13.1842  -18.9660   24.8968 C   0  0  2  0  0  0  0  0  0  0  0  0
   11.8110  -19.1140   25.4752 N   0  0  0  0  0  0  0  0  0  0  0  0
   11.0922  -17.8568   25.2419 C   0  0  0  0  0  0  0  0  0  0  0  0
   11.7962  -19.4665   26.9057 O   0  0  0  0  0  0  0  0  0  0  0  0
   11.6730  -18.6530   27.8436 O   0  0  0  0  0  0  0  0  0  0  0  0
  2  1  1  0
  3  2  2  0
  4  2  1  0
  5  4  1  0
  6  5  1  0
  7  6  1  0
  8 10  1  0
  8  9  1  1
  8  7  1  0
 10 12  1  0
 11 10  2  0
 12 13  1  0
 13 14  1  6
 14 15  1  0
 15 16  2  0
 15 23  1  0
 16 17  1  0
 17 18  1  0
 18 19  2  0
 19 20  1  0
 21 20  2  0
 22 21  1  0
 23 22  2  0
 23 18  1  0
 24 13  1  0
 25 24  2  0
 27 29  1  0
 27 26  1  0
 28 27  2  0
 30 31  1  0
 30 29  1  0
 31 32  1  0
 33 32  1  6
 33 34  1  0
 34 24  1  0
 35 37  1  0
 35 33  1  0
 36 35  2  0
M  END
$$$$
