RWR.pdb
     RDKit          3D

 37 38  0  0  1  0  0  0  0  0999 V2000
    8.9157  -16.9069   15.3219 N   0  0  0  0  0  0  0  0  0  0  0  0
    8.3561  -15.6499   14.9336 C   0  0  0  0  0  0  0  0  0  0  0  0
    7.9481  -15.4393   13.7205 N   0  0  0  0  0  0  0  0  0  0  0  0
    8.2217  -14.5761   15.8560 N   0  0  0  0  0  0  0  0  0  0  0  0
    8.5698  -14.7290   17.2495 C   0  0  0  0  0  0  0  0  0  0  0  0
    7.3268  -14.4968   18.1352 C   0  0  0  0  0  0  0  0  0  0  0  0
    7.8158  -14.1611   19.5053 C   0  0  0  0  0  0  0  0  0  0  0  0
    7.1775  -14.8940   20.6292 C   0  0  2  0  0  0  0  0  0  0  0  0
    5.8176  -14.3866   20.8916 N   0  0  0  0  0  0  0  0  0  0  0  0
    7.9818  -14.7519   21.8608 C   0  0  0  0  0  0  0  0  0  0  0  0
    8.4334  -13.6729   22.3070 O   0  0  0  0  0  0  0  0  0  0  0  0
    7.5181  -14.5689   13.4017 N   0  0  0  0  0  0  0  0  0  0  0  0
    8.2870  -15.9258   22.6270 C   0  0  1  0  0  0  0  0  0  0  0  0
    9.2316  -15.8438   23.7164 C   0  0  0  0  0  0  0  0  0  0  0  0
    8.5493  -16.3306   24.9629 C   0  0  0  0  0  0  0  0  0  0  0  0
    7.4368  -15.4717   25.4155 C   0  0  0  0  0  0  0  0  0  0  0  0
    6.0717  -15.6536   25.3507 N   0  0  0  0  0  0  0  0  0  0  0  0
    5.5000  -14.5691   25.8989 C   0  0  0  0  0  0  0  0  0  0  0  0
    6.4178  -13.6878   26.3187 C   0  0  0  0  0  0  0  0  0  0  0  0
    6.3548  -12.4512   26.9343 C   0  0  0  0  0  0  0  0  0  0  0  0
    7.4908  -11.7564   27.2584 C   0  0  0  0  0  0  0  0  0  0  0  0
    8.7204  -12.2952   26.9680 C   0  0  0  0  0  0  0  0  0  0  0  0
    8.7731  -13.5255   26.3560 C   0  0  0  0  0  0  0  0  0  0  0  0
    7.6300  -14.2485   26.0179 C   0  0  0  0  0  0  0  0  0  0  0  0
   10.4221  -16.7366   23.4318 O   0  0  0  0  0  0  0  0  0  0  0  0
   10.2756  -17.8206   22.8144 N   0  0  0  0  0  0  0  0  0  0  0  0
   16.1058  -12.6017   19.2595 C   0  0  0  0  0  0  0  0  0  0  0  0
   16.7126  -13.9133   19.1662 N   0  0  0  0  0  0  0  0  0  0  0  0
   17.6593  -14.1512   18.4480 N   0  0  0  0  0  0  0  0  0  0  0  0
   16.1517  -14.9724   19.9674 C   0  0  0  0  0  0  0  0  0  0  0  0
   14.9016  -14.7337   20.6328 C   0  0  0  0  0  0  0  0  0  0  0  0
   14.6228  -15.9249   21.5306 C   0  0  0  0  0  0  0  0  0  0  0  0
   13.3939  -15.6260   22.3353 C   0  0  2  0  0  0  0  0  0  0  0  0
   12.9384  -16.7566   23.2051 N   0  0  0  0  0  0  0  0  0  0  0  0
   11.7016  -16.3349   23.8715 C   0  0  0  0  0  0  0  0  0  0  0  0
   13.9398  -17.1964   24.1923 O   0  0  0  0  0  0  0  0  0  0  0  0
   15.0354  -17.7254   23.9158 O   0  0  0  0  0  0  0  0  0  0  0  0
  2  1  1  0
  3  2  2  0
  4  2  1  0
  5  4  1  0
  6  5  1  0
  7  6  1  0
  8 10  1  0
  8  9  1  1
  8  7  1  0
 10 12  1  0
 11 10  2  0
 12 13  1  0
 13 14  1  6
 14 15  1  0
 15 16  2  0
 15 23  1  0
 16 17  1  0
 17 18  1  0
 18 19  2  0
 19 20  1  0
 21 20  2  0
 22 21  1  0
 23 22  2  0
 23 18  1  0
 24 13  1  0
 25 24  2  0
 27 29  1  0
 27 26  1  0
 28 27  2  0
 30 31  1  0
 30 29  1  0
 31 32  1  0
 33 32  1  6
 33 34  1  0
 34 24  1  0
 35 37  1  0
 35 33  1  0
 36 35  2  0
M  END
$$$$
