RWR.pdb
     RDKit          3D

 37 38  0  0  1  0  0  0  0  0999 V2000
    7.4539  -12.7696   14.5676 N   0  0  0  0  0  0  0  0  0  0  0  0
    8.3877  -13.8520   14.5503 C   0  0  0  0  0  0  0  0  0  0  0  0
    9.0311  -14.1703   13.4700 N   0  0  0  0  0  0  0  0  0  0  0  0
    8.6530  -14.6272   15.7124 N   0  0  0  0  0  0  0  0  0  0  0  0
    7.5917  -15.0548   16.5940 C   0  0  0  0  0  0  0  0  0  0  0  0
    7.9786  -14.7786   18.0628 C   0  0  0  0  0  0  0  0  0  0  0  0
    7.2987  -15.8098   18.9013 C   0  0  0  0  0  0  0  0  0  0  0  0
    8.1788  -16.6434   19.7605 C   0  0  2  0  0  0  0  0  0  0  0  0
    7.3902  -17.5933   20.5676 N   0  0  0  0  0  0  0  0  0  0  0  0
    8.9689  -15.7895   20.6720 C   0  0  0  0  0  0  0  0  0  0  0  0
    9.8160  -14.9408   20.3123 O   0  0  0  0  0  0  0  0  0  0  0  0
    9.7265  -14.9170   13.4140 N   0  0  0  0  0  0  0  0  0  0  0  0
    8.7728  -15.9214   22.0870 C   0  0  1  0  0  0  0  0  0  0  0  0
    9.5015  -15.0649   22.9933 C   0  0  0  0  0  0  0  0  0  0  0  0
    8.6267  -13.8913   23.3307 C   0  0  0  0  0  0  0  0  0  0  0  0
    7.6306  -14.1660   24.3856 C   0  0  0  0  0  0  0  0  0  0  0  0
    7.0143  -15.3404   24.7617 N   0  0  0  0  0  0  0  0  0  0  0  0
    6.1840  -15.0465   25.7754 C   0  0  0  0  0  0  0  0  0  0  0  0
    6.2242  -13.7428   26.0824 C   0  0  0  0  0  0  0  0  0  0  0  0
    5.5825  -12.9538   27.0195 C   0  0  0  0  0  0  0  0  0  0  0  0
    5.8278  -11.6085   27.1080 C   0  0  0  0  0  0  0  0  0  0  0  0
    6.7292  -11.0263   26.2505 C   0  0  0  0  0  0  0  0  0  0  0  0
    7.3625  -11.8189   25.3222 C   0  0  0  0  0  0  0  0  0  0  0  0
    7.1273  -13.1890   25.2154 C   0  0  0  0  0  0  0  0  0  0  0  0
    9.8191  -15.8189   24.2684 O   0  0  0  0  0  0  0  0  0  0  0  0
   10.1944  -15.2051   25.2980 N   0  0  0  0  0  0  0  0  0  0  0  0
   16.5929  -17.7840   21.2054 C   0  0  0  0  0  0  0  0  0  0  0  0
   16.2554  -19.0970   21.7145 N   0  0  0  0  0  0  0  0  0  0  0  0
   16.8013  -20.1105   21.3355 N   0  0  0  0  0  0  0  0  0  0  0  0
   15.2201  -19.1854   22.7139 C   0  0  0  0  0  0  0  0  0  0  0  0
   14.0165  -18.4273   22.5161 C   0  0  0  0  0  0  0  0  0  0  0  0
   13.0963  -18.7095   23.6892 C   0  0  0  0  0  0  0  0  0  0  0  0
   11.8244  -17.9442   23.4800 C   0  0  1  0  0  0  0  0  0  0  0  0
   10.8134  -18.1219   24.5702 N   0  0  0  0  0  0  0  0  0  0  0  0
    9.6891  -17.2242   24.2849 C   0  0  0  0  0  0  0  0  0  0  0  0
   11.3419  -17.8830   25.9246 O   0  0  0  0  0  0  0  0  0  0  0  0
   11.0419  -16.9141   26.6511 O   0  0  0  0  0  0  0  0  0  0  0  0
  2  1  1  0
  3  2  2  0
  4  2  1  0
  5  4  1  0
  6  5  1  0
  7  6  1  0
  8 10  1  0
  8  9  1  1
  8  7  1  0
 10 12  1  0
 11 10  2  0
 12 13  1  0
 13 14  1  1
 14 15  1  0
 15 16  2  0
 15 23  1  0
 16 17  1  0
 17 18  1  0
 18 19  2  0
 19 20  1  0
 21 20  2  0
 22 21  1  0
 23 22  2  0
 23 18  1  0
 24 13  1  0
 25 24  2  0
 27 29  1  0
 27 26  1  0
 28 27  2  0
 30 31  1  0
 30 29  1  0
 31 32  1  0
 33 32  1  6
 33 34  1  0
 34 24  1  0
 35 37  1  0
 35 33  1  0
 36 35  2  0
M  END
$$$$
