RWR.pdb
     RDKit          3D

 37 38  0  0  1  0  0  0  0  0999 V2000
    7.3093  -12.0699   14.9987 N   0  0  0  0  0  0  0  0  0  0  0  0
    7.5868  -13.2928   15.6853 C   0  0  0  0  0  0  0  0  0  0  0  0
    7.7340  -14.4092   15.0417 N   0  0  0  0  0  0  0  0  0  0  0  0
    7.7135  -13.3416   17.1008 N   0  0  0  0  0  0  0  0  0  0  0  0
    7.9372  -14.5873   17.7969 C   0  0  0  0  0  0  0  0  0  0  0  0
    6.9327  -14.7325   18.9602 C   0  0  0  0  0  0  0  0  0  0  0  0
    7.7134  -14.6623   20.2308 C   0  0  0  0  0  0  0  0  0  0  0  0
    8.1967  -15.9564   20.7780 C   0  0  2  0  0  0  0  0  0  0  0  0
    7.0804  -16.8992   20.9799 N   0  0  0  0  0  0  0  0  0  0  0  0
    8.8795  -15.7468   22.0718 C   0  0  0  0  0  0  0  0  0  0  0  0
    9.8104  -14.9343   22.2729 O   0  0  0  0  0  0  0  0  0  0  0  0
    7.8869  -15.3149   15.4893 N   0  0  0  0  0  0  0  0  0  0  0  0
    8.4658  -16.5220   23.2058 C   0  0  1  0  0  0  0  0  0  0  0  0
    9.2549  -16.4982   24.4152 C   0  0  0  0  0  0  0  0  0  0  0  0
    8.3184  -16.3479   25.5801 C   0  0  0  0  0  0  0  0  0  0  0  0
    7.4088  -15.1895   25.4763 C   0  0  0  0  0  0  0  0  0  0  0  0
    6.1405  -15.0820   24.9467 N   0  0  0  0  0  0  0  0  0  0  0  0
    5.7544  -13.8045   25.0962 C   0  0  0  0  0  0  0  0  0  0  0  0
    6.7022  -13.0707   25.6952 C   0  0  0  0  0  0  0  0  0  0  0  0
    6.7989  -11.7432   26.0704 C   0  0  0  0  0  0  0  0  0  0  0  0
    7.9221  -11.2555   26.6857 C   0  0  0  0  0  0  0  0  0  0  0  0
    8.9769  -12.0985   26.9376 C   0  0  0  0  0  0  0  0  0  0  0  0
    8.8714  -13.4169   26.5611 C   0  0  0  0  0  0  0  0  0  0  0  0
    7.7382  -13.9331   25.9341 C   0  0  0  0  0  0  0  0  0  0  0  0
   10.0094  -17.8038   24.5616 O   0  0  0  0  0  0  0  0  0  0  0  0
    9.4240  -18.9029   24.3974 N   0  0  0  0  0  0  0  0  0  0  0  0
   16.8120  -19.8476   20.4352 C   0  0  0  0  0  0  0  0  0  0  0  0
   17.3476  -20.1350   21.7496 N   0  0  0  0  0  0  0  0  0  0  0  0
   18.5222  -20.3583   21.9475 N   0  0  0  0  0  0  0  0  0  0  0  0
   16.4290  -20.1555   22.8605 C   0  0  0  0  0  0  0  0  0  0  0  0
   15.0498  -19.8446   22.6093 C   0  0  0  0  0  0  0  0  0  0  0  0
   14.3082  -19.9389   23.9299 C   0  0  0  0  0  0  0  0  0  0  0  0
   13.3851  -18.7624   24.0326 C   0  0  2  0  0  0  0  0  0  0  0  0
   12.2149  -18.9764   24.9420 N   0  0  0  0  0  0  0  0  0  0  0  0
   11.3823  -17.7700   24.8871 C   0  0  0  0  0  0  0  0  0  0  0  0
   12.5846  -19.2931   26.3326 O   0  0  0  0  0  0  0  0  0  0  0  0
   13.1649  -20.3343   26.7011 O   0  0  0  0  0  0  0  0  0  0  0  0
  2  1  1  0
  3  2  2  0
  4  2  1  0
  5  4  1  0
  6  5  1  0
  7  6  1  0
  8 10  1  0
  8  9  1  1
  8  7  1  0
 10 12  1  0
 11 10  2  0
 12 13  1  0
 13 14  1  6
 14 15  1  0
 15 16  2  0
 15 23  1  0
 16 17  1  0
 17 18  1  0
 18 19  2  0
 19 20  1  0
 21 20  2  0
 22 21  1  0
 23 22  2  0
 23 18  1  0
 24 13  1  0
 25 24  2  0
 27 29  1  0
 27 26  1  0
 28 27  2  0
 30 31  1  0
 30 29  1  0
 31 32  1  0
 33 32  1  6
 33 34  1  0
 34 24  1  0
 35 37  1  0
 35 33  1  0
 36 35  2  0
M  END
$$$$
