RWR.pdb
     RDKit          3D

 37 38  0  0  1  0  0  0  0  0999 V2000
    9.8539  -14.4937   16.0535 N   0  0  0  0  0  0  0  0  0  0  0  0
    9.1915  -13.2268   16.0533 C   0  0  0  0  0  0  0  0  0  0  0  0
    8.9182  -12.6089   14.9461 N   0  0  0  0  0  0  0  0  0  0  0  0
    8.8033  -12.5876   17.2627 N   0  0  0  0  0  0  0  0  0  0  0  0
    9.1170  -13.1568   18.5526 C   0  0  0  0  0  0  0  0  0  0  0  0
    8.3540  -14.4849   18.7460 C   0  0  0  0  0  0  0  0  0  0  0  0
    8.1201  -14.6519   20.2111 C   0  0  0  0  0  0  0  0  0  0  0  0
    8.5775  -15.9334   20.8080 C   0  0  2  0  0  0  0  0  0  0  0  0
    7.4569  -16.8807   20.9581 N   0  0  0  0  0  0  0  0  0  0  0  0
    9.1796  -15.6977   22.1369 C   0  0  0  0  0  0  0  0  0  0  0  0
   10.0850  -14.8685   22.3818 O   0  0  0  0  0  0  0  0  0  0  0  0
    8.4387  -11.7081   14.8938 N   0  0  0  0  0  0  0  0  0  0  0  0
    8.7113  -16.4655   23.2546 C   0  0  1  0  0  0  0  0  0  0  0  0
    9.3118  -16.2768   24.5544 C   0  0  0  0  0  0  0  0  0  0  0  0
    8.2427  -16.4616   25.5933 C   0  0  0  0  0  0  0  0  0  0  0  0
    7.2004  -15.4158   25.5779 C   0  0  0  0  0  0  0  0  0  0  0  0
    5.8559  -15.4853   25.2812 N   0  0  0  0  0  0  0  0  0  0  0  0
    5.3557  -14.2459   25.4112 C   0  0  0  0  0  0  0  0  0  0  0  0
    6.3009  -13.3694   25.7769 C   0  0  0  0  0  0  0  0  0  0  0  0
    6.3062  -12.0113   26.0373 C   0  0  0  0  0  0  0  0  0  0  0  0
    7.4544  -11.3592   26.4039 C   0  0  0  0  0  0  0  0  0  0  0  0
    8.6276  -12.0647   26.5168 C   0  0  0  0  0  0  0  0  0  0  0  0
    8.6125  -13.4148   26.2562 C   0  0  0  0  0  0  0  0  0  0  0  0
    7.4558  -14.0971   25.8818 C   0  0  0  0  0  0  0  0  0  0  0  0
   10.3921  -17.3155   24.7764 O   0  0  0  0  0  0  0  0  0  0  0  0
   10.4524  -18.3405   24.0529 N   0  0  0  0  0  0  0  0  0  0  0  0
   11.0169  -20.8299   31.9340 C   0  0  0  0  0  0  0  0  0  0  0  0
   12.4511  -20.9170   31.7539 N   0  0  0  0  0  0  0  0  0  0  0  0
   13.1911  -21.3974   32.5849 N   0  0  0  0  0  0  0  0  0  0  0  0
   13.0076  -20.4022   30.5277 C   0  0  0  0  0  0  0  0  0  0  0  0
   12.2002  -19.5221   29.7304 C   0  0  0  0  0  0  0  0  0  0  0  0
   13.0101  -19.1361   28.5065 C   0  0  0  0  0  0  0  0  0  0  0  0
   12.2956  -18.0197   27.8064 C   0  0  1  0  0  0  0  0  0  0  0  0
   12.1864  -18.1940   26.3232 N   0  0  0  0  0  0  0  0  0  0  0  0
   11.3321  -17.1175   25.8104 C   0  0  0  0  0  0  0  0  0  0  0  0
   11.6721  -19.5111   25.9091 O   0  0  0  0  0  0  0  0  0  0  0  0
   10.4703  -19.8462   25.9156 O   0  0  0  0  0  0  0  0  0  0  0  0
  2  1  1  0
  3  2  2  0
  4  2  1  0
  5  4  1  0
  6  5  1  0
  7  6  1  0
  8 10  1  0
  8  9  1  1
  8  7  1  0
 10 12  1  0
 11 10  2  0
 12 13  1  0
 13 14  1  1
 14 15  1  0
 15 16  2  0
 15 23  1  0
 16 17  1  0
 17 18  1  0
 18 19  2  0
 19 20  1  0
 21 20  2  0
 22 21  1  0
 23 22  2  0
 23 18  1  0
 24 13  1  0
 25 24  2  0
 27 29  1  0
 27 26  1  0
 28 27  2  0
 30 31  1  0
 30 29  1  0
 31 32  1  0
 33 32  1  6
 33 34  1  0
 34 24  1  0
 35 37  1  0
 35 33  1  0
 36 35  2  0
M  END
$$$$
