RWR.pdb
     RDKit          3D

 37 38  0  0  1  0  0  0  0  0999 V2000
    8.8692  -15.0530   15.4840 N   0  0  0  0  0  0  0  0  0  0  0  0
    7.8850  -14.0524   15.7559 C   0  0  0  0  0  0  0  0  0  0  0  0
    7.5580  -13.1684   14.8648 N   0  0  0  0  0  0  0  0  0  0  0  0
    7.2215  -13.9801   17.0115 N   0  0  0  0  0  0  0  0  0  0  0  0
    7.9537  -13.8016   18.2438 C   0  0  0  0  0  0  0  0  0  0  0  0
    6.9880  -13.8562   19.4471 C   0  0  0  0  0  0  0  0  0  0  0  0
    7.8224  -13.8509   20.6851 C   0  0  0  0  0  0  0  0  0  0  0  0
    8.4443  -15.1459   21.0643 C   0  0  2  0  0  0  0  0  0  0  0  0
    7.4182  -16.1697   21.3371 N   0  0  0  0  0  0  0  0  0  0  0  0
    9.2823  -14.9822   22.2706 C   0  0  0  0  0  0  0  0  0  0  0  0
   10.1781  -14.1196   22.4151 O   0  0  0  0  0  0  0  0  0  0  0  0
    6.9056  -12.3995   15.0303 N   0  0  0  0  0  0  0  0  0  0  0  0
    9.0775  -15.8677   23.3805 C   0  0  1  0  0  0  0  0  0  0  0  0
    9.9119  -15.7499   24.5535 C   0  0  0  0  0  0  0  0  0  0  0  0
    9.0473  -15.9597   25.7638 C   0  0  0  0  0  0  0  0  0  0  0  0
    7.7641  -15.2305   25.7213 C   0  0  0  0  0  0  0  0  0  0  0  0
    6.4902  -15.6617   25.4183 N   0  0  0  0  0  0  0  0  0  0  0  0
    5.6761  -14.5986   25.5204 C   0  0  0  0  0  0  0  0  0  0  0  0
    6.3492  -13.4952   25.8739 C   0  0  0  0  0  0  0  0  0  0  0  0
    5.9891  -12.1806   26.1069 C   0  0  0  0  0  0  0  0  0  0  0  0
    6.9177  -11.2393   26.4670 C   0  0  0  0  0  0  0  0  0  0  0  0
    8.2352  -11.6039   26.6009 C   0  0  0  0  0  0  0  0  0  0  0  0
    8.5837  -12.9134   26.3674 C   0  0  0  0  0  0  0  0  0  0  0  0
    7.6551  -13.8863   26.0001 C   0  0  0  0  0  0  0  0  0  0  0  0
   10.9849  -16.8193   24.5295 O   0  0  0  0  0  0  0  0  0  0  0  0
   10.6791  -18.0344   24.6160 N   0  0  0  0  0  0  0  0  0  0  0  0
    8.9618  -21.1473   22.5763 C   0  0  0  0  0  0  0  0  0  0  0  0
    9.8797  -21.0478   21.4607 N   0  0  0  0  0  0  0  0  0  0  0  0
   10.0019  -21.9205   20.6286 N   0  0  0  0  0  0  0  0  0  0  0  0
   10.6784  -19.8526   21.3513 C   0  0  0  0  0  0  0  0  0  0  0  0
   12.0655  -19.9250   21.7160 C   0  0  0  0  0  0  0  0  0  0  0  0
   12.2171  -19.2808   23.0815 C   0  0  0  0  0  0  0  0  0  0  0  0
   13.1761  -18.1357   22.9541 C   0  0  2  0  0  0  0  0  0  0  0  0
   13.4264  -17.3980   24.2329 N   0  0  0  0  0  0  0  0  0  0  0  0
   12.3368  -16.4320   24.4098 C   0  0  0  0  0  0  0  0  0  0  0  0
   14.7358  -16.7251   24.2921 O   0  0  0  0  0  0  0  0  0  0  0  0
   14.9052  -15.4930   24.3917 O   0  0  0  0  0  0  0  0  0  0  0  0
  2  1  1  0
  3  2  2  0
  4  2  1  0
  5  4  1  0
  6  5  1  0
  7  6  1  0
  8 10  1  0
  8  9  1  1
  8  7  1  0
 10 12  1  0
 11 10  2  0
 12 13  1  0
 13 14  1  1
 14 15  1  0
 15 16  2  0
 15 23  1  0
 16 17  1  0
 17 18  1  0
 18 19  2  0
 19 20  1  0
 21 20  2  0
 22 21  1  0
 23 22  2  0
 23 18  1  0
 24 13  1  0
 25 24  2  0
 27 29  1  0
 27 26  1  0
 28 27  2  0
 30 31  1  0
 30 29  1  0
 31 32  1  0
 33 32  1  1
 33 34  1  0
 34 24  1  0
 35 37  1  0
 35 33  1  0
 36 35  2  0
M  END
$$$$
