RWR.pdb
     RDKit          3D

 37 38  0  0  1  0  0  0  0  0999 V2000
    8.6251  -14.1367   14.8704 N   0  0  0  0  0  0  0  0  0  0  0  0
    8.8507  -14.7053   16.1626 C   0  0  0  0  0  0  0  0  0  0  0  0
   10.0003  -14.6008   16.7539 N   0  0  0  0  0  0  0  0  0  0  0  0
    7.8288  -15.4095   16.8567 N   0  0  0  0  0  0  0  0  0  0  0  0
    7.3407  -14.9618   18.1403 C   0  0  0  0  0  0  0  0  0  0  0  0
    8.5238  -14.5571   19.0458 C   0  0  0  0  0  0  0  0  0  0  0  0
    7.9525  -14.1370   20.3596 C   0  0  0  0  0  0  0  0  0  0  0  0
    7.4772  -15.2282   21.2490 C   0  0  2  0  0  0  0  0  0  0  0  0
    6.0438  -15.0746   21.5608 N   0  0  0  0  0  0  0  0  0  0  0  0
    8.2396  -15.2308   22.5150 C   0  0  0  0  0  0  0  0  0  0  0  0
    9.0482  -14.3442   22.8721 O   0  0  0  0  0  0  0  0  0  0  0  0
   10.1835  -14.9047   17.7122 N   0  0  0  0  0  0  0  0  0  0  0  0
    8.0614  -16.3233   23.4276 C   0  0  1  0  0  0  0  0  0  0  0  0
    8.9254  -16.4424   24.5788 C   0  0  0  0  0  0  0  0  0  0  0  0
    8.0849  -16.2728   25.8121 C   0  0  0  0  0  0  0  0  0  0  0  0
    7.2192  -15.0768   25.7915 C   0  0  0  0  0  0  0  0  0  0  0  0
    5.8924  -14.9284   25.4476 N   0  0  0  0  0  0  0  0  0  0  0  0
    5.5863  -13.6294   25.5961 C   0  0  0  0  0  0  0  0  0  0  0  0
    6.6417  -12.9202   26.0186 C   0  0  0  0  0  0  0  0  0  0  0  0
    6.8480  -11.5859   26.3180 C   0  0  0  0  0  0  0  0  0  0  0  0
    8.0688  -11.1300   26.7419 C   0  0  0  0  0  0  0  0  0  0  0  0
    9.1130  -12.0127   26.8742 C   0  0  0  0  0  0  0  0  0  0  0  0
    8.8983  -13.3374   26.5745 C   0  0  0  0  0  0  0  0  0  0  0  0
    7.6646  -13.8217   26.1417 C   0  0  0  0  0  0  0  0  0  0  0  0
    9.5581  -17.8188   24.6054 O   0  0  0  0  0  0  0  0  0  0  0  0
    9.0883  -18.7524   23.9086 N   0  0  0  0  0  0  0  0  0  0  0  0
   15.2136  -21.4293   20.8526 C   0  0  0  0  0  0  0  0  0  0  0  0
   15.8143  -20.1134   20.9217 N   0  0  0  0  0  0  0  0  0  0  0  0
   16.8082  -19.8098   20.2982 N   0  0  0  0  0  0  0  0  0  0  0  0
   15.1918  -19.1338   21.7769 C   0  0  0  0  0  0  0  0  0  0  0  0
   13.7585  -19.1183   21.8634 C   0  0  0  0  0  0  0  0  0  0  0  0
   13.3771  -19.5488   23.2677 C   0  0  0  0  0  0  0  0  0  0  0  0
   12.2890  -18.6404   23.7556 C   0  0  2  0  0  0  0  0  0  0  0  0
   11.7300  -19.0138   25.0936 N   0  0  0  0  0  0  0  0  0  0  0  0
   10.6845  -18.0403   25.4264 C   0  0  0  0  0  0  0  0  0  0  0  0
   12.7370  -19.0863   26.1667 O   0  0  0  0  0  0  0  0  0  0  0  0
   12.8847  -18.2384   27.0700 O   0  0  0  0  0  0  0  0  0  0  0  0
  2  1  1  0
  3  2  2  0
  4  2  1  0
  5  4  1  0
  6  5  1  0
  7  6  1  0
  8 10  1  0
  8  9  1  1
  8  7  1  0
 10 12  1  0
 11 10  2  0
 12 13  1  0
 13 14  1  1
 14 15  1  0
 15 16  2  0
 15 23  1  0
 16 17  1  0
 17 18  1  0
 18 19  2  0
 19 20  1  0
 21 20  2  0
 22 21  1  0
 23 22  2  0
 23 18  1  0
 24 13  1  0
 25 24  2  0
 27 29  1  0
 27 26  1  0
 28 27  2  0
 30 31  1  0
 30 29  1  0
 31 32  1  0
 33 32  1  6
 33 34  1  0
 34 24  1  0
 35 37  1  0
 35 33  1  0
 36 35  2  0
M  END
$$$$
