PCN.pdb
     RDKit          3D

 22 22  0  0  1  0  0  0  0  0999 V2000
    6.8572  -14.5127   20.8033 N   0  0  0  0  0  0  0  0  0  0  0  0
    6.3452  -13.7876   19.6542 C   0  0  0  0  0  0  0  0  0  0  0  0
    7.1912  -12.5115   19.5902 C   0  0  0  0  0  0  0  0  0  0  0  0
    8.5052  -12.9344   20.2077 C   0  0  0  0  0  0  0  0  0  0  0  0
    8.2927  -14.3227   20.7816 C   0  0  1  0  0  0  0  0  0  0  0  0
    8.7876  -14.2950   22.1681 C   0  0  0  0  0  0  0  0  0  0  0  0
   10.0300  -14.3092   22.3485 O   0  0  0  0  0  0  0  0  0  0  0  0
    7.9010  -14.2530   23.2969 N   0  0  0  0  0  0  0  0  0  0  0  0
    8.4855  -14.3361   24.5859 C   0  0  1  0  0  0  0  0  0  0  0  0
    7.4886  -13.6781   25.5550 C   0  0  0  0  0  0  0  0  0  0  0  0
    5.9171  -14.5437   25.5177 S   0  0  0  0  0  0  0  0  0  0  0  0
    8.6592  -15.7198   25.0876 C   0  0  0  0  0  0  0  0  0  0  0  0
    7.6069  -16.4024   25.0969 O   0  0  0  0  0  0  0  0  0  0  0  0
   12.0097  -17.8366   22.8628 N   0  0  0  0  0  0  0  0  0  0  0  0
   11.8920  -17.8846   24.2829 C   0  0  0  0  0  0  0  0  0  0  0  0
   12.8587  -17.3843   24.9440 O   0  0  0  0  0  0  0  0  0  0  0  0
   10.7302  -18.4733   24.9627 C   0  0  0  0  0  0  0  0  0  0  0  0
   10.0573  -17.5985   25.9602 C   0  0  2  0  0  0  0  0  0  0  0  0
    9.8754  -16.2510   25.5206 N   0  0  0  0  0  0  0  0  0  0  0  0
   10.6153  -17.7526   27.3230 C   0  0  0  0  0  0  0  0  0  0  0  0
   10.7046  -18.8475   27.9241 O   0  0  0  0  0  0  0  0  0  0  0  0
   11.0927  -16.6364   28.0366 O   0  0  0  0  0  0  0  0  0  0  0  0
  1  5  1  0
  2  1  1  0
  3  2  1  0
  3  4  1  0
  4  5  1  0
  6  8  1  0
  5  6  1  1
  7  6  2  0
  9 10  1  1
  9  8  1  0
 11 10  1  0
 12  9  1  0
 12 19  1  0
 13 12  2  0
 15 14  1  0
 16 15  2  0
 17 15  1  0
 18 19  1  0
 18 17  1  6
 20 18  1  0
 21 20  2  0
 22 20  1  0
M  END
$$$$
