PCN.pdb
     RDKit          3D

 22 22  0  0  1  0  0  0  0  0999 V2000
    6.8233  -14.7574   20.6641 N   0  0  0  0  0  0  0  0  0  0  0  0
    6.5100  -14.1673   19.3750 C   0  0  0  0  0  0  0  0  0  0  0  0
    7.2535  -12.8272   19.3689 C   0  0  0  0  0  0  0  0  0  0  0  0
    8.4373  -13.0826   20.2746 C   0  0  0  0  0  0  0  0  0  0  0  0
    8.2135  -14.4392   20.9159 C   0  0  1  0  0  0  0  0  0  0  0  0
    8.4045  -14.2661   22.3656 C   0  0  0  0  0  0  0  0  0  0  0  0
    9.5779  -14.1311   22.7913 O   0  0  0  0  0  0  0  0  0  0  0  0
    7.3027  -14.2481   23.2864 N   0  0  0  0  0  0  0  0  0  0  0  0
    7.6072  -14.0839   24.6613 C   0  0  1  0  0  0  0  0  0  0  0  0
    6.5577  -13.1095   25.2223 C   0  0  0  0  0  0  0  0  0  0  0  0
    6.8579  -12.8033   26.9649 S   0  0  0  0  0  0  0  0  0  0  0  0
    7.4622  -15.3183   25.4686 C   0  0  0  0  0  0  0  0  0  0  0  0
    6.3810  -15.9288   25.2903 O   0  0  0  0  0  0  0  0  0  0  0  0
    6.1152  -18.2646   25.6237 N   0  0  0  0  0  0  0  0  0  0  0  0
    7.3615  -18.4291   24.9512 C   0  0  0  0  0  0  0  0  0  0  0  0
    7.3033  -18.8867   23.7641 O   0  0  0  0  0  0  0  0  0  0  0  0
    8.6491  -18.0958   25.5752 C   0  0  0  0  0  0  0  0  0  0  0  0
    8.5808  -17.1621   26.7314 C   0  0  2  0  0  0  0  0  0  0  0  0
    8.4263  -15.7906   26.3608 N   0  0  0  0  0  0  0  0  0  0  0  0
    9.6247  -17.4326   27.7459 C   0  0  0  0  0  0  0  0  0  0  0  0
    9.8365  -18.5590   28.2506 O   0  0  0  0  0  0  0  0  0  0  0  0
   10.4634  -16.4009   28.2097 O   0  0  0  0  0  0  0  0  0  0  0  0
  1  5  1  0
  2  1  1  0
  3  2  1  0
  3  4  1  0
  4  5  1  0
  6  8  1  0
  5  6  1  1
  7  6  2  0
  9 10  1  1
  9  8  1  0
 11 10  1  0
 12  9  1  0
 12 19  1  0
 13 12  2  0
 15 14  1  0
 16 15  2  0
 17 15  1  0
 18 19  1  0
 18 17  1  6
 20 18  1  0
 21 20  2  0
 22 20  1  0
M  END
$$$$
