PCN.pdb
     RDKit          3D

 22 22  0  0  1  0  0  0  0  0999 V2000
    6.9230  -14.9532   20.9610 N   0  0  0  0  0  0  0  0  0  0  0  0
    6.4961  -14.6119   19.6159 C   0  0  0  0  0  0  0  0  0  0  0  0
    7.1285  -13.2432   19.3419 C   0  0  0  0  0  0  0  0  0  0  0  0
    8.3750  -13.2588   20.1980 C   0  0  0  0  0  0  0  0  0  0  0  0
    8.2946  -14.5005   21.0661 C   0  0  1  0  0  0  0  0  0  0  0  0
    8.5472  -14.0728   22.4523 C   0  0  0  0  0  0  0  0  0  0  0  0
    9.7272  -13.7889   22.7734 O   0  0  0  0  0  0  0  0  0  0  0  0
    7.4970  -13.9744   23.4267 N   0  0  0  0  0  0  0  0  0  0  0  0
    7.8563  -13.5421   24.7282 C   0  0  1  0  0  0  0  0  0  0  0  0
    6.5772  -12.9679   25.3606 C   0  0  0  0  0  0  0  0  0  0  0  0
    6.8926  -12.4529   27.0504 S   0  0  0  0  0  0  0  0  0  0  0  0
    8.2826  -14.6332   25.6361 C   0  0  0  0  0  0  0  0  0  0  0  0
    7.4377  -15.5498   25.7755 O   0  0  0  0  0  0  0  0  0  0  0  0
   12.6703  -18.0283   27.7693 N   0  0  0  0  0  0  0  0  0  0  0  0
   11.3032  -17.7832   27.4470 C   0  0  0  0  0  0  0  0  0  0  0  0
   10.4535  -18.5822   27.9583 O   0  0  0  0  0  0  0  0  0  0  0  0
   10.8797  -16.6778   26.5768 C   0  0  0  0  0  0  0  0  0  0  0  0
    9.9222  -15.7134   27.1821 C   0  0  2  0  0  0  0  0  0  0  0  0
    9.5121  -14.6699   26.2961 N   0  0  0  0  0  0  0  0  0  0  0  0
   10.3334  -15.2738   28.5349 C   0  0  0  0  0  0  0  0  0  0  0  0
   10.5301  -16.0527   29.4955 O   0  0  0  0  0  0  0  0  0  0  0  0
   10.5331  -13.9091   28.8192 O   0  0  0  0  0  0  0  0  0  0  0  0
  1  5  1  0
  2  1  1  0
  3  2  1  0
  3  4  1  0
  4  5  1  0
  6  8  1  0
  5  6  1  1
  7  6  2  0
  9 10  1  1
  9  8  1  0
 11 10  1  0
 12  9  1  0
 12 19  1  0
 13 12  2  0
 15 14  1  0
 16 15  2  0
 17 15  1  0
 18 19  1  0
 18 17  1  6
 20 18  1  0
 21 20  2  0
 22 20  1  0
M  END
$$$$
