PCN.pdb
     RDKit          3D

 22 22  0  0  1  0  0  0  0  0999 V2000
    6.9417  -14.7504   20.1247 N   0  0  0  0  0  0  0  0  0  0  0  0
    6.4239  -14.0389   18.9699 C   0  0  0  0  0  0  0  0  0  0  0  0
    7.0952  -12.6624   19.0271 C   0  0  0  0  0  0  0  0  0  0  0  0
    8.4047  -12.9435   19.7293 C   0  0  0  0  0  0  0  0  0  0  0  0
    8.3369  -14.3756   20.2257 C   0  0  1  0  0  0  0  0  0  0  0  0
    8.7203  -14.3564   21.6472 C   0  0  0  0  0  0  0  0  0  0  0  0
    9.9336  -14.1937   21.9260 O   0  0  0  0  0  0  0  0  0  0  0  0
    7.7589  -14.5159   22.7019 N   0  0  0  0  0  0  0  0  0  0  0  0
    8.2425  -14.4747   24.0340 C   0  0  1  0  0  0  0  0  0  0  0  0
    7.0434  -14.0886   24.9165 C   0  0  0  0  0  0  0  0  0  0  0  0
    7.5602  -13.8989   26.6245 S   0  0  0  0  0  0  0  0  0  0  0  0
    8.7032  -15.7833   24.5552 C   0  0  0  0  0  0  0  0  0  0  0  0
    7.8574  -16.7047   24.4597 O   0  0  0  0  0  0  0  0  0  0  0  0
   11.2277  -18.5381   22.7355 N   0  0  0  0  0  0  0  0  0  0  0  0
   11.8183  -17.6279   23.6604 C   0  0  0  0  0  0  0  0  0  0  0  0
   12.4967  -16.6754   23.1560 O   0  0  0  0  0  0  0  0  0  0  0  0
   11.6645  -17.7645   25.1151 C   0  0  0  0  0  0  0  0  0  0  0  0
   10.3877  -17.2485   25.6781 C   0  0  2  0  0  0  0  0  0  0  0  0
    9.9638  -16.0070   25.1113 N   0  0  0  0  0  0  0  0  0  0  0  0
   10.3457  -17.3197   27.1564 C   0  0  0  0  0  0  0  0  0  0  0  0
   10.0435  -16.3557   27.8963 O   0  0  0  0  0  0  0  0  0  0  0  0
   10.6524  -18.5182   27.8290 O   0  0  0  0  0  0  0  0  0  0  0  0
  1  5  1  0
  2  1  1  0
  3  2  1  0
  3  4  1  0
  4  5  1  0
  6  8  1  0
  5  6  1  1
  7  6  2  0
  9 10  1  1
  9  8  1  0
 11 10  1  0
 12  9  1  0
 12 19  1  0
 13 12  2  0
 15 14  1  0
 16 15  2  0
 17 15  1  0
 18 19  1  0
 18 17  1  1
 20 18  1  0
 21 20  2  0
 22 20  1  0
M  END
$$$$
