PCN.pdb
     RDKit          3D

 22 22  0  0  1  0  0  0  0  0999 V2000
    7.6121  -15.0909   19.8904 N   0  0  0  0  0  0  0  0  0  0  0  0
    6.7317  -14.5560   18.8673 C   0  0  0  0  0  0  0  0  0  0  0  0
    6.7574  -13.0393   19.0852 C   0  0  0  0  0  0  0  0  0  0  0  0
    8.1237  -12.7978   19.6866 C   0  0  0  0  0  0  0  0  0  0  0  0
    8.7188  -14.1615   19.9835 C   0  0  1  0  0  0  0  0  0  0  0  0
    9.1938  -14.1289   21.3769 C   0  0  0  0  0  0  0  0  0  0  0  0
   10.0824  -13.2935   21.6750 O   0  0  0  0  0  0  0  0  0  0  0  0
    8.6756  -15.0123   22.3834 N   0  0  0  0  0  0  0  0  0  0  0  0
    9.2515  -14.9334   23.6766 C   0  0  1  0  0  0  0  0  0  0  0  0
    8.0887  -14.6845   24.6523 C   0  0  0  0  0  0  0  0  0  0  0  0
    6.7962  -15.9052   24.4081 S   0  0  0  0  0  0  0  0  0  0  0  0
    9.8844  -16.1911   24.1390 C   0  0  0  0  0  0  0  0  0  0  0  0
    9.2734  -17.2327   23.7994 O   0  0  0  0  0  0  0  0  0  0  0  0
   13.3320  -17.0726   22.7400 N   0  0  0  0  0  0  0  0  0  0  0  0
   13.7634  -16.7631   24.0633 C   0  0  0  0  0  0  0  0  0  0  0  0
   14.6885  -15.8937   24.1637 O   0  0  0  0  0  0  0  0  0  0  0  0
   13.1862  -17.4002   25.2546 C   0  0  0  0  0  0  0  0  0  0  0  0
   11.7003  -17.4598   25.2958 C   0  0  2  0  0  0  0  0  0  0  0  0
   11.0598  -16.2486   24.8898 N   0  0  0  0  0  0  0  0  0  0  0  0
   11.1877  -18.0611   26.5481 C   0  0  0  0  0  0  0  0  0  0  0  0
   10.3566  -17.5065   27.3030 O   0  0  0  0  0  0  0  0  0  0  0  0
   11.6227  -19.3331   26.9673 O   0  0  0  0  0  0  0  0  0  0  0  0
  1  5  1  0
  2  1  1  0
  3  2  1  0
  3  4  1  0
  4  5  1  0
  6  8  1  0
  5  6  1  1
  7  6  2  0
  9 10  1  1
  9  8  1  0
 11 10  1  0
 12  9  1  0
 12 19  1  0
 13 12  2  0
 15 14  1  0
 16 15  2  0
 17 15  1  0
 18 19  1  0
 18 17  1  1
 20 18  1  0
 21 20  2  0
 22 20  1  0
M  END
$$$$
