PCN.pdb
     RDKit          3D

 22 22  0  0  1  0  0  0  0  0999 V2000
    6.9760  -15.0467   20.8571 N   0  0  0  0  0  0  0  0  0  0  0  0
    6.3836  -14.5678   19.6210 C   0  0  0  0  0  0  0  0  0  0  0  0
    6.9262  -13.1443   19.4547 C   0  0  0  0  0  0  0  0  0  0  0  0
    8.2628  -13.1974   20.1600 C   0  0  0  0  0  0  0  0  0  0  0  0
    8.3318  -14.5378   20.8675 C   0  0  1  0  0  0  0  0  0  0  0  0
    8.7259  -14.2687   22.2605 C   0  0  0  0  0  0  0  0  0  0  0  0
    9.9321  -14.0060   22.4892 O   0  0  0  0  0  0  0  0  0  0  0  0
    7.7824  -14.2989   23.3426 N   0  0  0  0  0  0  0  0  0  0  0  0
    8.2854  -14.0795   24.6498 C   0  0  1  0  0  0  0  0  0  0  0  0
    7.1670  -13.3662   25.4284 C   0  0  0  0  0  0  0  0  0  0  0  0
    7.7221  -12.9570   27.0851 S   0  0  0  0  0  0  0  0  0  0  0  0
    8.5597  -15.3200   25.4128 C   0  0  0  0  0  0  0  0  0  0  0  0
    7.5490  -16.0331   25.6212 O   0  0  0  0  0  0  0  0  0  0  0  0
   10.1103  -18.8965   24.2780 N   0  0  0  0  0  0  0  0  0  0  0  0
   11.2523  -18.1842   24.7486 C   0  0  0  0  0  0  0  0  0  0  0  0
   12.2199  -18.0691   23.9286 O   0  0  0  0  0  0  0  0  0  0  0  0
   11.3271  -17.6092   26.0985 C   0  0  0  0  0  0  0  0  0  0  0  0
   10.1002  -16.9120   26.5695 C   0  0  2  0  0  0  0  0  0  0  0  0
    9.8225  -15.6942   25.8753 N   0  0  0  0  0  0  0  0  0  0  0  0
   10.0187  -16.8349   28.0458 C   0  0  0  0  0  0  0  0  0  0  0  0
    9.8721  -15.7681   28.6850 O   0  0  0  0  0  0  0  0  0  0  0  0
   10.1029  -17.9989   28.8339 O   0  0  0  0  0  0  0  0  0  0  0  0
  1  5  1  0
  2  1  1  0
  3  2  1  0
  3  4  1  0
  4  5  1  0
  6  8  1  0
  5  6  1  1
  7  6  2  0
  9 10  1  1
  9  8  1  0
 11 10  1  0
 12  9  1  0
 12 19  1  0
 13 12  2  0
 15 14  1  0
 16 15  2  0
 17 15  1  0
 18 19  1  0
 18 17  1  1
 20 18  1  0
 21 20  2  0
 22 20  1  0
M  END
$$$$
