PCN.pdb
     RDKit          3D

 22 22  0  0  1  0  0  0  0  0999 V2000
    7.6233  -15.3688   17.4658 N   0  0  0  0  0  0  0  0  0  0  0  0
    7.0478  -14.8204   16.2509 C   0  0  0  0  0  0  0  0  0  0  0  0
    7.3708  -13.3234   16.3080 C   0  0  0  0  0  0  0  0  0  0  0  0
    8.6488  -13.2743   17.1149 C   0  0  0  0  0  0  0  0  0  0  0  0
    8.8790  -14.6728   17.6563 C   0  0  1  0  0  0  0  0  0  0  0  0
    9.1314  -14.5384   19.1007 C   0  0  0  0  0  0  0  0  0  0  0  0
   10.3104  -14.3200   19.4729 O   0  0  0  0  0  0  0  0  0  0  0  0
    8.0823  -14.6490   20.0750 N   0  0  0  0  0  0  0  0  0  0  0  0
    8.4518  -14.5611   21.4409 C   0  0  1  0  0  0  0  0  0  0  0  0
    7.1460  -14.3630   22.2292 C   0  0  0  0  0  0  0  0  0  0  0  0
    7.4803  -14.3234   23.9919 S   0  0  0  0  0  0  0  0  0  0  0  0
    9.0531  -15.7994   21.9898 C   0  0  0  0  0  0  0  0  0  0  0  0
    8.3304  -16.8186   21.8785 O   0  0  0  0  0  0  0  0  0  0  0  0
   10.7371  -18.1368   20.5404 N   0  0  0  0  0  0  0  0  0  0  0  0
   11.9927  -18.0203   21.2057 C   0  0  0  0  0  0  0  0  0  0  0  0
   13.0166  -18.3834   20.5411 O   0  0  0  0  0  0  0  0  0  0  0  0
   12.1182  -17.5129   22.5788 C   0  0  0  0  0  0  0  0  0  0  0  0
   10.8572  -17.0309   23.2040 C   0  0  2  0  0  0  0  0  0  0  0  0
   10.3135  -15.8624   22.5865 N   0  0  0  0  0  0  0  0  0  0  0  0
   10.9315  -16.9925   24.6822 C   0  0  0  0  0  0  0  0  0  0  0  0
   11.2796  -17.9636   25.3921 O   0  0  0  0  0  0  0  0  0  0  0  0
   10.6048  -15.8196   25.3899 O   0  0  0  0  0  0  0  0  0  0  0  0
  1  5  1  0
  2  1  1  0
  3  2  1  0
  3  4  1  0
  4  5  1  0
  6  8  1  0
  5  6  1  1
  7  6  2  0
  9 10  1  1
  9  8  1  0
 11 10  1  0
 12  9  1  0
 12 19  1  0
 13 12  2  0
 15 14  1  0
 16 15  2  0
 17 15  1  0
 18 19  1  0
 18 17  1  6
 20 18  1  0
 21 20  2  0
 22 20  1  0
M  END
$$$$
