STQ.pdb
     RDKit          3D

 23 22  0  0  1  0  0  0  0  0999 V2000
   15.2760  -13.9435  -13.7767 O   0  0  0  0  0  0  0  0  0  0  0  0
   15.9593  -13.0622  -14.5921 C   0  0  0  0  0  0  0  0  0  0  0  0
   15.0531  -12.0700  -15.2824 C   0  0  2  0  0  0  0  0  0  0  0  0
   14.3469  -12.7653  -16.3687 N   0  0  0  0  0  0  0  0  0  0  0  0
   15.7712  -10.8960  -15.8253 C   0  0  0  0  0  0  0  0  0  0  0  0
   16.5628  -10.9874  -16.7989 O   0  0  0  0  0  0  0  0  0  0  0  0
   14.8662   -6.9528  -14.4074 C   0  0  0  0  0  0  0  0  0  0  0  0
   15.2687   -7.3078  -15.8152 C   0  0  1  0  0  0  0  0  0  0  0  0
   15.8424   -6.1652  -16.3847 O   0  0  0  0  0  0  0  0  0  0  0  0
   16.2842   -8.4402  -15.7600 C   0  0  2  0  0  0  0  0  0  0  0  0
   15.5938   -9.6035  -15.2637 N   0  0  0  0  0  0  0  0  0  0  0  0
   17.4827   -8.0883  -14.9990 C   0  0  0  0  0  0  0  0  0  0  0  0
   17.7426   -8.7029  -13.9083 O   0  0  0  0  0  0  0  0  0  0  0  0
   21.7552  -10.5485  -15.1528 N   0  0  0  0  0  0  0  0  0  0  0  0
   22.4936   -9.5177  -14.5405 C   0  0  0  0  0  0  0  0  0  0  0  0
   23.6478   -9.7232  -14.0835 O   0  0  0  0  0  0  0  0  0  0  0  0
   21.8635   -8.1512  -14.4446 C   0  0  0  0  0  0  0  0  0  0  0  0
   20.4867   -8.1716  -15.0096 C   0  0  0  0  0  0  0  0  0  0  0  0
   19.7186   -6.8910  -14.9001 C   0  0  2  0  0  0  0  0  0  0  0  0
   18.3793   -7.0777  -15.4310 N   0  0  0  0  0  0  0  0  0  0  0  0
   20.3910   -5.7175  -15.4512 C   0  0  0  0  0  0  0  0  0  0  0  0
   20.0981   -5.1858  -16.5584 O   0  0  0  0  0  0  0  0  0  0  0  0
   21.4237   -5.0995  -14.7642 O   0  0  0  0  0  0  0  0  0  0  0  0
  2  1  1  0
  3  4  1  6
  3  5  1  0
  3  2  1  0
  5  6  2  0
  8  7  1  1
  8  9  1  0
  8 10  1  0
 10 12  1  0
 11  5  1  0
 10 11  1  1
 12 13  2  0
 12 20  1  0
 15 14  1  0
 15 16  2  0
 17 18  1  0
 17 15  1  0
 19 18  1  6
 20 19  1  0
 21 19  1  0
 21 23  1  0
 22 21  2  0
M  END
$$$$
