STQ.pdb
     RDKit          3D

 23 22  0  0  1  0  0  0  0  0999 V2000
   24.1070  -16.5251  -17.9768 O   0  0  0  0  0  0  0  0  0  0  0  0
   23.9091  -15.4829  -17.0919 C   0  0  0  0  0  0  0  0  0  0  0  0
   23.8141  -14.1378  -17.7728 C   0  0  2  0  0  0  0  0  0  0  0  0
   24.9349  -14.0163  -18.7170 N   0  0  0  0  0  0  0  0  0  0  0  0
   23.8306  -12.9983  -16.8295 C   0  0  0  0  0  0  0  0  0  0  0  0
   23.0261  -12.9160  -15.8656 O   0  0  0  0  0  0  0  0  0  0  0  0
   26.9434  -11.7386  -15.3075 C   0  0  0  0  0  0  0  0  0  0  0  0
   26.2679  -10.4933  -15.8202 C   0  0  1  0  0  0  0  0  0  0  0  0
   26.9102  -10.1312  -17.0098 O   0  0  0  0  0  0  0  0  0  0  0  0
   24.8022  -10.8080  -16.0831 C   0  0  2  0  0  0  0  0  0  0  0  0
   24.7659  -11.9393  -16.9748 N   0  0  0  0  0  0  0  0  0  0  0  0
   24.0516   -9.6474  -16.5617 C   0  0  0  0  0  0  0  0  0  0  0  0
   24.0104   -9.3932  -17.8141 O   0  0  0  0  0  0  0  0  0  0  0  0
   19.7768   -8.8304  -19.0603 N   0  0  0  0  0  0  0  0  0  0  0  0
   19.4788   -9.3209  -17.7746 C   0  0  0  0  0  0  0  0  0  0  0  0
   18.4521  -10.0167  -17.5623 O   0  0  0  0  0  0  0  0  0  0  0  0
   20.4264   -8.9901  -16.6494 C   0  0  0  0  0  0  0  0  0  0  0  0
   21.5523   -8.1527  -17.1457 C   0  0  0  0  0  0  0  0  0  0  0  0
   22.5182   -7.6769  -16.1052 C   0  0  2  0  0  0  0  0  0  0  0  0
   23.3586   -8.7819  -15.6772 N   0  0  0  0  0  0  0  0  0  0  0  0
   21.9170   -6.9529  -14.9883 C   0  0  0  0  0  0  0  0  0  0  0  0
   21.9545   -7.3415  -13.7876 O   0  0  0  0  0  0  0  0  0  0  0  0
   21.2497   -5.7554  -15.1917 O   0  0  0  0  0  0  0  0  0  0  0  0
  2  1  1  0
  3  4  1  6
  3  5  1  0
  3  2  1  0
  5  6  2  0
  8  7  1  6
  8  9  1  0
  8 10  1  0
 10 12  1  0
 11  5  1  0
 10 11  1  6
 12 13  2  0
 12 20  1  0
 15 14  1  0
 15 16  2  0
 17 18  1  0
 17 15  1  0
 19 18  1  6
 20 19  1  0
 21 19  1  0
 21 23  1  0
 22 21  2  0
M  END
$$$$
