STQ.pdb
     RDKit          3D

 23 22  0  0  1  0  0  0  0  0999 V2000
   25.5498  -21.4385   -9.0780 O   0  0  0  0  0  0  0  0  0  0  0  0
   25.3695  -20.4728  -10.0493 C   0  0  0  0  0  0  0  0  0  0  0  0
   24.9912  -21.0484  -11.3937 C   0  0  2  0  0  0  0  0  0  0  0  0
   25.9992  -22.0513  -11.7685 N   0  0  0  0  0  0  0  0  0  0  0  0
   24.8809  -20.0291  -12.4602 C   0  0  0  0  0  0  0  0  0  0  0  0
   24.2176  -18.9708  -12.3082 O   0  0  0  0  0  0  0  0  0  0  0  0
   27.5933  -18.3088  -14.1303 C   0  0  0  0  0  0  0  0  0  0  0  0
   26.8293  -18.9463  -15.2616 C   0  0  1  0  0  0  0  0  0  0  0  0
   27.4947  -20.1308  -15.5978 O   0  0  0  0  0  0  0  0  0  0  0  0
   25.4159  -19.2486  -14.7847 C   0  0  2  0  0  0  0  0  0  0  0  0
   25.5269  -20.2053  -13.7129 N   0  0  0  0  0  0  0  0  0  0  0  0
   24.5307  -19.6697  -15.8702 C   0  0  0  0  0  0  0  0  0  0  0  0
   24.1063  -20.8752  -15.9090 O   0  0  0  0  0  0  0  0  0  0  0  0
   19.3133  -17.5092  -16.0520 N   0  0  0  0  0  0  0  0  0  0  0  0
   19.4817  -18.8874  -15.8178 C   0  0  0  0  0  0  0  0  0  0  0  0
   18.4959  -19.6388  -15.6013 O   0  0  0  0  0  0  0  0  0  0  0  0
   20.8822  -19.4459  -15.8327 C   0  0  0  0  0  0  0  0  0  0  0  0
   21.8679  -18.3723  -16.1346 C   0  0  0  0  0  0  0  0  0  0  0  0
   22.7432  -18.6079  -17.3263 C   0  0  2  0  0  0  0  0  0  0  0  0
   24.1198  -18.7794  -16.8951 N   0  0  0  0  0  0  0  0  0  0  0  0
   22.6009  -17.6294  -18.4012 C   0  0  0  0  0  0  0  0  0  0  0  0
   22.7118  -16.3814  -18.2447 O   0  0  0  0  0  0  0  0  0  0  0  0
   22.3282  -18.0310  -19.6992 O   0  0  0  0  0  0  0  0  0  0  0  0
  2  1  1  0
  3  4  1  6
  3  5  1  0
  3  2  1  0
  5  6  2  0
  8  7  1  1
  8  9  1  0
  8 10  1  0
 10 12  1  0
 11  5  1  0
 10 11  1  1
 12 13  2  0
 12 20  1  0
 15 14  1  0
 15 16  2  0
 17 18  1  0
 17 15  1  0
 19 18  1  1
 20 19  1  0
 21 19  1  0
 21 23  1  0
 22 21  2  0
M  END
$$$$
