STQ.pdb
     RDKit          3D

 23 22  0  0  1  0  0  0  0  0999 V2000
   17.4116  -14.5265  -13.7190 O   0  0  0  0  0  0  0  0  0  0  0  0
   17.9062  -13.3296  -14.2000 C   0  0  0  0  0  0  0  0  0  0  0  0
   17.6821  -13.1494  -15.6830 C   0  0  2  0  0  0  0  0  0  0  0  0
   18.4661  -14.1680  -16.3972 N   0  0  0  0  0  0  0  0  0  0  0  0
   18.0482  -11.8029  -16.1741 C   0  0  0  0  0  0  0  0  0  0  0  0
   19.0478  -11.6093  -16.9132 O   0  0  0  0  0  0  0  0  0  0  0  0
   16.5009   -7.2032  -16.9207 C   0  0  0  0  0  0  0  0  0  0  0  0
   16.2509   -8.5740  -16.3476 C   0  0  1  0  0  0  0  0  0  0  0  0
   15.3140   -9.2058  -17.1734 O   0  0  0  0  0  0  0  0  0  0  0  0
   17.5622   -9.3466  -16.3449 C   0  0  2  0  0  0  0  0  0  0  0  0
   17.2774  -10.6611  -15.8280 N   0  0  0  0  0  0  0  0  0  0  0  0
   18.6305   -8.6450  -15.6336 C   0  0  0  0  0  0  0  0  0  0  0  0
   18.6498   -8.6514  -14.3552 O   0  0  0  0  0  0  0  0  0  0  0  0
   24.6308   -7.0846  -17.8857 N   0  0  0  0  0  0  0  0  0  0  0  0
   24.0220   -5.9947  -17.2347 C   0  0  0  0  0  0  0  0  0  0  0  0
   24.2812   -4.8085  -17.5646 O   0  0  0  0  0  0  0  0  0  0  0  0
   23.0443   -6.2849  -16.1241 C   0  0  0  0  0  0  0  0  0  0  0  0
   21.8141   -6.9233  -16.6666 C   0  0  0  0  0  0  0  0  0  0  0  0
   20.7564   -7.2585  -15.6612 C   0  0  2  0  0  0  0  0  0  0  0  0
   19.6595   -7.9485  -16.3177 N   0  0  0  0  0  0  0  0  0  0  0  0
   20.3119   -6.1393  -14.8348 C   0  0  0  0  0  0  0  0  0  0  0  0
   19.4844   -5.2631  -15.2114 O   0  0  0  0  0  0  0  0  0  0  0  0
   20.7896   -5.9720  -13.5447 O   0  0  0  0  0  0  0  0  0  0  0  0
  2  1  1  0
  3  4  1  6
  3  5  1  0
  3  2  1  0
  5  6  2  0
  8  7  1  6
  8  9  1  0
  8 10  1  0
 10 12  1  0
 11  5  1  0
 10 11  1  1
 12 13  2  0
 12 20  1  0
 15 14  1  0
 15 16  2  0
 17 18  1  0
 17 15  1  0
 19 18  1  6
 20 19  1  0
 21 19  1  0
 21 23  1  0
 22 21  2  0
M  END
$$$$
