STQ.pdb
     RDKit          3D

 23 22  0  0  1  0  0  0  0  0999 V2000
   16.2824  -10.8153  -17.6929 O   0  0  0  0  0  0  0  0  0  0  0  0
   17.1083  -10.0648  -16.8785 C   0  0  0  0  0  0  0  0  0  0  0  0
   17.9751  -10.9096  -15.9746 C   0  0  2  0  0  0  0  0  0  0  0  0
   17.0987  -11.6824  -15.0819 N   0  0  0  0  0  0  0  0  0  0  0  0
   18.9333  -10.1189  -15.1712 C   0  0  0  0  0  0  0  0  0  0  0  0
   18.6883   -9.7743  -13.9862 O   0  0  0  0  0  0  0  0  0  0  0  0
   22.5883  -10.7629  -14.6844 C   0  0  0  0  0  0  0  0  0  0  0  0
   22.4943   -9.3672  -15.2439 C   0  0  1  0  0  0  0  0  0  0  0  0
   22.7570   -9.4503  -16.6161 O   0  0  0  0  0  0  0  0  0  0  0  0
   21.0866   -8.8407  -15.0041 C   0  0  2  0  0  0  0  0  0  0  0  0
   20.1829   -9.7127  -15.7106 N   0  0  0  0  0  0  0  0  0  0  0  0
   20.9447   -7.4270  -15.3517 C   0  0  0  0  0  0  0  0  0  0  0  0
   20.2254   -7.0911  -16.3541 O   0  0  0  0  0  0  0  0  0  0  0  0
   17.2671   -4.2663  -15.2004 N   0  0  0  0  0  0  0  0  0  0  0  0
   18.0467   -3.0965  -15.1202 C   0  0  0  0  0  0  0  0  0  0  0  0
   17.5219   -1.9552  -15.1921 O   0  0  0  0  0  0  0  0  0  0  0  0
   19.5369   -3.2450  -14.9447 C   0  0  0  0  0  0  0  0  0  0  0  0
   19.9058   -4.6813  -14.8169 C   0  0  0  0  0  0  0  0  0  0  0  0
   21.3729   -4.9806  -14.8282 C   0  0  2  0  0  0  0  0  0  0  0  0
   21.5833   -6.4012  -14.6091 N   0  0  0  0  0  0  0  0  0  0  0  0
   22.1817   -4.1426  -13.9469 C   0  0  0  0  0  0  0  0  0  0  0  0
   22.5131   -4.4614  -12.7710 O   0  0  0  0  0  0  0  0  0  0  0  0
   22.6484   -2.9076  -14.3683 O   0  0  0  0  0  0  0  0  0  0  0  0
  2  1  1  0
  3  4  1  1
  3  5  1  0
  3  2  1  0
  5  6  2  0
  8  7  1  6
  8  9  1  0
  8 10  1  0
 10 12  1  0
 11  5  1  0
 10 11  1  6
 12 13  2  0
 12 20  1  0
 15 14  1  0
 15 16  2  0
 17 18  1  0
 17 15  1  0
 19 18  1  1
 20 19  1  0
 21 19  1  0
 21 23  1  0
 22 21  2  0
M  END
$$$$
