STQ.pdb
     RDKit          3D

 23 22  0  0  1  0  0  0  0  0999 V2000
   22.6150  -21.3833   -9.2776 O   0  0  0  0  0  0  0  0  0  0  0  0
   23.3252  -20.7491  -10.2786 C   0  0  0  0  0  0  0  0  0  0  0  0
   24.8176  -20.9547  -10.1673 C   0  0  2  0  0  0  0  0  0  0  0  0
   25.2457  -20.5264   -8.8273 N   0  0  0  0  0  0  0  0  0  0  0  0
   25.5905  -20.2237  -11.1954 C   0  0  0  0  0  0  0  0  0  0  0  0
   25.9567  -19.0308  -11.0346 O   0  0  0  0  0  0  0  0  0  0  0  0
   28.6454  -20.4918  -12.9177 C   0  0  0  0  0  0  0  0  0  0  0  0
   27.6687  -20.6104  -14.0588 C   0  0  1  0  0  0  0  0  0  0  0  0
   27.5853  -21.9662  -14.3959 O   0  0  0  0  0  0  0  0  0  0  0  0
   26.3139  -20.0945  -13.5951 C   0  0  2  0  0  0  0  0  0  0  0  0
   25.9553  -20.8459  -12.4190 N   0  0  0  0  0  0  0  0  0  0  0  0
   25.3046  -20.1258  -14.6532 C   0  0  0  0  0  0  0  0  0  0  0  0
   24.3057  -20.9174  -14.5515 O   0  0  0  0  0  0  0  0  0  0  0  0
   20.7819  -17.8942  -17.2372 N   0  0  0  0  0  0  0  0  0  0  0  0
   21.5278  -16.8455  -16.6658 C   0  0  0  0  0  0  0  0  0  0  0  0
   21.1049  -15.6606  -16.6779 O   0  0  0  0  0  0  0  0  0  0  0  0
   22.8557  -17.1788  -16.0340 C   0  0  0  0  0  0  0  0  0  0  0  0
   23.0840  -18.6495  -16.0461 C   0  0  0  0  0  0  0  0  0  0  0  0
   24.3164  -19.1117  -16.7598 C   0  0  2  0  0  0  0  0  0  0  0  0
   25.3932  -19.3000  -15.8030 N   0  0  0  0  0  0  0  0  0  0  0  0
   24.7095  -18.2966  -17.9062 C   0  0  0  0  0  0  0  0  0  0  0  0
   25.6289  -17.4316  -17.8807 O   0  0  0  0  0  0  0  0  0  0  0  0
   24.0733  -18.4336  -19.1297 O   0  0  0  0  0  0  0  0  0  0  0  0
  2  1  1  0
  3  4  1  1
  3  5  1  0
  3  2  1  0
  5  6  2  0
  8  7  1  1
  8  9  1  0
  8 10  1  0
 10 12  1  0
 11  5  1  0
 10 11  1  1
 12 13  2  0
 12 20  1  0
 15 14  1  0
 15 16  2  0
 17 18  1  0
 17 15  1  0
 19 18  1  1
 20 19  1  0
 21 19  1  0
 21 23  1  0
 22 21  2  0
M  END
$$$$
