STQ.pdb
     RDKit          3D

 23 22  0  0  1  0  0  0  0  0999 V2000
   15.3712  -12.3413   -9.9509 O   0  0  0  0  0  0  0  0  0  0  0  0
   15.6102  -11.0659  -10.4250 C   0  0  0  0  0  0  0  0  0  0  0  0
   14.8073  -10.0069   -9.7067 C   0  0  2  0  0  0  0  0  0  0  0  0
   13.3789  -10.2979   -9.9000 N   0  0  0  0  0  0  0  0  0  0  0  0
   15.1029   -8.6320  -10.1658 C   0  0  0  0  0  0  0  0  0  0  0  0
   14.5248   -8.1194  -11.1588 O   0  0  0  0  0  0  0  0  0  0  0  0
   14.8795   -5.4648   -8.4236 C   0  0  0  0  0  0  0  0  0  0  0  0
   16.3311   -5.5572   -8.8166 C   0  0  1  0  0  0  0  0  0  0  0  0
   17.0338   -6.0347   -7.7044 O   0  0  0  0  0  0  0  0  0  0  0  0
   16.4587   -6.5281   -9.9818 C   0  0  2  0  0  0  0  0  0  0  0  0
   16.0617   -7.8255   -9.4966 N   0  0  0  0  0  0  0  0  0  0  0  0
   17.7856   -6.5021  -10.5968 C   0  0  0  0  0  0  0  0  0  0  0  0
   18.6754   -7.3380  -10.2169 O   0  0  0  0  0  0  0  0  0  0  0  0
   19.8734   -9.5377  -13.8076 N   0  0  0  0  0  0  0  0  0  0  0  0
   20.9162   -8.6539  -14.1451 C   0  0  0  0  0  0  0  0  0  0  0  0
   21.9388   -9.0538  -14.7595 O   0  0  0  0  0  0  0  0  0  0  0  0
   20.7775   -7.2054  -13.7497 C   0  0  0  0  0  0  0  0  0  0  0  0
   19.5909   -7.0166  -12.8712 C   0  0  0  0  0  0  0  0  0  0  0  0
   19.3557   -5.6200  -12.3854 C   0  0  2  0  0  0  0  0  0  0  0  0
   18.1269   -5.5723  -11.6120 N   0  0  0  0  0  0  0  0  0  0  0  0
   19.4201   -4.5876  -13.4164 C   0  0  0  0  0  0  0  0  0  0  0  0
   18.4108   -4.1038  -14.0010 O   0  0  0  0  0  0  0  0  0  0  0  0
   20.6358   -4.0617  -13.8236 O   0  0  0  0  0  0  0  0  0  0  0  0
  2  1  1  0
  3  4  1  6
  3  5  1  0
  3  2  1  0
  5  6  2  0
  8  7  1  1
  8  9  1  0
  8 10  1  0
 10 12  1  0
 11  5  1  0
 10 11  1  1
 12 13  2  0
 12 20  1  0
 15 14  1  0
 15 16  2  0
 17 18  1  0
 17 15  1  0
 19 18  1  6
 20 19  1  0
 21 19  1  0
 21 23  1  0
 22 21  2  0
M  END
$$$$
