STQ.pdb
     RDKit          3D

 23 22  0  0  1  0  0  0  0  0999 V2000
   13.1692  -13.6034  -15.5191 O   0  0  0  0  0  0  0  0  0  0  0  0
   13.8899  -12.7603  -14.6955 C   0  0  0  0  0  0  0  0  0  0  0  0
   15.3789  -13.0093  -14.7502 C   0  0  2  0  0  0  0  0  0  0  0  0
   15.6466  -14.3425  -14.1904 N   0  0  0  0  0  0  0  0  0  0  0  0
   16.1724  -11.9943  -14.0231 C   0  0  0  0  0  0  0  0  0  0  0  0
   16.4363  -12.1034  -12.7978 O   0  0  0  0  0  0  0  0  0  0  0  0
   19.4783   -8.4512  -14.2675 C   0  0  0  0  0  0  0  0  0  0  0  0
   18.6224   -9.4932  -14.9396 C   0  0  1  0  0  0  0  0  0  0  0  0
   19.4290  -10.6157  -15.1595 O   0  0  0  0  0  0  0  0  0  0  0  0
   17.4661   -9.8438  -14.0140 C   0  0  2  0  0  0  0  0  0  0  0  0
   16.6745  -10.8428  -14.6860 N   0  0  0  0  0  0  0  0  0  0  0  0
   16.7065   -8.6687  -13.5879 C   0  0  0  0  0  0  0  0  0  0  0  0
   16.1070   -7.9523  -14.4609 O   0  0  0  0  0  0  0  0  0  0  0  0
   15.7631   -7.2449   -7.5653 N   0  0  0  0  0  0  0  0  0  0  0  0
   15.1164   -6.1281   -8.1283 C   0  0  0  0  0  0  0  0  0  0  0  0
   14.6007   -5.2377   -7.4042 O   0  0  0  0  0  0  0  0  0  0  0  0
   15.0560   -6.0235   -9.6313 C   0  0  0  0  0  0  0  0  0  0  0  0
   15.7665   -7.1691  -10.2622 C   0  0  0  0  0  0  0  0  0  0  0  0
   15.8998   -7.1122  -11.7525 C   0  0  2  0  0  0  0  0  0  0  0  0
   16.6086   -8.2890  -12.2249 N   0  0  0  0  0  0  0  0  0  0  0  0
   16.4524   -5.8660  -12.2767 C   0  0  0  0  0  0  0  0  0  0  0  0
   15.7550   -4.8859  -12.6605 O   0  0  0  0  0  0  0  0  0  0  0  0
   17.8219   -5.6832  -12.3842 O   0  0  0  0  0  0  0  0  0  0  0  0
  2  1  1  0
  3  4  1  1
  3  5  1  0
  3  2  1  0
  5  6  2  0
  8  7  1  1
  8  9  1  0
  8 10  1  0
 10 12  1  0
 11  5  1  0
 10 11  1  6
 12 13  2  0
 12 20  1  0
 15 14  1  0
 15 16  2  0
 17 18  1  0
 17 15  1  0
 19 18  1  1
 20 19  1  0
 21 19  1  0
 21 23  1  0
 22 21  2  0
M  END
$$$$
