STQ.pdb
     RDKit          3D

 23 22  0  0  1  0  0  0  0  0999 V2000
   24.6479  -16.0565  -16.9049 O   0  0  0  0  0  0  0  0  0  0  0  0
   24.5374  -14.7838  -16.3790 C   0  0  0  0  0  0  0  0  0  0  0  0
   25.7681  -13.9387  -16.6099 C   0  0  2  0  0  0  0  0  0  0  0  0
   26.9112  -14.5978  -15.9607 N   0  0  0  0  0  0  0  0  0  0  0  0
   25.6357  -12.5554  -16.1026 C   0  0  0  0  0  0  0  0  0  0  0  0
   25.7307  -12.2797  -14.8787 O   0  0  0  0  0  0  0  0  0  0  0  0
   25.9365   -9.3297  -18.7518 C   0  0  0  0  0  0  0  0  0  0  0  0
   26.2575   -9.2683  -17.2810 C   0  0  1  0  0  0  0  0  0  0  0  0
   26.1640   -7.9276  -16.8903 O   0  0  0  0  0  0  0  0  0  0  0  0
   25.2415  -10.1132  -16.5256 C   0  0  2  0  0  0  0  0  0  0  0  0
   25.3939  -11.4700  -16.9863 N   0  0  0  0  0  0  0  0  0  0  0  0
   23.8786   -9.5946  -16.6392 C   0  0  0  0  0  0  0  0  0  0  0  0
   23.1859   -9.8591  -17.6809 O   0  0  0  0  0  0  0  0  0  0  0  0
   19.2896  -11.0205  -15.0210 N   0  0  0  0  0  0  0  0  0  0  0  0
   18.7297   -9.7392  -14.8560 C   0  0  0  0  0  0  0  0  0  0  0  0
   17.4870   -9.5549  -14.9265 O   0  0  0  0  0  0  0  0  0  0  0  0
   19.6618   -8.5840  -14.5907 C   0  0  0  0  0  0  0  0  0  0  0  0
   21.0798   -9.0268  -14.6838 C   0  0  0  0  0  0  0  0  0  0  0  0
   21.9293   -8.2886  -15.6712 C   0  0  2  0  0  0  0  0  0  0  0  0
   23.2886   -8.7990  -15.6241 N   0  0  0  0  0  0  0  0  0  0  0  0
   21.8642   -6.8326  -15.5763 C   0  0  0  0  0  0  0  0  0  0  0  0
   22.7780   -6.1112  -15.0875 O   0  0  0  0  0  0  0  0  0  0  0  0
   20.7570   -6.1372  -16.0355 O   0  0  0  0  0  0  0  0  0  0  0  0
  2  1  1  0
  3  4  1  1
  3  5  1  0
  3  2  1  0
  5  6  2  0
  8  7  1  6
  8  9  1  0
  8 10  1  0
 10 12  1  0
 11  5  1  0
 10 11  1  6
 12 13  2  0
 12 20  1  0
 15 14  1  0
 15 16  2  0
 17 18  1  0
 17 15  1  0
 19 18  1  1
 20 19  1  0
 21 19  1  0
 21 23  1  0
 22 21  2  0
M  END
$$$$
