STQ.pdb
     RDKit          3D

 23 22  0  0  1  0  0  0  0  0999 V2000
   30.5121  -23.7574  -19.3382 O   0  0  0  0  0  0  0  0  0  0  0  0
   30.3305  -23.0111  -18.1899 C   0  0  0  0  0  0  0  0  0  0  0  0
   28.9263  -23.1022  -17.6404 C   0  0  2  0  0  0  0  0  0  0  0  0
   27.9810  -22.9123  -18.7507 N   0  0  0  0  0  0  0  0  0  0  0  0
   28.6470  -22.1165  -16.5732 C   0  0  0  0  0  0  0  0  0  0  0  0
   29.3718  -22.0150  -15.5498 O   0  0  0  0  0  0  0  0  0  0  0  0
   26.8312  -17.9142  -15.1669 C   0  0  0  0  0  0  0  0  0  0  0  0
   27.1822  -18.9165  -16.2356 C   0  0  1  0  0  0  0  0  0  0  0  0
   28.4529  -18.5827  -16.7180 O   0  0  0  0  0  0  0  0  0  0  0  0
   27.1988  -20.3054  -15.6134 C   0  0  2  0  0  0  0  0  0  0  0  0
   27.5372  -21.2343  -16.6616 N   0  0  0  0  0  0  0  0  0  0  0  0
   25.9561  -20.6255  -14.9115 C   0  0  0  0  0  0  0  0  0  0  0  0
   24.9464  -21.0472  -15.5731 O   0  0  0  0  0  0  0  0  0  0  0  0
   25.4191  -20.2130   -8.6800 N   0  0  0  0  0  0  0  0  0  0  0  0
   24.1678  -20.8035   -8.9414 C   0  0  0  0  0  0  0  0  0  0  0  0
   23.3758  -21.0967   -8.0087 O   0  0  0  0  0  0  0  0  0  0  0  0
   23.7966  -21.0784  -10.3767 C   0  0  0  0  0  0  0  0  0  0  0  0
   24.9171  -20.7096  -11.2844 C   0  0  0  0  0  0  0  0  0  0  0  0
   24.6536  -20.8825  -12.7482 C   0  0  2  0  0  0  0  0  0  0  0  0
   25.8271  -20.4839  -13.5061 N   0  0  0  0  0  0  0  0  0  0  0  0
   23.4243  -20.2603  -13.2329 C   0  0  0  0  0  0  0  0  0  0  0  0
   22.3072  -20.8460  -13.2913 O   0  0  0  0  0  0  0  0  0  0  0  0
   23.4153  -18.9452  -13.6696 O   0  0  0  0  0  0  0  0  0  0  0  0
  2  1  1  0
  3  4  1  6
  3  5  1  0
  3  2  1  0
  5  6  2  0
  8  7  1  1
  8  9  1  0
  8 10  1  0
 10 12  1  0
 11  5  1  0
 10 11  1  6
 12 13  2  0
 12 20  1  0
 15 14  1  0
 15 16  2  0
 17 18  1  0
 17 15  1  0
 19 18  1  1
 20 19  1  0
 21 19  1  0
 21 23  1  0
 22 21  2  0
M  END
$$$$
