STQ.pdb
     RDKit          3D

 23 22  0  0  1  0  0  0  0  0999 V2000
   23.5283  -15.2778  -21.7501 O   0  0  0  0  0  0  0  0  0  0  0  0
   23.6395  -14.4092  -20.6816 C   0  0  0  0  0  0  0  0  0  0  0  0
   23.9607  -15.1080  -19.3814 C   0  0  2  0  0  0  0  0  0  0  0  0
   22.8145  -15.9526  -19.0138 N   0  0  0  0  0  0  0  0  0  0  0  0
   24.2702  -14.1773  -18.2740 C   0  0  0  0  0  0  0  0  0  0  0  0
   23.3786  -13.7297  -17.5073 O   0  0  0  0  0  0  0  0  0  0  0  0
   27.8096  -12.0120  -15.6061 C   0  0  0  0  0  0  0  0  0  0  0  0
   27.4328  -12.9272  -16.7420 C   0  0  1  0  0  0  0  0  0  0  0  0
   27.7676  -14.2300  -16.3555 O   0  0  0  0  0  0  0  0  0  0  0  0
   25.9341  -12.8134  -16.9818 C   0  0  2  0  0  0  0  0  0  0  0  0
   25.6012  -13.7466  -18.0280 N   0  0  0  0  0  0  0  0  0  0  0  0
   25.5069  -11.4404  -17.2495 C   0  0  0  0  0  0  0  0  0  0  0  0
   25.7971  -10.8943  -18.3686 O   0  0  0  0  0  0  0  0  0  0  0  0
   20.8047   -8.8826  -14.1635 N   0  0  0  0  0  0  0  0  0  0  0  0
   21.1139   -7.7646  -14.9616 C   0  0  0  0  0  0  0  0  0  0  0  0
   20.3798   -6.7427  -14.9676 O   0  0  0  0  0  0  0  0  0  0  0  0
   22.3552   -7.8213  -15.8156 C   0  0  0  0  0  0  0  0  0  0  0  0
   23.0046   -9.1558  -15.7028 C   0  0  0  0  0  0  0  0  0  0  0  0
   24.2103   -9.3685  -16.5648 C   0  0  2  0  0  0  0  0  0  0  0  0
   24.7731  -10.6818  -16.3020 N   0  0  0  0  0  0  0  0  0  0  0  0
   25.2057   -8.3011  -16.5101 C   0  0  0  0  0  0  0  0  0  0  0  0
   26.2609   -8.3489  -15.8184 O   0  0  0  0  0  0  0  0  0  0  0  0
   25.0420   -7.1358  -17.2419 O   0  0  0  0  0  0  0  0  0  0  0  0
  2  1  1  0
  3  4  1  1
  3  5  1  0
  3  2  1  0
  5  6  2  0
  8  7  1  1
  8  9  1  0
  8 10  1  0
 10 12  1  0
 11  5  1  0
 10 11  1  6
 12 13  2  0
 12 20  1  0
 15 14  1  0
 15 16  2  0
 17 18  1  0
 17 15  1  0
 19 18  1  1
 20 19  1  0
 21 19  1  0
 21 23  1  0
 22 21  2  0
M  END
$$$$
