STQ.pdb
     RDKit          3D

 23 22  0  0  1  0  0  0  0  0999 V2000
   19.8687  -26.6972    0.0787 O   0  0  0  0  0  0  0  0  0  0  0  0
   19.3269  -26.4351   -1.1648 C   0  0  0  0  0  0  0  0  0  0  0  0
   18.7841  -27.6692   -1.8463 C   0  0  2  0  0  0  0  0  0  0  0  0
   19.5158  -28.8390   -1.3379 N   0  0  0  0  0  0  0  0  0  0  0  0
   18.8856  -27.6195   -3.3213 C   0  0  0  0  0  0  0  0  0  0  0  0
   19.9354  -27.9498   -3.9312 O   0  0  0  0  0  0  0  0  0  0  0  0
   17.3325  -29.6142   -5.5014 C   0  0  0  0  0  0  0  0  0  0  0  0
   16.8564  -28.2825   -6.0210 C   0  0  1  0  0  0  0  0  0  0  0  0
   15.5840  -28.0569   -5.4836 O   0  0  0  0  0  0  0  0  0  0  0  0
   17.8265  -27.2048   -5.5585 C   0  0  2  0  0  0  0  0  0  0  0  0
   17.7899  -27.1928   -4.1181 N   0  0  0  0  0  0  0  0  0  0  0  0
   17.5612  -25.9039   -6.1723 C   0  0  0  0  0  0  0  0  0  0  0  0
   16.8999  -25.0218   -5.5247 O   0  0  0  0  0  0  0  0  0  0  0  0
   19.9524  -24.2233  -11.7164 N   0  0  0  0  0  0  0  0  0  0  0  0
   18.9083  -23.2806  -11.6546 C   0  0  0  0  0  0  0  0  0  0  0  0
   18.7112  -22.4615  -12.5891 O   0  0  0  0  0  0  0  0  0  0  0  0
   18.0253  -23.2757  -10.4324 C   0  0  0  0  0  0  0  0  0  0  0  0
   18.5197  -24.2571   -9.4285 C   0  0  0  0  0  0  0  0  0  0  0  0
   17.7541  -24.3161   -8.1432 C   0  0  2  0  0  0  0  0  0  0  0  0
   18.0159  -25.5798   -7.4762 N   0  0  0  0  0  0  0  0  0  0  0  0
   16.3291  -24.0174   -8.2580 C   0  0  0  0  0  0  0  0  0  0  0  0
   15.4256  -24.8937   -8.3575 O   0  0  0  0  0  0  0  0  0  0  0  0
   15.8733  -22.7087   -8.2624 O   0  0  0  0  0  0  0  0  0  0  0  0
  2  1  1  0
  3  4  1  1
  3  5  1  0
  3  2  1  0
  5  6  2  0
  8  7  1  1
  8  9  1  0
  8 10  1  0
 10 12  1  0
 11  5  1  0
 10 11  1  1
 12 13  2  0
 12 20  1  0
 15 14  1  0
 15 16  2  0
 17 18  1  0
 17 15  1  0
 19 18  1  6
 20 19  1  0
 21 19  1  0
 21 23  1  0
 22 21  2  0
M  END
$$$$
