STQ.pdb
     RDKit          3D

 23 22  0  0  1  0  0  0  0  0999 V2000
   17.0347  -13.0508  -13.8687 O   0  0  0  0  0  0  0  0  0  0  0  0
   16.2650  -13.4550  -14.9424 C   0  0  0  0  0  0  0  0  0  0  0  0
   16.9903  -13.3510  -16.2634 C   0  0  2  0  0  0  0  0  0  0  0  0
   18.1460  -14.2596  -16.2302 N   0  0  0  0  0  0  0  0  0  0  0  0
   17.4434  -11.9786  -16.5794 C   0  0  0  0  0  0  0  0  0  0  0  0
   18.6567  -11.6484  -16.5372 O   0  0  0  0  0  0  0  0  0  0  0  0
   16.2229   -7.5776  -18.4234 C   0  0  0  0  0  0  0  0  0  0  0  0
   15.8070   -8.9768  -18.0503 C   0  0  1  0  0  0  0  0  0  0  0  0
   15.6168   -9.6860  -19.2418 O   0  0  0  0  0  0  0  0  0  0  0  0
   16.9184   -9.6114  -17.2266 C   0  0  2  0  0  0  0  0  0  0  0  0
   16.5171  -10.9669  -16.9480 N   0  0  0  0  0  0  0  0  0  0  0  0
   17.2546   -8.8324  -16.0351 C   0  0  0  0  0  0  0  0  0  0  0  0
   16.5731   -8.9881  -14.9644 O   0  0  0  0  0  0  0  0  0  0  0  0
   22.7418   -6.0213  -15.3277 N   0  0  0  0  0  0  0  0  0  0  0  0
   22.1271   -5.4915  -14.1770 C   0  0  0  0  0  0  0  0  0  0  0  0
   22.7473   -4.7185  -13.4018 O   0  0  0  0  0  0  0  0  0  0  0  0
   20.6968   -5.8756  -13.8935 C   0  0  0  0  0  0  0  0  0  0  0  0
   20.1605   -6.7310  -14.9871 C   0  0  0  0  0  0  0  0  0  0  0  0
   18.7237   -7.1312  -14.8560 C   0  0  2  0  0  0  0  0  0  0  0  0
   18.3220   -7.8985  -16.0224 N   0  0  0  0  0  0  0  0  0  0  0  0
   17.8034   -6.0397  -14.5480 C   0  0  0  0  0  0  0  0  0  0  0  0
   17.4747   -5.6967  -13.3781 O   0  0  0  0  0  0  0  0  0  0  0  0
   17.2205   -5.2921  -15.5589 O   0  0  0  0  0  0  0  0  0  0  0  0
  2  1  1  0
  3  4  1  1
  3  5  1  0
  3  2  1  0
  5  6  2  0
  8  7  1  6
  8  9  1  0
  8 10  1  0
 10 12  1  0
 11  5  1  0
 10 11  1  1
 12 13  2  0
 12 20  1  0
 15 14  1  0
 15 16  2  0
 17 18  1  0
 17 15  1  0
 19 18  1  6
 20 19  1  0
 21 19  1  0
 21 23  1  0
 22 21  2  0
M  END
$$$$
