STQ.pdb
     RDKit          3D

 23 22  0  0  1  0  0  0  0  0999 V2000
   13.8316  -10.7116  -16.6293 O   0  0  0  0  0  0  0  0  0  0  0  0
   14.2444  -10.4087  -15.3462 C   0  0  0  0  0  0  0  0  0  0  0  0
   15.6809  -10.7931  -15.0801 C   0  0  2  0  0  0  0  0  0  0  0  0
   15.7920  -12.2570  -15.1641 N   0  0  0  0  0  0  0  0  0  0  0  0
   16.1806  -10.3293  -13.7672 C   0  0  0  0  0  0  0  0  0  0  0  0
   15.9597  -10.9656  -12.7045 O   0  0  0  0  0  0  0  0  0  0  0  0
   19.7111   -9.2171  -13.2150 C   0  0  0  0  0  0  0  0  0  0  0  0
   18.8509   -8.1097  -12.6639 C   0  0  1  0  0  0  0  0  0  0  0  0
   18.7949   -7.1036  -13.6353 O   0  0  0  0  0  0  0  0  0  0  0  0
   17.4593   -8.6636  -12.3929 C   0  0  2  0  0  0  0  0  0  0  0  0
   16.9389   -9.1338  -13.6516 N   0  0  0  0  0  0  0  0  0  0  0  0
   16.5918   -7.7040  -11.7103 C   0  0  0  0  0  0  0  0  0  0  0  0
   15.8316   -6.9386  -12.3967 O   0  0  0  0  0  0  0  0  0  0  0  0
   12.4966   -8.7593   -7.9273 N   0  0  0  0  0  0  0  0  0  0  0  0
   12.5313   -7.3954   -7.5789 C   0  0  0  0  0  0  0  0  0  0  0  0
   11.6695   -6.8949   -6.8109 O   0  0  0  0  0  0  0  0  0  0  0  0
   13.6343   -6.5423   -8.1525 C   0  0  0  0  0  0  0  0  0  0  0  0
   14.6216   -7.3865   -8.8791 C   0  0  0  0  0  0  0  0  0  0  0  0
   15.7259   -6.6486   -9.5704 C   0  0  2  0  0  0  0  0  0  0  0  0
   16.5616   -7.5889  -10.2969 N   0  0  0  0  0  0  0  0  0  0  0  0
   16.4939   -5.7447   -8.7182 C   0  0  0  0  0  0  0  0  0  0  0  0
   17.6456   -6.0002   -8.2681 O   0  0  0  0  0  0  0  0  0  0  0  0
   15.9835   -4.5117   -8.3445 O   0  0  0  0  0  0  0  0  0  0  0  0
  2  1  1  0
  3  4  1  1
  3  5  1  0
  3  2  1  0
  5  6  2  0
  8  7  1  6
  8  9  1  0
  8 10  1  0
 10 12  1  0
 11  5  1  0
 10 11  1  6
 12 13  2  0
 12 20  1  0
 15 14  1  0
 15 16  2  0
 17 18  1  0
 17 15  1  0
 19 18  1  1
 20 19  1  0
 21 19  1  0
 21 23  1  0
 22 21  2  0
M  END
$$$$
