GHE.pdb
     RDKit          3D

 24 24  0  0  1  0  0  0  0  0999 V2000
   26.4529   -8.9312  -21.1520 N   0  0  0  0  0  0  0  0  0  0  0  0
   25.1240   -8.4791  -20.8655 C   0  0  0  0  0  0  0  0  0  0  0  0
   24.5774   -9.0960  -19.6313 C   0  0  0  0  0  0  0  0  0  0  0  0
   24.8224  -10.3138  -19.4169 O   0  0  0  0  0  0  0  0  0  0  0  0
   23.8131   -8.3097  -18.7524 N   0  0  0  0  0  0  0  0  0  0  0  0
   23.4603   -8.8433  -17.3835 C   0  0  1  0  0  0  0  0  0  0  0  0
   24.6166   -8.4936  -16.5063 C   0  0  0  0  0  0  0  0  0  0  0  0
   25.5828   -9.5573  -16.2173 C   0  0  0  0  0  0  0  0  0  0  0  0
   25.4581  -10.8921  -16.6857 C   0  0  0  0  0  0  0  0  0  0  0  0
   26.4954  -11.6126  -16.2526 N   0  0  0  0  0  0  0  0  0  0  0  0
   27.2857  -10.8045  -15.5253 C   0  0  0  0  0  0  0  0  0  0  0  0
   26.7240   -9.5935  -15.5193 N   0  0  0  0  0  0  0  0  0  0  0  0
   22.1972   -8.1452  -17.0822 C   0  0  0  0  0  0  0  0  0  0  0  0
   22.1365   -6.8805  -17.3385 O   0  0  0  0  0  0  0  0  0  0  0  0
   21.0114   -8.6815  -16.5432 N   0  0  0  0  0  0  0  0  0  0  0  0
   19.8427   -7.8421  -16.2516 C   0  0  1  0  0  0  0  0  0  0  0  0
   18.7108   -8.7980  -15.9713 C   0  0  0  0  0  0  0  0  0  0  0  0
   17.4357   -8.1624  -15.5421 C   0  0  0  0  0  0  0  0  0  0  0  0
   16.4397   -9.2147  -15.2705 C   0  0  0  0  0  0  0  0  0  0  0  0
   15.2509   -8.9175  -15.0573 O   0  0  0  0  0  0  0  0  0  0  0  0
   20.1006   -6.9205  -15.1487 C   0  0  0  0  0  0  0  0  0  0  0  0
   20.9217   -7.2091  -14.0651 O   0  0  0  0  0  0  0  0  0  0  0  0
   16.8246  -10.5361  -15.2519 O   0  0  0  0  0  0  0  0  0  0  0  0
   19.5591   -5.7909  -15.1556 O   0  0  0  0  0  0  0  0  0  0  0  0
  2  1  1  0
  3  2  1  0
  3  5  1  0
  4  3  2  0
  6  5  1  0
  6 13  1  0
  6  7  1  1
  8  7  1  0
  8 12  1  0
  9 10  1  0
  9  8  2  0
 10 11  1  0
 11 12  2  0
 13 14  2  0
 13 15  1  0
 15 16  1  0
 16 17  1  1
 16 21  1  0
 17 18  1  0
 18 19  1  0
 19 20  2  0
 21 22  1  0
 23 19  1  0
 24 21  2  0
M  END
$$$$
