GHE.pdb
     RDKit          3D

 24 24  0  0  1  0  0  0  0  0999 V2000
   10.1920  -13.7350    6.4560 N   0  0  0  0  0  0  0  0  0  0  0  0
   11.4977  -13.1989    6.7015 C   0  0  0  0  0  0  0  0  0  0  0  0
   12.5608  -13.9852    6.0275 C   0  0  0  0  0  0  0  0  0  0  0  0
   12.2429  -15.0860    5.5019 O   0  0  0  0  0  0  0  0  0  0  0  0
   13.8722  -13.4811    5.9984 N   0  0  0  0  0  0  0  0  0  0  0  0
   14.9507  -14.2404    5.2613 C   0  0  1  0  0  0  0  0  0  0  0  0
   15.9713  -13.2195    4.8804 C   0  0  0  0  0  0  0  0  0  0  0  0
   17.0921  -13.6712    4.0508 C   0  0  0  0  0  0  0  0  0  0  0  0
   17.2857  -15.0174    3.6423 C   0  0  0  0  0  0  0  0  0  0  0  0
   18.3917  -15.1004    2.8988 N   0  0  0  0  0  0  0  0  0  0  0  0
   18.9225  -13.8689    2.8078 C   0  0  0  0  0  0  0  0  0  0  0  0
   18.1351  -13.0407    3.4978 N   0  0  0  0  0  0  0  0  0  0  0  0
   15.3846  -15.2337    6.2606 C   0  0  0  0  0  0  0  0  0  0  0  0
   15.3397  -14.8898    7.5050 O   0  0  0  0  0  0  0  0  0  0  0  0
   15.8496  -16.5454    6.0416 N   0  0  0  0  0  0  0  0  0  0  0  0
   16.2685  -17.4148    7.1480 C   0  0  1  0  0  0  0  0  0  0  0  0
   15.5834  -18.7371    6.9125 C   0  0  0  0  0  0  0  0  0  0  0  0
   15.8532  -19.7823    7.9366 C   0  0  0  0  0  0  0  0  0  0  0  0
   15.1925  -21.0364    7.5317 C   0  0  0  0  0  0  0  0  0  0  0  0
   14.0057  -21.0318    7.1597 O   0  0  0  0  0  0  0  0  0  0  0  0
   17.7222  -17.5286    7.2255 C   0  0  0  0  0  0  0  0  0  0  0  0
   18.4241  -17.7907    8.3961 O   0  0  0  0  0  0  0  0  0  0  0  0
   15.8909  -22.2220    7.5644 O   0  0  0  0  0  0  0  0  0  0  0  0
   18.4037  -17.3851    6.1843 O   0  0  0  0  0  0  0  0  0  0  0  0
  2  1  1  0
  3  2  1  0
  3  5  1  0
  4  3  2  0
  6  5  1  0
  6 13  1  0
  6  7  1  1
  8  7  1  0
  8 12  1  0
  9 10  1  0
  9  8  2  0
 10 11  1  0
 11 12  2  0
 13 14  2  0
 13 15  1  0
 15 16  1  0
 16 17  1  6
 16 21  1  0
 17 18  1  0
 18 19  1  0
 19 20  2  0
 21 22  1  0
 23 19  1  0
 24 21  2  0
M  END
$$$$
