GHE.pdb
     RDKit          3D

 24 24  0  0  1  0  0  0  0  0999 V2000
   19.1013  -16.3074  -24.6725 N   0  0  0  0  0  0  0  0  0  0  0  0
   19.4504  -15.2249  -23.8015 C   0  0  0  0  0  0  0  0  0  0  0  0
   19.7902  -15.6940  -22.4350 C   0  0  0  0  0  0  0  0  0  0  0  0
   20.5107  -16.7221  -22.3217 O   0  0  0  0  0  0  0  0  0  0  0  0
   19.3022  -14.9833  -21.3251 N   0  0  0  0  0  0  0  0  0  0  0  0
   19.7258  -15.3865  -19.9319 C   0  0  1  0  0  0  0  0  0  0  0  0
   20.7414  -14.3755  -19.5129 C   0  0  0  0  0  0  0  0  0  0  0  0
   22.1351  -14.6329  -19.8870 C   0  0  0  0  0  0  0  0  0  0  0  0
   22.5771  -15.8139  -20.5400 C   0  0  0  0  0  0  0  0  0  0  0  0
   23.8951  -15.7424  -20.7412 N   0  0  0  0  0  0  0  0  0  0  0  0
   24.3260  -14.5688  -20.2480 C   0  0  0  0  0  0  0  0  0  0  0  0
   23.2657  -13.9303  -19.7479 N   0  0  0  0  0  0  0  0  0  0  0  0
   18.4532  -15.3579  -19.1882 C   0  0  0  0  0  0  0  0  0  0  0  0
   17.6365  -14.3882  -19.4365 O   0  0  0  0  0  0  0  0  0  0  0  0
   17.9878  -16.2697  -18.2205 N   0  0  0  0  0  0  0  0  0  0  0  0
   16.7371  -16.0485  -17.4842 C   0  0  1  0  0  0  0  0  0  0  0  0
   16.3215  -17.4020  -16.9657 C   0  0  0  0  0  0  0  0  0  0  0  0
   14.9813  -17.4498  -16.3209 C   0  0  0  0  0  0  0  0  0  0  0  0
   14.7490  -18.8057  -15.7912 C   0  0  0  0  0  0  0  0  0  0  0  0
   13.6614  -19.0986  -15.2636 O   0  0  0  0  0  0  0  0  0  0  0  0
   16.9010  -15.0554  -16.4262 C   0  0  0  0  0  0  0  0  0  0  0  0
   15.8751  -14.2517  -15.9433 O   0  0  0  0  0  0  0  0  0  0  0  0
   15.7404  -19.7565  -15.8793 O   0  0  0  0  0  0  0  0  0  0  0  0
   18.0286  -14.8982  -15.9037 O   0  0  0  0  0  0  0  0  0  0  0  0
  2  1  1  0
  3  2  1  0
  3  5  1  0
  4  3  2  0
  6  5  1  0
  6 13  1  0
  6  7  1  1
  8  7  1  0
  8 12  1  0
  9 10  1  0
  9  8  2  0
 10 11  1  0
 11 12  2  0
 13 14  2  0
 13 15  1  0
 15 16  1  0
 16 17  1  1
 16 21  1  0
 17 18  1  0
 18 19  1  0
 19 20  2  0
 21 22  1  0
 23 19  1  0
 24 21  2  0
M  END
$$$$
