GHE.pdb
     RDKit          3D

 24 24  0  0  1  0  0  0  0  0999 V2000
   28.1290  -36.7275    2.0769 N   0  0  0  0  0  0  0  0  0  0  0  0
   27.1978  -36.5364    3.1487 C   0  0  0  0  0  0  0  0  0  0  0  0
   27.3352  -35.1988    3.7770 C   0  0  0  0  0  0  0  0  0  0  0  0
   28.2371  -34.4302    3.3470 O   0  0  0  0  0  0  0  0  0  0  0  0
   26.4642  -34.8382    4.8192 N   0  0  0  0  0  0  0  0  0  0  0  0
   26.4782  -33.4244    5.3521 C   0  0  1  0  0  0  0  0  0  0  0  0
   25.0782  -32.9266    5.2059 C   0  0  0  0  0  0  0  0  0  0  0  0
   24.7612  -32.1685    3.9921 C   0  0  0  0  0  0  0  0  0  0  0  0
   25.7384  -31.5981    3.1341 C   0  0  0  0  0  0  0  0  0  0  0  0
   25.1301  -30.9759    2.1213 N   0  0  0  0  0  0  0  0  0  0  0  0
   23.8037  -31.1179    2.2851 C   0  0  0  0  0  0  0  0  0  0  0  0
   23.6108  -31.8274    3.3993 N   0  0  0  0  0  0  0  0  0  0  0  0
   26.9484  -33.6077    6.7373 C   0  0  0  0  0  0  0  0  0  0  0  0
   26.3090  -34.4494    7.4800 O   0  0  0  0  0  0  0  0  0  0  0  0
   28.0323  -32.9788    7.3808 N   0  0  0  0  0  0  0  0  0  0  0  0
   28.3556  -33.2393    8.7891 C   0  0  1  0  0  0  0  0  0  0  0  0
   29.7391  -32.6793    9.0026 C   0  0  0  0  0  0  0  0  0  0  0  0
   30.8338  -33.4132    8.3117 C   0  0  0  0  0  0  0  0  0  0  0  0
   32.1253  -32.7953    8.6627 C   0  0  0  0  0  0  0  0  0  0  0  0
   32.7952  -33.2327    9.6151 O   0  0  0  0  0  0  0  0  0  0  0  0
   27.3594  -32.6631    9.6880 C   0  0  0  0  0  0  0  0  0  0  0  0
   27.0469  -33.1776   10.9407 O   0  0  0  0  0  0  0  0  0  0  0  0
   32.5960  -31.7269    7.9337 O   0  0  0  0  0  0  0  0  0  0  0  0
   26.7322  -31.6392    9.3309 O   0  0  0  0  0  0  0  0  0  0  0  0
  2  1  1  0
  3  2  1  0
  3  5  1  0
  4  3  2  0
  6  5  1  0
  6 13  1  0
  6  7  1  1
  8  7  1  0
  8 12  1  0
  9 10  1  0
  9  8  2  0
 10 11  1  0
 11 12  2  0
 13 14  2  0
 13 15  1  0
 15 16  1  0
 16 17  1  1
 16 21  1  0
 17 18  1  0
 18 19  1  0
 19 20  2  0
 21 22  1  0
 23 19  1  0
 24 21  2  0
M  END
$$$$
