GHE.pdb
     RDKit          3D

 24 24  0  0  1  0  0  0  0  0999 V2000
   15.3858  -17.6284    3.5441 N   0  0  0  0  0  0  0  0  0  0  0  0
   15.4698  -16.2246    3.8172 C   0  0  0  0  0  0  0  0  0  0  0  0
   16.7302  -15.8648    4.5133 C   0  0  0  0  0  0  0  0  0  0  0  0
   17.5352  -16.7911    4.8015 O   0  0  0  0  0  0  0  0  0  0  0  0
   16.9811  -14.5175    4.8244 N   0  0  0  0  0  0  0  0  0  0  0  0
   18.2850  -14.1307    5.4827 C   0  0  1  0  0  0  0  0  0  0  0  0
   18.4817  -12.6853    5.1645 C   0  0  0  0  0  0  0  0  0  0  0  0
   19.6653  -12.0311    5.7299 C   0  0  0  0  0  0  0  0  0  0  0  0
   20.6306  -12.6930    6.5339 C   0  0  0  0  0  0  0  0  0  0  0  0
   21.5815  -11.8256    6.8895 N   0  0  0  0  0  0  0  0  0  0  0  0
   21.2751  -10.6325    6.3519 C   0  0  0  0  0  0  0  0  0  0  0  0
   20.1368  -10.7800    5.6703 N   0  0  0  0  0  0  0  0  0  0  0  0
   18.0336  -14.4428    6.9015 C   0  0  0  0  0  0  0  0  0  0  0  0
   16.8459  -14.2254    7.3608 O   0  0  0  0  0  0  0  0  0  0  0  0
   18.9325  -14.9650    7.8521 N   0  0  0  0  0  0  0  0  0  0  0  0
   18.5166  -15.2719    9.2263 C   0  0  1  0  0  0  0  0  0  0  0  0
   18.4256  -16.7751    9.3012 C   0  0  0  0  0  0  0  0  0  0  0  0
   18.0363  -17.3213   10.6295 C   0  0  0  0  0  0  0  0  0  0  0  0
   18.0500  -18.7941   10.5682 C   0  0  0  0  0  0  0  0  0  0  0  0
   18.4854  -19.4607   11.5238 O   0  0  0  0  0  0  0  0  0  0  0  0
   19.4357  -14.7040   10.2088 C   0  0  0  0  0  0  0  0  0  0  0  0
   19.1366  -14.5426   11.5565 O   0  0  0  0  0  0  0  0  0  0  0  0
   17.5783  -19.4390    9.4475 O   0  0  0  0  0  0  0  0  0  0  0  0
   20.5728  -14.3306    9.8390 O   0  0  0  0  0  0  0  0  0  0  0  0
  2  1  1  0
  3  2  1  0
  3  5  1  0
  4  3  2  0
  6  5  1  0
  6 13  1  0
  6  7  1  1
  8  7  1  0
  8 12  1  0
  9 10  1  0
  9  8  2  0
 10 11  1  0
 11 12  2  0
 13 14  2  0
 13 15  1  0
 15 16  1  0
 16 17  1  6
 16 21  1  0
 17 18  1  0
 18 19  1  0
 19 20  2  0
 21 22  1  0
 23 19  1  0
 24 21  2  0
M  END
$$$$
