GHE.pdb
     RDKit          3D

 24 24  0  0  1  0  0  0  0  0999 V2000
   25.1624  -13.5193  -19.8682 N   0  0  0  0  0  0  0  0  0  0  0  0
   24.8610  -13.9244  -18.5275 C   0  0  0  0  0  0  0  0  0  0  0  0
   24.7006  -15.3952  -18.4105 C   0  0  0  0  0  0  0  0  0  0  0  0
   24.6284  -16.0714  -19.4719 O   0  0  0  0  0  0  0  0  0  0  0  0
   24.6353  -15.9783  -17.1335 N   0  0  0  0  0  0  0  0  0  0  0  0
   24.3972  -17.4644  -16.9996 C   0  0  1  0  0  0  0  0  0  0  0  0
   25.5929  -17.9994  -16.2833 C   0  0  0  0  0  0  0  0  0  0  0  0
   26.8117  -18.1990  -17.0727 C   0  0  0  0  0  0  0  0  0  0  0  0
   26.9019  -17.9572  -18.4691 C   0  0  0  0  0  0  0  0  0  0  0  0
   28.1395  -18.2329  -18.8877 N   0  0  0  0  0  0  0  0  0  0  0  0
   28.8541  -18.6420  -17.8255 C   0  0  0  0  0  0  0  0  0  0  0  0
   28.0460  -18.6133  -16.7632 N   0  0  0  0  0  0  0  0  0  0  0  0
   23.1279  -17.5203  -16.2516 C   0  0  0  0  0  0  0  0  0  0  0  0
   23.1941  -17.6822  -14.9717 O   0  0  0  0  0  0  0  0  0  0  0  0
   21.8154  -17.4132  -16.7519 N   0  0  0  0  0  0  0  0  0  0  0  0
   20.7232  -18.2573  -16.2516 C   0  0  1  0  0  0  0  0  0  0  0  0
   20.4476  -19.2606  -17.3429 C   0  0  0  0  0  0  0  0  0  0  0  0
   19.3054  -20.1791  -17.0860 C   0  0  0  0  0  0  0  0  0  0  0  0
   18.0745  -19.3843  -16.9231 C   0  0  0  0  0  0  0  0  0  0  0  0
   17.7041  -18.6053  -17.8191 O   0  0  0  0  0  0  0  0  0  0  0  0
   21.0618  -18.8788  -14.9743 C   0  0  0  0  0  0  0  0  0  0  0  0
   20.3548  -18.6761  -13.7951 O   0  0  0  0  0  0  0  0  0  0  0  0
   17.3279  -19.5027  -15.7729 O   0  0  0  0  0  0  0  0  0  0  0  0
   22.0483  -19.6482  -14.9105 O   0  0  0  0  0  0  0  0  0  0  0  0
  2  1  1  0
  3  2  1  0
  3  5  1  0
  4  3  2  0
  6  5  1  0
  6 13  1  0
  6  7  1  1
  8  7  1  0
  8 12  1  0
  9 10  1  0
  9  8  2  0
 10 11  1  0
 11 12  2  0
 13 14  2  0
 13 15  1  0
 15 16  1  0
 16 17  1  6
 16 21  1  0
 17 18  1  0
 18 19  1  0
 19 20  2  0
 21 22  1  0
 23 19  1  0
 24 21  2  0
M  END
$$$$
