GHE.pdb
     RDKit          3D

 24 24  0  0  1  0  0  0  0  0999 V2000
   26.4080  -11.5381  -20.6568 N   0  0  0  0  0  0  0  0  0  0  0  0
   25.9502  -10.3252  -20.0471 C   0  0  0  0  0  0  0  0  0  0  0  0
   25.3297  -10.5659  -18.7205 C   0  0  0  0  0  0  0  0  0  0  0  0
   24.3659  -11.3755  -18.6534 O   0  0  0  0  0  0  0  0  0  0  0  0
   25.8326   -9.8899  -17.5958 N   0  0  0  0  0  0  0  0  0  0  0  0
   25.1551  -10.0579  -16.2557 C   0  0  1  0  0  0  0  0  0  0  0  0
   26.2482  -10.3793  -15.2909 C   0  0  0  0  0  0  0  0  0  0  0  0
   26.8361  -11.7197  -15.3685 C   0  0  0  0  0  0  0  0  0  0  0  0
   26.4450  -12.7049  -16.3134 C   0  0  0  0  0  0  0  0  0  0  0  0
   27.1666  -13.8123  -16.1238 N   0  0  0  0  0  0  0  0  0  0  0  0
   28.0068  -13.5882  -15.0989 C   0  0  0  0  0  0  0  0  0  0  0  0
   27.7919  -12.3428  -14.6690 N   0  0  0  0  0  0  0  0  0  0  0  0
   24.4974   -8.7527  -16.0623 C   0  0  0  0  0  0  0  0  0  0  0  0
   25.1538   -7.6947  -16.4068 O   0  0  0  0  0  0  0  0  0  0  0  0
   23.2137   -8.4911  -15.5444 N   0  0  0  0  0  0  0  0  0  0  0  0
   22.6363   -7.1413  -15.5470 C   0  0  1  0  0  0  0  0  0  0  0  0
   22.6070   -6.7106  -16.9917 C   0  0  0  0  0  0  0  0  0  0  0  0
   21.6936   -7.4928  -17.8681 C   0  0  0  0  0  0  0  0  0  0  0  0
   21.2073   -6.6242  -18.9554 C   0  0  0  0  0  0  0  0  0  0  0  0
   21.2141   -5.3873  -18.8249 O   0  0  0  0  0  0  0  0  0  0  0  0
   21.3204   -7.1149  -14.9146 C   0  0  0  0  0  0  0  0  0  0  0  0
   20.6479   -5.9520  -14.5581 O   0  0  0  0  0  0  0  0  0  0  0  0
   20.7418   -7.1826  -20.1241 O   0  0  0  0  0  0  0  0  0  0  0  0
   20.7387   -8.1963  -14.6667 O   0  0  0  0  0  0  0  0  0  0  0  0
  2  1  1  0
  3  2  1  0
  3  5  1  0
  4  3  2  0
  6  5  1  0
  6 13  1  0
  6  7  1  1
  8  7  1  0
  8 12  1  0
  9 10  1  0
  9  8  2  0
 10 11  1  0
 11 12  2  0
 13 14  2  0
 13 15  1  0
 15 16  1  0
 16 17  1  6
 16 21  1  0
 17 18  1  0
 18 19  1  0
 19 20  2  0
 21 22  1  0
 23 19  1  0
 24 21  2  0
M  END
$$$$
