GHE.pdb
     RDKit          3D

 24 24  0  0  1  0  0  0  0  0999 V2000
   15.2172  -11.3554  -12.0207 N   0  0  0  0  0  0  0  0  0  0  0  0
   15.6874  -10.8351  -10.7715 C   0  0  0  0  0  0  0  0  0  0  0  0
   15.4861   -9.3684  -10.6654 C   0  0  0  0  0  0  0  0  0  0  0  0
   14.5651   -8.8441  -11.3481 O   0  0  0  0  0  0  0  0  0  0  0  0
   16.3203   -8.6216   -9.8162 N   0  0  0  0  0  0  0  0  0  0  0  0
   16.1476   -7.1233   -9.7241 C   0  0  1  0  0  0  0  0  0  0  0  0
   15.8242   -6.8439   -8.2936 C   0  0  0  0  0  0  0  0  0  0  0  0
   14.4308   -7.0232   -7.8756 C   0  0  0  0  0  0  0  0  0  0  0  0
   13.6717   -8.1972   -8.1248 C   0  0  0  0  0  0  0  0  0  0  0  0
   12.4448   -8.0473   -7.6197 N   0  0  0  0  0  0  0  0  0  0  0  0
   12.3756   -6.8296   -7.0551 C   0  0  0  0  0  0  0  0  0  0  0  0
   13.5635   -6.2431   -7.2196 N   0  0  0  0  0  0  0  0  0  0  0  0
   17.4516   -6.6201  -10.1931 C   0  0  0  0  0  0  0  0  0  0  0  0
   18.5117   -7.0624   -9.6018 O   0  0  0  0  0  0  0  0  0  0  0  0
   17.7106   -5.7019  -11.2295 N   0  0  0  0  0  0  0  0  0  0  0  0
   19.0562   -5.5224  -11.7887 C   0  0  1  0  0  0  0  0  0  0  0  0
   19.4242   -6.8481  -12.4055 C   0  0  0  0  0  0  0  0  0  0  0  0
   20.7320   -6.8762  -13.1148 C   0  0  0  0  0  0  0  0  0  0  0  0
   20.9948   -8.2474  -13.5878 C   0  0  0  0  0  0  0  0  0  0  0  0
   21.4168   -8.4464  -14.7408 O   0  0  0  0  0  0  0  0  0  0  0  0
   19.1031   -4.4154  -12.7398 C   0  0  0  0  0  0  0  0  0  0  0  0
   20.2550   -3.7043  -13.0549 O   0  0  0  0  0  0  0  0  0  0  0  0
   20.7727   -9.3170  -12.7505 O   0  0  0  0  0  0  0  0  0  0  0  0
   18.0514   -4.0644  -13.3229 O   0  0  0  0  0  0  0  0  0  0  0  0
  2  1  1  0
  3  2  1  0
  3  5  1  0
  4  3  2  0
  6  5  1  0
  6 13  1  0
  6  7  1  1
  8  7  1  0
  8 12  1  0
  9 10  1  0
  9  8  2  0
 10 11  1  0
 11 12  2  0
 13 14  2  0
 13 15  1  0
 15 16  1  0
 16 17  1  6
 16 21  1  0
 17 18  1  0
 18 19  1  0
 19 20  2  0
 21 22  1  0
 23 19  1  0
 24 21  2  0
M  END
$$$$
