GHE.pdb
     RDKit          3D

 24 24  0  0  1  0  0  0  0  0999 V2000
   19.9836  -18.0716  -16.5618 N   0  0  0  0  0  0  0  0  0  0  0  0
   20.5153  -19.1862  -15.8354 C   0  0  0  0  0  0  0  0  0  0  0  0
   21.9288  -18.9712  -15.4374 C   0  0  0  0  0  0  0  0  0  0  0  0
   22.4637  -17.8649  -15.7186 O   0  0  0  0  0  0  0  0  0  0  0  0
   22.6161  -19.9976  -14.7673 N   0  0  0  0  0  0  0  0  0  0  0  0
   24.0646  -19.8034  -14.3837 C   0  0  1  0  0  0  0  0  0  0  0  0
   24.2525  -20.5773  -13.1208 C   0  0  0  0  0  0  0  0  0  0  0  0
   25.6265  -20.7507  -12.6408 C   0  0  0  0  0  0  0  0  0  0  0  0
   26.7588  -20.1316  -13.2333 C   0  0  0  0  0  0  0  0  0  0  0  0
   27.8590  -20.4881  -12.5659 N   0  0  0  0  0  0  0  0  0  0  0  0
   27.4898  -21.3096  -11.5683 C   0  0  0  0  0  0  0  0  0  0  0  0
   26.1638  -21.4495  -11.6337 N   0  0  0  0  0  0  0  0  0  0  0  0
   24.7816  -20.3227  -15.5625 C   0  0  0  0  0  0  0  0  0  0  0  0
   24.2533  -21.3184  -16.1938 O   0  0  0  0  0  0  0  0  0  0  0  0
   25.9948  -19.8681  -16.1156 N   0  0  0  0  0  0  0  0  0  0  0  0
   26.5367  -20.4256  -17.3610 C   0  0  1  0  0  0  0  0  0  0  0  0
   27.4228  -19.3516  -17.9397 C   0  0  0  0  0  0  0  0  0  0  0  0
   26.9604  -18.7761  -19.2317 C   0  0  0  0  0  0  0  0  0  0  0  0
   27.9325  -17.7645  -19.6845 C   0  0  0  0  0  0  0  0  0  0  0  0
   28.1128  -16.7247  -19.0263 O   0  0  0  0  0  0  0  0  0  0  0  0
   27.2393  -21.6845  -17.1291 C   0  0  0  0  0  0  0  0  0  0  0  0
   27.5045  -22.6249  -18.1175 O   0  0  0  0  0  0  0  0  0  0  0  0
   28.6470  -17.9691  -20.8430 O   0  0  0  0  0  0  0  0  0  0  0  0
   27.6392  -21.9584  -15.9740 O   0  0  0  0  0  0  0  0  0  0  0  0
  2  1  1  0
  3  2  1  0
  3  5  1  0
  4  3  2  0
  6  5  1  0
  6 13  1  0
  6  7  1  1
  8  7  1  0
  8 12  1  0
  9 10  1  0
  9  8  2  0
 10 11  1  0
 11 12  2  0
 13 14  2  0
 13 15  1  0
 15 16  1  0
 16 17  1  1
 16 21  1  0
 17 18  1  0
 18 19  1  0
 19 20  2  0
 21 22  1  0
 23 19  1  0
 24 21  2  0
M  END
$$$$
