GHE.pdb
     RDKit          3D

 24 24  0  0  1  0  0  0  0  0999 V2000
   24.6378  -25.5746  -14.7532 N   0  0  0  0  0  0  0  0  0  0  0  0
   25.3776  -24.3478  -14.7346 C   0  0  0  0  0  0  0  0  0  0  0  0
   24.6697  -23.2794  -13.9861 C   0  0  0  0  0  0  0  0  0  0  0  0
   23.5931  -23.5767  -13.4016 O   0  0  0  0  0  0  0  0  0  0  0  0
   25.2179  -21.9858  -13.9547 N   0  0  0  0  0  0  0  0  0  0  0  0
   24.5111  -20.8907  -13.1905 C   0  0  1  0  0  0  0  0  0  0  0  0
   25.5772  -20.1905  -12.4145 C   0  0  0  0  0  0  0  0  0  0  0  0
   25.5747  -20.3724  -10.9600 C   0  0  0  0  0  0  0  0  0  0  0  0
   24.5513  -21.0504  -10.2462 C   0  0  0  0  0  0  0  0  0  0  0  0
   24.8417  -21.0453   -8.9430 N   0  0  0  0  0  0  0  0  0  0  0  0
   26.0066  -20.3947   -8.7812 C   0  0  0  0  0  0  0  0  0  0  0  0
   26.4203  -20.0062   -9.9895 N   0  0  0  0  0  0  0  0  0  0  0  0
   23.8832  -20.1020  -14.2661 C   0  0  0  0  0  0  0  0  0  0  0  0
   24.6399  -19.6981  -15.2321 O   0  0  0  0  0  0  0  0  0  0  0  0
   22.5330  -19.7209  -14.3939 N   0  0  0  0  0  0  0  0  0  0  0  0
   22.0094  -19.1218  -15.6277 C   0  0  1  0  0  0  0  0  0  0  0  0
   21.2764  -20.2289  -16.3422 C   0  0  0  0  0  0  0  0  0  0  0  0
   20.6205  -19.8346  -17.6184 C   0  0  0  0  0  0  0  0  0  0  0  0
   19.9211  -21.0033  -18.1824 C   0  0  0  0  0  0  0  0  0  0  0  0
   19.8619  -22.0701  -17.5457 O   0  0  0  0  0  0  0  0  0  0  0  0
   21.1660  -17.9624  -15.3502 C   0  0  0  0  0  0  0  0  0  0  0  0
   20.9894  -16.8973  -16.2254 O   0  0  0  0  0  0  0  0  0  0  0  0
   19.3286  -20.9167  -19.4217 O   0  0  0  0  0  0  0  0  0  0  0  0
   20.5514  -17.8995  -14.2605 O   0  0  0  0  0  0  0  0  0  0  0  0
  2  1  1  0
  3  2  1  0
  3  5  1  0
  4  3  2  0
  6  5  1  0
  6 13  1  0
  6  7  1  6
  8  7  1  0
  8 12  1  0
  9 10  1  0
  9  8  2  0
 10 11  1  0
 11 12  2  0
 13 14  2  0
 13 15  1  0
 15 16  1  0
 16 17  1  1
 16 21  1  0
 17 18  1  0
 18 19  1  0
 19 20  2  0
 21 22  1  0
 23 19  1  0
 24 21  2  0
M  END
$$$$
