GHE.pdb
     RDKit          3D

 24 24  0  0  1  0  0  0  0  0999 V2000
   20.8153  -15.0400  -17.5597 N   0  0  0  0  0  0  0  0  0  0  0  0
   21.0906  -13.7633  -18.1487 C   0  0  0  0  0  0  0  0  0  0  0  0
   22.2080  -13.0628  -17.4680 C   0  0  0  0  0  0  0  0  0  0  0  0
   22.6473  -13.5503  -16.3917 O   0  0  0  0  0  0  0  0  0  0  0  0
   22.7332  -11.8918  -18.0406 N   0  0  0  0  0  0  0  0  0  0  0  0
   23.8511  -11.1526  -17.3427 C   0  0  1  0  0  0  0  0  0  0  0  0
   25.0965  -11.5204  -18.0794 C   0  0  0  0  0  0  0  0  0  0  0  0
   26.3241  -11.6591  -17.2905 C   0  0  0  0  0  0  0  0  0  0  0  0
   26.4008  -11.4214  -15.8926 C   0  0  0  0  0  0  0  0  0  0  0  0
   27.6511  -11.6336  -15.4748 N   0  0  0  0  0  0  0  0  0  0  0  0
   28.3869  -11.9977  -16.5390 C   0  0  0  0  0  0  0  0  0  0  0  0
   27.5788  -12.0054  -17.6016 N   0  0  0  0  0  0  0  0  0  0  0  0
   23.4306   -9.7449  -17.4643 C   0  0  0  0  0  0  0  0  0  0  0  0
   22.9200   -9.3677  -18.5895 O   0  0  0  0  0  0  0  0  0  0  0  0
   23.5049   -8.7255  -16.4948 N   0  0  0  0  0  0  0  0  0  0  0  0
   23.1166   -7.3414  -16.7930 C   0  0  1  0  0  0  0  0  0  0  0  0
   22.8147   -6.7040  -15.4603 C   0  0  0  0  0  0  0  0  0  0  0  0
   22.4779   -5.2555  -15.5121 C   0  0  0  0  0  0  0  0  0  0  0  0
   22.1615   -4.7850  -14.1514 C   0  0  0  0  0  0  0  0  0  0  0  0
   22.2064   -5.5691  -13.1869 O   0  0  0  0  0  0  0  0  0  0  0  0
   24.1541   -6.6383  -17.5423 C   0  0  0  0  0  0  0  0  0  0  0  0
   25.5179   -6.8023  -17.3306 O   0  0  0  0  0  0  0  0  0  0  0  0
   21.8137   -3.4696  -13.9432 O   0  0  0  0  0  0  0  0  0  0  0  0
   23.8200   -5.8298  -18.4390 O   0  0  0  0  0  0  0  0  0  0  0  0
  2  1  1  0
  3  2  1  0
  3  5  1  0
  4  3  2  0
  6  5  1  0
  6 13  1  0
  6  7  1  6
  8  7  1  0
  8 12  1  0
  9 10  1  0
  9  8  2  0
 10 11  1  0
 11 12  2  0
 13 14  2  0
 13 15  1  0
 15 16  1  0
 16 17  1  1
 16 21  1  0
 17 18  1  0
 18 19  1  0
 19 20  2  0
 21 22  1  0
 23 19  1  0
 24 21  2  0
M  END
$$$$
