GHE.pdb
     RDKit          3D

 24 24  0  0  1  0  0  0  0  0999 V2000
   28.2606  -12.3467  -15.7200 N   0  0  0  0  0  0  0  0  0  0  0  0
   26.9852  -12.9208  -16.0298 C   0  0  0  0  0  0  0  0  0  0  0  0
   26.1060  -11.9710  -16.7562 C   0  0  0  0  0  0  0  0  0  0  0  0
   26.5358  -10.8045  -16.9652 O   0  0  0  0  0  0  0  0  0  0  0  0
   24.8373  -12.3998  -17.1820 N   0  0  0  0  0  0  0  0  0  0  0  0
   23.9541  -11.4603  -17.9698 C   0  0  1  0  0  0  0  0  0  0  0  0
   23.0390  -12.3371  -18.7591 C   0  0  0  0  0  0  0  0  0  0  0  0
   21.9938  -11.6765  -19.5462 C   0  0  0  0  0  0  0  0  0  0  0  0
   21.7867  -10.2719  -19.5712 C   0  0  0  0  0  0  0  0  0  0  0  0
   20.7628   -9.9890  -20.3803 N   0  0  0  0  0  0  0  0  0  0  0  0
   20.2980  -11.1470  -20.8798 C   0  0  0  0  0  0  0  0  0  0  0  0
   21.0431  -12.1311  -20.3712 N   0  0  0  0  0  0  0  0  0  0  0  0
   23.3134  -10.6585  -16.9115 C   0  0  0  0  0  0  0  0  0  0  0  0
   23.0251  -11.2533  -15.8015 O   0  0  0  0  0  0  0  0  0  0  0  0
   22.9665   -9.2935  -16.9408 N   0  0  0  0  0  0  0  0  0  0  0  0
   22.3594   -8.6223  -15.7848 C   0  0  1  0  0  0  0  0  0  0  0  0
   22.8938   -7.2125  -15.8018 C   0  0  0  0  0  0  0  0  0  0  0  0
   22.3237   -6.3059  -14.7687 C   0  0  0  0  0  0  0  0  0  0  0  0
   22.8625   -4.9483  -14.9681 C   0  0  0  0  0  0  0  0  0  0  0  0
   23.7053   -4.7288  -15.8561 O   0  0  0  0  0  0  0  0  0  0  0  0
   20.9010   -8.6827  -15.8291 C   0  0  0  0  0  0  0  0  0  0  0  0
   20.1618   -8.8722  -16.9906 O   0  0  0  0  0  0  0  0  0  0  0  0
   22.4322   -3.9144  -14.1678 O   0  0  0  0  0  0  0  0  0  0  0  0
   20.2508   -8.5585  -14.7656 O   0  0  0  0  0  0  0  0  0  0  0  0
  2  1  1  0
  3  2  1  0
  3  5  1  0
  4  3  2  0
  6  5  1  0
  6 13  1  0
  6  7  1  1
  8  7  1  0
  8 12  1  0
  9 10  1  0
  9  8  2  0
 10 11  1  0
 11 12  2  0
 13 14  2  0
 13 15  1  0
 15 16  1  0
 16 17  1  6
 16 21  1  0
 17 18  1  0
 18 19  1  0
 19 20  2  0
 21 22  1  0
 23 19  1  0
 24 21  2  0
M  END
$$$$
