GHE.pdb
     RDKit          3D

 24 24  0  0  1  0  0  0  0  0999 V2000
   24.2555  -11.6452  -20.6135 N   0  0  0  0  0  0  0  0  0  0  0  0
   24.1957  -10.3090  -20.1004 C   0  0  0  0  0  0  0  0  0  0  0  0
   23.8242  -10.2777  -18.6638 C   0  0  0  0  0  0  0  0  0  0  0  0
   22.8873  -11.0266  -18.2759 O   0  0  0  0  0  0  0  0  0  0  0  0
   24.5224   -9.4232  -17.7936 N   0  0  0  0  0  0  0  0  0  0  0  0
   24.1433   -9.3696  -16.3319 C   0  0  1  0  0  0  0  0  0  0  0  0
   25.4227   -9.5304  -15.5794 C   0  0  0  0  0  0  0  0  0  0  0  0
   26.0090  -10.8731  -15.5361 C   0  0  0  0  0  0  0  0  0  0  0  0
   25.5098  -11.9817  -16.2698 C   0  0  0  0  0  0  0  0  0  0  0  0
   26.2607  -13.0561  -16.0154 N   0  0  0  0  0  0  0  0  0  0  0  0
   27.2230  -12.6930  -15.1503 C   0  0  0  0  0  0  0  0  0  0  0  0
   27.0527  -11.3964  -14.8819 N   0  0  0  0  0  0  0  0  0  0  0  0
   23.4968   -8.0497  -16.2158 C   0  0  0  0  0  0  0  0  0  0  0  0
   24.0601   -7.0527  -16.8138 O   0  0  0  0  0  0  0  0  0  0  0  0
   22.3135   -7.7156  -15.5284 N   0  0  0  0  0  0  0  0  0  0  0  0
   21.8215   -6.3342  -15.4569 C   0  0  1  0  0  0  0  0  0  0  0  0
   20.3548   -6.4029  -15.7999 C   0  0  0  0  0  0  0  0  0  0  0  0
   19.6273   -5.1064  -15.7362 C   0  0  0  0  0  0  0  0  0  0  0  0
   18.2076   -5.3335  -16.0614 C   0  0  0  0  0  0  0  0  0  0  0  0
   17.8874   -6.1123  -16.9768 O   0  0  0  0  0  0  0  0  0  0  0  0
   22.0765   -5.7364  -14.1492 C   0  0  0  0  0  0  0  0  0  0  0  0
   22.2276   -4.3724  -13.9297 O   0  0  0  0  0  0  0  0  0  0  0  0
   17.2271   -4.6809  -15.3491 O   0  0  0  0  0  0  0  0  0  0  0  0
   22.1695   -6.4789  -13.1446 O   0  0  0  0  0  0  0  0  0  0  0  0
  2  1  1  0
  3  2  1  0
  3  5  1  0
  4  3  2  0
  6  5  1  0
  6 13  1  0
  6  7  1  1
  8  7  1  0
  8 12  1  0
  9 10  1  0
  9  8  2  0
 10 11  1  0
 11 12  2  0
 13 14  2  0
 13 15  1  0
 15 16  1  0
 16 17  1  1
 16 21  1  0
 17 18  1  0
 18 19  1  0
 19 20  2  0
 21 22  1  0
 23 19  1  0
 24 21  2  0
M  END
$$$$
