GHE.pdb
     RDKit          3D

 24 24  0  0  1  0  0  0  0  0999 V2000
   28.4600  -22.7013  -16.8013 N   0  0  0  0  0  0  0  0  0  0  0  0
   27.6821  -21.8207  -17.6211 C   0  0  0  0  0  0  0  0  0  0  0  0
   27.3917  -20.5341  -16.9406 C   0  0  0  0  0  0  0  0  0  0  0  0
   27.7333  -20.4099  -15.7336 O   0  0  0  0  0  0  0  0  0  0  0  0
   26.7524  -19.5084  -17.6576 N   0  0  0  0  0  0  0  0  0  0  0  0
   26.3552  -18.2341  -16.9493 C   0  0  1  0  0  0  0  0  0  0  0  0
   26.8270  -17.1230  -17.8278 C   0  0  0  0  0  0  0  0  0  0  0  0
   28.2562  -16.7998  -17.7881 C   0  0  0  0  0  0  0  0  0  0  0  0
   29.1946  -17.4514  -16.9448 C   0  0  0  0  0  0  0  0  0  0  0  0
   30.4075  -16.9303  -17.1454 N   0  0  0  0  0  0  0  0  0  0  0  0
   30.2964  -15.9711  -18.0802 C   0  0  0  0  0  0  0  0  0  0  0  0
   29.0135  -15.9130  -18.4448 N   0  0  0  0  0  0  0  0  0  0  0  0
   24.8926  -18.3754  -16.8300 C   0  0  0  0  0  0  0  0  0  0  0  0
   24.2616  -18.9220  -17.8159 O   0  0  0  0  0  0  0  0  0  0  0  0
   24.0639  -17.9913  -15.7575 N   0  0  0  0  0  0  0  0  0  0  0  0
   22.6024  -18.1141  -15.8238 C   0  0  1  0  0  0  0  0  0  0  0  0
   22.1635  -18.5390  -14.4453 C   0  0  0  0  0  0  0  0  0  0  0  0
   20.6932  -18.6750  -14.2618 C   0  0  0  0  0  0  0  0  0  0  0  0
   20.2891  -20.0499  -14.6073 C   0  0  0  0  0  0  0  0  0  0  0  0
   21.0819  -20.9965  -14.4569 O   0  0  0  0  0  0  0  0  0  0  0  0
   21.9751  -16.8722  -16.2672 C   0  0  0  0  0  0  0  0  0  0  0  0
   22.6167  -15.6397  -16.2960 O   0  0  0  0  0  0  0  0  0  0  0  0
   19.0268  -20.2913  -15.1000 O   0  0  0  0  0  0  0  0  0  0  0  0
   20.7829  -16.8919  -16.6513 O   0  0  0  0  0  0  0  0  0  0  0  0
  2  1  1  0
  3  2  1  0
  3  5  1  0
  4  3  2  0
  6  5  1  0
  6 13  1  0
  6  7  1  6
  8  7  1  0
  8 12  1  0
  9 10  1  0
  9  8  2  0
 10 11  1  0
 11 12  2  0
 13 14  2  0
 13 15  1  0
 15 16  1  0
 16 17  1  1
 16 21  1  0
 17 18  1  0
 18 19  1  0
 19 20  2  0
 21 22  1  0
 23 19  1  0
 24 21  2  0
M  END
$$$$
