GHE.pdb
     RDKit          3D

 24 24  0  0  1  0  0  0  0  0999 V2000
   25.2534  -35.3834   -0.7426 N   0  0  0  0  0  0  0  0  0  0  0  0
   26.3845  -34.5509   -0.4599 C   0  0  0  0  0  0  0  0  0  0  0  0
   27.6594  -35.1723   -0.8974 C   0  0  0  0  0  0  0  0  0  0  0  0
   27.6397  -36.3815   -1.2530 O   0  0  0  0  0  0  0  0  0  0  0  0
   28.8332  -34.3996   -0.9002 N   0  0  0  0  0  0  0  0  0  0  0  0
   30.1215  -34.9957   -1.4178 C   0  0  1  0  0  0  0  0  0  0  0  0
   30.4295  -34.2541   -2.6764 C   0  0  0  0  0  0  0  0  0  0  0  0
   29.5251  -34.4585   -3.8116 C   0  0  0  0  0  0  0  0  0  0  0  0
   28.4492  -35.3853   -3.8130 C   0  0  0  0  0  0  0  0  0  0  0  0
   27.8193  -35.3316   -4.9891 N   0  0  0  0  0  0  0  0  0  0  0  0
   28.4389  -34.4123   -5.7488 C   0  0  0  0  0  0  0  0  0  0  0  0
   29.4451  -33.9097   -5.0296 N   0  0  0  0  0  0  0  0  0  0  0  0
   31.0537  -34.7673   -0.2987 C   0  0  0  0  0  0  0  0  0  0  0  0
   30.8666  -33.7181    0.4315 O   0  0  0  0  0  0  0  0  0  0  0  0
   32.1484  -35.5592    0.1001 N   0  0  0  0  0  0  0  0  0  0  0  0
   32.9328  -35.2497    1.3019 C   0  0  1  0  0  0  0  0  0  0  0  0
   33.1176  -33.7533    1.2969 C   0  0  0  0  0  0  0  0  0  0  0  0
   33.9285  -33.2108    2.4205 C   0  0  0  0  0  0  0  0  0  0  0  0
   33.9633  -31.7402    2.3240 C   0  0  0  0  0  0  0  0  0  0  0  0
   33.5942  -31.1679    1.2833 O   0  0  0  0  0  0  0  0  0  0  0  0
   32.2833  -35.7426    2.5133 C   0  0  0  0  0  0  0  0  0  0  0  0
   32.9650  -36.2213    3.6258 O   0  0  0  0  0  0  0  0  0  0  0  0
   34.4069  -30.9925    3.3911 O   0  0  0  0  0  0  0  0  0  0  0  0
   31.0323  -35.7448    2.5794 O   0  0  0  0  0  0  0  0  0  0  0  0
  2  1  1  0
  3  2  1  0
  3  5  1  0
  4  3  2  0
  6  5  1  0
  6 13  1  0
  6  7  1  6
  8  7  1  0
  8 12  1  0
  9 10  1  0
  9  8  2  0
 10 11  1  0
 11 12  2  0
 13 14  2  0
 13 15  1  0
 15 16  1  0
 16 17  1  1
 16 21  1  0
 17 18  1  0
 18 19  1  0
 19 20  2  0
 21 22  1  0
 23 19  1  0
 24 21  2  0
M  END
$$$$
