LSS.pdb
     RDKit          3D

 21 20  0  0  1  0  0  0  0  0999 V2000
    8.4695  -13.3870   16.8193 C   0  0  0  0  0  0  0  0  0  0  0  0
    7.3912  -13.8309   17.7900 C   0  0  2  0  0  0  0  0  0  0  0  0
    7.1227  -12.7890   18.8421 C   0  0  0  0  0  0  0  0  0  0  0  0
    7.8557  -15.1457   18.3993 C   0  0  0  0  0  0  0  0  0  0  0  0
    7.9603  -16.1404   17.2792 C   0  0  2  0  0  0  0  0  0  0  0  0
    6.6398  -16.3183   16.7036 N   0  0  0  0  0  0  0  0  0  0  0  0
    8.5139  -17.4408   17.6943 C   0  0  0  0  0  0  0  0  0  0  0  0
    7.9402  -18.1101   18.5929 O   0  0  0  0  0  0  0  0  0  0  0  0
   12.1903  -19.0328   16.1551 O   0  0  0  0  0  0  0  0  0  0  0  0
   11.1760  -19.8876   16.5630 C   0  0  0  0  0  0  0  0  0  0  0  0
   10.2709  -19.2460   17.5940 C   0  0  2  0  0  0  0  0  0  0  0  0
    9.6944  -18.0164   17.1316 N   0  0  0  0  0  0  0  0  0  0  0  0
   11.0611  -19.0904   18.8357 C   0  0  0  0  0  0  0  0  0  0  0  0
   11.6635  -18.0511   19.1807 O   0  0  0  0  0  0  0  0  0  0  0  0
   10.2857  -21.7562   21.7978 O   0  0  0  0  0  0  0  0  0  0  0  0
   10.9603  -20.6000   22.1060 C   0  0  0  0  0  0  0  0  0  0  0  0
   11.8818  -20.1627   20.9610 C   0  0  2  0  0  0  0  0  0  0  0  0
   11.1369  -20.2170   19.7010 N   0  0  0  0  0  0  0  0  0  0  0  0
   13.0423  -21.0682   20.8849 C   0  0  0  0  0  0  0  0  0  0  0  0
   13.9836  -21.0848   21.8879 O   0  0  0  0  0  0  0  0  0  0  0  0
   13.1737  -21.8256   19.9049 O   0  0  0  0  0  0  0  0  0  0  0  0
  2  1  1  6
  3  2  1  0
  4  2  1  0
  4  5  1  0
  5  6  1  1
  7  5  1  0
  8  7  2  0
 10  9  1  0
 11 10  1  6
 11 12  1  0
 11 13  1  0
 12  7  1  0
 13 18  1  0
 14 13  2  0
 16 15  1  0
 17 16  1  1
 17 19  1  0
 18 17  1  0
 19 21  2  0
 19 20  1  0
M  END
$$$$
