LSS.pdb
     RDKit          3D

 21 20  0  0  1  0  0  0  0  0999 V2000
    6.9855  -17.6461   15.1538 C   0  0  0  0  0  0  0  0  0  0  0  0
    8.1286  -18.5801   15.5047 C   0  0  2  0  0  0  0  0  0  0  0  0
    7.7183  -20.0250   15.4128 C   0  0  0  0  0  0  0  0  0  0  0  0
    8.5906  -18.2098   16.9065 C   0  0  0  0  0  0  0  0  0  0  0  0
    8.9578  -16.7538   16.8817 C   0  0  2  0  0  0  0  0  0  0  0  0
   10.1286  -16.5939   16.0389 N   0  0  0  0  0  0  0  0  0  0  0  0
    9.2106  -16.1858   18.2171 C   0  0  0  0  0  0  0  0  0  0  0  0
   10.3592  -16.2641   18.7262 O   0  0  0  0  0  0  0  0  0  0  0  0
    6.1737  -15.3982   21.1636 O   0  0  0  0  0  0  0  0  0  0  0  0
    7.1925  -14.4764   20.9689 C   0  0  0  0  0  0  0  0  0  0  0  0
    8.4247  -15.1100   20.3574 C   0  0  2  0  0  0  0  0  0  0  0  0
    8.2127  -15.5306   19.0023 N   0  0  0  0  0  0  0  0  0  0  0  0
    8.8418  -16.2121   21.2529 C   0  0  0  0  0  0  0  0  0  0  0  0
    8.7390  -17.4301   20.9923 O   0  0  0  0  0  0  0  0  0  0  0  0
   12.4280  -17.8113   23.1581 O   0  0  0  0  0  0  0  0  0  0  0  0
   11.5807  -16.9552   22.4978 C   0  0  0  0  0  0  0  0  0  0  0  0
   10.2604  -16.7725   23.2563 C   0  0  2  0  0  0  0  0  0  0  0  0
    9.4037  -15.8495   22.5085 N   0  0  0  0  0  0  0  0  0  0  0  0
   10.5301  -16.2175   24.5947 C   0  0  0  0  0  0  0  0  0  0  0  0
   11.1669  -16.9743   25.5507 O   0  0  0  0  0  0  0  0  0  0  0  0
   10.1792  -15.0532   24.8646 O   0  0  0  0  0  0  0  0  0  0  0  0
  2  1  1  1
  3  2  1  0
  4  2  1  0
  4  5  1  0
  5  6  1  6
  7  5  1  0
  8  7  2  0
 10  9  1  0
 11 10  1  1
 11 12  1  0
 11 13  1  0
 12  7  1  0
 13 18  1  0
 14 13  2  0
 16 15  1  0
 17 16  1  6
 17 19  1  0
 18 17  1  0
 19 21  2  0
 19 20  1  0
M  END
$$$$
