LSS.pdb
     RDKit          3D

 21 20  0  0  1  0  0  0  0  0999 V2000
    5.9689  -11.8878   25.0231 C   0  0  0  0  0  0  0  0  0  0  0  0
    6.2380  -12.5721   26.3503 C   0  0  2  0  0  0  0  0  0  0  0  0
    6.7090  -11.5979   27.3962 C   0  0  0  0  0  0  0  0  0  0  0  0
    7.2658  -13.6631   26.0875 C   0  0  0  0  0  0  0  0  0  0  0  0
    6.6406  -14.6400   25.1336 C   0  0  2  0  0  0  0  0  0  0  0  0
    5.5741  -15.3365   25.8292 N   0  0  0  0  0  0  0  0  0  0  0  0
    7.5968  -15.6077   24.5687 C   0  0  0  0  0  0  0  0  0  0  0  0
    7.9819  -16.5870   25.2595 O   0  0  0  0  0  0  0  0  0  0  0  0
    9.4400  -14.7864   20.9701 O   0  0  0  0  0  0  0  0  0  0  0  0
    9.4710  -16.1370   21.2876 C   0  0  0  0  0  0  0  0  0  0  0  0
    9.1576  -16.3859   22.7483 C   0  0  2  0  0  0  0  0  0  0  0  0
    8.1365  -15.5116   23.2492 N   0  0  0  0  0  0  0  0  0  0  0  0
   10.4319  -16.2839   23.4941 C   0  0  0  0  0  0  0  0  0  0  0  0
   11.0011  -15.2155   23.8049 O   0  0  0  0  0  0  0  0  0  0  0  0
   11.4576  -19.6403   25.2559 O   0  0  0  0  0  0  0  0  0  0  0  0
   12.3692  -18.6657   25.5816 C   0  0  0  0  0  0  0  0  0  0  0  0
   12.3480  -17.5134   24.5698 C   0  0  2  0  0  0  0  0  0  0  0  0
   11.0531  -17.5024   23.8855 N   0  0  0  0  0  0  0  0  0  0  0  0
   13.4247  -17.7018   23.5810 C   0  0  0  0  0  0  0  0  0  0  0  0
   13.1282  -17.8869   22.2506 O   0  0  0  0  0  0  0  0  0  0  0  0
   14.6139  -17.6935   23.9512 O   0  0  0  0  0  0  0  0  0  0  0  0
  2  1  1  6
  3  2  1  0
  4  2  1  0
  4  5  1  0
  5  6  1  1
  7  5  1  0
  8  7  2  0
 10  9  1  0
 11 10  1  6
 11 12  1  0
 11 13  1  0
 12  7  1  0
 13 18  1  0
 14 13  2  0
 16 15  1  0
 17 16  1  1
 17 19  1  0
 18 17  1  0
 19 21  2  0
 19 20  1  0
M  END
$$$$
