LSS.pdb
     RDKit          3D

 21 20  0  0  1  0  0  0  0  0999 V2000
    9.3627  -13.8566   19.5807 C   0  0  0  0  0  0  0  0  0  0  0  0
    7.8665  -13.6517   19.4341 C   0  0  2  0  0  0  0  0  0  0  0  0
    7.5355  -12.2581   18.9728 C   0  0  0  0  0  0  0  0  0  0  0  0
    7.2405  -13.9656   20.7851 C   0  0  0  0  0  0  0  0  0  0  0  0
    7.5538  -15.4012   21.0956 C   0  0  2  0  0  0  0  0  0  0  0  0
    6.7126  -16.2411   20.2629 N   0  0  0  0  0  0  0  0  0  0  0  0
    7.3752  -15.7506   22.5154 C   0  0  0  0  0  0  0  0  0  0  0  0
    6.2595  -15.5733   23.0708 O   0  0  0  0  0  0  0  0  0  0  0  0
    9.3199  -18.6347   24.8635 O   0  0  0  0  0  0  0  0  0  0  0  0
    8.1724  -17.9139   25.1626 C   0  0  0  0  0  0  0  0  0  0  0  0
    8.2906  -16.4601   24.7547 C   0  0  2  0  0  0  0  0  0  0  0  0
    8.4116  -16.2946   23.3348 N   0  0  0  0  0  0  0  0  0  0  0  0
    9.4259  -15.8835   25.5091 C   0  0  0  0  0  0  0  0  0  0  0  0
   10.6115  -15.8534   25.1150 O   0  0  0  0  0  0  0  0  0  0  0  0
    8.4265  -13.6196   28.7879 O   0  0  0  0  0  0  0  0  0  0  0  0
    9.6919  -13.4683   28.2751 C   0  0  0  0  0  0  0  0  0  0  0  0
   10.1968  -14.7642   27.6288 C   0  0  2  0  0  0  0  0  0  0  0  0
    9.1379  -15.3204   26.7834 N   0  0  0  0  0  0  0  0  0  0  0  0
   10.5495  -15.7371   28.6783 C   0  0  0  0  0  0  0  0  0  0  0  0
   11.5972  -15.4925   29.5355 O   0  0  0  0  0  0  0  0  0  0  0  0
    9.8945  -16.7904   28.7917 O   0  0  0  0  0  0  0  0  0  0  0  0
  2  1  1  1
  3  2  1  0
  4  2  1  0
  4  5  1  0
  5  6  1  6
  7  5  1  0
  8  7  2  0
 10  9  1  0
 11 10  1  6
 11 12  1  0
 11 13  1  0
 12  7  1  0
 13 18  1  0
 14 13  2  0
 16 15  1  0
 17 16  1  1
 17 19  1  0
 18 17  1  0
 19 21  2  0
 19 20  1  0
M  END
$$$$
