LSS.pdb
     RDKit          3D

 21 20  0  0  1  0  0  0  0  0999 V2000
    6.6119  -12.1469   24.7379 C   0  0  0  0  0  0  0  0  0  0  0  0
    6.5243  -12.7960   26.1065 C   0  0  2  0  0  0  0  0  0  0  0  0
    6.7812  -11.8074   27.2116 C   0  0  0  0  0  0  0  0  0  0  0  0
    7.5299  -13.9380   26.1219 C   0  0  0  0  0  0  0  0  0  0  0  0
    7.0074  -15.0008   25.1984 C   0  0  2  0  0  0  0  0  0  0  0  0
    5.7985  -15.5549   25.7798 N   0  0  0  0  0  0  0  0  0  0  0  0
    7.9784  -16.0740   24.9241 C   0  0  0  0  0  0  0  0  0  0  0  0
    8.1517  -16.9947   25.7649 O   0  0  0  0  0  0  0  0  0  0  0  0
   10.9970  -15.8885   21.8750 O   0  0  0  0  0  0  0  0  0  0  0  0
   10.3423  -17.0898   22.1077 C   0  0  0  0  0  0  0  0  0  0  0  0
    9.7561  -17.1579   23.5025 C   0  0  2  0  0  0  0  0  0  0  0  0
    8.7638  -16.1477   23.7328 N   0  0  0  0  0  0  0  0  0  0  0  0
   10.8856  -17.0957   24.4569 C   0  0  0  0  0  0  0  0  0  0  0  0
   11.4340  -16.0462   24.8566 O   0  0  0  0  0  0  0  0  0  0  0  0
   11.2379  -20.0163   27.1761 O   0  0  0  0  0  0  0  0  0  0  0  0
   11.9287  -18.8336   27.2814 C   0  0  0  0  0  0  0  0  0  0  0  0
   12.4792  -18.3796   25.9240 C   0  0  2  0  0  0  0  0  0  0  0  0
   11.3819  -18.3324   24.9551 N   0  0  0  0  0  0  0  0  0  0  0  0
   13.5034  -19.3326   25.4603 C   0  0  0  0  0  0  0  0  0  0  0  0
   13.3336  -20.0247   24.2837 O   0  0  0  0  0  0  0  0  0  0  0  0
   14.5324  -19.5144   26.1382 O   0  0  0  0  0  0  0  0  0  0  0  0
  2  1  1  6
  3  2  1  0
  4  2  1  0
  4  5  1  0
  5  6  1  1
  7  5  1  0
  8  7  2  0
 10  9  1  0
 11 10  1  6
 11 12  1  0
 11 13  1  0
 12  7  1  0
 13 18  1  0
 14 13  2  0
 16 15  1  0
 17 16  1  1
 17 19  1  0
 18 17  1  0
 19 21  2  0
 19 20  1  0
M  END
$$$$
