LSS.pdb
     RDKit          3D

 21 20  0  0  1  0  0  0  0  0999 V2000
    9.4634  -12.5812   19.3883 C   0  0  0  0  0  0  0  0  0  0  0  0
    8.2399  -13.4629   19.2218 C   0  0  2  0  0  0  0  0  0  0  0  0
    7.0723  -12.6984   18.6588 C   0  0  0  0  0  0  0  0  0  0  0  0
    7.9263  -14.0508   20.5899 C   0  0  0  0  0  0  0  0  0  0  0  0
    9.1890  -14.6839   21.0999 C   0  0  2  0  0  0  0  0  0  0  0  0
    9.4838  -15.8407   20.2745 N   0  0  0  0  0  0  0  0  0  0  0  0
    9.1222  -15.0747   22.5186 C   0  0  0  0  0  0  0  0  0  0  0  0
    8.5702  -14.3128   23.3550 O   0  0  0  0  0  0  0  0  0  0  0  0
   11.2889  -18.3496   24.3208 O   0  0  0  0  0  0  0  0  0  0  0  0
    9.9530  -18.1348   24.6288 C   0  0  0  0  0  0  0  0  0  0  0  0
    9.5412  -16.6947   24.4042 C   0  0  2  0  0  0  0  0  0  0  0  0
    9.6566  -16.2968   23.0307 N   0  0  0  0  0  0  0  0  0  0  0  0
   10.3456  -15.8596   25.3241 C   0  0  0  0  0  0  0  0  0  0  0  0
   11.4932  -15.4259   25.0858 O   0  0  0  0  0  0  0  0  0  0  0  0
    8.3635  -13.6160   27.9123 O   0  0  0  0  0  0  0  0  0  0  0  0
    9.7130  -13.3996   27.7735 C   0  0  0  0  0  0  0  0  0  0  0  0
   10.4756  -14.7132   27.5622 C   0  0  2  0  0  0  0  0  0  0  0  0
    9.7601  -15.5278   26.5774 N   0  0  0  0  0  0  0  0  0  0  0  0
   10.5621  -15.4472   28.8373 C   0  0  0  0  0  0  0  0  0  0  0  0
   11.2015  -14.8929   29.9218 O   0  0  0  0  0  0  0  0  0  0  0  0
   10.0523  -16.5794   28.9359 O   0  0  0  0  0  0  0  0  0  0  0  0
  2  1  1  1
  3  2  1  0
  4  2  1  0
  4  5  1  0
  5  6  1  6
  7  5  1  0
  8  7  2  0
 10  9  1  0
 11 10  1  6
 11 12  1  0
 11 13  1  0
 12  7  1  0
 13 18  1  0
 14 13  2  0
 16 15  1  0
 17 16  1  1
 17 19  1  0
 18 17  1  0
 19 21  2  0
 19 20  1  0
M  END
$$$$
