LSS.pdb
     RDKit          3D

 21 20  0  0  1  0  0  0  0  0999 V2000
    9.4942  -13.4899   19.6934 C   0  0  0  0  0  0  0  0  0  0  0  0
    7.9775  -13.5254   19.7165 C   0  0  2  0  0  0  0  0  0  0  0  0
    7.3837  -12.1516   19.5587 C   0  0  0  0  0  0  0  0  0  0  0  0
    7.5680  -14.1728   21.0313 C   0  0  0  0  0  0  0  0  0  0  0  0
    8.2398  -15.5145   21.0925 C   0  0  2  0  0  0  0  0  0  0  0  0
    7.4195  -16.4677   20.3680 N   0  0  0  0  0  0  0  0  0  0  0  0
    8.4821  -15.9914   22.4650 C   0  0  0  0  0  0  0  0  0  0  0  0
    7.5111  -16.2010   23.2381 O   0  0  0  0  0  0  0  0  0  0  0  0
   12.2423  -17.4553   23.8381 O   0  0  0  0  0  0  0  0  0  0  0  0
   11.0296  -17.8185   24.4065 C   0  0  0  0  0  0  0  0  0  0  0  0
   10.0115  -16.6992   24.3400 C   0  0  2  0  0  0  0  0  0  0  0  0
    9.7833  -16.2414   22.9997 N   0  0  0  0  0  0  0  0  0  0  0  0
   10.4749  -15.6296   25.2520 C   0  0  0  0  0  0  0  0  0  0  0  0
   11.3860  -14.8122   24.9994 O   0  0  0  0  0  0  0  0  0  0  0  0
    7.9505  -14.0827   27.8847 O   0  0  0  0  0  0  0  0  0  0  0  0
    9.1913  -13.5124   27.7353 C   0  0  0  0  0  0  0  0  0  0  0  0
   10.2785  -14.5742   27.5296 C   0  0  2  0  0  0  0  0  0  0  0  0
    9.8276  -15.5292   26.5148 N   0  0  0  0  0  0  0  0  0  0  0  0
   10.5246  -15.2842   28.7976 C   0  0  0  0  0  0  0  0  0  0  0  0
   11.0148  -14.6113   29.8926 O   0  0  0  0  0  0  0  0  0  0  0  0
   10.2872  -16.5041   28.8803 O   0  0  0  0  0  0  0  0  0  0  0  0
  2  1  1  1
  3  2  1  0
  4  2  1  0
  4  5  1  0
  5  6  1  1
  7  5  1  0
  8  7  2  0
 10  9  1  0
 11 10  1  6
 11 12  1  0
 11 13  1  0
 12  7  1  0
 13 18  1  0
 14 13  2  0
 16 15  1  0
 17 16  1  1
 17 19  1  0
 18 17  1  0
 19 21  2  0
 19 20  1  0
M  END
$$$$
