LSS.pdb
     RDKit          3D

 21 20  0  0  1  0  0  0  0  0999 V2000
    9.8386  -12.5436   19.6326 C   0  0  0  0  0  0  0  0  0  0  0  0
    8.4240  -12.9933   19.3185 C   0  0  2  0  0  0  0  0  0  0  0  0
    7.4208  -11.9004   19.5710 C   0  0  0  0  0  0  0  0  0  0  0  0
    8.1492  -14.2235   20.1711 C   0  0  0  0  0  0  0  0  0  0  0  0
    9.1884  -15.2484   19.8176 C   0  0  2  0  0  0  0  0  0  0  0  0
    8.8673  -15.7900   18.5099 N   0  0  0  0  0  0  0  0  0  0  0  0
    9.3045  -16.3360   20.8043 C   0  0  0  0  0  0  0  0  0  0  0  0
    8.3855  -17.1899   20.9095 O   0  0  0  0  0  0  0  0  0  0  0  0
   12.7636  -16.9135   23.2356 O   0  0  0  0  0  0  0  0  0  0  0  0
   11.9235  -17.9765   22.9353 C   0  0  0  0  0  0  0  0  0  0  0  0
   10.5013  -17.5235   22.6787 C   0  0  2  0  0  0  0  0  0  0  0  0
   10.4221  -16.4968   21.6798 N   0  0  0  0  0  0  0  0  0  0  0  0
    9.9285  -17.1167   23.9814 C   0  0  0  0  0  0  0  0  0  0  0  0
   10.0253  -15.9778   24.4867 O   0  0  0  0  0  0  0  0  0  0  0  0
    6.4869  -18.4733   25.3370 O   0  0  0  0  0  0  0  0  0  0  0  0
    7.4482  -18.6997   26.2918 C   0  0  0  0  0  0  0  0  0  0  0  0
    8.6930  -17.8361   26.0541 C   0  0  2  0  0  0  0  0  0  0  0  0
    9.2118  -18.1055   24.7112 N   0  0  0  0  0  0  0  0  0  0  0  0
    9.7239  -18.1661   27.0544 C   0  0  0  0  0  0  0  0  0  0  0  0
    9.5081  -17.9167   28.3899 O   0  0  0  0  0  0  0  0  0  0  0  0
   10.8005  -18.6752   26.6894 O   0  0  0  0  0  0  0  0  0  0  0  0
  2  1  1  1
  3  2  1  0
  4  2  1  0
  4  5  1  0
  5  6  1  6
  7  5  1  0
  8  7  2  0
 10  9  1  0
 11 10  1  1
 11 12  1  0
 11 13  1  0
 12  7  1  0
 13 18  1  0
 14 13  2  0
 16 15  1  0
 17 16  1  1
 17 19  1  0
 18 17  1  0
 19 21  2  0
 19 20  1  0
M  END
$$$$
