LSS.pdb
     RDKit          3D

 21 20  0  0  1  0  0  0  0  0999 V2000
    8.9851  -13.1525   19.2227 C   0  0  0  0  0  0  0  0  0  0  0  0
    7.8988  -13.4038   20.2515 C   0  0  2  0  0  0  0  0  0  0  0  0
    7.5719  -12.1609   21.0345 C   0  0  0  0  0  0  0  0  0  0  0  0
    8.3904  -14.5281   21.1515 C   0  0  0  0  0  0  0  0  0  0  0  0
    8.4722  -15.7675   20.3073 C   0  0  2  0  0  0  0  0  0  0  0  0
    7.1374  -16.0847   19.8339 N   0  0  0  0  0  0  0  0  0  0  0  0
    9.0506  -16.9246   21.0119 C   0  0  0  0  0  0  0  0  0  0  0  0
    8.3380  -17.6025   21.7975 O   0  0  0  0  0  0  0  0  0  0  0  0
   13.1122  -18.1704   20.5095 O   0  0  0  0  0  0  0  0  0  0  0  0
   12.1292  -19.0946   20.8340 C   0  0  0  0  0  0  0  0  0  0  0  0
   10.9711  -18.4581   21.5739 C   0  0  2  0  0  0  0  0  0  0  0  0
   10.4074  -17.3469   20.8628 N   0  0  0  0  0  0  0  0  0  0  0  0
   11.4568  -18.1012   22.9257 C   0  0  0  0  0  0  0  0  0  0  0  0
   11.9771  -17.0090   23.2390 O   0  0  0  0  0  0  0  0  0  0  0  0
   11.5574  -19.6913   27.5487 O   0  0  0  0  0  0  0  0  0  0  0  0
   11.1919  -19.9032   26.2415 C   0  0  0  0  0  0  0  0  0  0  0  0
   11.7850  -18.8384   25.3108 C   0  0  2  0  0  0  0  0  0  0  0  0
   11.3172  -19.0839   23.9448 N   0  0  0  0  0  0  0  0  0  0  0  0
   13.2566  -18.9123   25.3469 C   0  0  0  0  0  0  0  0  0  0  0  0
   13.9669  -18.2470   26.3191 O   0  0  0  0  0  0  0  0  0  0  0  0
   13.8643  -19.5823   24.4906 O   0  0  0  0  0  0  0  0  0  0  0  0
  2  1  1  6
  3  2  1  0
  4  2  1  0
  4  5  1  0
  5  6  1  1
  7  5  1  0
  8  7  2  0
 10  9  1  0
 11 10  1  6
 11 12  1  0
 11 13  1  0
 12  7  1  0
 13 18  1  0
 14 13  2  0
 16 15  1  0
 17 16  1  1
 17 19  1  0
 18 17  1  0
 19 21  2  0
 19 20  1  0
M  END
$$$$
