LSS.pdb
     RDKit          3D

 21 20  0  0  1  0  0  0  0  0999 V2000
    9.4840  -13.5822   19.4360 C   0  0  0  0  0  0  0  0  0  0  0  0
    7.9847  -13.7053   19.6335 C   0  0  2  0  0  0  0  0  0  0  0  0
    7.2555  -12.4776   19.1585 C   0  0  0  0  0  0  0  0  0  0  0  0
    7.7515  -13.9661   21.1145 C   0  0  0  0  0  0  0  0  0  0  0  0
    8.4454  -15.2544   21.4520 C   0  0  2  0  0  0  0  0  0  0  0  0
    7.8758  -16.3070   20.6310 N   0  0  0  0  0  0  0  0  0  0  0  0
    8.3573  -15.6166   22.8771 C   0  0  0  0  0  0  0  0  0  0  0  0
    8.8362  -14.8482   23.7516 O   0  0  0  0  0  0  0  0  0  0  0  0
    6.4460  -19.1794   24.2701 O   0  0  0  0  0  0  0  0  0  0  0  0
    6.5927  -18.0843   25.1097 C   0  0  0  0  0  0  0  0  0  0  0  0
    7.7832  -17.2293   24.7278 C   0  0  2  0  0  0  0  0  0  0  0  0
    7.7472  -16.8173   23.3542 N   0  0  0  0  0  0  0  0  0  0  0  0
    9.0020  -17.9929   25.0772 C   0  0  0  0  0  0  0  0  0  0  0  0
    9.6229  -18.7523   24.3027 O   0  0  0  0  0  0  0  0  0  0  0  0
   12.1679  -17.0840   25.7882 O   0  0  0  0  0  0  0  0  0  0  0  0
   11.8644  -17.6739   26.9910 C   0  0  0  0  0  0  0  0  0  0  0  0
   10.6580  -18.6129   26.8697 C   0  0  2  0  0  0  0  0  0  0  0  0
    9.5013  -17.8463   26.4011 N   0  0  0  0  0  0  0  0  0  0  0  0
   10.3554  -19.2040   28.1855 C   0  0  0  0  0  0  0  0  0  0  0  0
   11.2746  -20.0070   28.8199 O   0  0  0  0  0  0  0  0  0  0  0  0
    9.2583  -18.9758   28.7294 O   0  0  0  0  0  0  0  0  0  0  0  0
  2  1  1  1
  3  2  1  0
  4  2  1  0
  4  5  1  0
  5  6  1  6
  7  5  1  0
  8  7  2  0
 10  9  1  0
 11 10  1  6
 11 12  1  0
 11 13  1  0
 12  7  1  0
 13 18  1  0
 14 13  2  0
 16 15  1  0
 17 16  1  1
 17 19  1  0
 18 17  1  0
 19 21  2  0
 19 20  1  0
M  END
$$$$
