LSS.pdb
     RDKit          3D

 21 20  0  0  1  0  0  0  0  0999 V2000
    9.4403  -12.7679   18.5085 C   0  0  0  0  0  0  0  0  0  0  0  0
    7.9894  -13.1004   18.8023 C   0  0  2  0  0  0  0  0  0  0  0  0
    7.2299  -11.8995   19.2979 C   0  0  0  0  0  0  0  0  0  0  0  0
    7.9900  -14.2310   19.8208 C   0  0  0  0  0  0  0  0  0  0  0  0
    8.7032  -15.3933   19.1918 C   0  0  2  0  0  0  0  0  0  0  0  0
    7.8145  -15.9997   18.2176 N   0  0  0  0  0  0  0  0  0  0  0  0
    9.1580  -16.4028   20.1634 C   0  0  0  0  0  0  0  0  0  0  0  0
    8.3301  -16.9426   20.9429 O   0  0  0  0  0  0  0  0  0  0  0  0
   12.9803  -18.2636   20.0117 O   0  0  0  0  0  0  0  0  0  0  0  0
   11.8705  -18.8492   20.6043 C   0  0  0  0  0  0  0  0  0  0  0  0
   10.9494  -17.8216   21.2282 C   0  0  2  0  0  0  0  0  0  0  0  0
   10.5165  -16.8275   20.2888 N   0  0  0  0  0  0  0  0  0  0  0  0
   11.6553  -17.2522   22.3979 C   0  0  0  0  0  0  0  0  0  0  0  0
   12.3782  -16.2329   22.3768 O   0  0  0  0  0  0  0  0  0  0  0  0
   10.0840  -17.7920   25.9935 O   0  0  0  0  0  0  0  0  0  0  0  0
   11.1328  -16.9186   25.8380 C   0  0  0  0  0  0  0  0  0  0  0  0
   12.1757  -17.4601   24.8527 C   0  0  2  0  0  0  0  0  0  0  0  0
   11.4939  -17.9230   23.6419 N   0  0  0  0  0  0  0  0  0  0  0  0
   12.9023  -18.5851   25.4680 C   0  0  0  0  0  0  0  0  0  0  0  0
   12.8196  -19.8489   24.9309 O   0  0  0  0  0  0  0  0  0  0  0  0
   13.5978  -18.3921   26.4831 O   0  0  0  0  0  0  0  0  0  0  0  0
  2  1  1  1
  3  2  1  0
  4  2  1  0
  4  5  1  0
  5  6  1  6
  7  5  1  0
  8  7  2  0
 10  9  1  0
 11 10  1  6
 11 12  1  0
 11 13  1  0
 12  7  1  0
 13 18  1  0
 14 13  2  0
 16 15  1  0
 17 16  1  1
 17 19  1  0
 18 17  1  0
 19 21  2  0
 19 20  1  0
M  END
$$$$
