LSS.pdb
     RDKit          3D

 21 20  0  0  1  0  0  0  0  0999 V2000
    9.3459  -13.7303   19.4888 C   0  0  0  0  0  0  0  0  0  0  0  0
    7.8514  -13.5119   19.6330 C   0  0  2  0  0  0  0  0  0  0  0  0
    7.4585  -12.0975   19.3016 C   0  0  0  0  0  0  0  0  0  0  0  0
    7.4840  -13.8826   21.0624 C   0  0  0  0  0  0  0  0  0  0  0  0
    7.8010  -15.3400   21.2374 C   0  0  2  0  0  0  0  0  0  0  0  0
    6.8243  -16.1113   20.4906 N   0  0  0  0  0  0  0  0  0  0  0  0
    7.8240  -15.7743   22.6448 C   0  0  0  0  0  0  0  0  0  0  0  0
    6.7907  -15.6605   23.3546 O   0  0  0  0  0  0  0  0  0  0  0  0
   11.1531  -17.7539   24.5581 O   0  0  0  0  0  0  0  0  0  0  0  0
    9.8428  -17.8509   25.0047 C   0  0  0  0  0  0  0  0  0  0  0  0
    9.0404  -16.6054   24.6906 C   0  0  2  0  0  0  0  0  0  0  0  0
    8.9730  -16.3340   23.2835 N   0  0  0  0  0  0  0  0  0  0  0  0
    9.6293  -15.4951   25.4723 C   0  0  0  0  0  0  0  0  0  0  0  0
   10.5183  -14.7180   25.0627 O   0  0  0  0  0  0  0  0  0  0  0  0
    7.6412  -13.1137   27.2159 O   0  0  0  0  0  0  0  0  0  0  0  0
    8.5600  -13.3912   28.1986 C   0  0  0  0  0  0  0  0  0  0  0  0
    9.6995  -14.2723   27.6723 C   0  0  2  0  0  0  0  0  0  0  0  0
    9.1402  -15.3025   26.7942 N   0  0  0  0  0  0  0  0  0  0  0  0
   10.3930  -14.9143   28.8033 C   0  0  0  0  0  0  0  0  0  0  0  0
   11.0285  -14.1537   29.7572 O   0  0  0  0  0  0  0  0  0  0  0  0
   10.4049  -16.1562   28.8981 O   0  0  0  0  0  0  0  0  0  0  0  0
  2  1  1  1
  3  2  1  0
  4  2  1  0
  4  5  1  0
  5  6  1  6
  7  5  1  0
  8  7  2  0
 10  9  1  0
 11 10  1  6
 11 12  1  0
 11 13  1  0
 12  7  1  0
 13 18  1  0
 14 13  2  0
 16 15  1  0
 17 16  1  1
 17 19  1  0
 18 17  1  0
 19 21  2  0
 19 20  1  0
M  END
$$$$
