MIV.pdb
     RDKit          3D

 24 23  0  0  1  0  0  0  0  0999 V2000
   26.3495  -15.5475  -15.5743 C   0  0  0  0  0  0  0  0  0  0  0  0
   27.6916  -16.3434  -16.4320 S   0  0  0  0  0  0  0  0  0  0  0  0
   28.3836  -17.7527  -15.6184 C   0  0  0  0  0  0  0  0  0  0  0  0
   27.3818  -18.6927  -15.0492 C   0  0  0  0  0  0  0  0  0  0  0  0
   28.0102  -19.7878  -14.2610 C   0  0  2  0  0  0  0  0  0  0  0  0
   28.7906  -20.6206  -15.1603 N   0  0  0  0  0  0  0  0  0  0  0  0
   26.9677  -20.6849  -13.6481 C   0  0  0  0  0  0  0  0  0  0  0  0
   26.6400  -21.7174  -14.2433 O   0  0  0  0  0  0  0  0  0  0  0  0
   26.8625  -20.8256   -8.3888 C   0  0  0  0  0  0  0  0  0  0  0  0
   26.5778  -21.2036   -9.7953 C   0  0  0  0  0  0  0  0  0  0  0  0
   25.2946  -20.5971  -10.3367 C   0  0  2  0  0  0  0  0  0  0  0  0
   24.0815  -21.1610   -9.6910 C   0  0  0  0  0  0  0  0  0  0  0  0
   25.2970  -21.0061  -11.8208 C   0  0  2  0  0  0  0  0  0  0  0  0
   26.4359  -20.2657  -12.4153 N   0  0  0  0  0  0  0  0  0  0  0  0
   24.0855  -20.6028  -12.5371 C   0  0  0  0  0  0  0  0  0  0  0  0
   23.8486  -19.3449  -12.6730 O   0  0  0  0  0  0  0  0  0  0  0  0
   22.9811  -21.4998  -15.9707 C   0  0  0  0  0  0  0  0  0  0  0  0
   21.7437  -21.6121  -15.0926 C   0  0  2  0  0  0  0  0  0  0  0  0
   20.5601  -21.1360  -15.8758 C   0  0  0  0  0  0  0  0  0  0  0  0
   21.9485  -20.8895  -13.8083 C   0  0  2  0  0  0  0  0  0  0  0  0
   23.1149  -21.4485  -13.1190 N   0  0  0  0  0  0  0  0  0  0  0  0
   20.7361  -20.9893  -12.9600 C   0  0  0  0  0  0  0  0  0  0  0  0
   19.8818  -19.9331  -12.7748 O   0  0  0  0  0  0  0  0  0  0  0  0
   20.4675  -22.0808  -12.3804 O   0  0  0  0  0  0  0  0  0  0  0  0
  1  2  1  0
  2  3  1  0
  4  3  1  0
  5  4  1  0
  5  6  1  6
  7  5  1  0
  7 14  1  0
  8  7  2  0
 10  9  1  0
 10 11  1  0
 11 13  1  0
 11 12  1  1
 13 14  1  6
 15 21  1  0
 15 13  1  0
 16 15  2  0
 18 17  1  6
 18 20  1  0
 18 19  1  0
 20 21  1  1
 20 22  1  0
 22 23  1  0
 24 22  2  0
M  END
$$$$
