MIV.pdb
     RDKit          3D

 24 23  0  0  1  0  0  0  0  0999 V2000
   21.7258  -20.3153  -15.1269 C   0  0  0  0  0  0  0  0  0  0  0  0
   22.9832  -19.0547  -15.1337 S   0  0  0  0  0  0  0  0  0  0  0  0
   24.5592  -19.5503  -14.5032 C   0  0  0  0  0  0  0  0  0  0  0  0
   24.5171  -20.1797  -13.1567 C   0  0  0  0  0  0  0  0  0  0  0  0
   25.8744  -20.4755  -12.6223 C   0  0  2  0  0  0  0  0  0  0  0  0
   26.5019  -21.4741  -13.4711 N   0  0  0  0  0  0  0  0  0  0  0  0
   25.7978  -21.0766  -11.2439 C   0  0  0  0  0  0  0  0  0  0  0  0
   25.5394  -22.2797  -11.1278 O   0  0  0  0  0  0  0  0  0  0  0  0
   27.8068  -19.8027   -5.6324 C   0  0  0  0  0  0  0  0  0  0  0  0
   26.9110  -20.4819   -6.6010 C   0  0  0  0  0  0  0  0  0  0  0  0
   26.8668  -19.8062   -7.9607 C   0  0  2  0  0  0  0  0  0  0  0  0
   26.2968  -18.4359   -7.8973 C   0  0  0  0  0  0  0  0  0  0  0  0
   25.9149  -20.6973   -8.7789 C   0  0  2  0  0  0  0  0  0  0  0  0
   26.0326  -20.1987  -10.1704 N   0  0  0  0  0  0  0  0  0  0  0  0
   24.5119  -20.5691   -8.3806 C   0  0  0  0  0  0  0  0  0  0  0  0
   23.8198  -19.6101   -8.8887 O   0  0  0  0  0  0  0  0  0  0  0  0
   22.2745  -20.9432   -9.8962 C   0  0  0  0  0  0  0  0  0  0  0  0
   21.8284  -21.8763   -8.7804 C   0  0  2  0  0  0  0  0  0  0  0  0
   20.3393  -22.0163   -8.8445 C   0  0  0  0  0  0  0  0  0  0  0  0
   22.3339  -21.3964   -7.4660 C   0  0  2  0  0  0  0  0  0  0  0  0
   23.7994  -21.3945   -7.4824 N   0  0  0  0  0  0  0  0  0  0  0  0
   21.8193  -22.2530   -6.3701 C   0  0  0  0  0  0  0  0  0  0  0  0
   22.4571  -23.4007   -5.9755 O   0  0  0  0  0  0  0  0  0  0  0  0
   20.7556  -21.9263   -5.7690 O   0  0  0  0  0  0  0  0  0  0  0  0
  1  2  1  0
  2  3  1  0
  4  3  1  0
  5  4  1  0
  5  6  1  6
  7  5  1  0
  7 14  1  0
  8  7  2  0
 10  9  1  0
 10 11  1  0
 11 13  1  0
 11 12  1  1
 13 14  1  6
 15 21  1  0
 15 13  1  0
 16 15  2  0
 18 17  1  6
 18 20  1  0
 18 19  1  0
 20 21  1  6
 20 22  1  0
 22 23  1  0
 24 22  2  0
M  END
$$$$
