MIV.pdb
     RDKit          3D

 24 23  0  0  1  0  0  0  0  0999 V2000
   28.8845  -19.7709  -17.2046 C   0  0  0  0  0  0  0  0  0  0  0  0
   29.0590  -18.4657  -16.0062 S   0  0  0  0  0  0  0  0  0  0  0  0
   29.6569  -18.9666  -14.4191 C   0  0  0  0  0  0  0  0  0  0  0  0
   28.7083  -19.8015  -13.6355 C   0  0  0  0  0  0  0  0  0  0  0  0
   29.3019  -20.2997  -12.3648 C   0  0  2  0  0  0  0  0  0  0  0  0
   30.3614  -21.2419  -12.6833 N   0  0  0  0  0  0  0  0  0  0  0  0
   28.2880  -21.0594  -11.5511 C   0  0  0  0  0  0  0  0  0  0  0  0
   28.1335  -22.2674  -11.7616 O   0  0  0  0  0  0  0  0  0  0  0  0
   27.4492  -19.8481   -6.5898 C   0  0  0  0  0  0  0  0  0  0  0  0
   27.3130  -20.5708   -7.8787 C   0  0  0  0  0  0  0  0  0  0  0  0
   26.1202  -20.1179   -8.7031 C   0  0  2  0  0  0  0  0  0  0  0  0
   24.8252  -20.5397   -8.1103 C   0  0  0  0  0  0  0  0  0  0  0  0
   26.3077  -20.8478  -10.0454 C   0  0  2  0  0  0  0  0  0  0  0  0
   27.5790  -20.3145  -10.5916 N   0  0  0  0  0  0  0  0  0  0  0  0
   25.2525  -20.5569  -11.0178 C   0  0  0  0  0  0  0  0  0  0  0  0
   25.1804  -19.3658  -11.5003 O   0  0  0  0  0  0  0  0  0  0  0  0
   23.0499  -23.3930  -13.2182 C   0  0  0  0  0  0  0  0  0  0  0  0
   23.3913  -21.9863  -13.6864 C   0  0  2  0  0  0  0  0  0  0  0  0
   24.7185  -22.0243  -14.3778 C   0  0  0  0  0  0  0  0  0  0  0  0
   23.3298  -21.0290  -12.5492 C   0  0  2  0  0  0  0  0  0  0  0  0
   24.2746  -21.4495  -11.5107 N   0  0  0  0  0  0  0  0  0  0  0  0
   21.9504  -20.9553  -12.0094 C   0  0  0  0  0  0  0  0  0  0  0  0
   20.9491  -20.2696  -12.6473 O   0  0  0  0  0  0  0  0  0  0  0  0
   21.6727  -21.5407  -10.9232 O   0  0  0  0  0  0  0  0  0  0  0  0
  1  2  1  0
  2  3  1  0
  4  3  1  0
  5  4  1  0
  5  6  1  6
  7  5  1  0
  7 14  1  0
  8  7  2  0
 10  9  1  0
 10 11  1  0
 11 13  1  0
 11 12  1  1
 13 14  1  6
 15 21  1  0
 15 13  1  0
 16 15  2  0
 18 17  1  1
 18 20  1  0
 18 19  1  0
 20 21  1  1
 20 22  1  0
 22 23  1  0
 24 22  2  0
M  END
$$$$
