MIV.pdb
     RDKit          3D

 24 23  0  0  1  0  0  0  0  0999 V2000
   25.8059  -16.0366  -17.8152 C   0  0  0  0  0  0  0  0  0  0  0  0
   27.2244  -15.6218  -16.8222 S   0  0  0  0  0  0  0  0  0  0  0  0
   28.1123  -16.9973  -16.1538 C   0  0  0  0  0  0  0  0  0  0  0  0
   27.2543  -18.1039  -15.6535 C   0  0  0  0  0  0  0  0  0  0  0  0
   28.0475  -19.2398  -15.1095 C   0  0  2  0  0  0  0  0  0  0  0  0
   28.7338  -19.8974  -16.2085 N   0  0  0  0  0  0  0  0  0  0  0  0
   27.1538  -20.2779  -14.4844 C   0  0  0  0  0  0  0  0  0  0  0  0
   26.8769  -21.2965  -15.1273 O   0  0  0  0  0  0  0  0  0  0  0  0
   25.2672  -21.8728   -8.8924 C   0  0  0  0  0  0  0  0  0  0  0  0
   25.1485  -21.8272  -10.3709 C   0  0  0  0  0  0  0  0  0  0  0  0
   26.1228  -20.8637  -11.0265 C   0  0  2  0  0  0  0  0  0  0  0  0
   25.9359  -19.4638  -10.5662 C   0  0  0  0  0  0  0  0  0  0  0  0
   25.7620  -20.9423  -12.5209 C   0  0  2  0  0  0  0  0  0  0  0  0
   26.6933  -19.9987  -13.1850 N   0  0  0  0  0  0  0  0  0  0  0  0
   24.3983  -20.4972  -12.8142 C   0  0  0  0  0  0  0  0  0  0  0  0
   24.1235  -19.2470  -12.6790 O   0  0  0  0  0  0  0  0  0  0  0  0
   21.4468  -22.4524  -15.1140 C   0  0  0  0  0  0  0  0  0  0  0  0
   21.5482  -20.9578  -14.8482 C   0  0  2  0  0  0  0  0  0  0  0  0
   22.4423  -20.3502  -15.8839 C   0  0  0  0  0  0  0  0  0  0  0  0
   21.9862  -20.7055  -13.4489 C   0  0  2  0  0  0  0  0  0  0  0  0
   23.3130  -21.2932  -13.2436 N   0  0  0  0  0  0  0  0  0  0  0  0
   21.0051  -21.2695  -12.4904 C   0  0  0  0  0  0  0  0  0  0  0  0
   21.2249  -22.4472  -11.8238 O   0  0  0  0  0  0  0  0  0  0  0  0
   19.9226  -20.6537  -12.2698 O   0  0  0  0  0  0  0  0  0  0  0  0
  1  2  1  0
  2  3  1  0
  4  3  1  0
  5  4  1  0
  5  6  1  6
  7  5  1  0
  7 14  1  0
  8  7  2  0
 10  9  1  0
 10 11  1  0
 11 13  1  0
 11 12  1  1
 13 14  1  6
 15 21  1  0
 15 13  1  0
 16 15  2  0
 18 17  1  6
 18 20  1  0
 18 19  1  0
 20 21  1  1
 20 22  1  0
 22 23  1  0
 24 22  2  0
M  END
$$$$
