MIV.pdb
     RDKit          3D

 24 23  0  0  1  0  0  0  0  0999 V2000
   28.7502  -16.4595  -17.9281 C   0  0  0  0  0  0  0  0  0  0  0  0
   28.4911  -18.1603  -17.4693 S   0  0  0  0  0  0  0  0  0  0  0  0
   26.8019  -18.6779  -17.3938 C   0  0  0  0  0  0  0  0  0  0  0  0
   25.8504  -17.7932  -18.1170 C   0  0  0  0  0  0  0  0  0  0  0  0
   24.4474  -18.2850  -18.0461 C   0  0  2  0  0  0  0  0  0  0  0  0
   23.5954  -17.3715  -18.7885 N   0  0  0  0  0  0  0  0  0  0  0  0
   23.9403  -18.2820  -16.6283 C   0  0  0  0  0  0  0  0  0  0  0  0
   23.7550  -17.2003  -16.0599 O   0  0  0  0  0  0  0  0  0  0  0  0
   19.5290  -19.6515  -15.3889 C   0  0  0  0  0  0  0  0  0  0  0  0
   20.9501  -19.2356  -15.2919 C   0  0  0  0  0  0  0  0  0  0  0  0
   21.8615  -20.3196  -14.7426 C   0  0  2  0  0  0  0  0  0  0  0  0
   21.4603  -20.7664  -13.3840 C   0  0  0  0  0  0  0  0  0  0  0  0
   23.2334  -19.6278  -14.6477 C   0  0  2  0  0  0  0  0  0  0  0  0
   23.7119  -19.5430  -16.0487 N   0  0  0  0  0  0  0  0  0  0  0  0
   24.2214  -20.3971  -13.8891 C   0  0  0  0  0  0  0  0  0  0  0  0
   24.4777  -21.6004  -14.2677 O   0  0  0  0  0  0  0  0  0  0  0  0
   28.1399  -21.0593  -11.0799 C   0  0  0  0  0  0  0  0  0  0  0  0
   27.1676  -20.1603  -11.8289 C   0  0  2  0  0  0  0  0  0  0  0  0
   27.0103  -18.8854  -11.0603 C   0  0  0  0  0  0  0  0  0  0  0  0
   25.8872  -20.8744  -12.0830 C   0  0  2  0  0  0  0  0  0  0  0  0
   24.9541  -19.9691  -12.7595 N   0  0  0  0  0  0  0  0  0  0  0  0
   25.3111  -21.3715  -10.8101 C   0  0  0  0  0  0  0  0  0  0  0  0
   25.8091  -22.4710  -10.1598 O   0  0  0  0  0  0  0  0  0  0  0  0
   24.3253  -20.7704  -10.2938 O   0  0  0  0  0  0  0  0  0  0  0  0
  1  2  1  0
  2  3  1  0
  4  3  1  0
  5  4  1  0
  5  6  1  6
  7  5  1  0
  7 14  1  0
  8  7  2  0
 10  9  1  0
 10 11  1  0
 11 13  1  0
 11 12  1  1
 13 14  1  6
 15 21  1  0
 15 13  1  0
 16 15  2  0
 18 17  1  1
 18 20  1  0
 18 19  1  0
 20 21  1  1
 20 22  1  0
 22 23  1  0
 24 22  2  0
M  END
$$$$
