MIV.pdb
     RDKit          3D

 24 23  0  0  1  0  0  0  0  0999 V2000
   25.8199  -20.2455   -3.3993 C   0  0  0  0  0  0  0  0  0  0  0  0
   27.5864  -20.3986   -3.5611 S   0  0  0  0  0  0  0  0  0  0  0  0
   28.2163  -20.2285   -5.2047 C   0  0  0  0  0  0  0  0  0  0  0  0
   27.1735  -20.1131   -6.2584 C   0  0  0  0  0  0  0  0  0  0  0  0
   27.7524  -20.0197   -7.6264 C   0  0  2  0  0  0  0  0  0  0  0  0
   28.6154  -18.8522   -7.6884 N   0  0  0  0  0  0  0  0  0  0  0  0
   26.6773  -19.8089   -8.6594 C   0  0  0  0  0  0  0  0  0  0  0  0
   26.0593  -18.7387   -8.6720 O   0  0  0  0  0  0  0  0  0  0  0  0
   29.5795  -21.0142  -12.2138 C   0  0  0  0  0  0  0  0  0  0  0  0
   28.3656  -20.4510  -11.5723 C   0  0  0  0  0  0  0  0  0  0  0  0
   27.1138  -21.2756  -11.8178 C   0  0  2  0  0  0  0  0  0  0  0  0
   26.6708  -21.2301  -13.2349 C   0  0  0  0  0  0  0  0  0  0  0  0
   26.0478  -20.5866  -10.9469 C   0  0  2  0  0  0  0  0  0  0  0  0
   26.4563  -20.8742   -9.5507 N   0  0  0  0  0  0  0  0  0  0  0  0
   24.7020  -21.1318  -11.1348 C   0  0  0  0  0  0  0  0  0  0  0  0
   24.5166  -22.3860  -10.9128 O   0  0  0  0  0  0  0  0  0  0  0  0
   21.2291  -19.5943  -10.1335 C   0  0  0  0  0  0  0  0  0  0  0  0
   21.1469  -20.1962  -11.5283 C   0  0  2  0  0  0  0  0  0  0  0  0
   19.7962  -20.8188  -11.6988 C   0  0  0  0  0  0  0  0  0  0  0  0
   22.2781  -21.1349  -11.7586 C   0  0  2  0  0  0  0  0  0  0  0  0
   23.5443  -20.4303  -11.5391 N   0  0  0  0  0  0  0  0  0  0  0  0
   22.2156  -21.6929  -13.1313 C   0  0  0  0  0  0  0  0  0  0  0  0
   21.6407  -22.9074  -13.4036 O   0  0  0  0  0  0  0  0  0  0  0  0
   22.7057  -21.0368  -14.0951 O   0  0  0  0  0  0  0  0  0  0  0  0
  1  2  1  0
  2  3  1  0
  4  3  1  0
  5  4  1  0
  5  6  1  1
  7  5  1  0
  7 14  1  0
  8  7  2  0
 10  9  1  0
 10 11  1  0
 11 13  1  0
 11 12  1  6
 13 14  1  1
 15 21  1  0
 15 13  1  0
 16 15  2  0
 18 17  1  1
 18 20  1  0
 18 19  1  0
 20 21  1  6
 20 22  1  0
 22 23  1  0
 24 22  2  0
M  END
$$$$
