MIV.pdb
     RDKit          3D

 24 23  0  0  1  0  0  0  0  0999 V2000
   17.0350  -11.7268  -20.3717 C   0  0  0  0  0  0  0  0  0  0  0  0
   17.6649  -13.2534  -21.0374 S   0  0  0  0  0  0  0  0  0  0  0  0
   18.7858  -14.1334  -19.9904 C   0  0  0  0  0  0  0  0  0  0  0  0
   19.1190  -13.4395  -18.7183 C   0  0  0  0  0  0  0  0  0  0  0  0
   20.0575  -14.2231  -17.8695 C   0  0  2  0  0  0  0  0  0  0  0  0
   19.3643  -15.3993  -17.3719 N   0  0  0  0  0  0  0  0  0  0  0  0
   20.4828  -13.4362  -16.6583 C   0  0  0  0  0  0  0  0  0  0  0  0
   19.7919  -13.4904  -15.6349 O   0  0  0  0  0  0  0  0  0  0  0  0
   24.9648  -14.3955  -15.0585 C   0  0  0  0  0  0  0  0  0  0  0  0
   23.6196  -13.7878  -15.2111 C   0  0  0  0  0  0  0  0  0  0  0  0
   23.6592  -12.3021  -15.5251 C   0  0  2  0  0  0  0  0  0  0  0  0
   24.2816  -11.5063  -14.4362 C   0  0  0  0  0  0  0  0  0  0  0  0
   22.1736  -11.9131  -15.6312 C   0  0  2  0  0  0  0  0  0  0  0  0
   21.6630  -12.6827  -16.7913 N   0  0  0  0  0  0  0  0  0  0  0  0
   21.9633  -10.4924  -15.9162 C   0  0  0  0  0  0  0  0  0  0  0  0
   22.5020   -9.9975  -16.9753 O   0  0  0  0  0  0  0  0  0  0  0  0
   18.7290   -8.1522  -14.9626 C   0  0  0  0  0  0  0  0  0  0  0  0
   19.7589   -7.8730  -16.0470 C   0  0  2  0  0  0  0  0  0  0  0  0
   19.3818   -8.6472  -17.2716 C   0  0  0  0  0  0  0  0  0  0  0  0
   21.1312   -8.1606  -15.5493 C   0  0  2  0  0  0  0  0  0  0  0  0
   21.2167   -9.5685  -15.1515 N   0  0  0  0  0  0  0  0  0  0  0  0
   21.4660   -7.2694  -14.4122 C   0  0  0  0  0  0  0  0  0  0  0  0
   21.8210   -5.9570  -14.5889 O   0  0  0  0  0  0  0  0  0  0  0  0
   21.4272   -7.7217  -13.2317 O   0  0  0  0  0  0  0  0  0  0  0  0
  1  2  1  0
  2  3  1  0
  4  3  1  0
  5  4  1  0
  5  6  1  1
  7  5  1  0
  7 14  1  0
  8  7  2  0
 10  9  1  0
 10 11  1  0
 11 13  1  0
 11 12  1  1
 13 14  1  6
 15 21  1  0
 15 13  1  0
 16 15  2  0
 18 17  1  1
 18 20  1  0
 18 19  1  0
 20 21  1  1
 20 22  1  0
 22 23  1  0
 24 22  2  0
M  END
$$$$
