MIV.pdb
     RDKit          3D

 24 23  0  0  1  0  0  0  0  0999 V2000
   25.5315  -16.6313  -16.9880 C   0  0  0  0  0  0  0  0  0  0  0  0
   27.2299  -16.3938  -17.4669 S   0  0  0  0  0  0  0  0  0  0  0  0
   28.3419  -17.6820  -16.9863 C   0  0  0  0  0  0  0  0  0  0  0  0
   27.7519  -18.7034  -16.0811 C   0  0  0  0  0  0  0  0  0  0  0  0
   28.7056  -19.7998  -15.7590 C   0  0  2  0  0  0  0  0  0  0  0  0
   28.8882  -20.6215  -16.9435 N   0  0  0  0  0  0  0  0  0  0  0  0
   28.1519  -20.7076  -14.6931 C   0  0  0  0  0  0  0  0  0  0  0  0
   27.4752  -21.6854  -15.0302 O   0  0  0  0  0  0  0  0  0  0  0  0
   31.2174  -21.4628  -10.5436 C   0  0  0  0  0  0  0  0  0  0  0  0
   30.0786  -21.6715  -11.4719 C   0  0  0  0  0  0  0  0  0  0  0  0
   28.8215  -20.9221  -11.0651 C   0  0  2  0  0  0  0  0  0  0  0  0
   28.1955  -21.4828   -9.8402 C   0  0  0  0  0  0  0  0  0  0  0  0
   27.8659  -21.1440  -12.2514 C   0  0  2  0  0  0  0  0  0  0  0  0
   28.4565  -20.3618  -13.3642 N   0  0  0  0  0  0  0  0  0  0  0  0
   26.5164  -20.6274  -12.0157 C   0  0  0  0  0  0  0  0  0  0  0  0
   26.3810  -19.3744  -11.7540 O   0  0  0  0  0  0  0  0  0  0  0  0
   23.6906  -20.5559  -14.3129 C   0  0  0  0  0  0  0  0  0  0  0  0
   23.1135  -21.0366  -12.9898 C   0  0  2  0  0  0  0  0  0  0  0  0
   21.7257  -20.4930  -12.8508 C   0  0  0  0  0  0  0  0  0  0  0  0
   24.0185  -20.6771  -11.8649 C   0  0  2  0  0  0  0  0  0  0  0  0
   25.3056  -21.3548  -12.0435 N   0  0  0  0  0  0  0  0  0  0  0  0
   23.4027  -21.0471  -10.5675 C   0  0  0  0  0  0  0  0  0  0  0  0
   22.4088  -20.3011   -9.9884 O   0  0  0  0  0  0  0  0  0  0  0  0
   23.7979  -22.0847   -9.9618 O   0  0  0  0  0  0  0  0  0  0  0  0
  1  2  1  0
  2  3  1  0
  4  3  1  0
  5  4  1  0
  5  6  1  6
  7  5  1  0
  7 14  1  0
  8  7  2  0
 10  9  1  0
 10 11  1  0
 11 13  1  0
 11 12  1  1
 13 14  1  6
 15 21  1  0
 15 13  1  0
 16 15  2  0
 18 17  1  6
 18 20  1  0
 18 19  1  0
 20 21  1  6
 20 22  1  0
 22 23  1  0
 24 22  2  0
M  END
$$$$
