MIV.pdb
     RDKit          3D

 24 23  0  0  1  0  0  0  0  0999 V2000
   26.5959  -17.3838  -17.6891 C   0  0  0  0  0  0  0  0  0  0  0  0
   28.0021  -16.9621  -16.6815 S   0  0  0  0  0  0  0  0  0  0  0  0
   28.6511  -18.2778  -15.6942 C   0  0  0  0  0  0  0  0  0  0  0  0
   27.6296  -19.2288  -15.1813 C   0  0  0  0  0  0  0  0  0  0  0  0
   28.1912  -20.1933  -14.1965 C   0  0  2  0  0  0  0  0  0  0  0  0
   28.9944  -21.1723  -14.9092 N   0  0  0  0  0  0  0  0  0  0  0  0
   27.0980  -20.9632  -13.5042 C   0  0  0  0  0  0  0  0  0  0  0  0
   26.6825  -22.0078  -14.0176 O   0  0  0  0  0  0  0  0  0  0  0  0
   26.9908  -20.3900   -8.2347 C   0  0  0  0  0  0  0  0  0  0  0  0
   26.6932  -20.9877   -9.5600 C   0  0  0  0  0  0  0  0  0  0  0  0
   25.4451  -20.4195  -10.2133 C   0  0  2  0  0  0  0  0  0  0  0  0
   24.1991  -20.8396   -9.5223 C   0  0  0  0  0  0  0  0  0  0  0  0
   25.4584  -21.0383  -11.6227 C   0  0  2  0  0  0  0  0  0  0  0  0
   26.6245  -20.4183  -12.2970 N   0  0  0  0  0  0  0  0  0  0  0  0
   24.2682  -20.7144  -12.4114 C   0  0  0  0  0  0  0  0  0  0  0  0
   24.0668  -19.4844  -12.7329 O   0  0  0  0  0  0  0  0  0  0  0  0
   23.0864  -22.2027  -15.6653 C   0  0  0  0  0  0  0  0  0  0  0  0
   21.8625  -22.0707  -14.7712 C   0  0  2  0  0  0  0  0  0  0  0  0
   20.6925  -21.6832  -15.6208 C   0  0  0  0  0  0  0  0  0  0  0  0
   22.1340  -21.1295  -13.6514 C   0  0  2  0  0  0  0  0  0  0  0  0
   23.2836  -21.6121  -12.8812 N   0  0  0  0  0  0  0  0  0  0  0  0
   20.9370  -20.9967  -12.7860 C   0  0  0  0  0  0  0  0  0  0  0  0
   20.0824  -19.9284  -12.8754 O   0  0  0  0  0  0  0  0  0  0  0  0
   20.6823  -21.8927  -11.9304 O   0  0  0  0  0  0  0  0  0  0  0  0
  1  2  1  0
  2  3  1  0
  4  3  1  0
  5  4  1  0
  5  6  1  6
  7  5  1  0
  7 14  1  0
  8  7  2  0
 10  9  1  0
 10 11  1  0
 11 13  1  0
 11 12  1  1
 13 14  1  6
 15 21  1  0
 15 13  1  0
 16 15  2  0
 18 17  1  6
 18 20  1  0
 18 19  1  0
 20 21  1  1
 20 22  1  0
 22 23  1  0
 24 22  2  0
M  END
$$$$
