MIV.pdb
     RDKit          3D

 24 23  0  0  1  0  0  0  0  0999 V2000
   27.2231  -15.9353  -16.4194 C   0  0  0  0  0  0  0  0  0  0  0  0
   28.2435  -17.1530  -17.2233 S   0  0  0  0  0  0  0  0  0  0  0  0
   28.6648  -18.5605  -16.2391 C   0  0  0  0  0  0  0  0  0  0  0  0
   27.4994  -19.3041  -15.6915 C   0  0  0  0  0  0  0  0  0  0  0  0
   27.8997  -20.3534  -14.7148 C   0  0  2  0  0  0  0  0  0  0  0  0
   28.6251  -21.3954  -15.4215 N   0  0  0  0  0  0  0  0  0  0  0  0
   26.6941  -21.0155  -14.1021 C   0  0  0  0  0  0  0  0  0  0  0  0
   26.2001  -21.9995  -14.6636 O   0  0  0  0  0  0  0  0  0  0  0  0
   26.6316  -20.8242   -8.8234 C   0  0  0  0  0  0  0  0  0  0  0  0
   26.3346  -21.2076  -10.2259 C   0  0  0  0  0  0  0  0  0  0  0  0
   25.0999  -20.5264  -10.7907 C   0  0  2  0  0  0  0  0  0  0  0  0
   23.8556  -20.9271  -10.0853 C   0  0  0  0  0  0  0  0  0  0  0  0
   25.0313  -21.0413  -12.2398 C   0  0  2  0  0  0  0  0  0  0  0  0
   26.2137  -20.4468  -12.9088 N   0  0  0  0  0  0  0  0  0  0  0  0
   23.8409  -20.5887  -12.9621 C   0  0  0  0  0  0  0  0  0  0  0  0
   23.6697  -19.3229  -13.1213 O   0  0  0  0  0  0  0  0  0  0  0  0
   22.7518  -21.4489  -16.3923 C   0  0  0  0  0  0  0  0  0  0  0  0
   21.4983  -21.5162  -15.5327 C   0  0  2  0  0  0  0  0  0  0  0  0
   20.3417  -21.0120  -16.3382 C   0  0  0  0  0  0  0  0  0  0  0  0
   21.7050  -20.7886  -14.2515 C   0  0  2  0  0  0  0  0  0  0  0  0
   22.8262  -21.3933  -13.5267 N   0  0  0  0  0  0  0  0  0  0  0  0
   20.4685  -20.8212  -13.4332 C   0  0  0  0  0  0  0  0  0  0  0  0
   19.6111  -19.7540  -13.3574 O   0  0  0  0  0  0  0  0  0  0  0  0
   20.1814  -21.8632  -12.7764 O   0  0  0  0  0  0  0  0  0  0  0  0
  1  2  1  0
  2  3  1  0
  4  3  1  0
  5  4  1  0
  5  6  1  6
  7  5  1  0
  7 14  1  0
  8  7  2  0
 10  9  1  0
 10 11  1  0
 11 13  1  0
 11 12  1  1
 13 14  1  6
 15 21  1  0
 15 13  1  0
 16 15  2  0
 18 17  1  6
 18 20  1  0
 18 19  1  0
 20 21  1  1
 20 22  1  0
 22 23  1  0
 24 22  2  0
M  END
$$$$
