MIV.pdb
     RDKit          3D

 24 23  0  0  1  0  0  0  0  0999 V2000
   25.7725  -21.1657   -3.3044 C   0  0  0  0  0  0  0  0  0  0  0  0
   27.4236  -20.5552   -3.0376 S   0  0  0  0  0  0  0  0  0  0  0  0
   28.2921  -20.0524   -4.4936 C   0  0  0  0  0  0  0  0  0  0  0  0
   27.4961  -20.1300   -5.7471 C   0  0  0  0  0  0  0  0  0  0  0  0
   28.2774  -19.7196   -6.9456 C   0  0  2  0  0  0  0  0  0  0  0  0
   28.7327  -18.3524   -6.7592 N   0  0  0  0  0  0  0  0  0  0  0  0
   27.4172  -19.7165   -8.1815 C   0  0  0  0  0  0  0  0  0  0  0  0
   26.5865  -18.8138   -8.3316 O   0  0  0  0  0  0  0  0  0  0  0  0
   30.8687  -21.4332  -11.3531 C   0  0  0  0  0  0  0  0  0  0  0  0
   29.6573  -20.6661  -10.9704 C   0  0  0  0  0  0  0  0  0  0  0  0
   28.3590  -21.3889  -11.2857 C   0  0  2  0  0  0  0  0  0  0  0  0
   28.0280  -21.3595  -12.7334 C   0  0  0  0  0  0  0  0  0  0  0  0
   27.2966  -20.5781  -10.5217 C   0  0  2  0  0  0  0  0  0  0  0  0
   27.6331  -20.7682   -9.0901 N   0  0  0  0  0  0  0  0  0  0  0  0
   25.9327  -21.0704  -10.7242 C   0  0  0  0  0  0  0  0  0  0  0  0
   25.6292  -22.2319  -10.2600 O   0  0  0  0  0  0  0  0  0  0  0  0
   22.5818  -19.6156   -9.8891 C   0  0  0  0  0  0  0  0  0  0  0  0
   22.4817  -20.1316  -11.3168 C   0  0  2  0  0  0  0  0  0  0  0  0
   21.1169  -20.7129  -11.5177 C   0  0  0  0  0  0  0  0  0  0  0  0
   23.5908  -21.0797  -11.6075 C   0  0  2  0  0  0  0  0  0  0  0  0
   24.8737  -20.4073  -11.3835 N   0  0  0  0  0  0  0  0  0  0  0  0
   23.4926  -21.5787  -13.0006 C   0  0  0  0  0  0  0  0  0  0  0  0
   22.8051  -22.7200  -13.3239 O   0  0  0  0  0  0  0  0  0  0  0  0
   24.0578  -20.9396  -13.9343 O   0  0  0  0  0  0  0  0  0  0  0  0
  1  2  1  0
  2  3  1  0
  4  3  1  0
  5  4  1  0
  5  6  1  1
  7  5  1  0
  7 14  1  0
  8  7  2  0
 10  9  1  0
 10 11  1  0
 11 13  1  0
 11 12  1  6
 13 14  1  1
 15 21  1  0
 15 13  1  0
 16 15  2  0
 18 17  1  1
 18 20  1  0
 18 19  1  0
 20 21  1  6
 20 22  1  0
 22 23  1  0
 24 22  2  0
M  END
$$$$
