MIV.pdb
     RDKit          3D

 24 23  0  0  1  0  0  0  0  0999 V2000
   17.2263  -11.3078  -22.2111 C   0  0  0  0  0  0  0  0  0  0  0  0
   16.9795  -12.8685  -21.3905 S   0  0  0  0  0  0  0  0  0  0  0  0
   18.1673  -13.2667  -20.1424 C   0  0  0  0  0  0  0  0  0  0  0  0
   18.9080  -12.0983  -19.5974 C   0  0  0  0  0  0  0  0  0  0  0  0
   19.9234  -12.4894  -18.5819 C   0  0  2  0  0  0  0  0  0  0  0  0
   19.6856  -13.8690  -18.1925 N   0  0  0  0  0  0  0  0  0  0  0  0
   19.7867  -11.6646  -17.3296 C   0  0  0  0  0  0  0  0  0  0  0  0
   18.8409  -11.8865  -16.5656 O   0  0  0  0  0  0  0  0  0  0  0  0
   22.9977   -9.5372  -12.9149 C   0  0  0  0  0  0  0  0  0  0  0  0
   21.9020   -9.3030  -13.8879 C   0  0  0  0  0  0  0  0  0  0  0  0
   21.9682  -10.2114  -15.1036 C   0  0  2  0  0  0  0  0  0  0  0  0
   23.1672   -9.9542  -15.9419 C   0  0  0  0  0  0  0  0  0  0  0  0
   20.7134   -9.8314  -15.9103 C   0  0  2  0  0  0  0  0  0  0  0  0
   20.7718  -10.6820  -17.1235 N   0  0  0  0  0  0  0  0  0  0  0  0
   20.7053   -8.4348  -16.3497 C   0  0  0  0  0  0  0  0  0  0  0  0
   21.5505   -8.0752  -17.2514 O   0  0  0  0  0  0  0  0  0  0  0  0
   18.6961   -4.5249  -18.0273 C   0  0  0  0  0  0  0  0  0  0  0  0
   18.6895   -5.8984  -17.3730 C   0  0  2  0  0  0  0  0  0  0  0  0
   17.3935   -6.0716  -16.6440 C   0  0  0  0  0  0  0  0  0  0  0  0
   19.8928   -6.0733  -16.5157 C   0  0  2  0  0  0  0  0  0  0  0  0
   19.8566   -7.4007  -15.8956 N   0  0  0  0  0  0  0  0  0  0  0  0
   19.9512   -5.0099  -15.4835 C   0  0  0  0  0  0  0  0  0  0  0  0
   20.5155   -3.7839  -15.7250 O   0  0  0  0  0  0  0  0  0  0  0  0
   19.4676   -5.2268  -14.3352 O   0  0  0  0  0  0  0  0  0  0  0  0
  1  2  1  0
  2  3  1  0
  4  3  1  0
  5  4  1  0
  5  6  1  1
  7  5  1  0
  7 14  1  0
  8  7  2  0
 10  9  1  0
 10 11  1  0
 11 13  1  0
 11 12  1  6
 13 14  1  6
 15 21  1  0
 15 13  1  0
 16 15  2  0
 18 17  1  1
 18 20  1  0
 18 19  1  0
 20 21  1  1
 20 22  1  0
 22 23  1  0
 24 22  2  0
M  END
$$$$
