MIV.pdb
     RDKit          3D

 24 23  0  0  1  0  0  0  0  0999 V2000
   30.4723  -29.6275  -22.8718 C   0  0  0  0  0  0  0  0  0  0  0  0
   31.4882  -31.0584  -22.5709 S   0  0  0  0  0  0  0  0  0  0  0  0
   32.6611  -30.8949  -21.2576 C   0  0  0  0  0  0  0  0  0  0  0  0
   32.2155  -30.0289  -20.1340 C   0  0  0  0  0  0  0  0  0  0  0  0
   33.3558  -29.4291  -19.3889 C   0  0  2  0  0  0  0  0  0  0  0  0
   34.0378  -30.4814  -18.6548 N   0  0  0  0  0  0  0  0  0  0  0  0
   32.8746  -28.4380  -18.3625 C   0  0  0  0  0  0  0  0  0  0  0  0
   32.7101  -28.8140  -17.1967 O   0  0  0  0  0  0  0  0  0  0  0  0
   35.3184  -24.0405  -18.2193 C   0  0  0  0  0  0  0  0  0  0  0  0
   34.3684  -25.1319  -17.8900 C   0  0  0  0  0  0  0  0  0  0  0  0
   32.9314  -24.8180  -18.2692 C   0  0  2  0  0  0  0  0  0  0  0  0
   32.3760  -23.6753  -17.4996 C   0  0  0  0  0  0  0  0  0  0  0  0
   32.1647  -26.0940  -17.8772 C   0  0  2  0  0  0  0  0  0  0  0  0
   32.6446  -27.1294  -18.8241 N   0  0  0  0  0  0  0  0  0  0  0  0
   30.7153  -25.9771  -18.0476 C   0  0  0  0  0  0  0  0  0  0  0  0
   30.2475  -25.8924  -19.2437 O   0  0  0  0  0  0  0  0  0  0  0  0
   27.9499  -28.2121  -17.1121 C   0  0  0  0  0  0  0  0  0  0  0  0
   27.5217  -26.8240  -16.6602 C   0  0  2  0  0  0  0  0  0  0  0  0
   26.0431  -26.6953  -16.8555 C   0  0  0  0  0  0  0  0  0  0  0  0
   28.3166  -25.7793  -17.3605 C   0  0  2  0  0  0  0  0  0  0  0  0
   29.7347  -25.9479  -17.0310 N   0  0  0  0  0  0  0  0  0  0  0  0
   27.8431  -24.4267  -16.9787 C   0  0  0  0  0  0  0  0  0  0  0  0
   26.9557  -23.7169  -17.7458 O   0  0  0  0  0  0  0  0  0  0  0  0
   28.2639  -23.8961  -15.9106 O   0  0  0  0  0  0  0  0  0  0  0  0
  1  2  1  0
  2  3  1  0
  4  3  1  0
  5  4  1  0
  5  6  1  1
  7  5  1  0
  7 14  1  0
  8  7  2  0
 10  9  1  0
 10 11  1  0
 11 13  1  0
 11 12  1  1
 13 14  1  6
 15 21  1  0
 15 13  1  0
 16 15  2  0
 18 17  1  6
 18 20  1  0
 18 19  1  0
 20 21  1  1
 20 22  1  0
 22 23  1  0
 24 22  2  0
M  END
$$$$
