YFD.pdb
     RDKit          3D

 32 33  0  0  1  0  0  0  0  0999 V2000
   25.4369   -2.9911  -24.0594 O   0  0  0  0  0  0  0  0  0  0  0  0
   24.6716   -3.7250  -23.1633 C   0  0  0  0  0  0  0  0  0  0  0  0
   24.2640   -4.9890  -23.5158 C   0  0  0  0  0  0  0  0  0  0  0  0
   23.5029   -5.7148  -22.6142 C   0  0  0  0  0  0  0  0  0  0  0  0
   23.1385   -5.2273  -21.3887 C   0  0  0  0  0  0  0  0  0  0  0  0
   22.3086   -6.0278  -20.4563 C   0  0  0  0  0  0  0  0  0  0  0  0
   23.1595   -6.7811  -19.4998 C   0  0  2  0  0  0  0  0  0  0  0  0
   23.9798   -7.7617  -20.1852 N   0  0  0  0  0  0  0  0  0  0  0  0
   22.4396   -7.4040  -18.3597 C   0  0  0  0  0  0  0  0  0  0  0  0
   21.9597   -8.5472  -18.4158 O   0  0  0  0  0  0  0  0  0  0  0  0
   23.5345   -3.9695  -21.0183 C   0  0  0  0  0  0  0  0  0  0  0  0
   24.3054   -3.2184  -21.9126 C   0  0  0  0  0  0  0  0  0  0  0  0
   22.2936   -6.6553  -17.1523 N   0  0  0  0  0  0  0  0  0  0  0  0
   21.6862   -7.1354  -15.9552 C   0  0  1  0  0  0  0  0  0  0  0  0
   22.6921   -7.0880  -14.8350 C   0  0  0  0  0  0  0  0  0  0  0  0
   23.6898   -8.1713  -15.0079 C   0  0  0  0  0  0  0  0  0  0  0  0
   23.4720   -9.4080  -14.4373 C   0  0  0  0  0  0  0  0  0  0  0  0
   24.3927  -10.4380  -14.5818 C   0  0  0  0  0  0  0  0  0  0  0  0
   25.5455  -10.2202  -15.3127 C   0  0  0  0  0  0  0  0  0  0  0  0
   25.7701   -8.9997  -15.8819 C   0  0  0  0  0  0  0  0  0  0  0  0
   24.8552   -7.9829  -15.7328 C   0  0  0  0  0  0  0  0  0  0  0  0
   20.4001   -6.4661  -15.6216 C   0  0  0  0  0  0  0  0  0  0  0  0
   20.4510   -5.2751  -15.2414 O   0  0  0  0  0  0  0  0  0  0  0  0
   19.1314   -7.0664  -15.6928 N   0  0  0  0  0  0  0  0  0  0  0  0
   17.8899   -6.3833  -15.3352 C   0  0  1  0  0  0  0  0  0  0  0  0
   16.6846   -6.9383  -15.9999 C   0  0  0  0  0  0  0  0  0  0  0  0
   16.7692   -6.8872  -17.4550 C   0  0  0  0  0  0  0  0  0  0  0  0
   16.5285   -7.9680  -18.0887 O   0  0  0  0  0  0  0  0  0  0  0  0
   17.7290   -6.3661  -13.8540 C   0  0  0  0  0  0  0  0  0  0  0  0
   16.7234   -5.6559  -13.2102 O   0  0  0  0  0  0  0  0  0  0  0  0
   17.0843   -5.7681  -18.1899 O   0  0  0  0  0  0  0  0  0  0  0  0
   18.5154   -7.0065  -13.1218 O   0  0  0  0  0  0  0  0  0  0  0  0
  2  1  1  0
  3  2  2  0
  4  3  1  0
  5  4  2  0
  5 11  1  0
  6  5  1  0
  7  9  1  0
  7  6  1  0
  7  8  1  6
  9 10  2  0
 11 12  2  0
 12  2  1  0
 13 14  1  0
 13  9  1  0
 14 15  1  1
 16 21  1  0
 16 15  1  0
 17 16  2  0
 18 19  2  0
 18 17  1  0
 19 20  1  0
 20 21  2  0
 22 14  1  0
 23 22  2  0
 24 22  1  0
 25 29  1  0
 25 24  1  0
 25 26  1  6
 27 26  1  0
 28 27  2  0
 29 30  1  0
 31 27  1  0
 32 29  2  0
M  END
$$$$
