YFD.pdb
     RDKit          3D

 32 33  0  0  1  0  0  0  0  0999 V2000
   29.6265  -20.0140  -22.9424 O   0  0  0  0  0  0  0  0  0  0  0  0
   28.8871  -20.4815  -21.8645 C   0  0  0  0  0  0  0  0  0  0  0  0
   28.5245  -21.8065  -21.8310 C   0  0  0  0  0  0  0  0  0  0  0  0
   27.7890  -22.2645  -20.7501 C   0  0  0  0  0  0  0  0  0  0  0  0
   27.4071  -21.4547  -19.7153 C   0  0  0  0  0  0  0  0  0  0  0  0
   26.6055  -21.9777  -18.5827 C   0  0  0  0  0  0  0  0  0  0  0  0
   27.4484  -22.1577  -17.3729 C   0  0  2  0  0  0  0  0  0  0  0  0
   28.4712  -23.1632  -17.5896 N   0  0  0  0  0  0  0  0  0  0  0  0
   26.7076  -22.4256  -16.1137 C   0  0  0  0  0  0  0  0  0  0  0  0
   26.2662  -23.5486  -15.8233 O   0  0  0  0  0  0  0  0  0  0  0  0
   27.7583  -20.1310  -19.7298 C   0  0  0  0  0  0  0  0  0  0  0  0
   28.5027  -19.6462  -20.8111 C   0  0  0  0  0  0  0  0  0  0  0  0
   26.4946  -21.3463  -15.2031 N   0  0  0  0  0  0  0  0  0  0  0  0
   25.7439  -21.4265  -13.9937 C   0  0  1  0  0  0  0  0  0  0  0  0
   26.2826  -20.4230  -13.0079 C   0  0  0  0  0  0  0  0  0  0  0  0
   25.5352  -20.5204  -11.7309 C   0  0  0  0  0  0  0  0  0  0  0  0
   24.3497  -19.8338  -11.5708 C   0  0  0  0  0  0  0  0  0  0  0  0
   23.6327  -19.9059  -10.3832 C   0  0  0  0  0  0  0  0  0  0  0  0
   24.1144  -20.6817   -9.3456 C   0  0  0  0  0  0  0  0  0  0  0  0
   25.2866  -21.3655   -9.4945 C   0  0  0  0  0  0  0  0  0  0  0  0
   25.9933  -21.2878  -10.6725 C   0  0  0  0  0  0  0  0  0  0  0  0
   24.2724  -21.3289  -14.1902 C   0  0  0  0  0  0  0  0  0  0  0  0
   23.8405  -20.3497  -14.8385 O   0  0  0  0  0  0  0  0  0  0  0  0
   23.3264  -22.2453  -13.7000 N   0  0  0  0  0  0  0  0  0  0  0  0
   21.8814  -22.0556  -13.8093 C   0  0  1  0  0  0  0  0  0  0  0  0
   21.1040  -23.3192  -13.7712 C   0  0  0  0  0  0  0  0  0  0  0  0
   19.6728  -23.1065  -13.9537 C   0  0  0  0  0  0  0  0  0  0  0  0
   19.3183  -22.3131  -14.8877 O   0  0  0  0  0  0  0  0  0  0  0  0
   21.4144  -21.1035  -12.7627 C   0  0  0  0  0  0  0  0  0  0  0  0
   20.7686  -19.9097  -13.0595 O   0  0  0  0  0  0  0  0  0  0  0  0
   18.6837  -23.6953  -13.2009 O   0  0  0  0  0  0  0  0  0  0  0  0
   21.5940  -21.3534  -11.5502 O   0  0  0  0  0  0  0  0  0  0  0  0
  2  1  1  0
  3  2  2  0
  4  3  1  0
  5  4  2  0
  5 11  1  0
  6  5  1  0
  7  9  1  0
  7  6  1  0
  7  8  1  6
  9 10  2  0
 11 12  2  0
 12  2  1  0
 13 14  1  0
 13  9  1  0
 14 15  1  1
 16 21  1  0
 16 15  1  0
 17 16  2  0
 18 19  2  0
 18 17  1  0
 19 20  1  0
 20 21  2  0
 22 14  1  0
 23 22  2  0
 24 22  1  0
 25 29  1  0
 25 24  1  0
 25 26  1  1
 27 26  1  0
 28 27  2  0
 29 30  1  0
 31 27  1  0
 32 29  2  0
M  END
$$$$
