YFD.pdb
     RDKit          3D

 32 33  0  0  1  0  0  0  0  0999 V2000
   21.2017  -13.4682  -21.2910 O   0  0  0  0  0  0  0  0  0  0  0  0
   21.1137  -14.5927  -20.4817 C   0  0  0  0  0  0  0  0  0  0  0  0
   21.1857  -15.8366  -21.0611 C   0  0  0  0  0  0  0  0  0  0  0  0
   21.0996  -16.9529  -20.2453 C   0  0  0  0  0  0  0  0  0  0  0  0
   20.9450  -16.8705  -18.8882 C   0  0  0  0  0  0  0  0  0  0  0  0
   20.8400  -18.0886  -18.0491 C   0  0  0  0  0  0  0  0  0  0  0  0
   22.1851  -18.6296  -17.7261 C   0  0  2  0  0  0  0  0  0  0  0  0
   22.8337  -19.1658  -18.9076 N   0  0  0  0  0  0  0  0  0  0  0  0
   22.2269  -19.6121  -16.6129 C   0  0  0  0  0  0  0  0  0  0  0  0
   22.1796  -20.8380  -16.8006 O   0  0  0  0  0  0  0  0  0  0  0  0
   20.8709  -15.6400  -18.2913 C   0  0  0  0  0  0  0  0  0  0  0  0
   20.9570  -14.4981  -19.0955 C   0  0  0  0  0  0  0  0  0  0  0  0
   22.3239  -19.1245  -15.2741 N   0  0  0  0  0  0  0  0  0  0  0  0
   22.3332  -19.9360  -14.1020 C   0  0  1  0  0  0  0  0  0  0  0  0
   23.0977  -19.2277  -13.0144 C   0  0  0  0  0  0  0  0  0  0  0  0
   23.1123  -20.0584  -11.7862 C   0  0  0  0  0  0  0  0  0  0  0  0
   24.0985  -21.0055  -11.6050 C   0  0  0  0  0  0  0  0  0  0  0  0
   24.1321  -21.7984  -10.4649 C   0  0  0  0  0  0  0  0  0  0  0  0
   23.1621  -21.6330   -9.4942 C   0  0  0  0  0  0  0  0  0  0  0  0
   22.1819  -20.6979   -9.6641 C   0  0  0  0  0  0  0  0  0  0  0  0
   22.1529  -19.9174  -10.7969 C   0  0  0  0  0  0  0  0  0  0  0  0
   20.9833  -20.3913  -13.6734 C   0  0  0  0  0  0  0  0  0  0  0  0
   20.1289  -19.5111  -13.4263 O   0  0  0  0  0  0  0  0  0  0  0  0
   20.5916  -21.7319  -13.5170 N   0  0  0  0  0  0  0  0  0  0  0  0
   19.2452  -22.1427  -13.1240 C   0  0  1  0  0  0  0  0  0  0  0  0
   18.6811  -23.2328  -13.9583 C   0  0  0  0  0  0  0  0  0  0  0  0
   17.2747  -23.4917  -13.6721 C   0  0  0  0  0  0  0  0  0  0  0  0
   16.7133  -22.7484  -12.8005 O   0  0  0  0  0  0  0  0  0  0  0  0
   19.2272  -22.5053  -11.6789 C   0  0  0  0  0  0  0  0  0  0  0  0
   18.1795  -22.1741  -10.8287 O   0  0  0  0  0  0  0  0  0  0  0  0
   16.5132  -24.4690  -14.2696 O   0  0  0  0  0  0  0  0  0  0  0  0
   20.1802  -23.1354  -11.1697 O   0  0  0  0  0  0  0  0  0  0  0  0
  2  1  1  0
  3  2  2  0
  4  3  1  0
  5  4  2  0
  5 11  1  0
  6  5  1  0
  7  9  1  0
  7  6  1  0
  7  8  1  6
  9 10  2  0
 11 12  2  0
 12  2  1  0
 13 14  1  0
 13  9  1  0
 14 15  1  1
 16 21  1  0
 16 15  1  0
 17 16  2  0
 18 19  2  0
 18 17  1  0
 19 20  1  0
 20 21  2  0
 22 14  1  0
 23 22  2  0
 24 22  1  0
 25 29  1  0
 25 24  1  0
 25 26  1  6
 27 26  1  0
 28 27  2  0
 29 30  1  0
 31 27  1  0
 32 29  2  0
M  END
$$$$
