YFD.pdb
     RDKit          3D

 32 33  0  0  1  0  0  0  0  0999 V2000
   28.4375  -17.0188  -21.4607 O   0  0  0  0  0  0  0  0  0  0  0  0
   27.8616  -17.9065  -20.5622 C   0  0  0  0  0  0  0  0  0  0  0  0
   28.2572  -19.2224  -20.5807 C   0  0  0  0  0  0  0  0  0  0  0  0
   27.6790  -20.1004  -19.6787 C   0  0  0  0  0  0  0  0  0  0  0  0
   26.7305  -19.7145  -18.7710 C   0  0  0  0  0  0  0  0  0  0  0  0
   26.1218  -20.6871  -17.8316 C   0  0  0  0  0  0  0  0  0  0  0  0
   26.8815  -20.7417  -16.5563 C   0  0  2  0  0  0  0  0  0  0  0  0
   28.1214  -21.4777  -16.7141 N   0  0  0  0  0  0  0  0  0  0  0  0
   26.1210  -21.2403  -15.3819 C   0  0  0  0  0  0  0  0  0  0  0  0
   26.0343  -22.4469  -15.1044 O   0  0  0  0  0  0  0  0  0  0  0  0
   26.3224  -18.4075  -18.7364 C   0  0  0  0  0  0  0  0  0  0  0  0
   26.8939  -17.5022  -19.6375 C   0  0  0  0  0  0  0  0  0  0  0  0
   25.4629  -20.2921  -14.5409 N   0  0  0  0  0  0  0  0  0  0  0  0
   24.8142  -20.5967  -13.3085 C   0  0  1  0  0  0  0  0  0  0  0  0
   25.3270  -19.6715  -12.2361 C   0  0  0  0  0  0  0  0  0  0  0  0
   26.6301  -20.1635  -11.7273 C   0  0  0  0  0  0  0  0  0  0  0  0
   26.7469  -20.5808  -10.4179 C   0  0  0  0  0  0  0  0  0  0  0  0
   27.9572  -21.0426   -9.9165 C   0  0  0  0  0  0  0  0  0  0  0  0
   29.0625  -21.0874  -10.7453 C   0  0  0  0  0  0  0  0  0  0  0  0
   28.9569  -20.6771  -12.0431 C   0  0  0  0  0  0  0  0  0  0  0  0
   27.7557  -20.2183  -12.5329 C   0  0  0  0  0  0  0  0  0  0  0  0
   23.3296  -20.6277  -13.4003 C   0  0  0  0  0  0  0  0  0  0  0  0
   22.7649  -19.6542  -13.9471 O   0  0  0  0  0  0  0  0  0  0  0  0
   22.5087  -21.6604  -12.9158 N   0  0  0  0  0  0  0  0  0  0  0  0
   21.0483  -21.6053  -12.9208 C   0  0  1  0  0  0  0  0  0  0  0  0
   20.3959  -22.9115  -12.6553 C   0  0  0  0  0  0  0  0  0  0  0  0
   20.4775  -23.8238  -13.7902 C   0  0  0  0  0  0  0  0  0  0  0  0
   21.0045  -23.3726  -14.8608 O   0  0  0  0  0  0  0  0  0  0  0  0
   20.5769  -20.5631  -11.9661 C   0  0  0  0  0  0  0  0  0  0  0  0
   21.3832  -20.0312  -10.9675 O   0  0  0  0  0  0  0  0  0  0  0  0
   20.0341  -25.1258  -13.7915 O   0  0  0  0  0  0  0  0  0  0  0  0
   19.4084  -20.1216  -12.0330 O   0  0  0  0  0  0  0  0  0  0  0  0
  2  1  1  0
  3  2  2  0
  4  3  1  0
  5  4  2  0
  5 11  1  0
  6  5  1  0
  7  9  1  0
  7  6  1  0
  7  8  1  6
  9 10  2  0
 11 12  2  0
 12  2  1  0
 13 14  1  0
 13  9  1  0
 14 15  1  1
 16 21  1  0
 16 15  1  0
 17 16  2  0
 18 19  2  0
 18 17  1  0
 19 20  1  0
 20 21  2  0
 22 14  1  0
 23 22  2  0
 24 22  1  0
 25 29  1  0
 25 24  1  0
 25 26  1  1
 27 26  1  0
 28 27  2  0
 29 30  1  0
 31 27  1  0
 32 29  2  0
M  END
$$$$
