YFD.pdb
     RDKit          3D

 32 33  0  0  1  0  0  0  0  0999 V2000
   27.2424  -42.3811    4.0358 O   0  0  0  0  0  0  0  0  0  0  0  0
   27.5468  -41.1540    4.6091 C   0  0  0  0  0  0  0  0  0  0  0  0
   28.3532  -41.1209    5.7212 C   0  0  0  0  0  0  0  0  0  0  0  0
   28.6536  -39.8916    6.2849 C   0  0  0  0  0  0  0  0  0  0  0  0
   28.1813  -38.7095    5.7831 C   0  0  0  0  0  0  0  0  0  0  0  0
   28.5112  -37.4135    6.4239 C   0  0  0  0  0  0  0  0  0  0  0  0
   29.1707  -36.4960    5.4597 C   0  0  2  0  0  0  0  0  0  0  0  0
   30.4511  -37.0215    5.0255 N   0  0  0  0  0  0  0  0  0  0  0  0
   29.3073  -35.0876    5.9110 C   0  0  0  0  0  0  0  0  0  0  0  0
   30.2260  -34.7097    6.6551 O   0  0  0  0  0  0  0  0  0  0  0  0
   27.3759  -38.7208    4.6754 C   0  0  0  0  0  0  0  0  0  0  0  0
   27.0602  -39.9511    4.0881 C   0  0  0  0  0  0  0  0  0  0  0  0
   28.3412  -34.1321    5.4714 N   0  0  0  0  0  0  0  0  0  0  0  0
   28.2892  -32.7673    5.8802 C   0  0  1  0  0  0  0  0  0  0  0  0
   27.9429  -31.9068    4.6933 C   0  0  0  0  0  0  0  0  0  0  0  0
   27.8794  -30.4836    5.1046 C   0  0  0  0  0  0  0  0  0  0  0  0
   29.0158  -29.8432    5.5528 C   0  0  0  0  0  0  0  0  0  0  0  0
   28.9818  -28.5116    5.9470 C   0  0  0  0  0  0  0  0  0  0  0  0
   27.7889  -27.8160    5.8858 C   0  0  0  0  0  0  0  0  0  0  0  0
   26.6587  -28.4408    5.4431 C   0  0  0  0  0  0  0  0  0  0  0  0
   26.6987  -29.7607    5.0565 C   0  0  0  0  0  0  0  0  0  0  0  0
   27.4157  -32.5243    7.0597 C   0  0  0  0  0  0  0  0  0  0  0  0
   26.2117  -32.8512    6.9632 O   0  0  0  0  0  0  0  0  0  0  0  0
   27.8327  -31.9504    8.2728 N   0  0  0  0  0  0  0  0  0  0  0  0
   26.9425  -31.7189    9.4086 C   0  0  1  0  0  0  0  0  0  0  0  0
   27.5530  -32.0303   10.7250 C   0  0  0  0  0  0  0  0  0  0  0  0
   27.8497  -33.4489   10.8875 C   0  0  0  0  0  0  0  0  0  0  0  0
   27.2678  -34.2586   10.0917 O   0  0  0  0  0  0  0  0  0  0  0  0
   26.4253  -30.3220    9.3710 C   0  0  0  0  0  0  0  0  0  0  0  0
   26.6685  -29.4531    8.3146 O   0  0  0  0  0  0  0  0  0  0  0  0
   28.7061  -33.9750   11.8265 O   0  0  0  0  0  0  0  0  0  0  0  0
   25.7378  -29.8731   10.3148 O   0  0  0  0  0  0  0  0  0  0  0  0
  2  1  1  0
  3  2  2  0
  4  3  1  0
  5  4  2  0
  5 11  1  0
  6  5  1  0
  7  9  1  0
  7  6  1  0
  7  8  1  1
  9 10  2  0
 11 12  2  0
 12  2  1  0
 13 14  1  0
 13  9  1  0
 14 15  1  6
 16 21  1  0
 16 15  1  0
 17 16  2  0
 18 19  2  0
 18 17  1  0
 19 20  1  0
 20 21  2  0
 22 14  1  0
 23 22  2  0
 24 22  1  0
 25 29  1  0
 25 24  1  0
 25 26  1  1
 27 26  1  0
 28 27  2  0
 29 30  1  0
 31 27  1  0
 32 29  2  0
M  END
$$$$
