YFD.pdb
     RDKit          3D

 32 33  0  0  1  0  0  0  0  0999 V2000
   23.4433    2.8478  -21.5980 O   0  0  0  0  0  0  0  0  0  0  0  0
   23.1901    1.5342  -21.2271 C   0  0  0  0  0  0  0  0  0  0  0  0
   23.4502    0.5273  -22.1253 C   0  0  0  0  0  0  0  0  0  0  0  0
   23.1968   -0.7805  -21.7455 C   0  0  0  0  0  0  0  0  0  0  0  0
   22.6979   -1.1130  -20.5155 C   0  0  0  0  0  0  0  0  0  0  0  0
   22.4237   -2.5239  -20.1506 C   0  0  0  0  0  0  0  0  0  0  0  0
   23.6548   -3.1954  -19.6606 C   0  0  2  0  0  0  0  0  0  0  0  0
   24.6619   -3.2718  -20.7018 N   0  0  0  0  0  0  0  0  0  0  0  0
   23.4485   -4.5249  -19.0314 C   0  0  0  0  0  0  0  0  0  0  0  0
   23.3370   -5.5685  -19.6940 O   0  0  0  0  0  0  0  0  0  0  0  0
   22.4317   -0.1242  -19.6060 C   0  0  0  0  0  0  0  0  0  0  0  0
   22.6812    1.2045  -19.9672 C   0  0  0  0  0  0  0  0  0  0  0  0
   23.3743   -4.6032  -17.6074 N   0  0  0  0  0  0  0  0  0  0  0  0
   23.1482   -5.7959  -16.8599 C   0  0  1  0  0  0  0  0  0  0  0  0
   24.1091   -5.8447  -15.7009 C   0  0  0  0  0  0  0  0  0  0  0  0
   23.9195   -7.1045  -14.9422 C   0  0  0  0  0  0  0  0  0  0  0  0
   23.0632   -7.1373  -13.8613 C   0  0  0  0  0  0  0  0  0  0  0  0
   22.8710   -8.3040  -13.1324 C   0  0  0  0  0  0  0  0  0  0  0  0
   23.5474   -9.4524  -13.4988 C   0  0  0  0  0  0  0  0  0  0  0  0
   24.3967   -9.4303  -14.5674 C   0  0  0  0  0  0  0  0  0  0  0  0
   24.5846   -8.2707  -15.2838 C   0  0  0  0  0  0  0  0  0  0  0  0
   21.7296   -5.9959  -16.4586 C   0  0  0  0  0  0  0  0  0  0  0  0
   21.1584   -5.0521  -15.8682 O   0  0  0  0  0  0  0  0  0  0  0  0
   20.9803   -7.1634  -16.6836 N   0  0  0  0  0  0  0  0  0  0  0  0
   19.5761   -7.3109  -16.3064 C   0  0  1  0  0  0  0  0  0  0  0  0
   18.6975   -7.7523  -17.4180 C   0  0  0  0  0  0  0  0  0  0  0  0
   17.2938   -7.8310  -17.0302 C   0  0  0  0  0  0  0  0  0  0  0  0
   17.0038   -7.5062  -15.8311 O   0  0  0  0  0  0  0  0  0  0  0  0
   19.4593   -8.2213  -15.1327 C   0  0  0  0  0  0  0  0  0  0  0  0
   18.7349   -7.8969  -13.9924 O   0  0  0  0  0  0  0  0  0  0  0  0
   16.2663   -8.2242  -17.8557 O   0  0  0  0  0  0  0  0  0  0  0  0
   20.0253   -9.3369  -15.1347 O   0  0  0  0  0  0  0  0  0  0  0  0
  2  1  1  0
  3  2  2  0
  4  3  1  0
  5  4  2  0
  5 11  1  0
  6  5  1  0
  7  9  1  0
  7  6  1  0
  7  8  1  6
  9 10  2  0
 11 12  2  0
 12  2  1  0
 13 14  1  0
 13  9  1  0
 14 15  1  1
 16 21  1  0
 16 15  1  0
 17 16  2  0
 18 19  2  0
 18 17  1  0
 19 20  1  0
 20 21  2  0
 22 14  1  0
 23 22  2  0
 24 22  1  0
 25 29  1  0
 25 24  1  0
 25 26  1  6
 27 26  1  0
 28 27  2  0
 29 30  1  0
 31 27  1  0
 32 29  2  0
M  END
$$$$
