YFD.pdb
     RDKit          3D

 32 33  0  0  1  0  0  0  0  0999 V2000
   30.3542  -17.2036  -18.3982 O   0  0  0  0  0  0  0  0  0  0  0  0
   29.4314  -17.9154  -17.6439 C   0  0  0  0  0  0  0  0  0  0  0  0
   29.3558  -19.2788  -17.7986 C   0  0  0  0  0  0  0  0  0  0  0  0
   28.4338  -19.9811  -17.0398 C   0  0  0  0  0  0  0  0  0  0  0  0
   27.5946  -19.3761  -16.1442 C   0  0  0  0  0  0  0  0  0  0  0  0
   26.6085  -20.1595  -15.3614 C   0  0  0  0  0  0  0  0  0  0  0  0
   27.1001  -20.4063  -13.9816 C   0  0  2  0  0  0  0  0  0  0  0  0
   28.3137  -21.2008  -13.9902 N   0  0  0  0  0  0  0  0  0  0  0  0
   26.1031  -20.9813  -13.0427 C   0  0  0  0  0  0  0  0  0  0  0  0
   25.9454  -22.2042  -12.9008 O   0  0  0  0  0  0  0  0  0  0  0  0
   27.6539  -18.0182  -15.9754 C   0  0  0  0  0  0  0  0  0  0  0  0
   28.5789  -17.2882  -16.7302 C   0  0  0  0  0  0  0  0  0  0  0  0
   25.2937  -20.0898  -12.2748 N   0  0  0  0  0  0  0  0  0  0  0  0
   24.2300  -20.4824  -11.4106 C   0  0  1  0  0  0  0  0  0  0  0  0
   24.1421  -19.5137  -10.2604 C   0  0  0  0  0  0  0  0  0  0  0  0
   25.1366  -19.8741   -9.2213 C   0  0  0  0  0  0  0  0  0  0  0  0
   25.9290  -18.8971   -8.6557 C   0  0  0  0  0  0  0  0  0  0  0  0
   26.8702  -19.2095   -7.6831 C   0  0  0  0  0  0  0  0  0  0  0  0
   27.0126  -20.5218   -7.2730 C   0  0  0  0  0  0  0  0  0  0  0  0
   26.2326  -21.4961   -7.8264 C   0  0  0  0  0  0  0  0  0  0  0  0
   25.3039  -21.1803   -8.7913 C   0  0  0  0  0  0  0  0  0  0  0  0
   22.9322  -20.6895  -12.1079 C   0  0  0  0  0  0  0  0  0  0  0  0
   22.6683  -19.9363  -13.0716 O   0  0  0  0  0  0  0  0  0  0  0  0
   21.9743  -21.6596  -11.7668 N   0  0  0  0  0  0  0  0  0  0  0  0
   20.6958  -21.8147  -12.4575 C   0  0  1  0  0  0  0  0  0  0  0  0
   19.9492  -23.0386  -12.0741 C   0  0  0  0  0  0  0  0  0  0  0  0
   18.6805  -23.1700  -12.7812 C   0  0  0  0  0  0  0  0  0  0  0  0
   17.6704  -22.5762  -12.2766 O   0  0  0  0  0  0  0  0  0  0  0  0
   19.8642  -20.5934  -12.2652 C   0  0  0  0  0  0  0  0  0  0  0  0
   19.0510  -20.0670  -13.2612 O   0  0  0  0  0  0  0  0  0  0  0  0
   18.4936  -23.8792  -13.9448 O   0  0  0  0  0  0  0  0  0  0  0  0
   19.8716  -19.9849  -11.1724 O   0  0  0  0  0  0  0  0  0  0  0  0
  2  1  1  0
  3  2  2  0
  4  3  1  0
  5  4  2  0
  5 11  1  0
  6  5  1  0
  7  9  1  0
  7  6  1  0
  7  8  1  6
  9 10  2  0
 11 12  2  0
 12  2  1  0
 13 14  1  0
 13  9  1  0
 14 15  1  1
 16 21  1  0
 16 15  1  0
 17 16  2  0
 18 19  2  0
 18 17  1  0
 19 20  1  0
 20 21  2  0
 22 14  1  0
 23 22  2  0
 24 22  1  0
 25 29  1  0
 25 24  1  0
 25 26  1  1
 27 26  1  0
 28 27  2  0
 29 30  1  0
 31 27  1  0
 32 29  2  0
M  END
$$$$
