YFD.pdb
     RDKit          3D

 32 33  0  0  1  0  0  0  0  0999 V2000
   24.6507  -31.4048   -9.2568 O   0  0  0  0  0  0  0  0  0  0  0  0
   25.5252  -31.9805   -8.3452 C   0  0  0  0  0  0  0  0  0  0  0  0
   25.0358  -32.4150   -7.1369 C   0  0  0  0  0  0  0  0  0  0  0  0
   25.9153  -32.9905   -6.2346 C   0  0  0  0  0  0  0  0  0  0  0  0
   27.2501  -33.1441   -6.4938 C   0  0  0  0  0  0  0  0  0  0  0  0
   28.1643  -33.7502   -5.4960 C   0  0  0  0  0  0  0  0  0  0  0  0
   28.9004  -34.9012   -6.0790 C   0  0  2  0  0  0  0  0  0  0  0  0
   27.9870  -35.8889   -6.6215 N   0  0  0  0  0  0  0  0  0  0  0  0
   29.8947  -35.5429   -5.1816 C   0  0  0  0  0  0  0  0  0  0  0  0
   29.6535  -36.5852   -4.5525 O   0  0  0  0  0  0  0  0  0  0  0  0
   27.7578  -32.7174   -7.6922 C   0  0  0  0  0  0  0  0  0  0  0  0
   26.8875  -32.1342   -8.6200 C   0  0  0  0  0  0  0  0  0  0  0  0
   31.1783  -34.9338   -5.0369 N   0  0  0  0  0  0  0  0  0  0  0  0
   32.2072  -35.3824   -4.1580 C   0  0  1  0  0  0  0  0  0  0  0  0
   33.4876  -34.6583   -4.4825 C   0  0  0  0  0  0  0  0  0  0  0  0
   34.6202  -35.2919   -3.7653 C   0  0  0  0  0  0  0  0  0  0  0  0
   34.9909  -34.8333   -2.5183 C   0  0  0  0  0  0  0  0  0  0  0  0
   36.0504  -35.4076   -1.8275 C   0  0  0  0  0  0  0  0  0  0  0  0
   36.7428  -36.4588   -2.3986 C   0  0  0  0  0  0  0  0  0  0  0  0
   36.3833  -36.9203   -3.6322 C   0  0  0  0  0  0  0  0  0  0  0  0
   35.3344  -36.3453   -4.3123 C   0  0  0  0  0  0  0  0  0  0  0  0
   31.8409  -35.3158   -2.7176 C   0  0  0  0  0  0  0  0  0  0  0  0
   31.4294  -34.2194   -2.2769 O   0  0  0  0  0  0  0  0  0  0  0  0
   31.9262  -36.3846   -1.8091 N   0  0  0  0  0  0  0  0  0  0  0  0
   31.5699  -36.2779   -0.3957 C   0  0  1  0  0  0  0  0  0  0  0  0
   30.4793  -37.1941    0.0209 C   0  0  0  0  0  0  0  0  0  0  0  0
   29.1530  -36.6541   -0.2550 C   0  0  0  0  0  0  0  0  0  0  0  0
   28.9800  -35.4067   -0.0509 O   0  0  0  0  0  0  0  0  0  0  0  0
   32.7833  -36.4649    0.4486 C   0  0  0  0  0  0  0  0  0  0  0  0
   33.0710  -35.6655    1.5479 O   0  0  0  0  0  0  0  0  0  0  0  0
   28.0829  -37.3838   -0.7180 O   0  0  0  0  0  0  0  0  0  0  0  0
   33.6055  -37.3710    0.1881 O   0  0  0  0  0  0  0  0  0  0  0  0
  2  1  1  0
  3  2  2  0
  4  3  1  0
  5  4  2  0
  5 11  1  0
  6  5  1  0
  7  9  1  0
  7  6  1  0
  7  8  1  1
  9 10  2  0
 11 12  2  0
 12  2  1  0
 13 14  1  0
 13  9  1  0
 14 15  1  1
 16 21  1  0
 16 15  1  0
 17 16  2  0
 18 19  2  0
 18 17  1  0
 19 20  1  0
 20 21  2  0
 22 14  1  0
 23 22  2  0
 24 22  1  0
 25 29  1  0
 25 24  1  0
 25 26  1  1
 27 26  1  0
 28 27  2  0
 29 30  1  0
 31 27  1  0
 32 29  2  0
M  END
$$$$
