YFD.pdb
     RDKit          3D

 32 33  0  0  1  0  0  0  0  0999 V2000
   25.7895  -31.2701   -9.0939 O   0  0  0  0  0  0  0  0  0  0  0  0
   26.4480  -32.0998   -8.1965 C   0  0  0  0  0  0  0  0  0  0  0  0
   27.1656  -33.1671   -8.6805 C   0  0  0  0  0  0  0  0  0  0  0  0
   27.8214  -33.9879   -7.7777 C   0  0  0  0  0  0  0  0  0  0  0  0
   27.7848  -33.7827   -6.4253 C   0  0  0  0  0  0  0  0  0  0  0  0
   28.4864  -34.6930   -5.4883 C   0  0  0  0  0  0  0  0  0  0  0  0
   29.9105  -34.3007   -5.3318 C   0  0  2  0  0  0  0  0  0  0  0  0
   30.6809  -34.6348   -6.5145 N   0  0  0  0  0  0  0  0  0  0  0  0
   30.5811  -34.8090   -4.1078 C   0  0  0  0  0  0  0  0  0  0  0  0
   31.1188  -35.9264   -4.0546 O   0  0  0  0  0  0  0  0  0  0  0  0
   27.0750  -32.7246   -5.9227 C   0  0  0  0  0  0  0  0  0  0  0  0
   26.4055  -31.8810   -6.8162 C   0  0  0  0  0  0  0  0  0  0  0  0
   30.6057  -33.9780   -2.9466 N   0  0  0  0  0  0  0  0  0  0  0  0
   31.2290  -34.3125   -1.7089 C   0  0  1  0  0  0  0  0  0  0  0  0
   31.9500  -33.1031   -1.1737 C   0  0  0  0  0  0  0  0  0  0  0  0
   33.3526  -33.0992   -1.6546 C   0  0  0  0  0  0  0  0  0  0  0  0
   33.8543  -34.1928   -2.3290 C   0  0  0  0  0  0  0  0  0  0  0  0
   35.1656  -34.2150   -2.7865 C   0  0  0  0  0  0  0  0  0  0  0  0
   35.9806  -33.1209   -2.5646 C   0  0  0  0  0  0  0  0  0  0  0  0
   35.4933  -32.0333   -1.8984 C   0  0  0  0  0  0  0  0  0  0  0  0
   34.1941  -32.0187   -1.4456 C   0  0  0  0  0  0  0  0  0  0  0  0
   30.3090  -34.9362   -0.7200 C   0  0  0  0  0  0  0  0  0  0  0  0
   29.1851  -34.4087   -0.5648 O   0  0  0  0  0  0  0  0  0  0  0  0
   30.6033  -36.0677    0.0599 N   0  0  0  0  0  0  0  0  0  0  0  0
   29.6607  -36.6732    0.9983 C   0  0  1  0  0  0  0  0  0  0  0  0
   29.9390  -38.1006    1.2941 C   0  0  0  0  0  0  0  0  0  0  0  0
   28.8045  -38.9689    1.0008 C   0  0  0  0  0  0  0  0  0  0  0  0
   28.9505  -40.2142    1.2363 O   0  0  0  0  0  0  0  0  0  0  0  0
   29.6004  -35.8653    2.2488 C   0  0  0  0  0  0  0  0  0  0  0  0
   28.4745  -35.8105    3.0609 O   0  0  0  0  0  0  0  0  0  0  0  0
   27.5966  -38.5480    0.4953 O   0  0  0  0  0  0  0  0  0  0  0  0
   30.5871  -35.1908    2.6180 O   0  0  0  0  0  0  0  0  0  0  0  0
  2  1  1  0
  3  2  2  0
  4  3  1  0
  5  4  2  0
  5 11  1  0
  6  5  1  0
  7  9  1  0
  7  6  1  0
  7  8  1  6
  9 10  2  0
 11 12  2  0
 12  2  1  0
 13 14  1  0
 13  9  1  0
 14 15  1  1
 16 21  1  0
 16 15  1  0
 17 16  2  0
 18 19  2  0
 18 17  1  0
 19 20  1  0
 20 21  2  0
 22 14  1  0
 23 22  2  0
 24 22  1  0
 25 29  1  0
 25 24  1  0
 25 26  1  1
 27 26  1  0
 28 27  2  0
 29 30  1  0
 31 27  1  0
 32 29  2  0
M  END
$$$$
