YFD.pdb
     RDKit          3D

 32 33  0  0  1  0  0  0  0  0999 V2000
   28.4214  -18.3392  -22.6164 O   0  0  0  0  0  0  0  0  0  0  0  0
   27.6941  -18.8779  -21.5637 C   0  0  0  0  0  0  0  0  0  0  0  0
   27.2543  -20.1765  -21.6548 C   0  0  0  0  0  0  0  0  0  0  0  0
   26.5316  -20.7064  -20.5984 C   0  0  0  0  0  0  0  0  0  0  0  0
   26.2358  -19.9925  -19.4691 C   0  0  0  0  0  0  0  0  0  0  0  0
   25.4451  -20.5887  -18.3654 C   0  0  0  0  0  0  0  0  0  0  0  0
   26.3213  -20.9657  -17.2267 C   0  0  2  0  0  0  0  0  0  0  0  0
   27.3338  -21.9204  -17.6360 N   0  0  0  0  0  0  0  0  0  0  0  0
   25.6155  -21.4391  -16.0086 C   0  0  0  0  0  0  0  0  0  0  0  0
   24.7729  -22.3500  -16.0351 O   0  0  0  0  0  0  0  0  0  0  0  0
   26.6649  -18.6965  -19.3589 C   0  0  0  0  0  0  0  0  0  0  0  0
   27.3980  -18.1406  -20.4132 C   0  0  0  0  0  0  0  0  0  0  0  0
   25.9190  -20.8190  -14.7583 N   0  0  0  0  0  0  0  0  0  0  0  0
   25.1795  -20.9949  -13.5522 C   0  0  1  0  0  0  0  0  0  0  0  0
   25.9303  -20.3571  -12.4126 C   0  0  0  0  0  0  0  0  0  0  0  0
   25.1624  -20.5133  -11.1537 C   0  0  0  0  0  0  0  0  0  0  0  0
   25.5189  -21.4868  -10.2439 C   0  0  0  0  0  0  0  0  0  0  0  0
   24.8136  -21.6555   -9.0591 C   0  0  0  0  0  0  0  0  0  0  0  0
   23.7380  -20.8313   -8.7863 C   0  0  0  0  0  0  0  0  0  0  0  0
   23.3776  -19.8644   -9.6802 C   0  0  0  0  0  0  0  0  0  0  0  0
   24.0789  -19.7042  -10.8532 C   0  0  0  0  0  0  0  0  0  0  0  0
   23.7617  -20.5535  -13.6447 C   0  0  0  0  0  0  0  0  0  0  0  0
   23.5467  -19.3748  -14.0054 O   0  0  0  0  0  0  0  0  0  0  0  0
   22.6432  -21.3526  -13.3528 N   0  0  0  0  0  0  0  0  0  0  0  0
   21.2699  -20.8528  -13.3430 C   0  0  1  0  0  0  0  0  0  0  0  0
   20.4039  -21.4518  -14.3888 C   0  0  0  0  0  0  0  0  0  0  0  0
   19.0532  -20.9019  -14.3856 C   0  0  0  0  0  0  0  0  0  0  0  0
   18.9408  -19.6396  -14.2389 O   0  0  0  0  0  0  0  0  0  0  0  0
   20.6767  -21.0264  -11.9872 C   0  0  0  0  0  0  0  0  0  0  0  0
   19.6026  -20.2736  -11.5290 O   0  0  0  0  0  0  0  0  0  0  0  0
   17.8998  -21.6370  -14.5307 O   0  0  0  0  0  0  0  0  0  0  0  0
   21.1389  -21.8773  -11.1953 O   0  0  0  0  0  0  0  0  0  0  0  0
  2  1  1  0
  3  2  2  0
  4  3  1  0
  5  4  2  0
  5 11  1  0
  6  5  1  0
  7  9  1  0
  7  6  1  0
  7  8  1  6
  9 10  2  0
 11 12  2  0
 12  2  1  0
 13 14  1  0
 13  9  1  0
 14 15  1  1
 16 21  1  0
 16 15  1  0
 17 16  2  0
 18 19  2  0
 18 17  1  0
 19 20  1  0
 20 21  2  0
 22 14  1  0
 23 22  2  0
 24 22  1  0
 25 29  1  0
 25 24  1  0
 25 26  1  6
 27 26  1  0
 28 27  2  0
 29 30  1  0
 31 27  1  0
 32 29  2  0
M  END
$$$$
