YFD.pdb
     RDKit          3D

 32 33  0  0  1  0  0  0  0  0999 V2000
   19.1839  -13.4847  -25.0948 O   0  0  0  0  0  0  0  0  0  0  0  0
   18.9727  -12.8139  -23.8978 C   0  0  0  0  0  0  0  0  0  0  0  0
   19.8821  -11.8646  -23.4977 C   0  0  0  0  0  0  0  0  0  0  0  0
   19.6618  -11.1986  -22.3032 C   0  0  0  0  0  0  0  0  0  0  0  0
   18.5788  -11.4458  -21.5042 C   0  0  0  0  0  0  0  0  0  0  0  0
   18.3851  -10.7240  -20.2234 C   0  0  0  0  0  0  0  0  0  0  0  0
   19.3398  -11.2051  -19.1921 C   0  0  2  0  0  0  0  0  0  0  0  0
   19.1432  -12.6144  -18.9103 N   0  0  0  0  0  0  0  0  0  0  0  0
   19.3692  -10.4173  -17.9333 C   0  0  0  0  0  0  0  0  0  0  0  0
   18.5256  -10.5610  -17.0344 O   0  0  0  0  0  0  0  0  0  0  0  0
   17.6609  -12.3883  -21.8849 C   0  0  0  0  0  0  0  0  0  0  0  0
   17.8621  -13.0728  -23.0887 C   0  0  0  0  0  0  0  0  0  0  0  0
   20.4096   -9.4558  -17.7528 N   0  0  0  0  0  0  0  0  0  0  0  0
   20.5190   -8.5598  -16.6493 C   0  0  1  0  0  0  0  0  0  0  0  0
   21.8737   -8.7221  -16.0109 C   0  0  0  0  0  0  0  0  0  0  0  0
   21.9658   -7.8693  -14.8014 C   0  0  0  0  0  0  0  0  0  0  0  0
   21.6863   -8.4002  -13.5594 C   0  0  0  0  0  0  0  0  0  0  0  0
   21.7621   -7.6213  -12.4117 C   0  0  0  0  0  0  0  0  0  0  0  0
   22.1270   -6.2922  -12.5163 C   0  0  0  0  0  0  0  0  0  0  0  0
   22.4061   -5.7575  -13.7410 C   0  0  0  0  0  0  0  0  0  0  0  0
   22.3267   -6.5338  -14.8743 C   0  0  0  0  0  0  0  0  0  0  0  0
   20.1903   -7.1480  -16.9843 C   0  0  0  0  0  0  0  0  0  0  0  0
   21.1322   -6.4050  -17.3400 O   0  0  0  0  0  0  0  0  0  0  0  0
   18.9066   -6.5789  -16.9270 N   0  0  0  0  0  0  0  0  0  0  0  0
   18.3862   -5.8677  -15.7611 C   0  0  1  0  0  0  0  0  0  0  0  0
   18.1958   -6.7280  -14.5669 C   0  0  0  0  0  0  0  0  0  0  0  0
   16.7962   -7.0626  -14.3303 C   0  0  0  0  0  0  0  0  0  0  0  0
   15.9739   -6.8209  -15.2752 O   0  0  0  0  0  0  0  0  0  0  0  0
   19.2562   -4.6987  -15.4504 C   0  0  0  0  0  0  0  0  0  0  0  0
   19.4286   -3.6307  -16.3221 O   0  0  0  0  0  0  0  0  0  0  0  0
   16.3006   -7.6179  -13.1737 O   0  0  0  0  0  0  0  0  0  0  0  0
   19.8774   -4.6390  -14.3662 O   0  0  0  0  0  0  0  0  0  0  0  0
  2  1  1  0
  3  2  2  0
  4  3  1  0
  5  4  2  0
  5 11  1  0
  6  5  1  0
  7  9  1  0
  7  6  1  0
  7  8  1  1
  9 10  2  0
 11 12  2  0
 12  2  1  0
 13 14  1  0
 13  9  1  0
 14 15  1  6
 16 21  1  0
 16 15  1  0
 17 16  2  0
 18 19  2  0
 18 17  1  0
 19 20  1  0
 20 21  2  0
 22 14  1  0
 23 22  2  0
 24 22  1  0
 25 29  1  0
 25 24  1  0
 25 26  1  1
 27 26  1  0
 28 27  2  0
 29 30  1  0
 31 27  1  0
 32 29  2  0
M  END
$$$$
