YFD.pdb
     RDKit          3D

 32 33  0  0  1  0  0  0  0  0999 V2000
   47.4938  -11.0369   -0.4382 O   0  0  0  0  0  0  0  0  0  0  0  0
   46.7243  -10.5764   -1.4980 C   0  0  0  0  0  0  0  0  0  0  0  0
   47.3521   -9.9899   -2.5705 C   0  0  0  0  0  0  0  0  0  0  0  0
   46.5763   -9.5357   -3.6245 C   0  0  0  0  0  0  0  0  0  0  0  0
   45.2125   -9.6449   -3.6434 C   0  0  0  0  0  0  0  0  0  0  0  0
   44.4139   -9.1318   -4.7827 C   0  0  0  0  0  0  0  0  0  0  0  0
   43.8503  -10.2490   -5.5831 C   0  0  2  0  0  0  0  0  0  0  0  0
   44.8981  -11.0013   -6.2466 N   0  0  0  0  0  0  0  0  0  0  0  0
   42.7861   -9.8692   -6.5471 C   0  0  0  0  0  0  0  0  0  0  0  0
   43.0211   -9.6248   -7.7410 O   0  0  0  0  0  0  0  0  0  0  0  0
   44.5676  -10.2262   -2.5841 C   0  0  0  0  0  0  0  0  0  0  0  0
   45.3311  -10.6937   -1.5086 C   0  0  0  0  0  0  0  0  0  0  0  0
   41.4397   -9.7810   -6.0792 N   0  0  0  0  0  0  0  0  0  0  0  0
   40.3771   -9.1106   -6.7530 C   0  0  1  0  0  0  0  0  0  0  0  0
   39.0704   -9.7712   -6.3992 C   0  0  0  0  0  0  0  0  0  0  0  0
   37.9409   -8.8892   -6.7801 C   0  0  0  0  0  0  0  0  0  0  0  0
   37.5896   -8.7513   -8.1067 C   0  0  0  0  0  0  0  0  0  0  0  0
   36.5377   -7.9287   -8.4895 C   0  0  0  0  0  0  0  0  0  0  0  0
   35.8293   -7.2390   -7.5236 C   0  0  0  0  0  0  0  0  0  0  0  0
   36.1689   -7.3692   -6.2077 C   0  0  0  0  0  0  0  0  0  0  0  0
   37.2135   -8.1837   -5.8354 C   0  0  0  0  0  0  0  0  0  0  0  0
   40.3677   -7.6372   -6.5473 C   0  0  0  0  0  0  0  0  0  0  0  0
   40.5003   -7.2171   -5.3761 O   0  0  0  0  0  0  0  0  0  0  0  0
   40.2151   -6.6778   -7.5628 N   0  0  0  0  0  0  0  0  0  0  0  0
   40.1825   -5.2371   -7.3190 C   0  0  1  0  0  0  0  0  0  0  0  0
   41.5191   -4.5925   -7.3422 C   0  0  0  0  0  0  0  0  0  0  0  0
   41.4647   -3.1700   -7.0251 C   0  0  0  0  0  0  0  0  0  0  0  0
   40.5546   -2.7901   -6.2158 O   0  0  0  0  0  0  0  0  0  0  0  0
   39.2509   -4.5813   -8.2792 C   0  0  0  0  0  0  0  0  0  0  0  0
   38.8464   -3.2577   -8.1571 O   0  0  0  0  0  0  0  0  0  0  0  0
   42.3171   -2.2147   -7.5278 O   0  0  0  0  0  0  0  0  0  0  0  0
   38.7889   -5.2176   -9.2521 O   0  0  0  0  0  0  0  0  0  0  0  0
  2  1  1  0
  3  2  2  0
  4  3  1  0
  5  4  2  0
  5 11  1  0
  6  5  1  0
  7  9  1  0
  7  6  1  0
  7  8  1  6
  9 10  2  0
 11 12  2  0
 12  2  1  0
 13 14  1  0
 13  9  1  0
 14 15  1  1
 16 21  1  0
 16 15  1  0
 17 16  2  0
 18 19  2  0
 18 17  1  0
 19 20  1  0
 20 21  2  0
 22 14  1  0
 23 22  2  0
 24 22  1  0
 25 29  1  0
 25 24  1  0
 25 26  1  6
 27 26  1  0
 28 27  2  0
 29 30  1  0
 31 27  1  0
 32 29  2  0
M  END
$$$$
