YFD.pdb
     RDKit          3D

 32 33  0  0  1  0  0  0  0  0999 V2000
   13.5196  -36.9969    0.4910 O   0  0  0  0  0  0  0  0  0  0  0  0
   14.1920  -36.0751    1.2818 C   0  0  0  0  0  0  0  0  0  0  0  0
   14.0548  -34.7360    1.0055 C   0  0  0  0  0  0  0  0  0  0  0  0
   14.7274  -33.8234    1.8016 C   0  0  0  0  0  0  0  0  0  0  0  0
   15.5231  -34.1976    2.8501 C   0  0  0  0  0  0  0  0  0  0  0  0
   16.2410  -33.1920    3.6700 C   0  0  0  0  0  0  0  0  0  0  0  0
   17.4868  -32.7464    2.9948 C   0  0  2  0  0  0  0  0  0  0  0  0
   18.4137  -33.8485    2.8211 N   0  0  0  0  0  0  0  0  0  0  0  0
   18.1671  -31.5814    3.6161 C   0  0  0  0  0  0  0  0  0  0  0  0
   19.0214  -31.7033    4.5082 O   0  0  0  0  0  0  0  0  0  0  0  0
   15.6732  -35.5273    3.1418 C   0  0  0  0  0  0  0  0  0  0  0  0
   15.0020  -36.4674    2.3519 C   0  0  0  0  0  0  0  0  0  0  0  0
   17.8220  -30.2698    3.1689 N   0  0  0  0  0  0  0  0  0  0  0  0
   18.3339  -29.0547    3.7112 C   0  0  1  0  0  0  0  0  0  0  0  0
   18.8714  -28.2002    2.5932 C   0  0  0  0  0  0  0  0  0  0  0  0
   19.2883  -26.8800    3.1243 C   0  0  0  0  0  0  0  0  0  0  0  0
   20.4531  -26.7660    3.8542 C   0  0  0  0  0  0  0  0  0  0  0  0
   20.8635  -25.5413    4.3653 C   0  0  0  0  0  0  0  0  0  0  0  0
   20.0927  -24.4172    4.1355 C   0  0  0  0  0  0  0  0  0  0  0  0
   18.9384  -24.5196    3.4137 C   0  0  0  0  0  0  0  0  0  0  0  0
   18.5361  -25.7361    2.9124 C   0  0  0  0  0  0  0  0  0  0  0  0
   17.3746  -28.3370    4.5931 C   0  0  0  0  0  0  0  0  0  0  0  0
   16.2995  -27.9505    4.0827 O   0  0  0  0  0  0  0  0  0  0  0  0
   17.5814  -28.0517    5.9536 N   0  0  0  0  0  0  0  0  0  0  0  0
   16.6583  -27.2620    6.7660 C   0  0  1  0  0  0  0  0  0  0  0  0
   16.6599  -27.6263    8.2046 C   0  0  0  0  0  0  0  0  0  0  0  0
   16.0182  -28.9105    8.4619 C   0  0  0  0  0  0  0  0  0  0  0  0
   16.2330  -29.4495    9.5980 O   0  0  0  0  0  0  0  0  0  0  0  0
   16.9321  -25.8096    6.5773 C   0  0  0  0  0  0  0  0  0  0  0  0
   17.9982  -25.3318    5.8254 O   0  0  0  0  0  0  0  0  0  0  0  0
   15.2024  -29.5778    7.5781 O   0  0  0  0  0  0  0  0  0  0  0  0
   16.1922  -24.9495    7.1044 O   0  0  0  0  0  0  0  0  0  0  0  0
  2  1  1  0
  3  2  2  0
  4  3  1  0
  5  4  2  0
  5 11  1  0
  6  5  1  0
  7  9  1  0
  7  6  1  0
  7  8  1  1
  9 10  2  0
 11 12  2  0
 12  2  1  0
 13 14  1  0
 13  9  1  0
 14 15  1  6
 16 21  1  0
 16 15  1  0
 17 16  2  0
 18 19  2  0
 18 17  1  0
 19 20  1  0
 20 21  2  0
 22 14  1  0
 23 22  2  0
 24 22  1  0
 25 29  1  0
 25 24  1  0
 25 26  1  1
 27 26  1  0
 28 27  2  0
 29 30  1  0
 31 27  1  0
 32 29  2  0
M  END
$$$$
