YFD.pdb
     RDKit          3D

 32 33  0  0  1  0  0  0  0  0999 V2000
   22.7027  -21.4616  -21.4606 O   0  0  0  0  0  0  0  0  0  0  0  0
   23.5553  -21.2151  -20.3932 C   0  0  0  0  0  0  0  0  0  0  0  0
   24.7729  -20.6263  -20.6365 C   0  0  0  0  0  0  0  0  0  0  0  0
   25.6160  -20.3818  -19.5649 C   0  0  0  0  0  0  0  0  0  0  0  0
   25.2895  -20.7019  -18.2752 C   0  0  0  0  0  0  0  0  0  0  0  0
   26.2254  -20.4397  -17.1553 C   0  0  0  0  0  0  0  0  0  0  0  0
   26.6816  -21.7100  -16.5349 C   0  0  2  0  0  0  0  0  0  0  0  0
   26.4845  -22.8333  -17.4312 N   0  0  0  0  0  0  0  0  0  0  0  0
   26.1160  -22.0035  -15.1933 C   0  0  0  0  0  0  0  0  0  0  0  0
   25.2425  -22.8659  -15.0096 O   0  0  0  0  0  0  0  0  0  0  0  0
   24.0807  -21.2896  -18.0116 C   0  0  0  0  0  0  0  0  0  0  0  0
   23.2120  -21.5448  -19.0785 C   0  0  0  0  0  0  0  0  0  0  0  0
   26.5966  -21.2617  -14.0716 N   0  0  0  0  0  0  0  0  0  0  0  0
   25.9409  -21.1617  -12.8096 C   0  0  1  0  0  0  0  0  0  0  0  0
   26.8509  -20.4658  -11.8315 C   0  0  0  0  0  0  0  0  0  0  0  0
   26.2422  -20.4802  -10.4794 C   0  0  0  0  0  0  0  0  0  0  0  0
   25.3838  -19.4702  -10.0980 C   0  0  0  0  0  0  0  0  0  0  0  0
   24.8035  -19.4591   -8.8360 C   0  0  0  0  0  0  0  0  0  0  0  0
   25.0891  -20.4797   -7.9486 C   0  0  0  0  0  0  0  0  0  0  0  0
   25.9371  -21.4843   -8.3169 C   0  0  0  0  0  0  0  0  0  0  0  0
   26.5106  -21.4880   -9.5676 C   0  0  0  0  0  0  0  0  0  0  0  0
   24.5824  -20.5596  -12.8823 C   0  0  0  0  0  0  0  0  0  0  0  0
   24.4904  -19.3956  -13.3320 O   0  0  0  0  0  0  0  0  0  0  0  0
   23.3932  -21.1911  -12.4797 N   0  0  0  0  0  0  0  0  0  0  0  0
   22.0758  -20.5629  -12.5553 C   0  0  1  0  0  0  0  0  0  0  0  0
   21.0590  -21.3802  -13.2628 C   0  0  0  0  0  0  0  0  0  0  0  0
   20.7928  -20.9027  -14.6149 C   0  0  0  0  0  0  0  0  0  0  0  0
   19.9200  -21.5389  -15.2939 O   0  0  0  0  0  0  0  0  0  0  0  0
   21.6126  -20.1902  -11.1891 C   0  0  0  0  0  0  0  0  0  0  0  0
   22.1556  -20.7336  -10.0315 O   0  0  0  0  0  0  0  0  0  0  0  0
   21.4064  -19.8238  -15.2075 O   0  0  0  0  0  0  0  0  0  0  0  0
   20.6945  -19.3546  -11.0350 O   0  0  0  0  0  0  0  0  0  0  0  0
  2  1  1  0
  3  2  2  0
  4  3  1  0
  5  4  2  0
  5 11  1  0
  6  5  1  0
  7  9  1  0
  7  6  1  0
  7  8  1  6
  9 10  2  0
 11 12  2  0
 12  2  1  0
 13 14  1  0
 13  9  1  0
 14 15  1  1
 16 21  1  0
 16 15  1  0
 17 16  2  0
 18 19  2  0
 18 17  1  0
 19 20  1  0
 20 21  2  0
 22 14  1  0
 23 22  2  0
 24 22  1  0
 25 29  1  0
 25 24  1  0
 25 26  1  1
 27 26  1  0
 28 27  2  0
 29 30  1  0
 31 27  1  0
 32 29  2  0
M  END
$$$$
