YFD.pdb
     RDKit          3D

 32 33  0  0  1  0  0  0  0  0999 V2000
   23.0850  -17.3736  -17.5608 O   0  0  0  0  0  0  0  0  0  0  0  0
   23.2792  -18.0442  -16.3608 C   0  0  0  0  0  0  0  0  0  0  0  0
   24.0079  -17.4343  -15.3682 C   0  0  0  0  0  0  0  0  0  0  0  0
   24.1942  -18.1099  -14.1733 C   0  0  0  0  0  0  0  0  0  0  0  0
   23.6852  -19.3583  -13.9391 C   0  0  0  0  0  0  0  0  0  0  0  0
   23.9196  -20.0574  -12.6526 C   0  0  0  0  0  0  0  0  0  0  0  0
   25.3683  -20.3067  -12.4391 C   0  0  2  0  0  0  0  0  0  0  0  0
   25.9062  -21.1867  -13.4590 N   0  0  0  0  0  0  0  0  0  0  0  0
   25.7398  -20.7861  -11.0832 C   0  0  0  0  0  0  0  0  0  0  0  0
   25.6263  -21.9731  -10.7390 O   0  0  0  0  0  0  0  0  0  0  0  0
   22.9562  -19.9835  -14.9157 C   0  0  0  0  0  0  0  0  0  0  0  0
   22.7538  -19.3193  -16.1306 C   0  0  0  0  0  0  0  0  0  0  0  0
   26.2462  -19.8416  -10.1392 N   0  0  0  0  0  0  0  0  0  0  0  0
   26.5774  -20.1310   -8.7831 C   0  0  1  0  0  0  0  0  0  0  0  0
   27.4666  -19.0403   -8.2460 C   0  0  0  0  0  0  0  0  0  0  0  0
   27.9149  -19.3853   -6.8753 C   0  0  0  0  0  0  0  0  0  0  0  0
   28.8716  -20.3608   -6.6868 C   0  0  0  0  0  0  0  0  0  0  0  0
   29.3057  -20.7045   -5.4128 C   0  0  0  0  0  0  0  0  0  0  0  0
   28.7716  -20.0553   -4.3157 C   0  0  0  0  0  0  0  0  0  0  0  0
   27.8244  -19.0879   -4.4918 C   0  0  0  0  0  0  0  0  0  0  0  0
   27.3969  -18.7539   -5.7563 C   0  0  0  0  0  0  0  0  0  0  0  0
   25.3973  -20.4082   -7.9205 C   0  0  0  0  0  0  0  0  0  0  0  0
   24.4729  -19.5649   -7.9188 O   0  0  0  0  0  0  0  0  0  0  0  0
   25.2398  -21.5390   -7.1010 N   0  0  0  0  0  0  0  0  0  0  0  0
   24.0526  -21.7914   -6.2869 C   0  0  1  0  0  0  0  0  0  0  0  0
   23.7083  -23.2289   -6.1543 C   0  0  0  0  0  0  0  0  0  0  0  0
   22.4892  -23.4481   -5.3846 C   0  0  0  0  0  0  0  0  0  0  0  0
   21.4283  -22.8755   -5.8020 O   0  0  0  0  0  0  0  0  0  0  0  0
   24.2074  -21.1486   -4.9516 C   0  0  0  0  0  0  0  0  0  0  0  0
   25.4158  -20.6401   -4.4920 O   0  0  0  0  0  0  0  0  0  0  0  0
   22.3979  -24.2227   -4.2517 O   0  0  0  0  0  0  0  0  0  0  0  0
   23.2289  -21.0437   -4.1794 O   0  0  0  0  0  0  0  0  0  0  0  0
  2  1  1  0
  3  2  2  0
  4  3  1  0
  5  4  2  0
  5 11  1  0
  6  5  1  0
  7  9  1  0
  7  6  1  0
  7  8  1  6
  9 10  2  0
 11 12  2  0
 12  2  1  0
 13 14  1  0
 13  9  1  0
 14 15  1  1
 16 21  1  0
 16 15  1  0
 17 16  2  0
 18 19  2  0
 18 17  1  0
 19 20  1  0
 20 21  2  0
 22 14  1  0
 23 22  2  0
 24 22  1  0
 25 29  1  0
 25 24  1  0
 25 26  1  1
 27 26  1  0
 28 27  2  0
 29 30  1  0
 31 27  1  0
 32 29  2  0
M  END
$$$$
