YFD.pdb
     RDKit          3D

 32 33  0  0  1  0  0  0  0  0999 V2000
   29.3858  -17.5283  -21.5265 O   0  0  0  0  0  0  0  0  0  0  0  0
   28.6695  -18.2142  -20.5551 C   0  0  0  0  0  0  0  0  0  0  0  0
   28.3676  -19.5387  -20.7622 C   0  0  0  0  0  0  0  0  0  0  0  0
   27.6547  -20.2158  -19.7863 C   0  0  0  0  0  0  0  0  0  0  0  0
   27.2374  -19.6226  -18.6259 C   0  0  0  0  0  0  0  0  0  0  0  0
   26.4615  -20.3757  -17.6111 C   0  0  0  0  0  0  0  0  0  0  0  0
   27.3226  -20.7668  -16.4657 C   0  0  2  0  0  0  0  0  0  0  0  0
   28.3268  -21.7329  -16.8687 N   0  0  0  0  0  0  0  0  0  0  0  0
   26.6000  -21.2347  -15.2553 C   0  0  0  0  0  0  0  0  0  0  0  0
   26.3751  -22.4348  -15.0327 O   0  0  0  0  0  0  0  0  0  0  0  0
   27.5279  -18.3033  -18.4005 C   0  0  0  0  0  0  0  0  0  0  0  0
   28.2485  -17.5996  -19.3719 C   0  0  0  0  0  0  0  0  0  0  0  0
   26.1456  -20.2633  -14.3122 N   0  0  0  0  0  0  0  0  0  0  0  0
   25.4604  -20.5551  -13.0965 C   0  0  1  0  0  0  0  0  0  0  0  0
   26.1331  -19.8286  -11.9613 C   0  0  0  0  0  0  0  0  0  0  0  0
   27.4902  -20.3844  -11.7416 C   0  0  0  0  0  0  0  0  0  0  0  0
   28.5340  -20.0000  -12.5571 C   0  0  0  0  0  0  0  0  0  0  0  0
   29.8135  -20.5088  -12.3740 C   0  0  0  0  0  0  0  0  0  0  0  0
   30.0448  -21.4134  -11.3548 C   0  0  0  0  0  0  0  0  0  0  0  0
   29.0183  -21.7999  -10.5419 C   0  0  0  0  0  0  0  0  0  0  0  0
   27.7526  -21.2940  -10.7303 C   0  0  0  0  0  0  0  0  0  0  0  0
   23.9928  -20.3193  -13.1603 C   0  0  0  0  0  0  0  0  0  0  0  0
   23.6052  -19.1496  -13.3776 O   0  0  0  0  0  0  0  0  0  0  0  0
   23.0053  -21.3044  -12.9892 N   0  0  0  0  0  0  0  0  0  0  0  0
   21.5725  -21.0476  -13.1201 C   0  0  1  0  0  0  0  0  0  0  0  0
   20.8790  -21.9681  -14.0551 C   0  0  0  0  0  0  0  0  0  0  0  0
   20.6482  -23.2881  -13.4795 C   0  0  0  0  0  0  0  0  0  0  0  0
   20.9238  -23.4384  -12.2429 O   0  0  0  0  0  0  0  0  0  0  0  0
   20.9302  -21.0599  -11.7757 C   0  0  0  0  0  0  0  0  0  0  0  0
   19.6347  -20.6107  -11.5517 O   0  0  0  0  0  0  0  0  0  0  0  0
   20.1567  -24.3746  -14.1648 O   0  0  0  0  0  0  0  0  0  0  0  0
   21.5528  -21.4854  -10.7777 O   0  0  0  0  0  0  0  0  0  0  0  0
  2  1  1  0
  3  2  2  0
  4  3  1  0
  5  4  2  0
  5 11  1  0
  6  5  1  0
  7  9  1  0
  7  6  1  0
  7  8  1  6
  9 10  2  0
 11 12  2  0
 12  2  1  0
 13 14  1  0
 13  9  1  0
 14 15  1  1
 16 21  1  0
 16 15  1  0
 17 16  2  0
 18 19  2  0
 18 17  1  0
 19 20  1  0
 20 21  2  0
 22 14  1  0
 23 22  2  0
 24 22  1  0
 25 29  1  0
 25 24  1  0
 25 26  1  6
 27 26  1  0
 28 27  2  0
 29 30  1  0
 31 27  1  0
 32 29  2  0
M  END
$$$$
