YFD.pdb
     RDKit          3D

 32 33  0  0  1  0  0  0  0  0999 V2000
   23.8088  -17.2448  -17.4512 O   0  0  0  0  0  0  0  0  0  0  0  0
   23.9918  -17.9308  -16.2583 C   0  0  0  0  0  0  0  0  0  0  0  0
   24.5749  -17.2788  -15.1985 C   0  0  0  0  0  0  0  0  0  0  0  0
   24.7511  -17.9705  -14.0113 C   0  0  0  0  0  0  0  0  0  0  0  0
   24.3708  -19.2749  -13.8486 C   0  0  0  0  0  0  0  0  0  0  0  0
   24.5909  -19.9878  -12.5671 C   0  0  0  0  0  0  0  0  0  0  0  0
   26.0405  -20.1875  -12.3117 C   0  0  2  0  0  0  0  0  0  0  0  0
   26.6482  -21.0060  -13.3435 N   0  0  0  0  0  0  0  0  0  0  0  0
   26.3850  -20.7030  -10.9620 C   0  0  0  0  0  0  0  0  0  0  0  0
   26.2423  -21.8942  -10.6444 O   0  0  0  0  0  0  0  0  0  0  0  0
   23.7880  -19.9427  -14.8928 C   0  0  0  0  0  0  0  0  0  0  0  0
   23.5986  -19.2634  -16.1014 C   0  0  0  0  0  0  0  0  0  0  0  0
   26.8996  -19.7895   -9.9922 N   0  0  0  0  0  0  0  0  0  0  0  0
   27.1079  -20.0851   -8.6132 C   0  0  1  0  0  0  0  0  0  0  0  0
   27.9784  -19.0178   -8.0031 C   0  0  0  0  0  0  0  0  0  0  0  0
   28.3005  -19.3720   -6.5997 C   0  0  0  0  0  0  0  0  0  0  0  0
   29.0914  -20.4691   -6.3287 C   0  0  0  0  0  0  0  0  0  0  0  0
   29.4047  -20.8237   -5.0227 C   0  0  0  0  0  0  0  0  0  0  0  0
   28.9178  -20.0619   -3.9772 C   0  0  0  0  0  0  0  0  0  0  0  0
   28.1345  -18.9739   -4.2351 C   0  0  0  0  0  0  0  0  0  0  0  0
   27.8258  -18.6295   -5.5310 C   0  0  0  0  0  0  0  0  0  0  0  0
   25.8527  -20.3285   -7.8526 C   0  0  0  0  0  0  0  0  0  0  0  0
   24.9277  -19.4962   -7.9841 O   0  0  0  0  0  0  0  0  0  0  0  0
   25.6241  -21.4158   -6.9920 N   0  0  0  0  0  0  0  0  0  0  0  0
   24.3811  -21.6147   -6.2494 C   0  0  1  0  0  0  0  0  0  0  0  0
   23.8238  -22.9853   -6.3650 C   0  0  0  0  0  0  0  0  0  0  0  0
   22.5115  -23.1148   -5.7422 C   0  0  0  0  0  0  0  0  0  0  0  0
   21.8295  -22.0464   -5.5978 O   0  0  0  0  0  0  0  0  0  0  0  0
   24.5756  -21.2303   -4.8230 C   0  0  0  0  0  0  0  0  0  0  0  0
   24.2490  -22.0664   -3.7626 O   0  0  0  0  0  0  0  0  0  0  0  0
   21.9571  -24.2950   -5.3043 O   0  0  0  0  0  0  0  0  0  0  0  0
   25.0508  -20.1122   -4.5251 O   0  0  0  0  0  0  0  0  0  0  0  0
  2  1  1  0
  3  2  2  0
  4  3  1  0
  5  4  2  0
  5 11  1  0
  6  5  1  0
  7  9  1  0
  7  6  1  0
  7  8  1  6
  9 10  2  0
 11 12  2  0
 12  2  1  0
 13 14  1  0
 13  9  1  0
 14 15  1  1
 16 21  1  0
 16 15  1  0
 17 16  2  0
 18 19  2  0
 18 17  1  0
 19 20  1  0
 20 21  2  0
 22 14  1  0
 23 22  2  0
 24 22  1  0
 25 29  1  0
 25 24  1  0
 25 26  1  1
 27 26  1  0
 28 27  2  0
 29 30  1  0
 31 27  1  0
 32 29  2  0
M  END
$$$$
