YFD.pdb
     RDKit          3D

 32 33  0  0  1  0  0  0  0  0999 V2000
   16.0043  -22.8046  -11.4170 O   0  0  0  0  0  0  0  0  0  0  0  0
   17.3147  -22.6061  -11.8302 C   0  0  0  0  0  0  0  0  0  0  0  0
   17.5457  -22.0435  -13.0625 C   0  0  0  0  0  0  0  0  0  0  0  0
   18.8565  -21.8470  -13.4652 C   0  0  0  0  0  0  0  0  0  0  0  0
   19.9307  -22.1896  -12.6899 C   0  0  0  0  0  0  0  0  0  0  0  0
   21.3205  -21.9790  -13.1622 C   0  0  0  0  0  0  0  0  0  0  0  0
   22.0313  -20.9977  -12.3030 C   0  0  2  0  0  0  0  0  0  0  0  0
   21.2081  -19.8315  -12.0451 N   0  0  0  0  0  0  0  0  0  0  0  0
   23.3796  -20.5938  -12.7772 C   0  0  0  0  0  0  0  0  0  0  0  0
   23.6030  -19.4888  -13.2963 O   0  0  0  0  0  0  0  0  0  0  0  0
   19.7218  -22.7518  -11.4586 C   0  0  0  0  0  0  0  0  0  0  0  0
   18.4058  -22.9585  -11.0301 C   0  0  0  0  0  0  0  0  0  0  0  0
   24.4604  -21.5157  -12.6305 N   0  0  0  0  0  0  0  0  0  0  0  0
   25.8060  -21.2770  -13.0366 C   0  0  1  0  0  0  0  0  0  0  0  0
   26.7432  -21.7939  -11.9766 C   0  0  0  0  0  0  0  0  0  0  0  0
   26.4845  -21.0982  -10.6930 C   0  0  0  0  0  0  0  0  0  0  0  0
   26.8008  -19.7626  -10.5557 C   0  0  0  0  0  0  0  0  0  0  0  0
   26.5715  -19.0892   -9.3626 C   0  0  0  0  0  0  0  0  0  0  0  0
   26.0139  -19.7688   -8.2959 C   0  0  0  0  0  0  0  0  0  0  0  0
   25.6969  -21.0907   -8.4220 C   0  0  0  0  0  0  0  0  0  0  0  0
   25.9289  -21.7526   -9.6058 C   0  0  0  0  0  0  0  0  0  0  0  0
   26.1224  -21.7808  -14.4002 C   0  0  0  0  0  0  0  0  0  0  0  0
   25.7777  -22.9512  -14.6774 O   0  0  0  0  0  0  0  0  0  0  0  0
   26.7842  -21.0494  -15.4013 N   0  0  0  0  0  0  0  0  0  0  0  0
   27.0804  -21.5792  -16.7308 C   0  0  1  0  0  0  0  0  0  0  0  0
   27.4585  -20.5412  -17.7218 C   0  0  0  0  0  0  0  0  0  0  0  0
   26.4989  -19.4448  -17.7841 C   0  0  0  0  0  0  0  0  0  0  0  0
   25.2843  -19.7496  -18.0278 O   0  0  0  0  0  0  0  0  0  0  0  0
   28.1244  -22.6379  -16.6338 C   0  0  0  0  0  0  0  0  0  0  0  0
   28.1005  -23.7968  -17.3997 O   0  0  0  0  0  0  0  0  0  0  0  0
   26.8031  -18.1164  -17.5985 O   0  0  0  0  0  0  0  0  0  0  0  0
   29.0816  -22.5156  -15.8378 O   0  0  0  0  0  0  0  0  0  0  0  0
  2  1  1  0
  3  2  2  0
  4  3  1  0
  5  4  2  0
  5 11  1  0
  6  5  1  0
  7  9  1  0
  7  6  1  0
  7  8  1  6
  9 10  2  0
 11 12  2  0
 12  2  1  0
 13 14  1  0
 13  9  1  0
 14 15  1  1
 16 21  1  0
 16 15  1  0
 17 16  2  0
 18 19  2  0
 18 17  1  0
 19 20  1  0
 20 21  2  0
 22 14  1  0
 23 22  2  0
 24 22  1  0
 25 29  1  0
 25 24  1  0
 25 26  1  6
 27 26  1  0
 28 27  2  0
 29 30  1  0
 31 27  1  0
 32 29  2  0
M  END
$$$$
