YFD.pdb
     RDKit          3D

 32 33  0  0  1  0  0  0  0  0999 V2000
   26.7410  -18.2338  -23.5413 O   0  0  0  0  0  0  0  0  0  0  0  0
   26.2159  -18.9232  -22.4567 C   0  0  0  0  0  0  0  0  0  0  0  0
   26.0275  -18.2544  -21.2712 C   0  0  0  0  0  0  0  0  0  0  0  0
   25.5006  -18.9498  -20.1952 C   0  0  0  0  0  0  0  0  0  0  0  0
   25.1608  -20.2736  -20.2614 C   0  0  0  0  0  0  0  0  0  0  0  0
   24.6145  -20.9890  -19.0830 C   0  0  0  0  0  0  0  0  0  0  0  0
   25.7058  -21.4420  -18.1828 C   0  0  2  0  0  0  0  0  0  0  0  0
   26.5373  -22.4414  -18.8262 N   0  0  0  0  0  0  0  0  0  0  0  0
   25.2734  -21.9050  -16.8393 C   0  0  0  0  0  0  0  0  0  0  0  0
   24.7467  -23.0130  -16.6511 O   0  0  0  0  0  0  0  0  0  0  0  0
   25.3410  -20.9584  -21.4338 C   0  0  0  0  0  0  0  0  0  0  0  0
   25.8706  -20.2759  -22.5347 C   0  0  0  0  0  0  0  0  0  0  0  0
   25.4711  -21.0386  -15.7214 N   0  0  0  0  0  0  0  0  0  0  0  0
   24.9697  -21.2656  -14.4062 C   0  0  1  0  0  0  0  0  0  0  0  0
   25.6678  -20.3417  -13.4429 C   0  0  0  0  0  0  0  0  0  0  0  0
   25.1733  -20.5828  -12.0659 C   0  0  0  0  0  0  0  0  0  0  0  0
   23.9925  -20.0071  -11.6457 C   0  0  0  0  0  0  0  0  0  0  0  0
   23.5098  -20.2147  -10.3599 C   0  0  0  0  0  0  0  0  0  0  0  0
   24.2239  -21.0147   -9.4878 C   0  0  0  0  0  0  0  0  0  0  0  0
   25.3936  -21.5895   -9.8943 C   0  0  0  0  0  0  0  0  0  0  0  0
   25.8676  -21.3777  -11.1686 C   0  0  0  0  0  0  0  0  0  0  0  0
   23.4863  -21.2081  -14.3085 C   0  0  0  0  0  0  0  0  0  0  0  0
   22.9173  -20.1892  -14.7599 O   0  0  0  0  0  0  0  0  0  0  0  0
   22.6718  -22.2042  -13.7433 N   0  0  0  0  0  0  0  0  0  0  0  0
   21.2133  -22.1264  -13.6917 C   0  0  1  0  0  0  0  0  0  0  0  0
   20.5333  -23.4280  -13.9059 C   0  0  0  0  0  0  0  0  0  0  0  0
   19.0797  -23.3096  -13.9175 C   0  0  0  0  0  0  0  0  0  0  0  0
   18.5908  -22.1445  -13.7412 O   0  0  0  0  0  0  0  0  0  0  0  0
   20.7840  -21.4981  -12.4106 C   0  0  0  0  0  0  0  0  0  0  0  0
   19.9770  -20.3686  -12.3548 O   0  0  0  0  0  0  0  0  0  0  0  0
   18.2030  -24.3526  -14.1056 O   0  0  0  0  0  0  0  0  0  0  0  0
   21.1464  -21.9789  -11.3141 O   0  0  0  0  0  0  0  0  0  0  0  0
  2  1  1  0
  3  2  2  0
  4  3  1  0
  5  4  2  0
  5 11  1  0
  6  5  1  0
  7  9  1  0
  7  6  1  0
  7  8  1  6
  9 10  2  0
 11 12  2  0
 12  2  1  0
 13 14  1  0
 13  9  1  0
 14 15  1  1
 16 21  1  0
 16 15  1  0
 17 16  2  0
 18 19  2  0
 18 17  1  0
 19 20  1  0
 20 21  2  0
 22 14  1  0
 23 22  2  0
 24 22  1  0
 25 29  1  0
 25 24  1  0
 25 26  1  1
 27 26  1  0
 28 27  2  0
 29 30  1  0
 31 27  1  0
 32 29  2  0
M  END
$$$$
