KWD.pdb
     RDKit          3D

 32 33  0  0  1  0  0  0  0  0999 V2000
    7.5266  -15.7785   21.2001 N   0  0  0  0  0  0  0  0  0  0  0  0
    8.8745  -15.8326   20.7655 C   0  0  1  0  0  0  0  0  0  0  0  0
    9.2382  -14.7110   19.7992 C   0  0  0  0  0  0  0  0  0  0  0  0
    8.2762  -14.7990   18.6699 C   0  0  0  0  0  0  0  0  0  0  0  0
    7.8273  -13.5429   18.0352 C   0  0  0  0  0  0  0  0  0  0  0  0
    8.7764  -13.0603   16.9881 C   0  0  0  0  0  0  0  0  0  0  0  0
    8.2889  -13.2903   15.6619 N   0  0  0  0  0  0  0  0  0  0  0  0
    9.7820  -15.8904   21.9223 C   0  0  0  0  0  0  0  0  0  0  0  0
   11.0346  -15.9920   21.8336 O   0  0  0  0  0  0  0  0  0  0  0  0
    9.2475  -15.8301   23.2473 N   0  0  0  0  0  0  0  0  0  0  0  0
   10.0838  -15.9870   24.3890 C   0  0  1  0  0  0  0  0  0  0  0  0
    9.8109  -14.7869   25.3128 C   0  0  0  0  0  0  0  0  0  0  0  0
    8.3799  -14.5210   25.4502 C   0  0  0  0  0  0  0  0  0  0  0  0
    7.3395  -15.4011   25.3004 C   0  0  0  0  0  0  0  0  0  0  0  0
    6.1602  -14.7671   25.5097 N   0  0  0  0  0  0  0  0  0  0  0  0
    6.4440  -13.4901   25.7913 C   0  0  0  0  0  0  0  0  0  0  0  0
    5.6047  -12.4357   26.0810 C   0  0  0  0  0  0  0  0  0  0  0  0
    6.1047  -11.1794   26.3474 C   0  0  0  0  0  0  0  0  0  0  0  0
    7.4690  -10.9943   26.3188 C   0  0  0  0  0  0  0  0  0  0  0  0
    8.3004  -12.0459   26.0300 C   0  0  0  0  0  0  0  0  0  0  0  0
    7.8134  -13.3076   25.7617 C   0  0  0  0  0  0  0  0  0  0  0  0
    9.8104  -17.1828   25.2024 C   0  0  0  0  0  0  0  0  0  0  0  0
    8.8264  -17.8917   24.9317 O   0  0  0  0  0  0  0  0  0  0  0  0
   10.6574  -17.5092   26.2699 N   0  0  0  0  0  0  0  0  0  0  0  0
   10.6333  -18.8997   26.7796 C   0  0  1  0  0  0  0  0  0  0  0  0
   11.1198  -19.8316   25.7123 C   0  0  0  0  0  0  0  0  0  0  0  0
   11.2195  -21.1964   26.2239 C   0  0  0  0  0  0  0  0  0  0  0  0
   10.9329  -21.4747   27.3978 O   0  0  0  0  0  0  0  0  0  0  0  0
   11.5723  -18.8747   27.9538 C   0  0  0  0  0  0  0  0  0  0  0  0
   11.2235  -19.2892   29.2125 O   0  0  0  0  0  0  0  0  0  0  0  0
   11.6443  -22.2116   25.3815 O   0  0  0  0  0  0  0  0  0  0  0  0
   12.7551  -18.4543   27.8100 O   0  0  0  0  0  0  0  0  0  0  0  0
  2  3  1  0
  2  1  1  1
  4  3  1  0
  5  4  1  0
  5  6  1  0
  7  6  1  0
  8  9  2  0
  8  2  1  0
 10  8  1  0
 11 10  1  0
 12 13  1  0
 11 12  1  1
 13 21  1  0
 14 13  2  0
 14 15  1  0
 15 16  1  0
 16 17  1  0
 17 18  2  0
 19 18  1  0
 20 19  2  0
 21 16  2  0
 21 20  1  0
 22 24  1  0
 22 11  1  0
 23 22  2  0
 25 24  1  0
 25 29  1  0
 25 26  1  6
 27 26  1  0
 28 27  2  0
 29 30  1  0
 31 27  1  0
 32 29  2  0
M  END
$$$$
