KWD.pdb
     RDKit          3D

 32 33  0  0  1  0  0  0  0  0999 V2000
    7.2329  -16.2788   21.2446 N   0  0  0  0  0  0  0  0  0  0  0  0
    8.4180  -15.5592   20.9505 C   0  0  1  0  0  0  0  0  0  0  0  0
    8.1513  -14.1966   20.3211 C   0  0  0  0  0  0  0  0  0  0  0  0
    7.2683  -14.4385   19.1505 C   0  0  0  0  0  0  0  0  0  0  0  0
    7.0071  -13.3143   18.2284 C   0  0  0  0  0  0  0  0  0  0  0  0
    7.8406  -13.3840   16.9912 C   0  0  0  0  0  0  0  0  0  0  0  0
    7.6161  -12.2715   16.1186 N   0  0  0  0  0  0  0  0  0  0  0  0
    9.2688  -15.4656   22.1473 C   0  0  0  0  0  0  0  0  0  0  0  0
   10.3453  -14.8133   22.1999 O   0  0  0  0  0  0  0  0  0  0  0  0
    8.8841  -16.1433   23.3463 N   0  0  0  0  0  0  0  0  0  0  0  0
    9.6332  -16.0000   24.5487 C   0  0  1  0  0  0  0  0  0  0  0  0
    8.6598  -16.2448   25.7151 C   0  0  0  0  0  0  0  0  0  0  0  0
    7.5159  -15.3356   25.6686 C   0  0  0  0  0  0  0  0  0  0  0  0
    6.2142  -15.6318   25.3565 C   0  0  0  0  0  0  0  0  0  0  0  0
    5.4532  -14.5126   25.4253 N   0  0  0  0  0  0  0  0  0  0  0  0
    6.2624  -13.5071   25.7787 C   0  0  0  0  0  0  0  0  0  0  0  0
    5.9849  -12.1726   25.9844 C   0  0  0  0  0  0  0  0  0  0  0  0
    6.9752  -11.2871   26.3509 C   0  0  0  0  0  0  0  0  0  0  0  0
    8.2577  -11.7628   26.5093 C   0  0  0  0  0  0  0  0  0  0  0  0
    8.5296  -13.0911   26.3036 C   0  0  0  0  0  0  0  0  0  0  0  0
    7.5483  -13.9875   25.9367 C   0  0  0  0  0  0  0  0  0  0  0  0
   10.7187  -16.9778   24.7272 C   0  0  0  0  0  0  0  0  0  0  0  0
   10.4991  -18.1798   24.5006 O   0  0  0  0  0  0  0  0  0  0  0  0
   11.9834  -16.5471   25.1496 N   0  0  0  0  0  0  0  0  0  0  0  0
   13.0385  -17.5680   25.3456 C   0  0  1  0  0  0  0  0  0  0  0  0
   14.3855  -16.9207   25.2420 C   0  0  0  0  0  0  0  0  0  0  0  0
   14.9494  -17.1117   23.9079 C   0  0  0  0  0  0  0  0  0  0  0  0
   14.3762  -17.8003   23.0507 O   0  0  0  0  0  0  0  0  0  0  0  0
   12.7878  -18.0906   26.7332 C   0  0  0  0  0  0  0  0  0  0  0  0
   11.7994  -17.6159   27.5550 O   0  0  0  0  0  0  0  0  0  0  0  0
   16.1557  -16.5108   23.5845 O   0  0  0  0  0  0  0  0  0  0  0  0
   13.5084  -19.0171   27.2007 O   0  0  0  0  0  0  0  0  0  0  0  0
  2  3  1  0
  2  1  1  1
  4  3  1  0
  5  4  1  0
  5  6  1  0
  7  6  1  0
  8  9  2  0
  8  2  1  0
 10  8  1  0
 11 10  1  0
 12 13  1  0
 11 12  1  1
 13 21  1  0
 14 13  2  0
 14 15  1  0
 15 16  1  0
 16 17  1  0
 17 18  2  0
 19 18  1  0
 20 19  2  0
 21 16  2  0
 21 20  1  0
 22 24  1  0
 22 11  1  0
 23 22  2  0
 25 24  1  0
 25 29  1  0
 25 26  1  1
 27 26  1  0
 28 27  2  0
 29 30  1  0
 31 27  1  0
 32 29  2  0
M  END
$$$$
