KWD.pdb
     RDKit          3D

 32 33  0  0  1  0  0  0  0  0999 V2000
    7.7343  -16.2577   18.6175 N   0  0  0  0  0  0  0  0  0  0  0  0
    8.6447  -15.1907   18.8209 C   0  0  1  0  0  0  0  0  0  0  0  0
    8.2690  -13.9277   18.0543 C   0  0  0  0  0  0  0  0  0  0  0  0
    7.9641  -14.3537   16.6637 C   0  0  0  0  0  0  0  0  0  0  0  0
    7.2659  -13.3995   15.7780 C   0  0  0  0  0  0  0  0  0  0  0  0
    7.0528  -13.9452   14.4043 C   0  0  0  0  0  0  0  0  0  0  0  0
    6.2935  -13.0579   13.5763 N   0  0  0  0  0  0  0  0  0  0  0  0
    8.8236  -14.9393   20.2596 C   0  0  0  0  0  0  0  0  0  0  0  0
    9.6722  -14.1401   20.7374 O   0  0  0  0  0  0  0  0  0  0  0  0
    8.0017  -15.6256   21.2075 N   0  0  0  0  0  0  0  0  0  0  0  0
    8.1699  -15.4318   22.6081 C   0  0  1  0  0  0  0  0  0  0  0  0
    6.7748  -15.5473   23.2473 C   0  0  0  0  0  0  0  0  0  0  0  0
    6.7985  -15.2083   24.6692 C   0  0  0  0  0  0  0  0  0  0  0  0
    6.6678  -16.0532   25.7408 C   0  0  0  0  0  0  0  0  0  0  0  0
    6.7442  -15.3520   26.8979 N   0  0  0  0  0  0  0  0  0  0  0  0
    6.9224  -14.0673   26.5690 C   0  0  0  0  0  0  0  0  0  0  0  0
    7.0604  -12.9548   27.3713 C   0  0  0  0  0  0  0  0  0  0  0  0
    7.2387  -11.7014   26.8269 C   0  0  0  0  0  0  0  0  0  0  0  0
    7.2768  -11.5787   25.4559 C   0  0  0  0  0  0  0  0  0  0  0  0
    7.1390  -12.6878   24.6613 C   0  0  0  0  0  0  0  0  0  0  0  0
    6.9601  -13.9474   25.1929 C   0  0  0  0  0  0  0  0  0  0  0  0
    8.9991  -16.4437   23.2823 C   0  0  0  0  0  0  0  0  0  0  0  0
    8.7672  -17.6490   23.0882 O   0  0  0  0  0  0  0  0  0  0  0  0
   10.0371  -16.0411   24.1333 N   0  0  0  0  0  0  0  0  0  0  0  0
   11.0713  -17.0387   24.4924 C   0  0  1  0  0  0  0  0  0  0  0  0
   12.4298  -16.4239   24.3484 C   0  0  0  0  0  0  0  0  0  0  0  0
   13.4704  -17.3724   24.7384 C   0  0  0  0  0  0  0  0  0  0  0  0
   13.2737  -18.5966   24.7263 O   0  0  0  0  0  0  0  0  0  0  0  0
   10.7721  -17.3747   25.9272 C   0  0  0  0  0  0  0  0  0  0  0  0
   11.2073  -18.5179   26.5447 O   0  0  0  0  0  0  0  0  0  0  0  0
   14.7118  -16.8993   25.1331 O   0  0  0  0  0  0  0  0  0  0  0  0
   10.0839  -16.5840   26.6325 O   0  0  0  0  0  0  0  0  0  0  0  0
  2  3  1  0
  2  1  1  1
  4  3  1  0
  5  4  1  0
  5  6  1  0
  7  6  1  0
  8  9  2  0
  8  2  1  0
 10  8  1  0
 11 10  1  0
 12 13  1  0
 11 12  1  1
 13 21  1  0
 14 13  2  0
 14 15  1  0
 15 16  1  0
 16 17  1  0
 17 18  2  0
 19 18  1  0
 20 19  2  0
 21 16  2  0
 21 20  1  0
 22 24  1  0
 22 11  1  0
 23 22  2  0
 25 24  1  0
 25 29  1  0
 25 26  1  1
 27 26  1  0
 28 27  2  0
 29 30  1  0
 31 27  1  0
 32 29  2  0
M  END
$$$$
