KWD.pdb
     RDKit          3D

 32 33  0  0  1  0  0  0  0  0999 V2000
    6.2088  -14.9632   20.7440 N   0  0  0  0  0  0  0  0  0  0  0  0
    7.4646  -15.6194   20.7153 C   0  0  1  0  0  0  0  0  0  0  0  0
    8.2505  -15.3539   19.4362 C   0  0  0  0  0  0  0  0  0  0  0  0
    8.0282  -16.5285   18.5534 C   0  0  0  0  0  0  0  0  0  0  0  0
    9.1567  -17.0056   17.7280 C   0  0  0  0  0  0  0  0  0  0  0  0
    8.7623  -18.1102   16.8037 C   0  0  0  0  0  0  0  0  0  0  0  0
    9.8542  -18.5615   15.9953 N   0  0  0  0  0  0  0  0  0  0  0  0
    8.2380  -15.2952   21.9243 C   0  0  0  0  0  0  0  0  0  0  0  0
    8.7918  -14.1828   22.1320 O   0  0  0  0  0  0  0  0  0  0  0  0
    8.3939  -16.2776   22.9517 N   0  0  0  0  0  0  0  0  0  0  0  0
    9.1912  -16.0219   24.1034 C   0  0  1  0  0  0  0  0  0  0  0  0
    8.2953  -16.2625   25.3312 C   0  0  0  0  0  0  0  0  0  0  0  0
    7.2244  -15.2717   25.4253 C   0  0  0  0  0  0  0  0  0  0  0  0
    5.9131  -15.4078   25.0493 C   0  0  0  0  0  0  0  0  0  0  0  0
    5.2365  -14.2602   25.2983 N   0  0  0  0  0  0  0  0  0  0  0  0
    6.1088  -13.3959   25.8298 C   0  0  0  0  0  0  0  0  0  0  0  0
    5.9266  -12.0981   26.2572 C   0  0  0  0  0  0  0  0  0  0  0  0
    6.9703  -11.3681   26.7835 C   0  0  0  0  0  0  0  0  0  0  0  0
    8.2089  -11.9628   26.8757 C   0  0  0  0  0  0  0  0  0  0  0  0
    8.3859  -13.2541   26.4493 C   0  0  0  0  0  0  0  0  0  0  0  0
    7.3504  -13.9955   25.9209 C   0  0  0  0  0  0  0  0  0  0  0  0
   10.3457  -16.9187   24.2740 C   0  0  0  0  0  0  0  0  0  0  0  0
   10.2439  -18.1123   23.9433 O   0  0  0  0  0  0  0  0  0  0  0  0
   11.5430  -16.4215   24.8058 N   0  0  0  0  0  0  0  0  0  0  0  0
   12.6707  -17.3646   24.9867 C   0  0  1  0  0  0  0  0  0  0  0  0
   13.9585  -16.6006   25.0320 C   0  0  0  0  0  0  0  0  0  0  0  0
   14.3075  -16.0966   23.7058 C   0  0  0  0  0  0  0  0  0  0  0  0
   13.7240  -16.4903   22.6850 O   0  0  0  0  0  0  0  0  0  0  0  0
   12.3826  -18.0301   26.3039 C   0  0  0  0  0  0  0  0  0  0  0  0
   11.3157  -17.7053   27.1001 O   0  0  0  0  0  0  0  0  0  0  0  0
   15.3154  -15.1540   23.5775 O   0  0  0  0  0  0  0  0  0  0  0  0
   13.1445  -18.9423   26.7326 O   0  0  0  0  0  0  0  0  0  0  0  0
  2  3  1  0
  2  1  1  6
  4  3  1  0
  5  4  1  0
  5  6  1  0
  7  6  1  0
  8  9  2  0
  8  2  1  0
 10  8  1  0
 11 10  1  0
 12 13  1  0
 11 12  1  1
 13 21  1  0
 14 13  2  0
 14 15  1  0
 15 16  1  0
 16 17  1  0
 17 18  2  0
 19 18  1  0
 20 19  2  0
 21 16  2  0
 21 20  1  0
 22 24  1  0
 22 11  1  0
 23 22  2  0
 25 24  1  0
 25 29  1  0
 25 26  1  1
 27 26  1  0
 28 27  2  0
 29 30  1  0
 31 27  1  0
 32 29  2  0
M  END
$$$$
