KWD.pdb
     RDKit          3D

 32 33  0  0  1  0  0  0  0  0999 V2000
    8.6051  -16.8296   21.0095 N   0  0  0  0  0  0  0  0  0  0  0  0
    9.6507  -15.9633   21.4156 C   0  0  1  0  0  0  0  0  0  0  0  0
    9.5112  -14.5520   20.8563 C   0  0  0  0  0  0  0  0  0  0  0  0
    9.4044  -14.6920   19.3807 C   0  0  0  0  0  0  0  0  0  0  0  0
    8.7113  -13.6276   18.6263 C   0  0  0  0  0  0  0  0  0  0  0  0
    8.7300  -13.8664   17.1523 C   0  0  0  0  0  0  0  0  0  0  0  0
    8.0111  -12.8627   16.4277 N   0  0  0  0  0  0  0  0  0  0  0  0
    9.7822  -15.9736   22.8811 C   0  0  0  0  0  0  0  0  0  0  0  0
   10.6426  -15.3097   23.5182 O   0  0  0  0  0  0  0  0  0  0  0  0
    8.8963  -16.7747   23.6674 N   0  0  0  0  0  0  0  0  0  0  0  0
    8.9642  -16.7722   25.0897 C   0  0  1  0  0  0  0  0  0  0  0  0
    7.5281  -16.5751   25.6066 C   0  0  0  0  0  0  0  0  0  0  0  0
    6.9976  -15.2604   25.2498 C   0  0  0  0  0  0  0  0  0  0  0  0
    6.1261  -14.9477   24.2388 C   0  0  0  0  0  0  0  0  0  0  0  0
    5.8768  -13.6157   24.2350 N   0  0  0  0  0  0  0  0  0  0  0  0
    6.5841  -13.0797   25.2366 C   0  0  0  0  0  0  0  0  0  0  0  0
    6.6794  -11.7702   25.6567 C   0  0  0  0  0  0  0  0  0  0  0  0
    7.4749  -11.4212   26.7264 C   0  0  0  0  0  0  0  0  0  0  0  0
    8.1790  -12.4118   27.3739 C   0  0  0  0  0  0  0  0  0  0  0  0
    8.0815  -13.7132   26.9528 C   0  0  0  0  0  0  0  0  0  0  0  0
    7.2894  -14.0760   25.8841 C   0  0  0  0  0  0  0  0  0  0  0  0
    9.4330  -18.0299   25.6937 C   0  0  0  0  0  0  0  0  0  0  0  0
    8.9857  -19.1108   25.2744 O   0  0  0  0  0  0  0  0  0  0  0  0
   10.3743  -17.9974   26.7312 N   0  0  0  0  0  0  0  0  0  0  0  0
   11.3176  -19.1328   26.8530 C   0  0  1  0  0  0  0  0  0  0  0  0
   12.4778  -18.9198   25.9295 C   0  0  0  0  0  0  0  0  0  0  0  0
   13.4899  -19.9554   26.1237 C   0  0  0  0  0  0  0  0  0  0  0  0
   13.1808  -21.1421   26.3076 O   0  0  0  0  0  0  0  0  0  0  0  0
   11.7502  -19.0953   28.2926 C   0  0  0  0  0  0  0  0  0  0  0  0
   11.3095  -18.1608   29.1927 O   0  0  0  0  0  0  0  0  0  0  0  0
   14.8320  -19.6103   26.1030 O   0  0  0  0  0  0  0  0  0  0  0  0
   12.5640  -19.9562   28.7320 O   0  0  0  0  0  0  0  0  0  0  0  0
  2  3  1  0
  2  1  1  1
  4  3  1  0
  5  4  1  0
  5  6  1  0
  7  6  1  0
  8  9  2  0
  8  2  1  0
 10  8  1  0
 11 10  1  0
 12 13  1  0
 11 12  1  1
 13 21  1  0
 14 13  2  0
 14 15  1  0
 15 16  1  0
 16 17  1  0
 17 18  2  0
 19 18  1  0
 20 19  2  0
 21 16  2  0
 21 20  1  0
 22 24  1  0
 22 11  1  0
 23 22  2  0
 25 24  1  0
 25 29  1  0
 25 26  1  6
 27 26  1  0
 28 27  2  0
 29 30  1  0
 31 27  1  0
 32 29  2  0
M  END
$$$$
