KWD.pdb
     RDKit          3D

 32 33  0  0  1  0  0  0  0  0999 V2000
    7.3418  -16.7221   21.1611 N   0  0  0  0  0  0  0  0  0  0  0  0
    8.3980  -15.7825   21.0597 C   0  0  1  0  0  0  0  0  0  0  0  0
    7.9305  -14.4008   20.6166 C   0  0  0  0  0  0  0  0  0  0  0  0
    7.7568  -14.4672   19.1423 C   0  0  0  0  0  0  0  0  0  0  0  0
    8.0195  -13.2469   18.3522 C   0  0  0  0  0  0  0  0  0  0  0  0
    7.6355  -13.4009   16.9173 C   0  0  0  0  0  0  0  0  0  0  0  0
    8.0226  -12.2734   16.1247 N   0  0  0  0  0  0  0  0  0  0  0  0
    9.1640  -15.7379   22.3152 C   0  0  0  0  0  0  0  0  0  0  0  0
   10.1873  -15.0251   22.4938 O   0  0  0  0  0  0  0  0  0  0  0  0
    8.7531  -16.5392   23.4260 N   0  0  0  0  0  0  0  0  0  0  0  0
    9.4420  -16.4847   24.6710 C   0  0  1  0  0  0  0  0  0  0  0  0
    8.3765  -16.5786   25.7774 C   0  0  0  0  0  0  0  0  0  0  0  0
    7.3917  -15.5029   25.6763 C   0  0  0  0  0  0  0  0  0  0  0  0
    6.0968  -15.5827   25.2334 C   0  0  0  0  0  0  0  0  0  0  0  0
    5.5090  -14.3631   25.2926 N   0  0  0  0  0  0  0  0  0  0  0  0
    6.4215  -13.5087   25.7699 C   0  0  0  0  0  0  0  0  0  0  0  0
    6.3285  -12.1563   26.0201 C   0  0  0  0  0  0  0  0  0  0  0  0
    7.4001  -11.4489   26.5204 C   0  0  0  0  0  0  0  0  0  0  0  0
    8.5755  -12.1223   26.7679 C   0  0  0  0  0  0  0  0  0  0  0  0
    8.6639  -13.4676   26.5175 C   0  0  0  0  0  0  0  0  0  0  0  0
    7.5996  -14.1873   26.0172 C   0  0  0  0  0  0  0  0  0  0  0  0
   10.3698  -17.6001   24.9194 C   0  0  0  0  0  0  0  0  0  0  0  0
   10.0619  -18.7437   24.5433 O   0  0  0  0  0  0  0  0  0  0  0  0
   11.5855  -17.3637   25.5750 N   0  0  0  0  0  0  0  0  0  0  0  0
   12.4805  -18.5176   25.8222 C   0  0  1  0  0  0  0  0  0  0  0  0
   13.9048  -18.0532   25.8265 C   0  0  0  0  0  0  0  0  0  0  0  0
   14.3501  -17.7391   24.4709 C   0  0  0  0  0  0  0  0  0  0  0  0
   13.9669  -18.3951   23.4909 O   0  0  0  0  0  0  0  0  0  0  0  0
   12.0644  -19.0189   27.1774 C   0  0  0  0  0  0  0  0  0  0  0  0
   12.5809  -20.1464   27.7602 O   0  0  0  0  0  0  0  0  0  0  0  0
   15.2230  -16.6822   24.2671 O   0  0  0  0  0  0  0  0  0  0  0  0
   11.1929  -18.3925   27.8442 O   0  0  0  0  0  0  0  0  0  0  0  0
  2  3  1  0
  2  1  1  1
  4  3  1  0
  5  4  1  0
  5  6  1  0
  7  6  1  0
  8  9  2  0
  8  2  1  0
 10  8  1  0
 11 10  1  0
 12 13  1  0
 11 12  1  1
 13 21  1  0
 14 13  2  0
 14 15  1  0
 15 16  1  0
 16 17  1  0
 17 18  2  0
 19 18  1  0
 20 19  2  0
 21 16  2  0
 21 20  1  0
 22 24  1  0
 22 11  1  0
 23 22  2  0
 25 24  1  0
 25 29  1  0
 25 26  1  1
 27 26  1  0
 28 27  2  0
 29 30  1  0
 31 27  1  0
 32 29  2  0
M  END
$$$$
