KWD.pdb
     RDKit          3D

 32 33  0  0  1  0  0  0  0  0999 V2000
    7.2290  -16.0433   20.7698 N   0  0  0  0  0  0  0  0  0  0  0  0
    8.3142  -15.1511   20.5817 C   0  0  1  0  0  0  0  0  0  0  0  0
    7.8924  -13.8103   19.9916 C   0  0  0  0  0  0  0  0  0  0  0  0
    7.3166  -14.1012   18.6529 C   0  0  0  0  0  0  0  0  0  0  0  0
    8.1746  -13.9069   17.4662 C   0  0  0  0  0  0  0  0  0  0  0  0
    7.4911  -14.2956   16.1966 C   0  0  0  0  0  0  0  0  0  0  0  0
    8.3776  -14.2800   15.0726 N   0  0  0  0  0  0  0  0  0  0  0  0
    9.0719  -14.9977   21.8337 C   0  0  0  0  0  0  0  0  0  0  0  0
   10.0694  -14.2401   21.9678 O   0  0  0  0  0  0  0  0  0  0  0  0
    8.6828  -15.7376   22.9939 N   0  0  0  0  0  0  0  0  0  0  0  0
    9.4785  -15.7322   24.1747 C   0  0  1  0  0  0  0  0  0  0  0  0
    8.5694  -16.1873   25.3299 C   0  0  0  0  0  0  0  0  0  0  0  0
    7.4366  -15.2828   25.5190 C   0  0  0  0  0  0  0  0  0  0  0  0
    6.1085  -15.5336   25.2892 C   0  0  0  0  0  0  0  0  0  0  0  0
    5.3699  -14.4370   25.5866 N   0  0  0  0  0  0  0  0  0  0  0  0
    6.2194  -13.4910   26.0035 C   0  0  0  0  0  0  0  0  0  0  0  0
    5.9772  -12.2001   26.4220 C   0  0  0  0  0  0  0  0  0  0  0  0
    7.0071  -11.3744   26.8180 C   0  0  0  0  0  0  0  0  0  0  0  0
    8.2932  -11.8656   26.7881 C   0  0  0  0  0  0  0  0  0  0  0  0
    8.5298  -13.1503   26.3711 C   0  0  0  0  0  0  0  0  0  0  0  0
    7.5088  -13.9868   25.9723 C   0  0  0  0  0  0  0  0  0  0  0  0
   10.6106  -16.6727   24.1679 C   0  0  0  0  0  0  0  0  0  0  0  0
   10.4601  -17.8036   23.6752 O   0  0  0  0  0  0  0  0  0  0  0  0
   11.8417  -16.2868   24.7148 N   0  0  0  0  0  0  0  0  0  0  0  0
   12.9898  -17.2114   24.5701 C   0  0  1  0  0  0  0  0  0  0  0  0
   14.2395  -16.4219   24.3269 C   0  0  0  0  0  0  0  0  0  0  0  0
   15.4016  -17.3040   24.2507 C   0  0  0  0  0  0  0  0  0  0  0  0
   15.3299  -18.4337   23.7444 O   0  0  0  0  0  0  0  0  0  0  0  0
   13.0462  -17.9328   25.8883 C   0  0  0  0  0  0  0  0  0  0  0  0
   13.7430  -19.0958   26.0868 O   0  0  0  0  0  0  0  0  0  0  0  0
   16.6189  -16.8742   24.7550 O   0  0  0  0  0  0  0  0  0  0  0  0
   12.4290  -17.4715   26.8896 O   0  0  0  0  0  0  0  0  0  0  0  0
  2  3  1  0
  2  1  1  1
  4  3  1  0
  5  4  1  0
  5  6  1  0
  7  6  1  0
  8  9  2  0
  8  2  1  0
 10  8  1  0
 11 10  1  0
 12 13  1  0
 11 12  1  1
 13 21  1  0
 14 13  2  0
 14 15  1  0
 15 16  1  0
 16 17  1  0
 17 18  2  0
 19 18  1  0
 20 19  2  0
 21 16  2  0
 21 20  1  0
 22 24  1  0
 22 11  1  0
 23 22  2  0
 25 24  1  0
 25 29  1  0
 25 26  1  1
 27 26  1  0
 28 27  2  0
 29 30  1  0
 31 27  1  0
 32 29  2  0
M  END
$$$$
