KWD.pdb
     RDKit          3D

 32 33  0  0  1  0  0  0  0  0999 V2000
    7.1450  -15.8128   20.6770 N   0  0  0  0  0  0  0  0  0  0  0  0
    8.3677  -15.1005   20.5973 C   0  0  1  0  0  0  0  0  0  0  0  0
    8.1960  -13.6685   20.1033 C   0  0  0  0  0  0  0  0  0  0  0  0
    7.4839  -13.7540   18.8018 C   0  0  0  0  0  0  0  0  0  0  0  0
    8.2448  -13.4656   17.5689 C   0  0  0  0  0  0  0  0  0  0  0  0
    7.4140  -13.6126   16.3366 C   0  0  0  0  0  0  0  0  0  0  0  0
    8.1444  -13.3006   15.1456 N   0  0  0  0  0  0  0  0  0  0  0  0
    9.0822  -15.1671   21.8818 C   0  0  0  0  0  0  0  0  0  0  0  0
   10.2109  -14.6479   22.0906 O   0  0  0  0  0  0  0  0  0  0  0  0
    8.4916  -15.8552   22.9875 N   0  0  0  0  0  0  0  0  0  0  0  0
    9.1957  -16.0247   24.2135 C   0  0  1  0  0  0  0  0  0  0  0  0
    8.1594  -16.4430   25.2714 C   0  0  0  0  0  0  0  0  0  0  0  0
    7.1413  -15.4131   25.4721 C   0  0  0  0  0  0  0  0  0  0  0  0
    5.7786  -15.5508   25.4150 C   0  0  0  0  0  0  0  0  0  0  0  0
    5.1802  -14.3595   25.6585 N   0  0  0  0  0  0  0  0  0  0  0  0
    6.1534  -13.4657   25.8698 C   0  0  0  0  0  0  0  0  0  0  0  0
    6.0775  -12.1198   26.1578 C   0  0  0  0  0  0  0  0  0  0  0  0
    7.2158  -11.3656   26.3435 C   0  0  0  0  0  0  0  0  0  0  0  0
    8.4408  -11.9852   26.2355 C   0  0  0  0  0  0  0  0  0  0  0  0
    8.5119  -13.3244   25.9488 C   0  0  0  0  0  0  0  0  0  0  0  0
    7.3810  -14.0904   25.7607 C   0  0  0  0  0  0  0  0  0  0  0  0
   10.2088  -17.0924   24.2081 C   0  0  0  0  0  0  0  0  0  0  0  0
   10.4148  -17.7313   23.1624 O   0  0  0  0  0  0  0  0  0  0  0  0
   10.9278  -17.3780   25.3764 N   0  0  0  0  0  0  0  0  0  0  0  0
   11.9850  -18.4132   25.3094 C   0  0  1  0  0  0  0  0  0  0  0  0
   13.0776  -17.9530   24.3937 C   0  0  0  0  0  0  0  0  0  0  0  0
   14.1830  -18.9083   24.3869 C   0  0  0  0  0  0  0  0  0  0  0  0
   14.1140  -19.9888   24.9913 O   0  0  0  0  0  0  0  0  0  0  0  0
   12.4722  -18.5300   26.7272 C   0  0  0  0  0  0  0  0  0  0  0  0
   13.3783  -19.4704   27.1424 O   0  0  0  0  0  0  0  0  0  0  0  0
   15.3416  -18.6063   23.6889 O   0  0  0  0  0  0  0  0  0  0  0  0
   12.0442  -17.7355   27.6114 O   0  0  0  0  0  0  0  0  0  0  0  0
  2  3  1  0
  2  1  1  1
  4  3  1  0
  5  4  1  0
  5  6  1  0
  7  6  1  0
  8  9  2  0
  8  2  1  0
 10  8  1  0
 11 10  1  0
 12 13  1  0
 11 12  1  1
 13 21  1  0
 14 13  2  0
 14 15  1  0
 15 16  1  0
 16 17  1  0
 17 18  2  0
 19 18  1  0
 20 19  2  0
 21 16  2  0
 21 20  1  0
 22 24  1  0
 22 11  1  0
 23 22  2  0
 25 24  1  0
 25 29  1  0
 25 26  1  6
 27 26  1  0
 28 27  2  0
 29 30  1  0
 31 27  1  0
 32 29  2  0
M  END
$$$$
