KWD.pdb
     RDKit          3D

 32 33  0  0  1  0  0  0  0  0999 V2000
    6.8052  -16.2488   20.7291 N   0  0  0  0  0  0  0  0  0  0  0  0
    8.1974  -16.5079   20.6722 C   0  0  1  0  0  0  0  0  0  0  0  0
    8.8642  -15.9308   19.4287 C   0  0  0  0  0  0  0  0  0  0  0  0
    8.7726  -16.9770   18.3772 C   0  0  0  0  0  0  0  0  0  0  0  0
    9.9371  -17.1811   17.4916 C   0  0  0  0  0  0  0  0  0  0  0  0
    9.7158  -18.2745   16.4987 C   0  0  0  0  0  0  0  0  0  0  0  0
    9.5853  -17.7795   15.1618 N   0  0  0  0  0  0  0  0  0  0  0  0
    8.8505  -16.0642   21.9139 C   0  0  0  0  0  0  0  0  0  0  0  0
    9.5244  -15.0050   22.0186 O   0  0  0  0  0  0  0  0  0  0  0  0
    8.7366  -16.8575   23.0982 N   0  0  0  0  0  0  0  0  0  0  0  0
    9.3810  -16.4744   24.3087 C   0  0  1  0  0  0  0  0  0  0  0  0
    8.3498  -16.6436   25.4384 C   0  0  0  0  0  0  0  0  0  0  0  0
    7.3299  -15.5968   25.4048 C   0  0  0  0  0  0  0  0  0  0  0  0
    6.0165  -15.7097   25.0285 C   0  0  0  0  0  0  0  0  0  0  0  0
    5.3970  -14.5093   25.1364 N   0  0  0  0  0  0  0  0  0  0  0  0
    6.3077  -13.6342   25.5785 C   0  0  0  0  0  0  0  0  0  0  0  0
    6.1881  -12.2888   25.8534 C   0  0  0  0  0  0  0  0  0  0  0  0
    7.2632  -11.5561   26.3080 C   0  0  0  0  0  0  0  0  0  0  0  0
    8.4692  -12.1970   26.4841 C   0  0  0  0  0  0  0  0  0  0  0  0
    8.5840  -13.5356   26.2093 C   0  0  0  0  0  0  0  0  0  0  0  0
    7.5165  -14.2802   25.7541 C   0  0  0  0  0  0  0  0  0  0  0  0
   10.5307  -17.3088   24.6941 C   0  0  0  0  0  0  0  0  0  0  0  0
   10.4793  -18.5372   24.5140 O   0  0  0  0  0  0  0  0  0  0  0  0
   11.6669  -16.7136   25.2582 N   0  0  0  0  0  0  0  0  0  0  0  0
   12.7993  -17.5906   25.6354 C   0  0  1  0  0  0  0  0  0  0  0  0
   14.0396  -16.7654   25.7924 C   0  0  0  0  0  0  0  0  0  0  0  0
   14.9417  -16.9676   24.6611 C   0  0  0  0  0  0  0  0  0  0  0  0
   14.6699  -17.7569   23.7442 O   0  0  0  0  0  0  0  0  0  0  0  0
   12.3737  -18.1935   26.9456 C   0  0  0  0  0  0  0  0  0  0  0  0
   12.7079  -19.4623   27.3404 O   0  0  0  0  0  0  0  0  0  0  0  0
   16.1335  -16.2626   24.6041 O   0  0  0  0  0  0  0  0  0  0  0  0
   11.6681  -17.5234   27.7515 O   0  0  0  0  0  0  0  0  0  0  0  0
  2  3  1  0
  2  1  1  1
  4  3  1  0
  5  4  1  0
  5  6  1  0
  7  6  1  0
  8  9  2  0
  8  2  1  0
 10  8  1  0
 11 10  1  0
 12 13  1  0
 11 12  1  1
 13 21  1  0
 14 13  2  0
 14 15  1  0
 15 16  1  0
 16 17  1  0
 17 18  2  0
 19 18  1  0
 20 19  2  0
 21 16  2  0
 21 20  1  0
 22 24  1  0
 22 11  1  0
 23 22  2  0
 25 24  1  0
 25 29  1  0
 25 26  1  1
 27 26  1  0
 28 27  2  0
 29 30  1  0
 31 27  1  0
 32 29  2  0
M  END
$$$$
