KWD.pdb
     RDKit          3D

 32 33  0  0  1  0  0  0  0  0999 V2000
    7.5158  -15.0536   19.9508 N   0  0  0  0  0  0  0  0  0  0  0  0
    8.4078  -16.0651   20.3868 C   0  0  1  0  0  0  0  0  0  0  0  0
    9.5106  -16.3670   19.3785 C   0  0  0  0  0  0  0  0  0  0  0  0
    8.8880  -17.1843   18.3048 C   0  0  0  0  0  0  0  0  0  0  0  0
    9.7638  -17.7394   17.2526 C   0  0  0  0  0  0  0  0  0  0  0  0
    9.0262  -18.6251   16.3030 C   0  0  0  0  0  0  0  0  0  0  0  0
    9.8723  -19.1436   15.2711 N   0  0  0  0  0  0  0  0  0  0  0  0
    8.9417  -15.7362   21.7178 C   0  0  0  0  0  0  0  0  0  0  0  0
    9.5327  -14.6590   21.9959 O   0  0  0  0  0  0  0  0  0  0  0  0
    8.8006  -16.6717   22.7901 N   0  0  0  0  0  0  0  0  0  0  0  0
    9.3570  -16.4122   24.0749 C   0  0  1  0  0  0  0  0  0  0  0  0
    8.2662  -16.7392   25.1100 C   0  0  0  0  0  0  0  0  0  0  0  0
    7.2829  -15.6631   25.2219 C   0  0  0  0  0  0  0  0  0  0  0  0
    5.9669  -15.6788   24.8383 C   0  0  0  0  0  0  0  0  0  0  0  0
    5.3890  -14.4835   25.1099 N   0  0  0  0  0  0  0  0  0  0  0  0
    6.3288  -13.7082   25.6633 C   0  0  0  0  0  0  0  0  0  0  0  0
    6.2553  -12.4091   26.1184 C   0  0  0  0  0  0  0  0  0  0  0  0
    7.3544  -11.7820   26.6643 C   0  0  0  0  0  0  0  0  0  0  0  0
    8.5373  -12.4819   26.7479 C   0  0  0  0  0  0  0  0  0  0  0  0
    8.6063  -13.7741   26.2939 C   0  0  0  0  0  0  0  0  0  0  0  0
    7.5144  -14.4131   25.7457 C   0  0  0  0  0  0  0  0  0  0  0  0
   10.5100  -17.2526   24.4362 C   0  0  0  0  0  0  0  0  0  0  0  0
   10.5235  -18.4475   24.0953 O   0  0  0  0  0  0  0  0  0  0  0  0
   11.5766  -16.7008   25.1583 N   0  0  0  0  0  0  0  0  0  0  0  0
   12.7303  -17.5739   25.4751 C   0  0  1  0  0  0  0  0  0  0  0  0
   13.9924  -16.7677   25.4370 C   0  0  0  0  0  0  0  0  0  0  0  0
   15.1443  -17.5938   25.7910 C   0  0  0  0  0  0  0  0  0  0  0  0
   15.0474  -18.8224   25.9278 O   0  0  0  0  0  0  0  0  0  0  0  0
   12.4409  -18.0720   26.8641 C   0  0  0  0  0  0  0  0  0  0  0  0
   13.1385  -19.0858   27.4666 O   0  0  0  0  0  0  0  0  0  0  0  0
   16.3803  -16.9961   25.9803 O   0  0  0  0  0  0  0  0  0  0  0  0
   11.5106  -17.5516   27.5424 O   0  0  0  0  0  0  0  0  0  0  0  0
  2  3  1  0
  2  1  1  6
  4  3  1  0
  5  4  1  0
  5  6  1  0
  7  6  1  0
  8  9  2  0
  8  2  1  0
 10  8  1  0
 11 10  1  0
 12 13  1  0
 11 12  1  1
 13 21  1  0
 14 13  2  0
 14 15  1  0
 15 16  1  0
 16 17  1  0
 17 18  2  0
 19 18  1  0
 20 19  2  0
 21 16  2  0
 21 20  1  0
 22 24  1  0
 22 11  1  0
 23 22  2  0
 25 24  1  0
 25 29  1  0
 25 26  1  1
 27 26  1  0
 28 27  2  0
 29 30  1  0
 31 27  1  0
 32 29  2  0
M  END
$$$$
