KWD.pdb
     RDKit          3D

 32 33  0  0  1  0  0  0  0  0999 V2000
    7.9118  -16.4188   19.0406 N   0  0  0  0  0  0  0  0  0  0  0  0
    8.6512  -15.2258   19.2371 C   0  0  1  0  0  0  0  0  0  0  0  0
    8.0551  -14.0248   18.5116 C   0  0  0  0  0  0  0  0  0  0  0  0
    7.9616  -14.4025   17.0774 C   0  0  0  0  0  0  0  0  0  0  0  0
    7.9715  -13.3232   16.0687 C   0  0  0  0  0  0  0  0  0  0  0  0
    7.9140  -13.8461   14.6711 C   0  0  0  0  0  0  0  0  0  0  0  0
    7.8840  -12.7976   13.6968 N   0  0  0  0  0  0  0  0  0  0  0  0
    8.8410  -14.9734   20.6742 C   0  0  0  0  0  0  0  0  0  0  0  0
    9.5909  -14.0752   21.1411 O   0  0  0  0  0  0  0  0  0  0  0  0
    8.1481  -15.7765   21.6333 N   0  0  0  0  0  0  0  0  0  0  0  0
    8.3460  -15.5929   23.0314 C   0  0  1  0  0  0  0  0  0  0  0  0
    6.9732  -15.7661   23.7049 C   0  0  0  0  0  0  0  0  0  0  0  0
    6.9865  -15.3059   25.0924 C   0  0  0  0  0  0  0  0  0  0  0  0
    6.9435  -16.0641   26.2338 C   0  0  0  0  0  0  0  0  0  0  0  0
    6.9745  -15.2625   27.3261 N   0  0  0  0  0  0  0  0  0  0  0  0
    7.0367  -14.0002   26.8867 C   0  0  0  0  0  0  0  0  0  0  0  0
    7.0888  -12.8154   27.5895 C   0  0  0  0  0  0  0  0  0  0  0  0
    7.1509  -11.6026   26.9381 C   0  0  0  0  0  0  0  0  0  0  0  0
    7.1600  -11.5948   25.5611 C   0  0  0  0  0  0  0  0  0  0  0  0
    7.1080  -12.7756   24.8657 C   0  0  0  0  0  0  0  0  0  0  0  0
    7.0456  -13.9957   25.5049 C   0  0  0  0  0  0  0  0  0  0  0  0
    9.2284  -16.5820   23.6713 C   0  0  0  0  0  0  0  0  0  0  0  0
    9.0738  -17.7890   23.4198 O   0  0  0  0  0  0  0  0  0  0  0  0
   10.2294  -16.1559   24.5545 N   0  0  0  0  0  0  0  0  0  0  0  0
   11.1931  -17.1632   25.0549 C   0  0  1  0  0  0  0  0  0  0  0  0
   12.5870  -16.6314   24.9197 C   0  0  0  0  0  0  0  0  0  0  0  0
   13.0794  -16.8127   23.5561 C   0  0  0  0  0  0  0  0  0  0  0  0
   12.9409  -17.8860   22.9508 O   0  0  0  0  0  0  0  0  0  0  0  0
   10.8145  -17.3451   26.4987 C   0  0  0  0  0  0  0  0  0  0  0  0
    9.7874  -16.6697   27.1041 O   0  0  0  0  0  0  0  0  0  0  0  0
   13.7185  -15.7626   22.9161 O   0  0  0  0  0  0  0  0  0  0  0  0
   11.4566  -18.1560   27.2244 O   0  0  0  0  0  0  0  0  0  0  0  0
  2  3  1  0
  2  1  1  1
  4  3  1  0
  5  4  1  0
  5  6  1  0
  7  6  1  0
  8  9  2  0
  8  2  1  0
 10  8  1  0
 11 10  1  0
 12 13  1  0
 11 12  1  1
 13 21  1  0
 14 13  2  0
 14 15  1  0
 15 16  1  0
 16 17  1  0
 17 18  2  0
 19 18  1  0
 20 19  2  0
 21 16  2  0
 21 20  1  0
 22 24  1  0
 22 11  1  0
 23 22  2  0
 25 24  1  0
 25 29  1  0
 25 26  1  1
 27 26  1  0
 28 27  2  0
 29 30  1  0
 31 27  1  0
 32 29  2  0
M  END
$$$$
