KWD.pdb
     RDKit          3D

 32 33  0  0  1  0  0  0  0  0999 V2000
    7.8534  -16.2825   18.8960 N   0  0  0  0  0  0  0  0  0  0  0  0
    8.8969  -15.3405   19.0761 C   0  0  1  0  0  0  0  0  0  0  0  0
    8.7113  -14.0746   18.2473 C   0  0  0  0  0  0  0  0  0  0  0  0
    8.2696  -14.5148   16.8984 C   0  0  0  0  0  0  0  0  0  0  0  0
    8.5429  -13.6272   15.7496 C   0  0  0  0  0  0  0  0  0  0  0  0
    7.8950  -14.1043   14.4915 C   0  0  0  0  0  0  0  0  0  0  0  0
    8.0388  -13.1710   13.4156 N   0  0  0  0  0  0  0  0  0  0  0  0
    9.0815  -15.0502   20.5068 C   0  0  0  0  0  0  0  0  0  0  0  0
   10.0540  -14.4019   20.9767 O   0  0  0  0  0  0  0  0  0  0  0  0
    8.1181  -15.5159   21.4554 N   0  0  0  0  0  0  0  0  0  0  0  0
    8.3571  -15.4252   22.8562 C   0  0  1  0  0  0  0  0  0  0  0  0
    6.9817  -15.3345   23.5406 C   0  0  0  0  0  0  0  0  0  0  0  0
    7.1040  -15.0761   24.9743 C   0  0  0  0  0  0  0  0  0  0  0  0
    7.2802  -15.9863   25.9842 C   0  0  0  0  0  0  0  0  0  0  0  0
    7.3468  -15.3490   27.1783 N   0  0  0  0  0  0  0  0  0  0  0  0
    7.2140  -14.0401   26.9342 C   0  0  0  0  0  0  0  0  0  0  0  0
    7.2129  -12.9692   27.8023 C   0  0  0  0  0  0  0  0  0  0  0  0
    7.0610  -11.6791   27.3421 C   0  0  0  0  0  0  0  0  0  0  0  0
    6.9090  -11.4768   25.9885 C   0  0  0  0  0  0  0  0  0  0  0  0
    6.9107  -12.5447   25.1284 C   0  0  0  0  0  0  0  0  0  0  0  0
    7.0617  -13.8403   25.5754 C   0  0  0  0  0  0  0  0  0  0  0  0
    9.0195  -16.5964   23.4527 C   0  0  0  0  0  0  0  0  0  0  0  0
    8.4586  -17.7041   23.4036 O   0  0  0  0  0  0  0  0  0  0  0  0
   10.2702  -16.4525   24.0681 N   0  0  0  0  0  0  0  0  0  0  0  0
   11.0080  -17.6805   24.4440 C   0  0  1  0  0  0  0  0  0  0  0  0
   12.2806  -17.7592   23.6577 C   0  0  0  0  0  0  0  0  0  0  0  0
   12.9871  -16.4807   23.6883 C   0  0  0  0  0  0  0  0  0  0  0  0
   12.8752  -15.6525   22.7723 O   0  0  0  0  0  0  0  0  0  0  0  0
   11.2819  -17.5069   25.9124 C   0  0  0  0  0  0  0  0  0  0  0  0
   10.8435  -16.4343   26.6438 O   0  0  0  0  0  0  0  0  0  0  0  0
   13.8050  -16.1786   24.7656 O   0  0  0  0  0  0  0  0  0  0  0  0
   11.9501  -18.3770   26.5391 O   0  0  0  0  0  0  0  0  0  0  0  0
  2  3  1  0
  2  1  1  1
  4  3  1  0
  5  4  1  0
  5  6  1  0
  7  6  1  0
  8  9  2  0
  8  2  1  0
 10  8  1  0
 11 10  1  0
 12 13  1  0
 11 12  1  1
 13 21  1  0
 14 13  2  0
 14 15  1  0
 15 16  1  0
 16 17  1  0
 17 18  2  0
 19 18  1  0
 20 19  2  0
 21 16  2  0
 21 20  1  0
 22 24  1  0
 22 11  1  0
 23 22  2  0
 25 24  1  0
 25 29  1  0
 25 26  1  6
 27 26  1  0
 28 27  2  0
 29 30  1  0
 31 27  1  0
 32 29  2  0
M  END
$$$$
