DKL.pdb
     RDKit          3D

 26 25  0  0  1  0  0  0  0  0999 V2000
   10.0736  -18.6911   20.1713 N   0  0  0  0  0  0  0  0  0  0  0  0
    9.9698  -17.2642   20.2268 C   0  0  1  0  0  0  0  0  0  0  0  0
    9.5584  -16.6884   18.8950 C   0  0  0  0  0  0  0  0  0  0  0  0
   10.5546  -16.9628   17.8546 C   0  0  0  0  0  0  0  0  0  0  0  0
   10.1944  -17.0811   16.6375 O   0  0  0  0  0  0  0  0  0  0  0  0
    9.0545  -16.8791   21.3236 C   0  0  0  0  0  0  0  0  0  0  0  0
    8.6017  -15.6987   21.4045 O   0  0  0  0  0  0  0  0  0  0  0  0
   11.9092  -17.1022   18.1509 O   0  0  0  0  0  0  0  0  0  0  0  0
    8.6875  -17.8494   22.2894 N   0  0  0  0  0  0  0  0  0  0  0  0
    7.7444  -17.5295   23.3444 C   0  0  1  0  0  0  0  0  0  0  0  0
    7.2634  -18.8726   23.8935 C   0  0  0  0  0  0  0  0  0  0  0  0
    6.0930  -19.3440   23.0919 C   0  0  0  0  0  0  0  0  0  0  0  0
    5.6570  -20.7091   23.5019 C   0  0  0  0  0  0  0  0  0  0  0  0
    4.5031  -21.1890   22.6694 C   0  0  0  0  0  0  0  0  0  0  0  0
    4.0713  -22.5163   23.1003 N   0  0  0  0  0  0  0  0  0  0  0  0
    8.4499  -16.7996   24.4124 C   0  0  0  0  0  0  0  0  0  0  0  0
    9.6923  -16.9874   24.5524 O   0  0  0  0  0  0  0  0  0  0  0  0
    6.0562  -12.1069   26.0188 C   0  0  0  0  0  0  0  0  0  0  0  0
    7.1189  -13.0878   25.6606 C   0  0  1  0  0  0  0  0  0  0  0  0
    8.3126  -12.3453   25.0503 C   0  0  0  0  0  0  0  0  0  0  0  0
    7.5279  -14.0769   26.6651 C   0  0  0  0  0  0  0  0  0  0  0  0
    8.4612  -15.1692   26.3492 C   0  0  2  0  0  0  0  0  0  0  0  0
    7.7803  -15.9246   25.2510 N   0  0  0  0  0  0  0  0  0  0  0  0
    8.8574  -16.1157   27.3641 C   0  0  0  0  0  0  0  0  0  0  0  0
    9.8968  -15.8285   28.2704 O   0  0  0  0  0  0  0  0  0  0  0  0
    8.3169  -17.2270   27.5025 O   0  0  0  0  0  0  0  0  0  0  0  0
  2  6  1  0
  2  1  1  6
  3  2  1  0
  4  3  1  0
  5  4  2  0
  6  7  2  0
  8  4  1  0
  9 10  1  0
  9  6  1  0
 11 12  1  0
 10 11  1  1
 12 13  1  0
 13 14  1  0
 14 15  1  0
 16 10  1  0
 16 17  2  0
 19 21  1  0
 19 18  1  1
 20 19  1  0
 22 21  1  1
 22 23  1  0
 22 24  1  0
 23 16  1  0
 24 26  2  0
 24 25  1  0
M  END
$$$$
