DKL.pdb
     RDKit          3D

 26 25  0  0  1  0  0  0  0  0999 V2000
    9.2872  -18.3166   18.8262 N   0  0  0  0  0  0  0  0  0  0  0  0
    9.9170  -18.1319   20.0987 C   0  0  1  0  0  0  0  0  0  0  0  0
   11.1252  -17.2358   19.9918 C   0  0  0  0  0  0  0  0  0  0  0  0
   12.2415  -17.9086   19.3199 C   0  0  0  0  0  0  0  0  0  0  0  0
   12.0913  -19.0829   18.8471 O   0  0  0  0  0  0  0  0  0  0  0  0
    8.9211  -17.6352   21.0737 C   0  0  0  0  0  0  0  0  0  0  0  0
    8.1625  -16.6623   20.7856 O   0  0  0  0  0  0  0  0  0  0  0  0
   13.4873  -17.3010   19.1748 O   0  0  0  0  0  0  0  0  0  0  0  0
    8.8239  -18.2619   22.3412 N   0  0  0  0  0  0  0  0  0  0  0  0
    7.8181  -17.8472   23.3012 C   0  0  1  0  0  0  0  0  0  0  0  0
    7.5437  -19.0733   24.1719 C   0  0  0  0  0  0  0  0  0  0  0  0
    6.3784  -19.8252   23.6139 C   0  0  0  0  0  0  0  0  0  0  0  0
    6.1111  -21.0761   24.3789 C   0  0  0  0  0  0  0  0  0  0  0  0
    4.9349  -21.8216   23.8169 C   0  0  0  0  0  0  0  0  0  0  0  0
    4.6139  -22.9812   24.6452 N   0  0  0  0  0  0  0  0  0  0  0  0
    8.3745  -16.7748   24.1447 C   0  0  0  0  0  0  0  0  0  0  0  0
    9.5985  -16.8266   24.4571 O   0  0  0  0  0  0  0  0  0  0  0  0
    8.0207  -11.5313   26.3221 C   0  0  0  0  0  0  0  0  0  0  0  0
    7.0016  -12.5898   26.5684 C   0  0  1  0  0  0  0  0  0  0  0  0
    5.6268  -11.9392   26.7563 C   0  0  0  0  0  0  0  0  0  0  0  0
    6.9566  -13.7444   25.6631 C   0  0  0  0  0  0  0  0  0  0  0  0
    8.0930  -14.6675   25.5194 C   0  0  2  0  0  0  0  0  0  0  0  0
    7.5866  -15.7278   24.5923 N   0  0  0  0  0  0  0  0  0  0  0  0
    8.6633  -15.3185   26.6742 C   0  0  0  0  0  0  0  0  0  0  0  0
    7.9656  -16.3265   27.3682 O   0  0  0  0  0  0  0  0  0  0  0  0
    9.7878  -15.0373   27.1244 O   0  0  0  0  0  0  0  0  0  0  0  0
  2  6  1  0
  2  1  1  6
  3  2  1  0
  4  3  1  0
  5  4  2  0
  6  7  2  0
  8  4  1  0
  9 10  1  0
  9  6  1  0
 11 12  1  0
 10 11  1  1
 12 13  1  0
 13 14  1  0
 14 15  1  0
 16 10  1  0
 16 17  2  0
 19 21  1  0
 19 18  1  6
 20 19  1  0
 22 21  1  1
 22 23  1  0
 22 24  1  0
 23 16  1  0
 24 26  2  0
 24 25  1  0
M  END
$$$$
