DKL.pdb
     RDKit          3D

 26 25  0  0  1  0  0  0  0  0999 V2000
   11.0680  -18.5474   20.3873 N   0  0  0  0  0  0  0  0  0  0  0  0
   10.9974  -17.1201   20.4743 C   0  0  1  0  0  0  0  0  0  0  0  0
   10.9130  -16.4872   19.1081 C   0  0  0  0  0  0  0  0  0  0  0  0
   12.1408  -16.7000   18.3352 C   0  0  0  0  0  0  0  0  0  0  0  0
   12.1795  -16.3978   17.0973 O   0  0  0  0  0  0  0  0  0  0  0  0
    9.8713  -16.7352   21.3534 C   0  0  0  0  0  0  0  0  0  0  0  0
    9.4928  -15.5286   21.4299 O   0  0  0  0  0  0  0  0  0  0  0  0
   13.2920  -17.2314   18.9135 O   0  0  0  0  0  0  0  0  0  0  0  0
    9.2163  -17.7356   22.1144 N   0  0  0  0  0  0  0  0  0  0  0  0
    8.0701  -17.4098   22.9421 C   0  0  1  0  0  0  0  0  0  0  0  0
    7.3631  -18.7375   23.2146 C   0  0  0  0  0  0  0  0  0  0  0  0
    6.3464  -18.9846   22.1470 C   0  0  0  0  0  0  0  0  0  0  0  0
    5.6169  -20.2659   22.3653 C   0  0  0  0  0  0  0  0  0  0  0  0
    4.6612  -20.5506   21.2427 C   0  0  0  0  0  0  0  0  0  0  0  0
    3.9729  -21.8208   21.4591 N   0  0  0  0  0  0  0  0  0  0  0  0
    8.5455  -16.8487   24.2189 C   0  0  0  0  0  0  0  0  0  0  0  0
    9.7293  -17.1000   24.5849 O   0  0  0  0  0  0  0  0  0  0  0  0
    6.2423  -12.1014   26.0673 C   0  0  0  0  0  0  0  0  0  0  0  0
    7.3239  -13.1071   25.8718 C   0  0  1  0  0  0  0  0  0  0  0  0
    8.6864  -12.4364   26.0779 C   0  0  0  0  0  0  0  0  0  0  0  0
    7.2206  -14.3934   26.5715 C   0  0  0  0  0  0  0  0  0  0  0  0
    8.1644  -15.4941   26.3236 C   0  0  2  0  0  0  0  0  0  0  0  0
    7.7254  -16.0622   25.0103 N   0  0  0  0  0  0  0  0  0  0  0  0
    8.2887  -16.5829   27.2626 C   0  0  0  0  0  0  0  0  0  0  0  0
    9.2714  -16.5736   28.2719 O   0  0  0  0  0  0  0  0  0  0  0  0
    7.5498  -17.5829   27.2427 O   0  0  0  0  0  0  0  0  0  0  0  0
  2  6  1  0
  2  1  1  6
  3  2  1  0
  4  3  1  0
  5  4  2  0
  6  7  2  0
  8  4  1  0
  9 10  1  0
  9  6  1  0
 11 12  1  0
 10 11  1  1
 12 13  1  0
 13 14  1  0
 14 15  1  0
 16 10  1  0
 16 17  2  0
 19 21  1  0
 19 18  1  1
 20 19  1  0
 22 21  1  1
 22 23  1  0
 22 24  1  0
 23 16  1  0
 24 26  2  0
 24 25  1  0
M  END
$$$$
