DKL.pdb
     RDKit          3D

 26 25  0  0  1  0  0  0  0  0999 V2000
   11.9317  -16.5884   18.9984 N   0  0  0  0  0  0  0  0  0  0  0  0
   11.9329  -15.5151   19.9460 C   0  0  1  0  0  0  0  0  0  0  0  0
   12.2966  -14.2043   19.2949 C   0  0  0  0  0  0  0  0  0  0  0  0
   13.6919  -14.1915   18.8442 C   0  0  0  0  0  0  0  0  0  0  0  0
   14.5402  -14.9900   19.3620 O   0  0  0  0  0  0  0  0  0  0  0  0
   10.6257  -15.4669   20.6374 C   0  0  0  0  0  0  0  0  0  0  0  0
    9.9110  -14.4216   20.5985 O   0  0  0  0  0  0  0  0  0  0  0  0
   14.1365  -13.3217   17.8503 O   0  0  0  0  0  0  0  0  0  0  0  0
   10.1784  -16.6082   21.3487 N   0  0  0  0  0  0  0  0  0  0  0  0
    8.9053  -16.5996   22.0446 C   0  0  1  0  0  0  0  0  0  0  0  0
    8.5194  -18.0679   22.2238 C   0  0  0  0  0  0  0  0  0  0  0  0
    7.9564  -18.5912   20.9416 C   0  0  0  0  0  0  0  0  0  0  0  0
    7.6523  -20.0479   21.0261 C   0  0  0  0  0  0  0  0  0  0  0  0
    7.0547  -20.5581   19.7465 C   0  0  0  0  0  0  0  0  0  0  0  0
    6.7528  -21.9837   19.8491 N   0  0  0  0  0  0  0  0  0  0  0  0
    9.0892  -15.9867   23.3719 C   0  0  0  0  0  0  0  0  0  0  0  0
   10.1956  -16.1468   23.9624 O   0  0  0  0  0  0  0  0  0  0  0  0
    7.8000  -11.7406   26.9024 C   0  0  0  0  0  0  0  0  0  0  0  0
    6.8498  -12.8401   26.5741 C   0  0  1  0  0  0  0  0  0  0  0  0
    5.4150  -12.3033   26.6179 C   0  0  0  0  0  0  0  0  0  0  0  0
    7.1068  -13.6568   25.3818 C   0  0  0  0  0  0  0  0  0  0  0  0
    8.2388  -14.5932   25.3070 C   0  0  2  0  0  0  0  0  0  0  0  0
    8.0818  -15.2493   23.9710 N   0  0  0  0  0  0  0  0  0  0  0  0
    8.4036  -15.6296   26.2976 C   0  0  0  0  0  0  0  0  0  0  0  0
    9.3777  -15.5293   27.3103 O   0  0  0  0  0  0  0  0  0  0  0  0
    7.7090  -16.6608   26.3218 O   0  0  0  0  0  0  0  0  0  0  0  0
  2  6  1  0
  2  1  1  6
  3  2  1  0
  4  3  1  0
  5  4  2  0
  6  7  2  0
  8  4  1  0
  9 10  1  0
  9  6  1  0
 11 12  1  0
 10 11  1  1
 12 13  1  0
 13 14  1  0
 14 15  1  0
 16 10  1  0
 16 17  2  0
 19 21  1  0
 19 18  1  6
 20 19  1  0
 22 21  1  1
 22 23  1  0
 22 24  1  0
 23 16  1  0
 24 26  2  0
 24 25  1  0
M  END
$$$$
