DKL.pdb
     RDKit          3D

 26 25  0  0  1  0  0  0  0  0999 V2000
   10.5703  -16.6086   18.8867 N   0  0  0  0  0  0  0  0  0  0  0  0
   11.0064  -15.9040   20.0542 C   0  0  1  0  0  0  0  0  0  0  0  0
   11.6001  -14.5636   19.7004 C   0  0  0  0  0  0  0  0  0  0  0  0
   12.9649  -14.6952   19.1808 C   0  0  0  0  0  0  0  0  0  0  0  0
   13.5423  -15.8318   19.1762 O   0  0  0  0  0  0  0  0  0  0  0  0
    9.8847  -15.7975   21.0130 C   0  0  0  0  0  0  0  0  0  0  0  0
    8.9894  -14.9132   20.8663 O   0  0  0  0  0  0  0  0  0  0  0  0
   13.6709  -13.6025   18.6809 O   0  0  0  0  0  0  0  0  0  0  0  0
    9.8213  -16.6994   22.1045 N   0  0  0  0  0  0  0  0  0  0  0  0
    8.6427  -16.7652   22.9480 C   0  0  1  0  0  0  0  0  0  0  0  0
    8.2599  -18.2438   23.0132 C   0  0  0  0  0  0  0  0  0  0  0  0
    7.0287  -18.3996   23.8464 C   0  0  0  0  0  0  0  0  0  0  0  0
    6.6348  -19.8302   23.9872 C   0  0  0  0  0  0  0  0  0  0  0  0
    5.7641  -20.2736   22.8470 C   0  0  0  0  0  0  0  0  0  0  0  0
    5.3899  -21.6777   22.9978 N   0  0  0  0  0  0  0  0  0  0  0  0
    8.9957  -16.3011   24.3012 C   0  0  0  0  0  0  0  0  0  0  0  0
   10.1728  -16.4980   24.7186 O   0  0  0  0  0  0  0  0  0  0  0  0
    5.9042  -12.1691   26.3550 C   0  0  0  0  0  0  0  0  0  0  0  0
    7.1460  -12.9587   26.1228 C   0  0  1  0  0  0  0  0  0  0  0  0
    8.3680  -12.0530   26.3106 C   0  0  0  0  0  0  0  0  0  0  0  0
    7.2945  -14.2496   26.8057 C   0  0  0  0  0  0  0  0  0  0  0  0
    8.3901  -15.1784   26.4880 C   0  0  2  0  0  0  0  0  0  0  0  0
    8.0697  -15.6623   25.1084 N   0  0  0  0  0  0  0  0  0  0  0  0
    8.6422  -16.3311   27.3189 C   0  0  0  0  0  0  0  0  0  0  0  0
    9.5392  -16.2725   28.4036 O   0  0  0  0  0  0  0  0  0  0  0  0
    8.0940  -17.4321   27.1352 O   0  0  0  0  0  0  0  0  0  0  0  0
  2  6  1  0
  2  1  1  6
  3  2  1  0
  4  3  1  0
  5  4  2  0
  6  7  2  0
  8  4  1  0
  9 10  1  0
  9  6  1  0
 11 12  1  0
 10 11  1  1
 12 13  1  0
 13 14  1  0
 14 15  1  0
 16 10  1  0
 16 17  2  0
 19 21  1  0
 19 18  1  1
 20 19  1  0
 22 21  1  1
 22 23  1  0
 22 24  1  0
 23 16  1  0
 24 26  2  0
 24 25  1  0
M  END
$$$$
