DKL.pdb
     RDKit          3D

 26 25  0  0  1  0  0  0  0  0999 V2000
   10.6034  -15.2041   18.5925 N   0  0  0  0  0  0  0  0  0  0  0  0
   11.0746  -15.2693   19.9429 C   0  0  1  0  0  0  0  0  0  0  0  0
   11.9795  -14.1077   20.2685 C   0  0  0  0  0  0  0  0  0  0  0  0
   13.3159  -14.2830   19.6911 C   0  0  0  0  0  0  0  0  0  0  0  0
   13.9688  -15.3578   19.9004 O   0  0  0  0  0  0  0  0  0  0  0  0
    9.9204  -15.3705   20.8630 C   0  0  0  0  0  0  0  0  0  0  0  0
    9.0499  -14.4514   20.9131 O   0  0  0  0  0  0  0  0  0  0  0  0
   13.9133  -13.2991   18.9054 O   0  0  0  0  0  0  0  0  0  0  0  0
    9.7976  -16.5124   21.6936 N   0  0  0  0  0  0  0  0  0  0  0  0
    8.6182  -16.7118   22.5149 C   0  0  1  0  0  0  0  0  0  0  0  0
    8.3143  -18.2085   22.4495 C   0  0  0  0  0  0  0  0  0  0  0  0
    7.1256  -18.5095   23.3045 C   0  0  0  0  0  0  0  0  0  0  0  0
    6.7471  -19.9495   23.2365 C   0  0  0  0  0  0  0  0  0  0  0  0
    5.5051  -20.2280   24.0331 C   0  0  0  0  0  0  0  0  0  0  0  0
    5.2181  -21.6601   24.0599 N   0  0  0  0  0  0  0  0  0  0  0  0
    8.9367  -16.3474   23.9066 C   0  0  0  0  0  0  0  0  0  0  0  0
   10.0517  -16.7044   24.3838 O   0  0  0  0  0  0  0  0  0  0  0  0
    6.2620  -11.9870   26.1660 C   0  0  0  0  0  0  0  0  0  0  0  0
    7.3800  -12.9353   25.9008 C   0  0  1  0  0  0  0  0  0  0  0  0
    8.7139  -12.2537   26.2250 C   0  0  0  0  0  0  0  0  0  0  0  0
    7.2949  -14.2924   26.4537 C   0  0  0  0  0  0  0  0  0  0  0  0
    8.2873  -15.3294   26.1319 C   0  0  2  0  0  0  0  0  0  0  0  0
    8.0445  -15.6304   24.6860 N   0  0  0  0  0  0  0  0  0  0  0  0
    8.3055  -16.5799   26.8520 C   0  0  0  0  0  0  0  0  0  0  0  0
    7.4484  -17.6415   26.5017 O   0  0  0  0  0  0  0  0  0  0  0  0
    9.0654  -16.7984   27.8118 O   0  0  0  0  0  0  0  0  0  0  0  0
  2  6  1  0
  2  1  1  6
  3  2  1  0
  4  3  1  0
  5  4  2  0
  6  7  2  0
  8  4  1  0
  9 10  1  0
  9  6  1  0
 11 12  1  0
 10 11  1  1
 12 13  1  0
 13 14  1  0
 14 15  1  0
 16 10  1  0
 16 17  2  0
 19 21  1  0
 19 18  1  1
 20 19  1  0
 22 21  1  1
 22 23  1  0
 22 24  1  0
 23 16  1  0
 24 26  2  0
 24 25  1  0
M  END
$$$$
