DKL.pdb
     RDKit          3D

 26 25  0  0  1  0  0  0  0  0999 V2000
    7.4069  -18.4733   21.1615 N   0  0  0  0  0  0  0  0  0  0  0  0
    8.8008  -18.7645   21.3107 C   0  0  1  0  0  0  0  0  0  0  0  0
    9.3479  -19.4800   20.1012 C   0  0  0  0  0  0  0  0  0  0  0  0
    8.6917  -20.7749   19.8942 C   0  0  0  0  0  0  0  0  0  0  0  0
    8.8249  -21.3912   18.7862 O   0  0  0  0  0  0  0  0  0  0  0  0
    9.5345  -17.5170   21.6178 C   0  0  0  0  0  0  0  0  0  0  0  0
   10.8008  -17.5035   21.6561 O   0  0  0  0  0  0  0  0  0  0  0  0
    7.9113  -21.3711   20.8830 O   0  0  0  0  0  0  0  0  0  0  0  0
    8.8027  -16.3300   21.8709 N   0  0  0  0  0  0  0  0  0  0  0  0
    9.4850  -15.0762   22.1308 C   0  0  1  0  0  0  0  0  0  0  0  0
    8.7066  -14.0112   21.3583 C   0  0  0  0  0  0  0  0  0  0  0  0
    8.8293  -14.2754   19.8921 C   0  0  0  0  0  0  0  0  0  0  0  0
    8.1420  -13.2289   19.0833 C   0  0  0  0  0  0  0  0  0  0  0  0
    8.1744  -13.5589   17.6187 C   0  0  0  0  0  0  0  0  0  0  0  0
    7.4820  -12.5335   16.8421 N   0  0  0  0  0  0  0  0  0  0  0  0
    9.4056  -14.7775   23.5715 C   0  0  0  0  0  0  0  0  0  0  0  0
   10.1032  -13.8282   24.0302 O   0  0  0  0  0  0  0  0  0  0  0  0
    5.1942  -13.1819   25.7958 C   0  0  0  0  0  0  0  0  0  0  0  0
    6.6510  -13.4825   25.7140 C   0  0  1  0  0  0  0  0  0  0  0  0
    7.4407  -12.3699   26.4120 C   0  0  0  0  0  0  0  0  0  0  0  0
    7.1133  -14.8224   26.0957 C   0  0  0  0  0  0  0  0  0  0  0  0
    8.5034  -15.2564   25.8881 C   0  0  2  0  0  0  0  0  0  0  0  0
    8.5897  -15.5117   24.4158 N   0  0  0  0  0  0  0  0  0  0  0  0
    9.0232  -16.4149   26.5739 C   0  0  0  0  0  0  0  0  0  0  0  0
    9.2953  -16.3894   27.9559 O   0  0  0  0  0  0  0  0  0  0  0  0
    9.2609  -17.4923   26.0003 O   0  0  0  0  0  0  0  0  0  0  0  0
  2  6  1  0
  2  1  1  6
  3  2  1  0
  4  3  1  0
  5  4  2  0
  6  7  2  0
  8  4  1  0
  9 10  1  0
  9  6  1  0
 11 12  1  0
 10 11  1  6
 12 13  1  0
 13 14  1  0
 14 15  1  0
 16 10  1  0
 16 17  2  0
 19 21  1  0
 19 18  1  1
 20 19  1  0
 22 21  1  1
 22 23  1  0
 22 24  1  0
 23 16  1  0
 24 26  2  0
 24 25  1  0
M  END
$$$$
