DKL.pdb
     RDKit          3D

 26 25  0  0  1  0  0  0  0  0999 V2000
    9.8585  -18.4218   19.9633 N   0  0  0  0  0  0  0  0  0  0  0  0
   11.0168  -17.6530   20.3053 C   0  0  1  0  0  0  0  0  0  0  0  0
   11.8518  -17.3416   19.0887 C   0  0  0  0  0  0  0  0  0  0  0  0
   12.3676  -18.5610   18.4585 C   0  0  0  0  0  0  0  0  0  0  0  0
   13.2809  -18.4875   17.5721 O   0  0  0  0  0  0  0  0  0  0  0  0
   10.6022  -16.4379   21.0405 C   0  0  0  0  0  0  0  0  0  0  0  0
   11.4551  -15.5662   21.3837 O   0  0  0  0  0  0  0  0  0  0  0  0
   11.8880  -19.8247   18.7981 O   0  0  0  0  0  0  0  0  0  0  0  0
    9.2331  -16.2575   21.3597 N   0  0  0  0  0  0  0  0  0  0  0  0
    8.7889  -15.0912   22.0996 C   0  0  1  0  0  0  0  0  0  0  0  0
    7.3701  -14.8029   21.6088 C   0  0  0  0  0  0  0  0  0  0  0  0
    7.3355  -14.8915   20.1170 C   0  0  0  0  0  0  0  0  0  0  0  0
    7.9874  -13.7128   19.4788 C   0  0  0  0  0  0  0  0  0  0  0  0
    7.8886  -13.7756   17.9818 C   0  0  0  0  0  0  0  0  0  0  0  0
    8.5485  -12.6242   17.3712 N   0  0  0  0  0  0  0  0  0  0  0  0
    8.7417  -15.4237   23.5344 C   0  0  0  0  0  0  0  0  0  0  0  0
    7.9836  -16.3625   23.9116 O   0  0  0  0  0  0  0  0  0  0  0  0
    7.6622  -11.6613   27.3895 C   0  0  0  0  0  0  0  0  0  0  0  0
    7.1086  -12.8090   26.6177 C   0  0  1  0  0  0  0  0  0  0  0  0
    5.6859  -12.4740   26.1568 C   0  0  0  0  0  0  0  0  0  0  0  0
    7.9235  -13.3908   25.5442 C   0  0  0  0  0  0  0  0  0  0  0  0
    8.9967  -14.3590   25.8172 C   0  0  2  0  0  0  0  0  0  0  0  0
    9.5051  -14.7322   24.4598 N   0  0  0  0  0  0  0  0  0  0  0  0
    8.7231  -15.5764   26.5424 C   0  0  0  0  0  0  0  0  0  0  0  0
    9.2695  -15.8086   27.8199 O   0  0  0  0  0  0  0  0  0  0  0  0
    8.0001  -16.4839   26.0952 O   0  0  0  0  0  0  0  0  0  0  0  0
  2  6  1  0
  2  1  1  6
  3  2  1  0
  4  3  1  0
  5  4  2  0
  6  7  2  0
  8  4  1  0
  9 10  1  0
  9  6  1  0
 11 12  1  0
 10 11  1  6
 12 13  1  0
 13 14  1  0
 14 15  1  0
 16 10  1  0
 16 17  2  0
 19 21  1  0
 19 18  1  6
 20 19  1  0
 22 21  1  6
 22 23  1  0
 22 24  1  0
 23 16  1  0
 24 26  2  0
 24 25  1  0
M  END
$$$$
