DKL.pdb
     RDKit          3D

 26 25  0  0  1  0  0  0  0  0999 V2000
   10.9924  -17.1941   19.0011 N   0  0  0  0  0  0  0  0  0  0  0  0
   11.4737  -17.1025   20.3464 C   0  0  1  0  0  0  0  0  0  0  0  0
   12.4958  -16.0034   20.4934 C   0  0  0  0  0  0  0  0  0  0  0  0
   13.7739  -16.3647   19.8721 C   0  0  0  0  0  0  0  0  0  0  0  0
   14.2600  -17.5316   20.0378 O   0  0  0  0  0  0  0  0  0  0  0  0
   10.3284  -16.9457   21.2698 C   0  0  0  0  0  0  0  0  0  0  0  0
    9.5409  -15.9591   21.1627 O   0  0  0  0  0  0  0  0  0  0  0  0
   14.4936  -15.4628   19.0906 O   0  0  0  0  0  0  0  0  0  0  0  0
   10.1199  -17.9155   22.2821 N   0  0  0  0  0  0  0  0  0  0  0  0
    8.9131  -17.9029   23.0874 C   0  0  1  0  0  0  0  0  0  0  0  0
    8.7337  -19.3353   23.5901 C   0  0  0  0  0  0  0  0  0  0  0  0
    7.5539  -19.3937   24.5063 C   0  0  0  0  0  0  0  0  0  0  0  0
    7.3084  -20.7775   25.0026 C   0  0  0  0  0  0  0  0  0  0  0  0
    6.0254  -20.8621   25.7783 C   0  0  0  0  0  0  0  0  0  0  0  0
    5.8867  -22.1733   26.4071 N   0  0  0  0  0  0  0  0  0  0  0  0
    9.1175  -17.0113   24.2426 C   0  0  0  0  0  0  0  0  0  0  0  0
   10.2735  -16.9350   24.7487 O   0  0  0  0  0  0  0  0  0  0  0  0
    5.7175  -12.3511   26.4191 C   0  0  0  0  0  0  0  0  0  0  0  0
    7.0357  -13.0136   26.2113 C   0  0  1  0  0  0  0  0  0  0  0  0
    7.9254  -12.7724   27.4357 C   0  0  0  0  0  0  0  0  0  0  0  0
    7.0555  -14.4136   25.7708 C   0  0  0  0  0  0  0  0  0  0  0  0
    8.2740  -15.2350   25.8373 C   0  0  2  0  0  0  0  0  0  0  0  0
    8.0762  -16.2678   24.7723 N   0  0  0  0  0  0  0  0  0  0  0  0
    8.6381  -15.9146   27.0572 C   0  0  0  0  0  0  0  0  0  0  0  0
    8.1094  -17.1802   27.3786 O   0  0  0  0  0  0  0  0  0  0  0  0
    9.4282  -15.4363   27.8898 O   0  0  0  0  0  0  0  0  0  0  0  0
  2  6  1  0
  2  1  1  6
  3  2  1  0
  4  3  1  0
  5  4  2  0
  6  7  2  0
  8  4  1  0
  9 10  1  0
  9  6  1  0
 11 12  1  0
 10 11  1  1
 12 13  1  0
 13 14  1  0
 14 15  1  0
 16 10  1  0
 16 17  2  0
 19 21  1  0
 19 18  1  1
 20 19  1  0
 22 21  1  1
 22 23  1  0
 22 24  1  0
 23 16  1  0
 24 26  2  0
 24 25  1  0
M  END
$$$$
