DKL.pdb
     RDKit          3D

 26 25  0  0  1  0  0  0  0  0999 V2000
    8.0814  -18.7617   22.1673 N   0  0  0  0  0  0  0  0  0  0  0  0
    9.2043  -18.4243   21.3455 C   0  0  1  0  0  0  0  0  0  0  0  0
    8.9101  -18.6594   19.8852 C   0  0  0  0  0  0  0  0  0  0  0  0
   10.1200  -18.5502   19.0640 C   0  0  0  0  0  0  0  0  0  0  0  0
   11.2435  -18.9414   19.5225 O   0  0  0  0  0  0  0  0  0  0  0  0
    9.6212  -17.0332   21.6281 C   0  0  0  0  0  0  0  0  0  0  0  0
   10.8309  -16.6806   21.4969 O   0  0  0  0  0  0  0  0  0  0  0  0
   10.0891  -18.0242   17.7739 O   0  0  0  0  0  0  0  0  0  0  0  0
    8.6482  -16.0930   22.0504 N   0  0  0  0  0  0  0  0  0  0  0  0
    9.0091  -14.7103   22.3013 C   0  0  1  0  0  0  0  0  0  0  0  0
    7.7603  -13.8896   21.9792 C   0  0  0  0  0  0  0  0  0  0  0  0
    7.3977  -14.0843   20.5421 C   0  0  0  0  0  0  0  0  0  0  0  0
    8.1930  -13.1968   19.6470 C   0  0  0  0  0  0  0  0  0  0  0  0
    7.7606  -13.3326   18.2154 C   0  0  0  0  0  0  0  0  0  0  0  0
    8.6327  -12.5579   17.3361 N   0  0  0  0  0  0  0  0  0  0  0  0
    9.3322  -14.5514   23.7301 C   0  0  0  0  0  0  0  0  0  0  0  0
   10.1509  -13.6488   24.0668 O   0  0  0  0  0  0  0  0  0  0  0  0
    5.7160  -13.7655   26.3257 C   0  0  0  0  0  0  0  0  0  0  0  0
    7.1170  -13.6551   25.8312 C   0  0  1  0  0  0  0  0  0  0  0  0
    7.3945  -12.2090   25.4062 C   0  0  0  0  0  0  0  0  0  0  0  0
    8.1970  -14.2153   26.6525 C   0  0  0  0  0  0  0  0  0  0  0  0
    9.0966  -15.2641   26.1480 C   0  0  2  0  0  0  0  0  0  0  0  0
    8.7595  -15.3650   24.6932 N   0  0  0  0  0  0  0  0  0  0  0  0
    9.0640  -16.5939   26.7078 C   0  0  0  0  0  0  0  0  0  0  0  0
    8.8911  -17.7297   25.8926 O   0  0  0  0  0  0  0  0  0  0  0  0
    9.1842  -16.8203   27.9246 O   0  0  0  0  0  0  0  0  0  0  0  0
  2  6  1  0
  2  1  1  1
  3  2  1  0
  4  3  1  0
  5  4  2  0
  6  7  2  0
  8  4  1  0
  9 10  1  0
  9  6  1  0
 11 12  1  0
 10 11  1  1
 12 13  1  0
 13 14  1  0
 14 15  1  0
 16 10  1  0
 16 17  2  0
 19 21  1  0
 19 18  1  1
 20 19  1  0
 22 21  1  1
 22 23  1  0
 22 24  1  0
 23 16  1  0
 24 26  2  0
 24 25  1  0
M  END
$$$$
