DKL.pdb
     RDKit          3D

 26 25  0  0  1  0  0  0  0  0999 V2000
    8.7548  -16.2977   19.6998 N   0  0  0  0  0  0  0  0  0  0  0  0
    8.3106  -15.0371   20.2130 C   0  0  1  0  0  0  0  0  0  0  0  0
    7.3935  -14.3378   19.2414 C   0  0  0  0  0  0  0  0  0  0  0  0
    7.9654  -14.2932   17.8919 C   0  0  0  0  0  0  0  0  0  0  0  0
    8.9700  -15.0206   17.5971 O   0  0  0  0  0  0  0  0  0  0  0  0
    7.6912  -15.2367   21.5417 C   0  0  0  0  0  0  0  0  0  0  0  0
    6.9559  -14.3414   22.0542 O   0  0  0  0  0  0  0  0  0  0  0  0
    7.4422  -13.4689   16.8975 O   0  0  0  0  0  0  0  0  0  0  0  0
    7.9304  -16.4465   22.2403 N   0  0  0  0  0  0  0  0  0  0  0  0
    7.4183  -16.6440   23.5833 C   0  0  1  0  0  0  0  0  0  0  0  0
    7.4468  -18.1538   23.8214 C   0  0  0  0  0  0  0  0  0  0  0  0
    6.2383  -18.7754   23.1986 C   0  0  0  0  0  0  0  0  0  0  0  0
    6.2694  -20.2623   23.2977 C   0  0  0  0  0  0  0  0  0  0  0  0
    5.1222  -20.8851   22.5554 C   0  0  0  0  0  0  0  0  0  0  0  0
    5.1235  -22.3361   22.7247 N   0  0  0  0  0  0  0  0  0  0  0  0
    8.3254  -15.9900   24.5427 C   0  0  0  0  0  0  0  0  0  0  0  0
    9.5640  -15.9767   24.2892 O   0  0  0  0  0  0  0  0  0  0  0  0
    6.0961  -11.9272   27.2094 C   0  0  0  0  0  0  0  0  0  0  0  0
    7.0997  -12.7864   26.5209 C   0  0  1  0  0  0  0  0  0  0  0  0
    7.9665  -11.9198   25.6008 C   0  0  0  0  0  0  0  0  0  0  0  0
    7.8966  -13.7185   27.3277 C   0  0  0  0  0  0  0  0  0  0  0  0
    8.7393  -14.7568   26.7148 C   0  0  2  0  0  0  0  0  0  0  0  0
    7.8463  -15.3991   25.6998 N   0  0  0  0  0  0  0  0  0  0  0  0
    9.3237  -15.8014   27.5210 C   0  0  0  0  0  0  0  0  0  0  0  0
    8.9298  -17.1464   27.3784 O   0  0  0  0  0  0  0  0  0  0  0  0
   10.1978  -15.5867   28.3790 O   0  0  0  0  0  0  0  0  0  0  0  0
  2  6  1  0
  2  1  1  6
  3  2  1  0
  4  3  1  0
  5  4  2  0
  6  7  2  0
  8  4  1  0
  9 10  1  0
  9  6  1  0
 11 12  1  0
 10 11  1  1
 12 13  1  0
 13 14  1  0
 14 15  1  0
 16 10  1  0
 16 17  2  0
 19 21  1  0
 19 18  1  1
 20 19  1  0
 22 21  1  1
 22 23  1  0
 22 24  1  0
 23 16  1  0
 24 26  2  0
 24 25  1  0
M  END
$$$$
