DKL.pdb
     RDKit          3D

 26 25  0  0  1  0  0  0  0  0999 V2000
   11.7416  -17.9980   19.9544 N   0  0  0  0  0  0  0  0  0  0  0  0
   12.6728  -17.4569   20.8978 C   0  0  1  0  0  0  0  0  0  0  0  0
   13.8529  -16.8216   20.2064 C   0  0  0  0  0  0  0  0  0  0  0  0
   14.9375  -17.7845   19.9902 C   0  0  0  0  0  0  0  0  0  0  0  0
   15.8994  -17.5005   19.2032 O   0  0  0  0  0  0  0  0  0  0  0  0
   11.9694  -16.5221   21.8035 C   0  0  0  0  0  0  0  0  0  0  0  0
   12.6123  -15.8385   22.6547 O   0  0  0  0  0  0  0  0  0  0  0  0
   14.9583  -19.0248   20.6252 O   0  0  0  0  0  0  0  0  0  0  0  0
   10.5606  -16.3983   21.7096 N   0  0  0  0  0  0  0  0  0  0  0  0
    9.8413  -15.4422   22.5302 C   0  0  1  0  0  0  0  0  0  0  0  0
    8.4842  -15.2509   21.8529 C   0  0  0  0  0  0  0  0  0  0  0  0
    8.6680  -14.4771   20.5872 C   0  0  0  0  0  0  0  0  0  0  0  0
    7.3798  -14.2941   19.8601 C   0  0  0  0  0  0  0  0  0  0  0  0
    7.5648  -13.4755   18.6149 C   0  0  0  0  0  0  0  0  0  0  0  0
    6.2880  -13.2734   17.9345 N   0  0  0  0  0  0  0  0  0  0  0  0
    9.6318  -16.0218   23.8686 C   0  0  0  0  0  0  0  0  0  0  0  0
    9.6891  -17.2782   23.9977 O   0  0  0  0  0  0  0  0  0  0  0  0
   11.4837  -14.7276   28.9778 C   0  0  0  0  0  0  0  0  0  0  0  0
   10.1093  -14.3468   28.5470 C   0  0  1  0  0  0  0  0  0  0  0  0
    9.7207  -13.0165   29.2013 C   0  0  0  0  0  0  0  0  0  0  0  0
    9.7877  -14.3825   27.1152 C   0  0  0  0  0  0  0  0  0  0  0  0
    9.6772  -15.6472   26.3721 C   0  0  2  0  0  0  0  0  0  0  0  0
    9.3773  -15.2208   24.9691 N   0  0  0  0  0  0  0  0  0  0  0  0
    8.7052  -16.6432   26.7542 C   0  0  0  0  0  0  0  0  0  0  0  0
    9.0560  -17.7365   27.5703 O   0  0  0  0  0  0  0  0  0  0  0  0
    7.5155  -16.6024   26.3945 O   0  0  0  0  0  0  0  0  0  0  0  0
  2  6  1  0
  2  1  1  6
  3  2  1  0
  4  3  1  0
  5  4  2  0
  6  7  2  0
  8  4  1  0
  9 10  1  0
  9  6  1  0
 11 12  1  0
 10 11  1  6
 12 13  1  0
 13 14  1  0
 14 15  1  0
 16 10  1  0
 16 17  2  0
 19 21  1  0
 19 18  1  6
 20 19  1  0
 22 21  1  1
 22 23  1  0
 22 24  1  0
 23 16  1  0
 24 26  2  0
 24 25  1  0
M  END
$$$$
