DKL.pdb
     RDKit          3D

 26 25  0  0  1  0  0  0  0  0999 V2000
    8.7282  -18.5588   19.2840 N   0  0  0  0  0  0  0  0  0  0  0  0
    8.4069  -17.1653   19.3529 C   0  0  1  0  0  0  0  0  0  0  0  0
    7.6700  -16.7070   18.1196 C   0  0  0  0  0  0  0  0  0  0  0  0
    8.4178  -17.0133   16.8960 C   0  0  0  0  0  0  0  0  0  0  0  0
    9.5211  -17.6487   16.9610 O   0  0  0  0  0  0  0  0  0  0  0  0
    7.6589  -16.8933   20.6001 C   0  0  0  0  0  0  0  0  0  0  0  0
    6.9188  -15.8700   20.7010 O   0  0  0  0  0  0  0  0  0  0  0  0
    7.9595  -16.6286   15.6373 O   0  0  0  0  0  0  0  0  0  0  0  0
    7.7795  -17.7938   21.6879 N   0  0  0  0  0  0  0  0  0  0  0  0
    7.0564  -17.5672   22.9252 C   0  0  1  0  0  0  0  0  0  0  0  0
    7.0314  -18.9155   23.6451 C   0  0  0  0  0  0  0  0  0  0  0  0
    5.6426  -19.4675   23.6131 C   0  0  0  0  0  0  0  0  0  0  0  0
    5.6045  -20.8318   23.0140 C   0  0  0  0  0  0  0  0  0  0  0  0
    4.1946  -21.3283   22.8708 C   0  0  0  0  0  0  0  0  0  0  0  0
    4.1614  -22.5819   22.1214 N   0  0  0  0  0  0  0  0  0  0  0  0
    7.8042  -16.5989   23.7464 C   0  0  0  0  0  0  0  0  0  0  0  0
    9.0524  -16.4975   23.5729 O   0  0  0  0  0  0  0  0  0  0  0  0
    7.8225  -11.4369   25.9110 C   0  0  0  0  0  0  0  0  0  0  0  0
    7.0727  -12.5523   26.5539 C   0  0  1  0  0  0  0  0  0  0  0  0
    5.8064  -11.9992   27.2168 C   0  0  0  0  0  0  0  0  0  0  0  0
    6.8111  -13.7653   25.7698 C   0  0  0  0  0  0  0  0  0  0  0  0
    7.8703  -14.7388   25.4626 C   0  0  2  0  0  0  0  0  0  0  0  0
    7.1673  -15.8111   24.6904 N   0  0  0  0  0  0  0  0  0  0  0  0
    8.6205  -15.3694   26.5220 C   0  0  0  0  0  0  0  0  0  0  0  0
    9.8916  -14.8970   26.9035 O   0  0  0  0  0  0  0  0  0  0  0  0
    8.2016  -16.3536   27.1562 O   0  0  0  0  0  0  0  0  0  0  0  0
  2  6  1  0
  2  1  1  6
  3  2  1  0
  4  3  1  0
  5  4  2  0
  6  7  2  0
  8  4  1  0
  9 10  1  0
  9  6  1  0
 11 12  1  0
 10 11  1  1
 12 13  1  0
 13 14  1  0
 14 15  1  0
 16 10  1  0
 16 17  2  0
 19 21  1  0
 19 18  1  6
 20 19  1  0
 22 21  1  1
 22 23  1  0
 22 24  1  0
 23 16  1  0
 24 26  2  0
 24 25  1  0
M  END
$$$$
