VFC.pdb
     RDKit          3D

 25 25  0  0  1  0  0  0  0  0999 V2000
   18.0444  -16.1345  -17.3012 C   0  0  0  0  0  0  0  0  0  0  0  0
   18.2125  -14.6557  -17.6420 C   0  0  2  0  0  0  0  0  0  0  0  0
   19.3876  -14.5050  -18.5923 C   0  0  0  0  0  0  0  0  0  0  0  0
   18.5523  -13.9586  -16.3394 C   0  0  2  0  0  0  0  0  0  0  0  0
   17.5046  -14.2517  -15.3959 N   0  0  0  0  0  0  0  0  0  0  0  0
   18.6368  -12.4779  -16.5315 C   0  0  0  0  0  0  0  0  0  0  0  0
   19.7054  -11.9655  -16.9973 O   0  0  0  0  0  0  0  0  0  0  0  0
   17.5906  -11.5981  -16.2245 N   0  0  0  0  0  0  0  0  0  0  0  0
   17.6090  -10.1627  -16.5369 C   0  0  1  0  0  0  0  0  0  0  0  0
   16.1797   -9.7104  -16.4921 C   0  0  0  0  0  0  0  0  0  0  0  0
   15.8924   -8.3290  -16.8110 C   0  0  0  0  0  0  0  0  0  0  0  0
   16.8466   -7.3719  -16.4532 C   0  0  0  0  0  0  0  0  0  0  0  0
   16.6158   -6.0611  -16.7846 C   0  0  0  0  0  0  0  0  0  0  0  0
   15.4589   -5.7198  -17.4568 C   0  0  0  0  0  0  0  0  0  0  0  0
   14.5177   -6.6561  -17.8109 C   0  0  0  0  0  0  0  0  0  0  0  0
   14.7361   -7.9963  -17.4812 C   0  0  0  0  0  0  0  0  0  0  0  0
   18.4480   -9.4197  -15.6210 C   0  0  0  0  0  0  0  0  0  0  0  0
   18.3535   -9.7452  -14.3777 O   0  0  0  0  0  0  0  0  0  0  0  0
   19.3639   -8.3910  -15.8865 N   0  0  0  0  0  0  0  0  0  0  0  0
   20.1283   -7.7123  -14.8780 C   0  0  1  0  0  0  0  0  0  0  0  0
   21.1300   -8.7282  -14.3312 C   0  0  0  0  0  0  0  0  0  0  0  0
   22.3287   -9.1752  -15.6104 S   0  0  0  0  0  0  0  0  0  0  0  0
   20.8374   -6.5157  -15.2754 C   0  0  0  0  0  0  0  0  0  0  0  0
   20.8859   -6.1366  -16.6087 O   0  0  0  0  0  0  0  0  0  0  0  0
   21.4242   -5.7876  -14.4515 O   0  0  0  0  0  0  0  0  0  0  0  0
  2  3  1  6
  2  1  1  0
  4  6  1  0
  4  2  1  0
  4  5  1  1
  6  7  2  0
  8  9  1  0
  8  6  1  0
  9 10  1  1
 10 11  1  0
 11 16  2  0
 12 11  1  0
 12 13  2  0
 13 14  1  0
 14 15  2  0
 16 15  1  0
 17 18  2  0
 17  9  1  0
 19 17  1  0
 20 23  1  0
 20 19  1  0
 21 22  1  0
 20 21  1  6
 23 24  1  0
 25 23  2  0
M  END
$$$$
