VFC.pdb
     RDKit          3D

 25 25  0  0  1  0  0  0  0  0999 V2000
   28.2476  -19.8973  -17.7148 C   0  0  0  0  0  0  0  0  0  0  0  0
   27.2972  -20.2500  -16.5730 C   0  0  2  0  0  0  0  0  0  0  0  0
   26.9999  -18.9898  -15.7793 C   0  0  0  0  0  0  0  0  0  0  0  0
   28.0504  -21.2165  -15.6805 C   0  0  2  0  0  0  0  0  0  0  0  0
   28.2077  -22.4526  -16.4025 N   0  0  0  0  0  0  0  0  0  0  0  0
   27.2926  -21.4806  -14.4187 C   0  0  0  0  0  0  0  0  0  0  0  0
   26.2386  -22.1942  -14.4572 O   0  0  0  0  0  0  0  0  0  0  0  0
   27.6773  -20.9811  -13.1674 N   0  0  0  0  0  0  0  0  0  0  0  0
   26.8793  -21.1344  -11.9436 C   0  0  1  0  0  0  0  0  0  0  0  0
   27.7858  -20.7613  -10.8083 C   0  0  0  0  0  0  0  0  0  0  0  0
   27.1977  -20.5783   -9.4995 C   0  0  0  0  0  0  0  0  0  0  0  0
   28.0345  -20.1321   -8.4722 C   0  0  0  0  0  0  0  0  0  0  0  0
   27.4895  -19.9097   -7.2333 C   0  0  0  0  0  0  0  0  0  0  0  0
   26.1414  -20.1289   -7.0306 C   0  0  0  0  0  0  0  0  0  0  0  0
   25.3143  -20.5675   -8.0363 C   0  0  0  0  0  0  0  0  0  0  0  0
   25.8522  -20.7996   -9.3049 C   0  0  0  0  0  0  0  0  0  0  0  0
   25.6789  -20.3265  -11.9748 C   0  0  0  0  0  0  0  0  0  0  0  0
   25.8120  -19.1351  -12.4481 O   0  0  0  0  0  0  0  0  0  0  0  0
   24.3759  -20.6505  -11.5689 N   0  0  0  0  0  0  0  0  0  0  0  0
   23.1872  -20.1401  -12.1921 C   0  0  1  0  0  0  0  0  0  0  0  0
   23.2488  -20.5596  -13.6600 C   0  0  0  0  0  0  0  0  0  0  0  0
   21.7422  -20.0468  -14.5206 S   0  0  0  0  0  0  0  0  0  0  0  0
   21.9168  -20.5513  -11.6356 C   0  0  0  0  0  0  0  0  0  0  0  0
   20.8705  -19.6474  -11.5272 O   0  0  0  0  0  0  0  0  0  0  0  0
   21.7123  -21.7143  -11.2370 O   0  0  0  0  0  0  0  0  0  0  0  0
  2  3  1  1
  2  1  1  0
  4  6  1  0
  4  2  1  0
  4  5  1  6
  6  7  2  0
  8  9  1  0
  8  6  1  0
  9 10  1  1
 10 11  1  0
 11 16  2  0
 12 11  1  0
 12 13  2  0
 13 14  1  0
 14 15  2  0
 16 15  1  0
 17 18  2  0
 17  9  1  0
 19 17  1  0
 20 23  1  0
 20 19  1  0
 21 22  1  0
 20 21  1  6
 23 24  1  0
 25 23  2  0
M  END
$$$$
