VFC.pdb
     RDKit          3D

 25 25  0  0  1  0  0  0  0  0999 V2000
   28.8586  -17.8541  -16.1872 C   0  0  0  0  0  0  0  0  0  0  0  0
   28.5561  -18.6408  -17.4603 C   0  0  2  0  0  0  0  0  0  0  0  0
   28.7567  -17.7274  -18.6570 C   0  0  0  0  0  0  0  0  0  0  0  0
   27.0907  -19.0210  -17.3832 C   0  0  2  0  0  0  0  0  0  0  0  0
   26.3198  -17.8049  -17.3653 N   0  0  0  0  0  0  0  0  0  0  0  0
   26.8050  -19.7991  -16.1385 C   0  0  0  0  0  0  0  0  0  0  0  0
   27.3113  -20.9584  -15.9929 O   0  0  0  0  0  0  0  0  0  0  0  0
   25.9967  -19.3227  -15.0980 N   0  0  0  0  0  0  0  0  0  0  0  0
   25.6520  -20.1060  -13.9040 C   0  0  1  0  0  0  0  0  0  0  0  0
   26.1905  -19.3372  -12.7341 C   0  0  0  0  0  0  0  0  0  0  0  0
   26.9163  -20.0657  -11.7167 C   0  0  0  0  0  0  0  0  0  0  0  0
   28.2509  -20.3873  -11.9811 C   0  0  0  0  0  0  0  0  0  0  0  0
   28.9717  -21.0394  -11.0132 C   0  0  0  0  0  0  0  0  0  0  0  0
   28.3696  -21.3601   -9.8127 C   0  0  0  0  0  0  0  0  0  0  0  0
   27.0585  -21.0467   -9.5475 C   0  0  0  0  0  0  0  0  0  0  0  0
   26.3088  -20.3825  -10.5219 C   0  0  0  0  0  0  0  0  0  0  0  0
   24.2268  -20.3358  -13.7996 C   0  0  0  0  0  0  0  0  0  0  0  0
   23.4704  -19.3329  -14.0875 O   0  0  0  0  0  0  0  0  0  0  0  0
   23.5365  -21.5010  -13.4344 N   0  0  0  0  0  0  0  0  0  0  0  0
   22.1080  -21.5881  -13.3169 C   0  0  1  0  0  0  0  0  0  0  0  0
   21.7373  -23.0493  -13.5655 C   0  0  0  0  0  0  0  0  0  0  0  0
   22.2882  -23.5630  -15.2104 S   0  0  0  0  0  0  0  0  0  0  0  0
   21.5169  -21.1558  -12.0693 C   0  0  0  0  0  0  0  0  0  0  0  0
   20.1387  -21.1300  -11.9154 O   0  0  0  0  0  0  0  0  0  0  0  0
   22.2084  -20.7947  -11.0973 O   0  0  0  0  0  0  0  0  0  0  0  0
  2  3  1  6
  2  1  1  0
  4  6  1  0
  4  2  1  0
  4  5  1  1
  6  7  2  0
  8  9  1  0
  8  6  1  0
  9 10  1  1
 10 11  1  0
 11 16  2  0
 12 11  1  0
 12 13  2  0
 13 14  1  0
 14 15  2  0
 16 15  1  0
 17 18  2  0
 17  9  1  0
 19 17  1  0
 20 23  1  0
 20 19  1  0
 21 22  1  0
 20 21  1  1
 23 24  1  0
 25 23  2  0
M  END
$$$$
