VFC.pdb
     RDKit          3D

 25 25  0  0  1  0  0  0  0  0999 V2000
   23.4989  -13.4776  -20.3869 C   0  0  0  0  0  0  0  0  0  0  0  0
   22.7932  -12.6369  -19.3255 C   0  0  2  0  0  0  0  0  0  0  0  0
   22.0865  -11.4802  -20.0104 C   0  0  0  0  0  0  0  0  0  0  0  0
   23.8854  -12.0771  -18.4358 C   0  0  2  0  0  0  0  0  0  0  0  0
   24.5550  -13.1866  -17.8080 N   0  0  0  0  0  0  0  0  0  0  0  0
   23.3109  -11.1906  -17.3773 C   0  0  0  0  0  0  0  0  0  0  0  0
   22.7648  -11.7108  -16.3514 O   0  0  0  0  0  0  0  0  0  0  0  0
   23.3359   -9.7913  -17.4441 N   0  0  0  0  0  0  0  0  0  0  0  0
   22.6438   -8.9132  -16.4912 C   0  0  1  0  0  0  0  0  0  0  0  0
   23.6714   -7.9324  -16.0098 C   0  0  0  0  0  0  0  0  0  0  0  0
   23.2271   -6.8321  -15.1824 C   0  0  0  0  0  0  0  0  0  0  0  0
   23.4456   -5.5362  -15.6596 C   0  0  0  0  0  0  0  0  0  0  0  0
   22.9937   -4.4783  -14.9126 C   0  0  0  0  0  0  0  0  0  0  0  0
   22.3404   -4.7141  -13.7192 C   0  0  0  0  0  0  0  0  0  0  0  0
   22.1231   -5.9853  -13.2453 C   0  0  0  0  0  0  0  0  0  0  0  0
   22.5767   -7.0752  -13.9930 C   0  0  0  0  0  0  0  0  0  0  0  0
   21.4998   -8.2591  -17.0897 C   0  0  0  0  0  0  0  0  0  0  0  0
   21.7243   -7.6194  -18.1858 O   0  0  0  0  0  0  0  0  0  0  0  0
   20.1667   -8.2212  -16.6550 N   0  0  0  0  0  0  0  0  0  0  0  0
   19.1793   -7.3101  -17.1618 C   0  0  1  0  0  0  0  0  0  0  0  0
   18.7410   -6.4411  -15.9840 C   0  0  0  0  0  0  0  0  0  0  0  0
   17.5796   -7.3490  -14.9351 S   0  0  0  0  0  0  0  0  0  0  0  0
   19.5676   -6.4548  -18.2620 C   0  0  0  0  0  0  0  0  0  0  0  0
   18.6424   -6.0869  -19.2276 O   0  0  0  0  0  0  0  0  0  0  0  0
   20.7289   -6.0200  -18.3865 O   0  0  0  0  0  0  0  0  0  0  0  0
  2  3  1  6
  2  1  1  0
  4  6  1  0
  4  2  1  0
  4  5  1  1
  6  7  2  0
  8  9  1  0
  8  6  1  0
  9 10  1  6
 10 11  1  0
 11 16  2  0
 12 11  1  0
 12 13  2  0
 13 14  1  0
 14 15  2  0
 16 15  1  0
 17 18  2  0
 17  9  1  0
 19 17  1  0
 20 23  1  0
 20 19  1  0
 21 22  1  0
 20 21  1  1
 23 24  1  0
 25 23  2  0
M  END
$$$$
