VFC.pdb
     RDKit          3D

 25 25  0  0  1  0  0  0  0  0999 V2000
   26.5588  -22.2711  -18.9261 C   0  0  0  0  0  0  0  0  0  0  0  0
   27.3546  -21.0271  -18.5384 C   0  0  2  0  0  0  0  0  0  0  0  0
   28.1789  -20.5835  -19.7343 C   0  0  0  0  0  0  0  0  0  0  0  0
   28.2991  -21.4577  -17.4337 C   0  0  2  0  0  0  0  0  0  0  0  0
   29.0338  -22.6037  -17.9033 N   0  0  0  0  0  0  0  0  0  0  0  0
   27.5426  -21.8342  -16.1999 C   0  0  0  0  0  0  0  0  0  0  0  0
   27.2460  -23.0552  -15.9936 O   0  0  0  0  0  0  0  0  0  0  0  0
   27.1297  -20.9073  -15.2338 N   0  0  0  0  0  0  0  0  0  0  0  0
   26.4052  -21.2692  -14.0081 C   0  0  1  0  0  0  0  0  0  0  0  0
   26.8257  -20.2730  -12.9686 C   0  0  0  0  0  0  0  0  0  0  0  0
   26.2451  -20.3809  -11.6481 C   0  0  0  0  0  0  0  0  0  0  0  0
   25.0748  -19.6585  -11.3964 C   0  0  0  0  0  0  0  0  0  0  0  0
   24.4823  -19.7796  -10.1653 C   0  0  0  0  0  0  0  0  0  0  0  0
   25.0485  -20.6032   -9.2126 C   0  0  0  0  0  0  0  0  0  0  0  0
   26.1984  -21.3153   -9.4543 C   0  0  0  0  0  0  0  0  0  0  0  0
   26.8159  -21.2040  -10.7028 C   0  0  0  0  0  0  0  0  0  0  0  0
   24.9720  -21.2798  -14.2091 C   0  0  0  0  0  0  0  0  0  0  0  0
   24.4739  -20.2372  -14.7800 O   0  0  0  0  0  0  0  0  0  0  0  0
   24.0331  -22.2680  -13.8781 N   0  0  0  0  0  0  0  0  0  0  0  0
   22.6113  -22.0971  -13.9853 C   0  0  1  0  0  0  0  0  0  0  0  0
   21.9895  -23.4799  -13.7966 C   0  0  0  0  0  0  0  0  0  0  0  0
   20.1843  -23.3626  -13.8227 S   0  0  0  0  0  0  0  0  0  0  0  0
   21.9835  -21.1675  -13.0718 C   0  0  0  0  0  0  0  0  0  0  0  0
   21.0564  -20.2450  -13.5334 O   0  0  0  0  0  0  0  0  0  0  0  0
   22.2444  -21.1563  -11.8531 O   0  0  0  0  0  0  0  0  0  0  0  0
  2  3  1  6
  2  1  1  0
  4  6  1  0
  4  2  1  0
  4  5  1  6
  6  7  2  0
  8  9  1  0
  8  6  1  0
  9 10  1  1
 10 11  1  0
 11 16  2  0
 12 11  1  0
 12 13  2  0
 13 14  1  0
 14 15  2  0
 16 15  1  0
 17 18  2  0
 17  9  1  0
 19 17  1  0
 20 23  1  0
 20 19  1  0
 21 22  1  0
 20 21  1  1
 23 24  1  0
 25 23  2  0
M  END
$$$$
