VFC.pdb
     RDKit          3D

 25 25  0  0  1  0  0  0  0  0999 V2000
   25.9590  -21.6321  -18.1587 C   0  0  0  0  0  0  0  0  0  0  0  0
   26.8766  -20.4472  -17.8669 C   0  0  2  0  0  0  0  0  0  0  0  0
   27.5262  -20.0023  -19.1656 C   0  0  0  0  0  0  0  0  0  0  0  0
   27.9571  -20.9685  -16.9403 C   0  0  2  0  0  0  0  0  0  0  0  0
   28.5551  -22.1205  -17.5640 N   0  0  0  0  0  0  0  0  0  0  0  0
   27.3811  -21.3713  -15.6203 C   0  0  0  0  0  0  0  0  0  0  0  0
   26.9180  -22.5480  -15.4705 O   0  0  0  0  0  0  0  0  0  0  0  0
   27.3168  -20.5165  -14.5121 N   0  0  0  0  0  0  0  0  0  0  0  0
   26.7107  -20.8864  -13.2262 C   0  0  1  0  0  0  0  0  0  0  0  0
   27.3584  -20.0104  -12.1953 C   0  0  0  0  0  0  0  0  0  0  0  0
   26.9641  -20.1790  -10.8138 C   0  0  0  0  0  0  0  0  0  0  0  0
   25.9146  -19.3858  -10.3404 C   0  0  0  0  0  0  0  0  0  0  0  0
   25.4946  -19.5592   -9.0463 C   0  0  0  0  0  0  0  0  0  0  0  0
   26.1109  -20.5029   -8.2487 C   0  0  0  0  0  0  0  0  0  0  0  0
   27.1427  -21.2851   -8.7084 C   0  0  0  0  0  0  0  0  0  0  0  0
   27.5839  -21.1220  -10.0242 C   0  0  0  0  0  0  0  0  0  0  0  0
   25.2709  -20.7396  -13.2438 C   0  0  0  0  0  0  0  0  0  0  0  0
   24.8241  -19.6010  -13.6498 O   0  0  0  0  0  0  0  0  0  0  0  0
   24.2767  -21.6628  -12.8874 N   0  0  0  0  0  0  0  0  0  0  0  0
   22.8691  -21.3794  -12.9080 C   0  0  1  0  0  0  0  0  0  0  0  0
   22.1628  -22.6963  -13.2262 C   0  0  0  0  0  0  0  0  0  0  0  0
   22.7469  -23.3530  -14.8076 S   0  0  0  0  0  0  0  0  0  0  0  0
   22.2892  -20.8087  -11.7119 C   0  0  0  0  0  0  0  0  0  0  0  0
   20.9646  -20.3975  -11.6994 O   0  0  0  0  0  0  0  0  0  0  0  0
   22.9433  -20.6647  -10.6609 O   0  0  0  0  0  0  0  0  0  0  0  0
  2  3  1  6
  2  1  1  0
  4  6  1  0
  4  2  1  0
  4  5  1  6
  6  7  2  0
  8  9  1  0
  8  6  1  0
  9 10  1  1
 10 11  1  0
 11 16  2  0
 12 11  1  0
 12 13  2  0
 13 14  1  0
 14 15  2  0
 16 15  1  0
 17 18  2  0
 17  9  1  0
 19 17  1  0
 20 23  1  0
 20 19  1  0
 21 22  1  0
 20 21  1  1
 23 24  1  0
 25 23  2  0
M  END
$$$$
