VFC.pdb
     RDKit          3D

 25 25  0  0  1  0  0  0  0  0999 V2000
   19.9720  -11.5203  -18.9326 C   0  0  0  0  0  0  0  0  0  0  0  0
   21.2469  -11.1765  -19.6992 C   0  0  2  0  0  0  0  0  0  0  0  0
   21.4224  -12.1782  -20.8272 C   0  0  0  0  0  0  0  0  0  0  0  0
   22.3890  -11.3495  -18.7176 C   0  0  2  0  0  0  0  0  0  0  0  0
   22.3590  -12.7079  -18.2407 N   0  0  0  0  0  0  0  0  0  0  0  0
   22.2406  -10.4202  -17.5555 C   0  0  0  0  0  0  0  0  0  0  0  0
   21.6373  -10.8177  -16.5070 O   0  0  0  0  0  0  0  0  0  0  0  0
   22.7348   -9.1092  -17.5466 N   0  0  0  0  0  0  0  0  0  0  0  0
   22.5634   -8.1767  -16.4244 C   0  0  1  0  0  0  0  0  0  0  0  0
   23.9305   -7.6414  -16.1178 C   0  0  0  0  0  0  0  0  0  0  0  0
   24.9658   -8.5849  -15.7567 C   0  0  0  0  0  0  0  0  0  0  0  0
   26.1196   -8.6109  -16.5458 C   0  0  0  0  0  0  0  0  0  0  0  0
   27.1329   -9.4668  -16.1966 C   0  0  0  0  0  0  0  0  0  0  0  0
   26.9925  -10.2746  -15.0856 C   0  0  0  0  0  0  0  0  0  0  0  0
   25.8610  -10.2535  -14.3066 C   0  0  0  0  0  0  0  0  0  0  0  0
   24.8183   -9.3880  -14.6474 C   0  0  0  0  0  0  0  0  0  0  0  0
   21.6194   -7.1241  -16.7341 C   0  0  0  0  0  0  0  0  0  0  0  0
   21.7728   -6.5456  -17.8755 O   0  0  0  0  0  0  0  0  0  0  0  0
   20.5463   -6.6374  -15.9731 N   0  0  0  0  0  0  0  0  0  0  0  0
   19.6725   -5.5795  -16.3965 C   0  0  1  0  0  0  0  0  0  0  0  0
   18.2665   -6.1740  -16.4622 C   0  0  0  0  0  0  0  0  0  0  0  0
   17.0591   -4.8829  -16.8480 S   0  0  0  0  0  0  0  0  0  0  0  0
   19.6416   -4.3802  -15.5881 C   0  0  0  0  0  0  0  0  0  0  0  0
   19.6436   -3.1286  -16.1857 O   0  0  0  0  0  0  0  0  0  0  0  0
   19.6125   -4.4200  -14.3427 O   0  0  0  0  0  0  0  0  0  0  0  0
  2  3  1  6
  2  1  1  0
  4  6  1  0
  4  2  1  0
  4  5  1  1
  6  7  2  0
  8  9  1  0
  8  6  1  0
  9 10  1  6
 10 11  1  0
 11 16  2  0
 12 11  1  0
 12 13  2  0
 13 14  1  0
 14 15  2  0
 16 15  1  0
 17 18  2  0
 17  9  1  0
 19 17  1  0
 20 23  1  0
 20 19  1  0
 21 22  1  0
 20 21  1  1
 23 24  1  0
 25 23  2  0
M  END
$$$$
