VFC.pdb
     RDKit          3D

 25 25  0  0  1  0  0  0  0  0999 V2000
   18.1685  -11.1868  -20.5381 C   0  0  0  0  0  0  0  0  0  0  0  0
   18.1329  -10.1118  -19.4544 C   0  0  2  0  0  0  0  0  0  0  0  0
   18.2824   -8.7513  -20.1124 C   0  0  0  0  0  0  0  0  0  0  0  0
   19.3429  -10.3588  -18.5753 C   0  0  2  0  0  0  0  0  0  0  0  0
   19.1851  -11.6513  -17.9604 N   0  0  0  0  0  0  0  0  0  0  0  0
   19.4484   -9.3185  -17.5062 C   0  0  0  0  0  0  0  0  0  0  0  0
   18.6369   -9.3423  -16.5251 O   0  0  0  0  0  0  0  0  0  0  0  0
   20.4055   -8.2955  -17.5153 N   0  0  0  0  0  0  0  0  0  0  0  0
   20.4858   -7.2396  -16.4971 C   0  0  1  0  0  0  0  0  0  0  0  0
   21.8901   -7.2767  -15.9714 C   0  0  0  0  0  0  0  0  0  0  0  0
   22.2757   -8.3945  -15.1382 C   0  0  0  0  0  0  0  0  0  0  0  0
   23.2807   -9.2403  -15.6171 C   0  0  0  0  0  0  0  0  0  0  0  0
   23.6932  -10.2813  -14.8250 C   0  0  0  0  0  0  0  0  0  0  0  0
   23.1133  -10.4686  -13.5860 C   0  0  0  0  0  0  0  0  0  0  0  0
   22.1253   -9.6408  -13.1103 C   0  0  0  0  0  0  0  0  0  0  0  0
   21.6923   -8.5751  -13.9037 C   0  0  0  0  0  0  0  0  0  0  0  0
   20.1355   -5.9418  -17.0337 C   0  0  0  0  0  0  0  0  0  0  0  0
   20.7032   -5.6179  -18.1444 O   0  0  0  0  0  0  0  0  0  0  0  0
   19.2562   -4.9749  -16.5244 N   0  0  0  0  0  0  0  0  0  0  0  0
   18.9788   -3.7203  -17.1655 C   0  0  1  0  0  0  0  0  0  0  0  0
   17.6244   -3.8724  -17.8560 C   0  0  0  0  0  0  0  0  0  0  0  0
   17.1011   -2.2907  -18.5616 S   0  0  0  0  0  0  0  0  0  0  0  0
   18.9541   -2.5392  -16.3306 C   0  0  0  0  0  0  0  0  0  0  0  0
   19.5195   -1.3526  -16.7734 O   0  0  0  0  0  0  0  0  0  0  0  0
   18.4332   -2.5377  -15.1984 O   0  0  0  0  0  0  0  0  0  0  0  0
  2  3  1  6
  2  1  1  0
  4  6  1  0
  4  2  1  0
  4  5  1  1
  6  7  2  0
  8  9  1  0
  8  6  1  0
  9 10  1  6
 10 11  1  0
 11 16  2  0
 12 11  1  0
 12 13  2  0
 13 14  1  0
 14 15  2  0
 16 15  1  0
 17 18  2  0
 17  9  1  0
 19 17  1  0
 20 23  1  0
 20 19  1  0
 21 22  1  0
 20 21  1  1
 23 24  1  0
 25 23  2  0
M  END
$$$$
