VFC.pdb
     RDKit          3D

 25 25  0  0  1  0  0  0  0  0999 V2000
   19.6700  -11.0133  -20.2808 C   0  0  0  0  0  0  0  0  0  0  0  0
   19.2019  -10.0089  -19.2304 C   0  0  2  0  0  0  0  0  0  0  0  0
   19.1744   -8.6257  -19.8568 C   0  0  0  0  0  0  0  0  0  0  0  0
   20.2510  -10.0228  -18.1363 C   0  0  2  0  0  0  0  0  0  0  0  0
   20.3336  -11.3651  -17.6214 N   0  0  0  0  0  0  0  0  0  0  0  0
   19.8768   -9.0951  -17.0247 C   0  0  0  0  0  0  0  0  0  0  0  0
   18.9432   -9.4213  -16.2225 O   0  0  0  0  0  0  0  0  0  0  0  0
   20.5025   -7.8611  -16.8045 N   0  0  0  0  0  0  0  0  0  0  0  0
   20.1913   -6.9746  -15.6752 C   0  0  1  0  0  0  0  0  0  0  0  0
   21.4504   -6.8765  -14.8661 C   0  0  0  0  0  0  0  0  0  0  0  0
   21.7660   -7.9619  -13.9635 C   0  0  0  0  0  0  0  0  0  0  0  0
   22.7884   -8.8381  -14.3398 C   0  0  0  0  0  0  0  0  0  0  0  0
   23.1345   -9.8489  -13.4796 C   0  0  0  0  0  0  0  0  0  0  0  0
   22.4727   -9.9771  -12.2746 C   0  0  0  0  0  0  0  0  0  0  0  0
   21.4671   -9.1193  -11.8996 C   0  0  0  0  0  0  0  0  0  0  0  0
   21.1010   -8.0837  -12.7635 C   0  0  0  0  0  0  0  0  0  0  0  0
   19.7212   -5.6790  -16.1170 C   0  0  0  0  0  0  0  0  0  0  0  0
   20.4273   -5.1025  -17.0281 O   0  0  0  0  0  0  0  0  0  0  0  0
   18.5964   -4.9505  -15.7029 N   0  0  0  0  0  0  0  0  0  0  0  0
   18.2444   -3.6540  -16.2098 C   0  0  1  0  0  0  0  0  0  0  0  0
   16.9262   -3.8226  -16.9637 C   0  0  0  0  0  0  0  0  0  0  0  0
   16.3529   -2.2234  -17.5861 S   0  0  0  0  0  0  0  0  0  0  0  0
   18.1063   -2.5807  -15.2498 C   0  0  0  0  0  0  0  0  0  0  0  0
   18.5961   -1.3147  -15.5344 O   0  0  0  0  0  0  0  0  0  0  0  0
   17.5513   -2.7451  -14.1460 O   0  0  0  0  0  0  0  0  0  0  0  0
  2  3  1  6
  2  1  1  0
  4  6  1  0
  4  2  1  0
  4  5  1  1
  6  7  2  0
  8  9  1  0
  8  6  1  0
  9 10  1  6
 10 11  1  0
 11 16  2  0
 12 11  1  0
 12 13  2  0
 13 14  1  0
 14 15  2  0
 16 15  1  0
 17 18  2  0
 17  9  1  0
 19 17  1  0
 20 23  1  0
 20 19  1  0
 21 22  1  0
 20 21  1  1
 23 24  1  0
 25 23  2  0
M  END
$$$$
