VFC.pdb
     RDKit          3D

 25 25  0  0  1  0  0  0  0  0999 V2000
   25.4000  -30.6914  -18.3281 C   0  0  0  0  0  0  0  0  0  0  0  0
   25.7280  -29.2510  -17.9423 C   0  0  2  0  0  0  0  0  0  0  0  0
   24.4420  -28.5482  -17.5438 C   0  0  0  0  0  0  0  0  0  0  0  0
   26.2705  -28.5918  -19.1949 C   0  0  2  0  0  0  0  0  0  0  0  0
   25.2806  -28.7321  -20.2313 N   0  0  0  0  0  0  0  0  0  0  0  0
   27.5388  -29.2484  -19.6383 C   0  0  0  0  0  0  0  0  0  0  0  0
   27.5001  -30.1377  -20.5488 O   0  0  0  0  0  0  0  0  0  0  0  0
   28.7965  -28.9401  -19.1032 N   0  0  0  0  0  0  0  0  0  0  0  0
   30.0310  -29.6589  -19.4457 C   0  0  1  0  0  0  0  0  0  0  0  0
   30.9452  -28.6420  -20.0621 C   0  0  0  0  0  0  0  0  0  0  0  0
   30.7620  -28.3210  -21.4607 C   0  0  0  0  0  0  0  0  0  0  0  0
   30.3770  -27.0151  -21.7784 C   0  0  0  0  0  0  0  0  0  0  0  0
   30.2398  -26.6759  -23.1003 C   0  0  0  0  0  0  0  0  0  0  0  0
   30.4822  -27.6213  -24.0770 C   0  0  0  0  0  0  0  0  0  0  0  0
   30.8605  -28.9062  -23.7707 C   0  0  0  0  0  0  0  0  0  0  0  0
   31.0051  -29.2696  -22.4292 C   0  0  0  0  0  0  0  0  0  0  0  0
   30.6231  -30.2995  -18.2908 C   0  0  0  0  0  0  0  0  0  0  0  0
   31.3615  -29.5506  -17.5460 O   0  0  0  0  0  0  0  0  0  0  0  0
   30.5079  -31.6265  -17.8512 N   0  0  0  0  0  0  0  0  0  0  0  0
   31.0991  -32.1296  -16.6432 C   0  0  1  0  0  0  0  0  0  0  0  0
   30.0485  -33.0185  -15.9796 C   0  0  0  0  0  0  0  0  0  0  0  0
   28.6643  -32.0152  -15.3874 S   0  0  0  0  0  0  0  0  0  0  0  0
   32.3353  -32.8706  -16.7676 C   0  0  0  0  0  0  0  0  0  0  0  0
   32.8813  -33.1236  -18.0173 O   0  0  0  0  0  0  0  0  0  0  0  0
   32.9511  -33.3054  -15.7751 O   0  0  0  0  0  0  0  0  0  0  0  0
  2  3  1  6
  2  1  1  0
  4  6  1  0
  4  2  1  0
  4  5  1  6
  6  7  2  0
  8  9  1  0
  8  6  1  0
  9 10  1  1
 10 11  1  0
 11 16  2  0
 12 11  1  0
 12 13  2  0
 13 14  1  0
 14 15  2  0
 16 15  1  0
 17 18  2  0
 17  9  1  0
 19 17  1  0
 20 23  1  0
 20 19  1  0
 21 22  1  0
 20 21  1  6
 23 24  1  0
 25 23  2  0
M  END
$$$$
