VFC.pdb
     RDKit          3D

 25 25  0  0  1  0  0  0  0  0999 V2000
   28.5951  -20.2226  -18.8727 C   0  0  0  0  0  0  0  0  0  0  0  0
   28.0230  -21.0306  -17.7104 C   0  0  2  0  0  0  0  0  0  0  0  0
   27.4681  -22.3368  -18.2512 C   0  0  0  0  0  0  0  0  0  0  0  0
   26.8754  -20.2125  -17.1523 C   0  0  2  0  0  0  0  0  0  0  0  0
   27.3658  -18.8834  -16.8940 N   0  0  0  0  0  0  0  0  0  0  0  0
   26.3689  -20.8033  -15.8753 C   0  0  0  0  0  0  0  0  0  0  0  0
   25.6665  -21.8649  -15.9100 O   0  0  0  0  0  0  0  0  0  0  0  0
   26.6238  -20.2501  -14.6135 N   0  0  0  0  0  0  0  0  0  0  0  0
   26.0017  -20.7246  -13.3702 C   0  0  1  0  0  0  0  0  0  0  0  0
   26.8410  -20.1801  -12.2527 C   0  0  0  0  0  0  0  0  0  0  0  0
   26.3727  -20.3657  -10.8967 C   0  0  0  0  0  0  0  0  0  0  0  0
   26.2019  -19.2224  -10.1104 C   0  0  0  0  0  0  0  0  0  0  0  0
   25.7172  -19.3704   -8.8358 C   0  0  0  0  0  0  0  0  0  0  0  0
   25.4121  -20.6313   -8.3630 C   0  0  0  0  0  0  0  0  0  0  0  0
   25.5781  -21.7584   -9.1311 C   0  0  0  0  0  0  0  0  0  0  0  0
   26.0710  -21.6267  -10.4320 C   0  0  0  0  0  0  0  0  0  0  0  0
   24.6176  -20.3145  -13.2661 C   0  0  0  0  0  0  0  0  0  0  0  0
   24.3941  -19.0494  -13.3684 O   0  0  0  0  0  0  0  0  0  0  0  0
   23.4687  -21.0961  -13.0748 N   0  0  0  0  0  0  0  0  0  0  0  0
   22.1561  -20.5583  -12.8511 C   0  0  1  0  0  0  0  0  0  0  0  0
   21.1938  -21.3863  -13.7013 C   0  0  0  0  0  0  0  0  0  0  0  0
   21.7954  -21.4905  -15.4044 S   0  0  0  0  0  0  0  0  0  0  0  0
   21.6750  -20.5270  -11.4871 C   0  0  0  0  0  0  0  0  0  0  0  0
   20.4955  -19.8690  -11.1720 O   0  0  0  0  0  0  0  0  0  0  0  0
   22.2890  -21.0801  -10.5541 O   0  0  0  0  0  0  0  0  0  0  0  0
  2  3  1  6
  2  1  1  0
  4  6  1  0
  4  2  1  0
  4  5  1  1
  6  7  2  0
  8  9  1  0
  8  6  1  0
  9 10  1  1
 10 11  1  0
 11 16  2  0
 12 11  1  0
 12 13  2  0
 13 14  1  0
 14 15  2  0
 16 15  1  0
 17 18  2  0
 17  9  1  0
 19 17  1  0
 20 23  1  0
 20 19  1  0
 21 22  1  0
 20 21  1  6
 23 24  1  0
 25 23  2  0
M  END
$$$$
