CLH.pdb
     RDKit          3D

 25 25  0  0  1  0  0  0  0  0999 V2000
    7.6001  -14.2911   20.2996 N   0  0  0  0  0  0  0  0  0  0  0  0
    6.9759  -14.9945   21.3719 C   0  0  1  0  0  0  0  0  0  0  0  0
    6.8117  -16.4462   20.9946 C   0  0  0  0  0  0  0  0  0  0  0  0
    5.9215  -17.2808   22.3309 S   0  0  0  0  0  0  0  0  0  0  0  0
    7.7195  -14.9209   22.6455 C   0  0  0  0  0  0  0  0  0  0  0  0
    8.9747  -15.0218   22.5867 O   0  0  0  0  0  0  0  0  0  0  0  0
    5.9746  -11.7457   26.7700 C   0  0  0  0  0  0  0  0  0  0  0  0
    6.8591  -12.4256   25.7277 C   0  0  1  0  0  0  0  0  0  0  0  0
    8.1523  -11.6365   25.6919 C   0  0  0  0  0  0  0  0  0  0  0  0
    7.1286  -13.8448   26.1038 C   0  0  0  0  0  0  0  0  0  0  0  0
    7.9151  -14.6384   25.1458 C   0  0  2  0  0  0  0  0  0  0  0  0
    7.1355  -14.7478   23.9107 N   0  0  0  0  0  0  0  0  0  0  0  0
    8.3684  -15.9488   25.5932 C   0  0  0  0  0  0  0  0  0  0  0  0
    7.5469  -16.8307   25.9107 O   0  0  0  0  0  0  0  0  0  0  0  0
    9.7380  -16.2488   25.6772 N   0  0  0  0  0  0  0  0  0  0  0  0
   10.2994  -17.5646   26.0074 C   0  0  1  0  0  0  0  0  0  0  0  0
   11.7476  -17.6444   25.6581 C   0  0  0  0  0  0  0  0  0  0  0  0
   11.9274  -17.6167   24.1956 C   0  0  0  0  0  0  0  0  0  0  0  0
   11.0603  -17.7427   23.1487 C   0  0  0  0  0  0  0  0  0  0  0  0
   11.7265  -17.5778   21.9866 N   0  0  0  0  0  0  0  0  0  0  0  0
   13.0107  -17.3462   22.2766 C   0  0  0  0  0  0  0  0  0  0  0  0
   13.1363  -17.3681   23.5948 N   0  0  0  0  0  0  0  0  0  0  0  0
   10.2315  -17.5916   27.5205 C   0  0  0  0  0  0  0  0  0  0  0  0
   10.4485  -18.6894   28.2982 O   0  0  0  0  0  0  0  0  0  0  0  0
    9.9488  -16.4835   28.0882 O   0  0  0  0  0  0  0  0  0  0  0  0
  2  1  1  6
  3  2  1  0
  3  4  1  0
  5  6  2  0
  5  2  1  0
  8  7  1  1
  8 10  1  0
  9  8  1  0
 11 10  1  1
 11 13  1  0
 11 12  1  0
 12  5  1  0
 13 14  2  0
 15 13  1  0
 15 16  1  0
 16 17  1  1
 17 18  1  0
 18 22  1  0
 19 18  2  0
 19 20  1  0
 20 21  1  0
 22 21  2  0
 23 16  1  0
 24 23  1  0
 25 23  2  0
M  END
$$$$
