CLH.pdb
     RDKit          3D

 25 25  0  0  1  0  0  0  0  0999 V2000
    7.2700  -17.9461   20.5472 N   0  0  0  0  0  0  0  0  0  0  0  0
    7.3683  -17.8809   21.9686 C   0  0  1  0  0  0  0  0  0  0  0  0
    8.3243  -18.9412   22.4571 C   0  0  0  0  0  0  0  0  0  0  0  0
    7.3779  -20.1702   23.3889 S   0  0  0  0  0  0  0  0  0  0  0  0
    7.8214  -16.5699   22.4750 C   0  0  0  0  0  0  0  0  0  0  0  0
    8.7250  -15.9811   21.8224 O   0  0  0  0  0  0  0  0  0  0  0  0
    7.0252  -11.6233   24.6404 C   0  0  0  0  0  0  0  0  0  0  0  0
    7.1097  -12.7714   25.6432 C   0  0  1  0  0  0  0  0  0  0  0  0
    6.1004  -12.4585   26.7294 C   0  0  0  0  0  0  0  0  0  0  0  0
    6.7809  -14.0727   24.9901 C   0  0  0  0  0  0  0  0  0  0  0  0
    7.8035  -14.6314   24.0909 C   0  0  2  0  0  0  0  0  0  0  0  0
    7.3233  -15.9337   23.6233 N   0  0  0  0  0  0  0  0  0  0  0  0
    9.1576  -14.7346   24.6186 C   0  0  0  0  0  0  0  0  0  0  0  0
    9.9164  -13.7458   24.6185 O   0  0  0  0  0  0  0  0  0  0  0  0
    9.6389  -15.9473   25.1386 N   0  0  0  0  0  0  0  0  0  0  0  0
   10.9283  -16.1268   25.8175 C   0  0  1  0  0  0  0  0  0  0  0  0
   10.7638  -16.8160   27.1303 C   0  0  0  0  0  0  0  0  0  0  0  0
   10.3494  -15.8553   28.1684 C   0  0  0  0  0  0  0  0  0  0  0  0
   10.0176  -14.5316   28.1324 C   0  0  0  0  0  0  0  0  0  0  0  0
    9.6443  -14.1246   29.3639 N   0  0  0  0  0  0  0  0  0  0  0  0
    9.7317  -15.1730   30.1889 C   0  0  0  0  0  0  0  0  0  0  0  0
   10.1521  -16.2095   29.4798 N   0  0  0  0  0  0  0  0  0  0  0  0
   11.6512  -17.1077   24.9174 C   0  0  0  0  0  0  0  0  0  0  0  0
   11.1214  -17.6943   23.8073 O   0  0  0  0  0  0  0  0  0  0  0  0
   12.8525  -17.3886   25.2459 O   0  0  0  0  0  0  0  0  0  0  0  0
  2  1  1  6
  3  2  1  0
  3  4  1  0
  5  6  2  0
  5  2  1  0
  8  7  1  6
  8 10  1  0
  9  8  1  0
 11 10  1  1
 11 13  1  0
 11 12  1  0
 12  5  1  0
 13 14  2  0
 15 13  1  0
 15 16  1  0
 16 17  1  1
 17 18  1  0
 18 22  1  0
 19 18  2  0
 19 20  1  0
 20 21  1  0
 22 21  2  0
 23 16  1  0
 24 23  1  0
 25 23  2  0
M  END
$$$$
