CLH.pdb
     RDKit          3D

 25 25  0  0  1  0  0  0  0  0999 V2000
    7.4515  -17.2634   20.5110 N   0  0  0  0  0  0  0  0  0  0  0  0
    7.0239  -17.3355   21.8698 C   0  0  1  0  0  0  0  0  0  0  0  0
    7.2221  -18.7391   22.3869 C   0  0  0  0  0  0  0  0  0  0  0  0
    6.1912  -18.9506   23.8589 S   0  0  0  0  0  0  0  0  0  0  0  0
    7.7302  -16.3997   22.7672 C   0  0  0  0  0  0  0  0  0  0  0  0
    8.9163  -16.0968   22.4662 O   0  0  0  0  0  0  0  0  0  0  0  0
    6.2474  -12.4924   27.2465 C   0  0  0  0  0  0  0  0  0  0  0  0
    7.1861  -12.7357   26.0673 C   0  0  1  0  0  0  0  0  0  0  0  0
    8.5589  -12.9747   26.6628 C   0  0  0  0  0  0  0  0  0  0  0  0
    6.7500  -13.9248   25.2774 C   0  0  0  0  0  0  0  0  0  0  0  0
    7.8167  -14.7225   24.6513 C   0  0  2  0  0  0  0  0  0  0  0  0
    7.1819  -15.8249   23.9251 N   0  0  0  0  0  0  0  0  0  0  0  0
    8.8704  -15.2154   25.5285 C   0  0  0  0  0  0  0  0  0  0  0  0
    9.6281  -14.4215   26.1193 O   0  0  0  0  0  0  0  0  0  0  0  0
    9.0570  -16.5930   25.7289 N   0  0  0  0  0  0  0  0  0  0  0  0
   10.2946  -17.2204   26.2088 C   0  0  1  0  0  0  0  0  0  0  0  0
   11.4634  -16.3046   26.0645 C   0  0  0  0  0  0  0  0  0  0  0  0
   12.0319  -16.4040   24.7083 C   0  0  0  0  0  0  0  0  0  0  0  0
   11.6254  -17.0446   23.5734 C   0  0  0  0  0  0  0  0  0  0  0  0
   12.4786  -16.7656   22.5656 N   0  0  0  0  0  0  0  0  0  0  0  0
   13.4269  -15.9523   23.0413 C   0  0  0  0  0  0  0  0  0  0  0  0
   13.1647  -15.7328   24.3208 N   0  0  0  0  0  0  0  0  0  0  0  0
   10.0502  -17.3560   27.6977 C   0  0  0  0  0  0  0  0  0  0  0  0
   10.9498  -17.8354   28.6020 O   0  0  0  0  0  0  0  0  0  0  0  0
    8.9023  -16.9820   28.1129 O   0  0  0  0  0  0  0  0  0  0  0  0
  2  1  1  6
  3  2  1  0
  3  4  1  0
  5  6  2  0
  5  2  1  0
  8  7  1  1
  8 10  1  0
  9  8  1  0
 11 10  1  1
 11 13  1  0
 11 12  1  0
 12  5  1  0
 13 14  2  0
 15 13  1  0
 15 16  1  0
 16 17  1  1
 17 18  1  0
 18 22  1  0
 19 18  2  0
 19 20  1  0
 20 21  1  0
 22 21  2  0
 23 16  1  0
 24 23  1  0
 25 23  2  0
M  END
$$$$
