CLH.pdb
     RDKit          3D

 25 25  0  0  1  0  0  0  0  0999 V2000
    8.8835  -15.7156   20.0499 N   0  0  0  0  0  0  0  0  0  0  0  0
    7.9833  -15.9883   21.1222 C   0  0  1  0  0  0  0  0  0  0  0  0
    7.8236  -17.4804   21.2793 C   0  0  0  0  0  0  0  0  0  0  0  0
    6.5795  -18.0443   20.0923 S   0  0  0  0  0  0  0  0  0  0  0  0
    8.4105  -15.4222   22.4173 C   0  0  0  0  0  0  0  0  0  0  0  0
    9.6414  -15.4629   22.6862 O   0  0  0  0  0  0  0  0  0  0  0  0
    8.2538  -11.8863   26.5616 C   0  0  0  0  0  0  0  0  0  0  0  0
    7.1982  -12.9879   26.6162 C   0  0  1  0  0  0  0  0  0  0  0  0
    5.9416  -12.3419   27.1640 C   0  0  0  0  0  0  0  0  0  0  0  0
    6.9424  -13.5468   25.2559 C   0  0  0  0  0  0  0  0  0  0  0  0
    8.0019  -14.3946   24.6860 C   0  0  2  0  0  0  0  0  0  0  0  0
    7.5521  -14.8449   23.3668 N   0  0  0  0  0  0  0  0  0  0  0  0
    8.4501  -15.5201   25.4954 C   0  0  0  0  0  0  0  0  0  0  0  0
    7.6855  -16.4748   25.7346 O   0  0  0  0  0  0  0  0  0  0  0  0
    9.7509  -15.5561   26.0240 N   0  0  0  0  0  0  0  0  0  0  0  0
   10.3384  -16.6855   26.7554 C   0  0  1  0  0  0  0  0  0  0  0  0
   11.7590  -16.9129   26.3607 C   0  0  0  0  0  0  0  0  0  0  0  0
   11.8285  -17.6155   25.0670 C   0  0  0  0  0  0  0  0  0  0  0  0
   11.6557  -18.9208   24.7062 C   0  0  0  0  0  0  0  0  0  0  0  0
   11.7660  -19.0386   23.3663 N   0  0  0  0  0  0  0  0  0  0  0  0
   12.0062  -17.8234   22.8637 C   0  0  0  0  0  0  0  0  0  0  0  0
   12.0442  -16.9695   23.8753 N   0  0  0  0  0  0  0  0  0  0  0  0
   10.3760  -16.1815   28.1834 C   0  0  0  0  0  0  0  0  0  0  0  0
   10.7155  -16.9274   29.2721 O   0  0  0  0  0  0  0  0  0  0  0  0
   10.0625  -14.9555   28.3528 O   0  0  0  0  0  0  0  0  0  0  0  0
  2  1  1  6
  3  2  1  0
  3  4  1  0
  5  6  2  0
  5  2  1  0
  8  7  1  6
  8 10  1  0
  9  8  1  0
 11 10  1  1
 11 13  1  0
 11 12  1  0
 12  5  1  0
 13 14  2  0
 15 13  1  0
 15 16  1  0
 16 17  1  6
 17 18  1  0
 18 22  1  0
 19 18  2  0
 19 20  1  0
 20 21  1  0
 22 21  2  0
 23 16  1  0
 24 23  1  0
 25 23  2  0
M  END
$$$$
