CLH.pdb
     RDKit          3D

 25 25  0  0  1  0  0  0  0  0999 V2000
    7.2357  -15.4446   20.5381 N   0  0  0  0  0  0  0  0  0  0  0  0
    6.6828  -15.6282   21.8400 C   0  0  1  0  0  0  0  0  0  0  0  0
    6.5294  -17.1030   22.1193 C   0  0  0  0  0  0  0  0  0  0  0  0
    8.1807  -17.8157   22.3192 S   0  0  0  0  0  0  0  0  0  0  0  0
    7.4899  -15.0265   22.9203 C   0  0  0  0  0  0  0  0  0  0  0  0
    8.6350  -14.5977   22.6138 O   0  0  0  0  0  0  0  0  0  0  0  0
    5.5716  -11.6924   26.9589 C   0  0  0  0  0  0  0  0  0  0  0  0
    6.4067  -12.2976   25.8333 C   0  0  1  0  0  0  0  0  0  0  0  0
    7.5136  -11.3030   25.5469 C   0  0  0  0  0  0  0  0  0  0  0  0
    6.9843  -13.6105   26.2469 C   0  0  0  0  0  0  0  0  0  0  0  0
    7.8965  -14.2559   25.2889 C   0  0  2  0  0  0  0  0  0  0  0  0
    7.0788  -14.8972   24.2567 N   0  0  0  0  0  0  0  0  0  0  0  0
    8.8711  -15.1904   25.8363 C   0  0  0  0  0  0  0  0  0  0  0  0
    9.4843  -14.9249   26.8883 O   0  0  0  0  0  0  0  0  0  0  0  0
    9.1421  -16.4094   25.1932 N   0  0  0  0  0  0  0  0  0  0  0  0
   10.0798  -17.4318   25.6739 C   0  0  1  0  0  0  0  0  0  0  0  0
    9.5603  -18.8086   25.4287 C   0  0  0  0  0  0  0  0  0  0  0  0
    8.7054  -19.2438   26.5476 C   0  0  0  0  0  0  0  0  0  0  0  0
    8.5528  -18.8002   27.8296 C   0  0  0  0  0  0  0  0  0  0  0  0
    7.5806  -19.5088   28.4413 N   0  0  0  0  0  0  0  0  0  0  0  0
    7.1072  -20.4010   27.5655 C   0  0  0  0  0  0  0  0  0  0  0  0
    7.7754  -20.2468   26.4325 N   0  0  0  0  0  0  0  0  0  0  0  0
   11.2685  -17.2621   24.7503 C   0  0  0  0  0  0  0  0  0  0  0  0
   12.4572  -17.9175   24.8696 O   0  0  0  0  0  0  0  0  0  0  0  0
   11.1176  -16.4346   23.7899 O   0  0  0  0  0  0  0  0  0  0  0  0
  2  1  1  6
  3  2  1  0
  3  4  1  0
  5  6  2  0
  5  2  1  0
  8  7  1  1
  8 10  1  0
  9  8  1  0
 11 10  1  1
 11 13  1  0
 11 12  1  0
 12  5  1  0
 13 14  2  0
 15 13  1  0
 15 16  1  0
 16 17  1  6
 17 18  1  0
 18 22  1  0
 19 18  2  0
 19 20  1  0
 20 21  1  0
 22 21  2  0
 23 16  1  0
 24 23  1  0
 25 23  2  0
M  END
$$$$
