CLH.pdb
     RDKit          3D

 25 25  0  0  1  0  0  0  0  0999 V2000
   10.9811  -18.1595   18.1932 N   0  0  0  0  0  0  0  0  0  0  0  0
   10.1704  -18.2070   19.3657 C   0  0  1  0  0  0  0  0  0  0  0  0
   10.5894  -19.3771   20.2214 C   0  0  0  0  0  0  0  0  0  0  0  0
    9.3690  -19.5777   21.5423 S   0  0  0  0  0  0  0  0  0  0  0  0
   10.2337  -16.9796   20.1840 C   0  0  0  0  0  0  0  0  0  0  0  0
   11.3611  -16.4303   20.3128 O   0  0  0  0  0  0  0  0  0  0  0  0
    6.3016  -13.3271   20.0296 C   0  0  0  0  0  0  0  0  0  0  0  0
    7.6607  -14.0209   20.0778 C   0  0  1  0  0  0  0  0  0  0  0  0
    8.6628  -13.0253   19.5291 C   0  0  0  0  0  0  0  0  0  0  0  0
    8.0167  -14.3957   21.4782 C   0  0  0  0  0  0  0  0  0  0  0  0
    9.2507  -15.1783   21.6534 C   0  0  2  0  0  0  0  0  0  0  0  0
    9.1374  -16.3817   20.8261 N   0  0  0  0  0  0  0  0  0  0  0  0
    9.6248  -15.5192   23.0196 C   0  0  0  0  0  0  0  0  0  0  0  0
    9.7741  -14.6283   23.8784 O   0  0  0  0  0  0  0  0  0  0  0  0
    9.8256  -16.8561   23.4006 N   0  0  0  0  0  0  0  0  0  0  0  0
   10.1446  -17.3122   24.7593 C   0  0  1  0  0  0  0  0  0  0  0  0
    9.4767  -18.6091   25.0716 C   0  0  0  0  0  0  0  0  0  0  0  0
    8.0121  -18.4681   24.9872 C   0  0  0  0  0  0  0  0  0  0  0  0
    7.1482  -17.4831   25.3707 C   0  0  0  0  0  0  0  0  0  0  0  0
    5.8917  -17.8158   25.0072 N   0  0  0  0  0  0  0  0  0  0  0  0
    5.9405  -19.0026   24.3938 C   0  0  0  0  0  0  0  0  0  0  0  0
    7.2048  -19.3967   24.3788 N   0  0  0  0  0  0  0  0  0  0  0  0
   11.6268  -17.6138   24.6759 C   0  0  0  0  0  0  0  0  0  0  0  0
   12.3942  -17.4841   23.5573 O   0  0  0  0  0  0  0  0  0  0  0  0
   12.1774  -18.0182   25.7545 O   0  0  0  0  0  0  0  0  0  0  0  0
  2  1  1  6
  3  2  1  0
  3  4  1  0
  5  6  2  0
  5  2  1  0
  8  7  1  1
  8 10  1  0
  9  8  1  0
 11 10  1  1
 11 13  1  0
 11 12  1  0
 12  5  1  0
 13 14  2  0
 15 13  1  0
 15 16  1  0
 16 17  1  6
 17 18  1  0
 18 22  1  0
 19 18  2  0
 19 20  1  0
 20 21  1  0
 22 21  2  0
 23 16  1  0
 24 23  1  0
 25 23  2  0
M  END
$$$$
