CLH.pdb
     RDKit          3D

 25 25  0  0  1  0  0  0  0  0999 V2000
    7.0610  -19.8715   27.4419 N   0  0  0  0  0  0  0  0  0  0  0  0
    7.9434  -18.7709   27.2307 C   0  0  1  0  0  0  0  0  0  0  0  0
    9.2373  -19.2692   26.6356 C   0  0  0  0  0  0  0  0  0  0  0  0
   10.5548  -19.0099   27.8487 S   0  0  0  0  0  0  0  0  0  0  0  0
    7.3909  -17.7255   26.3463 C   0  0  0  0  0  0  0  0  0  0  0  0
    6.6330  -18.1022   25.4122 O   0  0  0  0  0  0  0  0  0  0  0  0
    5.2194  -12.5772   25.7858 C   0  0  0  0  0  0  0  0  0  0  0  0
    6.6936  -12.8470   25.4947 C   0  0  1  0  0  0  0  0  0  0  0  0
    7.4437  -11.6027   25.9255 C   0  0  0  0  0  0  0  0  0  0  0  0
    7.1777  -14.0342   26.2591 C   0  0  0  0  0  0  0  0  0  0  0  0
    7.0368  -15.3414   25.5976 C   0  0  2  0  0  0  0  0  0  0  0  0
    7.6458  -16.3500   26.4679 N   0  0  0  0  0  0  0  0  0  0  0  0
    7.5494  -15.4490   24.2380 C   0  0  0  0  0  0  0  0  0  0  0  0
    6.8387  -15.1322   23.2644 O   0  0  0  0  0  0  0  0  0  0  0  0
    8.8529  -15.9110   23.9927 N   0  0  0  0  0  0  0  0  0  0  0  0
    9.4512  -16.0967   22.6649 C   0  0  1  0  0  0  0  0  0  0  0  0
    9.9134  -14.8011   22.0874 C   0  0  0  0  0  0  0  0  0  0  0  0
    8.8896  -14.2446   21.1850 C   0  0  0  0  0  0  0  0  0  0  0  0
    7.8234  -14.7957   20.5345 C   0  0  0  0  0  0  0  0  0  0  0  0
    7.1500  -13.8322   19.8715 N   0  0  0  0  0  0  0  0  0  0  0  0
    7.7717  -12.6692   20.0906 C   0  0  0  0  0  0  0  0  0  0  0  0
    8.8114  -12.9097   20.8749 N   0  0  0  0  0  0  0  0  0  0  0  0
   10.7049  -16.8917   22.9665 C   0  0  0  0  0  0  0  0  0  0  0  0
   11.6205  -17.2973   22.0423 O   0  0  0  0  0  0  0  0  0  0  0  0
   10.8967  -17.1908   24.1927 O   0  0  0  0  0  0  0  0  0  0  0  0
  2  1  1  6
  3  2  1  0
  3  4  1  0
  5  6  2  0
  5  2  1  0
  8  7  1  1
  8 10  1  0
  9  8  1  0
 11 10  1  1
 11 13  1  0
 11 12  1  0
 12  5  1  0
 13 14  2  0
 15 13  1  0
 15 16  1  0
 16 17  1  1
 17 18  1  0
 18 22  1  0
 19 18  2  0
 19 20  1  0
 20 21  1  0
 22 21  2  0
 23 16  1  0
 24 23  1  0
 25 23  2  0
M  END
$$$$
