CLH.pdb
     RDKit          3D

 25 25  0  0  1  0  0  0  0  0999 V2000
    8.1280  -15.3031   19.7565 N   0  0  0  0  0  0  0  0  0  0  0  0
    7.3902  -15.7223   20.9029 C   0  0  1  0  0  0  0  0  0  0  0  0
    7.3762  -17.2296   20.9701 C   0  0  0  0  0  0  0  0  0  0  0  0
    6.3189  -17.7245   22.3527 S   0  0  0  0  0  0  0  0  0  0  0  0
    7.9220  -15.1997   22.1775 C   0  0  0  0  0  0  0  0  0  0  0  0
    9.1714  -15.2392   22.3400 O   0  0  0  0  0  0  0  0  0  0  0  0
    6.0308  -11.7341   26.9136 C   0  0  0  0  0  0  0  0  0  0  0  0
    7.1925  -12.4772   26.2584 C   0  0  1  0  0  0  0  0  0  0  0  0
    7.7884  -13.3621   27.3346 C   0  0  0  0  0  0  0  0  0  0  0  0
    6.7146  -13.3058   25.1124 C   0  0  0  0  0  0  0  0  0  0  0  0
    7.7111  -14.1837   24.4781 C   0  0  2  0  0  0  0  0  0  0  0  0
    7.1435  -14.6648   23.2165 N   0  0  0  0  0  0  0  0  0  0  0  0
    8.2152  -15.2920   25.2783 C   0  0  0  0  0  0  0  0  0  0  0  0
    7.4297  -16.1014   25.8086 O   0  0  0  0  0  0  0  0  0  0  0  0
    9.5946  -15.4743   25.4707 N   0  0  0  0  0  0  0  0  0  0  0  0
   10.2105  -16.6062   26.1743 C   0  0  1  0  0  0  0  0  0  0  0  0
   11.6250  -16.8115   25.7468 C   0  0  0  0  0  0  0  0  0  0  0  0
   11.6757  -17.3655   24.3820 C   0  0  0  0  0  0  0  0  0  0  0  0
   10.7391  -17.9512   23.5798 C   0  0  0  0  0  0  0  0  0  0  0  0
   11.2842  -18.2315   22.3773 N   0  0  0  0  0  0  0  0  0  0  0  0
   12.5594  -17.8309   22.3991 C   0  0  0  0  0  0  0  0  0  0  0  0
   12.7985  -17.3126   23.5941 N   0  0  0  0  0  0  0  0  0  0  0  0
   10.2727  -16.1205   27.6079 C   0  0  0  0  0  0  0  0  0  0  0  0
    9.9323  -14.8704   28.0302 O   0  0  0  0  0  0  0  0  0  0  0  0
   10.6775  -16.9706   28.4700 O   0  0  0  0  0  0  0  0  0  0  0  0
  2  1  1  6
  3  2  1  0
  3  4  1  0
  5  6  2  0
  5  2  1  0
  8  7  1  1
  8 10  1  0
  9  8  1  0
 11 10  1  1
 11 13  1  0
 11 12  1  0
 12  5  1  0
 13 14  2  0
 15 13  1  0
 15 16  1  0
 16 17  1  6
 17 18  1  0
 18 22  1  0
 19 18  2  0
 19 20  1  0
 20 21  1  0
 22 21  2  0
 23 16  1  0
 24 23  1  0
 25 23  2  0
M  END
$$$$
