CLH.pdb
     RDKit          3D

 25 25  0  0  1  0  0  0  0  0999 V2000
    9.5815  -17.4859   15.7932 N   0  0  0  0  0  0  0  0  0  0  0  0
    8.7913  -17.6768   16.9653 C   0  0  1  0  0  0  0  0  0  0  0  0
    8.6506  -19.1532   17.2434 C   0  0  0  0  0  0  0  0  0  0  0  0
    7.6653  -19.3540   18.7479 S   0  0  0  0  0  0  0  0  0  0  0  0
    9.3424  -17.0221   18.1686 C   0  0  0  0  0  0  0  0  0  0  0  0
   10.5792  -17.1473   18.3775 O   0  0  0  0  0  0  0  0  0  0  0  0
    6.6672  -12.6647   20.3795 C   0  0  0  0  0  0  0  0  0  0  0  0
    7.7238  -13.5645   19.7434 C   0  0  1  0  0  0  0  0  0  0  0  0
    8.8636  -12.6534   19.3343 C   0  0  0  0  0  0  0  0  0  0  0  0
    8.2041  -14.5899   20.7161 C   0  0  0  0  0  0  0  0  0  0  0  0
    9.1983  -15.5529   20.2156 C   0  0  2  0  0  0  0  0  0  0  0  0
    8.5950  -16.2743   19.0926 N   0  0  0  0  0  0  0  0  0  0  0  0
    9.7627  -16.4803   21.1872 C   0  0  0  0  0  0  0  0  0  0  0  0
    9.0494  -17.3503   21.7235 O   0  0  0  0  0  0  0  0  0  0  0  0
   11.1202  -16.4163   21.5419 N   0  0  0  0  0  0  0  0  0  0  0  0
   11.7817  -17.2824   22.5257 C   0  0  1  0  0  0  0  0  0  0  0  0
   13.2312  -17.4531   22.2169 C   0  0  0  0  0  0  0  0  0  0  0  0
   13.4101  -18.3536   21.0640 C   0  0  0  0  0  0  0  0  0  0  0  0
   12.8052  -19.5191   20.6906 C   0  0  0  0  0  0  0  0  0  0  0  0
   13.2947  -19.9218   19.4991 N   0  0  0  0  0  0  0  0  0  0  0  0
   14.2056  -19.0269   19.1036 C   0  0  0  0  0  0  0  0  0  0  0  0
   14.2784  -18.0878   20.0346 N   0  0  0  0  0  0  0  0  0  0  0  0
   11.7182  -16.4610   23.7969 C   0  0  0  0  0  0  0  0  0  0  0  0
   11.1018  -15.2522   23.9223 O   0  0  0  0  0  0  0  0  0  0  0  0
   12.2941  -16.9652   24.8187 O   0  0  0  0  0  0  0  0  0  0  0  0
  2  1  1  6
  3  2  1  0
  3  4  1  0
  5  6  2  0
  5  2  1  0
  8  7  1  1
  8 10  1  0
  9  8  1  0
 11 10  1  1
 11 13  1  0
 11 12  1  0
 12  5  1  0
 13 14  2  0
 15 13  1  0
 15 16  1  0
 16 17  1  6
 17 18  1  0
 18 22  1  0
 19 18  2  0
 19 20  1  0
 20 21  1  0
 22 21  2  0
 23 16  1  0
 24 23  1  0
 25 23  2  0
M  END
$$$$
