CLH.pdb
     RDKit          3D

 25 25  0  0  1  0  0  0  0  0999 V2000
    8.8628  -15.6119   20.1175 N   0  0  0  0  0  0  0  0  0  0  0  0
    7.8999  -15.9515   21.1134 C   0  0  1  0  0  0  0  0  0  0  0  0
    7.6812  -17.4444   21.1149 C   0  0  0  0  0  0  0  0  0  0  0  0
    6.3570  -17.8210   22.2894 S   0  0  0  0  0  0  0  0  0  0  0  0
    8.2792  -15.5305   22.4770 C   0  0  0  0  0  0  0  0  0  0  0  0
    9.4690  -15.7424   22.8356 O   0  0  0  0  0  0  0  0  0  0  0  0
    8.2181  -12.0013   26.5821 C   0  0  0  0  0  0  0  0  0  0  0  0
    7.0826  -13.0207   26.6287 C   0  0  1  0  0  0  0  0  0  0  0  0
    5.8634  -12.2722   27.1284 C   0  0  0  0  0  0  0  0  0  0  0  0
    6.8220  -13.5884   25.2729 C   0  0  0  0  0  0  0  0  0  0  0  0
    7.8360  -14.5152   24.7447 C   0  0  2  0  0  0  0  0  0  0  0  0
    7.4176  -14.9149   23.3991 N   0  0  0  0  0  0  0  0  0  0  0  0
    8.1497  -15.6810   25.5602 C   0  0  0  0  0  0  0  0  0  0  0  0
    7.2602  -16.4973   25.8700 O   0  0  0  0  0  0  0  0  0  0  0  0
    9.4581  -15.9124   26.0154 N   0  0  0  0  0  0  0  0  0  0  0  0
    9.8943  -17.0859   26.7823 C   0  0  1  0  0  0  0  0  0  0  0  0
   11.1784  -17.6353   26.2581 C   0  0  0  0  0  0  0  0  0  0  0  0
   10.9396  -18.4326   25.0418 C   0  0  0  0  0  0  0  0  0  0  0  0
    9.8462  -19.0951   24.5629 C   0  0  0  0  0  0  0  0  0  0  0  0
   10.1311  -19.6254   23.3550 N   0  0  0  0  0  0  0  0  0  0  0  0
   11.3945  -19.3092   23.0533 C   0  0  0  0  0  0  0  0  0  0  0  0
   11.8821  -18.5964   24.0574 N   0  0  0  0  0  0  0  0  0  0  0  0
   10.2134  -16.5016   28.1431 C   0  0  0  0  0  0  0  0  0  0  0  0
   10.1484  -15.1794   28.4662 O   0  0  0  0  0  0  0  0  0  0  0  0
   10.5667  -17.3365   29.0420 O   0  0  0  0  0  0  0  0  0  0  0  0
  2  1  1  6
  3  2  1  0
  3  4  1  0
  5  6  2  0
  5  2  1  0
  8  7  1  6
  8 10  1  0
  9  8  1  0
 11 10  1  1
 11 13  1  0
 11 12  1  0
 12  5  1  0
 13 14  2  0
 15 13  1  0
 15 16  1  0
 16 17  1  6
 17 18  1  0
 18 22  1  0
 19 18  2  0
 19 20  1  0
 20 21  1  0
 22 21  2  0
 23 16  1  0
 24 23  1  0
 25 23  2  0
M  END
$$$$
