WYE.pdb
     RDKit          3D

 36 38  0  0  1  0  0  0  0  0999 V2000
    8.3371  -18.9471   21.0028 N   0  0  0  0  0  0  0  0  0  0  0  0
    8.5800  -17.5914   20.6522 C   0  0  1  0  0  0  0  0  0  0  0  0
    7.4040  -16.8663   20.0445 C   0  0  0  0  0  0  0  0  0  0  0  0
    7.7087  -15.5089   19.5761 C   0  0  0  0  0  0  0  0  0  0  0  0
    8.1708  -15.2236   18.2924 C   0  0  0  0  0  0  0  0  0  0  0  0
    8.3109  -13.9095   18.2242 N   0  0  0  0  0  0  0  0  0  0  0  0
    7.9669  -13.3186   19.3913 C   0  0  0  0  0  0  0  0  0  0  0  0
    7.9403  -12.0093   19.8298 C   0  0  0  0  0  0  0  0  0  0  0  0
    7.5302  -11.7418   21.1262 C   0  0  0  0  0  0  0  0  0  0  0  0
    7.1479  -12.7241   21.9973 C   0  0  0  0  0  0  0  0  0  0  0  0
    7.1761  -14.0394   21.5518 C   0  0  0  0  0  0  0  0  0  0  0  0
    7.5815  -14.3397   20.2579 C   0  0  0  0  0  0  0  0  0  0  0  0
    9.0496  -16.7574   21.8064 C   0  0  0  0  0  0  0  0  0  0  0  0
    9.6844  -15.7049   21.5420 O   0  0  0  0  0  0  0  0  0  0  0  0
   10.4013  -14.0412   30.1603 O   0  0  0  0  0  0  0  0  0  0  0  0
    9.9044  -14.5891   28.9809 C   0  0  0  0  0  0  0  0  0  0  0  0
    9.9328  -15.9370   28.7567 C   0  0  0  0  0  0  0  0  0  0  0  0
    9.4234  -16.4516   27.5575 C   0  0  0  0  0  0  0  0  0  0  0  0
    8.8928  -15.6281   26.5954 C   0  0  0  0  0  0  0  0  0  0  0  0
    8.3599  -16.1714   25.3602 C   0  0  0  0  0  0  0  0  0  0  0  0
    9.3942  -16.3253   24.2626 C   0  0  2  0  0  0  0  0  0  0  0  0
    8.8124  -17.1010   23.1498 N   0  0  0  0  0  0  0  0  0  0  0  0
   10.6581  -16.9290   24.7061 C   0  0  0  0  0  0  0  0  0  0  0  0
   11.3886  -16.2958   25.5211 O   0  0  0  0  0  0  0  0  0  0  0  0
    8.8772  -14.2782   26.8469 C   0  0  0  0  0  0  0  0  0  0  0  0
    9.3794  -13.7478   28.0348 C   0  0  0  0  0  0  0  0  0  0  0  0
   11.1110  -18.1923   24.2722 N   0  0  0  0  0  0  0  0  0  0  0  0
   12.4566  -18.6945   24.6236 C   0  0  1  0  0  0  0  0  0  0  0  0
   12.2092  -19.8492   25.5191 C   0  0  0  0  0  0  0  0  0  0  0  0
   11.2409  -19.7528   26.6175 C   0  0  0  0  0  0  0  0  0  0  0  0
   10.9936  -20.9152   27.4522 C   0  0  0  0  0  0  0  0  0  0  0  0
    9.8648  -21.4353   27.5418 O   0  0  0  0  0  0  0  0  0  0  0  0
   13.1885  -18.9274   23.4004 C   0  0  0  0  0  0  0  0  0  0  0  0
   14.3210  -18.1688   23.0947 O   0  0  0  0  0  0  0  0  0  0  0  0
   12.0637  -21.4554   28.1703 O   0  0  0  0  0  0  0  0  0  0  0  0
   12.8764  -19.7985   22.5434 O   0  0  0  0  0  0  0  0  0  0  0  0
  2  3  1  0
  2  1  1  1
  4  3  1  0
  5  4  2  0
  6  5  1  0
  7 12  2  0
  7  6  1  0
  8  7  1  0
  9  8  2  0
  9 10  1  0
 10 11  2  0
 11 12  1  0
 12  4  1  0
 13  2  1  0
 14 13  2  0
 15 16  1  0
 16 17  2  0
 16 26  1  0
 17 18  1  0
 18 19  2  0
 19 20  1  0
 21 20  1  1
 21 22  1  0
 22 13  1  0
 23 21  1  0
 23 27  1  0
 24 23  2  0
 25 19  1  0
 26 25  2  0
 28 27  1  0
 28 33  1  0
 28 29  1  6
 29 30  1  0
 31 30  1  0
 32 31  2  0
 33 34  1  0
 35 31  1  0
 36 33  2  0
M  END
$$$$
