WYE.pdb
     RDKit          3D

 36 38  0  0  1  0  0  0  0  0999 V2000
    6.1758  -17.2748   25.6928 N   0  0  0  0  0  0  0  0  0  0  0  0
    6.9177  -16.6471   24.6558 C   0  0  1  0  0  0  0  0  0  0  0  0
    8.1192  -15.8575   25.1154 C   0  0  0  0  0  0  0  0  0  0  0  0
    7.8341  -14.8920   26.1837 C   0  0  0  0  0  0  0  0  0  0  0  0
    6.5475  -14.4738   26.5194 C   0  0  0  0  0  0  0  0  0  0  0  0
    6.6759  -13.6301   27.5307 N   0  0  0  0  0  0  0  0  0  0  0  0
    7.9742  -13.4723   27.8757 C   0  0  0  0  0  0  0  0  0  0  0  0
    8.6254  -12.7205   28.8340 C   0  0  0  0  0  0  0  0  0  0  0  0
   10.0072  -12.7857   28.9162 C   0  0  0  0  0  0  0  0  0  0  0  0
   10.7604  -13.5671   28.0844 C   0  0  0  0  0  0  0  0  0  0  0  0
   10.1011  -14.3216   27.1225 C   0  0  0  0  0  0  0  0  0  0  0  0
    8.7172  -14.2784   27.0153 C   0  0  0  0  0  0  0  0  0  0  0  0
    7.4077  -17.6082   23.6144 C   0  0  0  0  0  0  0  0  0  0  0  0
    8.3742  -18.3521   23.9197 O   0  0  0  0  0  0  0  0  0  0  0  0
    8.6839  -11.9222   17.4005 O   0  0  0  0  0  0  0  0  0  0  0  0
    8.2737  -12.8018   18.3986 C   0  0  0  0  0  0  0  0  0  0  0  0
    7.7351  -14.0205   18.0940 C   0  0  0  0  0  0  0  0  0  0  0  0
    7.3337  -14.8788   19.1258 C   0  0  0  0  0  0  0  0  0  0  0  0
    7.4694  -14.5222   20.4448 C   0  0  0  0  0  0  0  0  0  0  0  0
    7.0585  -15.4217   21.5064 C   0  0  0  0  0  0  0  0  0  0  0  0
    7.3191  -16.8843   21.2048 C   0  0  2  0  0  0  0  0  0  0  0  0
    6.8387  -17.7076   22.3317 N   0  0  0  0  0  0  0  0  0  0  0  0
    8.7223  -17.1960   20.9004 C   0  0  0  0  0  0  0  0  0  0  0  0
    8.9812  -18.0564   20.0108 O   0  0  0  0  0  0  0  0  0  0  0  0
    8.0132  -13.2921   20.7219 C   0  0  0  0  0  0  0  0  0  0  0  0
    8.4188  -12.4245   19.7083 C   0  0  0  0  0  0  0  0  0  0  0  0
    9.8137  -16.5821   21.5494 N   0  0  0  0  0  0  0  0  0  0  0  0
   11.2089  -16.9748   21.2561 C   0  0  1  0  0  0  0  0  0  0  0  0
   11.7092  -15.9337   20.3276 C   0  0  0  0  0  0  0  0  0  0  0  0
   13.1382  -15.8372   20.0083 C   0  0  0  0  0  0  0  0  0  0  0  0
   13.5883  -14.8402   19.0532 C   0  0  0  0  0  0  0  0  0  0  0  0
   13.0353  -13.7282   18.9499 O   0  0  0  0  0  0  0  0  0  0  0  0
   11.9025  -17.1578   22.5097 C   0  0  0  0  0  0  0  0  0  0  0  0
   11.5663  -16.3890   23.6265 O   0  0  0  0  0  0  0  0  0  0  0  0
   14.6754  -15.1516   18.2323 O   0  0  0  0  0  0  0  0  0  0  0  0
   12.8310  -17.9922   22.6899 O   0  0  0  0  0  0  0  0  0  0  0  0
  2  3  1  0
  2  1  1  1
  4  3  1  0
  5  4  2  0
  6  5  1  0
  7 12  2  0
  7  6  1  0
  8  7  1  0
  9  8  2  0
  9 10  1  0
 10 11  2  0
 11 12  1  0
 12  4  1  0
 13  2  1  0
 14 13  2  0
 15 16  1  0
 16 17  2  0
 16 26  1  0
 17 18  1  0
 18 19  2  0
 19 20  1  0
 21 20  1  1
 21 22  1  0
 22 13  1  0
 23 21  1  0
 23 27  1  0
 24 23  2  0
 25 19  1  0
 26 25  2  0
 28 27  1  0
 28 33  1  0
 28 29  1  6
 29 30  1  0
 31 30  1  0
 32 31  2  0
 33 34  1  0
 35 31  1  0
 36 33  2  0
M  END
$$$$
