WYE.pdb
     RDKit          3D

 36 38  0  0  1  0  0  0  0  0999 V2000
    7.2033  -19.2757   25.9094 N   0  0  0  0  0  0  0  0  0  0  0  0
    7.0327  -17.8820   25.6891 C   0  0  1  0  0  0  0  0  0  0  0  0
    7.6012  -16.9890   26.7650 C   0  0  0  0  0  0  0  0  0  0  0  0
    7.0811  -15.6164   26.7470 C   0  0  0  0  0  0  0  0  0  0  0  0
    5.7309  -15.3074   26.5915 C   0  0  0  0  0  0  0  0  0  0  0  0
    5.6358  -13.9888   26.6480 N   0  0  0  0  0  0  0  0  0  0  0  0
    6.8479  -13.4172   26.8314 C   0  0  0  0  0  0  0  0  0  0  0  0
    7.2827  -12.1116   26.9488 C   0  0  0  0  0  0  0  0  0  0  0  0
    8.6348  -11.8658   27.1266 C   0  0  0  0  0  0  0  0  0  0  0  0
    9.5650  -12.8660   27.1914 C   0  0  0  0  0  0  0  0  0  0  0  0
    9.1230  -14.1775   27.0731 C   0  0  0  0  0  0  0  0  0  0  0  0
    7.7743  -14.4565   26.8948 C   0  0  0  0  0  0  0  0  0  0  0  0
    7.6151  -17.4134   24.3893 C   0  0  0  0  0  0  0  0  0  0  0  0
    8.6056  -18.0419   23.9367 O   0  0  0  0  0  0  0  0  0  0  0  0
    9.1619  -12.4877   17.1741 O   0  0  0  0  0  0  0  0  0  0  0  0
    8.5845  -13.0428   18.3128 C   0  0  0  0  0  0  0  0  0  0  0  0
    7.2906  -13.4829   18.3106 C   0  0  0  0  0  0  0  0  0  0  0  0
    6.7441  -14.0358   19.4759 C   0  0  0  0  0  0  0  0  0  0  0  0
    7.4827  -14.1467   20.6281 C   0  0  0  0  0  0  0  0  0  0  0  0
    6.9103  -14.7286   21.8277 C   0  0  0  0  0  0  0  0  0  0  0  0
    7.7539  -15.8318   22.4354 C   0  0  2  0  0  0  0  0  0  0  0  0
    7.1061  -16.3170   23.6698 N   0  0  0  0  0  0  0  0  0  0  0  0
    9.1470  -15.4481   22.7013 C   0  0  0  0  0  0  0  0  0  0  0  0
    9.3798  -14.4897   23.4924 O   0  0  0  0  0  0  0  0  0  0  0  0
    8.7797  -13.6964   20.6021 C   0  0  0  0  0  0  0  0  0  0  0  0
    9.3409  -13.1434   19.4514 C   0  0  0  0  0  0  0  0  0  0  0  0
   10.2566  -16.0959   22.1196 N   0  0  0  0  0  0  0  0  0  0  0  0
   11.6432  -15.7099   22.4585 C   0  0  1  0  0  0  0  0  0  0  0  0
   12.1226  -16.7766   23.3689 C   0  0  0  0  0  0  0  0  0  0  0  0
   12.2104  -18.1686   22.9131 C   0  0  0  0  0  0  0  0  0  0  0  0
   12.7385  -19.1798   23.8118 C   0  0  0  0  0  0  0  0  0  0  0  0
   13.3239  -18.8810   24.8706 O   0  0  0  0  0  0  0  0  0  0  0  0
   12.3674  -15.4899   21.2284 C   0  0  0  0  0  0  0  0  0  0  0  0
   11.7915  -15.8134   19.9974 O   0  0  0  0  0  0  0  0  0  0  0  0
   12.5775  -20.5239   23.4653 O   0  0  0  0  0  0  0  0  0  0  0  0
   13.5315  -15.0083   21.1684 O   0  0  0  0  0  0  0  0  0  0  0  0
  2  3  1  0
  2  1  1  1
  4  3  1  0
  5  4  2  0
  6  5  1  0
  7 12  2  0
  7  6  1  0
  8  7  1  0
  9  8  2  0
  9 10  1  0
 10 11  2  0
 11 12  1  0
 12  4  1  0
 13  2  1  0
 14 13  2  0
 15 16  1  0
 16 17  2  0
 16 26  1  0
 17 18  1  0
 18 19  2  0
 19 20  1  0
 21 20  1  1
 21 22  1  0
 22 13  1  0
 23 21  1  0
 23 27  1  0
 24 23  2  0
 25 19  1  0
 26 25  2  0
 28 27  1  0
 28 33  1  0
 28 29  1  6
 29 30  1  0
 31 30  1  0
 32 31  2  0
 33 34  1  0
 35 31  1  0
 36 33  2  0
M  END
$$$$
