WYE.pdb
     RDKit          3D

 36 38  0  0  1  0  0  0  0  0999 V2000
    7.3554  -15.1739   20.7847 N   0  0  0  0  0  0  0  0  0  0  0  0
    8.7485  -14.8982   20.7306 C   0  0  1  0  0  0  0  0  0  0  0  0
    9.1227  -13.6286   20.0051 C   0  0  0  0  0  0  0  0  0  0  0  0
    8.4204  -13.4324   18.7311 C   0  0  0  0  0  0  0  0  0  0  0  0
    7.4501  -12.4521   18.5306 C   0  0  0  0  0  0  0  0  0  0  0  0
    7.0606  -12.5575   17.2704 N   0  0  0  0  0  0  0  0  0  0  0  0
    7.7212  -13.5521   16.6347 C   0  0  0  0  0  0  0  0  0  0  0  0
    7.6812  -14.0600   15.3510 C   0  0  0  0  0  0  0  0  0  0  0  0
    8.5101  -15.1201   15.0204 C   0  0  0  0  0  0  0  0  0  0  0  0
    9.3725  -15.6902   15.9155 C   0  0  0  0  0  0  0  0  0  0  0  0
    9.4094  -15.1759   17.2053 C   0  0  0  0  0  0  0  0  0  0  0  0
    8.5916  -14.1135   17.5672 C   0  0  0  0  0  0  0  0  0  0  0  0
    9.3895  -14.8247   22.0841 C   0  0  0  0  0  0  0  0  0  0  0  0
   10.6098  -14.5260   22.1332 O   0  0  0  0  0  0  0  0  0  0  0  0
   10.7398  -15.4439   30.8136 O   0  0  0  0  0  0  0  0  0  0  0  0
   10.1945  -15.2448   29.5481 C   0  0  0  0  0  0  0  0  0  0  0  0
   10.3039  -14.0417   28.9090 C   0  0  0  0  0  0  0  0  0  0  0  0
    9.7422  -13.8790   27.6360 C   0  0  0  0  0  0  0  0  0  0  0  0
    9.0797  -14.9067   27.0112 C   0  0  0  0  0  0  0  0  0  0  0  0
    8.5087  -14.7310   25.6890 C   0  0  0  0  0  0  0  0  0  0  0  0
    9.3937  -15.2382   24.5676 C   0  0  2  0  0  0  0  0  0  0  0  0
    8.6914  -15.0735   23.2798 N   0  0  0  0  0  0  0  0  0  0  0  0
    9.8429  -16.6269   24.7355 C   0  0  0  0  0  0  0  0  0  0  0  0
    9.1149  -17.5648   24.3005 O   0  0  0  0  0  0  0  0  0  0  0  0
    8.9846  -16.1042   27.6764 C   0  0  0  0  0  0  0  0  0  0  0  0
    9.5377  -16.2849   28.9438 C   0  0  0  0  0  0  0  0  0  0  0  0
   11.0565  -16.9816   25.3606 N   0  0  0  0  0  0  0  0  0  0  0  0
   11.5174  -18.3855   25.4152 C   0  0  1  0  0  0  0  0  0  0  0  0
   11.7148  -18.7759   23.9993 C   0  0  0  0  0  0  0  0  0  0  0  0
   13.0133  -18.5858   23.3427 C   0  0  0  0  0  0  0  0  0  0  0  0
   13.0566  -18.3111   21.9173 C   0  0  0  0  0  0  0  0  0  0  0  0
   12.0237  -18.2706   21.2213 O   0  0  0  0  0  0  0  0  0  0  0  0
   12.6530  -18.4568   26.3048 C   0  0  0  0  0  0  0  0  0  0  0  0
   13.1158  -17.3125   26.9591 O   0  0  0  0  0  0  0  0  0  0  0  0
   14.3012  -18.0873   21.3228 O   0  0  0  0  0  0  0  0  0  0  0  0
   13.2936  -19.5147   26.5520 O   0  0  0  0  0  0  0  0  0  0  0  0
  2  3  1  0
  2  1  1  1
  4  3  1  0
  5  4  2  0
  6  5  1  0
  7 12  2  0
  7  6  1  0
  8  7  1  0
  9  8  2  0
  9 10  1  0
 10 11  2  0
 11 12  1  0
 12  4  1  0
 13  2  1  0
 14 13  2  0
 15 16  1  0
 16 17  2  0
 16 26  1  0
 17 18  1  0
 18 19  2  0
 19 20  1  0
 21 20  1  1
 21 22  1  0
 22 13  1  0
 23 21  1  0
 23 27  1  0
 24 23  2  0
 25 19  1  0
 26 25  2  0
 28 27  1  0
 28 33  1  0
 28 29  1  6
 29 30  1  0
 31 30  1  0
 32 31  2  0
 33 34  1  0
 35 31  1  0
 36 33  2  0
M  END
$$$$
