WYE.pdb
     RDKit          3D

 36 38  0  0  1  0  0  0  0  0999 V2000
   11.7381  -16.4172   19.9498 N   0  0  0  0  0  0  0  0  0  0  0  0
   10.6889  -16.0746   20.8452 C   0  0  1  0  0  0  0  0  0  0  0  0
    9.3453  -16.6802   20.5194 C   0  0  0  0  0  0  0  0  0  0  0  0
    8.4181  -15.7638   19.8447 C   0  0  0  0  0  0  0  0  0  0  0  0
    7.8427  -16.0281   18.6030 C   0  0  0  0  0  0  0  0  0  0  0  0
    7.0541  -15.0023   18.3255 N   0  0  0  0  0  0  0  0  0  0  0  0
    7.0813  -14.0812   19.3157 C   0  0  0  0  0  0  0  0  0  0  0  0
    6.4605  -12.8623   19.5065 C   0  0  0  0  0  0  0  0  0  0  0  0
    6.7216  -12.1479   20.6648 C   0  0  0  0  0  0  0  0  0  0  0  0
    7.5732  -12.5994   21.6348 C   0  0  0  0  0  0  0  0  0  0  0  0
    8.1951  -13.8258   21.4386 C   0  0  0  0  0  0  0  0  0  0  0  0
    7.9535  -14.5659   20.2886 C   0  0  0  0  0  0  0  0  0  0  0  0
   10.9876  -16.4325   22.2703 C   0  0  0  0  0  0  0  0  0  0  0  0
   12.0737  -17.0204   22.5059 O   0  0  0  0  0  0  0  0  0  0  0  0
   10.7699  -14.8939   31.0155 O   0  0  0  0  0  0  0  0  0  0  0  0
   10.4820  -14.9486   29.6545 C   0  0  0  0  0  0  0  0  0  0  0  0
   10.8777  -13.9545   28.8042 C   0  0  0  0  0  0  0  0  0  0  0  0
   10.5695  -14.0444   27.4407 C   0  0  0  0  0  0  0  0  0  0  0  0
    9.8743  -15.1150   26.9349 C   0  0  0  0  0  0  0  0  0  0  0  0
    9.5672  -15.2033   25.5196 C   0  0  0  0  0  0  0  0  0  0  0  0
   10.6096  -15.9515   24.7125 C   0  0  2  0  0  0  0  0  0  0  0  0
   10.1151  -16.1421   23.3349 N   0  0  0  0  0  0  0  0  0  0  0  0
   11.0155  -17.2371   25.2967 C   0  0  0  0  0  0  0  0  0  0  0  0
   11.7446  -17.2394   26.3297 O   0  0  0  0  0  0  0  0  0  0  0  0
    9.4889  -16.0991   27.8117 C   0  0  0  0  0  0  0  0  0  0  0  0
    9.7869  -16.0269   29.1720 C   0  0  0  0  0  0  0  0  0  0  0  0
   10.6330  -18.4872   24.7673 N   0  0  0  0  0  0  0  0  0  0  0  0
   11.0832  -19.7565   25.3778 C   0  0  1  0  0  0  0  0  0  0  0  0
   12.4718  -19.9393   24.8936 C   0  0  0  0  0  0  0  0  0  0  0  0
   13.6090  -19.4220   25.6634 C   0  0  0  0  0  0  0  0  0  0  0  0
   14.9521  -19.5606   25.1289 C   0  0  0  0  0  0  0  0  0  0  0  0
   15.4259  -18.7448   24.3147 O   0  0  0  0  0  0  0  0  0  0  0  0
   10.8651  -19.6776   26.8034 C   0  0  0  0  0  0  0  0  0  0  0  0
   11.3815  -20.6560   27.6563 O   0  0  0  0  0  0  0  0  0  0  0  0
   15.7244  -20.6465   25.5497 O   0  0  0  0  0  0  0  0  0  0  0  0
   10.2161  -18.7568   27.3706 O   0  0  0  0  0  0  0  0  0  0  0  0
  2  3  1  0
  2  1  1  6
  4  3  1  0
  5  4  2  0
  6  5  1  0
  7 12  2  0
  7  6  1  0
  8  7  1  0
  9  8  2  0
  9 10  1  0
 10 11  2  0
 11 12  1  0
 12  4  1  0
 13  2  1  0
 14 13  2  0
 15 16  1  0
 16 17  2  0
 16 26  1  0
 17 18  1  0
 18 19  2  0
 19 20  1  0
 21 20  1  1
 21 22  1  0
 22 13  1  0
 23 21  1  0
 23 27  1  0
 24 23  2  0
 25 19  1  0
 26 25  2  0
 28 27  1  0
 28 33  1  0
 28 29  1  1
 29 30  1  0
 31 30  1  0
 32 31  2  0
 33 34  1  0
 35 31  1  0
 36 33  2  0
M  END
$$$$
