WYE.pdb
     RDKit          3D

 36 38  0  0  1  0  0  0  0  0999 V2000
    8.8816  -18.0092   23.7889 N   0  0  0  0  0  0  0  0  0  0  0  0
    8.6522  -17.8021   22.4017 C   0  0  1  0  0  0  0  0  0  0  0  0
    7.2935  -17.2448   22.0532 C   0  0  0  0  0  0  0  0  0  0  0  0
    6.9478  -16.0084   22.7649 C   0  0  0  0  0  0  0  0  0  0  0  0
    6.3729  -15.9866   24.0344 C   0  0  0  0  0  0  0  0  0  0  0  0
    6.2268  -14.7127   24.3616 N   0  0  0  0  0  0  0  0  0  0  0  0
    6.6734  -13.8995   23.3774 C   0  0  0  0  0  0  0  0  0  0  0  0
    6.7385  -12.5284   23.2245 C   0  0  0  0  0  0  0  0  0  0  0  0
    7.2625  -12.0059   22.0528 C   0  0  0  0  0  0  0  0  0  0  0  0
    7.7213  -12.7935   21.0334 C   0  0  0  0  0  0  0  0  0  0  0  0
    7.6540  -14.1718   21.1918 C   0  0  0  0  0  0  0  0  0  0  0  0
    7.1349  -14.7259   22.3546 C   0  0  0  0  0  0  0  0  0  0  0  0
    9.6642  -16.8981   21.7638 C   0  0  0  0  0  0  0  0  0  0  0  0
   10.1992  -17.2882   20.6950 O   0  0  0  0  0  0  0  0  0  0  0  0
   10.7623  -14.6682   30.0136 O   0  0  0  0  0  0  0  0  0  0  0  0
   10.4649  -15.0094   28.6970 C   0  0  0  0  0  0  0  0  0  0  0  0
   10.6737  -16.2757   28.2270 C   0  0  0  0  0  0  0  0  0  0  0  0
   10.3624  -16.5815   26.8958 C   0  0  0  0  0  0  0  0  0  0  0  0
    9.8490  -15.6326   26.0464 C   0  0  0  0  0  0  0  0  0  0  0  0
    9.5218  -15.9613   24.6717 C   0  0  0  0  0  0  0  0  0  0  0  0
   10.5778  -15.5331   23.6719 C   0  0  2  0  0  0  0  0  0  0  0  0
   10.0326  -15.6532   22.3055 N   0  0  0  0  0  0  0  0  0  0  0  0
   11.8473  -16.2639   23.7861 C   0  0  0  0  0  0  0  0  0  0  0  0
   12.8234  -15.7118   24.3701 O   0  0  0  0  0  0  0  0  0  0  0  0
    9.6498  -14.3688   26.5451 C   0  0  0  0  0  0  0  0  0  0  0  0
    9.9535  -14.0459   27.8673 C   0  0  0  0  0  0  0  0  0  0  0  0
   12.0444  -17.5646   23.2775 N   0  0  0  0  0  0  0  0  0  0  0  0
   12.9773  -18.5141   23.9213 C   0  0  1  0  0  0  0  0  0  0  0  0
   12.4402  -18.7056   25.2893 C   0  0  0  0  0  0  0  0  0  0  0  0
   13.0472  -19.6792   26.2041 C   0  0  0  0  0  0  0  0  0  0  0  0
   12.4656  -19.8780   27.5199 C   0  0  0  0  0  0  0  0  0  0  0  0
   11.4219  -19.2971   27.8748 O   0  0  0  0  0  0  0  0  0  0  0  0
   13.1024  -19.6752   23.0714 C   0  0  0  0  0  0  0  0  0  0  0  0
   14.3006  -20.3916   23.0193 O   0  0  0  0  0  0  0  0  0  0  0  0
   13.1072  -20.7500   28.4034 O   0  0  0  0  0  0  0  0  0  0  0  0
   12.1780  -20.1177   22.3365 O   0  0  0  0  0  0  0  0  0  0  0  0
  2  3  1  0
  2  1  1  1
  4  3  1  0
  5  4  2  0
  6  5  1  0
  7 12  2  0
  7  6  1  0
  8  7  1  0
  9  8  2  0
  9 10  1  0
 10 11  2  0
 11 12  1  0
 12  4  1  0
 13  2  1  0
 14 13  2  0
 15 16  1  0
 16 17  2  0
 16 26  1  0
 17 18  1  0
 18 19  2  0
 19 20  1  0
 21 20  1  1
 21 22  1  0
 22 13  1  0
 23 21  1  0
 23 27  1  0
 24 23  2  0
 25 19  1  0
 26 25  2  0
 28 27  1  0
 28 33  1  0
 28 29  1  1
 29 30  1  0
 31 30  1  0
 32 31  2  0
 33 34  1  0
 35 31  1  0
 36 33  2  0
M  END
$$$$
