WYE.pdb
     RDKit          3D

 36 38  0  0  1  0  0  0  0  0999 V2000
    7.6423  -19.3243   26.5296 N   0  0  0  0  0  0  0  0  0  0  0  0
    8.1414  -18.0236   26.2491 C   0  0  1  0  0  0  0  0  0  0  0  0
    9.5897  -17.8013   26.6112 C   0  0  0  0  0  0  0  0  0  0  0  0
    9.7920  -17.0312   27.8444 C   0  0  0  0  0  0  0  0  0  0  0  0
   10.1231  -17.6111   29.0679 C   0  0  0  0  0  0  0  0  0  0  0  0
   10.2465  -16.6195   29.9354 N   0  0  0  0  0  0  0  0  0  0  0  0
   10.0143  -15.4231   29.3487 C   0  0  0  0  0  0  0  0  0  0  0  0
   10.0105  -14.1189   29.8030 C   0  0  0  0  0  0  0  0  0  0  0  0
    9.7153  -13.0974   28.9143 C   0  0  0  0  0  0  0  0  0  0  0  0
    9.4252  -13.3250   27.5975 C   0  0  0  0  0  0  0  0  0  0  0  0
    9.4304  -14.6382   27.1451 C   0  0  0  0  0  0  0  0  0  0  0  0
    9.7230  -15.6838   28.0109 C   0  0  0  0  0  0  0  0  0  0  0  0
    7.9931  -17.6313   24.8095 C   0  0  0  0  0  0  0  0  0  0  0  0
    7.9028  -18.5557   23.9621 O   0  0  0  0  0  0  0  0  0  0  0  0
    7.4229  -12.8389   17.3784 O   0  0  0  0  0  0  0  0  0  0  0  0
    7.4260  -13.2508   18.7082 C   0  0  0  0  0  0  0  0  0  0  0  0
    8.0283  -12.5041   19.6816 C   0  0  0  0  0  0  0  0  0  0  0  0
    8.0111  -12.9512   21.0091 C   0  0  0  0  0  0  0  0  0  0  0  0
    7.3992  -14.1300   21.3577 C   0  0  0  0  0  0  0  0  0  0  0  0
    7.3793  -14.5804   22.7367 C   0  0  0  0  0  0  0  0  0  0  0  0
    8.0204  -15.9380   22.9467 C   0  0  2  0  0  0  0  0  0  0  0  0
    7.9526  -16.2931   24.3777 N   0  0  0  0  0  0  0  0  0  0  0  0
    9.4022  -16.0340   22.4569 C   0  0  0  0  0  0  0  0  0  0  0  0
    9.6160  -16.0007   21.2111 O   0  0  0  0  0  0  0  0  0  0  0  0
    6.8023  -14.8601   20.3596 C   0  0  0  0  0  0  0  0  0  0  0  0
    6.8091  -14.4309   19.0328 C   0  0  0  0  0  0  0  0  0  0  0  0
   10.5212  -16.1610   23.3060 N   0  0  0  0  0  0  0  0  0  0  0  0
   11.9017  -16.1258   22.7773 C   0  0  1  0  0  0  0  0  0  0  0  0
   12.7427  -16.6572   23.8757 C   0  0  0  0  0  0  0  0  0  0  0  0
   14.1698  -16.9263   23.6651 C   0  0  0  0  0  0  0  0  0  0  0  0
   14.9525  -17.5012   24.7448 C   0  0  0  0  0  0  0  0  0  0  0  0
   15.0758  -16.9318   25.8465 O   0  0  0  0  0  0  0  0  0  0  0  0
   11.9209  -16.8186   21.5101 C   0  0  0  0  0  0  0  0  0  0  0  0
   11.3499  -18.0873   21.3854 O   0  0  0  0  0  0  0  0  0  0  0  0
   15.5803  -18.7304   24.5269 O   0  0  0  0  0  0  0  0  0  0  0  0
   12.4349  -16.3534   20.4565 O   0  0  0  0  0  0  0  0  0  0  0  0
  2  3  1  0
  2  1  1  6
  4  3  1  0
  5  4  2  0
  6  5  1  0
  7 12  2  0
  7  6  1  0
  8  7  1  0
  9  8  2  0
  9 10  1  0
 10 11  2  0
 11 12  1  0
 12  4  1  0
 13  2  1  0
 14 13  2  0
 15 16  1  0
 16 17  2  0
 16 26  1  0
 17 18  1  0
 18 19  2  0
 19 20  1  0
 21 20  1  1
 21 22  1  0
 22 13  1  0
 23 21  1  0
 23 27  1  0
 24 23  2  0
 25 19  1  0
 26 25  2  0
 28 27  1  0
 28 33  1  0
 28 29  1  1
 29 30  1  0
 31 30  1  0
 32 31  2  0
 33 34  1  0
 35 31  1  0
 36 33  2  0
M  END
$$$$
