WYE.pdb
     RDKit          3D

 36 38  0  0  1  0  0  0  0  0999 V2000
    6.0729  -18.3744   23.4737 N   0  0  0  0  0  0  0  0  0  0  0  0
    6.7705  -17.1639   23.7340 C   0  0  1  0  0  0  0  0  0  0  0  0
    7.0897  -16.9080   25.1868 C   0  0  0  0  0  0  0  0  0  0  0  0
    6.6658  -15.5900   25.6747 C   0  0  0  0  0  0  0  0  0  0  0  0
    5.3363  -15.2525   25.9224 C   0  0  0  0  0  0  0  0  0  0  0  0
    5.3392  -14.0066   26.3684 N   0  0  0  0  0  0  0  0  0  0  0  0
    6.5958  -13.5095   26.4261 C   0  0  0  0  0  0  0  0  0  0  0  0
    7.1272  -12.2924   26.8052 C   0  0  0  0  0  0  0  0  0  0  0  0
    8.4984  -12.1051   26.7342 C   0  0  0  0  0  0  0  0  0  0  0  0
    9.3554  -13.0791   26.3022 C   0  0  0  0  0  0  0  0  0  0  0  0
    8.8164  -14.3016   25.9222 C   0  0  0  0  0  0  0  0  0  0  0  0
    7.4464  -14.5205   25.9826 C   0  0  0  0  0  0  0  0  0  0  0  0
    8.0642  -17.0541   22.9838 C   0  0  0  0  0  0  0  0  0  0  0  0
    8.6519  -18.1234   22.6804 O   0  0  0  0  0  0  0  0  0  0  0  0
    6.5325  -13.3808   17.0354 O   0  0  0  0  0  0  0  0  0  0  0  0
    7.4129  -13.6506   18.0796 C   0  0  0  0  0  0  0  0  0  0  0  0
    7.9919  -14.8805   18.2206 C   0  0  0  0  0  0  0  0  0  0  0  0
    8.8729  -15.1145   19.2843 C   0  0  0  0  0  0  0  0  0  0  0  0
    9.1703  -14.1307   20.1948 C   0  0  0  0  0  0  0  0  0  0  0  0
   10.0907  -14.3804   21.2883 C   0  0  0  0  0  0  0  0  0  0  0  0
    9.9359  -15.7506   21.9181 C   0  0  2  0  0  0  0  0  0  0  0  0
    8.6361  -15.8233   22.6137 N   0  0  0  0  0  0  0  0  0  0  0  0
   11.0284  -16.1228   22.8272 C   0  0  0  0  0  0  0  0  0  0  0  0
   12.2180  -16.0999   22.3995 O   0  0  0  0  0  0  0  0  0  0  0  0
    8.5741  -12.9049   20.0293 C   0  0  0  0  0  0  0  0  0  0  0  0
    7.6949  -12.6533   18.9766 C   0  0  0  0  0  0  0  0  0  0  0  0
   10.8265  -16.5079   24.1689 N   0  0  0  0  0  0  0  0  0  0  0  0
   11.9623  -16.8063   25.0676 C   0  0  1  0  0  0  0  0  0  0  0  0
   11.3826  -16.7876   26.4314 C   0  0  0  0  0  0  0  0  0  0  0  0
   11.8004  -17.7703   27.4378 C   0  0  0  0  0  0  0  0  0  0  0  0
   11.1968  -17.7374   28.7582 C   0  0  0  0  0  0  0  0  0  0  0  0
   11.4298  -16.8191   29.5678 O   0  0  0  0  0  0  0  0  0  0  0  0
   12.5933  -18.0236   24.6138 C   0  0  0  0  0  0  0  0  0  0  0  0
   13.9101  -18.3186   24.9750 O   0  0  0  0  0  0  0  0  0  0  0  0
   10.3306  -18.7735   29.1172 O   0  0  0  0  0  0  0  0  0  0  0  0
   12.0297  -18.8836   23.8833 O   0  0  0  0  0  0  0  0  0  0  0  0
  2  3  1  0
  2  1  1  1
  4  3  1  0
  5  4  2  0
  6  5  1  0
  7 12  2  0
  7  6  1  0
  8  7  1  0
  9  8  2  0
  9 10  1  0
 10 11  2  0
 11 12  1  0
 12  4  1  0
 13  2  1  0
 14 13  2  0
 15 16  1  0
 16 17  2  0
 16 26  1  0
 17 18  1  0
 18 19  2  0
 19 20  1  0
 21 20  1  1
 21 22  1  0
 22 13  1  0
 23 21  1  0
 23 27  1  0
 24 23  2  0
 25 19  1  0
 26 25  2  0
 28 27  1  0
 28 33  1  0
 28 29  1  1
 29 30  1  0
 31 30  1  0
 32 31  2  0
 33 34  1  0
 35 31  1  0
 36 33  2  0
M  END
$$$$
