RYP.pdb
     RDKit          3D

 31 32  0  0  1  0  0  0  0  0999 V2000
   32.8175  -33.5123   -7.7416 N   0  0  0  0  0  0  0  0  0  0  0  0
   33.1137  -34.6773   -6.9655 C   0  0  0  0  0  0  0  0  0  0  0  0
   32.4057  -34.8961   -5.9103 N   0  0  0  0  0  0  0  0  0  0  0  0
   34.1629  -35.5706   -7.3487 N   0  0  0  0  0  0  0  0  0  0  0  0
   34.9978  -35.2647   -8.4941 C   0  0  0  0  0  0  0  0  0  0  0  0
   34.3348  -35.7709   -9.7831 C   0  0  0  0  0  0  0  0  0  0  0  0
   35.2999  -35.5071  -10.8921 C   0  0  0  0  0  0  0  0  0  0  0  0
   34.8121  -35.9051  -12.2492 C   0  0  2  0  0  0  0  0  0  0  0  0
   34.4681  -37.3272  -12.1828 N   0  0  0  0  0  0  0  0  0  0  0  0
   35.8162  -35.7362  -13.3219 C   0  0  0  0  0  0  0  0  0  0  0  0
   36.1700  -36.7239  -14.0099 O   0  0  0  0  0  0  0  0  0  0  0  0
   32.6528  -35.6853   -5.3026 O   0  0  0  0  0  0  0  0  0  0  0  0
   33.9244  -37.2058  -19.9250 C   0  0  0  0  0  0  0  0  0  0  0  0
   34.2120  -36.3926  -18.8222 C   0  0  0  0  0  0  0  0  0  0  0  0
   34.6319  -35.1025  -19.0046 C   0  0  0  0  0  0  0  0  0  0  0  0
   34.9147  -34.3032  -17.9165 C   0  0  0  0  0  0  0  0  0  0  0  0
   34.7838  -34.7763  -16.6285 C   0  0  0  0  0  0  0  0  0  0  0  0
   35.0851  -33.9226  -15.4859 C   0  0  2  0  0  0  0  0  0  0  0  0
   36.5088  -34.0119  -14.9675 N   0  0  0  0  0  0  0  0  0  0  0  0
   36.4064  -34.4784  -13.6093 C   0  0  0  0  0  0  0  0  0  0  0  0
   37.2929  -32.8060  -15.0843 O   0  0  0  0  0  0  0  0  0  0  0  0
   37.0041  -31.8913  -14.2167 C   0  0  0  0  0  0  0  0  0  0  0  0
   34.3595  -36.0785  -16.4637 C   0  0  0  0  0  0  0  0  0  0  0  0
   34.0718  -36.8933  -17.5380 N   0  0  0  0  0  0  0  0  0  0  0  0
   38.3146  -32.4732  -15.9925 C   0  0  0  0  0  0  0  0  0  0  0  0
   38.9159  -33.1688  -17.0958 C   0  0  0  0  0  0  0  0  0  0  0  0
   40.3778  -32.7375  -17.0553 C   0  0  0  0  0  0  0  0  0  0  0  0
   40.4538  -31.5999  -16.0906 C   0  0  1  0  0  0  0  0  0  0  0  0
   39.0271  -31.1631  -15.9895 C   0  0  0  0  0  0  0  0  0  0  0  0
   38.6614  -30.3414  -17.1426 O   0  0  0  0  0  0  0  0  0  0  0  0
   39.2718  -29.2159  -17.2527 O   0  0  0  0  0  0  0  0  0  0  0  0
  2  1  1  0
  3  2  2  0
  4  2  1  0
  5  4  1  0
  6  5  1  0
  7  6  1  0
  8 10  1  0
  8  7  1  0
  8  9  1  1
 10 11  2  0
 12 13  1  0
 13 14  2  0
 14 15  1  0
 16 15  2  0
 16 17  1  0
 18 17  1  6
 19 18  1  0
 19 10  1  0
 20 18  1  0
 21 20  2  0
 22 16  1  0
 23 13  1  0
 23 22  2  0
 24 20  1  0
 24 28  1  0
 25 26  1  0
 25 24  1  0
 26 27  1  0
 28 27  1  0
 28 29  1  6
 29 31  1  0
 30 29  2  0
M  END
$$$$
