RYP.pdb
     RDKit          3D

 31 32  0  0  1  0  0  0  0  0999 V2000
   20.1718  -19.4399  -15.4049 N   0  0  0  0  0  0  0  0  0  0  0  0
   20.5404  -20.8171  -15.2832 C   0  0  0  0  0  0  0  0  0  0  0  0
   20.1047  -21.6400  -16.1752 N   0  0  0  0  0  0  0  0  0  0  0  0
   21.3662  -21.2661  -14.2052 N   0  0  0  0  0  0  0  0  0  0  0  0
   21.7494  -20.3483  -13.1501 C   0  0  0  0  0  0  0  0  0  0  0  0
   23.2458  -20.0200  -13.2513 C   0  0  0  0  0  0  0  0  0  0  0  0
   23.9353  -20.8450  -12.2143 C   0  0  0  0  0  0  0  0  0  0  0  0
   25.4098  -20.6128  -12.1139 C   0  0  2  0  0  0  0  0  0  0  0  0
   26.0489  -21.4647  -13.1194 N   0  0  0  0  0  0  0  0  0  0  0  0
   25.9849  -20.9642  -10.7974 C   0  0  0  0  0  0  0  0  0  0  0  0
   26.1346  -22.1689  -10.4805 O   0  0  0  0  0  0  0  0  0  0  0  0
   20.3425  -22.6346  -16.0901 O   0  0  0  0  0  0  0  0  0  0  0  0
   29.9842  -19.6726   -2.9658 C   0  0  0  0  0  0  0  0  0  0  0  0
   29.4889  -19.6004   -4.2733 C   0  0  0  0  0  0  0  0  0  0  0  0
   28.5427  -18.6681   -4.6043 C   0  0  0  0  0  0  0  0  0  0  0  0
   28.0562  -18.5990   -5.8933 C   0  0  0  0  0  0  0  0  0  0  0  0
   28.5044  -19.4578   -6.8737 C   0  0  0  0  0  0  0  0  0  0  0  0
   27.9834  -19.3756   -8.2327 C   0  0  1  0  0  0  0  0  0  0  0  0
   26.8692  -20.3528   -8.5602 N   0  0  0  0  0  0  0  0  0  0  0  0
   26.3815  -19.9748   -9.8609 C   0  0  0  0  0  0  0  0  0  0  0  0
   25.8164  -20.4518   -7.5780 O   0  0  0  0  0  0  0  0  0  0  0  0
   24.8074  -19.6713   -7.7916 C   0  0  0  0  0  0  0  0  0  0  0  0
   29.4579  -20.3906   -6.5222 C   0  0  0  0  0  0  0  0  0  0  0  0
   29.9568  -20.4759   -5.2398 N   0  0  0  0  0  0  0  0  0  0  0  0
   25.7205  -21.2592   -6.4299 C   0  0  0  0  0  0  0  0  0  0  0  0
   26.6568  -22.0984   -5.7357 C   0  0  0  0  0  0  0  0  0  0  0  0
   25.8104  -23.2618   -5.2307 C   0  0  0  0  0  0  0  0  0  0  0  0
   24.3853  -22.8651   -5.4365 C   0  0  1  0  0  0  0  0  0  0  0  0
   24.4817  -21.3828   -5.6088 C   0  0  0  0  0  0  0  0  0  0  0  0
   24.6213  -20.7255   -4.3099 O   0  0  0  0  0  0  0  0  0  0  0  0
   25.8094  -20.3583   -3.9854 O   0  0  0  0  0  0  0  0  0  0  0  0
  2  1  1  0
  3  2  2  0
  4  2  1  0
  5  4  1  0
  6  5  1  0
  7  6  1  0
  8 10  1  0
  8  7  1  0
  8  9  1  6
 10 11  2  0
 12 13  1  0
 13 14  2  0
 14 15  1  0
 16 15  2  0
 16 17  1  0
 18 17  1  6
 19 18  1  0
 19 10  1  0
 20 18  1  0
 21 20  2  0
 22 16  1  0
 23 13  1  0
 23 22  2  0
 24 20  1  0
 24 28  1  0
 25 26  1  0
 25 24  1  0
 26 27  1  0
 28 27  1  0
 28 29  1  1
 29 31  1  0
 30 29  2  0
M  END
$$$$
