RYP.pdb
     RDKit          3D

 31 32  0  0  1  0  0  0  0  0999 V2000
   33.0873  -24.3233  -17.8222 N   0  0  0  0  0  0  0  0  0  0  0  0
   32.0428  -25.2169  -18.2195 C   0  0  0  0  0  0  0  0  0  0  0  0
   32.2737  -26.4837  -18.1522 N   0  0  0  0  0  0  0  0  0  0  0  0
   30.7823  -24.7196  -18.6773 N   0  0  0  0  0  0  0  0  0  0  0  0
   30.3130  -23.4173  -18.2457 C   0  0  0  0  0  0  0  0  0  0  0  0
   30.2540  -23.3570  -16.7127 C   0  0  0  0  0  0  0  0  0  0  0  0
   28.8508  -23.6919  -16.3255 C   0  0  0  0  0  0  0  0  0  0  0  0
   27.8630  -22.5917  -16.5539 C   0  0  2  0  0  0  0  0  0  0  0  0
   28.6084  -21.3312  -16.5241 N   0  0  0  0  0  0  0  0  0  0  0  0
   26.8047  -22.5113  -15.5239 C   0  0  0  0  0  0  0  0  0  0  0  0
   26.0682  -23.5029  -15.3036 O   0  0  0  0  0  0  0  0  0  0  0  0
   31.5539  -27.1368  -18.4817 O   0  0  0  0  0  0  0  0  0  0  0  0
   22.3782  -19.6670   -8.4172 C   0  0  0  0  0  0  0  0  0  0  0  0
   23.2926  -19.8807   -9.4556 C   0  0  0  0  0  0  0  0  0  0  0  0
   23.1146  -19.2742  -10.6699 C   0  0  0  0  0  0  0  0  0  0  0  0
   24.0169  -19.4864  -11.6916 C   0  0  0  0  0  0  0  0  0  0  0  0
   25.1113  -20.3065  -11.5202 C   0  0  0  0  0  0  0  0  0  0  0  0
   26.0585  -20.5233  -12.6068 C   0  0  1  0  0  0  0  0  0  0  0  0
   25.5090  -21.2741  -13.8060 N   0  0  0  0  0  0  0  0  0  0  0  0
   26.5846  -21.3356  -14.7608 C   0  0  0  0  0  0  0  0  0  0  0  0
   24.2922  -20.7428  -14.3715 O   0  0  0  0  0  0  0  0  0  0  0  0
   24.4617  -19.7236  -15.1495 C   0  0  0  0  0  0  0  0  0  0  0  0
   25.2746  -20.9092  -10.2902 C   0  0  0  0  0  0  0  0  0  0  0  0
   24.3844  -20.7101   -9.2565 N   0  0  0  0  0  0  0  0  0  0  0  0
   22.9583  -21.1584  -14.2059 C   0  0  0  0  0  0  0  0  0  0  0  0
   22.3253  -22.1136  -13.3400 C   0  0  0  0  0  0  0  0  0  0  0  0
   21.2023  -22.6988  -14.1893 C   0  0  0  0  0  0  0  0  0  0  0  0
   21.0965  -21.8320  -15.4010 C   0  0  1  0  0  0  0  0  0  0  0  0
   21.8150  -20.5910  -14.9772 C   0  0  0  0  0  0  0  0  0  0  0  0
   20.9506  -19.7613  -14.1387 O   0  0  0  0  0  0  0  0  0  0  0  0
   19.9842  -19.1631  -14.7386 O   0  0  0  0  0  0  0  0  0  0  0  0
  2  1  1  0
  3  2  2  0
  4  2  1  0
  5  4  1  0
  6  5  1  0
  7  6  1  0
  8 10  1  0
  8  7  1  0
  8  9  1  1
 10 11  2  0
 12 13  1  0
 13 14  2  0
 14 15  1  0
 16 15  2  0
 16 17  1  0
 18 17  1  1
 19 18  1  0
 19 10  1  0
 20 18  1  0
 21 20  2  0
 22 16  1  0
 23 13  1  0
 23 22  2  0
 24 20  1  0
 24 28  1  0
 25 26  1  0
 25 24  1  0
 26 27  1  0
 28 27  1  0
 28 29  1  1
 29 31  1  0
 30 29  2  0
M  END
$$$$
