RYP.pdb
     RDKit          3D

 31 32  0  0  1  0  0  0  0  0999 V2000
   29.6756  -27.5870  -16.2838 N   0  0  0  0  0  0  0  0  0  0  0  0
   28.4307  -26.8820  -16.2681 C   0  0  0  0  0  0  0  0  0  0  0  0
   27.3884  -27.5066  -15.8366 N   0  0  0  0  0  0  0  0  0  0  0  0
   28.3458  -25.5268  -16.7175 N   0  0  0  0  0  0  0  0  0  0  0  0
   29.5406  -24.8248  -17.1441 C   0  0  0  0  0  0  0  0  0  0  0  0
   29.1782  -23.4208  -17.6488 C   0  0  0  0  0  0  0  0  0  0  0  0
   28.1646  -22.8734  -16.6980 C   0  0  0  0  0  0  0  0  0  0  0  0
   27.6517  -21.5130  -17.0506 C   0  0  2  0  0  0  0  0  0  0  0  0
   28.7805  -20.7558  -17.5963 N   0  0  0  0  0  0  0  0  0  0  0  0
   27.1183  -20.7547  -15.8982 C   0  0  0  0  0  0  0  0  0  0  0  0
   27.9057  -20.2496  -15.0621 O   0  0  0  0  0  0  0  0  0  0  0  0
   26.4834  -27.0226  -15.8411 O   0  0  0  0  0  0  0  0  0  0  0  0
   28.1434  -14.8142  -17.4076 C   0  0  0  0  0  0  0  0  0  0  0  0
   27.2624  -15.7464  -16.8465 C   0  0  0  0  0  0  0  0  0  0  0  0
   26.5726  -16.6158  -17.6479 C   0  0  0  0  0  0  0  0  0  0  0  0
   25.7049  -17.5334  -17.0928 C   0  0  0  0  0  0  0  0  0  0  0  0
   25.5103  -17.5997  -15.7299 C   0  0  0  0  0  0  0  0  0  0  0  0
   24.5912  -18.5737  -15.1540 C   0  0  2  0  0  0  0  0  0  0  0  0
   25.2428  -19.8148  -14.5717 N   0  0  0  0  0  0  0  0  0  0  0  0
   25.7258  -20.5724  -15.6966 C   0  0  0  0  0  0  0  0  0  0  0  0
   24.4146  -20.5984  -13.6870 O   0  0  0  0  0  0  0  0  0  0  0  0
   23.8620  -21.6285  -14.2404 C   0  0  0  0  0  0  0  0  0  0  0  0
   26.2138  -16.7161  -14.9379 C   0  0  0  0  0  0  0  0  0  0  0  0
   27.0854  -15.7917  -15.4732 N   0  0  0  0  0  0  0  0  0  0  0  0
   24.1154  -20.4140  -12.3247 C   0  0  0  0  0  0  0  0  0  0  0  0
   24.4594  -19.3973  -11.3703 C   0  0  0  0  0  0  0  0  0  0  0  0
   24.6176  -20.1572  -10.0579 C   0  0  0  0  0  0  0  0  0  0  0  0
   24.0781  -21.5289  -10.2989 C   0  0  1  0  0  0  0  0  0  0  0  0
   23.2571  -21.3432  -11.5349 C   0  0  0  0  0  0  0  0  0  0  0  0
   21.9650  -20.7432  -11.2046 O   0  0  0  0  0  0  0  0  0  0  0  0
   21.8251  -19.5005  -11.5007 O   0  0  0  0  0  0  0  0  0  0  0  0
  2  1  1  0
  3  2  2  0
  4  2  1  0
  5  4  1  0
  6  5  1  0
  7  6  1  0
  8 10  1  0
  8  7  1  0
  8  9  1  1
 10 11  2  0
 12 13  1  0
 13 14  2  0
 14 15  1  0
 16 15  2  0
 16 17  1  0
 18 17  1  1
 19 18  1  0
 19 10  1  0
 20 18  1  0
 21 20  2  0
 22 16  1  0
 23 13  1  0
 23 22  2  0
 24 20  1  0
 24 28  1  0
 25 26  1  0
 25 24  1  0
 26 27  1  0
 28 27  1  0
 28 29  1  6
 29 31  1  0
 30 29  2  0
M  END
$$$$
