RYP.pdb
     RDKit          3D

 31 32  0  0  1  0  0  0  0  0999 V2000
   20.9166  -26.1807  -14.4561 N   0  0  0  0  0  0  0  0  0  0  0  0
   19.6195  -25.5871  -14.3448 C   0  0  0  0  0  0  0  0  0  0  0  0
   18.6341  -26.3477  -14.0083 N   0  0  0  0  0  0  0  0  0  0  0  0
   19.4229  -24.1934  -14.5992 N   0  0  0  0  0  0  0  0  0  0  0  0
   20.5364  -23.2703  -14.4976 C   0  0  0  0  0  0  0  0  0  0  0  0
   20.9049  -22.7301  -15.8867 C   0  0  0  0  0  0  0  0  0  0  0  0
   21.0029  -21.2454  -15.7555 C   0  0  0  0  0  0  0  0  0  0  0  0
   20.8855  -20.7356  -14.3539 C   0  0  2  0  0  0  0  0  0  0  0  0
   20.0041  -19.5665  -14.3937 N   0  0  0  0  0  0  0  0  0  0  0  0
   22.1710  -20.3080  -13.7606 C   0  0  0  0  0  0  0  0  0  0  0  0
   22.5930  -19.1422  -13.9532 O   0  0  0  0  0  0  0  0  0  0  0  0
   17.6947  -25.9403  -13.9395 O   0  0  0  0  0  0  0  0  0  0  0  0
   28.9445  -19.7234   -8.2092 C   0  0  0  0  0  0  0  0  0  0  0  0
   27.8315  -20.1526   -8.9421 C   0  0  0  0  0  0  0  0  0  0  0  0
   26.5794  -19.6957   -8.6300 C   0  0  0  0  0  0  0  0  0  0  0  0
   25.4843  -20.1201   -9.3535 C   0  0  0  0  0  0  0  0  0  0  0  0
   25.6188  -21.0069  -10.4001 C   0  0  0  0  0  0  0  0  0  0  0  0
   24.4545  -21.4484  -11.1581 C   0  0  2  0  0  0  0  0  0  0  0  0
   24.2598  -20.7691  -12.5015 N   0  0  0  0  0  0  0  0  0  0  0  0
   22.9610  -21.1798  -12.9675 C   0  0  0  0  0  0  0  0  0  0  0  0
   25.2995  -21.0008  -13.4751 O   0  0  0  0  0  0  0  0  0  0  0  0
   25.0980  -22.0213  -14.2437 C   0  0  0  0  0  0  0  0  0  0  0  0
   26.8878  -21.4566  -10.7005 C   0  0  0  0  0  0  0  0  0  0  0  0
   27.9948  -21.0446   -9.9896 N   0  0  0  0  0  0  0  0  0  0  0  0
   26.4922  -20.2937  -13.7136 C   0  0  0  0  0  0  0  0  0  0  0  0
   27.2817  -19.3977  -12.9157 C   0  0  0  0  0  0  0  0  0  0  0  0
   27.8221  -18.3843  -13.9185 C   0  0  0  0  0  0  0  0  0  0  0  0
   27.5260  -18.9360  -15.2745 C   0  0  2  0  0  0  0  0  0  0  0  0
   27.2621  -20.3798  -14.9879 C   0  0  0  0  0  0  0  0  0  0  0  0
   28.5204  -21.1049  -14.8162 O   0  0  0  0  0  0  0  0  0  0  0  0
   28.8100  -21.4608  -13.6158 O   0  0  0  0  0  0  0  0  0  0  0  0
  2  1  1  0
  3  2  2  0
  4  2  1  0
  5  4  1  0
  6  5  1  0
  7  6  1  0
  8 10  1  0
  8  7  1  0
  8  9  1  6
 10 11  2  0
 12 13  1  0
 13 14  2  0
 14 15  1  0
 16 15  2  0
 16 17  1  0
 18 17  1  1
 19 18  1  0
 19 10  1  0
 20 18  1  0
 21 20  2  0
 22 16  1  0
 23 13  1  0
 23 22  2  0
 24 20  1  0
 24 28  1  0
 25 26  1  0
 25 24  1  0
 26 27  1  0
 28 27  1  0
 28 29  1  6
 29 31  1  0
 30 29  2  0
M  END
$$$$
