RYP.pdb
     RDKit          3D

 31 32  0  0  1  0  0  0  0  0999 V2000
   29.3406  -20.9131  -17.6235 N   0  0  0  0  0  0  0  0  0  0  0  0
   29.9132  -21.9933  -16.8800 C   0  0  0  0  0  0  0  0  0  0  0  0
   31.1880  -22.1710  -16.9578 N   0  0  0  0  0  0  0  0  0  0  0  0
   29.0963  -22.8489  -16.0761 N   0  0  0  0  0  0  0  0  0  0  0  0
   28.3758  -22.3100  -14.9389 C   0  0  0  0  0  0  0  0  0  0  0  0
   29.2285  -21.2514  -14.2251 C   0  0  0  0  0  0  0  0  0  0  0  0
   28.2892  -20.1842  -13.7668 C   0  0  0  0  0  0  0  0  0  0  0  0
   26.9931  -20.6903  -13.2170 C   0  0  2  0  0  0  0  0  0  0  0  0
   25.9350  -20.2353  -14.1218 N   0  0  0  0  0  0  0  0  0  0  0  0
   26.6755  -20.1831  -11.8645 C   0  0  0  0  0  0  0  0  0  0  0  0
   26.3873  -18.9730  -11.7009 O   0  0  0  0  0  0  0  0  0  0  0  0
   31.5989  -23.0073  -16.5277 O   0  0  0  0  0  0  0  0  0  0  0  0
   20.4981  -19.5962  -12.2509 C   0  0  0  0  0  0  0  0  0  0  0  0
   21.5956  -20.0139  -11.4886 C   0  0  0  0  0  0  0  0  0  0  0  0
   21.9289  -19.3543  -10.3364 C   0  0  0  0  0  0  0  0  0  0  0  0
   23.0108  -19.7678   -9.5869 C   0  0  0  0  0  0  0  0  0  0  0  0
   23.7784  -20.8453   -9.9734 C   0  0  0  0  0  0  0  0  0  0  0  0
   24.9193  -21.2737   -9.1735 C   0  0  2  0  0  0  0  0  0  0  0  0
   26.2182  -20.5391   -9.4510 N   0  0  0  0  0  0  0  0  0  0  0  0
   26.6838  -21.0261  -10.7233 C   0  0  0  0  0  0  0  0  0  0  0  0
   27.2216  -20.6325   -8.4180 O   0  0  0  0  0  0  0  0  0  0  0  0
   28.1448  -21.5097   -8.6437 C   0  0  0  0  0  0  0  0  0  0  0  0
   23.4278  -21.4979  -11.1371 C   0  0  0  0  0  0  0  0  0  0  0  0
   22.3505  -21.1005  -11.9000 N   0  0  0  0  0  0  0  0  0  0  0  0
   27.3479  -19.9229   -7.2098 C   0  0  0  0  0  0  0  0  0  0  0  0
   26.5480  -18.9148   -6.5721 C   0  0  0  0  0  0  0  0  0  0  0  0
   27.5660  -18.0119   -5.8843 C   0  0  0  0  0  0  0  0  0  0  0  0
   28.8743  -18.7297   -5.9469 C   0  0  1  0  0  0  0  0  0  0  0  0
   28.4600  -20.1364   -6.2394 C   0  0  0  0  0  0  0  0  0  0  0  0
   27.9988  -20.7974   -5.0191 O   0  0  0  0  0  0  0  0  0  0  0  0
   26.7480  -21.0886   -4.9705 O   0  0  0  0  0  0  0  0  0  0  0  0
  2  1  1  0
  3  2  2  0
  4  2  1  0
  5  4  1  0
  6  5  1  0
  7  6  1  0
  8 10  1  0
  8  7  1  0
  8  9  1  6
 10 11  2  0
 12 13  1  0
 13 14  2  0
 14 15  1  0
 16 15  2  0
 16 17  1  0
 18 17  1  6
 19 18  1  0
 19 10  1  0
 20 18  1  0
 21 20  2  0
 22 16  1  0
 23 13  1  0
 23 22  2  0
 24 20  1  0
 24 28  1  0
 25 26  1  0
 25 24  1  0
 26 27  1  0
 28 27  1  0
 28 29  1  1
 29 31  1  0
 30 29  2  0
M  END
$$$$
