RYP.pdb
     RDKit          3D

 31 32  0  0  1  0  0  0  0  0999 V2000
   28.9080  -23.2922  -17.2873 N   0  0  0  0  0  0  0  0  0  0  0  0
   28.6189  -24.4489  -16.4962 C   0  0  0  0  0  0  0  0  0  0  0  0
   29.3855  -25.4773  -16.6276 N   0  0  0  0  0  0  0  0  0  0  0  0
   27.5136  -24.4631  -15.5885 N   0  0  0  0  0  0  0  0  0  0  0  0
   26.8132  -23.2330  -15.2744 C   0  0  0  0  0  0  0  0  0  0  0  0
   27.8074  -22.0668  -15.1799 C   0  0  0  0  0  0  0  0  0  0  0  0
   27.5933  -21.4299  -13.8459 C   0  0  0  0  0  0  0  0  0  0  0  0
   26.1700  -21.0821  -13.5438 C   0  0  2  0  0  0  0  0  0  0  0  0
   25.7320  -20.1327  -14.5695 N   0  0  0  0  0  0  0  0  0  0  0  0
   25.9753  -20.4398  -12.2258 C   0  0  0  0  0  0  0  0  0  0  0  0
   26.0684  -19.1934  -12.1164 O   0  0  0  0  0  0  0  0  0  0  0  0
   29.1477  -26.3401  -16.1253 O   0  0  0  0  0  0  0  0  0  0  0  0
   19.7874  -18.6637  -11.9694 C   0  0  0  0  0  0  0  0  0  0  0  0
   20.8776  -19.2257  -11.2944 C   0  0  0  0  0  0  0  0  0  0  0  0
   21.3464  -20.4627  -11.6464 C   0  0  0  0  0  0  0  0  0  0  0  0
   22.4208  -21.0144  -10.9798 C   0  0  0  0  0  0  0  0  0  0  0  0
   23.0456  -20.3425   -9.9512 C   0  0  0  0  0  0  0  0  0  0  0  0
   24.1804  -20.9349   -9.2539 C   0  0  2  0  0  0  0  0  0  0  0  0
   25.5462  -20.5369   -9.7830 N   0  0  0  0  0  0  0  0  0  0  0  0
   25.6820  -21.1909  -11.0584 C   0  0  0  0  0  0  0  0  0  0  0  0
   26.6583  -20.7995   -8.9016 O   0  0  0  0  0  0  0  0  0  0  0  0
   27.2993  -21.8935   -9.1566 C   0  0  0  0  0  0  0  0  0  0  0  0
   22.5598  -19.0973   -9.6102 C   0  0  0  0  0  0  0  0  0  0  0  0
   21.4875  -18.5286  -10.2640 N   0  0  0  0  0  0  0  0  0  0  0  0
   27.1478  -20.0549   -7.8128 C   0  0  0  0  0  0  0  0  0  0  0  0
   26.7844  -18.7868   -7.2447 C   0  0  0  0  0  0  0  0  0  0  0  0
   28.1091  -18.1967   -6.7740 C   0  0  0  0  0  0  0  0  0  0  0  0
   29.1134  -19.2990   -6.8572 C   0  0  1  0  0  0  0  0  0  0  0  0
   28.2522  -20.5195   -6.9248 C   0  0  0  0  0  0  0  0  0  0  0  0
   27.7663  -20.8764   -5.5925 O   0  0  0  0  0  0  0  0  0  0  0  0
   28.6548  -21.2729   -4.7528 O   0  0  0  0  0  0  0  0  0  0  0  0
  2  1  1  0
  3  2  2  0
  4  2  1  0
  5  4  1  0
  6  5  1  0
  7  6  1  0
  8 10  1  0
  8  7  1  0
  8  9  1  6
 10 11  2  0
 12 13  1  0
 13 14  2  0
 14 15  1  0
 16 15  2  0
 16 17  1  0
 18 17  1  6
 19 18  1  0
 19 10  1  0
 20 18  1  0
 21 20  2  0
 22 16  1  0
 23 13  1  0
 23 22  2  0
 24 20  1  0
 24 28  1  0
 25 26  1  0
 25 24  1  0
 26 27  1  0
 28 27  1  0
 28 29  1  1
 29 31  1  0
 30 29  2  0
M  END
$$$$
