RYP.pdb
     RDKit          3D

 31 32  0  0  1  0  0  0  0  0999 V2000
   30.4108  -22.9736  -18.8736 N   0  0  0  0  0  0  0  0  0  0  0  0
   31.4647  -22.5378  -19.7377 C   0  0  0  0  0  0  0  0  0  0  0  0
   32.5445  -23.2415  -19.7754 N   0  0  0  0  0  0  0  0  0  0  0  0
   31.3240  -21.3582  -20.5341 N   0  0  0  0  0  0  0  0  0  0  0  0
   30.0152  -20.7679  -20.7366 C   0  0  0  0  0  0  0  0  0  0  0  0
   29.6868  -19.8017  -19.5895 C   0  0  0  0  0  0  0  0  0  0  0  0
   29.0802  -20.6233  -18.4993 C   0  0  0  0  0  0  0  0  0  0  0  0
   27.7235  -20.1706  -18.0607 C   0  0  2  0  0  0  0  0  0  0  0  0
   27.7899  -18.7178  -17.8868 N   0  0  0  0  0  0  0  0  0  0  0  0
   27.2809  -20.7561  -16.7767 C   0  0  0  0  0  0  0  0  0  0  0  0
   27.1000  -21.9941  -16.6819 O   0  0  0  0  0  0  0  0  0  0  0  0
   33.3192  -22.9287  -20.3714 O   0  0  0  0  0  0  0  0  0  0  0  0
   24.9913  -21.1597   -8.2135 C   0  0  0  0  0  0  0  0  0  0  0  0
   25.5381  -20.8630   -9.4678 C   0  0  0  0  0  0  0  0  0  0  0  0
   24.9918  -19.8776  -10.2451 C   0  0  0  0  0  0  0  0  0  0  0  0
   25.5323  -19.5872  -11.4807 C   0  0  0  0  0  0  0  0  0  0  0  0
   26.6260  -20.2741  -11.9620 C   0  0  0  0  0  0  0  0  0  0  0  0
   27.1892  -19.9586  -13.2690 C   0  0  1  0  0  0  0  0  0  0  0  0
   26.4321  -20.5267  -14.4555 N   0  0  0  0  0  0  0  0  0  0  0  0
   27.0482  -19.9590  -15.6262 C   0  0  0  0  0  0  0  0  0  0  0  0
   25.0016  -20.3379  -14.4322 O   0  0  0  0  0  0  0  0  0  0  0  0
   24.6034  -19.1931  -14.8835 C   0  0  0  0  0  0  0  0  0  0  0  0
   27.1633  -21.2636  -11.1651 C   0  0  0  0  0  0  0  0  0  0  0  0
   26.6380  -21.5690   -9.9276 N   0  0  0  0  0  0  0  0  0  0  0  0
   23.9801  -21.2005  -13.9942 C   0  0  0  0  0  0  0  0  0  0  0  0
   23.9846  -22.4775  -13.3369 C   0  0  0  0  0  0  0  0  0  0  0  0
   22.7785  -23.2025  -13.9239 C   0  0  0  0  0  0  0  0  0  0  0  0
   21.9993  -22.1773  -14.6806 C   0  0  2  0  0  0  0  0  0  0  0  0
   22.5268  -20.8927  -14.1257 C   0  0  0  0  0  0  0  0  0  0  0  0
   21.9116  -20.6048  -12.8307 O   0  0  0  0  0  0  0  0  0  0  0  0
   22.5920  -20.9397  -11.7931 O   0  0  0  0  0  0  0  0  0  0  0  0
  2  1  1  0
  3  2  2  0
  4  2  1  0
  5  4  1  0
  6  5  1  0
  7  6  1  0
  8 10  1  0
  8  7  1  0
  8  9  1  1
 10 11  2  0
 12 13  1  0
 13 14  2  0
 14 15  1  0
 16 15  2  0
 16 17  1  0
 18 17  1  6
 19 18  1  0
 19 10  1  0
 20 18  1  0
 21 20  2  0
 22 16  1  0
 23 13  1  0
 23 22  2  0
 24 20  1  0
 24 28  1  0
 25 26  1  0
 25 24  1  0
 26 27  1  0
 28 27  1  0
 28 29  1  1
 29 31  1  0
 30 29  2  0
M  END
$$$$
