RYP.pdb
     RDKit          3D

 31 32  0  0  1  0  0  0  0  0999 V2000
   27.9663  -22.6295  -15.1735 N   0  0  0  0  0  0  0  0  0  0  0  0
   28.0573  -23.0054  -16.5510 C   0  0  0  0  0  0  0  0  0  0  0  0
   28.7149  -22.2318  -17.3459 N   0  0  0  0  0  0  0  0  0  0  0  0
   27.4376  -24.2019  -17.0307 N   0  0  0  0  0  0  0  0  0  0  0  0
   26.9241  -25.1821  -16.0937 C   0  0  0  0  0  0  0  0  0  0  0  0
   25.6861  -25.8764  -16.6789 C   0  0  0  0  0  0  0  0  0  0  0  0
   24.5218  -24.9849  -16.3947 C   0  0  0  0  0  0  0  0  0  0  0  0
   24.3110  -24.6800  -14.9454 C   0  0  2  0  0  0  0  0  0  0  0  0
   23.3224  -25.6373  -14.4437 N   0  0  0  0  0  0  0  0  0  0  0  0
   23.7897  -23.3202  -14.6872 C   0  0  0  0  0  0  0  0  0  0  0  0
   22.5553  -23.1020  -14.7404 O   0  0  0  0  0  0  0  0  0  0  0  0
   28.7384  -22.4547  -18.3474 O   0  0  0  0  0  0  0  0  0  0  0  0
   23.9492  -20.9952   -7.7692 C   0  0  0  0  0  0  0  0  0  0  0  0
   24.2249  -20.7984   -9.1276 C   0  0  0  0  0  0  0  0  0  0  0  0
   23.2375  -20.3863   -9.9814 C   0  0  0  0  0  0  0  0  0  0  0  0
   23.5116  -20.1931  -11.3195 C   0  0  0  0  0  0  0  0  0  0  0  0
   24.7742  -20.4075  -11.8289 C   0  0  0  0  0  0  0  0  0  0  0  0
   25.0527  -20.1999  -13.2447 C   0  0  2  0  0  0  0  0  0  0  0  0
   24.1104  -20.9074  -14.2014 N   0  0  0  0  0  0  0  0  0  0  0  0
   24.6457  -22.2323  -14.3760 C   0  0  0  0  0  0  0  0  0  0  0  0
   23.8714  -20.2337  -15.4551 O   0  0  0  0  0  0  0  0  0  0  0  0
   24.7436  -20.4872  -16.3759 C   0  0  0  0  0  0  0  0  0  0  0  0
   25.7567  -20.8224  -10.9540 C   0  0  0  0  0  0  0  0  0  0  0  0
   25.5031  -21.0212   -9.6135 N   0  0  0  0  0  0  0  0  0  0  0  0
   22.8441  -19.3473  -15.8267 C   0  0  0  0  0  0  0  0  0  0  0  0
   21.7745  -18.7206  -15.1014 C   0  0  0  0  0  0  0  0  0  0  0  0
   20.6273  -18.6652  -16.1041 C   0  0  0  0  0  0  0  0  0  0  0  0
   21.2127  -19.0170  -17.4323 C   0  0  1  0  0  0  0  0  0  0  0  0
   22.6766  -18.8102  -17.2078 C   0  0  0  0  0  0  0  0  0  0  0  0
   23.0091  -17.3880  -17.2832 O   0  0  0  0  0  0  0  0  0  0  0  0
   22.8295  -16.8239  -18.4239 O   0  0  0  0  0  0  0  0  0  0  0  0
  2  1  1  0
  3  2  2  0
  4  2  1  0
  5  4  1  0
  6  5  1  0
  7  6  1  0
  8 10  1  0
  8  7  1  0
  8  9  1  6
 10 11  2  0
 12 13  1  0
 13 14  2  0
 14 15  1  0
 16 15  2  0
 16 17  1  0
 18 17  1  1
 19 18  1  0
 19 10  1  0
 20 18  1  0
 21 20  2  0
 22 16  1  0
 23 13  1  0
 23 22  2  0
 24 20  1  0
 24 28  1  0
 25 26  1  0
 25 24  1  0
 26 27  1  0
 28 27  1  0
 28 29  1  6
 29 31  1  0
 30 29  2  0
M  END
$$$$
