RYP.pdb
     RDKit          3D

 31 32  0  0  1  0  0  0  0  0999 V2000
   26.3464  -21.7343  -11.9336 N   0  0  0  0  0  0  0  0  0  0  0  0
   27.4910  -20.9925  -11.5012 C   0  0  0  0  0  0  0  0  0  0  0  0
   28.0744  -21.3626  -10.4124 N   0  0  0  0  0  0  0  0  0  0  0  0
   27.9722  -19.8754  -12.2537 N   0  0  0  0  0  0  0  0  0  0  0  0
   27.5649  -19.6971  -13.6338 C   0  0  0  0  0  0  0  0  0  0  0  0
   28.5880  -20.3472  -14.5761 C   0  0  0  0  0  0  0  0  0  0  0  0
   28.0204  -21.6697  -14.9762 C   0  0  0  0  0  0  0  0  0  0  0  0
   26.8332  -21.5885  -15.8828 C   0  0  2  0  0  0  0  0  0  0  0  0
   26.9006  -20.2943  -16.5653 N   0  0  0  0  0  0  0  0  0  0  0  0
   25.5342  -21.6572  -15.1791 C   0  0  0  0  0  0  0  0  0  0  0  0
   25.2057  -22.7044  -14.5710 O   0  0  0  0  0  0  0  0  0  0  0  0
   28.8258  -20.7778  -10.0294 O   0  0  0  0  0  0  0  0  0  0  0  0
   19.1730  -19.3127   -9.7391 C   0  0  0  0  0  0  0  0  0  0  0  0
   20.2637  -19.3978  -10.6127 C   0  0  0  0  0  0  0  0  0  0  0  0
   20.3100  -18.6216  -11.7393 C   0  0  0  0  0  0  0  0  0  0  0  0
   21.3857  -18.7073  -12.5986 C   0  0  0  0  0  0  0  0  0  0  0  0
   22.4330  -19.5680  -12.3495 C   0  0  0  0  0  0  0  0  0  0  0  0
   23.5650  -19.6501  -13.2643 C   0  0  2  0  0  0  0  0  0  0  0  0
   23.4069  -20.6398  -14.4042 N   0  0  0  0  0  0  0  0  0  0  0  0
   24.6276  -20.5659  -15.1640 C   0  0  0  0  0  0  0  0  0  0  0  0
   22.2307  -20.4675  -15.2224 O   0  0  0  0  0  0  0  0  0  0  0  0
   22.3853  -19.6625  -16.2228 C   0  0  0  0  0  0  0  0  0  0  0  0
   22.3694  -20.3424  -11.2097 C   0  0  0  0  0  0  0  0  0  0  0  0
   21.3034  -20.2716  -10.3384 N   0  0  0  0  0  0  0  0  0  0  0  0
   20.9491  -21.0345  -15.0986 C   0  0  0  0  0  0  0  0  0  0  0  0
   20.3317  -21.8638  -14.1015 C   0  0  0  0  0  0  0  0  0  0  0  0
   19.4125  -22.7825  -14.8988 C   0  0  0  0  0  0  0  0  0  0  0  0
   19.3598  -22.2255  -16.2836 C   0  0  1  0  0  0  0  0  0  0  0  0
   19.8555  -20.8279  -16.0913 C   0  0  0  0  0  0  0  0  0  0  0  0
   18.7913  -19.9769  -15.5602 O   0  0  0  0  0  0  0  0  0  0  0  0
   19.0200  -19.4283  -14.4208 O   0  0  0  0  0  0  0  0  0  0  0  0
  2  1  1  0
  3  2  2  0
  4  2  1  0
  5  4  1  0
  6  5  1  0
  7  6  1  0
  8 10  1  0
  8  7  1  0
  8  9  1  1
 10 11  2  0
 12 13  1  0
 13 14  2  0
 14 15  1  0
 16 15  2  0
 16 17  1  0
 18 17  1  1
 19 18  1  0
 19 10  1  0
 20 18  1  0
 21 20  2  0
 22 16  1  0
 23 13  1  0
 23 22  2  0
 24 20  1  0
 24 28  1  0
 25 26  1  0
 25 24  1  0
 26 27  1  0
 28 27  1  0
 28 29  1  1
 29 31  1  0
 30 29  2  0
M  END
$$$$
