DAN.pdb
     RDKit          3D

 22 21  0  0  1  0  0  0  0  0999 V2000
   26.0732  -14.2356  -15.3457 N   0  0  0  0  0  0  0  0  0  0  0  0
   25.0659  -14.8343  -16.1671 C   0  0  1  0  0  0  0  0  0  0  0  0
   25.2446  -16.3539  -16.0670 C   0  0  0  0  0  0  0  0  0  0  0  0
   26.5327  -16.7379  -16.7158 C   0  0  0  0  0  0  0  0  0  0  0  0
   27.2482  -15.8369  -17.2602 O   0  0  0  0  0  0  0  0  0  0  0  0
   23.6768  -14.5448  -15.7330 C   0  0  0  0  0  0  0  0  0  0  0  0
   23.3532  -14.8727  -14.5625 O   0  0  0  0  0  0  0  0  0  0  0  0
   26.9692  -18.0384  -16.7409 O   0  0  0  0  0  0  0  0  0  0  0  0
   20.7610  -12.7203  -17.1852 C   0  0  0  0  0  0  0  0  0  0  0  0
   21.3304  -13.6528  -16.1344 C   0  0  2  0  0  0  0  0  0  0  0  0
   22.6954  -13.9327  -16.5329 N   0  0  0  0  0  0  0  0  0  0  0  0
   20.5235  -14.9068  -16.0688 C   0  0  0  0  0  0  0  0  0  0  0  0
   21.0053  -15.9234  -16.5860 O   0  0  0  0  0  0  0  0  0  0  0  0
   16.8910  -18.5691  -14.7469 N   0  0  0  0  0  0  0  0  0  0  0  0
   18.0570  -18.2152  -14.0434 C   0  0  0  0  0  0  0  0  0  0  0  0
   18.4273  -19.0102  -13.1204 O   0  0  0  0  0  0  0  0  0  0  0  0
   18.8921  -17.0295  -14.2635 C   0  0  0  0  0  0  0  0  0  0  0  0
   18.4134  -16.0910  -15.3067 C   0  0  2  0  0  0  0  0  0  0  0  0
   19.2737  -14.9269  -15.4462 N   0  0  0  0  0  0  0  0  0  0  0  0
   16.9959  -15.6860  -15.1582 C   0  0  0  0  0  0  0  0  0  0  0  0
   15.9168  -16.1928  -15.8282 O   0  0  0  0  0  0  0  0  0  0  0  0
   16.7489  -14.7555  -14.3062 O   0  0  0  0  0  0  0  0  0  0  0  0
  2  1  1  1
  3  2  1  0
  3  4  1  0
  4  5  2  0
  6  2  1  0
  6 11  1  0
  7  6  2  0
  8  4  1  0
 10 11  1  0
 10  9  1  6
 12 10  1  0
 12 19  1  0
 13 12  2  0
 15 14  1  0
 16 15  2  0
 17 15  1  0
 18 19  1  0
 18 17  1  1
 20 18  1  0
 21 20  1  0
 22 20  2  0
M  END
$$$$
