DAN.pdb
     RDKit          3D

 22 21  0  0  1  0  0  0  0  0999 V2000
   16.4256  -12.5249  -12.9543 N   0  0  0  0  0  0  0  0  0  0  0  0
   15.7601  -11.2608  -13.0371 C   0  0  1  0  0  0  0  0  0  0  0  0
   14.2920  -11.4969  -12.6626 C   0  0  0  0  0  0  0  0  0  0  0  0
   13.6624  -12.3796  -13.6883 C   0  0  0  0  0  0  0  0  0  0  0  0
   13.3582  -11.8943  -14.8249 O   0  0  0  0  0  0  0  0  0  0  0  0
   16.2760  -10.2396  -12.0921 C   0  0  0  0  0  0  0  0  0  0  0  0
   16.2004  -10.4943  -10.8627 O   0  0  0  0  0  0  0  0  0  0  0  0
   13.4028  -13.7039  -13.4402 O   0  0  0  0  0  0  0  0  0  0  0  0
   18.2482   -7.0990  -12.3550 C   0  0  0  0  0  0  0  0  0  0  0  0
   17.2936   -7.9709  -11.5635 C   0  0  2  0  0  0  0  0  0  0  0  0
   16.8416   -9.0084  -12.4687 N   0  0  0  0  0  0  0  0  0  0  0  0
   16.1459   -7.1561  -11.0665 C   0  0  0  0  0  0  0  0  0  0  0  0
   15.1776   -7.0116  -11.8247 O   0  0  0  0  0  0  0  0  0  0  0  0
   13.1433   -4.0893   -7.7643 N   0  0  0  0  0  0  0  0  0  0  0  0
   14.1572   -4.8253   -7.1240 C   0  0  0  0  0  0  0  0  0  0  0  0
   14.2437   -4.6937   -5.8605 O   0  0  0  0  0  0  0  0  0  0  0  0
   15.1222   -5.7301   -7.7579 C   0  0  0  0  0  0  0  0  0  0  0  0
   15.1492   -5.7047   -9.2401 C   0  0  2  0  0  0  0  0  0  0  0  0
   16.1685   -6.5816   -9.7939 N   0  0  0  0  0  0  0  0  0  0  0  0
   15.2454   -4.3467   -9.8249 C   0  0  0  0  0  0  0  0  0  0  0  0
   14.2128   -3.5405  -10.2172 O   0  0  0  0  0  0  0  0  0  0  0  0
   16.4289   -3.8700   -9.9824 O   0  0  0  0  0  0  0  0  0  0  0  0
  2  1  1  1
  3  2  1  0
  3  4  1  0
  4  5  2  0
  6  2  1  0
  6 11  1  0
  7  6  2  0
  8  4  1  0
 10 11  1  0
 10  9  1  6
 12 10  1  0
 12 19  1  0
 13 12  2  0
 15 14  1  0
 16 15  2  0
 17 15  1  0
 18 19  1  0
 18 17  1  1
 20 18  1  0
 21 20  1  0
 22 20  2  0
M  END
$$$$
