DAN.pdb
     RDKit          3D

 22 21  0  0  1  0  0  0  0  0999 V2000
   18.4742  -12.9352  -16.2318 N   0  0  0  0  0  0  0  0  0  0  0  0
   19.3758  -11.9782  -16.7966 C   0  0  1  0  0  0  0  0  0  0  0  0
   18.5788  -11.1488  -17.8105 C   0  0  0  0  0  0  0  0  0  0  0  0
   18.1086  -12.0420  -18.9099 C   0  0  0  0  0  0  0  0  0  0  0  0
   18.8342  -13.0251  -19.2664 O   0  0  0  0  0  0  0  0  0  0  0  0
   19.9351  -11.0169  -15.8141 C   0  0  0  0  0  0  0  0  0  0  0  0
   19.1210  -10.3517  -15.1235 O   0  0  0  0  0  0  0  0  0  0  0  0
   16.9120  -11.8334  -19.5481 O   0  0  0  0  0  0  0  0  0  0  0  0
   23.3451  -10.1026  -14.5965 C   0  0  0  0  0  0  0  0  0  0  0  0
   21.8753   -9.7651  -14.7508 C   0  0  2  0  0  0  0  0  0  0  0  0
   21.3068  -10.7935  -15.5989 N   0  0  0  0  0  0  0  0  0  0  0  0
   21.7203   -8.4151  -15.3683 C   0  0  0  0  0  0  0  0  0  0  0  0
   21.7532   -8.3453  -16.6041 O   0  0  0  0  0  0  0  0  0  0  0  0
   19.2126   -3.6811  -16.7180 N   0  0  0  0  0  0  0  0  0  0  0  0
   19.6316   -4.1447  -15.4574 C   0  0  0  0  0  0  0  0  0  0  0  0
   19.7828   -3.2650  -14.5495 O   0  0  0  0  0  0  0  0  0  0  0  0
   19.9091   -5.5344  -15.0783 C   0  0  0  0  0  0  0  0  0  0  0  0
   21.3393   -5.9248  -15.0698 C   0  0  2  0  0  0  0  0  0  0  0  0
   21.5448   -7.2776  -14.5775 N   0  0  0  0  0  0  0  0  0  0  0  0
   22.2285   -4.9672  -14.3713 C   0  0  0  0  0  0  0  0  0  0  0  0
   22.7795   -3.8256  -14.8842 O   0  0  0  0  0  0  0  0  0  0  0  0
   22.5161   -5.2358  -13.1474 O   0  0  0  0  0  0  0  0  0  0  0  0
  2  1  1  1
  3  2  1  0
  3  4  1  0
  4  5  2  0
  6  2  1  0
  6 11  1  0
  7  6  2  0
  8  4  1  0
 10 11  1  0
 10  9  1  6
 12 10  1  0
 12 19  1  0
 13 12  2  0
 15 14  1  0
 16 15  2  0
 17 15  1  0
 18 19  1  0
 18 17  1  1
 20 18  1  0
 21 20  1  0
 22 20  2  0
M  END
$$$$
