DAN.pdb
     RDKit          3D

 22 21  0  0  1  0  0  0  0  0999 V2000
   28.1753  -21.2965  -15.9704 N   0  0  0  0  0  0  0  0  0  0  0  0
   27.4604  -20.3683  -15.1488 C   0  0  1  0  0  0  0  0  0  0  0  0
   26.7954  -19.3531  -16.0861 C   0  0  0  0  0  0  0  0  0  0  0  0
   27.8542  -18.6080  -16.8289 C   0  0  0  0  0  0  0  0  0  0  0  0
   28.7616  -17.9996  -16.1759 O   0  0  0  0  0  0  0  0  0  0  0  0
   26.3698  -20.9793  -14.3493 C   0  0  0  0  0  0  0  0  0  0  0  0
   25.6278  -21.8175  -14.9230 O   0  0  0  0  0  0  0  0  0  0  0  0
   27.8776  -18.5615  -18.2000 O   0  0  0  0  0  0  0  0  0  0  0  0
   25.2558  -20.7737  -10.7829 C   0  0  0  0  0  0  0  0  0  0  0  0
   25.0545  -21.2853  -12.1956 C   0  0  2  0  0  0  0  0  0  0  0  0
   26.1035  -20.6901  -12.9990 N   0  0  0  0  0  0  0  0  0  0  0  0
   23.7055  -20.8902  -12.6977 C   0  0  0  0  0  0  0  0  0  0  0  0
   23.5309  -19.6993  -12.9885 O   0  0  0  0  0  0  0  0  0  0  0  0
   18.4448  -23.5452  -14.8764 N   0  0  0  0  0  0  0  0  0  0  0  0
   19.3478  -22.5575  -14.4419 C   0  0  0  0  0  0  0  0  0  0  0  0
   18.9882  -21.3471  -14.6051 O   0  0  0  0  0  0  0  0  0  0  0  0
   20.6575  -22.7753  -13.8181 C   0  0  0  0  0  0  0  0  0  0  0  0
   21.3357  -21.5601  -13.3066 C   0  0  2  0  0  0  0  0  0  0  0  0
   22.6834  -21.8319  -12.8327 N   0  0  0  0  0  0  0  0  0  0  0  0
   20.5594  -20.8104  -12.2915 C   0  0  0  0  0  0  0  0  0  0  0  0
   19.7460  -19.7317  -12.5036 O   0  0  0  0  0  0  0  0  0  0  0  0
   20.6587  -21.2157  -11.0755 O   0  0  0  0  0  0  0  0  0  0  0  0
  2  1  1  6
  3  2  1  0
  3  4  1  0
  4  5  2  0
  6  2  1  0
  6 11  1  0
  7  6  2  0
  8  4  1  0
 10 11  1  0
 10  9  1  1
 12 10  1  0
 12 19  1  0
 13 12  2  0
 15 14  1  0
 16 15  2  0
 17 15  1  0
 18 19  1  0
 18 17  1  1
 20 18  1  0
 21 20  1  0
 22 20  2  0
M  END
$$$$
