DAN.pdb
     RDKit          3D

 22 21  0  0  1  0  0  0  0  0999 V2000
   18.8648  -11.4502  -17.8087 N   0  0  0  0  0  0  0  0  0  0  0  0
   19.6666  -11.3549  -16.6273 C   0  0  1  0  0  0  0  0  0  0  0  0
   21.1310  -11.4865  -17.0624 C   0  0  0  0  0  0  0  0  0  0  0  0
   21.3543  -12.8538  -17.6176 C   0  0  0  0  0  0  0  0  0  0  0  0
   21.7777  -12.9793  -18.8113 O   0  0  0  0  0  0  0  0  0  0  0  0
   19.5535  -10.0555  -15.9195 C   0  0  0  0  0  0  0  0  0  0  0  0
   19.6682   -9.0077  -16.6059 O   0  0  0  0  0  0  0  0  0  0  0  0
   21.1167  -13.9826  -16.8747 O   0  0  0  0  0  0  0  0  0  0  0  0
   18.8249   -9.0038  -12.4026 C   0  0  0  0  0  0  0  0  0  0  0  0
   19.1818   -8.6515  -13.8332 C   0  0  2  0  0  0  0  0  0  0  0  0
   19.3290   -9.9086  -14.5390 N   0  0  0  0  0  0  0  0  0  0  0  0
   20.4505   -7.8660  -13.8676 C   0  0  0  0  0  0  0  0  0  0  0  0
   21.4870   -8.4687  -14.1768 O   0  0  0  0  0  0  0  0  0  0  0  0
   23.5250   -3.6701  -14.9760 N   0  0  0  0  0  0  0  0  0  0  0  0
   22.9440   -4.6889  -15.7533 C   0  0  0  0  0  0  0  0  0  0  0  0
   23.3327   -4.7728  -16.9629 O   0  0  0  0  0  0  0  0  0  0  0  0
   21.9408   -5.6659  -15.3164 C   0  0  0  0  0  0  0  0  0  0  0  0
   21.5233   -5.5672  -13.8972 C   0  0  2  0  0  0  0  0  0  0  0  0
   20.4621   -6.5034  -13.5623 N   0  0  0  0  0  0  0  0  0  0  0  0
   21.1764   -4.1954  -13.4577 C   0  0  0  0  0  0  0  0  0  0  0  0
   22.0014   -3.2876  -12.8532 O   0  0  0  0  0  0  0  0  0  0  0  0
   19.9670   -3.8124  -13.6661 O   0  0  0  0  0  0  0  0  0  0  0  0
  2  1  1  6
  3  2  1  0
  3  4  1  0
  4  5  2  0
  6  2  1  0
  6 11  1  0
  7  6  2  0
  8  4  1  0
 10 11  1  0
 10  9  1  1
 12 10  1  0
 12 19  1  0
 13 12  2  0
 15 14  1  0
 16 15  2  0
 17 15  1  0
 18 19  1  0
 18 17  1  6
 20 18  1  0
 21 20  1  0
 22 20  2  0
M  END
$$$$
