DAN.pdb
     RDKit          3D

 22 21  0  0  1  0  0  0  0  0999 V2000
   13.7975  -10.1016  -10.1191 N   0  0  0  0  0  0  0  0  0  0  0  0
   15.2044   -9.8407  -10.1138 C   0  0  1  0  0  0  0  0  0  0  0  0
   15.8055  -10.5757  -11.3179 C   0  0  0  0  0  0  0  0  0  0  0  0
   15.6687  -12.0473  -11.1096 C   0  0  0  0  0  0  0  0  0  0  0  0
   14.6828  -12.4920  -10.4386 O   0  0  0  0  0  0  0  0  0  0  0  0
   15.5575   -8.4086  -10.2764 C   0  0  0  0  0  0  0  0  0  0  0  0
   15.6058   -7.9511  -11.4471 O   0  0  0  0  0  0  0  0  0  0  0  0
   16.5779  -12.9370  -11.6239 O   0  0  0  0  0  0  0  0  0  0  0  0
   15.8839   -5.4902   -7.9983 C   0  0  0  0  0  0  0  0  0  0  0  0
   16.1519   -6.1162   -9.3527 C   0  0  2  0  0  0  0  0  0  0  0  0
   15.8431   -7.5258   -9.2197 N   0  0  0  0  0  0  0  0  0  0  0  0
   17.5797   -5.9145   -9.7383 C   0  0  0  0  0  0  0  0  0  0  0  0
   18.4295   -6.6088   -9.1648 O   0  0  0  0  0  0  0  0  0  0  0  0
   21.6834   -5.0915  -13.0266 N   0  0  0  0  0  0  0  0  0  0  0  0
   20.9228   -6.2174  -12.6610 C   0  0  0  0  0  0  0  0  0  0  0  0
   21.3723   -7.3507  -13.0280 O   0  0  0  0  0  0  0  0  0  0  0  0
   19.6693   -6.2232  -11.8991 C   0  0  0  0  0  0  0  0  0  0  0  0
   19.2222   -4.9054  -11.3875 C   0  0  2  0  0  0  0  0  0  0  0  0
   17.9376   -4.9775  -10.7098 N   0  0  0  0  0  0  0  0  0  0  0  0
   19.2254   -3.8248  -12.4012 C   0  0  0  0  0  0  0  0  0  0  0  0
   20.1552   -2.8330  -12.5494 O   0  0  0  0  0  0  0  0  0  0  0  0
   18.2476   -3.8152  -13.2358 O   0  0  0  0  0  0  0  0  0  0  0  0
  2  1  1  6
  3  2  1  0
  3  4  1  0
  4  5  2  0
  6  2  1  0
  6 11  1  0
  7  6  2  0
  8  4  1  0
 10 11  1  0
 10  9  1  1
 12 10  1  0
 12 19  1  0
 13 12  2  0
 15 14  1  0
 16 15  2  0
 17 15  1  0
 18 19  1  0
 18 17  1  6
 20 18  1  0
 21 20  1  0
 22 20  2  0
M  END
$$$$
