DAN.pdb
     RDKit          3D

 22 21  0  0  1  0  0  0  0  0999 V2000
   13.3331   -9.2963  -10.0171 N   0  0  0  0  0  0  0  0  0  0  0  0
   14.7579   -9.4233  -10.0554 C   0  0  1  0  0  0  0  0  0  0  0  0
   15.0896  -10.4834  -11.1125 C   0  0  0  0  0  0  0  0  0  0  0  0
   14.5903  -11.8105  -10.6464 C   0  0  0  0  0  0  0  0  0  0  0  0
   15.2414  -12.4418   -9.7534 O   0  0  0  0  0  0  0  0  0  0  0  0
   15.4674   -8.1857  -10.4641 C   0  0  0  0  0  0  0  0  0  0  0  0
   15.2297   -7.7317  -11.6128 O   0  0  0  0  0  0  0  0  0  0  0  0
   13.4450  -12.3701  -11.1541 O   0  0  0  0  0  0  0  0  0  0  0  0
   17.2918   -5.4772   -8.7746 C   0  0  0  0  0  0  0  0  0  0  0  0
   17.0971   -6.2802  -10.0456 C   0  0  2  0  0  0  0  0  0  0  0  0
   16.3863   -7.4839   -9.6635 N   0  0  0  0  0  0  0  0  0  0  0  0
   18.4202   -6.6093  -10.6530 C   0  0  0  0  0  0  0  0  0  0  0  0
   19.0889   -7.5023  -10.1157 O   0  0  0  0  0  0  0  0  0  0  0  0
   22.4328   -6.6073  -14.3023 N   0  0  0  0  0  0  0  0  0  0  0  0
   21.0983   -6.7383  -14.7284 C   0  0  0  0  0  0  0  0  0  0  0  0
   20.9182   -6.9978  -15.9619 O   0  0  0  0  0  0  0  0  0  0  0  0
   19.8936   -6.6109  -13.9012 C   0  0  0  0  0  0  0  0  0  0  0  0
   20.1211   -6.2091  -12.4923 C   0  0  2  0  0  0  0  0  0  0  0  0
   18.8811   -5.9330  -11.7845 N   0  0  0  0  0  0  0  0  0  0  0  0
   21.0852   -5.0968  -12.3236 C   0  0  0  0  0  0  0  0  0  0  0  0
   22.4409   -5.1935  -12.1732 O   0  0  0  0  0  0  0  0  0  0  0  0
   20.5971   -3.9074  -12.3176 O   0  0  0  0  0  0  0  0  0  0  0  0
  2  1  1  6
  3  2  1  0
  3  4  1  0
  4  5  2  0
  6  2  1  0
  6 11  1  0
  7  6  2  0
  8  4  1  0
 10 11  1  0
 10  9  1  1
 12 10  1  0
 12 19  1  0
 13 12  2  0
 15 14  1  0
 16 15  2  0
 17 15  1  0
 18 19  1  0
 18 17  1  6
 20 18  1  0
 21 20  1  0
 22 20  2  0
M  END
$$$$
