DAN.pdb
     RDKit          3D

 22 21  0  0  1  0  0  0  0  0999 V2000
   13.5391  -10.2889  -11.2173 N   0  0  0  0  0  0  0  0  0  0  0  0
   14.8909  -10.1716  -10.7626 C   0  0  1  0  0  0  0  0  0  0  0  0
   15.7680  -10.9598  -11.7428 C   0  0  0  0  0  0  0  0  0  0  0  0
   15.4522  -12.4134  -11.6203 C   0  0  0  0  0  0  0  0  0  0  0  0
   14.7365  -12.8150  -10.6475 O   0  0  0  0  0  0  0  0  0  0  0  0
   15.4114   -8.7820  -10.7566 C   0  0  0  0  0  0  0  0  0  0  0  0
   15.4303   -8.1635  -11.8517 O   0  0  0  0  0  0  0  0  0  0  0  0
   15.9122  -13.3315  -12.5304 O   0  0  0  0  0  0  0  0  0  0  0  0
   16.3887   -6.3197   -8.1374 C   0  0  0  0  0  0  0  0  0  0  0  0
   16.4021   -6.7521   -9.5903 C   0  0  2  0  0  0  0  0  0  0  0  0
   15.8862   -8.1061   -9.6184 N   0  0  0  0  0  0  0  0  0  0  0  0
   17.7927   -6.6973  -10.1298 C   0  0  0  0  0  0  0  0  0  0  0  0
   18.5728   -7.5968   -9.7899 O   0  0  0  0  0  0  0  0  0  0  0  0
   21.6753   -5.8899  -13.6743 N   0  0  0  0  0  0  0  0  0  0  0  0
   20.7505   -6.9282  -13.4585 C   0  0  0  0  0  0  0  0  0  0  0  0
   20.9205   -7.9913  -14.1382 O   0  0  0  0  0  0  0  0  0  0  0  0
   19.6140   -6.9160  -12.5312 C   0  0  0  0  0  0  0  0  0  0  0  0
   19.4088   -5.6526  -11.7829 C   0  0  2  0  0  0  0  0  0  0  0  0
   18.1930   -5.6687  -10.9852 N   0  0  0  0  0  0  0  0  0  0  0  0
   19.4766   -4.4311  -12.6188 C   0  0  0  0  0  0  0  0  0  0  0  0
   18.4384   -3.6171  -12.9789 O   0  0  0  0  0  0  0  0  0  0  0  0
   20.6383   -4.0959  -13.0557 O   0  0  0  0  0  0  0  0  0  0  0  0
  2  1  1  6
  3  2  1  0
  3  4  1  0
  4  5  2  0
  6  2  1  0
  6 11  1  0
  7  6  2  0
  8  4  1  0
 10 11  1  0
 10  9  1  1
 12 10  1  0
 12 19  1  0
 13 12  2  0
 15 14  1  0
 16 15  2  0
 17 15  1  0
 18 19  1  0
 18 17  1  6
 20 18  1  0
 21 20  1  0
 22 20  2  0
M  END
$$$$
