DAN.pdb
     RDKit          3D

 22 21  0  0  1  0  0  0  0  0999 V2000
   17.9480  -11.4994  -16.6394 N   0  0  0  0  0  0  0  0  0  0  0  0
   18.9729  -10.5297  -16.8780 C   0  0  1  0  0  0  0  0  0  0  0  0
   18.2765   -9.2270  -17.2891 C   0  0  0  0  0  0  0  0  0  0  0  0
   17.7056   -9.3896  -18.6585 C   0  0  0  0  0  0  0  0  0  0  0  0
   17.9973  -10.4273  -19.3352 O   0  0  0  0  0  0  0  0  0  0  0  0
   19.7950  -10.2086  -15.6851 C   0  0  0  0  0  0  0  0  0  0  0  0
   19.1917  -10.0121  -14.5990 O   0  0  0  0  0  0  0  0  0  0  0  0
   16.8714   -8.4498  -19.2095 O   0  0  0  0  0  0  0  0  0  0  0  0
   23.4356  -10.2140  -14.8935 C   0  0  0  0  0  0  0  0  0  0  0  0
   22.0212   -9.8140  -14.5229 C   0  0  2  0  0  0  0  0  0  0  0  0
   21.1976  -10.1064  -15.6789 N   0  0  0  0  0  0  0  0  0  0  0  0
   21.9706   -8.3615  -14.1826 C   0  0  0  0  0  0  0  0  0  0  0  0
   22.5957   -7.9877  -13.1812 O   0  0  0  0  0  0  0  0  0  0  0  0
   20.8905   -3.0885  -14.6150 N   0  0  0  0  0  0  0  0  0  0  0  0
   21.9220   -3.7649  -15.2919 C   0  0  0  0  0  0  0  0  0  0  0  0
   22.7904   -3.0392  -15.8754 O   0  0  0  0  0  0  0  0  0  0  0  0
   22.1042   -5.2169  -15.3932 C   0  0  0  0  0  0  0  0  0  0  0  0
   21.0841   -6.0422  -14.7029 C   0  0  2  0  0  0  0  0  0  0  0  0
   21.2448   -7.4631  -14.9674 N   0  0  0  0  0  0  0  0  0  0  0  0
   19.6868   -5.6138  -14.9462 C   0  0  0  0  0  0  0  0  0  0  0  0
   18.9706   -4.6886  -14.2382 O   0  0  0  0  0  0  0  0  0  0  0  0
   19.0767   -6.1711  -15.9310 O   0  0  0  0  0  0  0  0  0  0  0  0
  2  1  1  1
  3  2  1  0
  3  4  1  0
  4  5  2  0
  6  2  1  0
  6 11  1  0
  7  6  2  0
  8  4  1  0
 10 11  1  0
 10  9  1  6
 12 10  1  0
 12 19  1  0
 13 12  2  0
 15 14  1  0
 16 15  2  0
 17 15  1  0
 18 19  1  0
 18 17  1  6
 20 18  1  0
 21 20  1  0
 22 20  2  0
M  END
$$$$
