DAN.pdb
     RDKit          3D

 22 21  0  0  1  0  0  0  0  0999 V2000
   27.2601  -36.4633   -3.2656 N   0  0  0  0  0  0  0  0  0  0  0  0
   27.1975  -35.1105   -2.8034 C   0  0  1  0  0  0  0  0  0  0  0  0
   26.0712  -34.4184   -3.5804 C   0  0  0  0  0  0  0  0  0  0  0  0
   26.1470  -32.9468   -3.3431 C   0  0  0  0  0  0  0  0  0  0  0  0
   25.3020  -32.1809   -3.9082 O   0  0  0  0  0  0  0  0  0  0  0  0
   26.8605  -34.9750   -1.3646 C   0  0  0  0  0  0  0  0  0  0  0  0
   25.6715  -35.2014   -1.0222 O   0  0  0  0  0  0  0  0  0  0  0  0
   27.1040  -32.3949   -2.5293 O   0  0  0  0  0  0  0  0  0  0  0  0
   28.8163  -34.5835    1.7752 C   0  0  0  0  0  0  0  0  0  0  0  0
   27.4799  -34.5357    1.0614 C   0  0  2  0  0  0  0  0  0  0  0  0
   27.7709  -34.6114   -0.3563 N   0  0  0  0  0  0  0  0  0  0  0  0
   26.7645  -33.2687    1.3946 C   0  0  0  0  0  0  0  0  0  0  0  0
   26.5539  -32.4720    0.4704 O   0  0  0  0  0  0  0  0  0  0  0  0
   22.6143  -29.8309    1.9670 N   0  0  0  0  0  0  0  0  0  0  0  0
   23.3577  -30.6991    2.7875 C   0  0  0  0  0  0  0  0  0  0  0  0
   23.2121  -30.5572    4.0444 O   0  0  0  0  0  0  0  0  0  0  0  0
   24.2797  -31.7519    2.3477 C   0  0  0  0  0  0  0  0  0  0  0  0
   25.5425  -31.8626    3.1166 C   0  0  2  0  0  0  0  0  0  0  0  0
   26.3505  -32.9977    2.7004 N   0  0  0  0  0  0  0  0  0  0  0  0
   25.3635  -31.8519    4.5874 C   0  0  0  0  0  0  0  0  0  0  0  0
   25.5338  -30.7909    5.4332 O   0  0  0  0  0  0  0  0  0  0  0  0
   25.0089  -32.9609    5.1326 O   0  0  0  0  0  0  0  0  0  0  0  0
  2  1  1  6
  3  2  1  0
  3  4  1  0
  4  5  2  0
  6  2  1  0
  6 11  1  0
  7  6  2  0
  8  4  1  0
 10 11  1  0
 10  9  1  1
 12 10  1  0
 12 19  1  0
 13 12  2  0
 15 14  1  0
 16 15  2  0
 17 15  1  0
 18 19  1  0
 18 17  1  6
 20 18  1  0
 21 20  1  0
 22 20  2  0
M  END
$$$$
