DAN.pdb
     RDKit          3D

 22 21  0  0  1  0  0  0  0  0999 V2000
   18.7672  -13.6581  -17.0708 N   0  0  0  0  0  0  0  0  0  0  0  0
   18.0196  -12.5224  -16.6246 C   0  0  1  0  0  0  0  0  0  0  0  0
   17.8069  -12.6854  -15.1148 C   0  0  0  0  0  0  0  0  0  0  0  0
   16.8494  -13.8050  -14.8748 C   0  0  0  0  0  0  0  0  0  0  0  0
   15.7009  -13.7698  -15.4222 O   0  0  0  0  0  0  0  0  0  0  0  0
   18.7149  -11.2251  -16.8134 C   0  0  0  0  0  0  0  0  0  0  0  0
   19.8837  -11.1206  -16.3607 O   0  0  0  0  0  0  0  0  0  0  0  0
   17.1739  -14.8748  -14.0793 O   0  0  0  0  0  0  0  0  0  0  0  0
   17.9716   -8.0894  -18.7009 C   0  0  0  0  0  0  0  0  0  0  0  0
   18.8581   -8.8648  -17.7465 C   0  0  2  0  0  0  0  0  0  0  0  0
   18.1638  -10.1040  -17.4594 N   0  0  0  0  0  0  0  0  0  0  0  0
   19.0841   -8.0759  -16.4997 C   0  0  0  0  0  0  0  0  0  0  0  0
   18.2933   -8.2497  -15.5629 O   0  0  0  0  0  0  0  0  0  0  0  0
   22.6011   -5.4033  -12.7260 N   0  0  0  0  0  0  0  0  0  0  0  0
   22.2455   -5.0945  -14.0519 C   0  0  0  0  0  0  0  0  0  0  0  0
   22.2375   -3.8605  -14.3656 O   0  0  0  0  0  0  0  0  0  0  0  0
   21.8866   -6.0439  -15.1109 C   0  0  0  0  0  0  0  0  0  0  0  0
   20.4389   -6.3299  -15.2539 C   0  0  2  0  0  0  0  0  0  0  0  0
   20.1488   -7.1780  -16.3991 N   0  0  0  0  0  0  0  0  0  0  0  0
   19.5767   -5.1249  -15.2566 C   0  0  0  0  0  0  0  0  0  0  0  0
   19.0107   -4.5110  -14.1736 O   0  0  0  0  0  0  0  0  0  0  0  0
   19.3314   -4.5948  -16.4018 O   0  0  0  0  0  0  0  0  0  0  0  0
  2  1  1  1
  3  2  1  0
  3  4  1  0
  4  5  2  0
  6  2  1  0
  6 11  1  0
  7  6  2  0
  8  4  1  0
 10 11  1  0
 10  9  1  6
 12 10  1  0
 12 19  1  0
 13 12  2  0
 15 14  1  0
 16 15  2  0
 17 15  1  0
 18 19  1  0
 18 17  1  6
 20 18  1  0
 21 20  1  0
 22 20  2  0
M  END
$$$$
