DAN.pdb
     RDKit          3D

 22 21  0  0  1  0  0  0  0  0999 V2000
   23.3705   -7.8110  -18.5693 N   0  0  0  0  0  0  0  0  0  0  0  0
   22.8691   -7.6964  -17.2340 C   0  0  1  0  0  0  0  0  0  0  0  0
   23.9773   -7.0585  -16.3877 C   0  0  0  0  0  0  0  0  0  0  0  0
   25.1532   -7.9770  -16.3506 C   0  0  0  0  0  0  0  0  0  0  0  0
   26.2958   -7.5398  -16.7015 O   0  0  0  0  0  0  0  0  0  0  0  0
   21.6817   -6.8158  -17.1044 C   0  0  0  0  0  0  0  0  0  0  0  0
   21.7010   -5.7194  -17.7206 O   0  0  0  0  0  0  0  0  0  0  0  0
   25.0369   -9.2830  -15.9462 O   0  0  0  0  0  0  0  0  0  0  0  0
   18.3515   -7.0788  -15.4179 C   0  0  0  0  0  0  0  0  0  0  0  0
   19.3631   -6.2767  -16.2125 C   0  0  2  0  0  0  0  0  0  0  0  0
   20.5377   -7.1154  -16.3433 N   0  0  0  0  0  0  0  0  0  0  0  0
   19.6879   -5.0073  -15.4976 C   0  0  0  0  0  0  0  0  0  0  0  0
   20.7360   -4.9752  -14.8390 O   0  0  0  0  0  0  0  0  0  0  0  0
   19.9196    0.2196  -14.4576 N   0  0  0  0  0  0  0  0  0  0  0  0
   20.7095   -0.6406  -15.2423 C   0  0  0  0  0  0  0  0  0  0  0  0
   21.7968   -0.1580  -15.6962 O   0  0  0  0  0  0  0  0  0  0  0  0
   20.4142   -2.0350  -15.5894 C   0  0  0  0  0  0  0  0  0  0  0  0
   19.1331   -2.5693  -15.0685 C   0  0  2  0  0  0  0  0  0  0  0  0
   18.8388   -3.9013  -15.5727 N   0  0  0  0  0  0  0  0  0  0  0  0
   17.9743   -1.6652  -15.2558 C   0  0  0  0  0  0  0  0  0  0  0  0
   17.3153   -1.3970  -16.4237 O   0  0  0  0  0  0  0  0  0  0  0  0
   17.5370   -1.0645  -14.2067 O   0  0  0  0  0  0  0  0  0  0  0  0
  2  1  1  6
  3  2  1  0
  3  4  1  0
  4  5  2  0
  6  2  1  0
  6 11  1  0
  7  6  2  0
  8  4  1  0
 10 11  1  0
 10  9  1  1
 12 10  1  0
 12 19  1  0
 13 12  2  0
 15 14  1  0
 16 15  2  0
 17 15  1  0
 18 19  1  0
 18 17  1  6
 20 18  1  0
 21 20  1  0
 22 20  2  0
M  END
$$$$
