DAN.pdb
     RDKit          3D

 22 21  0  0  1  0  0  0  0  0999 V2000
   43.8594  -12.2077   -6.7843 N   0  0  0  0  0  0  0  0  0  0  0  0
   43.1594  -11.2014   -7.5226 C   0  0  1  0  0  0  0  0  0  0  0  0
   42.0046  -11.8971   -8.2531 C   0  0  0  0  0  0  0  0  0  0  0  0
   42.5596  -12.7377   -9.3545 C   0  0  0  0  0  0  0  0  0  0  0  0
   42.8003  -12.2035  -10.4844 O   0  0  0  0  0  0  0  0  0  0  0  0
   42.5475  -10.1446   -6.6795 C   0  0  0  0  0  0  0  0  0  0  0  0
   41.6345  -10.4899   -5.8861 O   0  0  0  0  0  0  0  0  0  0  0  0
   42.8196  -14.0739   -9.1824 O   0  0  0  0  0  0  0  0  0  0  0  0
   43.3274   -6.6560   -5.7406 C   0  0  0  0  0  0  0  0  0  0  0  0
   42.2732   -7.7249   -5.9502 C   0  0  2  0  0  0  0  0  0  0  0  0
   42.9114   -8.7864   -6.7025 N   0  0  0  0  0  0  0  0  0  0  0  0
   41.1116   -7.1610   -6.6991 C   0  0  0  0  0  0  0  0  0  0  0  0
   40.8203   -7.6873   -7.7814 O   0  0  0  0  0  0  0  0  0  0  0  0
   36.2737   -5.0711   -7.4195 N   0  0  0  0  0  0  0  0  0  0  0  0
   36.7029   -6.3412   -6.9926 C   0  0  0  0  0  0  0  0  0  0  0  0
   35.8223   -7.2604   -6.9680 O   0  0  0  0  0  0  0  0  0  0  0  0
   38.0581   -6.7185   -6.5763 C   0  0  0  0  0  0  0  0  0  0  0  0
   39.0777   -5.6453   -6.6589 C   0  0  2  0  0  0  0  0  0  0  0  0
   40.3846   -6.0814   -6.1933 N   0  0  0  0  0  0  0  0  0  0  0  0
   38.6807   -4.3756   -6.0065 C   0  0  0  0  0  0  0  0  0  0  0  0
   38.5869   -4.1298   -4.6645 O   0  0  0  0  0  0  0  0  0  0  0  0
   38.3917   -3.3940   -6.7847 O   0  0  0  0  0  0  0  0  0  0  0  0
  2  1  1  1
  3  2  1  0
  3  4  1  0
  4  5  2  0
  6  2  1  0
  6 11  1  0
  7  6  2  0
  8  4  1  0
 10 11  1  0
 10  9  1  6
 12 10  1  0
 12 19  1  0
 13 12  2  0
 15 14  1  0
 16 15  2  0
 17 15  1  0
 18 19  1  0
 18 17  1  1
 20 18  1  0
 21 20  1  0
 22 20  2  0
M  END
$$$$
