DAN.pdb
     RDKit          3D

 22 21  0  0  1  0  0  0  0  0999 V2000
   18.6158  -14.1307  -16.2558 N   0  0  0  0  0  0  0  0  0  0  0  0
   18.1699  -12.7948  -16.5094 C   0  0  1  0  0  0  0  0  0  0  0  0
   17.2363  -12.4031  -15.3578 C   0  0  0  0  0  0  0  0  0  0  0  0
   16.0257  -13.2754  -15.3924 C   0  0  0  0  0  0  0  0  0  0  0  0
   15.3532  -13.3642  -16.4693 O   0  0  0  0  0  0  0  0  0  0  0  0
   19.2573  -11.7852  -16.5310 C   0  0  0  0  0  0  0  0  0  0  0  0
   20.0719  -11.7876  -15.5727 O   0  0  0  0  0  0  0  0  0  0  0  0
   15.6171  -13.9875  -14.2931 O   0  0  0  0  0  0  0  0  0  0  0  0
   20.5692   -9.3797  -19.0519 C   0  0  0  0  0  0  0  0  0  0  0  0
   20.5378   -9.8787  -17.6208 C   0  0  2  0  0  0  0  0  0  0  0  0
   19.4437  -10.8257  -17.5422 N   0  0  0  0  0  0  0  0  0  0  0  0
   20.3264   -8.7368  -16.6831 C   0  0  0  0  0  0  0  0  0  0  0  0
   19.1586   -8.4454  -16.3923 O   0  0  0  0  0  0  0  0  0  0  0  0
   22.2955   -5.6811  -12.1246 N   0  0  0  0  0  0  0  0  0  0  0  0
   22.5843   -5.6152  -13.5001 C   0  0  0  0  0  0  0  0  0  0  0  0
   22.8804   -4.4672  -13.9644 O   0  0  0  0  0  0  0  0  0  0  0  0
   22.5834   -6.7295  -14.4541 C   0  0  0  0  0  0  0  0  0  0  0  0
   21.3224   -6.9291  -15.2079 C   0  0  2  0  0  0  0  0  0  0  0  0
   21.4082   -8.0280  -16.1565 N   0  0  0  0  0  0  0  0  0  0  0  0
   20.8029   -5.7053  -15.8620 C   0  0  0  0  0  0  0  0  0  0  0  0
   19.9841   -4.7581  -15.3121 O   0  0  0  0  0  0  0  0  0  0  0  0
   21.1593   -5.5085  -17.0814 O   0  0  0  0  0  0  0  0  0  0  0  0
  2  1  1  1
  3  2  1  0
  3  4  1  0
  4  5  2  0
  6  2  1  0
  6 11  1  0
  7  6  2  0
  8  4  1  0
 10 11  1  0
 10  9  1  6
 12 10  1  0
 12 19  1  0
 13 12  2  0
 15 14  1  0
 16 15  2  0
 17 15  1  0
 18 19  1  0
 18 17  1  6
 20 18  1  0
 21 20  1  0
 22 20  2  0
M  END
$$$$
