DAN.pdb
     RDKit          3D

 22 21  0  0  1  0  0  0  0  0999 V2000
   13.4641  -10.0261  -11.0785 N   0  0  0  0  0  0  0  0  0  0  0  0
   14.7675   -9.9073  -10.4999 C   0  0  1  0  0  0  0  0  0  0  0  0
   15.6370  -11.0119  -11.1123 C   0  0  0  0  0  0  0  0  0  0  0  0
   15.0635  -12.3416  -10.7504 C   0  0  0  0  0  0  0  0  0  0  0  0
   15.0974  -13.2866  -11.6023 O   0  0  0  0  0  0  0  0  0  0  0  0
   15.4490   -8.6229  -10.7965 C   0  0  0  0  0  0  0  0  0  0  0  0
   15.4859   -8.2480  -11.9966 O   0  0  0  0  0  0  0  0  0  0  0  0
   14.5005  -12.5748   -9.5211 O   0  0  0  0  0  0  0  0  0  0  0  0
   16.8362   -5.8011   -8.8090 C   0  0  0  0  0  0  0  0  0  0  0  0
   16.7919   -6.5763  -10.1110 C   0  0  2  0  0  0  0  0  0  0  0  0
   16.0575   -7.7950   -9.8363 N   0  0  0  0  0  0  0  0  0  0  0  0
   18.1776   -6.8790  -10.5759 C   0  0  0  0  0  0  0  0  0  0  0  0
   18.6564   -7.9781  -10.2660 O   0  0  0  0  0  0  0  0  0  0  0  0
   22.4024   -6.9377  -13.8164 N   0  0  0  0  0  0  0  0  0  0  0  0
   21.2476   -7.7323  -13.6950 C   0  0  0  0  0  0  0  0  0  0  0  0
   21.2229   -8.8073  -14.3767 O   0  0  0  0  0  0  0  0  0  0  0  0
   20.0713   -7.4544  -12.8637 C   0  0  0  0  0  0  0  0  0  0  0  0
   20.1425   -6.2233  -12.0405 C   0  0  2  0  0  0  0  0  0  0  0  0
   18.9015   -5.9545  -11.3316 N   0  0  0  0  0  0  0  0  0  0  0  0
   20.6010   -5.0227  -12.7778 C   0  0  0  0  0  0  0  0  0  0  0  0
   21.8012   -4.3804  -12.6469 O   0  0  0  0  0  0  0  0  0  0  0  0
   19.7829   -4.5269  -13.6366 O   0  0  0  0  0  0  0  0  0  0  0  0
  2  1  1  6
  3  2  1  0
  3  4  1  0
  4  5  2  0
  6  2  1  0
  6 11  1  0
  7  6  2  0
  8  4  1  0
 10 11  1  0
 10  9  1  1
 12 10  1  0
 12 19  1  0
 13 12  2  0
 15 14  1  0
 16 15  2  0
 17 15  1  0
 18 19  1  0
 18 17  1  6
 20 18  1  0
 21 20  1  0
 22 20  2  0
M  END
$$$$
