DAN.pdb
     RDKit          3D

 22 21  0  0  1  0  0  0  0  0999 V2000
   18.1149  -12.1583  -16.2124 N   0  0  0  0  0  0  0  0  0  0  0  0
   18.2544  -10.7689  -16.5253 C   0  0  1  0  0  0  0  0  0  0  0  0
   16.8805  -10.1190  -16.3221 C   0  0  0  0  0  0  0  0  0  0  0  0
   15.9581  -10.5799  -17.4013 C   0  0  0  0  0  0  0  0  0  0  0  0
   14.9271  -11.2585  -17.0910 O   0  0  0  0  0  0  0  0  0  0  0  0
   19.1990  -10.0395  -15.6433 C   0  0  0  0  0  0  0  0  0  0  0  0
   19.0314  -10.1421  -14.4009 O   0  0  0  0  0  0  0  0  0  0  0  0
   16.1905  -10.2905  -18.7223 O   0  0  0  0  0  0  0  0  0  0  0  0
   22.3020   -8.0230  -16.1772 C   0  0  0  0  0  0  0  0  0  0  0  0
   21.2297   -8.5615  -15.2509 C   0  0  2  0  0  0  0  0  0  0  0  0
   20.2660   -9.2414  -16.0931 N   0  0  0  0  0  0  0  0  0  0  0  0
   20.5893   -7.4414  -14.5004 C   0  0  0  0  0  0  0  0  0  0  0  0
   19.6764   -6.8241  -15.0651 O   0  0  0  0  0  0  0  0  0  0  0  0
   19.0633   -4.2224  -10.5058 N   0  0  0  0  0  0  0  0  0  0  0  0
   19.3773   -5.5545  -10.1792 C   0  0  0  0  0  0  0  0  0  0  0  0
   19.0741   -5.9382   -9.0036 O   0  0  0  0  0  0  0  0  0  0  0  0
   20.0136   -6.5480  -11.0509 C   0  0  0  0  0  0  0  0  0  0  0  0
   20.4431   -6.0543  -12.3813 C   0  0  2  0  0  0  0  0  0  0  0  0
   21.0075   -7.1071  -13.2107 N   0  0  0  0  0  0  0  0  0  0  0  0
   21.3436   -4.8787  -12.3338 C   0  0  0  0  0  0  0  0  0  0  0  0
   20.9829   -3.5598  -12.3541 O   0  0  0  0  0  0  0  0  0  0  0  0
   22.6043   -5.1212  -12.2657 O   0  0  0  0  0  0  0  0  0  0  0  0
  2  1  1  1
  3  2  1  0
  3  4  1  0
  4  5  2  0
  6  2  1  0
  6 11  1  0
  7  6  2  0
  8  4  1  0
 10 11  1  0
 10  9  1  6
 12 10  1  0
 12 19  1  0
 13 12  2  0
 15 14  1  0
 16 15  2  0
 17 15  1  0
 18 19  1  0
 18 17  1  1
 20 18  1  0
 21 20  1  0
 22 20  2  0
M  END
$$$$
