VWG.pdb
     RDKit          3D

 26 27  0  0  1  0  0  0  0  0999 V2000
    7.3629  -13.7816   19.5845 C   0  0  0  0  0  0  0  0  0  0  0  0
    8.0022  -13.8228   20.9496 C   0  0  1  0  0  0  0  0  0  0  0  0
    7.0864  -13.3742   22.0502 C   0  0  0  0  0  0  0  0  0  0  0  0
    8.6184  -15.1661   21.1912 C   0  0  2  0  0  0  0  0  0  0  0  0
    7.6812  -16.2479   21.2630 N   0  0  0  0  0  0  0  0  0  0  0  0
    9.3863  -15.1047   22.4662 C   0  0  0  0  0  0  0  0  0  0  0  0
   10.2186  -14.1883   22.6906 O   0  0  0  0  0  0  0  0  0  0  0  0
    9.2042  -16.0782   23.4696 N   0  0  0  0  0  0  0  0  0  0  0  0
    9.8364  -16.0312   24.7728 C   0  0  1  0  0  0  0  0  0  0  0  0
    8.7868  -16.3403   25.8083 C   0  0  0  0  0  0  0  0  0  0  0  0
    7.6608  -15.3715   25.7645 C   0  0  0  0  0  0  0  0  0  0  0  0
    6.3695  -15.6798   25.3958 C   0  0  0  0  0  0  0  0  0  0  0  0
    5.6141  -14.5500   25.4759 N   0  0  0  0  0  0  0  0  0  0  0  0
    6.3633  -13.5201   25.8819 C   0  0  0  0  0  0  0  0  0  0  0  0
    6.1501  -12.1737   26.1373 C   0  0  0  0  0  0  0  0  0  0  0  0
    7.1590  -11.3467   26.5585 C   0  0  0  0  0  0  0  0  0  0  0  0
    8.4369  -11.8404   26.7429 C   0  0  0  0  0  0  0  0  0  0  0  0
    8.6476  -13.1780   26.4888 C   0  0  0  0  0  0  0  0  0  0  0  0
    7.6499  -14.0284   26.0650 C   0  0  0  0  0  0  0  0  0  0  0  0
   10.9482  -16.9953   24.7618 C   0  0  0  0  0  0  0  0  0  0  0  0
   11.4254  -17.3472   25.8711 O   0  0  0  0  0  0  0  0  0  0  0  0
   11.5030  -17.5419   23.5764 N   0  0  0  0  0  0  0  0  0  0  0  0
   12.4974  -18.5644   23.5385 C   0  0  0  0  0  0  0  0  0  0  0  0
   13.8389  -17.9504   23.6090 C   0  0  0  0  0  0  0  0  0  0  0  0
   13.9378  -16.6055   23.9234 O   0  0  0  0  0  0  0  0  0  0  0  0
   14.8947  -18.5742   23.4014 O   0  0  0  0  0  0  0  0  0  0  0  0
  2  1  1  6
  2  4  1  0
  3  2  1  0
  4  5  1  1
  6  8  1  0
  6  4  1  0
  7  6  2  0
  9  8  1  0
 10 11  1  0
  9 10  1  1
 11 12  2  0
 11 19  1  0
 12 13  1  0
 13 14  1  0
 14 15  2  0
 15 16  1  0
 17 16  2  0
 18 17  1  0
 19 18  2  0
 19 14  1  0
 20  9  1  0
 20 22  1  0
 21 20  2  0
 23 22  1  0
 24 23  1  0
 25 24  1  0
 26 24  2  0
M  END
$$$$
