VWG.pdb
     RDKit          3D

 26 27  0  0  1  0  0  0  0  0999 V2000
    8.3434  -12.7986   20.5154 C   0  0  0  0  0  0  0  0  0  0  0  0
    7.4378  -13.9384   20.9090 C   0  0  1  0  0  0  0  0  0  0  0  0
    6.2750  -14.1238   19.9791 C   0  0  0  0  0  0  0  0  0  0  0  0
    8.2396  -15.1847   21.1237 C   0  0  2  0  0  0  0  0  0  0  0  0
    7.4586  -16.3725   21.3055 N   0  0  0  0  0  0  0  0  0  0  0  0
    9.1023  -14.9840   22.3215 C   0  0  0  0  0  0  0  0  0  0  0  0
    9.8874  -14.0050   22.4114 O   0  0  0  0  0  0  0  0  0  0  0  0
    9.0669  -15.8908   23.4005 N   0  0  0  0  0  0  0  0  0  0  0  0
    9.9123  -15.7927   24.5735 C   0  0  1  0  0  0  0  0  0  0  0  0
    9.0574  -16.0616   25.7844 C   0  0  0  0  0  0  0  0  0  0  0  0
    7.8362  -15.2150   25.8015 C   0  0  0  0  0  0  0  0  0  0  0  0
    6.5780  -15.6388   25.4328 C   0  0  0  0  0  0  0  0  0  0  0  0
    5.7107  -14.5994   25.5774 N   0  0  0  0  0  0  0  0  0  0  0  0
    6.3554  -13.5174   26.0253 C   0  0  0  0  0  0  0  0  0  0  0  0
    6.0075  -12.2145   26.3495 C   0  0  0  0  0  0  0  0  0  0  0  0
    6.9318  -11.3076   26.7995 C   0  0  0  0  0  0  0  0  0  0  0  0
    8.2570  -11.6731   26.9446 C   0  0  0  0  0  0  0  0  0  0  0  0
    8.6014  -12.9676   26.6222 C   0  0  0  0  0  0  0  0  0  0  0  0
    7.6907  -13.8964   26.1683 C   0  0  0  0  0  0  0  0  0  0  0  0
   11.0127  -16.7560   24.4094 C   0  0  0  0  0  0  0  0  0  0  0  0
   10.7428  -17.9773   24.5427 O   0  0  0  0  0  0  0  0  0  0  0  0
   12.3477  -16.3812   24.1117 N   0  0  0  0  0  0  0  0  0  0  0  0
   13.4437  -17.2884   24.0029 C   0  0  0  0  0  0  0  0  0  0  0  0
   14.6534  -16.5521   23.5834 C   0  0  0  0  0  0  0  0  0  0  0  0
   15.8579  -17.2325   23.5250 O   0  0  0  0  0  0  0  0  0  0  0  0
   14.6554  -15.3467   23.2765 O   0  0  0  0  0  0  0  0  0  0  0  0
  2  1  1  6
  2  4  1  0
  3  2  1  0
  4  5  1  1
  6  8  1  0
  6  4  1  0
  7  6  2  0
  9  8  1  0
 10 11  1  0
  9 10  1  1
 11 12  2  0
 11 19  1  0
 12 13  1  0
 13 14  1  0
 14 15  2  0
 15 16  1  0
 17 16  2  0
 18 17  1  0
 19 18  2  0
 19 14  1  0
 20  9  1  0
 20 22  1  0
 21 20  2  0
 23 22  1  0
 24 23  1  0
 25 24  1  0
 26 24  2  0
M  END
$$$$
