VWG.pdb
     RDKit          3D

 26 27  0  0  1  0  0  0  0  0999 V2000
    7.3939  -13.9408   19.1223 C   0  0  0  0  0  0  0  0  0  0  0  0
    8.0397  -13.8517   20.4821 C   0  0  1  0  0  0  0  0  0  0  0  0
    7.1257  -13.3098   21.5415 C   0  0  0  0  0  0  0  0  0  0  0  0
    8.6665  -15.1628   20.8432 C   0  0  2  0  0  0  0  0  0  0  0  0
    7.7490  -16.2608   20.9225 N   0  0  0  0  0  0  0  0  0  0  0  0
    9.3504  -15.0069   22.1575 C   0  0  0  0  0  0  0  0  0  0  0  0
   10.1332  -14.0481   22.3832 O   0  0  0  0  0  0  0  0  0  0  0  0
    9.1413  -15.9349   23.1980 N   0  0  0  0  0  0  0  0  0  0  0  0
    9.8013  -15.8743   24.4868 C   0  0  1  0  0  0  0  0  0  0  0  0
    8.7814  -16.2031   25.5455 C   0  0  0  0  0  0  0  0  0  0  0  0
    7.6543  -15.2347   25.5512 C   0  0  0  0  0  0  0  0  0  0  0  0
    6.3950  -15.4878   25.0525 C   0  0  0  0  0  0  0  0  0  0  0  0
    5.6274  -14.3773   25.2288 N   0  0  0  0  0  0  0  0  0  0  0  0
    6.3380  -13.4130   25.8222 C   0  0  0  0  0  0  0  0  0  0  0  0
    6.0970  -12.1126   26.2400 C   0  0  0  0  0  0  0  0  0  0  0  0
    7.0669  -11.3519   26.8398 C   0  0  0  0  0  0  0  0  0  0  0  0
    8.3320  -11.8688   27.0479 C   0  0  0  0  0  0  0  0  0  0  0  0
    8.5703  -13.1607   26.6324 C   0  0  0  0  0  0  0  0  0  0  0  0
    7.6119  -13.9441   26.0277 C   0  0  0  0  0  0  0  0  0  0  0  0
   10.9315  -16.8162   24.4513 C   0  0  0  0  0  0  0  0  0  0  0  0
   10.7127  -18.0026   24.8074 O   0  0  0  0  0  0  0  0  0  0  0  0
   12.2408  -16.4579   24.0405 N   0  0  0  0  0  0  0  0  0  0  0  0
   13.3664  -17.3349   24.0504 C   0  0  0  0  0  0  0  0  0  0  0  0
   14.5301  -16.6501   23.4518 C   0  0  0  0  0  0  0  0  0  0  0  0
   15.5342  -16.1929   24.2886 O   0  0  0  0  0  0  0  0  0  0  0  0
   14.6640  -16.4578   22.2303 O   0  0  0  0  0  0  0  0  0  0  0  0
  2  1  1  6
  2  4  1  0
  3  2  1  0
  4  5  1  1
  6  8  1  0
  6  4  1  0
  7  6  2  0
  9  8  1  0
 10 11  1  0
  9 10  1  1
 11 12  2  0
 11 19  1  0
 12 13  1  0
 13 14  1  0
 14 15  2  0
 15 16  1  0
 17 16  2  0
 18 17  1  0
 19 18  2  0
 19 14  1  0
 20  9  1  0
 20 22  1  0
 21 20  2  0
 23 22  1  0
 24 23  1  0
 25 24  1  0
 26 24  2  0
M  END
$$$$
