VWG.pdb
     RDKit          3D

 26 27  0  0  1  0  0  0  0  0999 V2000
   10.1723  -19.2893   21.2606 C   0  0  0  0  0  0  0  0  0  0  0  0
    8.8816  -18.8649   20.6065 C   0  0  1  0  0  0  0  0  0  0  0  0
    8.3033  -19.9085   19.6968 C   0  0  0  0  0  0  0  0  0  0  0  0
    7.9180  -18.3680   21.6394 C   0  0  2  0  0  0  0  0  0  0  0  0
    6.6320  -17.9980   21.1265 N   0  0  0  0  0  0  0  0  0  0  0  0
    8.5269  -17.1893   22.3170 C   0  0  0  0  0  0  0  0  0  0  0  0
    8.6505  -16.0832   21.7303 O   0  0  0  0  0  0  0  0  0  0  0  0
    8.9876  -17.2756   23.6466 N   0  0  0  0  0  0  0  0  0  0  0  0
    9.6032  -16.1790   24.3669 C   0  0  1  0  0  0  0  0  0  0  0  0
    9.0285  -16.1588   25.7593 C   0  0  0  0  0  0  0  0  0  0  0  0
    7.7526  -15.3997   25.8229 C   0  0  0  0  0  0  0  0  0  0  0  0
    6.4975  -15.9567   25.7084 C   0  0  0  0  0  0  0  0  0  0  0  0
    5.5713  -14.9646   25.8162 N   0  0  0  0  0  0  0  0  0  0  0  0
    6.1749  -13.7855   25.9961 C   0  0  0  0  0  0  0  0  0  0  0  0
    5.7630  -12.4719   26.1645 C   0  0  0  0  0  0  0  0  0  0  0  0
    6.6579  -11.4472   26.3330 C   0  0  0  0  0  0  0  0  0  0  0  0
    8.0169  -11.6996   26.3397 C   0  0  0  0  0  0  0  0  0  0  0  0
    8.4249  -13.0048   26.1722 C   0  0  0  0  0  0  0  0  0  0  0  0
    7.5448  -14.0509   26.0014 C   0  0  0  0  0  0  0  0  0  0  0  0
   11.0592  -16.3911   24.3386 C   0  0  0  0  0  0  0  0  0  0  0  0
   11.5449  -17.2096   25.1610 O   0  0  0  0  0  0  0  0  0  0  0  0
   11.9330  -15.7266   23.4407 N   0  0  0  0  0  0  0  0  0  0  0  0
   13.2973  -15.4111   23.7150 C   0  0  0  0  0  0  0  0  0  0  0  0
   14.1441  -16.5838   23.4164 C   0  0  0  0  0  0  0  0  0  0  0  0
   15.5157  -16.4101   23.3396 O   0  0  0  0  0  0  0  0  0  0  0  0
   13.6955  -17.7285   23.2283 O   0  0  0  0  0  0  0  0  0  0  0  0
  2  1  1  1
  2  4  1  0
  3  2  1  0
  4  5  1  6
  6  8  1  0
  6  4  1  0
  7  6  2  0
  9  8  1  0
 10 11  1  0
  9 10  1  1
 11 12  2  0
 11 19  1  0
 12 13  1  0
 13 14  1  0
 14 15  2  0
 15 16  1  0
 17 16  2  0
 18 17  1  0
 19 18  2  0
 19 14  1  0
 20  9  1  0
 20 22  1  0
 21 20  2  0
 23 22  1  0
 24 23  1  0
 25 24  1  0
 26 24  2  0
M  END
$$$$
