VWG.pdb
     RDKit          3D

 26 27  0  0  1  0  0  0  0  0999 V2000
    7.1921  -13.8353   19.2823 C   0  0  0  0  0  0  0  0  0  0  0  0
    7.9931  -13.8301   20.5600 C   0  0  1  0  0  0  0  0  0  0  0  0
    7.3802  -12.9931   21.6440 C   0  0  0  0  0  0  0  0  0  0  0  0
    8.2975  -15.2335   20.9845 C   0  0  2  0  0  0  0  0  0  0  0  0
    7.1471  -16.0148   21.3306 N   0  0  0  0  0  0  0  0  0  0  0  0
    9.2158  -15.1778   22.1562 C   0  0  0  0  0  0  0  0  0  0  0  0
   10.2652  -14.4839   22.1384 O   0  0  0  0  0  0  0  0  0  0  0  0
    8.9370  -15.9057   23.3309 N   0  0  0  0  0  0  0  0  0  0  0  0
    9.8424  -16.0094   24.4577 C   0  0  1  0  0  0  0  0  0  0  0  0
    9.0143  -16.2043   25.7010 C   0  0  0  0  0  0  0  0  0  0  0  0
    7.8371  -15.2979   25.7323 C   0  0  0  0  0  0  0  0  0  0  0  0
    6.5541  -15.6598   25.3839 C   0  0  0  0  0  0  0  0  0  0  0  0
    5.7418  -14.5780   25.5366 N   0  0  0  0  0  0  0  0  0  0  0  0
    6.4460  -13.5279   25.9703 C   0  0  0  0  0  0  0  0  0  0  0  0
    6.1683  -12.2081   26.2939 C   0  0  0  0  0  0  0  0  0  0  0  0
    7.1431  -11.3468   26.7263 C   0  0  0  0  0  0  0  0  0  0  0  0
    8.4505  -11.7773   26.8536 C   0  0  0  0  0  0  0  0  0  0  0  0
    8.7253  -13.0885   26.5319 C   0  0  0  0  0  0  0  0  0  0  0  0
    7.7628  -13.9724   26.0954 C   0  0  0  0  0  0  0  0  0  0  0  0
   10.7619  -17.1260   24.1870 C   0  0  0  0  0  0  0  0  0  0  0  0
   10.7539  -18.0951   24.9888 O   0  0  0  0  0  0  0  0  0  0  0  0
   11.6472  -17.1645   23.0796 N   0  0  0  0  0  0  0  0  0  0  0  0
   13.0392  -16.8564   23.1383 C   0  0  0  0  0  0  0  0  0  0  0  0
   13.7852  -18.0358   23.6218 C   0  0  0  0  0  0  0  0  0  0  0  0
   13.5971  -18.4503   24.9295 O   0  0  0  0  0  0  0  0  0  0  0  0
   14.5794  -18.6854   22.9186 O   0  0  0  0  0  0  0  0  0  0  0  0
  2  1  1  6
  2  4  1  0
  3  2  1  0
  4  5  1  1
  6  8  1  0
  6  4  1  0
  7  6  2  0
  9  8  1  0
 10 11  1  0
  9 10  1  1
 11 12  2  0
 11 19  1  0
 12 13  1  0
 13 14  1  0
 14 15  2  0
 15 16  1  0
 17 16  2  0
 18 17  1  0
 19 18  2  0
 19 14  1  0
 20  9  1  0
 20 22  1  0
 21 20  2  0
 23 22  1  0
 24 23  1  0
 25 24  1  0
 26 24  2  0
M  END
$$$$
