VWG.pdb
     RDKit          3D

 26 27  0  0  1  0  0  0  0  0999 V2000
    9.6644  -15.4232   19.9047 C   0  0  0  0  0  0  0  0  0  0  0  0
    8.2135  -15.0120   19.8974 C   0  0  1  0  0  0  0  0  0  0  0  0
    7.5198  -15.2976   18.5980 C   0  0  0  0  0  0  0  0  0  0  0  0
    7.5098  -15.5796   21.0912 C   0  0  2  0  0  0  0  0  0  0  0  0
    6.1097  -15.2807   21.1561 N   0  0  0  0  0  0  0  0  0  0  0  0
    8.1745  -15.0562   22.3173 C   0  0  0  0  0  0  0  0  0  0  0  0
    8.1057  -13.8411   22.6363 O   0  0  0  0  0  0  0  0  0  0  0  0
    8.9073  -15.9111   23.1656 N   0  0  0  0  0  0  0  0  0  0  0  0
    9.6786  -15.4593   24.3064 C   0  0  1  0  0  0  0  0  0  0  0  0
    9.0134  -15.9835   25.5522 C   0  0  0  0  0  0  0  0  0  0  0  0
    7.7394  -15.2755   25.8419 C   0  0  0  0  0  0  0  0  0  0  0  0
    6.4860  -15.8410   25.7549 C   0  0  0  0  0  0  0  0  0  0  0  0
    5.5615  -14.9003   26.0927 N   0  0  0  0  0  0  0  0  0  0  0  0
    6.1645  -13.7465   26.3956 C   0  0  0  0  0  0  0  0  0  0  0  0
    5.7539  -12.4839   26.7966 C   0  0  0  0  0  0  0  0  0  0  0  0
    6.6478  -11.4734   27.0391 C   0  0  0  0  0  0  0  0  0  0  0  0
    8.0048  -11.6890   26.8882 C   0  0  0  0  0  0  0  0  0  0  0  0
    8.4117  -12.9435   26.4897 C   0  0  0  0  0  0  0  0  0  0  0  0
    7.5324  -13.9744   26.2402 C   0  0  0  0  0  0  0  0  0  0  0  0
   11.0566  -15.9452   24.1309 C   0  0  0  0  0  0  0  0  0  0  0  0
   11.9060  -15.6142   24.9976 O   0  0  0  0  0  0  0  0  0  0  0  0
   11.4709  -16.7590   23.0458 N   0  0  0  0  0  0  0  0  0  0  0  0
   12.8125  -17.1859   22.8134 C   0  0  0  0  0  0  0  0  0  0  0  0
   13.2159  -18.1394   23.8668 C   0  0  0  0  0  0  0  0  0  0  0  0
   14.4962  -18.6656   23.8311 O   0  0  0  0  0  0  0  0  0  0  0  0
   12.4683  -18.5012   24.7926 O   0  0  0  0  0  0  0  0  0  0  0  0
  2  1  1  6
  2  4  1  0
  3  2  1  0
  4  5  1  1
  6  8  1  0
  6  4  1  0
  7  6  2  0
  9  8  1  0
 10 11  1  0
  9 10  1  1
 11 12  2  0
 11 19  1  0
 12 13  1  0
 13 14  1  0
 14 15  2  0
 15 16  1  0
 17 16  2  0
 18 17  1  0
 19 18  2  0
 19 14  1  0
 20  9  1  0
 20 22  1  0
 21 20  2  0
 23 22  1  0
 24 23  1  0
 25 24  1  0
 26 24  2  0
M  END
$$$$
