VWG.pdb
     RDKit          3D

 26 27  0  0  1  0  0  0  0  0999 V2000
    9.8188  -21.1850   20.2794 C   0  0  0  0  0  0  0  0  0  0  0  0
    9.9589  -19.8809   21.0235 C   0  0  1  0  0  0  0  0  0  0  0  0
   11.2699  -19.1933   20.7792 C   0  0  0  0  0  0  0  0  0  0  0  0
    8.7675  -19.0102   20.7687 C   0  0  2  0  0  0  0  0  0  0  0  0
    8.5952  -18.6205   19.4005 N   0  0  0  0  0  0  0  0  0  0  0  0
    8.8956  -17.7865   21.6087 C   0  0  0  0  0  0  0  0  0  0  0  0
    9.2986  -16.6962   21.1272 O   0  0  0  0  0  0  0  0  0  0  0  0
    8.5675  -17.8107   22.9795 N   0  0  0  0  0  0  0  0  0  0  0  0
    8.6645  -16.6633   23.8595 C   0  0  1  0  0  0  0  0  0  0  0  0
    7.5292  -16.7394   24.8468 C   0  0  0  0  0  0  0  0  0  0  0  0
    7.1608  -15.3998   25.3742 C   0  0  0  0  0  0  0  0  0  0  0  0
    5.9558  -14.7695   25.1527 C   0  0  0  0  0  0  0  0  0  0  0  0
    5.9731  -13.5653   25.7876 N   0  0  0  0  0  0  0  0  0  0  0  0
    7.1414  -13.3883   26.4125 C   0  0  0  0  0  0  0  0  0  0  0  0
    7.7126  -12.3934   27.1920 C   0  0  0  0  0  0  0  0  0  0  0  0
    8.9771  -12.5124   27.7077 C   0  0  0  0  0  0  0  0  0  0  0  0
    9.7293  -13.6456   27.4608 C   0  0  0  0  0  0  0  0  0  0  0  0
    9.1610  -14.6332   26.6863 C   0  0  0  0  0  0  0  0  0  0  0  0
    7.8925  -14.5363   26.1573 C   0  0  0  0  0  0  0  0  0  0  0  0
    9.9927  -16.7003   24.4922 C   0  0  0  0  0  0  0  0  0  0  0  0
   10.2204  -17.6233   25.3158 O   0  0  0  0  0  0  0  0  0  0  0  0
   11.0180  -15.7580   24.2233 N   0  0  0  0  0  0  0  0  0  0  0  0
   12.2597  -15.6833   24.9223 C   0  0  0  0  0  0  0  0  0  0  0  0
   13.2833  -16.4595   24.1934 C   0  0  0  0  0  0  0  0  0  0  0  0
   14.5535  -15.9241   24.0617 O   0  0  0  0  0  0  0  0  0  0  0  0
   13.0712  -17.5753   23.6864 O   0  0  0  0  0  0  0  0  0  0  0  0
  2  1  1  6
  2  4  1  0
  3  2  1  0
  4  5  1  6
  6  8  1  0
  6  4  1  0
  7  6  2  0
  9  8  1  0
 10 11  1  0
  9 10  1  1
 11 12  2  0
 11 19  1  0
 12 13  1  0
 13 14  1  0
 14 15  2  0
 15 16  1  0
 17 16  2  0
 18 17  1  0
 19 18  2  0
 19 14  1  0
 20  9  1  0
 20 22  1  0
 21 20  2  0
 23 22  1  0
 24 23  1  0
 25 24  1  0
 26 24  2  0
M  END
$$$$
