VWG.pdb
     RDKit          3D

 26 27  0  0  1  0  0  0  0  0999 V2000
    6.8865  -16.1719   19.1862 C   0  0  0  0  0  0  0  0  0  0  0  0
    7.9593  -15.8493   20.1957 C   0  0  1  0  0  0  0  0  0  0  0  0
    9.3086  -15.6234   19.5796 C   0  0  0  0  0  0  0  0  0  0  0  0
    7.5113  -14.7320   21.0865 C   0  0  2  0  0  0  0  0  0  0  0  0
    7.3154  -13.4791   20.4191 N   0  0  0  0  0  0  0  0  0  0  0  0
    8.5283  -14.5551   22.1606 C   0  0  0  0  0  0  0  0  0  0  0  0
    9.2538  -13.5288   22.2183 O   0  0  0  0  0  0  0  0  0  0  0  0
    8.7122  -15.5387   23.1537 N   0  0  0  0  0  0  0  0  0  0  0  0
    9.6124  -15.3982   24.2808 C   0  0  1  0  0  0  0  0  0  0  0  0
    8.8631  -15.7984   25.5248 C   0  0  0  0  0  0  0  0  0  0  0  0
    7.6476  -14.9691   25.7325 C   0  0  0  0  0  0  0  0  0  0  0  0
    6.3542  -15.4422   25.6920 C   0  0  0  0  0  0  0  0  0  0  0  0
    5.5052  -14.4042   25.9272 N   0  0  0  0  0  0  0  0  0  0  0  0
    6.1956  -13.2757   26.1187 C   0  0  0  0  0  0  0  0  0  0  0  0
    5.8838  -11.9516   26.3889 C   0  0  0  0  0  0  0  0  0  0  0  0
    6.8533  -10.9938   26.5370 C   0  0  0  0  0  0  0  0  0  0  0  0
    8.1896  -11.3272   26.4192 C   0  0  0  0  0  0  0  0  0  0  0  0
    8.4982  -12.6429   26.1507 C   0  0  0  0  0  0  0  0  0  0  0  0
    7.5418  -13.6227   25.9978 C   0  0  0  0  0  0  0  0  0  0  0  0
   10.7920  -16.2367   24.0138 C   0  0  0  0  0  0  0  0  0  0  0  0
   11.1655  -17.0231   24.9216 O   0  0  0  0  0  0  0  0  0  0  0  0
   11.5213  -16.2032   22.7979 N   0  0  0  0  0  0  0  0  0  0  0  0
   12.6311  -17.0455   22.4900 C   0  0  0  0  0  0  0  0  0  0  0  0
   13.8199  -16.5875   23.2375 C   0  0  0  0  0  0  0  0  0  0  0  0
   14.8966  -16.0831   22.5279 O   0  0  0  0  0  0  0  0  0  0  0  0
   13.9128  -16.6276   24.4772 O   0  0  0  0  0  0  0  0  0  0  0  0
  2  1  1  6
  2  4  1  0
  3  2  1  0
  4  5  1  6
  6  8  1  0
  6  4  1  0
  7  6  2  0
  9  8  1  0
 10 11  1  0
  9 10  1  1
 11 12  2  0
 11 19  1  0
 12 13  1  0
 13 14  1  0
 14 15  2  0
 15 16  1  0
 17 16  2  0
 18 17  1  0
 19 18  2  0
 19 14  1  0
 20  9  1  0
 20 22  1  0
 21 20  2  0
 23 22  1  0
 24 23  1  0
 25 24  1  0
 26 24  2  0
M  END
$$$$
