VWG.pdb
     RDKit          3D

 26 27  0  0  1  0  0  0  0  0999 V2000
    7.0062  -15.1185   19.6358 C   0  0  0  0  0  0  0  0  0  0  0  0
    7.5982  -14.7755   20.9796 C   0  0  1  0  0  0  0  0  0  0  0  0
    6.5678  -14.4294   22.0139 C   0  0  0  0  0  0  0  0  0  0  0  0
    8.5486  -15.8481   21.4143 C   0  0  2  0  0  0  0  0  0  0  0  0
    7.9370  -17.1182   21.6723 N   0  0  0  0  0  0  0  0  0  0  0  0
    9.2423  -15.3847   22.6485 C   0  0  0  0  0  0  0  0  0  0  0  0
    9.8200  -14.2681   22.6998 O   0  0  0  0  0  0  0  0  0  0  0  0
    9.2744  -16.1876   23.8069 N   0  0  0  0  0  0  0  0  0  0  0  0
    9.9702  -15.8287   25.0264 C   0  0  1  0  0  0  0  0  0  0  0  0
    9.0626  -16.1423   26.1871 C   0  0  0  0  0  0  0  0  0  0  0  0
    7.8140  -15.3373   26.1494 C   0  0  0  0  0  0  0  0  0  0  0  0
    6.5652  -15.8335   25.8451 C   0  0  0  0  0  0  0  0  0  0  0  0
    5.6657  -14.8135   25.9099 N   0  0  0  0  0  0  0  0  0  0  0  0
    6.2806  -13.6747   26.2442 C   0  0  0  0  0  0  0  0  0  0  0  0
    5.8943  -12.3592   26.4538 C   0  0  0  0  0  0  0  0  0  0  0  0
    6.7946  -11.3854   26.8010 C   0  0  0  0  0  0  0  0  0  0  0  0
    8.1334  -11.6933   26.9540 C   0  0  0  0  0  0  0  0  0  0  0  0
    8.5161  -13.0003   26.7454 C   0  0  0  0  0  0  0  0  0  0  0  0
    7.6301  -13.9958   26.3961 C   0  0  0  0  0  0  0  0  0  0  0  0
   11.2349  -16.5808   25.0536 C   0  0  0  0  0  0  0  0  0  0  0  0
   11.3417  -17.5111   25.8934 O   0  0  0  0  0  0  0  0  0  0  0  0
   12.3276  -16.3127   24.1901 N   0  0  0  0  0  0  0  0  0  0  0  0
   13.5663  -17.0208   24.1997 C   0  0  0  0  0  0  0  0  0  0  0  0
   14.3717  -16.6212   23.0278 C   0  0  0  0  0  0  0  0  0  0  0  0
   15.6591  -17.1165   22.9068 O   0  0  0  0  0  0  0  0  0  0  0  0
   13.9594  -15.8598   22.1348 O   0  0  0  0  0  0  0  0  0  0  0  0
  2  1  1  6
  2  4  1  0
  3  2  1  0
  4  5  1  1
  6  8  1  0
  6  4  1  0
  7  6  2  0
  9  8  1  0
 10 11  1  0
  9 10  1  1
 11 12  2  0
 11 19  1  0
 12 13  1  0
 13 14  1  0
 14 15  2  0
 15 16  1  0
 17 16  2  0
 18 17  1  0
 19 18  2  0
 19 14  1  0
 20  9  1  0
 20 22  1  0
 21 20  2  0
 23 22  1  0
 24 23  1  0
 25 24  1  0
 26 24  2  0
M  END
$$$$
