VWG.pdb
     RDKit          3D

 26 27  0  0  1  0  0  0  0  0999 V2000
    7.4076  -17.4746   19.1158 C   0  0  0  0  0  0  0  0  0  0  0  0
    8.1643  -16.7197   20.1795 C   0  0  1  0  0  0  0  0  0  0  0  0
    8.9695  -15.5748   19.6388 C   0  0  0  0  0  0  0  0  0  0  0  0
    7.2414  -16.3316   21.2931 C   0  0  2  0  0  0  0  0  0  0  0  0
    6.2205  -15.3963   20.9231 N   0  0  0  0  0  0  0  0  0  0  0  0
    8.0578  -15.7476   22.3938 C   0  0  0  0  0  0  0  0  0  0  0  0
    8.2397  -14.5065   22.4920 O   0  0  0  0  0  0  0  0  0  0  0  0
    8.6574  -16.5721   23.3675 N   0  0  0  0  0  0  0  0  0  0  0  0
    9.5065  -16.0839   24.4357 C   0  0  1  0  0  0  0  0  0  0  0  0
    8.7729  -16.2798   25.7368 C   0  0  0  0  0  0  0  0  0  0  0  0
    7.5980  -15.3775   25.8536 C   0  0  0  0  0  0  0  0  0  0  0  0
    6.2930  -15.7473   25.6114 C   0  0  0  0  0  0  0  0  0  0  0  0
    5.4905  -14.6672   25.8187 N   0  0  0  0  0  0  0  0  0  0  0  0
    6.2224  -13.6106   26.1859 C   0  0  0  0  0  0  0  0  0  0  0  0
    5.9654  -12.2890   26.5190 C   0  0  0  0  0  0  0  0  0  0  0  0
    6.9676  -11.4202   26.8652 C   0  0  0  0  0  0  0  0  0  0  0  0
    8.2828  -11.8447   26.8920 C   0  0  0  0  0  0  0  0  0  0  0  0
    8.5370  -13.1577   26.5609 C   0  0  0  0  0  0  0  0  0  0  0  0
    7.5469  -14.0491   26.2099 C   0  0  0  0  0  0  0  0  0  0  0  0
   10.7777  -16.8219   24.3647 C   0  0  0  0  0  0  0  0  0  0  0  0
   10.8107  -17.9754   24.8651 O   0  0  0  0  0  0  0  0  0  0  0  0
   11.9550  -16.3039   23.7669 N   0  0  0  0  0  0  0  0  0  0  0  0
   13.1907  -17.0088   23.6568 C   0  0  0  0  0  0  0  0  0  0  0  0
   14.1038  -16.2665   22.7640 C   0  0  0  0  0  0  0  0  0  0  0  0
   13.8116  -16.2125   21.4116 O   0  0  0  0  0  0  0  0  0  0  0  0
   15.1285  -15.6815   23.1575 O   0  0  0  0  0  0  0  0  0  0  0  0
  2  1  1  6
  2  4  1  0
  3  2  1  0
  4  5  1  6
  6  8  1  0
  6  4  1  0
  7  6  2  0
  9  8  1  0
 10 11  1  0
  9 10  1  1
 11 12  2  0
 11 19  1  0
 12 13  1  0
 13 14  1  0
 14 15  2  0
 15 16  1  0
 17 16  2  0
 18 17  1  0
 19 18  2  0
 19 14  1  0
 20  9  1  0
 20 22  1  0
 21 20  2  0
 23 22  1  0
 24 23  1  0
 25 24  1  0
 26 24  2  0
M  END
$$$$
