VWG.pdb
     RDKit          3D

 26 27  0  0  1  0  0  0  0  0999 V2000
    8.2932  -12.7828   20.6493 C   0  0  0  0  0  0  0  0  0  0  0  0
    7.4798  -14.0384   20.8386 C   0  0  1  0  0  0  0  0  0  0  0  0
    6.4951  -14.2827   19.7332 C   0  0  0  0  0  0  0  0  0  0  0  0
    8.3822  -15.2029   21.1071 C   0  0  2  0  0  0  0  0  0  0  0  0
    7.7177  -16.4713   21.1655 N   0  0  0  0  0  0  0  0  0  0  0  0
    9.0820  -14.9625   22.4000 C   0  0  0  0  0  0  0  0  0  0  0  0
    9.7262  -13.9030   22.6134 O   0  0  0  0  0  0  0  0  0  0  0  0
    9.0451  -15.9208   23.4333 N   0  0  0  0  0  0  0  0  0  0  0  0
    9.8415  -15.8451   24.6418 C   0  0  1  0  0  0  0  0  0  0  0  0
    8.9547  -16.2074   25.8044 C   0  0  0  0  0  0  0  0  0  0  0  0
    7.7394  -15.3542   25.8635 C   0  0  0  0  0  0  0  0  0  0  0  0
    6.4684  -15.7686   25.5297 C   0  0  0  0  0  0  0  0  0  0  0  0
    5.6117  -14.7254   25.7068 N   0  0  0  0  0  0  0  0  0  0  0  0
    6.2756  -13.6500   26.1422 C   0  0  0  0  0  0  0  0  0  0  0  0
    5.9451  -12.3474   26.4851 C   0  0  0  0  0  0  0  0  0  0  0  0
    6.8875  -11.4486   26.9131 C   0  0  0  0  0  0  0  0  0  0  0  0
    8.2143  -11.8224   27.0163 C   0  0  0  0  0  0  0  0  0  0  0  0
    8.5416  -13.1166   26.6754 C   0  0  0  0  0  0  0  0  0  0  0  0
    7.6124  -14.0373   26.2429 C   0  0  0  0  0  0  0  0  0  0  0  0
   10.9876  -16.7531   24.4758 C   0  0  0  0  0  0  0  0  0  0  0  0
   11.5862  -17.1320   25.5151 O   0  0  0  0  0  0  0  0  0  0  0  0
   11.4466  -17.2174   23.2167 N   0  0  0  0  0  0  0  0  0  0  0  0
   12.5342  -18.1217   23.0290 C   0  0  0  0  0  0  0  0  0  0  0  0
   13.8098  -17.3805   23.1012 C   0  0  0  0  0  0  0  0  0  0  0  0
   14.4885  -17.1109   21.9248 O   0  0  0  0  0  0  0  0  0  0  0  0
   14.3155  -16.9801   24.1646 O   0  0  0  0  0  0  0  0  0  0  0  0
  2  1  1  6
  2  4  1  0
  3  2  1  0
  4  5  1  1
  6  8  1  0
  6  4  1  0
  7  6  2  0
  9  8  1  0
 10 11  1  0
  9 10  1  1
 11 12  2  0
 11 19  1  0
 12 13  1  0
 13 14  1  0
 14 15  2  0
 15 16  1  0
 17 16  2  0
 18 17  1  0
 19 18  2  0
 19 14  1  0
 20  9  1  0
 20 22  1  0
 21 20  2  0
 23 22  1  0
 24 23  1  0
 25 24  1  0
 26 24  2  0
M  END
$$$$
