VWG.pdb
     RDKit          3D

 26 27  0  0  1  0  0  0  0  0999 V2000
    8.1261  -12.8294   20.8476 C   0  0  0  0  0  0  0  0  0  0  0  0
    7.3831  -14.1319   21.0065 C   0  0  1  0  0  0  0  0  0  0  0  0
    6.3889  -14.3882   19.9123 C   0  0  0  0  0  0  0  0  0  0  0  0
    8.3501  -15.2563   21.2146 C   0  0  2  0  0  0  0  0  0  0  0  0
    7.7447  -16.5501   21.3293 N   0  0  0  0  0  0  0  0  0  0  0  0
    9.1325  -14.9760   22.4509 C   0  0  0  0  0  0  0  0  0  0  0  0
    9.7830  -13.9082   22.5910 O   0  0  0  0  0  0  0  0  0  0  0  0
    9.1699  -15.9045   23.5111 N   0  0  0  0  0  0  0  0  0  0  0  0
    9.9200  -15.7108   24.7359 C   0  0  1  0  0  0  0  0  0  0  0  0
    9.0097  -16.0321   25.8924 C   0  0  0  0  0  0  0  0  0  0  0  0
    7.7857  -15.1894   25.8868 C   0  0  0  0  0  0  0  0  0  0  0  0
    6.5198  -15.6402   25.5823 C   0  0  0  0  0  0  0  0  0  0  0  0
    5.6521  -14.5957   25.6811 N   0  0  0  0  0  0  0  0  0  0  0  0
    6.3040  -13.4846   26.0377 C   0  0  0  0  0  0  0  0  0  0  0  0
    5.9594  -12.1638   26.2837 C   0  0  0  0  0  0  0  0  0  0  0  0
    6.8916  -11.2264   26.6462 C   0  0  0  0  0  0  0  0  0  0  0  0
    8.2219  -11.5780   26.7786 C   0  0  0  0  0  0  0  0  0  0  0  0
    8.5632  -12.8902   26.5340 C   0  0  0  0  0  0  0  0  0  0  0  0
    7.6444  -13.8497   26.1686 C   0  0  0  0  0  0  0  0  0  0  0  0
   11.1086  -16.5761   24.6699 C   0  0  0  0  0  0  0  0  0  0  0  0
   11.1071  -17.6226   25.3676 O   0  0  0  0  0  0  0  0  0  0  0  0
   12.2436  -16.2927   23.8680 N   0  0  0  0  0  0  0  0  0  0  0  0
   13.4228  -17.0942   23.8129 C   0  0  0  0  0  0  0  0  0  0  0  0
   14.3503  -16.5381   22.8068 C   0  0  0  0  0  0  0  0  0  0  0  0
   15.4278  -15.7849   23.2416 O   0  0  0  0  0  0  0  0  0  0  0  0
   14.2208  -16.7074   21.5814 O   0  0  0  0  0  0  0  0  0  0  0  0
  2  1  1  6
  2  4  1  0
  3  2  1  0
  4  5  1  1
  6  8  1  0
  6  4  1  0
  7  6  2  0
  9  8  1  0
 10 11  1  0
  9 10  1  1
 11 12  2  0
 11 19  1  0
 12 13  1  0
 13 14  1  0
 14 15  2  0
 15 16  1  0
 17 16  2  0
 18 17  1  0
 19 18  2  0
 19 14  1  0
 20  9  1  0
 20 22  1  0
 21 20  2  0
 23 22  1  0
 24 23  1  0
 25 24  1  0
 26 24  2  0
M  END
$$$$
