VWG.pdb
     RDKit          3D

 26 27  0  0  1  0  0  0  0  0999 V2000
    9.5522  -15.7591   19.7881 C   0  0  0  0  0  0  0  0  0  0  0  0
    8.0781  -15.8665   20.0873 C   0  0  1  0  0  0  0  0  0  0  0  0
    7.2651  -16.3351   18.9166 C   0  0  0  0  0  0  0  0  0  0  0  0
    7.8608  -16.6726   21.3305 C   0  0  2  0  0  0  0  0  0  0  0  0
    6.4850  -16.9029   21.6591 N   0  0  0  0  0  0  0  0  0  0  0  0
    8.5184  -15.9664   22.4655 C   0  0  0  0  0  0  0  0  0  0  0  0
    8.5505  -14.7103   22.5301 O   0  0  0  0  0  0  0  0  0  0  0  0
    9.1303  -16.6876   23.5109 N   0  0  0  0  0  0  0  0  0  0  0  0
    9.9320  -16.0826   24.5558 C   0  0  1  0  0  0  0  0  0  0  0  0
    9.1813  -16.2211   25.8545 C   0  0  0  0  0  0  0  0  0  0  0  0
    7.9289  -15.4213   25.8604 C   0  0  0  0  0  0  0  0  0  0  0  0
    6.6742  -15.9194   25.5846 C   0  0  0  0  0  0  0  0  0  0  0  0
    5.7726  -14.9042   25.6859 N   0  0  0  0  0  0  0  0  0  0  0  0
    6.3918  -13.7666   26.0164 C   0  0  0  0  0  0  0  0  0  0  0  0
    6.0060  -12.4554   26.2518 C   0  0  0  0  0  0  0  0  0  0  0  0
    6.9115  -11.4817   26.5855 C   0  0  0  0  0  0  0  0  0  0  0  0
    8.2553  -11.7854   26.6982 C   0  0  0  0  0  0  0  0  0  0  0  0
    8.6374  -13.0882   26.4641 C   0  0  0  0  0  0  0  0  0  0  0  0
    7.7462  -14.0835   26.1276 C   0  0  0  0  0  0  0  0  0  0  0  0
   11.2386  -16.7598   24.5609 C   0  0  0  0  0  0  0  0  0  0  0  0
   11.3157  -17.8731   25.1412 O   0  0  0  0  0  0  0  0  0  0  0  0
   12.4028  -16.2263   23.9514 N   0  0  0  0  0  0  0  0  0  0  0  0
   13.6824  -16.8577   23.9471 C   0  0  0  0  0  0  0  0  0  0  0  0
   14.6777  -15.9507   23.3402 C   0  0  0  0  0  0  0  0  0  0  0  0
   16.0077  -16.0884   23.6999 O   0  0  0  0  0  0  0  0  0  0  0  0
   14.3906  -15.0628   22.5179 O   0  0  0  0  0  0  0  0  0  0  0  0
  2  1  1  6
  2  4  1  0
  3  2  1  0
  4  5  1  1
  6  8  1  0
  6  4  1  0
  7  6  2  0
  9  8  1  0
 10 11  1  0
  9 10  1  1
 11 12  2  0
 11 19  1  0
 12 13  1  0
 13 14  1  0
 14 15  2  0
 15 16  1  0
 17 16  2  0
 18 17  1  0
 19 18  2  0
 19 14  1  0
 20  9  1  0
 20 22  1  0
 21 20  2  0
 23 22  1  0
 24 23  1  0
 25 24  1  0
 26 24  2  0
M  END
$$$$
