SLK.pdb
     RDKit          3D

 24 23  0  0  1  0  0  0  0  0999 V2000
   14.3779   -7.8042  -13.9330 O   0  0  0  0  0  0  0  0  0  0  0  0
   15.7420   -7.6214  -13.7132 C   0  0  0  0  0  0  0  0  0  0  0  0
   16.2996   -8.7611  -12.8498 C   0  0  2  0  0  0  0  0  0  0  0  0
   15.7479   -8.7299  -11.5294 N   0  0  0  0  0  0  0  0  0  0  0  0
   17.7867   -8.5795  -12.8541 C   0  0  0  0  0  0  0  0  0  0  0  0
   18.2105   -7.7433  -11.9828 O   0  0  0  0  0  0  0  0  0  0  0  0
   23.0372   -9.5419  -13.1183 C   0  0  0  0  0  0  0  0  0  0  0  0
   22.3238   -9.8307  -14.4167 C   0  0  1  0  0  0  0  0  0  0  0  0
   22.9303  -11.1476  -14.9275 C   0  0  0  0  0  0  0  0  0  0  0  0
   20.8875  -10.0589  -14.2004 C   0  0  0  0  0  0  0  0  0  0  0  0
   20.0305   -8.9102  -13.8067 C   0  0  2  0  0  0  0  0  0  0  0  0
   18.6395   -9.2612  -13.7308 N   0  0  0  0  0  0  0  0  0  0  0  0
   20.2080   -7.6653  -14.5828 C   0  0  0  0  0  0  0  0  0  0  0  0
   19.7576   -7.6240  -15.7809 O   0  0  0  0  0  0  0  0  0  0  0  0
   20.8332   -6.4864  -14.1370 N   0  0  0  0  0  0  0  0  0  0  0  0
   21.0519   -5.3127  -14.9304 C   0  0  1  0  0  0  0  0  0  0  0  0
   19.7781   -4.4874  -14.9296 C   0  0  0  0  0  0  0  0  0  0  0  0
   19.9490   -3.1969  -15.6864 C   0  0  0  0  0  0  0  0  0  0  0  0
   18.6699   -2.3993  -15.7606 C   0  0  0  0  0  0  0  0  0  0  0  0
   18.8010   -1.1565  -16.5993 C   0  0  0  0  0  0  0  0  0  0  0  0
   17.5466   -0.4311  -16.4952 N   0  0  0  0  0  0  0  0  0  0  0  0
   22.2343   -4.5230  -14.5927 C   0  0  0  0  0  0  0  0  0  0  0  0
   22.7827   -4.7082  -13.3266 O   0  0  0  0  0  0  0  0  0  0  0  0
   22.8143   -3.6870  -15.3295 O   0  0  0  0  0  0  0  0  0  0  0  0
  2  1  1  0
  3  2  1  0
  3  4  1  1
  5  6  2  0
  5  3  1  0
  8  7  1  1
  8 10  1  0
  8  9  1  0
 11 10  1  6
 11 12  1  0
 12  5  1  0
 13 11  1  0
 14 13  2  0
 15 13  1  0
 16 17  1  1
 16 15  1  0
 18 17  1  0
 19 18  1  0
 20 19  1  0
 20 21  1  0
 22 23  1  0
 22 16  1  0
 24 22  2  0
M  END
$$$$
