SLK.pdb
     RDKit          3D

 24 23  0  0  1  0  0  0  0  0999 V2000
   22.1249  -11.6578  -21.3905 O   0  0  0  0  0  0  0  0  0  0  0  0
   22.3726  -10.8061  -20.3155 C   0  0  0  0  0  0  0  0  0  0  0  0
   21.9086  -11.4548  -19.0043 C   0  0  2  0  0  0  0  0  0  0  0  0
   20.4934  -11.6698  -19.0038 N   0  0  0  0  0  0  0  0  0  0  0  0
   22.3471  -10.5228  -17.9163 C   0  0  0  0  0  0  0  0  0  0  0  0
   21.4256  -10.2349  -17.0761 O   0  0  0  0  0  0  0  0  0  0  0  0
   27.6235  -10.4603  -16.1072 C   0  0  0  0  0  0  0  0  0  0  0  0
   26.1188  -10.5701  -16.1543 C   0  0  1  0  0  0  0  0  0  0  0  0
   25.6995  -10.9955  -14.7379 C   0  0  0  0  0  0  0  0  0  0  0  0
   25.4943   -9.2676  -16.4288 C   0  0  0  0  0  0  0  0  0  0  0  0
   24.0324   -9.2148  -16.6915 C   0  0  2  0  0  0  0  0  0  0  0  0
   23.6470  -10.0107  -17.8236 N   0  0  0  0  0  0  0  0  0  0  0  0
   23.4315   -7.8675  -16.7780 C   0  0  0  0  0  0  0  0  0  0  0  0
   23.5707   -7.2063  -17.8658 O   0  0  0  0  0  0  0  0  0  0  0  0
   22.7008   -7.2137  -15.7689 N   0  0  0  0  0  0  0  0  0  0  0  0
   22.2294   -5.8613  -15.8303 C   0  0  1  0  0  0  0  0  0  0  0  0
   20.7745   -5.8783  -16.2622 C   0  0  0  0  0  0  0  0  0  0  0  0
   20.2129   -4.4865  -16.3855 C   0  0  0  0  0  0  0  0  0  0  0  0
   18.7720   -4.4849  -16.8343 C   0  0  0  0  0  0  0  0  0  0  0  0
   18.5276   -5.3705  -18.0265 C   0  0  0  0  0  0  0  0  0  0  0  0
   17.1141   -5.2797  -18.3492 N   0  0  0  0  0  0  0  0  0  0  0  0
   22.4521   -5.0511  -14.6345 C   0  0  0  0  0  0  0  0  0  0  0  0
   22.6214   -5.7278  -13.4299 O   0  0  0  0  0  0  0  0  0  0  0  0
   22.5075   -3.7973  -14.5769 O   0  0  0  0  0  0  0  0  0  0  0  0
  2  1  1  0
  3  2  1  0
  3  4  1  6
  5  6  2  0
  5  3  1  0
  8  7  1  1
  8 10  1  0
  8  9  1  0
 11 10  1  6
 11 12  1  0
 12  5  1  0
 13 11  1  0
 14 13  2  0
 15 13  1  0
 16 17  1  1
 16 15  1  0
 18 17  1  0
 19 18  1  0
 20 19  1  0
 20 21  1  0
 22 23  1  0
 22 16  1  0
 24 22  2  0
M  END
$$$$
