SLK.pdb
     RDKit          3D

 24 23  0  0  1  0  0  0  0  0999 V2000
   22.6240  -22.0448  -10.9677 O   0  0  0  0  0  0  0  0  0  0  0  0
   23.4779  -21.1285  -10.3564 C   0  0  0  0  0  0  0  0  0  0  0  0
   23.5306  -19.8267  -11.1674 C   0  0  2  0  0  0  0  0  0  0  0  0
   22.2482  -19.5040  -11.7151 N   0  0  0  0  0  0  0  0  0  0  0  0
   24.5656  -20.0534  -12.2265 C   0  0  0  0  0  0  0  0  0  0  0  0
   24.2772  -19.5257  -13.3563 O   0  0  0  0  0  0  0  0  0  0  0  0
   30.0024  -21.1215  -11.0818 C   0  0  0  0  0  0  0  0  0  0  0  0
   28.7683  -20.4551  -11.6395 C   0  0  1  0  0  0  0  0  0  0  0  0
   29.2881  -19.2696  -12.4686 C   0  0  0  0  0  0  0  0  0  0  0  0
   28.0419  -21.3498  -12.5527 C   0  0  0  0  0  0  0  0  0  0  0  0
   26.7086  -20.9298  -13.0577 C   0  0  2  0  0  0  0  0  0  0  0  0
   25.7437  -20.7768  -12.0045 N   0  0  0  0  0  0  0  0  0  0  0  0
   26.1450  -21.7328  -14.1627 C   0  0  0  0  0  0  0  0  0  0  0  0
   26.0634  -23.0022  -14.0143 O   0  0  0  0  0  0  0  0  0  0  0  0
   25.6727  -21.2422  -15.3939 N   0  0  0  0  0  0  0  0  0  0  0  0
   25.1820  -22.0468  -16.4740 C   0  0  1  0  0  0  0  0  0  0  0  0
   23.6818  -22.2089  -16.3099 C   0  0  0  0  0  0  0  0  0  0  0  0
   23.0872  -23.0456  -17.4117 C   0  0  0  0  0  0  0  0  0  0  0  0
   21.6544  -23.4294  -17.1337 C   0  0  0  0  0  0  0  0  0  0  0  0
   21.4051  -24.9072  -17.2732 C   0  0  0  0  0  0  0  0  0  0  0  0
   20.0035  -25.1391  -16.9696 N   0  0  0  0  0  0  0  0  0  0  0  0
   25.5574  -21.6121  -17.8179 C   0  0  0  0  0  0  0  0  0  0  0  0
   25.9284  -20.2797  -17.9751 O   0  0  0  0  0  0  0  0  0  0  0  0
   25.5813  -22.3190  -18.8562 O   0  0  0  0  0  0  0  0  0  0  0  0
  2  1  1  0
  3  2  1  0
  3  4  1  6
  5  6  2  0
  5  3  1  0
  8  7  1  6
  8 10  1  0
  8  9  1  0
 11 10  1  1
 11 12  1  0
 12  5  1  0
 13 11  1  0
 14 13  2  0
 15 13  1  0
 16 17  1  6
 16 15  1  0
 18 17  1  0
 19 18  1  0
 20 19  1  0
 20 21  1  0
 22 23  1  0
 22 16  1  0
 24 22  2  0
M  END
$$$$
