SLK.pdb
     RDKit          3D

 24 23  0  0  1  0  0  0  0  0999 V2000
   19.8147  -23.0631  -12.4828 O   0  0  0  0  0  0  0  0  0  0  0  0
   20.8472  -22.2498  -12.9466 C   0  0  0  0  0  0  0  0  0  0  0  0
   21.3371  -21.3210  -11.8274 C   0  0  2  0  0  0  0  0  0  0  0  0
   20.3625  -20.3185  -11.5208 N   0  0  0  0  0  0  0  0  0  0  0  0
   22.6242  -20.7364  -12.3233 C   0  0  0  0  0  0  0  0  0  0  0  0
   22.4811  -19.6482  -12.9816 O   0  0  0  0  0  0  0  0  0  0  0  0
   27.8723  -19.3650  -12.5013 C   0  0  0  0  0  0  0  0  0  0  0  0
   27.6040  -20.8503  -12.4918 C   0  0  1  0  0  0  0  0  0  0  0  0
   28.6761  -21.4494  -11.5672 C   0  0  0  0  0  0  0  0  0  0  0  0
   26.2913  -21.1546  -11.9035 C   0  0  0  0  0  0  0  0  0  0  0  0
   25.0652  -20.7302  -12.6284 C   0  0  2  0  0  0  0  0  0  0  0  0
   23.8733  -21.3245  -12.0899 N   0  0  0  0  0  0  0  0  0  0  0  0
   25.0935  -20.8699  -14.0993 C   0  0  0  0  0  0  0  0  0  0  0  0
   24.9768  -22.0414  -14.6030 O   0  0  0  0  0  0  0  0  0  0  0  0
   25.2364  -19.8276  -15.0335 N   0  0  0  0  0  0  0  0  0  0  0  0
   25.2979  -19.9919  -16.4562 C   0  0  1  0  0  0  0  0  0  0  0  0
   25.0239  -18.6488  -17.1077 C   0  0  0  0  0  0  0  0  0  0  0  0
   25.0389  -18.7442  -18.6105 C   0  0  0  0  0  0  0  0  0  0  0  0
   24.7638  -17.4171  -19.2743 C   0  0  0  0  0  0  0  0  0  0  0  0
   24.8190  -17.4897  -20.7767 C   0  0  0  0  0  0  0  0  0  0  0  0
   24.6532  -16.1373  -21.2807 N   0  0  0  0  0  0  0  0  0  0  0  0
   26.5044  -20.6332  -16.9748 C   0  0  0  0  0  0  0  0  0  0  0  0
   27.7276  -20.1558  -16.5125 O   0  0  0  0  0  0  0  0  0  0  0  0
   26.5563  -21.5783  -17.8010 O   0  0  0  0  0  0  0  0  0  0  0  0
  2  1  1  0
  3  2  1  0
  3  4  1  6
  5  6  2  0
  5  3  1  0
  8  7  1  1
  8 10  1  0
  8  9  1  0
 11 10  1  1
 11 12  1  0
 12  5  1  0
 13 11  1  0
 14 13  2  0
 15 13  1  0
 16 17  1  6
 16 15  1  0
 18 17  1  0
 19 18  1  0
 20 19  1  0
 20 21  1  0
 22 23  1  0
 22 16  1  0
 24 22  2  0
M  END
$$$$
