SLK.pdb
     RDKit          3D

 24 23  0  0  1  0  0  0  0  0999 V2000
   19.9037  -10.4741  -20.8825 O   0  0  0  0  0  0  0  0  0  0  0  0
   20.5783  -10.0763  -19.7296 C   0  0  0  0  0  0  0  0  0  0  0  0
   21.0048  -11.3031  -18.9120 C   0  0  2  0  0  0  0  0  0  0  0  0
   19.8691  -11.9903  -18.3764 N   0  0  0  0  0  0  0  0  0  0  0  0
   21.9142  -10.7788  -17.8431 C   0  0  0  0  0  0  0  0  0  0  0  0
   21.3384  -10.5955  -16.7149 O   0  0  0  0  0  0  0  0  0  0  0  0
   26.1897  -10.5075  -14.6665 C   0  0  0  0  0  0  0  0  0  0  0  0
   26.4374   -9.9477  -16.0462 C   0  0  1  0  0  0  0  0  0  0  0  0
   27.8296  -10.4611  -16.4475 C   0  0  0  0  0  0  0  0  0  0  0  0
   25.4721  -10.4768  -17.0210 C   0  0  0  0  0  0  0  0  0  0  0  0
   24.0766   -9.9661  -16.9975 C   0  0  2  0  0  0  0  0  0  0  0  0
   23.2723  -10.5121  -18.0553 N   0  0  0  0  0  0  0  0  0  0  0  0
   23.9181   -8.4984  -16.9323 C   0  0  0  0  0  0  0  0  0  0  0  0
   24.2055   -7.8071  -17.9712 O   0  0  0  0  0  0  0  0  0  0  0  0
   23.4713   -7.7561  -15.8237 N   0  0  0  0  0  0  0  0  0  0  0  0
   23.1672   -6.3553  -15.8318 C   0  0  1  0  0  0  0  0  0  0  0  0
   22.1303   -6.0945  -16.9091 C   0  0  0  0  0  0  0  0  0  0  0  0
   21.8005   -4.6296  -17.0230 C   0  0  0  0  0  0  0  0  0  0  0  0
   20.7076   -4.3622  -18.0289 C   0  0  0  0  0  0  0  0  0  0  0  0
   20.3185   -2.9100  -18.1006 C   0  0  0  0  0  0  0  0  0  0  0  0
   19.3042   -2.7853  -19.1330 N   0  0  0  0  0  0  0  0  0  0  0  0
   22.7985   -5.7729  -14.5431 C   0  0  0  0  0  0  0  0  0  0  0  0
   22.9770   -4.4008  -14.3905 O   0  0  0  0  0  0  0  0  0  0  0  0
   22.3333   -6.3839  -13.5487 O   0  0  0  0  0  0  0  0  0  0  0  0
  2  1  1  0
  3  2  1  0
  3  4  1  1
  5  6  2  0
  5  3  1  0
  8  7  1  1
  8 10  1  0
  8  9  1  0
 11 10  1  6
 11 12  1  0
 12  5  1  0
 13 11  1  0
 14 13  2  0
 15 13  1  0
 16 17  1  6
 16 15  1  0
 18 17  1  0
 19 18  1  0
 20 19  1  0
 20 21  1  0
 22 23  1  0
 22 16  1  0
 24 22  2  0
M  END
$$$$
