SLK.pdb
     RDKit          3D

 24 23  0  0  1  0  0  0  0  0999 V2000
   20.6839  -10.2208  -22.1172 O   0  0  0  0  0  0  0  0  0  0  0  0
   20.9742   -9.9351  -20.7843 C   0  0  0  0  0  0  0  0  0  0  0  0
   21.5632  -11.1710  -20.0908 C   0  0  2  0  0  0  0  0  0  0  0  0
   20.5907  -12.2150  -19.9766 N   0  0  0  0  0  0  0  0  0  0  0  0
   22.0489  -10.6916  -18.7572 C   0  0  0  0  0  0  0  0  0  0  0  0
   21.1896  -10.8138  -17.8167 O   0  0  0  0  0  0  0  0  0  0  0  0
   25.0434  -10.2040  -14.4468 C   0  0  0  0  0  0  0  0  0  0  0  0
   25.6842   -9.5516  -15.6477 C   0  0  1  0  0  0  0  0  0  0  0  0
   27.1582   -9.9856  -15.6057 C   0  0  0  0  0  0  0  0  0  0  0  0
   25.1092  -10.0567  -16.9032 C   0  0  0  0  0  0  0  0  0  0  0  0
   23.7146   -9.6818  -17.2548 C   0  0  2  0  0  0  0  0  0  0  0  0
   23.3271  -10.1574  -18.5538 N   0  0  0  0  0  0  0  0  0  0  0  0
   23.3619   -8.2551  -17.1001 C   0  0  0  0  0  0  0  0  0  0  0  0
   23.8388   -7.4144  -17.9402 O   0  0  0  0  0  0  0  0  0  0  0  0
   22.5348   -7.7036  -16.1046 N   0  0  0  0  0  0  0  0  0  0  0  0
   22.2649   -6.3064  -15.9309 C   0  0  1  0  0  0  0  0  0  0  0  0
   20.7878   -6.0668  -16.1845 C   0  0  0  0  0  0  0  0  0  0  0  0
   20.4269   -4.6115  -16.0457 C   0  0  0  0  0  0  0  0  0  0  0  0
   18.9959   -4.3335  -16.4364 C   0  0  0  0  0  0  0  0  0  0  0  0
   18.5916   -2.9024  -16.2044 C   0  0  0  0  0  0  0  0  0  0  0  0
   17.2023   -2.7751  -16.6096 N   0  0  0  0  0  0  0  0  0  0  0  0
   22.7230   -5.7175  -14.6742 C   0  0  0  0  0  0  0  0  0  0  0  0
   22.6220   -6.5031  -13.5294 O   0  0  0  0  0  0  0  0  0  0  0  0
   23.2026   -4.5673  -14.5150 O   0  0  0  0  0  0  0  0  0  0  0  0
  2  1  1  0
  3  2  1  0
  3  4  1  1
  5  6  2  0
  5  3  1  0
  8  7  1  1
  8 10  1  0
  8  9  1  0
 11 10  1  6
 11 12  1  0
 12  5  1  0
 13 11  1  0
 14 13  2  0
 15 13  1  0
 16 17  1  1
 16 15  1  0
 18 17  1  0
 19 18  1  0
 20 19  1  0
 20 21  1  0
 22 23  1  0
 22 16  1  0
 24 22  2  0
M  END
$$$$
