SLK.pdb
     RDKit          3D

 24 23  0  0  1  0  0  0  0  0999 V2000
   13.1361  -17.1616    4.6548 O   0  0  0  0  0  0  0  0  0  0  0  0
   14.3297  -16.7253    5.2269 C   0  0  0  0  0  0  0  0  0  0  0  0
   15.4965  -16.9396    4.2532 C   0  0  2  0  0  0  0  0  0  0  0  0
   15.6862  -18.3294    3.9681 N   0  0  0  0  0  0  0  0  0  0  0  0
   16.6910  -16.3217    4.9134 C   0  0  0  0  0  0  0  0  0  0  0  0
   17.6464  -17.1443    5.1338 O   0  0  0  0  0  0  0  0  0  0  0  0
   20.5831  -12.8751    6.1177 C   0  0  0  0  0  0  0  0  0  0  0  0
   19.2117  -12.3209    6.4183 C   0  0  1  0  0  0  0  0  0  0  0  0
   19.2445  -10.8671    5.9200 C   0  0  0  0  0  0  0  0  0  0  0  0
   18.1695  -13.0265    5.6581 C   0  0  0  0  0  0  0  0  0  0  0  0
   17.9040  -14.4566    5.9631 C   0  0  2  0  0  0  0  0  0  0  0  0
   16.7599  -14.9667    5.2597 N   0  0  0  0  0  0  0  0  0  0  0  0
   17.8347  -14.8184    7.3942 C   0  0  0  0  0  0  0  0  0  0  0  0
   16.6819  -14.9899    7.9248 O   0  0  0  0  0  0  0  0  0  0  0  0
   18.9269  -15.0025    8.2618 N   0  0  0  0  0  0  0  0  0  0  0  0
   18.8391  -15.4393    9.6243 C   0  0  1  0  0  0  0  0  0  0  0  0
   18.0409  -16.7296    9.6652 C   0  0  0  0  0  0  0  0  0  0  0  0
   16.9570  -16.6822   10.7095 C   0  0  0  0  0  0  0  0  0  0  0  0
   16.1764  -17.9715   10.7879 C   0  0  0  0  0  0  0  0  0  0  0  0
   15.0578  -17.9200   11.7936 C   0  0  0  0  0  0  0  0  0  0  0  0
   14.3609  -19.1932   11.7297 N   0  0  0  0  0  0  0  0  0  0  0  0
   20.1051  -15.5376   10.3477 C   0  0  0  0  0  0  0  0  0  0  0  0
   21.2505  -15.1009    9.6879 O   0  0  0  0  0  0  0  0  0  0  0  0
   20.2720  -15.9781   11.5124 O   0  0  0  0  0  0  0  0  0  0  0  0
  2  1  1  0
  3  2  1  0
  3  4  1  1
  5  6  2  0
  5  3  1  0
  8  7  1  6
  8 10  1  0
  8  9  1  0
 11 10  1  1
 11 12  1  0
 12  5  1  0
 13 11  1  0
 14 13  2  0
 15 13  1  0
 16 17  1  6
 16 15  1  0
 18 17  1  0
 19 18  1  0
 20 19  1  0
 20 21  1  0
 22 23  1  0
 22 16  1  0
 24 22  2  0
M  END
$$$$
