SLK.pdb
     RDKit          3D

 24 23  0  0  1  0  0  0  0  0999 V2000
   27.9903  -18.1452  -17.0005 O   0  0  0  0  0  0  0  0  0  0  0  0
   27.1388  -18.9729  -16.2710 C   0  0  0  0  0  0  0  0  0  0  0  0
   27.9314  -20.1205  -15.6307 C   0  0  2  0  0  0  0  0  0  0  0  0
   28.3296  -21.0860  -16.6096 N   0  0  0  0  0  0  0  0  0  0  0  0
   27.0271  -20.7017  -14.5871 C   0  0  0  0  0  0  0  0  0  0  0  0
   26.4771  -21.8046  -14.9321 O   0  0  0  0  0  0  0  0  0  0  0  0
   25.9701  -20.7147   -8.5720 C   0  0  0  0  0  0  0  0  0  0  0  0
   25.4099  -21.0181   -9.9404 C   0  0  1  0  0  0  0  0  0  0  0  0
   24.0631  -20.2794   -9.9993 C   0  0  0  0  0  0  0  0  0  0  0  0
   26.2637  -20.4681  -11.0036 C   0  0  0  0  0  0  0  0  0  0  0  0
   25.8625  -20.6682  -12.4206 C   0  0  2  0  0  0  0  0  0  0  0  0
   26.8014  -20.0959  -13.3451 N   0  0  0  0  0  0  0  0  0  0  0  0
   24.4832  -20.2712  -12.7722 C   0  0  0  0  0  0  0  0  0  0  0  0
   24.1946  -19.0238  -12.7952 O   0  0  0  0  0  0  0  0  0  0  0  0
   23.4227  -21.1374  -13.0958 N   0  0  0  0  0  0  0  0  0  0  0  0
   22.0760  -20.7321  -13.3729 C   0  0  1  0  0  0  0  0  0  0  0  0
   21.5754  -21.5151  -14.5729 C   0  0  0  0  0  0  0  0  0  0  0  0
   20.1840  -21.0982  -14.9701 C   0  0  0  0  0  0  0  0  0  0  0  0
   19.6750  -21.8604  -16.1692 C   0  0  0  0  0  0  0  0  0  0  0  0
   18.3960  -21.2940  -16.7249 C   0  0  0  0  0  0  0  0  0  0  0  0
   18.0936  -22.0252  -17.9433 N   0  0  0  0  0  0  0  0  0  0  0  0
   21.1486  -20.7779  -12.2443 C   0  0  0  0  0  0  0  0  0  0  0  0
   20.2477  -19.7242  -12.1179 O   0  0  0  0  0  0  0  0  0  0  0  0
   21.0768  -21.6750  -11.3677 O   0  0  0  0  0  0  0  0  0  0  0  0
  2  1  1  0
  3  2  1  0
  3  4  1  6
  5  6  2  0
  5  3  1  0
  8  7  1  1
  8 10  1  0
  8  9  1  0
 11 10  1  1
 11 12  1  0
 12  5  1  0
 13 11  1  0
 14 13  2  0
 15 13  1  0
 16 17  1  6
 16 15  1  0
 18 17  1  0
 19 18  1  0
 20 19  1  0
 20 21  1  0
 22 23  1  0
 22 16  1  0
 24 22  2  0
M  END
$$$$
