SLK.pdb
     RDKit          3D

 24 23  0  0  1  0  0  0  0  0999 V2000
   21.1763  -10.2369  -22.2428 O   0  0  0  0  0  0  0  0  0  0  0  0
   21.2931  -10.0177  -20.8715 C   0  0  0  0  0  0  0  0  0  0  0  0
   21.8732  -11.2595  -20.1811 C   0  0  2  0  0  0  0  0  0  0  0  0
   20.9625  -12.3620  -20.2449 N   0  0  0  0  0  0  0  0  0  0  0  0
   22.1658  -10.8384  -18.7735 C   0  0  0  0  0  0  0  0  0  0  0  0
   21.8648  -11.7187  -17.8946 O   0  0  0  0  0  0  0  0  0  0  0  0
   23.9267  -10.5285  -14.2999 C   0  0  0  0  0  0  0  0  0  0  0  0
   24.8031   -9.7917  -15.2834 C   0  0  1  0  0  0  0  0  0  0  0  0
   26.1831  -10.4603  -15.1758 C   0  0  0  0  0  0  0  0  0  0  0  0
   24.3298   -9.9722  -16.6638 C   0  0  0  0  0  0  0  0  0  0  0  0
   23.0745   -9.2972  -17.0852 C   0  0  2  0  0  0  0  0  0  0  0  0
   22.7187   -9.5947  -18.4449 N   0  0  0  0  0  0  0  0  0  0  0  0
   22.9991   -7.8424  -16.8374 C   0  0  0  0  0  0  0  0  0  0  0  0
   23.7605   -7.0679  -17.5158 O   0  0  0  0  0  0  0  0  0  0  0  0
   22.1574   -7.1961  -15.9135 N   0  0  0  0  0  0  0  0  0  0  0  0
   22.0847   -5.7793  -15.7079 C   0  0  1  0  0  0  0  0  0  0  0  0
   20.6764   -5.3175  -16.0352 C   0  0  0  0  0  0  0  0  0  0  0  0
   20.5306   -3.8258  -15.8899 C   0  0  0  0  0  0  0  0  0  0  0  0
   19.1896   -3.3289  -16.3720 C   0  0  0  0  0  0  0  0  0  0  0  0
   19.1129   -1.8276  -16.4485 C   0  0  0  0  0  0  0  0  0  0  0  0
   17.8431   -1.4913  -17.0690 N   0  0  0  0  0  0  0  0  0  0  0  0
   22.5476   -5.2966  -14.4085 C   0  0  0  0  0  0  0  0  0  0  0  0
   23.3099   -4.1318  -14.3972 O   0  0  0  0  0  0  0  0  0  0  0  0
   22.3292   -5.8253  -13.2900 O   0  0  0  0  0  0  0  0  0  0  0  0
  2  1  1  0
  3  2  1  0
  3  4  1  1
  5  6  2  0
  5  3  1  0
  8  7  1  1
  8 10  1  0
  8  9  1  0
 11 10  1  6
 11 12  1  0
 12  5  1  0
 13 11  1  0
 14 13  2  0
 15 13  1  0
 16 17  1  1
 16 15  1  0
 18 17  1  0
 19 18  1  0
 20 19  1  0
 20 21  1  0
 22 23  1  0
 22 16  1  0
 24 22  2  0
M  END
$$$$
