SLK.pdb
     RDKit          3D

 24 23  0  0  1  0  0  0  0  0999 V2000
   19.2710  -11.5597  -19.3686 O   0  0  0  0  0  0  0  0  0  0  0  0
   20.4341  -10.9525  -18.8987 C   0  0  0  0  0  0  0  0  0  0  0  0
   20.9175  -11.6471  -17.6184 C   0  0  2  0  0  0  0  0  0  0  0  0
   19.9228  -12.5386  -17.1042 N   0  0  0  0  0  0  0  0  0  0  0  0
   21.2478  -10.5431  -16.6611 C   0  0  0  0  0  0  0  0  0  0  0  0
   20.3278  -10.3066  -15.8033 O   0  0  0  0  0  0  0  0  0  0  0  0
   26.3931   -9.0043  -16.2929 C   0  0  0  0  0  0  0  0  0  0  0  0
   25.0843   -9.6613  -15.9275 C   0  0  1  0  0  0  0  0  0  0  0  0
   25.4319  -10.6658  -14.8170 C   0  0  0  0  0  0  0  0  0  0  0  0
   24.1350   -8.6897  -15.3647 C   0  0  0  0  0  0  0  0  0  0  0  0
   22.7027   -8.7806  -15.7510 C   0  0  2  0  0  0  0  0  0  0  0  0
   22.4532   -9.8316  -16.6981 N   0  0  0  0  0  0  0  0  0  0  0  0
   22.0633   -7.5238  -16.1930 C   0  0  0  0  0  0  0  0  0  0  0  0
   21.9780   -7.2919  -17.4495 O   0  0  0  0  0  0  0  0  0  0  0  0
   21.5206   -6.5268  -15.3617 N   0  0  0  0  0  0  0  0  0  0  0  0
   20.8652   -5.3353  -15.8151 C   0  0  1  0  0  0  0  0  0  0  0  0
   19.3712   -5.5982  -15.8668 C   0  0  0  0  0  0  0  0  0  0  0  0
   18.5946   -4.3452  -16.1740 C   0  0  0  0  0  0  0  0  0  0  0  0
   17.8497   -4.4362  -17.4835 C   0  0  0  0  0  0  0  0  0  0  0  0
   17.0363   -3.2057  -17.7827 C   0  0  0  0  0  0  0  0  0  0  0  0
   16.4707   -3.3742  -19.1101 N   0  0  0  0  0  0  0  0  0  0  0  0
   21.1960   -4.1085  -15.0931 C   0  0  0  0  0  0  0  0  0  0  0  0
   21.1071   -2.9116  -15.7982 O   0  0  0  0  0  0  0  0  0  0  0  0
   21.5555   -4.0177  -13.8927 O   0  0  0  0  0  0  0  0  0  0  0  0
  2  1  1  0
  3  2  1  0
  3  4  1  1
  5  6  2  0
  5  3  1  0
  8  7  1  1
  8 10  1  0
  8  9  1  0
 11 10  1  6
 11 12  1  0
 12  5  1  0
 13 11  1  0
 14 13  2  0
 15 13  1  0
 16 17  1  1
 16 15  1  0
 18 17  1  0
 19 18  1  0
 20 19  1  0
 20 21  1  0
 22 23  1  0
 22 16  1  0
 24 22  2  0
M  END
$$$$
