SLK.pdb
     RDKit          3D

 24 23  0  0  1  0  0  0  0  0999 V2000
   14.4184  -11.4420   11.3097 O   0  0  0  0  0  0  0  0  0  0  0  0
   14.8469  -12.2849   10.2858 C   0  0  0  0  0  0  0  0  0  0  0  0
   15.4017  -11.4618    9.1154 C   0  0  2  0  0  0  0  0  0  0  0  0
   14.3463  -10.8718    8.3493 N   0  0  0  0  0  0  0  0  0  0  0  0
   16.2311  -12.4146    8.3100 C   0  0  0  0  0  0  0  0  0  0  0  0
   15.5511  -13.1500    7.5133 O   0  0  0  0  0  0  0  0  0  0  0  0
   21.1959  -11.3377    6.0557 C   0  0  0  0  0  0  0  0  0  0  0  0
   19.7663  -11.7503    6.3095 C   0  0  1  0  0  0  0  0  0  0  0  0
   19.2235  -12.1922    4.9409 C   0  0  0  0  0  0  0  0  0  0  0  0
   19.6946  -12.9104    7.2101 C   0  0  0  0  0  0  0  0  0  0  0  0
   18.3593  -13.4285    7.6067 C   0  0  2  0  0  0  0  0  0  0  0  0
   17.6249  -12.4962    8.4164 N   0  0  0  0  0  0  0  0  0  0  0  0
   18.3344  -14.7744    8.2163 C   0  0  0  0  0  0  0  0  0  0  0  0
   18.6277  -14.8872    9.4577 O   0  0  0  0  0  0  0  0  0  0  0  0
   18.0126  -15.9792    7.5649 N   0  0  0  0  0  0  0  0  0  0  0  0
   18.0540  -17.2816    8.1624 C   0  0  1  0  0  0  0  0  0  0  0  0
   17.1160  -18.1937    7.3931 C   0  0  0  0  0  0  0  0  0  0  0  0
   17.0305  -19.5612    8.0178 C   0  0  0  0  0  0  0  0  0  0  0  0
   16.1292  -20.4922    7.2442 C   0  0  0  0  0  0  0  0  0  0  0  0
   16.0985  -21.8857    7.8121 C   0  0  0  0  0  0  0  0  0  0  0  0
   15.1359  -22.6474    7.0351 N   0  0  0  0  0  0  0  0  0  0  0  0
   19.3834  -17.8622    8.3402 C   0  0  0  0  0  0  0  0  0  0  0  0
   20.3571  -17.5202    7.4060 O   0  0  0  0  0  0  0  0  0  0  0  0
   19.7448  -18.6444    9.2545 O   0  0  0  0  0  0  0  0  0  0  0  0
  2  1  1  0
  3  2  1  0
  3  4  1  6
  5  6  2  0
  5  3  1  0
  8  7  1  6
  8 10  1  0
  8  9  1  0
 11 10  1  1
 11 12  1  0
 12  5  1  0
 13 11  1  0
 14 13  2  0
 15 13  1  0
 16 17  1  6
 16 15  1  0
 18 17  1  0
 19 18  1  0
 20 19  1  0
 20 21  1  0
 22 23  1  0
 22 16  1  0
 24 22  2  0
M  END
$$$$
