SLK.pdb
     RDKit          3D

 24 23  0  0  1  0  0  0  0  0999 V2000
   16.8831  -11.3296  -19.3930 O   0  0  0  0  0  0  0  0  0  0  0  0
   17.5619  -10.8360  -18.2803 C   0  0  0  0  0  0  0  0  0  0  0  0
   18.8045  -11.6896  -17.9927 C   0  0  2  0  0  0  0  0  0  0  0  0
   18.4448  -13.0346  -17.6603 N   0  0  0  0  0  0  0  0  0  0  0  0
   19.5208  -10.9949  -16.8752 C   0  0  0  0  0  0  0  0  0  0  0  0
   19.4177  -11.5865  -15.7450 O   0  0  0  0  0  0  0  0  0  0  0  0
   21.9770   -9.6370  -12.9457 C   0  0  0  0  0  0  0  0  0  0  0  0
   22.7713   -9.7289  -14.2260 C   0  0  1  0  0  0  0  0  0  0  0  0
   23.8294  -10.8140  -13.9688 C   0  0  0  0  0  0  0  0  0  0  0  0
   21.9335  -10.1836  -15.3455 C   0  0  0  0  0  0  0  0  0  0  0  0
   20.9639   -9.2317  -15.9479 C   0  0  2  0  0  0  0  0  0  0  0  0
   20.2393   -9.8056  -17.0476 N   0  0  0  0  0  0  0  0  0  0  0  0
   21.4945   -7.9025  -16.3156 C   0  0  0  0  0  0  0  0  0  0  0  0
   21.9844   -7.7444  -17.4882 O   0  0  0  0  0  0  0  0  0  0  0  0
   21.5193   -6.7586  -15.4969 N   0  0  0  0  0  0  0  0  0  0  0  0
   21.4241   -5.4052  -15.9598 C   0  0  1  0  0  0  0  0  0  0  0  0
   20.2330   -5.2994  -16.8946 C   0  0  0  0  0  0  0  0  0  0  0  0
   19.9998   -3.8808  -17.3427 C   0  0  0  0  0  0  0  0  0  0  0  0
   18.8815   -3.7719  -18.3502 C   0  0  0  0  0  0  0  0  0  0  0  0
   18.7065   -2.3756  -18.8841 C   0  0  0  0  0  0  0  0  0  0  0  0
   17.4960   -2.3689  -19.6871 N   0  0  0  0  0  0  0  0  0  0  0  0
   21.4206   -4.3735  -14.9248 C   0  0  0  0  0  0  0  0  0  0  0  0
   20.8610   -4.7081  -13.6948 O   0  0  0  0  0  0  0  0  0  0  0  0
   21.8728   -3.2059  -15.0272 O   0  0  0  0  0  0  0  0  0  0  0  0
  2  1  1  0
  3  2  1  0
  3  4  1  1
  5  6  2  0
  5  3  1  0
  8  7  1  1
  8 10  1  0
  8  9  1  0
 11 10  1  6
 11 12  1  0
 12  5  1  0
 13 11  1  0
 14 13  2  0
 15 13  1  0
 16 17  1  1
 16 15  1  0
 18 17  1  0
 19 18  1  0
 20 19  1  0
 20 21  1  0
 22 23  1  0
 22 16  1  0
 24 22  2  0
M  END
$$$$
