SLK.pdb
     RDKit          3D

 24 23  0  0  1  0  0  0  0  0999 V2000
   27.2217  -17.9747  -15.6160 O   0  0  0  0  0  0  0  0  0  0  0  0
   26.4672  -18.8573  -14.8452 C   0  0  0  0  0  0  0  0  0  0  0  0
   27.3892  -19.7793  -14.0357 C   0  0  2  0  0  0  0  0  0  0  0  0
   28.0841  -20.6963  -14.8872 N   0  0  0  0  0  0  0  0  0  0  0  0
   26.5001  -20.4738  -13.0499 C   0  0  0  0  0  0  0  0  0  0  0  0
   26.2019  -21.6750  -13.3755 O   0  0  0  0  0  0  0  0  0  0  0  0
   26.5732  -19.4573   -7.5410 C   0  0  0  0  0  0  0  0  0  0  0  0
   26.6116  -20.1799   -8.8656 C   0  0  1  0  0  0  0  0  0  0  0  0
   26.8447  -21.6580   -8.5137 C   0  0  0  0  0  0  0  0  0  0  0  0
   25.3208  -20.0891   -9.5638 C   0  0  0  0  0  0  0  0  0  0  0  0
   25.2196  -20.6059  -10.9536 C   0  0  2  0  0  0  0  0  0  0  0  0
   26.0350  -19.8667  -11.8770 N   0  0  0  0  0  0  0  0  0  0  0  0
   23.8535  -20.7751  -11.4909 C   0  0  0  0  0  0  0  0  0  0  0  0
   23.1800  -19.7266  -11.7861 O   0  0  0  0  0  0  0  0  0  0  0  0
   23.1935  -21.9958  -11.7225 N   0  0  0  0  0  0  0  0  0  0  0  0
   21.7997  -22.1406  -12.0251 C   0  0  1  0  0  0  0  0  0  0  0  0
   21.0928  -22.6731  -10.7921 C   0  0  0  0  0  0  0  0  0  0  0  0
   19.6178  -22.8593  -11.0314 C   0  0  0  0  0  0  0  0  0  0  0  0
   18.9041  -23.4143   -9.8230 C   0  0  0  0  0  0  0  0  0  0  0  0
   17.4283  -23.6049  -10.0492 C   0  0  0  0  0  0  0  0  0  0  0  0
   16.8560  -24.0689   -8.7972 N   0  0  0  0  0  0  0  0  0  0  0  0
   21.1411  -20.9632  -12.5870 C   0  0  0  0  0  0  0  0  0  0  0  0
   21.3735  -19.7433  -11.9580 O   0  0  0  0  0  0  0  0  0  0  0  0
   20.3804  -20.9339  -13.5864 O   0  0  0  0  0  0  0  0  0  0  0  0
  2  1  1  0
  3  2  1  0
  3  4  1  6
  5  6  2  0
  5  3  1  0
  8  7  1  1
  8 10  1  0
  8  9  1  0
 11 10  1  1
 11 12  1  0
 12  5  1  0
 13 11  1  0
 14 13  2  0
 15 13  1  0
 16 17  1  1
 16 15  1  0
 18 17  1  0
 19 18  1  0
 20 19  1  0
 20 21  1  0
 22 23  1  0
 22 16  1  0
 24 22  2  0
M  END
$$$$
