SLK.pdb
     RDKit          3D

 24 23  0  0  1  0  0  0  0  0999 V2000
   26.3136  -19.2960  -17.0648 O   0  0  0  0  0  0  0  0  0  0  0  0
   27.5161  -19.2230  -16.3641 C   0  0  0  0  0  0  0  0  0  0  0  0
   27.9463  -20.6204  -15.8977 C   0  0  2  0  0  0  0  0  0  0  0  0
   28.0362  -21.5305  -16.9988 N   0  0  0  0  0  0  0  0  0  0  0  0
   26.9224  -21.0413  -14.8883 C   0  0  0  0  0  0  0  0  0  0  0  0
   26.2677  -22.0901  -15.2187 O   0  0  0  0  0  0  0  0  0  0  0  0
   24.9889  -22.1846   -9.9614 C   0  0  0  0  0  0  0  0  0  0  0  0
   25.0265  -20.7165  -10.3099 C   0  0  1  0  0  0  0  0  0  0  0  0
   25.4942  -20.0081   -9.0283 C   0  0  0  0  0  0  0  0  0  0  0  0
   26.0206  -20.4392  -11.3572 C   0  0  0  0  0  0  0  0  0  0  0  0
   25.7092  -20.8198  -12.7598 C   0  0  2  0  0  0  0  0  0  0  0  0
   26.6988  -20.3520  -13.6902 N   0  0  0  0  0  0  0  0  0  0  0  0
   24.3511  -20.4913  -13.2407 C   0  0  0  0  0  0  0  0  0  0  0  0
   24.1000  -19.2822  -13.5797 O   0  0  0  0  0  0  0  0  0  0  0  0
   23.2738  -21.3865  -13.3730 N   0  0  0  0  0  0  0  0  0  0  0  0
   21.9366  -21.0260  -13.7428 C   0  0  1  0  0  0  0  0  0  0  0  0
   21.2546  -22.2474  -14.3316 C   0  0  0  0  0  0  0  0  0  0  0  0
   19.8301  -21.9563  -14.7235 C   0  0  0  0  0  0  0  0  0  0  0  0
   19.1223  -23.1736  -15.2666 C   0  0  0  0  0  0  0  0  0  0  0  0
   17.7858  -22.8508  -15.8790 C   0  0  0  0  0  0  0  0  0  0  0  0
   17.2751  -24.0753  -16.4708 N   0  0  0  0  0  0  0  0  0  0  0  0
   21.1369  -20.3812  -12.7033 C   0  0  0  0  0  0  0  0  0  0  0  0
   20.3090  -19.3332  -13.0959 O   0  0  0  0  0  0  0  0  0  0  0  0
   21.1165  -20.6742  -11.4818 O   0  0  0  0  0  0  0  0  0  0  0  0
  2  1  1  0
  3  2  1  0
  3  4  1  6
  5  6  2  0
  5  3  1  0
  8  7  1  1
  8 10  1  0
  8  9  1  0
 11 10  1  1
 11 12  1  0
 12  5  1  0
 13 11  1  0
 14 13  2  0
 15 13  1  0
 16 17  1  1
 16 15  1  0
 18 17  1  0
 19 18  1  0
 20 19  1  0
 20 21  1  0
 22 23  1  0
 22 16  1  0
 24 22  2  0
M  END
$$$$
