VSK.pdb
     RDKit          3D

 23 22  0  0  1  0  0  0  0  0999 V2000
    7.3920  -12.1264   18.9668 C   0  0  0  0  0  0  0  0  0  0  0  0
    8.0115  -13.3224   19.6595 C   0  0  2  0  0  0  0  0  0  0  0  0
    9.1266  -12.8311   20.5479 C   0  0  0  0  0  0  0  0  0  0  0  0
    8.4846  -14.2710   18.5912 C   0  0  2  0  0  0  0  0  0  0  0  0
    7.3536  -14.5741   17.7431 N   0  0  0  0  0  0  0  0  0  0  0  0
    9.1229  -15.4825   19.1374 C   0  0  0  0  0  0  0  0  0  0  0  0
    8.3752  -16.3670   19.6229 O   0  0  0  0  0  0  0  0  0  0  0  0
   13.1616  -16.6000   18.4377 O   0  0  0  0  0  0  0  0  0  0  0  0
   12.1619  -17.5051   18.7656 C   0  0  0  0  0  0  0  0  0  0  0  0
   11.1385  -16.8995   19.7019 C   0  0  2  0  0  0  0  0  0  0  0  0
   10.5253  -15.7087   19.1477 N   0  0  0  0  0  0  0  0  0  0  0  0
   11.7595  -16.5379   21.0015 C   0  0  0  0  0  0  0  0  0  0  0  0
   12.3324  -15.4285   21.1739 O   0  0  0  0  0  0  0  0  0  0  0  0
   11.7410  -17.4228   22.1198 N   0  0  0  0  0  0  0  0  0  0  0  0
   12.4209  -17.1302   23.3597 C   0  0  1  0  0  0  0  0  0  0  0  0
   11.9730  -18.0369   24.4566 C   0  0  0  0  0  0  0  0  0  0  0  0
   12.6065  -17.8760   25.7798 C   0  0  0  0  0  0  0  0  0  0  0  0
   12.1323  -18.8649   26.7810 C   0  0  0  0  0  0  0  0  0  0  0  0
   12.7949  -18.6040   28.1563 C   0  0  0  0  0  0  0  0  0  0  0  0
   12.3162  -19.6752   29.0150 N   0  0  0  0  0  0  0  0  0  0  0  0
   13.8712  -17.0941   23.1684 C   0  0  0  0  0  0  0  0  0  0  0  0
   14.5191  -17.9895   22.3019 O   0  0  0  0  0  0  0  0  0  0  0  0
   14.5937  -16.2621   23.7662 O   0  0  0  0  0  0  0  0  0  0  0  0
  2  1  1  6
  2  4  1  0
  2  3  1  0
  4  6  1  0
  4  5  1  1
  6  7  2  0
  9  8  1  0
 10  9  1  6
 10 12  1  0
 11 10  1  0
 11  6  1  0
 12 13  2  0
 12 14  1  0
 14 15  1  0
 15 21  1  0
 15 16  1  1
 17 16  1  0
 18 17  1  0
 19 18  1  0
 20 19  1  0
 21 23  2  0
 21 22  1  0
M  END
$$$$
