VSK.pdb
     RDKit          3D

 23 22  0  0  1  0  0  0  0  0999 V2000
   10.2141  -21.6408   12.7763 C   0  0  0  0  0  0  0  0  0  0  0  0
   10.7113  -21.3388   14.1748 C   0  0  2  0  0  0  0  0  0  0  0  0
   10.4077  -22.5265   15.0531 C   0  0  0  0  0  0  0  0  0  0  0  0
   10.0322  -20.0773   14.6355 C   0  0  2  0  0  0  0  0  0  0  0  0
   10.2098  -19.0822   13.6018 N   0  0  0  0  0  0  0  0  0  0  0  0
   10.5064  -19.6154   15.9529 C   0  0  0  0  0  0  0  0  0  0  0  0
   11.7033  -19.2468   16.0453 O   0  0  0  0  0  0  0  0  0  0  0  0
    8.2634  -19.9000   19.6257 O   0  0  0  0  0  0  0  0  0  0  0  0
    9.0446  -18.7843   19.3591 C   0  0  0  0  0  0  0  0  0  0  0  0
   10.1763  -19.1033   18.4061 C   0  0  2  0  0  0  0  0  0  0  0  0
    9.6953  -19.5623   17.1180 N   0  0  0  0  0  0  0  0  0  0  0  0
   11.0623  -20.1533   18.9699 C   0  0  0  0  0  0  0  0  0  0  0  0
   11.1750  -21.2846   18.4258 O   0  0  0  0  0  0  0  0  0  0  0  0
   11.8302  -19.9388   20.1525 N   0  0  0  0  0  0  0  0  0  0  0  0
   13.0840  -20.6097   20.4028 C   0  0  1  0  0  0  0  0  0  0  0  0
   14.0310  -20.4435   19.2619 C   0  0  0  0  0  0  0  0  0  0  0  0
   14.9095  -21.5817   18.9295 C   0  0  0  0  0  0  0  0  0  0  0  0
   15.8163  -21.3081   17.7858 C   0  0  0  0  0  0  0  0  0  0  0  0
   16.7798  -22.4995   17.5610 C   0  0  0  0  0  0  0  0  0  0  0  0
   17.4119  -22.2368   16.2782 N   0  0  0  0  0  0  0  0  0  0  0  0
   13.6378  -20.2224   21.7007 C   0  0  0  0  0  0  0  0  0  0  0  0
   13.7764  -21.1506   22.7456 O   0  0  0  0  0  0  0  0  0  0  0  0
   14.0138  -19.0490   21.9325 O   0  0  0  0  0  0  0  0  0  0  0  0
  2  1  1  6
  2  4  1  0
  2  3  1  0
  4  6  1  0
  4  5  1  6
  6  7  2  0
  9  8  1  0
 10  9  1  1
 10 12  1  0
 11 10  1  0
 11  6  1  0
 12 13  2  0
 12 14  1  0
 14 15  1  0
 15 21  1  0
 15 16  1  6
 17 16  1  0
 18 17  1  0
 19 18  1  0
 20 19  1  0
 21 23  2  0
 21 22  1  0
M  END
$$$$
