VSK.pdb
     RDKit          3D

 23 22  0  0  1  0  0  0  0  0999 V2000
    7.6133  -12.7326   20.3459 C   0  0  0  0  0  0  0  0  0  0  0  0
    8.7658  -13.1230   19.4438 C   0  0  2  0  0  0  0  0  0  0  0  0
    8.7905  -12.1774   18.2694 C   0  0  0  0  0  0  0  0  0  0  0  0
    8.5601  -14.5580   19.0398 C   0  0  2  0  0  0  0  0  0  0  0  0
    7.3850  -14.6117   18.1992 N   0  0  0  0  0  0  0  0  0  0  0  0
    8.4742  -15.4746   20.1914 C   0  0  0  0  0  0  0  0  0  0  0  0
    7.3604  -15.5955   20.7586 O   0  0  0  0  0  0  0  0  0  0  0  0
   11.0817  -18.6417   20.8692 O   0  0  0  0  0  0  0  0  0  0  0  0
    9.8180  -18.5578   21.4370 C   0  0  0  0  0  0  0  0  0  0  0  0
    9.4648  -17.1363   21.8183 C   0  0  2  0  0  0  0  0  0  0  0  0
    9.5698  -16.2254   20.6956 N   0  0  0  0  0  0  0  0  0  0  0  0
   10.3547  -16.6422   22.8996 C   0  0  0  0  0  0  0  0  0  0  0  0
   11.4803  -16.1335   22.6481 O   0  0  0  0  0  0  0  0  0  0  0  0
    9.9853  -16.7163   24.2751 N   0  0  0  0  0  0  0  0  0  0  0  0
   10.8642  -16.3039   25.3440 C   0  0  1  0  0  0  0  0  0  0  0  0
   10.0960  -15.8352   26.5341 C   0  0  0  0  0  0  0  0  0  0  0  0
   10.8592  -15.4877   27.7485 C   0  0  0  0  0  0  0  0  0  0  0  0
   10.0065  -14.9712   28.8490 C   0  0  0  0  0  0  0  0  0  0  0  0
   10.8747  -14.5870   30.0726 C   0  0  0  0  0  0  0  0  0  0  0  0
    9.9268  -14.1561   31.0875 N   0  0  0  0  0  0  0  0  0  0  0  0
   11.8532  -17.3407   25.6412 C   0  0  0  0  0  0  0  0  0  0  0  0
   11.5110  -18.7028   25.6393 O   0  0  0  0  0  0  0  0  0  0  0  0
   13.0453  -17.0570   25.9061 O   0  0  0  0  0  0  0  0  0  0  0  0
  2  1  1  1
  2  4  1  0
  2  3  1  0
  4  6  1  0
  4  5  1  1
  6  7  2  0
  9  8  1  0
 10  9  1  6
 10 12  1  0
 11 10  1  0
 11  6  1  0
 12 13  2  0
 12 14  1  0
 14 15  1  0
 15 21  1  0
 15 16  1  1
 17 16  1  0
 18 17  1  0
 19 18  1  0
 20 19  1  0
 21 23  2  0
 21 22  1  0
M  END
$$$$
