VSK.pdb
     RDKit          3D

 23 22  0  0  1  0  0  0  0  0999 V2000
    7.3591  -14.9262   16.7256 C   0  0  0  0  0  0  0  0  0  0  0  0
    8.0575  -15.1980   18.0419 C   0  0  2  0  0  0  0  0  0  0  0  0
    7.4764  -16.4562   18.6364 C   0  0  0  0  0  0  0  0  0  0  0  0
    7.8628  -13.9892   18.9170 C   0  0  2  0  0  0  0  0  0  0  0  0
    8.3030  -12.8325   18.1697 N   0  0  0  0  0  0  0  0  0  0  0  0
    8.5361  -14.1086   20.2232 C   0  0  0  0  0  0  0  0  0  0  0  0
    9.7918  -14.1027   20.2345 O   0  0  0  0  0  0  0  0  0  0  0  0
    6.4835  -14.9706   23.8430 O   0  0  0  0  0  0  0  0  0  0  0  0
    7.5964  -14.1440   23.9083 C   0  0  0  0  0  0  0  0  0  0  0  0
    8.5308  -14.3634   22.7380 C   0  0  2  0  0  0  0  0  0  0  0  0
    7.8538  -14.2293   21.4633 N   0  0  0  0  0  0  0  0  0  0  0  0
    9.1432  -15.7150   22.7964 C   0  0  0  0  0  0  0  0  0  0  0  0
    8.9994  -16.5465   21.8600 O   0  0  0  0  0  0  0  0  0  0  0  0
    9.9237  -16.1433   23.9106 N   0  0  0  0  0  0  0  0  0  0  0  0
   10.9324  -17.1716   23.8095 C   0  0  1  0  0  0  0  0  0  0  0  0
   11.8780  -16.9021   22.6873 C   0  0  0  0  0  0  0  0  0  0  0  0
   11.8143  -17.7894   21.5099 C   0  0  0  0  0  0  0  0  0  0  0  0
   12.8860  -17.5239   20.5169 C   0  0  0  0  0  0  0  0  0  0  0  0
   12.6901  -18.4060   19.2591 C   0  0  0  0  0  0  0  0  0  0  0  0
   13.8230  -18.0973   18.4016 N   0  0  0  0  0  0  0  0  0  0  0  0
   11.5846  -17.3972   25.0999 C   0  0  0  0  0  0  0  0  0  0  0  0
   12.2040  -18.6203   25.4047 O   0  0  0  0  0  0  0  0  0  0  0  0
   11.6204  -16.5088   25.9838 O   0  0  0  0  0  0  0  0  0  0  0  0
  2  1  1  6
  2  4  1  0
  2  3  1  0
  4  6  1  0
  4  5  1  6
  6  7  2  0
  9  8  1  0
 10  9  1  1
 10 12  1  0
 11 10  1  0
 11  6  1  0
 12 13  2  0
 12 14  1  0
 14 15  1  0
 15 21  1  0
 15 16  1  6
 17 16  1  0
 18 17  1  0
 19 18  1  0
 20 19  1  0
 21 23  2  0
 21 22  1  0
M  END
$$$$
