VSK.pdb
     RDKit          3D

 23 22  0  0  1  0  0  0  0  0999 V2000
    3.4825  -23.0177   15.8250 C   0  0  0  0  0  0  0  0  0  0  0  0
    4.7084  -22.1294   15.7790 C   0  0  2  0  0  0  0  0  0  0  0  0
    5.9329  -23.0095   15.7965 C   0  0  0  0  0  0  0  0  0  0  0  0
    4.6374  -21.1963   16.9576 C   0  0  2  0  0  0  0  0  0  0  0  0
    3.3472  -20.5449   16.9229 N   0  0  0  0  0  0  0  0  0  0  0  0
    5.7551  -20.2358   17.0006 C   0  0  0  0  0  0  0  0  0  0  0  0
    6.0746  -19.6646   15.9289 O   0  0  0  0  0  0  0  0  0  0  0  0
    7.0582  -18.2894   20.4086 O   0  0  0  0  0  0  0  0  0  0  0  0
    7.4258  -17.8598   19.1412 C   0  0  0  0  0  0  0  0  0  0  0  0
    7.6252  -19.0193   18.1890 C   0  0  2  0  0  0  0  0  0  0  0  0
    6.4888  -19.9190   18.1751 N   0  0  0  0  0  0  0  0  0  0  0  0
    8.8316  -19.8035   18.5560 C   0  0  0  0  0  0  0  0  0  0  0  0
    8.7568  -20.8267   19.2883 O   0  0  0  0  0  0  0  0  0  0  0  0
   10.1344  -19.4427   18.1016 N   0  0  0  0  0  0  0  0  0  0  0  0
   11.3349  -20.0903   18.5755 C   0  0  1  0  0  0  0  0  0  0  0  0
   12.5216  -19.7114   17.7544 C   0  0  0  0  0  0  0  0  0  0  0  0
   13.8104  -20.3545   18.0758 C   0  0  0  0  0  0  0  0  0  0  0  0
   14.9387  -19.8505   17.2523 C   0  0  0  0  0  0  0  0  0  0  0  0
   16.2436  -20.6093   17.5985 C   0  0  0  0  0  0  0  0  0  0  0  0
   17.2668  -20.0007   16.7638 N   0  0  0  0  0  0  0  0  0  0  0  0
   11.5118  -19.8830   20.0132 C   0  0  0  0  0  0  0  0  0  0  0  0
   11.0150  -18.7372   20.6556 O   0  0  0  0  0  0  0  0  0  0  0  0
   12.1101  -20.7194   20.7303 O   0  0  0  0  0  0  0  0  0  0  0  0
  2  1  1  1
  2  4  1  0
  2  3  1  0
  4  6  1  0
  4  5  1  6
  6  7  2  0
  9  8  1  0
 10  9  1  1
 10 12  1  0
 11 10  1  0
 11  6  1  0
 12 13  2  0
 12 14  1  0
 14 15  1  0
 15 21  1  0
 15 16  1  6
 17 16  1  0
 18 17  1  0
 19 18  1  0
 20 19  1  0
 21 23  2  0
 21 22  1  0
M  END
$$$$
