VSK.pdb
     RDKit          3D

 23 22  0  0  1  0  0  0  0  0999 V2000
    8.5780  -20.2863   17.3571 C   0  0  0  0  0  0  0  0  0  0  0  0
    9.1755  -19.4015   18.4314 C   0  0  2  0  0  0  0  0  0  0  0  0
    8.6774  -19.8804   19.7718 C   0  0  0  0  0  0  0  0  0  0  0  0
    8.7740  -17.9834   18.1268 C   0  0  2  0  0  0  0  0  0  0  0  0
    9.2514  -17.6692   16.7987 N   0  0  0  0  0  0  0  0  0  0  0  0
    9.2444  -17.0208   19.1395 C   0  0  0  0  0  0  0  0  0  0  0  0
   10.4812  -16.8197   19.2227 O   0  0  0  0  0  0  0  0  0  0  0  0
    6.6869  -15.2321   22.0398 O   0  0  0  0  0  0  0  0  0  0  0  0
    7.7726  -14.5036   21.5742 C   0  0  0  0  0  0  0  0  0  0  0  0
    8.8690  -15.4026   21.0447 C   0  0  2  0  0  0  0  0  0  0  0  0
    8.3876  -16.3106   20.0225 N   0  0  0  0  0  0  0  0  0  0  0  0
    9.4641  -16.2114   22.1388 C   0  0  0  0  0  0  0  0  0  0  0  0
    8.9491  -17.3001   22.5107 O   0  0  0  0  0  0  0  0  0  0  0  0
   10.6456  -15.8017   22.8246 N   0  0  0  0  0  0  0  0  0  0  0  0
   11.2102  -16.5485   23.9239 C   0  0  1  0  0  0  0  0  0  0  0  0
   12.7005  -16.5767   23.8581 C   0  0  0  0  0  0  0  0  0  0  0  0
   13.3259  -17.4970   22.8886 C   0  0  0  0  0  0  0  0  0  0  0  0
   14.7996  -17.3394   22.7972 C   0  0  0  0  0  0  0  0  0  0  0  0
   15.3834  -18.3062   21.7375 C   0  0  0  0  0  0  0  0  0  0  0  0
   16.7886  -17.9478   21.6331 N   0  0  0  0  0  0  0  0  0  0  0  0
   10.6771  -16.0830   25.2047 C   0  0  0  0  0  0  0  0  0  0  0  0
    9.8504  -14.9506   25.2871 O   0  0  0  0  0  0  0  0  0  0  0  0
   10.9329  -16.6764   26.2791 O   0  0  0  0  0  0  0  0  0  0  0  0
  2  1  1  6
  2  4  1  0
  2  3  1  0
  4  6  1  0
  4  5  1  6
  6  7  2  0
  9  8  1  0
 10  9  1  1
 10 12  1  0
 11 10  1  0
 11  6  1  0
 12 13  2  0
 12 14  1  0
 14 15  1  0
 15 21  1  0
 15 16  1  1
 17 16  1  0
 18 17  1  0
 19 18  1  0
 20 19  1  0
 21 23  2  0
 21 22  1  0
M  END
$$$$
