VSK.pdb
     RDKit          3D

 23 22  0  0  1  0  0  0  0  0999 V2000
    8.2106  -12.6965   17.4861 C   0  0  0  0  0  0  0  0  0  0  0  0
    8.0826  -13.4643   18.7855 C   0  0  2  0  0  0  0  0  0  0  0  0
    8.7785  -12.6808   19.8700 C   0  0  0  0  0  0  0  0  0  0  0  0
    8.6812  -14.8278   18.5680 C   0  0  2  0  0  0  0  0  0  0  0  0
    8.0161  -15.4212   17.4297 N   0  0  0  0  0  0  0  0  0  0  0  0
    8.6200  -15.6824   19.7678 C   0  0  0  0  0  0  0  0  0  0  0  0
    7.4850  -15.9683   20.2226 O   0  0  0  0  0  0  0  0  0  0  0  0
   12.0470  -17.4387   21.7211 O   0  0  0  0  0  0  0  0  0  0  0  0
   10.7864  -18.0189   21.7370 C   0  0  0  0  0  0  0  0  0  0  0  0
    9.6875  -16.9813   21.6553 C   0  0  2  0  0  0  0  0  0  0  0  0
    9.7615  -16.1992   20.4371 N   0  0  0  0  0  0  0  0  0  0  0  0
    9.7542  -16.0484   22.8087 C   0  0  0  0  0  0  0  0  0  0  0  0
   10.4817  -15.0193   22.7847 O   0  0  0  0  0  0  0  0  0  0  0  0
    9.0019  -16.2657   24.0008 N   0  0  0  0  0  0  0  0  0  0  0  0
    9.0597  -15.3742   25.1352 C   0  0  1  0  0  0  0  0  0  0  0  0
    7.8291  -14.5366   25.2362 C   0  0  0  0  0  0  0  0  0  0  0  0
    7.7261  -13.6055   26.3765 C   0  0  0  0  0  0  0  0  0  0  0  0
    6.4589  -12.8315   26.3887 C   0  0  0  0  0  0  0  0  0  0  0  0
    6.4138  -11.8849   27.6137 C   0  0  0  0  0  0  0  0  0  0  0  0
    5.1088  -11.2470   27.5498 N   0  0  0  0  0  0  0  0  0  0  0  0
    9.3891  -16.1030   26.3606 C   0  0  0  0  0  0  0  0  0  0  0  0
    9.9571  -15.4546   27.4693 O   0  0  0  0  0  0  0  0  0  0  0  0
    9.1755  -17.3333   26.4725 O   0  0  0  0  0  0  0  0  0  0  0  0
  2  1  1  6
  2  4  1  0
  2  3  1  0
  4  6  1  0
  4  5  1  6
  6  7  2  0
  9  8  1  0
 10  9  1  1
 10 12  1  0
 11 10  1  0
 11  6  1  0
 12 13  2  0
 12 14  1  0
 14 15  1  0
 15 21  1  0
 15 16  1  1
 17 16  1  0
 18 17  1  0
 19 18  1  0
 20 19  1  0
 21 23  2  0
 21 22  1  0
M  END
$$$$
