VSK.pdb
     RDKit          3D

 23 22  0  0  1  0  0  0  0  0999 V2000
    6.8592  -14.1561   20.8634 C   0  0  0  0  0  0  0  0  0  0  0  0
    8.0355  -13.4694   20.2009 C   0  0  2  0  0  0  0  0  0  0  0  0
    7.5024  -12.4362   19.2405 C   0  0  0  0  0  0  0  0  0  0  0  0
    8.8594  -14.5318   19.5247 C   0  0  2  0  0  0  0  0  0  0  0  0
    8.0607  -15.0918   18.4576 N   0  0  0  0  0  0  0  0  0  0  0  0
    9.3550  -15.5589   20.4592 C   0  0  0  0  0  0  0  0  0  0  0  0
    8.6850  -16.6148   20.5738 O   0  0  0  0  0  0  0  0  0  0  0  0
   12.9849  -17.3228   23.2276 O   0  0  0  0  0  0  0  0  0  0  0  0
   12.5331  -16.3948   22.2997 C   0  0  0  0  0  0  0  0  0  0  0  0
   11.0315  -16.4609   22.1220 C   0  0  2  0  0  0  0  0  0  0  0  0
   10.5385  -15.4269   21.2338 N   0  0  0  0  0  0  0  0  0  0  0  0
   10.3377  -16.3188   23.4273 C   0  0  0  0  0  0  0  0  0  0  0  0
   10.1840  -15.1938   23.9746 O   0  0  0  0  0  0  0  0  0  0  0  0
    9.8103  -17.4428   24.1290 N   0  0  0  0  0  0  0  0  0  0  0  0
    9.3055  -17.3552   25.4790 C   0  0  1  0  0  0  0  0  0  0  0  0
    7.8804  -17.7895   25.5597 C   0  0  0  0  0  0  0  0  0  0  0  0
    7.5928  -19.2283   25.4017 C   0  0  0  0  0  0  0  0  0  0  0  0
    6.2782  -19.4970   24.7655 C   0  0  0  0  0  0  0  0  0  0  0  0
    6.1074  -21.0121   24.4936 C   0  0  0  0  0  0  0  0  0  0  0  0
    4.7573  -21.1520   23.9723 N   0  0  0  0  0  0  0  0  0  0  0  0
   10.1936  -18.0414   26.4180 C   0  0  0  0  0  0  0  0  0  0  0  0
   10.1006  -17.8299   27.8034 O   0  0  0  0  0  0  0  0  0  0  0  0
   11.0704  -18.8472   26.0261 O   0  0  0  0  0  0  0  0  0  0  0  0
  2  1  1  6
  2  4  1  0
  2  3  1  0
  4  6  1  0
  4  5  1  6
  6  7  2  0
  9  8  1  0
 10  9  1  1
 10 12  1  0
 11 10  1  0
 11  6  1  0
 12 13  2  0
 12 14  1  0
 14 15  1  0
 15 21  1  0
 15 16  1  6
 17 16  1  0
 18 17  1  0
 19 18  1  0
 20 19  1  0
 21 23  2  0
 21 22  1  0
M  END
$$$$
