VSK.pdb
     RDKit          3D

 23 22  0  0  1  0  0  0  0  0999 V2000
    7.6078  -12.5417   18.1503 C   0  0  0  0  0  0  0  0  0  0  0  0
    7.8688  -13.3836   19.3821 C   0  0  2  0  0  0  0  0  0  0  0  0
    8.9937  -12.7491   20.1607 C   0  0  0  0  0  0  0  0  0  0  0  0
    8.1879  -14.7794   18.9187 C   0  0  2  0  0  0  0  0  0  0  0  0
    7.0763  -15.2390   18.1165 N   0  0  0  0  0  0  0  0  0  0  0  0
    8.5024  -15.6976   20.0285 C   0  0  0  0  0  0  0  0  0  0  0  0
    7.5558  -16.0651   20.7673 O   0  0  0  0  0  0  0  0  0  0  0  0
   12.0159  -17.9442   20.1674 O   0  0  0  0  0  0  0  0  0  0  0  0
   10.8755  -18.3364   20.8544 C   0  0  0  0  0  0  0  0  0  0  0  0
   10.0864  -17.1483   21.3610 C   0  0  2  0  0  0  0  0  0  0  0  0
    9.8049  -16.1892   20.3112 N   0  0  0  0  0  0  0  0  0  0  0  0
   10.8230  -16.4468   22.4430 C   0  0  0  0  0  0  0  0  0  0  0  0
   11.7106  -15.5886   22.1890 O   0  0  0  0  0  0  0  0  0  0  0  0
   10.5668  -16.7054   23.8220 N   0  0  0  0  0  0  0  0  0  0  0  0
   11.2347  -15.9960   24.8876 C   0  0  1  0  0  0  0  0  0  0  0  0
   10.3728  -15.8936   26.1012 C   0  0  0  0  0  0  0  0  0  0  0  0
   10.9750  -15.3258   27.3231 C   0  0  0  0  0  0  0  0  0  0  0  0
   10.0357  -15.2788   28.4723 C   0  0  0  0  0  0  0  0  0  0  0  0
   10.6956  -14.5737   29.6830 C   0  0  0  0  0  0  0  0  0  0  0  0
    9.7107  -14.6546   30.7496 N   0  0  0  0  0  0  0  0  0  0  0  0
   12.5617  -16.5576   25.1424 C   0  0  0  0  0  0  0  0  0  0  0  0
   12.8188  -17.9299   24.9904 O   0  0  0  0  0  0  0  0  0  0  0  0
   13.5230  -15.8382   25.5032 O   0  0  0  0  0  0  0  0  0  0  0  0
  2  1  1  6
  2  4  1  0
  2  3  1  0
  4  6  1  0
  4  5  1  1
  6  7  2  0
  9  8  1  0
 10  9  1  6
 10 12  1  0
 11 10  1  0
 11  6  1  0
 12 13  2  0
 12 14  1  0
 14 15  1  0
 15 21  1  0
 15 16  1  1
 17 16  1  0
 18 17  1  0
 19 18  1  0
 20 19  1  0
 21 23  2  0
 21 22  1  0
M  END
$$$$
