VSK.pdb
     RDKit          3D

 23 22  0  0  1  0  0  0  0  0999 V2000
   -2.4074  -30.8770   27.8174 C   0  0  0  0  0  0  0  0  0  0  0  0
   -2.9240  -30.4114   26.4719 C   0  0  2  0  0  0  0  0  0  0  0  0
   -2.2726  -31.2469   25.3986 C   0  0  0  0  0  0  0  0  0  0  0  0
   -2.6100  -28.9449   26.3478 C   0  0  2  0  0  0  0  0  0  0  0  0
   -1.1719  -28.8088   26.2886 N   0  0  0  0  0  0  0  0  0  0  0  0
   -3.2114  -28.1336   27.4219 C   0  0  0  0  0  0  0  0  0  0  0  0
   -2.6822  -28.1879   28.5594 O   0  0  0  0  0  0  0  0  0  0  0  0
   -5.2956  -24.6808   26.8928 O   0  0  0  0  0  0  0  0  0  0  0  0
   -4.8906  -25.0787   28.1593 C   0  0  0  0  0  0  0  0  0  0  0  0
   -4.9832  -26.5791   28.3350 C   0  0  2  0  0  0  0  0  0  0  0  0
   -4.3476  -27.2985   27.2489 N   0  0  0  0  0  0  0  0  0  0  0  0
   -6.4004  -27.0160   28.4123 C   0  0  0  0  0  0  0  0  0  0  0  0
   -7.0556  -27.3190   27.3789 O   0  0  0  0  0  0  0  0  0  0  0  0
   -7.0935  -27.1159   29.6547 N   0  0  0  0  0  0  0  0  0  0  0  0
   -8.4749  -27.5259   29.7486 C   0  0  1  0  0  0  0  0  0  0  0  0
   -8.8516  -27.8627   31.1524 C   0  0  0  0  0  0  0  0  0  0  0  0
   -8.1385  -28.9785   31.8039 C   0  0  0  0  0  0  0  0  0  0  0  0
   -8.4824  -29.1352   33.2400 C   0  0  0  0  0  0  0  0  0  0  0  0
   -7.6120  -30.2401   33.8883 C   0  0  0  0  0  0  0  0  0  0  0  0
   -6.2776  -29.6687   33.9717 N   0  0  0  0  0  0  0  0  0  0  0  0
   -9.3579  -26.5488   29.1107 C   0  0  0  0  0  0  0  0  0  0  0  0
  -10.5107  -26.9469   28.4142 O   0  0  0  0  0  0  0  0  0  0  0  0
   -9.1244  -25.3181   29.1620 O   0  0  0  0  0  0  0  0  0  0  0  0
  2  1  1  1
  2  4  1  0
  2  3  1  0
  4  6  1  0
  4  5  1  1
  6  7  2  0
  9  8  1  0
 10  9  1  6
 10 12  1  0
 11 10  1  0
 11  6  1  0
 12 13  2  0
 12 14  1  0
 14 15  1  0
 15 21  1  0
 15 16  1  1
 17 16  1  0
 18 17  1  0
 19 18  1  0
 20 19  1  0
 21 23  2  0
 21 22  1  0
M  END
$$$$
