VSK.pdb
     RDKit          3D

 23 22  0  0  1  0  0  0  0  0999 V2000
    7.5104  -12.6292   20.3757 C   0  0  0  0  0  0  0  0  0  0  0  0
    8.4793  -13.3202   19.4387 C   0  0  2  0  0  0  0  0  0  0  0  0
    7.8942  -13.2962   18.0490 C   0  0  0  0  0  0  0  0  0  0  0  0
    8.6994  -14.7145   19.9606 C   0  0  2  0  0  0  0  0  0  0  0  0
    7.4819  -15.4620   19.7387 N   0  0  0  0  0  0  0  0  0  0  0  0
    9.1305  -14.7410   21.3702 C   0  0  0  0  0  0  0  0  0  0  0  0
   10.2957  -14.3520   21.6309 O   0  0  0  0  0  0  0  0  0  0  0  0
    6.6216  -16.0594   24.5379 O   0  0  0  0  0  0  0  0  0  0  0  0
    7.6592  -15.1812   24.8177 C   0  0  0  0  0  0  0  0  0  0  0  0
    8.7835  -15.2983   23.8112 C   0  0  2  0  0  0  0  0  0  0  0  0
    8.3118  -15.1778   22.4459 N   0  0  0  0  0  0  0  0  0  0  0  0
    9.4805  -16.6026   23.9463 C   0  0  0  0  0  0  0  0  0  0  0  0
    9.0579  -17.6403   23.3689 O   0  0  0  0  0  0  0  0  0  0  0  0
   10.6606  -16.7507   24.7334 N   0  0  0  0  0  0  0  0  0  0  0  0
   11.2915  -18.0290   24.9635 C   0  0  1  0  0  0  0  0  0  0  0  0
   12.7704  -17.9498   24.7825 C   0  0  0  0  0  0  0  0  0  0  0  0
   13.5526  -19.1843   24.9875 C   0  0  0  0  0  0  0  0  0  0  0  0
   15.0091  -18.9993   24.7650 C   0  0  0  0  0  0  0  0  0  0  0  0
   15.7630  -20.3363   24.9712 C   0  0  0  0  0  0  0  0  0  0  0  0
   17.1571  -20.0300   24.6941 N   0  0  0  0  0  0  0  0  0  0  0  0
   10.8759  -18.5973   26.2463 C   0  0  0  0  0  0  0  0  0  0  0  0
   10.2498  -17.8120   27.2280 O   0  0  0  0  0  0  0  0  0  0  0  0
   11.0580  -19.8070   26.5205 O   0  0  0  0  0  0  0  0  0  0  0  0
  2  1  1  1
  2  4  1  0
  2  3  1  0
  4  6  1  0
  4  5  1  1
  6  7  2  0
  9  8  1  0
 10  9  1  1
 10 12  1  0
 11 10  1  0
 11  6  1  0
 12 13  2  0
 12 14  1  0
 14 15  1  0
 15 21  1  0
 15 16  1  1
 17 16  1  0
 18 17  1  0
 19 18  1  0
 20 19  1  0
 21 23  2  0
 21 22  1  0
M  END
$$$$
