VSK.pdb
     RDKit          3D

 23 22  0  0  1  0  0  0  0  0999 V2000
    7.0981  -14.4440   18.1846 C   0  0  0  0  0  0  0  0  0  0  0  0
    7.8069  -14.7450   19.4889 C   0  0  2  0  0  0  0  0  0  0  0  0
    7.1502  -15.9473   20.1193 C   0  0  0  0  0  0  0  0  0  0  0  0
    7.7228  -13.5112   20.3465 C   0  0  2  0  0  0  0  0  0  0  0  0
    8.2965  -12.4167   19.5961 N   0  0  0  0  0  0  0  0  0  0  0  0
    8.3539  -13.6834   21.6678 C   0  0  0  0  0  0  0  0  0  0  0  0
    9.6086  -13.7007   21.7168 O   0  0  0  0  0  0  0  0  0  0  0  0
    6.1405  -14.5022   25.2093 O   0  0  0  0  0  0  0  0  0  0  0  0
    7.3371  -13.8086   25.3247 C   0  0  0  0  0  0  0  0  0  0  0  0
    8.2644  -14.0873   24.1614 C   0  0  2  0  0  0  0  0  0  0  0  0
    7.6322  -13.8301   22.8826 N   0  0  0  0  0  0  0  0  0  0  0  0
    8.7209  -15.5003   24.1758 C   0  0  0  0  0  0  0  0  0  0  0  0
    8.0447  -16.4185   23.6385 O   0  0  0  0  0  0  0  0  0  0  0  0
    9.9437  -15.8930   24.7959 N   0  0  0  0  0  0  0  0  0  0  0  0
   10.3393  -17.2743   24.9392 C   0  0  1  0  0  0  0  0  0  0  0  0
   11.4277  -17.6338   23.9841 C   0  0  0  0  0  0  0  0  0  0  0  0
   11.0477  -18.3500   22.7510 C   0  0  0  0  0  0  0  0  0  0  0  0
   12.1921  -18.5884   21.8351 C   0  0  0  0  0  0  0  0  0  0  0  0
   11.6989  -19.1938   20.4976 C   0  0  0  0  0  0  0  0  0  0  0  0
   12.9040  -19.4055   19.7122 N   0  0  0  0  0  0  0  0  0  0  0  0
   10.6398  -17.5930   26.3355 C   0  0  0  0  0  0  0  0  0  0  0  0
   10.9498  -18.9022   26.7386 O   0  0  0  0  0  0  0  0  0  0  0  0
   10.6363  -16.7120   27.2275 O   0  0  0  0  0  0  0  0  0  0  0  0
  2  1  1  6
  2  4  1  0
  2  3  1  0
  4  6  1  0
  4  5  1  6
  6  7  2  0
  9  8  1  0
 10  9  1  1
 10 12  1  0
 11 10  1  0
 11  6  1  0
 12 13  2  0
 12 14  1  0
 14 15  1  0
 15 21  1  0
 15 16  1  6
 17 16  1  0
 18 17  1  0
 19 18  1  0
 20 19  1  0
 21 23  2  0
 21 22  1  0
M  END
$$$$
