VSK.pdb
     RDKit          3D

 23 22  0  0  1  0  0  0  0  0999 V2000
    7.5099  -12.1495   19.2113 C   0  0  0  0  0  0  0  0  0  0  0  0
    8.0142  -13.3046   20.0513 C   0  0  2  0  0  0  0  0  0  0  0  0
    9.3591  -12.9264   20.6193 C   0  0  0  0  0  0  0  0  0  0  0  0
    8.0702  -14.5198   19.1653 C   0  0  2  0  0  0  0  0  0  0  0  0
    6.7415  -14.7392   18.6392 N   0  0  0  0  0  0  0  0  0  0  0  0
    8.6108  -15.7082   19.8502 C   0  0  0  0  0  0  0  0  0  0  0  0
    7.8923  -16.2557   20.7224 O   0  0  0  0  0  0  0  0  0  0  0  0
   12.4583  -17.4096   19.0132 O   0  0  0  0  0  0  0  0  0  0  0  0
   11.3868  -18.2096   19.3847 C   0  0  0  0  0  0  0  0  0  0  0  0
   10.3929  -17.4573   20.2431 C   0  0  2  0  0  0  0  0  0  0  0  0
    9.8890  -16.2685   19.5844 N   0  0  0  0  0  0  0  0  0  0  0  0
   11.0099  -17.0466   21.5300 C   0  0  0  0  0  0  0  0  0  0  0  0
   11.4848  -15.8909   21.6957 O   0  0  0  0  0  0  0  0  0  0  0  0
   11.0979  -17.9342   22.6429 N   0  0  0  0  0  0  0  0  0  0  0  0
   11.7570  -17.5775   23.8771 C   0  0  1  0  0  0  0  0  0  0  0  0
   11.2148  -18.3527   25.0309 C   0  0  0  0  0  0  0  0  0  0  0  0
   11.8722  -18.1808   26.3409 C   0  0  0  0  0  0  0  0  0  0  0  0
   11.2895  -19.0359   27.4060 C   0  0  0  0  0  0  0  0  0  0  0  0
   11.9884  -18.7651   28.7613 C   0  0  0  0  0  0  0  0  0  0  0  0
   11.2625  -19.5728   29.7281 N   0  0  0  0  0  0  0  0  0  0  0  0
   13.2117  -17.6525   23.7372 C   0  0  0  0  0  0  0  0  0  0  0  0
   14.0383  -16.5704   24.0808 O   0  0  0  0  0  0  0  0  0  0  0  0
   13.7796  -18.6848   23.3087 O   0  0  0  0  0  0  0  0  0  0  0  0
  2  1  1  6
  2  4  1  0
  2  3  1  0
  4  6  1  0
  4  5  1  1
  6  7  2  0
  9  8  1  0
 10  9  1  6
 10 12  1  0
 11 10  1  0
 11  6  1  0
 12 13  2  0
 12 14  1  0
 14 15  1  0
 15 21  1  0
 15 16  1  1
 17 16  1  0
 18 17  1  0
 19 18  1  0
 20 19  1  0
 21 23  2  0
 21 22  1  0
M  END
$$$$
