PMV.pdb
     RDKit          3D

 23 23  0  0  1  0  0  0  0  0999 V2000
   15.1536  -19.4290    3.6025 N   0  0  0  0  0  0  0  0  0  0  0  0
   14.3790  -20.4061    2.8601 C   0  0  0  0  0  0  0  0  0  0  0  0
   15.3389  -21.0587    1.8836 C   0  0  0  0  0  0  0  0  0  0  0  0
   16.7009  -20.4562    2.2524 C   0  0  0  0  0  0  0  0  0  0  0  0
   16.4486  -20.0771    3.7000 C   0  0  1  0  0  0  0  0  0  0  0  0
   17.4863  -19.1646    4.2275 C   0  0  0  0  0  0  0  0  0  0  0  0
   18.6437  -19.6358    4.3725 O   0  0  0  0  0  0  0  0  0  0  0  0
   19.4009  -11.5357    4.6184 C   0  0  0  0  0  0  0  0  0  0  0  0
   18.1699  -12.8647    4.4056 S   0  0  0  0  0  0  0  0  0  0  0  0
   18.9123  -14.4453    4.9907 C   0  0  0  0  0  0  0  0  0  0  0  0
   17.9179  -15.5125    4.6811 C   0  0  0  0  0  0  0  0  0  0  0  0
   18.3141  -16.9085    5.0283 C   0  0  2  0  0  0  0  0  0  0  0  0
   17.2687  -17.8166    4.5751 N   0  0  0  0  0  0  0  0  0  0  0  0
   18.5912  -17.0766    6.4663 C   0  0  0  0  0  0  0  0  0  0  0  0
   17.6383  -17.2423    7.2562 O   0  0  0  0  0  0  0  0  0  0  0  0
   21.8736  -18.0526   10.0573 C   0  0  0  0  0  0  0  0  0  0  0  0
   21.5935  -17.7595    8.6206 C   0  0  2  0  0  0  0  0  0  0  0  0
   22.6357  -16.8597    8.0142 C   0  0  0  0  0  0  0  0  0  0  0  0
   20.2112  -17.1807    8.4032 C   0  0  2  0  0  0  0  0  0  0  0  0
   19.9068  -17.0593    7.0057 N   0  0  0  0  0  0  0  0  0  0  0  0
   20.1147  -15.9174    9.1469 C   0  0  0  0  0  0  0  0  0  0  0  0
   19.8033  -15.9569   10.4848 O   0  0  0  0  0  0  0  0  0  0  0  0
   20.3025  -14.7856    8.6258 O   0  0  0  0  0  0  0  0  0  0  0  0
  1  5  1  0
  2  3  1  0
  2  1  1  0
  3  4  1  0
  4  5  1  0
  5  6  1  6
  6  7  2  0
  9 10  1  0
  9  8  1  0
 10 11  1  0
 12 11  1  1
 12 14  1  0
 13  6  1  0
 13 12  1  0
 14 15  2  0
 17 16  1  1
 17 18  1  0
 17 19  1  0
 19 21  1  0
 19 20  1  6
 20 14  1  0
 21 23  2  0
 21 22  1  0
M  END
$$$$
