PMV.pdb
     RDKit          3D

 23 23  0  0  1  0  0  0  0  0999 V2000
   20.1670  -11.4687  -19.7098 N   0  0  0  0  0  0  0  0  0  0  0  0
   19.6978  -12.5729  -20.5262 C   0  0  0  0  0  0  0  0  0  0  0  0
   18.8346  -13.4339  -19.6239 C   0  0  0  0  0  0  0  0  0  0  0  0
   18.7698  -12.6389  -18.3132 C   0  0  0  0  0  0  0  0  0  0  0  0
   19.0355  -11.2372  -18.8309 C   0  0  1  0  0  0  0  0  0  0  0  0
   19.3645  -10.2925  -17.7415 C   0  0  0  0  0  0  0  0  0  0  0  0
   18.4562  -10.0393  -16.9087 O   0  0  0  0  0  0  0  0  0  0  0  0
   23.9829  -12.4521  -13.7026 C   0  0  0  0  0  0  0  0  0  0  0  0
   23.9354  -10.8428  -14.5599 S   0  0  0  0  0  0  0  0  0  0  0  0
   22.2122  -10.5400  -15.1349 C   0  0  0  0  0  0  0  0  0  0  0  0
   22.2390   -9.2401  -15.8652 C   0  0  0  0  0  0  0  0  0  0  0  0
   20.9475   -8.7869  -16.4593 C   0  0  2  0  0  0  0  0  0  0  0  0
   20.6139   -9.6630  -17.5747 N   0  0  0  0  0  0  0  0  0  0  0  0
   20.9809   -7.3725  -16.8732 C   0  0  0  0  0  0  0  0  0  0  0  0
   21.6696   -7.0416  -17.8609 O   0  0  0  0  0  0  0  0  0  0  0  0
   17.8539   -4.6249  -15.9072 C   0  0  0  0  0  0  0  0  0  0  0  0
   18.8457   -4.5455  -17.0201 C   0  0  2  0  0  0  0  0  0  0  0  0
   18.4057   -5.3304  -18.2258 C   0  0  0  0  0  0  0  0  0  0  0  0
   20.2341   -4.9742  -16.5941 C   0  0  2  0  0  0  0  0  0  0  0  0
   20.2584   -6.3528  -16.1947 N   0  0  0  0  0  0  0  0  0  0  0  0
   20.7103   -4.0451  -15.5605 C   0  0  0  0  0  0  0  0  0  0  0  0
   21.0261   -2.7570  -15.9205 O   0  0  0  0  0  0  0  0  0  0  0  0
   20.8484   -4.3617  -14.3486 O   0  0  0  0  0  0  0  0  0  0  0  0
  1  5  1  0
  2  3  1  0
  2  1  1  0
  3  4  1  0
  4  5  1  0
  5  6  1  1
  6  7  2  0
  9 10  1  0
  9  8  1  0
 10 11  1  0
 12 11  1  6
 12 14  1  0
 13  6  1  0
 13 12  1  0
 14 15  2  0
 17 16  1  1
 17 18  1  0
 17 19  1  0
 19 21  1  0
 19 20  1  1
 20 14  1  0
 21 23  2  0
 21 22  1  0
M  END
$$$$
