PMV.pdb
     RDKit          3D

 23 23  0  0  1  0  0  0  0  0999 V2000
   27.7593  -19.3732  -15.3930 N   0  0  0  0  0  0  0  0  0  0  0  0
   28.7744  -19.2038  -16.4162 C   0  0  0  0  0  0  0  0  0  0  0  0
   29.6790  -20.4179  -16.3248 C   0  0  0  0  0  0  0  0  0  0  0  0
   28.9956  -21.3045  -15.2754 C   0  0  0  0  0  0  0  0  0  0  0  0
   27.5651  -20.8115  -15.3916 C   0  0  1  0  0  0  0  0  0  0  0  0
   26.7271  -21.2562  -14.2568 C   0  0  0  0  0  0  0  0  0  0  0  0
   26.0854  -22.3281  -14.4039 O   0  0  0  0  0  0  0  0  0  0  0  0
   27.8557  -20.6843   -7.9827 C   0  0  0  0  0  0  0  0  0  0  0  0
   26.1823  -19.9617   -8.0504 S   0  0  0  0  0  0  0  0  0  0  0  0
   25.2948  -20.6823   -9.4943 C   0  0  0  0  0  0  0  0  0  0  0  0
   26.1609  -20.4334  -10.6824 C   0  0  0  0  0  0  0  0  0  0  0  0
   25.6388  -20.9128  -11.9953 C   0  0  2  0  0  0  0  0  0  0  0  0
   26.6002  -20.5674  -13.0342 N   0  0  0  0  0  0  0  0  0  0  0  0
   24.2985  -20.3799  -12.2995 C   0  0  0  0  0  0  0  0  0  0  0  0
   24.1379  -19.1444  -12.3859 O   0  0  0  0  0  0  0  0  0  0  0  0
   21.3442  -22.8857  -14.1178 C   0  0  0  0  0  0  0  0  0  0  0  0
   21.4657  -21.4029  -14.2404 C   0  0  2  0  0  0  0  0  0  0  0  0
   22.3998  -21.0026  -15.3499 C   0  0  0  0  0  0  0  0  0  0  0  0
   21.8814  -20.7435  -12.9422 C   0  0  2  0  0  0  0  0  0  0  0  0
   23.1644  -21.2135  -12.5021 N   0  0  0  0  0  0  0  0  0  0  0  0
   20.8065  -20.9349  -11.9592 C   0  0  0  0  0  0  0  0  0  0  0  0
   21.0656  -21.6692  -10.8269 O   0  0  0  0  0  0  0  0  0  0  0  0
   19.6468  -20.4606  -12.0932 O   0  0  0  0  0  0  0  0  0  0  0  0
  1  5  1  0
  2  3  1  0
  2  1  1  0
  3  4  1  0
  4  5  1  0
  5  6  1  1
  6  7  2  0
  9 10  1  0
  9  8  1  0
 10 11  1  0
 12 11  1  1
 12 14  1  0
 13  6  1  0
 13 12  1  0
 14 15  2  0
 17 16  1  1
 17 18  1  0
 17 19  1  0
 19 21  1  0
 19 20  1  1
 20 14  1  0
 21 23  2  0
 21 22  1  0
M  END
$$$$
