PMV.pdb
     RDKit          3D

 23 23  0  0  1  0  0  0  0  0999 V2000
   28.3769  -21.1883  -15.9052 N   0  0  0  0  0  0  0  0  0  0  0  0
   29.1335  -20.3000  -16.7680 C   0  0  0  0  0  0  0  0  0  0  0  0
   28.5377  -18.9173  -16.5842 C   0  0  0  0  0  0  0  0  0  0  0  0
   27.5044  -19.1102  -15.4665 C   0  0  0  0  0  0  0  0  0  0  0  0
   28.0783  -20.3316  -14.7723 C   0  0  1  0  0  0  0  0  0  0  0  0
   27.1080  -20.9555  -13.8467 C   0  0  0  0  0  0  0  0  0  0  0  0
   26.2856  -21.7688  -14.3413 O   0  0  0  0  0  0  0  0  0  0  0  0
   26.4940  -19.1092   -7.4355 C   0  0  0  0  0  0  0  0  0  0  0  0
   26.0745  -20.8818   -7.5274 S   0  0  0  0  0  0  0  0  0  0  0  0
   25.2881  -21.2103   -9.1600 C   0  0  0  0  0  0  0  0  0  0  0  0
   26.2809  -20.7941  -10.1920 C   0  0  0  0  0  0  0  0  0  0  0  0
   25.9247  -21.0878  -11.6108 C   0  0  2  0  0  0  0  0  0  0  0  0
   27.0429  -20.7031  -12.4620 N   0  0  0  0  0  0  0  0  0  0  0  0
   24.6746  -20.4275  -12.0283 C   0  0  0  0  0  0  0  0  0  0  0  0
   24.6429  -19.1825  -12.1198 O   0  0  0  0  0  0  0  0  0  0  0  0
   21.6822  -22.4455  -14.3208 C   0  0  0  0  0  0  0  0  0  0  0  0
   21.9484  -20.9801  -14.2194 C   0  0  2  0  0  0  0  0  0  0  0  0
   23.0332  -20.5367  -15.1629 C   0  0  0  0  0  0  0  0  0  0  0  0
   22.2728  -20.5438  -12.8062 C   0  0  2  0  0  0  0  0  0  0  0  0
   23.4874  -21.1473  -12.3362 N   0  0  0  0  0  0  0  0  0  0  0  0
   21.1047  -20.8143  -11.9571 C   0  0  0  0  0  0  0  0  0  0  0  0
   21.2037  -21.7736  -10.9781 O   0  0  0  0  0  0  0  0  0  0  0  0
   20.0037  -20.2125  -12.0737 O   0  0  0  0  0  0  0  0  0  0  0  0
  1  5  1  0
  2  3  1  0
  2  1  1  0
  3  4  1  0
  4  5  1  0
  5  6  1  1
  6  7  2  0
  9 10  1  0
  9  8  1  0
 10 11  1  0
 12 11  1  1
 12 14  1  0
 13  6  1  0
 13 12  1  0
 14 15  2  0
 17 16  1  1
 17 18  1  0
 17 19  1  0
 19 21  1  0
 19 20  1  1
 20 14  1  0
 21 23  2  0
 21 22  1  0
M  END
$$$$
