PMV.pdb
     RDKit          3D

 23 23  0  0  1  0  0  0  0  0999 V2000
   27.7769  -19.3728  -15.3494 N   0  0  0  0  0  0  0  0  0  0  0  0
   28.8589  -19.1952  -16.2999 C   0  0  0  0  0  0  0  0  0  0  0  0
   29.7144  -20.4445  -16.2107 C   0  0  0  0  0  0  0  0  0  0  0  0
   28.9374  -21.3514  -15.2475 C   0  0  0  0  0  0  0  0  0  0  0  0
   27.5344  -20.8017  -15.4271 C   0  0  1  0  0  0  0  0  0  0  0  0
   26.6128  -21.2656  -14.3674 C   0  0  0  0  0  0  0  0  0  0  0  0
   25.9727  -22.3258  -14.5883 O   0  0  0  0  0  0  0  0  0  0  0  0
   27.4845  -20.2666   -8.4155 C   0  0  0  0  0  0  0  0  0  0  0  0
   25.6787  -20.1845   -8.1722 S   0  0  0  0  0  0  0  0  0  0  0  0
   24.8565  -20.7972   -9.7020 C   0  0  0  0  0  0  0  0  0  0  0  0
   25.7947  -20.5072  -10.8241 C   0  0  0  0  0  0  0  0  0  0  0  0
   25.3734  -20.9730  -12.1776 C   0  0  2  0  0  0  0  0  0  0  0  0
   26.4051  -20.6070  -13.1392 N   0  0  0  0  0  0  0  0  0  0  0  0
   24.0545  -20.4459  -12.5719 C   0  0  0  0  0  0  0  0  0  0  0  0
   23.8788  -19.2102  -12.6144 O   0  0  0  0  0  0  0  0  0  0  0  0
   21.1022  -22.9762  -14.4433 C   0  0  0  0  0  0  0  0  0  0  0  0
   21.2148  -21.4961  -14.6019 C   0  0  2  0  0  0  0  0  0  0  0  0
   22.1098  -21.1177  -15.7505 C   0  0  0  0  0  0  0  0  0  0  0  0
   21.6718  -20.8078  -13.3329 C   0  0  2  0  0  0  0  0  0  0  0  0
   22.9579  -21.2854  -12.9107 N   0  0  0  0  0  0  0  0  0  0  0  0
   20.6184  -20.9551  -12.3196 C   0  0  0  0  0  0  0  0  0  0  0  0
   20.8778  -21.7031  -11.1963 O   0  0  0  0  0  0  0  0  0  0  0  0
   19.4770  -20.4305  -12.4192 O   0  0  0  0  0  0  0  0  0  0  0  0
  1  5  1  0
  2  3  1  0
  2  1  1  0
  3  4  1  0
  4  5  1  0
  5  6  1  1
  6  7  2  0
  9 10  1  0
  9  8  1  0
 10 11  1  0
 12 11  1  1
 12 14  1  0
 13  6  1  0
 13 12  1  0
 14 15  2  0
 17 16  1  1
 17 18  1  0
 17 19  1  0
 19 21  1  0
 19 20  1  1
 20 14  1  0
 21 23  2  0
 21 22  1  0
M  END
$$$$
