PMV.pdb
     RDKit          3D

 23 23  0  0  1  0  0  0  0  0999 V2000
   26.7237  -21.7454  -15.3255 N   0  0  0  0  0  0  0  0  0  0  0  0
   27.1483  -21.7899  -16.7125 C   0  0  0  0  0  0  0  0  0  0  0  0
   27.7411  -20.4283  -17.0210 C   0  0  0  0  0  0  0  0  0  0  0  0
   27.7237  -19.7069  -15.6669 C   0  0  0  0  0  0  0  0  0  0  0  0
   27.7353  -20.8961  -14.7241 C   0  0  1  0  0  0  0  0  0  0  0  0
   27.3856  -20.5140  -13.3387 C   0  0  0  0  0  0  0  0  0  0  0  0
   28.1722  -19.7331  -12.7438 O   0  0  0  0  0  0  0  0  0  0  0  0
   21.1567  -21.4440  -11.0202 C   0  0  0  0  0  0  0  0  0  0  0  0
   21.6035  -19.6808  -11.1557 S   0  0  0  0  0  0  0  0  0  0  0  0
   23.3735  -19.4907  -10.6837 C   0  0  0  0  0  0  0  0  0  0  0  0
   24.1620  -20.2105  -11.7247 C   0  0  0  0  0  0  0  0  0  0  0  0
   25.6394  -20.2590  -11.5215 C   0  0  2  0  0  0  0  0  0  0  0  0
   26.2425  -20.9610  -12.6469 N   0  0  0  0  0  0  0  0  0  0  0  0
   26.0134  -20.8754  -10.2358 C   0  0  0  0  0  0  0  0  0  0  0  0
   25.9752  -22.1183  -10.1207 O   0  0  0  0  0  0  0  0  0  0  0  0
   27.5900  -18.5635   -6.7989 C   0  0  0  0  0  0  0  0  0  0  0  0
   27.8863  -19.9809   -7.1617 C   0  0  2  0  0  0  0  0  0  0  0  0
   29.1069  -20.0972   -8.0336 C   0  0  0  0  0  0  0  0  0  0  0  0
   26.7084  -20.6732   -7.8144 C   0  0  2  0  0  0  0  0  0  0  0  0
   26.4209  -20.1152   -9.1052 N   0  0  0  0  0  0  0  0  0  0  0  0
   25.5734  -20.6364   -6.8822 C   0  0  0  0  0  0  0  0  0  0  0  0
   25.7005  -21.2465   -5.6574 O   0  0  0  0  0  0  0  0  0  0  0  0
   24.4768  -20.0722   -7.1409 O   0  0  0  0  0  0  0  0  0  0  0  0
  1  5  1  0
  2  3  1  0
  2  1  1  0
  3  4  1  0
  4  5  1  0
  5  6  1  1
  6  7  2  0
  9 10  1  0
  9  8  1  0
 10 11  1  0
 12 11  1  6
 12 14  1  0
 13  6  1  0
 13 12  1  0
 14 15  2  0
 17 16  1  6
 17 18  1  0
 17 19  1  0
 19 21  1  0
 19 20  1  6
 20 14  1  0
 21 23  2  0
 21 22  1  0
M  END
$$$$
