PMV.pdb
     RDKit          3D

 23 23  0  0  1  0  0  0  0  0999 V2000
   43.8582  -12.3415   -9.3872 N   0  0  0  0  0  0  0  0  0  0  0  0
   44.1704  -13.1185  -10.5724 C   0  0  0  0  0  0  0  0  0  0  0  0
   42.8992  -13.1657  -11.3985 C   0  0  0  0  0  0  0  0  0  0  0  0
   41.9336  -12.2491  -10.6359 C   0  0  0  0  0  0  0  0  0  0  0  0
   42.9221  -11.3602   -9.9039 C   0  0  1  0  0  0  0  0  0  0  0  0
   42.2797  -10.5837   -8.8213 C   0  0  0  0  0  0  0  0  0  0  0  0
   41.3871  -11.1645   -8.1516 O   0  0  0  0  0  0  0  0  0  0  0  0
   43.9639   -8.0410   -2.4335 C   0  0  0  0  0  0  0  0  0  0  0  0
   43.9893   -7.4298   -4.1518 S   0  0  0  0  0  0  0  0  0  0  0  0
   42.8395   -8.4618   -5.1541 C   0  0  0  0  0  0  0  0  0  0  0  0
   42.8680   -7.8971   -6.5340 C   0  0  0  0  0  0  0  0  0  0  0  0
   41.8803   -8.4593   -7.5007 C   0  0  2  0  0  0  0  0  0  0  0  0
   42.5965   -9.2507   -8.4924 N   0  0  0  0  0  0  0  0  0  0  0  0
   41.0533   -7.4167   -8.1348 C   0  0  0  0  0  0  0  0  0  0  0  0
   41.4840   -6.8287   -9.1488 O   0  0  0  0  0  0  0  0  0  0  0  0
   36.8788   -6.7382   -6.9874 C   0  0  0  0  0  0  0  0  0  0  0  0
   37.4909   -6.5326   -8.3334 C   0  0  2  0  0  0  0  0  0  0  0  0
   37.3981   -7.7657   -9.1903 C   0  0  0  0  0  0  0  0  0  0  0  0
   38.9263   -6.0569   -8.2536 C   0  0  2  0  0  0  0  0  0  0  0  0
   39.7726   -7.0424   -7.6429 N   0  0  0  0  0  0  0  0  0  0  0  0
   38.9462   -4.7522   -7.5785 C   0  0  0  0  0  0  0  0  0  0  0  0
   38.4424   -3.6564   -8.2370 O   0  0  0  0  0  0  0  0  0  0  0  0
   39.4031   -4.5750   -6.4176 O   0  0  0  0  0  0  0  0  0  0  0  0
  1  5  1  0
  2  3  1  0
  2  1  1  0
  3  4  1  0
  4  5  1  0
  5  6  1  1
  6  7  2  0
  9 10  1  0
  9  8  1  0
 10 11  1  0
 12 11  1  1
 12 14  1  0
 13  6  1  0
 13 12  1  0
 14 15  2  0
 17 16  1  1
 17 18  1  0
 17 19  1  0
 19 21  1  0
 19 20  1  1
 20 14  1  0
 21 23  2  0
 21 22  1  0
M  END
$$$$
