PMV.pdb
     RDKit          3D

 23 23  0  0  1  0  0  0  0  0999 V2000
   27.7890  -19.3662  -15.2816 N   0  0  0  0  0  0  0  0  0  0  0  0
   28.9320  -19.1651  -16.1530 C   0  0  0  0  0  0  0  0  0  0  0  0
   29.7914  -20.4082  -16.0229 C   0  0  0  0  0  0  0  0  0  0  0  0
   28.9589  -21.3360  -15.1283 C   0  0  0  0  0  0  0  0  0  0  0  0
   27.5662  -20.7957  -15.3962 C   0  0  1  0  0  0  0  0  0  0  0  0
   26.5786  -21.2833  -14.4090 C   0  0  0  0  0  0  0  0  0  0  0  0
   25.9029  -22.2957  -14.7265 O   0  0  0  0  0  0  0  0  0  0  0  0
   26.2375  -19.1913   -8.0350 C   0  0  0  0  0  0  0  0  0  0  0  0
   25.8577  -20.9720   -8.1437 S   0  0  0  0  0  0  0  0  0  0  0  0
   24.9226  -21.2740   -9.7013 C   0  0  0  0  0  0  0  0  0  0  0  0
   25.8331  -20.8844  -10.8162 C   0  0  0  0  0  0  0  0  0  0  0  0
   25.3473  -21.1672  -12.1983 C   0  0  2  0  0  0  0  0  0  0  0  0
   26.3456  -20.6964  -13.1494 N   0  0  0  0  0  0  0  0  0  0  0  0
   24.0240  -20.5749  -12.4649 C   0  0  0  0  0  0  0  0  0  0  0  0
   23.8963  -19.3328  -12.4461 O   0  0  0  0  0  0  0  0  0  0  0  0
   20.2844  -20.6914  -15.4033 C   0  0  0  0  0  0  0  0  0  0  0  0
   21.5230  -21.2376  -14.7739 C   0  0  2  0  0  0  0  0  0  0  0  0
   21.6169  -22.7324  -14.9168 C   0  0  0  0  0  0  0  0  0  0  0  0
   21.6604  -20.8408  -13.3191 C   0  0  2  0  0  0  0  0  0  0  0  0
   22.8707  -21.3578  -12.7461 N   0  0  0  0  0  0  0  0  0  0  0  0
   20.4413  -21.2508  -12.6089 C   0  0  0  0  0  0  0  0  0  0  0  0
   20.5291  -22.2337  -11.6526 O   0  0  0  0  0  0  0  0  0  0  0  0
   19.3059  -20.7494  -12.8263 O   0  0  0  0  0  0  0  0  0  0  0  0
  1  5  1  0
  2  3  1  0
  2  1  1  0
  3  4  1  0
  4  5  1  0
  5  6  1  1
  6  7  2  0
  9 10  1  0
  9  8  1  0
 10 11  1  0
 12 11  1  1
 12 14  1  0
 13  6  1  0
 13 12  1  0
 14 15  2  0
 17 16  1  1
 17 18  1  0
 17 19  1  0
 19 21  1  0
 19 20  1  1
 20 14  1  0
 21 23  2  0
 21 22  1  0
M  END
$$$$
