PMV.pdb
     RDKit          3D

 23 23  0  0  1  0  0  0  0  0999 V2000
   27.8592  -19.3385  -15.2800 N   0  0  0  0  0  0  0  0  0  0  0  0
   29.0636  -19.1345  -16.0634 C   0  0  0  0  0  0  0  0  0  0  0  0
   29.8095  -20.4552  -16.0506 C   0  0  0  0  0  0  0  0  0  0  0  0
   28.8533  -21.4079  -15.3213 C   0  0  0  0  0  0  0  0  0  0  0  0
   27.5274  -20.7181  -15.5848 C   0  0  1  0  0  0  0  0  0  0  0  0
   26.4473  -21.2332  -14.7154 C   0  0  0  0  0  0  0  0  0  0  0  0
   26.0174  -22.3899  -14.9599 O   0  0  0  0  0  0  0  0  0  0  0  0
   24.9313  -20.2514   -8.4371 C   0  0  0  0  0  0  0  0  0  0  0  0
   26.6146  -20.4928   -9.0967 S   0  0  0  0  0  0  0  0  0  0  0  0
   26.4795  -21.1698  -10.8040 C   0  0  0  0  0  0  0  0  0  0  0  0
   25.1869  -20.6661  -11.3510 C   0  0  0  0  0  0  0  0  0  0  0  0
   24.8580  -21.0673  -12.7500 C   0  0  2  0  0  0  0  0  0  0  0  0
   25.8729  -20.5232  -13.6425 N   0  0  0  0  0  0  0  0  0  0  0  0
   23.5028  -20.6511  -13.1538 C   0  0  0  0  0  0  0  0  0  0  0  0
   23.2373  -19.4336  -13.2362 O   0  0  0  0  0  0  0  0  0  0  0  0
   20.4146  -23.5687  -14.2613 C   0  0  0  0  0  0  0  0  0  0  0  0
   20.5519  -22.1959  -14.8316 C   0  0  2  0  0  0  0  0  0  0  0  0
   21.3527  -22.1911  -16.1053 C   0  0  0  0  0  0  0  0  0  0  0  0
   21.1360  -21.2101  -13.8418 C   0  0  2  0  0  0  0  0  0  0  0  0
   22.4691  -21.5790  -13.4581 N   0  0  0  0  0  0  0  0  0  0  0  0
   20.2050  -21.0787  -12.7130 C   0  0  0  0  0  0  0  0  0  0  0  0
   19.0011  -20.4476  -12.9156 O   0  0  0  0  0  0  0  0  0  0  0  0
   20.4464  -21.5150  -11.5557 O   0  0  0  0  0  0  0  0  0  0  0  0
  1  5  1  0
  2  3  1  0
  2  1  1  0
  3  4  1  0
  4  5  1  0
  5  6  1  1
  6  7  2  0
  9 10  1  0
  9  8  1  0
 10 11  1  0
 12 11  1  1
 12 14  1  0
 13  6  1  0
 13 12  1  0
 14 15  2  0
 17 16  1  1
 17 18  1  0
 17 19  1  0
 19 21  1  0
 19 20  1  1
 20 14  1  0
 21 23  2  0
 21 22  1  0
M  END
$$$$
