PMV.pdb
     RDKit          3D

 23 23  0  0  1  0  0  0  0  0999 V2000
   27.3160  -17.8534  -15.3421 N   0  0  0  0  0  0  0  0  0  0  0  0
   28.3052  -17.1837  -16.1661 C   0  0  0  0  0  0  0  0  0  0  0  0
   29.4977  -18.1178  -16.2448 C   0  0  0  0  0  0  0  0  0  0  0  0
   29.0199  -19.3823  -15.5190 C   0  0  0  0  0  0  0  0  0  0  0  0
   27.5186  -19.2467  -15.6944 C   0  0  1  0  0  0  0  0  0  0  0  0
   26.7676  -20.1581  -14.8039 C   0  0  0  0  0  0  0  0  0  0  0  0
   26.6759  -21.3610  -15.1605 O   0  0  0  0  0  0  0  0  0  0  0  0
   26.2058  -19.3545   -8.3206 C   0  0  0  0  0  0  0  0  0  0  0  0
   26.0834  -21.1247   -8.7427 S   0  0  0  0  0  0  0  0  0  0  0  0
   25.1116  -21.2865  -10.2987 C   0  0  0  0  0  0  0  0  0  0  0  0
   25.8510  -20.5092  -11.3345 C   0  0  0  0  0  0  0  0  0  0  0  0
   25.3878  -20.6744  -12.7432 C   0  0  2  0  0  0  0  0  0  0  0  0
   26.1540  -19.7742  -13.5950 N   0  0  0  0  0  0  0  0  0  0  0  0
   23.9375  -20.4558  -12.8910 C   0  0  0  0  0  0  0  0  0  0  0  0
   23.4654  -19.3213  -12.6682 O   0  0  0  0  0  0  0  0  0  0  0  0
   21.9783  -21.4258  -15.9919 C   0  0  0  0  0  0  0  0  0  0  0  0
   21.2006  -21.9270  -14.8204 C   0  0  2  0  0  0  0  0  0  0  0  0
   19.7180  -21.7580  -15.0128 C   0  0  0  0  0  0  0  0  0  0  0  0
   21.6356  -21.2901  -13.5173 C   0  0  2  0  0  0  0  0  0  0  0  0
   23.0376  -21.4859  -13.2796 N   0  0  0  0  0  0  0  0  0  0  0  0
   20.7717  -21.7961  -12.4421 C   0  0  0  0  0  0  0  0  0  0  0  0
   19.7138  -21.0257  -12.0226 O   0  0  0  0  0  0  0  0  0  0  0  0
   20.9441  -22.9077  -11.8741 O   0  0  0  0  0  0  0  0  0  0  0  0
  1  5  1  0
  2  3  1  0
  2  1  1  0
  3  4  1  0
  4  5  1  0
  5  6  1  1
  6  7  2  0
  9 10  1  0
  9  8  1  0
 10 11  1  0
 12 11  1  1
 12 14  1  0
 13  6  1  0
 13 12  1  0
 14 15  2  0
 17 16  1  6
 17 18  1  0
 17 19  1  0
 19 21  1  0
 19 20  1  1
 20 14  1  0
 21 23  2  0
 21 22  1  0
M  END
$$$$
