PMV.pdb
     RDKit          3D

 23 23  0  0  1  0  0  0  0  0999 V2000
   27.4111  -21.7284  -15.5653 N   0  0  0  0  0  0  0  0  0  0  0  0
   28.1583  -21.8027  -16.8071 C   0  0  0  0  0  0  0  0  0  0  0  0
   28.0986  -20.4185  -17.4244 C   0  0  0  0  0  0  0  0  0  0  0  0
   27.3843  -19.5746  -16.3606 C   0  0  0  0  0  0  0  0  0  0  0  0
   27.7026  -20.3800  -15.1144 C   0  0  1  0  0  0  0  0  0  0  0  0
   26.8599  -19.9862  -13.9644 C   0  0  0  0  0  0  0  0  0  0  0  0
   26.9833  -18.8083  -13.5404 O   0  0  0  0  0  0  0  0  0  0  0  0
   21.4438  -22.3791  -13.9780 C   0  0  0  0  0  0  0  0  0  0  0  0
   21.9099  -20.9366  -14.9924 S   0  0  0  0  0  0  0  0  0  0  0  0
   23.0453  -19.8735  -14.0062 C   0  0  0  0  0  0  0  0  0  0  0  0
   23.5779  -20.7355  -12.9121 C   0  0  0  0  0  0  0  0  0  0  0  0
   24.9232  -20.3731  -12.3782 C   0  0  2  0  0  0  0  0  0  0  0  0
   25.9375  -20.8326  -13.3178 N   0  0  0  0  0  0  0  0  0  0  0  0
   25.1573  -20.9080  -11.0247 C   0  0  0  0  0  0  0  0  0  0  0  0
   25.3167  -22.1373  -10.8733 O   0  0  0  0  0  0  0  0  0  0  0  0
   27.3794  -19.1096   -8.2319 C   0  0  0  0  0  0  0  0  0  0  0  0
   26.0823  -19.5656   -7.6503 C   0  0  2  0  0  0  0  0  0  0  0  0
   26.2488  -20.1130   -6.2588 C   0  0  0  0  0  0  0  0  0  0  0  0
   25.3731  -20.5746   -8.5288 C   0  0  2  0  0  0  0  0  0  0  0  0
   25.2115  -20.0830   -9.8677 N   0  0  0  0  0  0  0  0  0  0  0  0
   24.1127  -20.9537   -7.8760 C   0  0  0  0  0  0  0  0  0  0  0  0
   24.1598  -21.7194   -6.7359 O   0  0  0  0  0  0  0  0  0  0  0  0
   22.9768  -20.6150   -8.3037 O   0  0  0  0  0  0  0  0  0  0  0  0
  1  5  1  0
  2  3  1  0
  2  1  1  0
  3  4  1  0
  4  5  1  0
  5  6  1  1
  6  7  2  0
  9 10  1  0
  9  8  1  0
 10 11  1  0
 12 11  1  6
 12 14  1  0
 13  6  1  0
 13 12  1  0
 14 15  2  0
 17 16  1  6
 17 18  1  0
 17 19  1  0
 19 21  1  0
 19 20  1  6
 20 14  1  0
 21 23  2  0
 21 22  1  0
M  END
$$$$
