PMV.pdb
     RDKit          3D

 23 23  0  0  1  0  0  0  0  0999 V2000
   27.7730  -19.5237  -15.5719 N   0  0  0  0  0  0  0  0  0  0  0  0
   28.8220  -19.3970  -16.5666 C   0  0  0  0  0  0  0  0  0  0  0  0
   29.7368  -20.5919  -16.3763 C   0  0  0  0  0  0  0  0  0  0  0  0
   29.0267  -21.4286  -15.3040 C   0  0  0  0  0  0  0  0  0  0  0  0
   27.5956  -20.9623  -15.4975 C   0  0  1  0  0  0  0  0  0  0  0  0
   26.7228  -21.3552  -14.3699 C   0  0  0  0  0  0  0  0  0  0  0  0
   26.0354  -22.3988  -14.5140 O   0  0  0  0  0  0  0  0  0  0  0  0
   25.7402  -20.8170   -6.5783 C   0  0  0  0  0  0  0  0  0  0  0  0
   26.6172  -20.4081   -8.1244 S   0  0  0  0  0  0  0  0  0  0  0  0
   25.5434  -20.8779   -9.5449 C   0  0  0  0  0  0  0  0  0  0  0  0
   26.3559  -20.6507  -10.7745 C   0  0  0  0  0  0  0  0  0  0  0  0
   25.7150  -21.0208  -12.0701 C   0  0  2  0  0  0  0  0  0  0  0  0
   26.6102  -20.6468  -13.1571 N   0  0  0  0  0  0  0  0  0  0  0  0
   24.3812  -20.4151  -12.2346 C   0  0  0  0  0  0  0  0  0  0  0  0
   24.2712  -19.1712  -12.2323 O   0  0  0  0  0  0  0  0  0  0  0  0
   21.3081  -22.6373  -14.1575 C   0  0  0  0  0  0  0  0  0  0  0  0
   21.4831  -21.1550  -14.1302 C   0  0  2  0  0  0  0  0  0  0  0  0
   22.4306  -20.6786  -15.1973 C   0  0  0  0  0  0  0  0  0  0  0  0
   21.9229  -20.6456  -12.7737 C   0  0  2  0  0  0  0  0  0  0  0  0
   23.1981  -21.1869  -12.3980 N   0  0  0  0  0  0  0  0  0  0  0  0
   20.8511  -20.9167  -11.8062 C   0  0  0  0  0  0  0  0  0  0  0  0
   21.1084  -21.7549  -10.7481 O   0  0  0  0  0  0  0  0  0  0  0  0
   19.6956  -20.4208  -11.8888 O   0  0  0  0  0  0  0  0  0  0  0  0
  1  5  1  0
  2  3  1  0
  2  1  1  0
  3  4  1  0
  4  5  1  0
  5  6  1  1
  6  7  2  0
  9 10  1  0
  9  8  1  0
 10 11  1  0
 12 11  1  1
 12 14  1  0
 13  6  1  0
 13 12  1  0
 14 15  2  0
 17 16  1  1
 17 18  1  0
 17 19  1  0
 19 21  1  0
 19 20  1  1
 20 14  1  0
 21 23  2  0
 21 22  1  0
M  END
$$$$
