PMV.pdb
     RDKit          3D

 23 23  0  0  1  0  0  0  0  0999 V2000
   28.4688  -20.5094  -15.9805 N   0  0  0  0  0  0  0  0  0  0  0  0
   29.0422  -19.5042  -16.8561 C   0  0  0  0  0  0  0  0  0  0  0  0
   28.2517  -18.2315  -16.6196 C   0  0  0  0  0  0  0  0  0  0  0  0
   27.3107  -18.5953  -15.4637 C   0  0  0  0  0  0  0  0  0  0  0  0
   28.0941  -19.7239  -14.8190 C   0  0  1  0  0  0  0  0  0  0  0  0
   27.2722  -20.5013  -13.8663 C   0  0  0  0  0  0  0  0  0  0  0  0
   26.7213  -21.5444  -14.3031 O   0  0  0  0  0  0  0  0  0  0  0  0
   27.5915  -20.6191   -7.3614 C   0  0  0  0  0  0  0  0  0  0  0  0
   25.8483  -20.1544   -7.6306 S   0  0  0  0  0  0  0  0  0  0  0  0
   25.3062  -20.8409   -9.2512 C   0  0  0  0  0  0  0  0  0  0  0  0
   26.2197  -20.2595  -10.2766 C   0  0  0  0  0  0  0  0  0  0  0  0
   25.9975  -20.6961  -11.6859 C   0  0  2  0  0  0  0  0  0  0  0  0
   27.0664  -20.1561  -12.5158 N   0  0  0  0  0  0  0  0  0  0  0  0
   24.6692  -20.3096  -12.1950 C   0  0  0  0  0  0  0  0  0  0  0  0
   24.4032  -19.0992  -12.3492 O   0  0  0  0  0  0  0  0  0  0  0  0
   21.9974  -23.2380  -13.9650 C   0  0  0  0  0  0  0  0  0  0  0  0
   22.0829  -21.7866  -14.3036 C   0  0  2  0  0  0  0  0  0  0  0  0
   23.0777  -21.5203  -15.4004 C   0  0  0  0  0  0  0  0  0  0  0  0
   22.3900  -20.9245  -13.0973 C   0  0  2  0  0  0  0  0  0  0  0  0
   23.6626  -21.2587  -12.5235 N   0  0  0  0  0  0  0  0  0  0  0  0
   21.2662  -21.0255  -12.1563 C   0  0  0  0  0  0  0  0  0  0  0  0
   20.0416  -20.5255  -12.5290 O   0  0  0  0  0  0  0  0  0  0  0  0
   21.3584  -21.5493  -11.0140 O   0  0  0  0  0  0  0  0  0  0  0  0
  1  5  1  0
  2  3  1  0
  2  1  1  0
  3  4  1  0
  4  5  1  0
  5  6  1  1
  6  7  2  0
  9 10  1  0
  9  8  1  0
 10 11  1  0
 12 11  1  1
 12 14  1  0
 13  6  1  0
 13 12  1  0
 14 15  2  0
 17 16  1  1
 17 18  1  0
 17 19  1  0
 19 21  1  0
 19 20  1  1
 20 14  1  0
 21 23  2  0
 21 22  1  0
M  END
$$$$
