PMV.pdb
     RDKit          3D

 23 23  0  0  1  0  0  0  0  0999 V2000
   31.0155  -20.8831   -9.9362 N   0  0  0  0  0  0  0  0  0  0  0  0
   32.3704  -21.3063  -10.2382 C   0  0  0  0  0  0  0  0  0  0  0  0
   32.5124  -22.7107   -9.6830 C   0  0  0  0  0  0  0  0  0  0  0  0
   31.1011  -23.0518   -9.1869 C   0  0  0  0  0  0  0  0  0  0  0  0
   30.2740  -22.1248  -10.0584 C   0  0  1  0  0  0  0  0  0  0  0  0
   28.8845  -21.9906   -9.5695 C   0  0  0  0  0  0  0  0  0  0  0  0
   28.1158  -22.9695   -9.7520 O   0  0  0  0  0  0  0  0  0  0  0  0
   28.7042  -18.1500   -4.8946 C   0  0  0  0  0  0  0  0  0  0  0  0
   27.5508  -19.5225   -4.5590 S   0  0  0  0  0  0  0  0  0  0  0  0
   27.6218  -20.7016   -5.9721 C   0  0  0  0  0  0  0  0  0  0  0  0
   27.0174  -19.9930   -7.1367 C   0  0  0  0  0  0  0  0  0  0  0  0
   27.0011  -20.7375   -8.4297 C   0  0  2  0  0  0  0  0  0  0  0  0
   28.3685  -20.8519   -8.9197 N   0  0  0  0  0  0  0  0  0  0  0  0
   26.1180  -20.1126   -9.4309 C   0  0  0  0  0  0  0  0  0  0  0  0
   26.1696  -18.8769   -9.6039 O   0  0  0  0  0  0  0  0  0  0  0  0
   24.6576  -22.3341  -12.7436 C   0  0  0  0  0  0  0  0  0  0  0  0
   24.8656  -20.8598  -12.6349 C   0  0  2  0  0  0  0  0  0  0  0  0
   26.2911  -20.4685  -12.9150 C   0  0  0  0  0  0  0  0  0  0  0  0
   24.4239  -20.3067  -11.2964 C   0  0  2  0  0  0  0  0  0  0  0  0
   25.1981  -20.8565  -10.2199 N   0  0  0  0  0  0  0  0  0  0  0  0
   22.9767  -20.5203  -11.1604 C   0  0  0  0  0  0  0  0  0  0  0  0
   22.1255  -19.8619  -12.0150 O   0  0  0  0  0  0  0  0  0  0  0  0
   22.4624  -21.2803  -10.2969 O   0  0  0  0  0  0  0  0  0  0  0  0
  1  5  1  0
  2  3  1  0
  2  1  1  0
  3  4  1  0
  4  5  1  0
  5  6  1  1
  6  7  2  0
  9 10  1  0
  9  8  1  0
 10 11  1  0
 12 11  1  1
 12 14  1  0
 13  6  1  0
 13 12  1  0
 14 15  2  0
 17 16  1  1
 17 18  1  0
 17 19  1  0
 19 21  1  0
 19 20  1  1
 20 14  1  0
 21 23  2  0
 21 22  1  0
M  END
$$$$
