PMV.pdb
     RDKit          3D

 23 23  0  0  1  0  0  0  0  0999 V2000
   27.2246  -19.2719  -18.0015 N   0  0  0  0  0  0  0  0  0  0  0  0
   28.3761  -19.0919  -18.8661 C   0  0  0  0  0  0  0  0  0  0  0  0
   28.7947  -17.6411  -18.7226 C   0  0  0  0  0  0  0  0  0  0  0  0
   27.8708  -17.1014  -17.6229 C   0  0  0  0  0  0  0  0  0  0  0  0
   27.5350  -18.3886  -16.8926 C   0  0  1  0  0  0  0  0  0  0  0  0
   26.3864  -18.2268  -15.9749 C   0  0  0  0  0  0  0  0  0  0  0  0
   26.5293  -17.4286  -15.0131 O   0  0  0  0  0  0  0  0  0  0  0  0
   20.4954  -18.1939  -17.7165 C   0  0  0  0  0  0  0  0  0  0  0  0
   21.3617  -16.6028  -17.5043 S   0  0  0  0  0  0  0  0  0  0  0  0
   22.9771  -16.9245  -16.6805 C   0  0  0  0  0  0  0  0  0  0  0  0
   22.8490  -18.2539  -16.0170 C   0  0  0  0  0  0  0  0  0  0  0  0
   24.0196  -18.7077  -15.2108 C   0  0  2  0  0  0  0  0  0  0  0  0
   25.1550  -18.8994  -16.1036 N   0  0  0  0  0  0  0  0  0  0  0  0
   23.7319  -19.9257  -14.4320 C   0  0  0  0  0  0  0  0  0  0  0  0
   23.6315  -21.0201  -15.0252 O   0  0  0  0  0  0  0  0  0  0  0  0
   23.6729  -19.9796  -10.0033 C   0  0  0  0  0  0  0  0  0  0  0  0
   24.1543  -21.0384  -10.9391 C   0  0  2  0  0  0  0  0  0  0  0  0
   25.6198  -20.8951  -11.2480 C   0  0  0  0  0  0  0  0  0  0  0  0
   23.3512  -21.0907  -12.2217 C   0  0  2  0  0  0  0  0  0  0  0  0
   23.5605  -19.9164  -13.0203 N   0  0  0  0  0  0  0  0  0  0  0  0
   21.9439  -21.3360  -11.8787 C   0  0  0  0  0  0  0  0  0  0  0  0
   21.5983  -22.5409  -11.3155 O   0  0  0  0  0  0  0  0  0  0  0  0
   21.0230  -20.4979  -12.0720 O   0  0  0  0  0  0  0  0  0  0  0  0
  1  5  1  0
  2  3  1  0
  2  1  1  0
  3  4  1  0
  4  5  1  0
  5  6  1  1
  6  7  2  0
  9 10  1  0
  9  8  1  0
 10 11  1  0
 12 11  1  6
 12 14  1  0
 13  6  1  0
 13 12  1  0
 14 15  2  0
 17 16  1  1
 17 18  1  0
 17 19  1  0
 19 21  1  0
 19 20  1  1
 20 14  1  0
 21 23  2  0
 21 22  1  0
M  END
$$$$
