PMV.pdb
     RDKit          3D

 23 23  0  0  1  0  0  0  0  0999 V2000
   27.5379  -19.3360  -15.3201 N   0  0  0  0  0  0  0  0  0  0  0  0
   28.6413  -19.0659  -16.2231 C   0  0  0  0  0  0  0  0  0  0  0  0
   29.7703  -19.9884  -15.8049 C   0  0  0  0  0  0  0  0  0  0  0  0
   29.1439  -20.8581  -14.7070 C   0  0  0  0  0  0  0  0  0  0  0  0
   27.6775  -20.7614  -15.0858 C   0  0  1  0  0  0  0  0  0  0  0  0
   26.7884  -21.2345  -14.0026 C   0  0  0  0  0  0  0  0  0  0  0  0
   26.1705  -22.3127  -14.1983 O   0  0  0  0  0  0  0  0  0  0  0  0
   27.6546  -20.7617   -7.6834 C   0  0  0  0  0  0  0  0  0  0  0  0
   25.9723  -20.0670   -7.8035 S   0  0  0  0  0  0  0  0  0  0  0  0
   25.1544  -20.7763   -9.2933 C   0  0  0  0  0  0  0  0  0  0  0  0
   26.0608  -20.4901  -10.4424 C   0  0  0  0  0  0  0  0  0  0  0  0
   25.6011  -20.9596  -11.7820 C   0  0  2  0  0  0  0  0  0  0  0  0
   26.5886  -20.5661  -12.7785 N   0  0  0  0  0  0  0  0  0  0  0  0
   24.2572  -20.4608  -12.1255 C   0  0  0  0  0  0  0  0  0  0  0  0
   24.0594  -19.2290  -12.1825 O   0  0  0  0  0  0  0  0  0  0  0  0
   21.3927  -22.9964  -14.0792 C   0  0  0  0  0  0  0  0  0  0  0  0
   21.4828  -21.5084  -14.1579 C   0  0  2  0  0  0  0  0  0  0  0  0
   22.4214  -21.0561  -15.2433 C   0  0  0  0  0  0  0  0  0  0  0  0
   21.8680  -20.8779  -12.8361 C   0  0  2  0  0  0  0  0  0  0  0  0
   23.1604  -21.3237  -12.3987 N   0  0  0  0  0  0  0  0  0  0  0  0
   20.7908  -21.1310  -11.8696 C   0  0  0  0  0  0  0  0  0  0  0  0
   19.5551  -20.5722  -12.0916 O   0  0  0  0  0  0  0  0  0  0  0  0
   20.9332  -21.8383  -10.8365 O   0  0  0  0  0  0  0  0  0  0  0  0
  1  5  1  0
  2  3  1  0
  2  1  1  0
  3  4  1  0
  4  5  1  0
  5  6  1  1
  6  7  2  0
  9 10  1  0
  9  8  1  0
 10 11  1  0
 12 11  1  1
 12 14  1  0
 13  6  1  0
 13 12  1  0
 14 15  2  0
 17 16  1  1
 17 18  1  0
 17 19  1  0
 19 21  1  0
 19 20  1  1
 20 14  1  0
 21 23  2  0
 21 22  1  0
M  END
$$$$
