HTF.pdb
     RDKit          3D

 29 30  0  0  1  0  0  0  0  0999 V2000
   22.0429  -21.3720  -14.7798 N   0  0  0  0  0  0  0  0  0  0  0  0
   22.3457  -20.5670  -13.6133 C   0  0  1  0  0  0  0  0  0  0  0  0
   21.0706  -20.3436  -12.8522 C   0  0  0  0  0  0  0  0  0  0  0  0
   20.2378  -19.3991  -13.6303 C   0  0  0  0  0  0  0  0  0  0  0  0
   20.4726  -18.0543  -13.7940 C   0  0  0  0  0  0  0  0  0  0  0  0
   19.5036  -17.5128  -14.5668 N   0  0  0  0  0  0  0  0  0  0  0  0
   18.6655  -18.5190  -14.8845 C   0  0  0  0  0  0  0  0  0  0  0  0
   19.1157  -19.6724  -14.3110 N   0  0  0  0  0  0  0  0  0  0  0  0
   23.3947  -21.2142  -12.7667 C   0  0  0  0  0  0  0  0  0  0  0  0
   23.2160  -22.3972  -12.3965 O   0  0  0  0  0  0  0  0  0  0  0  0
   27.0511  -21.6641  -13.3395 C   0  0  0  0  0  0  0  0  0  0  0  0
   26.9400  -20.9441  -12.0041 C   0  0  1  0  0  0  0  0  0  0  0  0
   27.4669  -19.6867  -12.1927 O   0  0  0  0  0  0  0  0  0  0  0  0
   25.5713  -20.9946  -11.4367 C   0  0  2  0  0  0  0  0  0  0  0  0
   24.5683  -20.5439  -12.3741 N   0  0  0  0  0  0  0  0  0  0  0  0
   25.4414  -20.4097  -10.0820 C   0  0  0  0  0  0  0  0  0  0  0  0
   24.5948  -19.5222   -9.7648 O   0  0  0  0  0  0  0  0  0  0  0  0
   26.2960  -20.8518   -9.0655 N   0  0  0  0  0  0  0  0  0  0  0  0
   26.3140  -20.2289   -7.7283 C   0  0  1  0  0  0  0  0  0  0  0  0
   26.6776  -21.3166   -6.7755 C   0  0  0  0  0  0  0  0  0  0  0  0
   27.8336  -21.0655   -5.9223 C   0  0  0  0  0  0  0  0  0  0  0  0
   27.7416  -20.2055   -4.8504 C   0  0  0  0  0  0  0  0  0  0  0  0
   28.8347  -19.9700   -4.0405 C   0  0  0  0  0  0  0  0  0  0  0  0
   30.0342  -20.6252   -4.3362 C   0  0  0  0  0  0  0  0  0  0  0  0
   30.1329  -21.4929   -5.4153 C   0  0  0  0  0  0  0  0  0  0  0  0
   29.0220  -21.7111   -6.2108 C   0  0  0  0  0  0  0  0  0  0  0  0
   27.3148  -19.1367   -7.8050 C   0  0  0  0  0  0  0  0  0  0  0  0
   28.2175  -19.2345   -8.6858 O   0  0  0  0  0  0  0  0  0  0  0  0
   27.3048  -18.0260   -6.9637 O   0  0  0  0  0  0  0  0  0  0  0  0
  2  1  1  6
  2  9  1  0
  3  2  1  0
  4  8  1  0
  4  3  1  0
  5  4  2  0
  6  5  1  0
  6  7  1  0
  7  8  2  0
  9 10  2  0
 12 11  1  6
 13 12  1  0
 14 12  1  0
 15  9  1  0
 14 15  1  6
 16 14  1  0
 16 17  2  0
 18 16  1  0
 19 27  1  0
 19 18  1  0
 19 20  1  1
 21 20  1  0
 21 22  2  0
 23 22  1  0
 24 23  2  0
 25 26  2  0
 25 24  1  0
 26 21  1  0
 27 29  1  0
 28 27  2  0
M  END
$$$$
