HTF.pdb
     RDKit          3D

 29 30  0  0  1  0  0  0  0  0999 V2000
   23.7022  -17.4465  -18.5525 N   0  0  0  0  0  0  0  0  0  0  0  0
   23.7987  -17.4242  -17.1066 C   0  0  1  0  0  0  0  0  0  0  0  0
   22.4237  -17.1982  -16.5470 C   0  0  0  0  0  0  0  0  0  0  0  0
   22.0102  -15.8220  -16.9023 C   0  0  0  0  0  0  0  0  0  0  0  0
   22.8383  -14.7312  -17.0242 C   0  0  0  0  0  0  0  0  0  0  0  0
   22.1111  -13.6417  -17.3608 N   0  0  0  0  0  0  0  0  0  0  0  0
   20.8308  -14.0528  -17.4486 C   0  0  0  0  0  0  0  0  0  0  0  0
   20.7705  -15.3868  -17.1679 N   0  0  0  0  0  0  0  0  0  0  0  0
   24.4128  -18.6843  -16.5858 C   0  0  0  0  0  0  0  0  0  0  0  0
   24.2147  -19.7486  -17.2155 O   0  0  0  0  0  0  0  0  0  0  0  0
   26.1044  -20.6399  -17.3062 C   0  0  0  0  0  0  0  0  0  0  0  0
   26.8895  -20.3559  -16.0345 C   0  0  1  0  0  0  0  0  0  0  0  0
   27.9779  -19.6004  -16.4072 O   0  0  0  0  0  0  0  0  0  0  0  0
   26.0469  -19.7895  -14.9541 C   0  0  2  0  0  0  0  0  0  0  0  0
   25.2007  -18.7150  -15.4201 N   0  0  0  0  0  0  0  0  0  0  0  0
   26.7718  -19.4888  -13.6977 C   0  0  0  0  0  0  0  0  0  0  0  0
   27.2494  -18.3533  -13.4023 O   0  0  0  0  0  0  0  0  0  0  0  0
   26.9518  -20.5084  -12.7557 N   0  0  0  0  0  0  0  0  0  0  0  0
   27.3417  -20.2289  -11.3607 C   0  0  1  0  0  0  0  0  0  0  0  0
   26.3391  -19.2541  -10.8435 C   0  0  0  0  0  0  0  0  0  0  0  0
   25.0324  -19.7992  -10.4928 C   0  0  0  0  0  0  0  0  0  0  0  0
   24.0540  -19.9486  -11.4505 C   0  0  0  0  0  0  0  0  0  0  0  0
   22.8180  -20.4676  -11.1197 C   0  0  0  0  0  0  0  0  0  0  0  0
   22.5862  -20.8363   -9.7909 C   0  0  0  0  0  0  0  0  0  0  0  0
   23.5686  -20.6878   -8.8213 C   0  0  0  0  0  0  0  0  0  0  0  0
   24.7985  -20.1652   -9.1799 C   0  0  0  0  0  0  0  0  0  0  0  0
   27.3215  -21.5390  -10.6654 C   0  0  0  0  0  0  0  0  0  0  0  0
   27.7958  -21.5840   -9.4936 O   0  0  0  0  0  0  0  0  0  0  0  0
   26.8115  -22.7032  -11.2364 O   0  0  0  0  0  0  0  0  0  0  0  0
  2  1  1  6
  2  9  1  0
  3  2  1  0
  4  8  1  0
  4  3  1  0
  5  4  2  0
  6  5  1  0
  6  7  1  0
  7  8  2  0
  9 10  2  0
 12 11  1  6
 13 12  1  0
 14 12  1  0
 15  9  1  0
 14 15  1  6
 16 14  1  0
 16 17  2  0
 18 16  1  0
 19 27  1  0
 19 18  1  0
 19 20  1  1
 21 20  1  0
 21 22  2  0
 23 22  1  0
 24 23  2  0
 25 26  2  0
 25 24  1  0
 26 21  1  0
 27 29  1  0
 28 27  2  0
M  END
$$$$
