HTF.pdb
     RDKit          3D

 29 30  0  0  1  0  0  0  0  0999 V2000
   17.2339  -11.0781  -20.5415 N   0  0  0  0  0  0  0  0  0  0  0  0
   16.8353  -10.2741  -19.4035 C   0  0  1  0  0  0  0  0  0  0  0  0
   16.4608  -11.1998  -18.2820 C   0  0  0  0  0  0  0  0  0  0  0  0
   15.2647  -11.9628  -18.7041 C   0  0  0  0  0  0  0  0  0  0  0  0
   13.9571  -11.6441  -18.4228 C   0  0  0  0  0  0  0  0  0  0  0  0
   13.1346  -12.5677  -18.9701 N   0  0  0  0  0  0  0  0  0  0  0  0
   13.9285  -13.4614  -19.5921 C   0  0  0  0  0  0  0  0  0  0  0  0
   15.2313  -13.0902  -19.4286 N   0  0  0  0  0  0  0  0  0  0  0  0
   17.9199   -9.3250  -19.0050 C   0  0  0  0  0  0  0  0  0  0  0  0
   19.0965   -9.7514  -18.9546 O   0  0  0  0  0  0  0  0  0  0  0  0
   17.9181   -5.5726  -20.2104 C   0  0  0  0  0  0  0  0  0  0  0  0
   18.2534   -5.6168  -18.7272 C   0  0  1  0  0  0  0  0  0  0  0  0
   17.2035   -5.0160  -18.0708 O   0  0  0  0  0  0  0  0  0  0  0  0
   18.6163   -6.9765  -18.2609 C   0  0  2  0  0  0  0  0  0  0  0  0
   17.6657   -7.9779  -18.6866 N   0  0  0  0  0  0  0  0  0  0  0  0
   18.9856   -7.0611  -16.8289 C   0  0  0  0  0  0  0  0  0  0  0  0
   18.2496   -7.5655  -15.9295 O   0  0  0  0  0  0  0  0  0  0  0  0
   20.2261   -6.5613  -16.4157 N   0  0  0  0  0  0  0  0  0  0  0  0
   20.6644   -6.6135  -15.0081 C   0  0  1  0  0  0  0  0  0  0  0  0
   21.6099   -7.7627  -14.9167 C   0  0  0  0  0  0  0  0  0  0  0  0
   22.3833   -7.8639  -13.6842 C   0  0  0  0  0  0  0  0  0  0  0  0
   21.8717   -8.5192  -12.5861 C   0  0  0  0  0  0  0  0  0  0  0  0
   22.6047   -8.6181  -11.4202 C   0  0  0  0  0  0  0  0  0  0  0  0
   23.8762   -8.0372  -11.3835 C   0  0  0  0  0  0  0  0  0  0  0  0
   24.3969   -7.3754  -12.4872 C   0  0  0  0  0  0  0  0  0  0  0  0
   23.6412   -7.2910  -13.6431 C   0  0  0  0  0  0  0  0  0  0  0  0
   21.2890   -5.2970  -14.7304 C   0  0  0  0  0  0  0  0  0  0  0  0
   21.7336   -4.6433  -15.7180 O   0  0  0  0  0  0  0  0  0  0  0  0
   21.4056   -4.7572  -13.4511 O   0  0  0  0  0  0  0  0  0  0  0  0
  2  1  1  6
  2  9  1  0
  3  2  1  0
  4  8  1  0
  4  3  1  0
  5  4  2  0
  6  5  1  0
  6  7  1  0
  7  8  2  0
  9 10  2  0
 12 11  1  6
 13 12  1  0
 14 12  1  0
 15  9  1  0
 14 15  1  1
 16 14  1  0
 16 17  2  0
 18 16  1  0
 19 27  1  0
 19 18  1  0
 19 20  1  6
 21 20  1  0
 21 22  2  0
 23 22  1  0
 24 23  2  0
 25 26  2  0
 25 24  1  0
 26 21  1  0
 27 29  1  0
 28 27  2  0
M  END
$$$$
