HTF.pdb
     RDKit          3D

 29 30  0  0  1  0  0  0  0  0999 V2000
   25.2859  -22.9800  -17.0238 N   0  0  0  0  0  0  0  0  0  0  0  0
   25.5829  -23.3557  -15.6560 C   0  0  1  0  0  0  0  0  0  0  0  0
   26.5061  -24.5397  -15.6835 C   0  0  0  0  0  0  0  0  0  0  0  0
   25.6927  -25.7422  -15.9724 C   0  0  0  0  0  0  0  0  0  0  0  0
   25.0511  -26.5303  -15.0463 C   0  0  0  0  0  0  0  0  0  0  0  0
   24.4060  -27.5394  -15.6748 N   0  0  0  0  0  0  0  0  0  0  0  0
   24.6453  -27.3806  -16.9914 C   0  0  0  0  0  0  0  0  0  0  0  0
   25.4325  -26.2808  -17.1721 N   0  0  0  0  0  0  0  0  0  0  0  0
   26.1683  -22.2093  -14.8949 C   0  0  0  0  0  0  0  0  0  0  0  0
   26.7715  -21.3162  -15.5328 O   0  0  0  0  0  0  0  0  0  0  0  0
   24.0597  -19.9538  -13.2835 C   0  0  0  0  0  0  0  0  0  0  0  0
   25.5631  -19.7380  -13.1971 C   0  0  1  0  0  0  0  0  0  0  0  0
   25.7508  -18.5693  -12.4948 O   0  0  0  0  0  0  0  0  0  0  0  0
   26.2851  -20.9262  -12.6826 C   0  0  2  0  0  0  0  0  0  0  0  0
   26.0653  -22.1003  -13.4955 N   0  0  0  0  0  0  0  0  0  0  0  0
   26.1342  -21.1594  -11.2275 C   0  0  0  0  0  0  0  0  0  0  0  0
   25.2180  -21.8631  -10.7077 O   0  0  0  0  0  0  0  0  0  0  0  0
   27.0538  -20.5783  -10.3467 N   0  0  0  0  0  0  0  0  0  0  0  0
   26.9582  -20.7515   -8.8847 C   0  0  1  0  0  0  0  0  0  0  0  0
   28.2819  -20.3386   -8.3367 C   0  0  0  0  0  0  0  0  0  0  0  0
   28.3753  -20.2402   -6.8845 C   0  0  0  0  0  0  0  0  0  0  0  0
   28.0457  -19.0698   -6.2374 C   0  0  0  0  0  0  0  0  0  0  0  0
   28.1309  -18.9772   -4.8624 C   0  0  0  0  0  0  0  0  0  0  0  0
   28.5594  -20.0992   -4.1462 C   0  0  0  0  0  0  0  0  0  0  0  0
   28.8931  -21.2813   -4.7930 C   0  0  0  0  0  0  0  0  0  0  0  0
   28.7986  -21.3471   -6.1719 C   0  0  0  0  0  0  0  0  0  0  0  0
   25.8315  -19.8907   -8.4489 C   0  0  0  0  0  0  0  0  0  0  0  0
   25.6712  -18.7908   -9.0530 O   0  0  0  0  0  0  0  0  0  0  0  0
   24.9563  -20.2341   -7.4205 O   0  0  0  0  0  0  0  0  0  0  0  0
  2  1  1  6
  2  9  1  0
  3  2  1  0
  4  8  1  0
  4  3  1  0
  5  4  2  0
  6  5  1  0
  6  7  1  0
  7  8  2  0
  9 10  2  0
 12 11  1  1
 13 12  1  0
 14 12  1  0
 15  9  1  0
 14 15  1  6
 16 14  1  0
 16 17  2  0
 18 16  1  0
 19 27  1  0
 19 18  1  0
 19 20  1  1
 21 20  1  0
 21 22  2  0
 23 22  1  0
 24 23  2  0
 25 26  2  0
 25 24  1  0
 26 21  1  0
 27 29  1  0
 28 27  2  0
M  END
$$$$
