HTF.pdb
     RDKit          3D

 29 30  0  0  1  0  0  0  0  0999 V2000
   19.3951  -16.9928  -18.0517 N   0  0  0  0  0  0  0  0  0  0  0  0
   19.1075  -15.8148  -17.2580 C   0  0  1  0  0  0  0  0  0  0  0  0
   18.5390  -16.2618  -15.9420 C   0  0  0  0  0  0  0  0  0  0  0  0
   17.2295  -16.8990  -16.2070 C   0  0  0  0  0  0  0  0  0  0  0  0
   16.6414  -17.0648  -17.4387 C   0  0  0  0  0  0  0  0  0  0  0  0
   15.4490  -17.6868  -17.2949 N   0  0  0  0  0  0  0  0  0  0  0  0
   15.2939  -17.9086  -15.9748 C   0  0  0  0  0  0  0  0  0  0  0  0
   16.3837  -17.4263  -15.3104 N   0  0  0  0  0  0  0  0  0  0  0  0
   20.3291  -14.9708  -17.0802 C   0  0  0  0  0  0  0  0  0  0  0  0
   21.4494  -15.5298  -17.1093 O   0  0  0  0  0  0  0  0  0  0  0  0
   22.5926  -14.1696  -18.5194 C   0  0  0  0  0  0  0  0  0  0  0  0
   22.0668  -12.7596  -18.2963 C   0  0  1  0  0  0  0  0  0  0  0  0
   21.3678  -12.4186  -19.4318 O   0  0  0  0  0  0  0  0  0  0  0  0
   21.3328  -12.6165  -17.0162 C   0  0  2  0  0  0  0  0  0  0  0  0
   20.2634  -13.5789  -16.8825 N   0  0  0  0  0  0  0  0  0  0  0  0
   20.9442  -11.2276  -16.6781 C   0  0  0  0  0  0  0  0  0  0  0  0
   19.7783  -10.7552  -16.8275 O   0  0  0  0  0  0  0  0  0  0  0  0
   21.9092  -10.3598  -16.1537 N   0  0  0  0  0  0  0  0  0  0  0  0
   21.6123   -8.9474  -15.8484 C   0  0  1  0  0  0  0  0  0  0  0  0
   22.6572   -8.5103  -14.8789 C   0  0  0  0  0  0  0  0  0  0  0  0
   22.6369   -7.1014  -14.5019 C   0  0  0  0  0  0  0  0  0  0  0  0
   23.3586   -6.1724  -15.2182 C   0  0  0  0  0  0  0  0  0  0  0  0
   23.3372   -4.8382  -14.8637 C   0  0  0  0  0  0  0  0  0  0  0  0
   22.5660   -4.4558  -13.7616 C   0  0  0  0  0  0  0  0  0  0  0  0
   21.8367   -5.3878  -13.0358 C   0  0  0  0  0  0  0  0  0  0  0  0
   21.8758   -6.7185  -13.4126 C   0  0  0  0  0  0  0  0  0  0  0  0
   21.6615   -8.2343  -17.1482 C   0  0  0  0  0  0  0  0  0  0  0  0
   22.4701   -8.6667  -18.0197 O   0  0  0  0  0  0  0  0  0  0  0  0
   20.8695   -7.1275  -17.4470 O   0  0  0  0  0  0  0  0  0  0  0  0
  2  1  1  6
  2  9  1  0
  3  2  1  0
  4  8  1  0
  4  3  1  0
  5  4  2  0
  6  5  1  0
  6  7  1  0
  7  8  2  0
  9 10  2  0
 12 11  1  6
 13 12  1  0
 14 12  1  0
 15  9  1  0
 14 15  1  6
 16 14  1  0
 16 17  2  0
 18 16  1  0
 19 27  1  0
 19 18  1  0
 19 20  1  1
 21 20  1  0
 21 22  2  0
 23 22  1  0
 24 23  2  0
 25 26  2  0
 25 24  1  0
 26 21  1  0
 27 29  1  0
 28 27  2  0
M  END
$$$$
