HTF.pdb
     RDKit          3D

 29 30  0  0  1  0  0  0  0  0999 V2000
   28.6142  -20.8898  -18.7566 N   0  0  0  0  0  0  0  0  0  0  0  0
   28.5834  -21.7446  -17.5867 C   0  0  1  0  0  0  0  0  0  0  0  0
   29.8166  -22.6014  -17.5978 C   0  0  0  0  0  0  0  0  0  0  0  0
   29.6539  -23.6162  -18.6631 C   0  0  0  0  0  0  0  0  0  0  0  0
   28.5080  -24.3220  -18.9441 C   0  0  0  0  0  0  0  0  0  0  0  0
   28.7311  -25.1595  -19.9824 N   0  0  0  0  0  0  0  0  0  0  0  0
   30.0149  -24.9760  -20.3484 C   0  0  0  0  0  0  0  0  0  0  0  0
   30.5783  -24.0316  -19.5405 N   0  0  0  0  0  0  0  0  0  0  0  0
   28.4746  -20.9396  -16.3312 C   0  0  0  0  0  0  0  0  0  0  0  0
   29.1741  -19.9064  -16.2229 O   0  0  0  0  0  0  0  0  0  0  0  0
   27.9194  -18.4293  -15.3601 C   0  0  0  0  0  0  0  0  0  0  0  0
   26.8606  -19.1176  -14.5119 C   0  0  1  0  0  0  0  0  0  0  0  0
   25.6695  -18.9832  -15.1882 O   0  0  0  0  0  0  0  0  0  0  0  0
   27.2381  -20.5002  -14.1329 C   0  0  2  0  0  0  0  0  0  0  0  0
   27.6188  -21.3008  -15.2739 N   0  0  0  0  0  0  0  0  0  0  0  0
   26.2906  -21.1696  -13.2118 C   0  0  0  0  0  0  0  0  0  0  0  0
   25.4786  -22.0783  -13.5579 O   0  0  0  0  0  0  0  0  0  0  0  0
   26.2733  -20.7945  -11.8633 N   0  0  0  0  0  0  0  0  0  0  0  0
   25.4057  -21.4611  -10.8738 C   0  0  1  0  0  0  0  0  0  0  0  0
   26.2418  -21.6414   -9.6526 C   0  0  0  0  0  0  0  0  0  0  0  0
   26.2569  -20.5266   -8.7122 C   0  0  0  0  0  0  0  0  0  0  0  0
   26.6751  -19.2766   -9.1117 C   0  0  0  0  0  0  0  0  0  0  0  0
   26.6865  -18.2202   -8.2227 C   0  0  0  0  0  0  0  0  0  0  0  0
   26.2637  -18.4518   -6.9101 C   0  0  0  0  0  0  0  0  0  0  0  0
   25.8413  -19.7096   -6.5017 C   0  0  0  0  0  0  0  0  0  0  0  0
   25.8397  -20.7508   -7.4130 C   0  0  0  0  0  0  0  0  0  0  0  0
   24.2452  -20.5577  -10.6806 C   0  0  0  0  0  0  0  0  0  0  0  0
   24.3247  -19.3942  -11.1708 O   0  0  0  0  0  0  0  0  0  0  0  0
   23.0903  -20.9276   -9.9943 O   0  0  0  0  0  0  0  0  0  0  0  0
  2  1  1  6
  2  9  1  0
  3  2  1  0
  4  8  1  0
  4  3  1  0
  5  4  2  0
  6  5  1  0
  6  7  1  0
  7  8  2  0
  9 10  2  0
 12 11  1  6
 13 12  1  0
 14 12  1  0
 15  9  1  0
 14 15  1  6
 16 14  1  0
 16 17  2  0
 18 16  1  0
 19 27  1  0
 19 18  1  0
 19 20  1  1
 21 20  1  0
 21 22  2  0
 23 22  1  0
 24 23  2  0
 25 26  2  0
 25 24  1  0
 26 21  1  0
 27 29  1  0
 28 27  2  0
M  END
$$$$
