HTF.pdb
     RDKit          3D

 29 30  0  0  1  0  0  0  0  0999 V2000
   18.7708  -13.9546  -21.1088 N   0  0  0  0  0  0  0  0  0  0  0  0
   18.0924  -12.9737  -20.2853 C   0  0  1  0  0  0  0  0  0  0  0  0
   17.4580  -13.6895  -19.1277 C   0  0  0  0  0  0  0  0  0  0  0  0
   16.4013  -14.5752  -19.6664 C   0  0  0  0  0  0  0  0  0  0  0  0
   15.0818  -14.2407  -19.8596 C   0  0  0  0  0  0  0  0  0  0  0  0
   14.4121  -15.3006  -20.3670 N   0  0  0  0  0  0  0  0  0  0  0  0
   15.3132  -16.2949  -20.4901 C   0  0  0  0  0  0  0  0  0  0  0  0
   16.5297  -15.8499  -20.0612 N   0  0  0  0  0  0  0  0  0  0  0  0
   19.0337  -11.9040  -19.8317 C   0  0  0  0  0  0  0  0  0  0  0  0
   20.2034  -12.2300  -19.5249 O   0  0  0  0  0  0  0  0  0  0  0  0
   19.6915   -8.7705  -21.7646 C   0  0  0  0  0  0  0  0  0  0  0  0
   19.4043   -8.3177  -20.3410 C   0  0  1  0  0  0  0  0  0  0  0  0
   18.2141   -7.6278  -20.3826 O   0  0  0  0  0  0  0  0  0  0  0  0
   19.4763   -9.4269  -19.3601 C   0  0  2  0  0  0  0  0  0  0  0  0
   18.6529  -10.5524  -19.7382 N   0  0  0  0  0  0  0  0  0  0  0  0
   19.3246   -9.0128  -17.9459 C   0  0  0  0  0  0  0  0  0  0  0  0
   18.3029   -9.2529  -17.2365 O   0  0  0  0  0  0  0  0  0  0  0  0
   20.3661   -8.3115  -17.3272 N   0  0  0  0  0  0  0  0  0  0  0  0
   20.2615   -7.8093  -15.9440 C   0  0  1  0  0  0  0  0  0  0  0  0
   21.5926   -8.0542  -15.3185 C   0  0  0  0  0  0  0  0  0  0  0  0
   21.7945   -7.4856  -13.9906 C   0  0  0  0  0  0  0  0  0  0  0  0
   22.2216   -6.1847  -13.8413 C   0  0  0  0  0  0  0  0  0  0  0  0
   22.4098   -5.6451  -12.5845 C   0  0  0  0  0  0  0  0  0  0  0  0
   22.1563   -6.4513  -11.4704 C   0  0  0  0  0  0  0  0  0  0  0  0
   21.7257   -7.7631  -11.6147 C   0  0  0  0  0  0  0  0  0  0  0  0
   21.5451   -8.2791  -12.8858 C   0  0  0  0  0  0  0  0  0  0  0  0
   19.9069   -6.3737  -16.0614 C   0  0  0  0  0  0  0  0  0  0  0  0
   20.3134   -5.7552  -17.0872 O   0  0  0  0  0  0  0  0  0  0  0  0
   19.1581   -5.6876  -15.1074 O   0  0  0  0  0  0  0  0  0  0  0  0
  2  1  1  1
  2  9  1  0
  3  2  1  0
  4  8  1  0
  4  3  1  0
  5  4  2  0
  6  5  1  0
  6  7  1  0
  7  8  2  0
  9 10  2  0
 12 11  1  6
 13 12  1  0
 14 12  1  0
 15  9  1  0
 14 15  1  6
 16 14  1  0
 16 17  2  0
 18 16  1  0
 19 27  1  0
 19 18  1  0
 19 20  1  6
 21 20  1  0
 21 22  2  0
 23 22  1  0
 24 23  2  0
 25 26  2  0
 25 24  1  0
 26 21  1  0
 27 29  1  0
 28 27  2  0
M  END
$$$$
