HTF.pdb
     RDKit          3D

 29 30  0  0  1  0  0  0  0  0999 V2000
   25.9312  -18.3046  -16.1613 N   0  0  0  0  0  0  0  0  0  0  0  0
   26.6916  -18.3442  -14.9282 C   0  0  1  0  0  0  0  0  0  0  0  0
   27.2775  -16.9817  -14.6932 C   0  0  0  0  0  0  0  0  0  0  0  0
   28.2130  -16.6928  -15.8034 C   0  0  0  0  0  0  0  0  0  0  0  0
   28.2228  -15.5605  -16.5833 C   0  0  0  0  0  0  0  0  0  0  0  0
   29.2165  -15.6444  -17.4968 N   0  0  0  0  0  0  0  0  0  0  0  0
   29.8257  -16.8279  -17.2868 C   0  0  0  0  0  0  0  0  0  0  0  0
   29.2109  -17.4683  -16.2506 N   0  0  0  0  0  0  0  0  0  0  0  0
   25.8412  -18.7910  -13.7822 C   0  0  0  0  0  0  0  0  0  0  0  0
   24.6020  -18.6275  -13.8600 O   0  0  0  0  0  0  0  0  0  0  0  0
   25.1786  -22.1076  -12.6228 C   0  0  0  0  0  0  0  0  0  0  0  0
   24.6160  -20.8931  -11.8997 C   0  0  1  0  0  0  0  0  0  0  0  0
   23.8197  -21.3756  -10.8861 O   0  0  0  0  0  0  0  0  0  0  0  0
   25.6663  -19.9283  -11.4951 C   0  0  2  0  0  0  0  0  0  0  0  0
   26.3822  -19.3851  -12.6267 N   0  0  0  0  0  0  0  0  0  0  0  0
   26.5389  -20.3908  -10.3911 C   0  0  0  0  0  0  0  0  0  0  0  0
   27.5678  -21.1131  -10.5479 O   0  0  0  0  0  0  0  0  0  0  0  0
   26.2308  -20.0162   -9.0781 N   0  0  0  0  0  0  0  0  0  0  0  0
   27.0153  -20.4894   -7.9218 C   0  0  1  0  0  0  0  0  0  0  0  0
   27.6697  -19.2784   -7.3487 C   0  0  0  0  0  0  0  0  0  0  0  0
   28.3966  -19.4699   -6.0987 C   0  0  0  0  0  0  0  0  0  0  0  0
   29.5639  -20.2004   -6.0702 C   0  0  0  0  0  0  0  0  0  0  0  0
   30.2540  -20.3792   -4.8878 C   0  0  0  0  0  0  0  0  0  0  0  0
   29.7384  -19.8013   -3.7235 C   0  0  0  0  0  0  0  0  0  0  0  0
   28.5622  -19.0642   -3.7462 C   0  0  0  0  0  0  0  0  0  0  0  0
   27.8905  -18.9003   -4.9447 C   0  0  0  0  0  0  0  0  0  0  0  0
   26.0403  -21.1352   -7.0093 C   0  0  0  0  0  0  0  0  0  0  0  0
   26.4989  -21.7169   -5.9839 O   0  0  0  0  0  0  0  0  0  0  0  0
   24.6642  -21.1296   -7.2280 O   0  0  0  0  0  0  0  0  0  0  0  0
  2  1  1  6
  2  9  1  0
  3  2  1  0
  4  8  1  0
  4  3  1  0
  5  4  2  0
  6  5  1  0
  6  7  1  0
  7  8  2  0
  9 10  2  0
 12 11  1  1
 13 12  1  0
 14 12  1  0
 15  9  1  0
 14 15  1  6
 16 14  1  0
 16 17  2  0
 18 16  1  0
 19 27  1  0
 19 18  1  0
 19 20  1  1
 21 20  1  0
 21 22  2  0
 23 22  1  0
 24 23  2  0
 25 26  2  0
 25 24  1  0
 26 21  1  0
 27 29  1  0
 28 27  2  0
M  END
$$$$
