HTF.pdb
     RDKit          3D

 29 30  0  0  1  0  0  0  0  0999 V2000
   14.7475  -10.3691  -16.9831 N   0  0  0  0  0  0  0  0  0  0  0  0
   15.1971   -9.0436  -16.6072 C   0  0  1  0  0  0  0  0  0  0  0  0
   14.4655   -8.6347  -15.3612 C   0  0  0  0  0  0  0  0  0  0  0  0
   13.0413   -8.4402  -15.7150 C   0  0  0  0  0  0  0  0  0  0  0  0
   11.9582   -8.9144  -15.0133 C   0  0  0  0  0  0  0  0  0  0  0  0
   10.8149   -8.5430  -15.6332 N   0  0  0  0  0  0  0  0  0  0  0  0
   11.1849   -7.8379  -16.7203 C   0  0  0  0  0  0  0  0  0  0  0  0
   12.5471   -7.7758  -16.7692 N   0  0  0  0  0  0  0  0  0  0  0  0
   16.6803   -9.0081  -16.4202 C   0  0  0  0  0  0  0  0  0  0  0  0
   17.2402  -10.0027  -15.9046 O   0  0  0  0  0  0  0  0  0  0  0  0
   19.2345   -9.1440  -18.7986 C   0  0  0  0  0  0  0  0  0  0  0  0
   19.5405   -7.8451  -18.0682 C   0  0  1  0  0  0  0  0  0  0  0  0
   19.2318   -6.8248  -18.9388 O   0  0  0  0  0  0  0  0  0  0  0  0
   18.9010   -7.7731  -16.7327 C   0  0  2  0  0  0  0  0  0  0  0  0
   17.4635   -7.9027  -16.8013 N   0  0  0  0  0  0  0  0  0  0  0  0
   19.3688   -6.6538  -15.8825 C   0  0  0  0  0  0  0  0  0  0  0  0
   18.6391   -5.6895  -15.5052 O   0  0  0  0  0  0  0  0  0  0  0  0
   20.7001   -6.6383  -15.4506 N   0  0  0  0  0  0  0  0  0  0  0  0
   21.2171   -5.6022  -14.5365 C   0  0  1  0  0  0  0  0  0  0  0  0
   22.1712   -6.2987  -13.6268 C   0  0  0  0  0  0  0  0  0  0  0  0
   23.0394   -7.2947  -14.2446 C   0  0  0  0  0  0  0  0  0  0  0  0
   24.0230   -6.9156  -15.1311 C   0  0  0  0  0  0  0  0  0  0  0  0
   24.8472   -7.8578  -15.7137 C   0  0  0  0  0  0  0  0  0  0  0  0
   24.6578   -9.2028  -15.3813 C   0  0  0  0  0  0  0  0  0  0  0  0
   23.6679   -9.5907  -14.4886 C   0  0  0  0  0  0  0  0  0  0  0  0
   22.8558   -8.6261  -13.9190 C   0  0  0  0  0  0  0  0  0  0  0  0
   21.8505   -4.5785  -15.4032 C   0  0  0  0  0  0  0  0  0  0  0  0
   22.3000   -3.5375  -14.8423 O   0  0  0  0  0  0  0  0  0  0  0  0
   21.9703   -4.7104  -16.7852 O   0  0  0  0  0  0  0  0  0  0  0  0
  2  1  1  1
  2  9  1  0
  3  2  1  0
  4  8  1  0
  4  3  1  0
  5  4  2  0
  6  5  1  0
  6  7  1  0
  7  8  2  0
  9 10  2  0
 12 11  1  6
 13 12  1  0
 14 12  1  0
 15  9  1  0
 14 15  1  6
 16 14  1  0
 16 17  2  0
 18 16  1  0
 19 27  1  0
 19 18  1  0
 19 20  1  1
 21 20  1  0
 21 22  2  0
 23 22  1  0
 24 23  2  0
 25 26  2  0
 25 24  1  0
 26 21  1  0
 27 29  1  0
 28 27  2  0
M  END
$$$$
