HTF.pdb
     RDKit          3D

 29 30  0  0  1  0  0  0  0  0999 V2000
   23.4212  -10.9267  -20.5217 N   0  0  0  0  0  0  0  0  0  0  0  0
   22.3643  -10.4028  -19.6797 C   0  0  1  0  0  0  0  0  0  0  0  0
   21.8884  -11.5073  -18.7805 C   0  0  0  0  0  0  0  0  0  0  0  0
   21.2284  -12.5275  -19.6259 C   0  0  0  0  0  0  0  0  0  0  0  0
   21.4484  -13.8841  -19.5825 C   0  0  0  0  0  0  0  0  0  0  0  0
   20.6687  -14.5021  -20.4986 N   0  0  0  0  0  0  0  0  0  0  0  0
   19.9632  -13.5320  -21.1126 C   0  0  0  0  0  0  0  0  0  0  0  0
   20.3066  -12.3245  -20.5778 N   0  0  0  0  0  0  0  0  0  0  0  0
   22.8306   -9.2131  -18.9031 C   0  0  0  0  0  0  0  0  0  0  0  0
   23.9218   -8.6856  -19.2186 O   0  0  0  0  0  0  0  0  0  0  0  0
   23.7312   -6.6267  -19.0564 C   0  0  0  0  0  0  0  0  0  0  0  0
   22.6086   -6.3042  -18.0817 C   0  0  1  0  0  0  0  0  0  0  0  0
   21.5472   -5.8641  -18.8393 O   0  0  0  0  0  0  0  0  0  0  0  0
   22.3202   -7.4198  -17.1487 C   0  0  2  0  0  0  0  0  0  0  0  0
   22.0903   -8.6693  -17.8368 N   0  0  0  0  0  0  0  0  0  0  0  0
   21.3164   -7.1090  -16.1047 C   0  0  0  0  0  0  0  0  0  0  0  0
   20.1129   -7.5038  -16.1302 O   0  0  0  0  0  0  0  0  0  0  0  0
   21.6976   -6.3325  -15.0043 N   0  0  0  0  0  0  0  0  0  0  0  0
   20.7581   -5.9945  -13.9183 C   0  0  1  0  0  0  0  0  0  0  0  0
   21.4857   -6.2723  -12.6469 C   0  0  0  0  0  0  0  0  0  0  0  0
   20.7804   -5.9376  -11.4149 C   0  0  0  0  0  0  0  0  0  0  0  0
   20.1175   -6.9098  -10.6991 C   0  0  0  0  0  0  0  0  0  0  0  0
   19.4524   -6.5940   -9.5311 C   0  0  0  0  0  0  0  0  0  0  0  0
   19.4692   -5.2655   -9.0952 C   0  0  0  0  0  0  0  0  0  0  0  0
   20.1355   -4.2813   -9.8126 C   0  0  0  0  0  0  0  0  0  0  0  0
   20.7942   -4.6250  -10.9799 C   0  0  0  0  0  0  0  0  0  0  0  0
   20.4122   -4.5653  -14.1137 C   0  0  0  0  0  0  0  0  0  0  0  0
   21.3151   -3.8042  -14.5672 O   0  0  0  0  0  0  0  0  0  0  0  0
   19.1574   -4.0328  -13.8247 O   0  0  0  0  0  0  0  0  0  0  0  0
  2  1  1  1
  2  9  1  0
  3  2  1  0
  4  8  1  0
  4  3  1  0
  5  4  2  0
  6  5  1  0
  6  7  1  0
  7  8  2  0
  9 10  2  0
 12 11  1  6
 13 12  1  0
 14 12  1  0
 15  9  1  0
 14 15  1  6
 16 14  1  0
 16 17  2  0
 18 16  1  0
 19 27  1  0
 19 18  1  0
 19 20  1  1
 21 20  1  0
 21 22  2  0
 23 22  1  0
 24 23  2  0
 25 26  2  0
 25 24  1  0
 26 21  1  0
 27 29  1  0
 28 27  2  0
M  END
$$$$
