HTF.pdb
     RDKit          3D

 29 30  0  0  1  0  0  0  0  0999 V2000
   21.4129  -18.1764  -20.4845 N   0  0  0  0  0  0  0  0  0  0  0  0
   21.6579  -17.7957  -19.1078 C   0  0  1  0  0  0  0  0  0  0  0  0
   20.3352  -17.7030  -18.4031 C   0  0  0  0  0  0  0  0  0  0  0  0
   19.6092  -16.5362  -18.9533 C   0  0  0  0  0  0  0  0  0  0  0  0
   18.3463  -16.5481  -19.4969 C   0  0  0  0  0  0  0  0  0  0  0  0
   18.0095  -15.3002  -19.8953 N   0  0  0  0  0  0  0  0  0  0  0  0
   19.0613  -14.5112  -19.6004 C   0  0  0  0  0  0  0  0  0  0  0  0
   20.0392  -15.2685  -19.0242 N   0  0  0  0  0  0  0  0  0  0  0  0
   22.5816  -18.7608  -18.4357 C   0  0  0  0  0  0  0  0  0  0  0  0
   22.2485  -19.9669  -18.3831 O   0  0  0  0  0  0  0  0  0  0  0  0
   26.0847  -19.4244  -19.3433 C   0  0  0  0  0  0  0  0  0  0  0  0
   26.1225  -19.1037  -17.8567 C   0  0  1  0  0  0  0  0  0  0  0  0
   26.7652  -17.8929  -17.7340 O   0  0  0  0  0  0  0  0  0  0  0  0
   24.7893  -19.1976  -17.2151 C   0  0  2  0  0  0  0  0  0  0  0  0
   23.8045  -18.3627  -17.8640 N   0  0  0  0  0  0  0  0  0  0  0  0
   24.8040  -19.0816  -15.7384 C   0  0  0  0  0  0  0  0  0  0  0  0
   24.2910  -18.1205  -15.0918 O   0  0  0  0  0  0  0  0  0  0  0  0
   25.4158  -20.0888  -14.9832 N   0  0  0  0  0  0  0  0  0  0  0  0
   25.5612  -19.9934  -13.5182 C   0  0  1  0  0  0  0  0  0  0  0  0
   24.5125  -20.8845  -12.9445 C   0  0  0  0  0  0  0  0  0  0  0  0
   24.4712  -20.9764  -11.4894 C   0  0  0  0  0  0  0  0  0  0  0  0
   23.4541  -20.3808  -10.7768 C   0  0  0  0  0  0  0  0  0  0  0  0
   23.4129  -20.4703   -9.3996 C   0  0  0  0  0  0  0  0  0  0  0  0
   24.4276  -21.1792   -8.7491 C   0  0  0  0  0  0  0  0  0  0  0  0
   25.4553  -21.7814   -9.4621 C   0  0  0  0  0  0  0  0  0  0  0  0
   25.4726  -21.6764  -10.8416 C   0  0  0  0  0  0  0  0  0  0  0  0
   26.9482  -20.4275  -13.2209 C   0  0  0  0  0  0  0  0  0  0  0  0
   27.4663  -21.2889  -13.9889 O   0  0  0  0  0  0  0  0  0  0  0  0
   27.6933  -19.9364  -12.1508 O   0  0  0  0  0  0  0  0  0  0  0  0
  2  1  1  6
  2  9  1  0
  3  2  1  0
  4  8  1  0
  4  3  1  0
  5  4  2  0
  6  5  1  0
  6  7  1  0
  7  8  2  0
  9 10  2  0
 12 11  1  6
 13 12  1  0
 14 12  1  0
 15  9  1  0
 14 15  1  6
 16 14  1  0
 16 17  2  0
 18 16  1  0
 19 27  1  0
 19 18  1  0
 19 20  1  1
 21 20  1  0
 21 22  2  0
 23 22  1  0
 24 23  2  0
 25 26  2  0
 25 24  1  0
 26 21  1  0
 27 29  1  0
 28 27  2  0
M  END
$$$$
