HTF.pdb
     RDKit          3D

 29 30  0  0  1  0  0  0  0  0999 V2000
   20.9838  -14.2502  -18.9909 N   0  0  0  0  0  0  0  0  0  0  0  0
   20.0896  -13.3922  -18.2395 C   0  0  1  0  0  0  0  0  0  0  0  0
   20.0208  -13.9045  -16.8296 C   0  0  0  0  0  0  0  0  0  0  0  0
   19.4057  -15.2504  -16.8659 C   0  0  0  0  0  0  0  0  0  0  0  0
   18.1034  -15.5394  -17.1990 C   0  0  0  0  0  0  0  0  0  0  0  0
   17.8984  -16.8741  -17.1224 N   0  0  0  0  0  0  0  0  0  0  0  0
   19.0717  -17.4167  -16.7419 C   0  0  0  0  0  0  0  0  0  0  0  0
   19.9929  -16.4224  -16.5853 N   0  0  0  0  0  0  0  0  0  0  0  0
   20.5356  -11.9660  -18.2937 C   0  0  0  0  0  0  0  0  0  0  0  0
   21.7118  -11.6959  -17.9587 O   0  0  0  0  0  0  0  0  0  0  0  0
   19.3452   -9.4487  -21.1692 C   0  0  0  0  0  0  0  0  0  0  0  0
   19.2047   -8.8030  -19.7990 C   0  0  1  0  0  0  0  0  0  0  0  0
   17.8548   -8.6708  -19.5654 O   0  0  0  0  0  0  0  0  0  0  0  0
   19.9777   -9.5093  -18.7494 C   0  0  2  0  0  0  0  0  0  0  0  0
   19.6846  -10.9234  -18.7056 N   0  0  0  0  0  0  0  0  0  0  0  0
   19.9697   -8.8471  -17.4243 C   0  0  0  0  0  0  0  0  0  0  0  0
   19.2807   -9.2363  -16.4350 O   0  0  0  0  0  0  0  0  0  0  0  0
   20.7703   -7.7165  -17.2241 N   0  0  0  0  0  0  0  0  0  0  0  0
   20.8039   -6.9960  -15.9373 C   0  0  1  0  0  0  0  0  0  0  0  0
   22.1901   -7.1596  -15.4132 C   0  0  0  0  0  0  0  0  0  0  0  0
   22.5357   -8.4837  -14.9087 C   0  0  0  0  0  0  0  0  0  0  0  0
   23.4899   -9.2492  -15.5415 C   0  0  0  0  0  0  0  0  0  0  0  0
   23.8197  -10.5014  -15.0625 C   0  0  0  0  0  0  0  0  0  0  0  0
   23.1616  -10.9709  -13.9215 C   0  0  0  0  0  0  0  0  0  0  0  0
   22.1988  -10.2039  -13.2796 C   0  0  0  0  0  0  0  0  0  0  0  0
   21.8874   -8.9523  -13.7806 C   0  0  0  0  0  0  0  0  0  0  0  0
   20.4409   -5.5923  -16.2508 C   0  0  0  0  0  0  0  0  0  0  0  0
   20.4956   -5.2332  -17.4625 O   0  0  0  0  0  0  0  0  0  0  0  0
   20.0488   -4.6669  -15.2857 O   0  0  0  0  0  0  0  0  0  0  0  0
  2  1  1  6
  2  9  1  0
  3  2  1  0
  4  8  1  0
  4  3  1  0
  5  4  2  0
  6  5  1  0
  6  7  1  0
  7  8  2  0
  9 10  2  0
 12 11  1  6
 13 12  1  0
 14 12  1  0
 15  9  1  0
 14 15  1  1
 16 14  1  0
 16 17  2  0
 18 16  1  0
 19 27  1  0
 19 18  1  0
 19 20  1  6
 21 20  1  0
 21 22  2  0
 23 22  1  0
 24 23  2  0
 25 26  2  0
 25 24  1  0
 26 21  1  0
 27 29  1  0
 28 27  2  0
M  END
$$$$
