HTF.pdb
     RDKit          3D

 29 30  0  0  1  0  0  0  0  0999 V2000
   26.0510  -18.6496  -16.1400 N   0  0  0  0  0  0  0  0  0  0  0  0
   26.7296  -18.4819  -14.8705 C   0  0  1  0  0  0  0  0  0  0  0  0
   27.1322  -17.0412  -14.7392 C   0  0  0  0  0  0  0  0  0  0  0  0
   28.0630  -16.7279  -15.8466 C   0  0  0  0  0  0  0  0  0  0  0  0
   29.3593  -17.1699  -15.9675 C   0  0  0  0  0  0  0  0  0  0  0  0
   29.9030  -16.6830  -17.1062 N   0  0  0  0  0  0  0  0  0  0  0  0
   28.9466  -15.9381  -17.6946 C   0  0  0  0  0  0  0  0  0  0  0  0
   27.8215  -15.9663  -16.9231 N   0  0  0  0  0  0  0  0  0  0  0  0
   25.8667  -18.9259  -13.7328 C   0  0  0  0  0  0  0  0  0  0  0  0
   24.6281  -18.7651  -13.8259 O   0  0  0  0  0  0  0  0  0  0  0  0
   23.9779  -20.9403  -13.2407 C   0  0  0  0  0  0  0  0  0  0  0  0
   24.8894  -21.3681  -12.1004 C   0  0  1  0  0  0  0  0  0  0  0  0
   25.6131  -22.4444  -12.5608 O   0  0  0  0  0  0  0  0  0  0  0  0
   25.6813  -20.2441  -11.5459 C   0  0  2  0  0  0  0  0  0  0  0  0
   26.3950  -19.5145  -12.5687 N   0  0  0  0  0  0  0  0  0  0  0  0
   26.5033  -20.5909  -10.3634 C   0  0  0  0  0  0  0  0  0  0  0  0
   27.5696  -21.2734  -10.4093 O   0  0  0  0  0  0  0  0  0  0  0  0
   26.0995  -20.1442   -9.0998 N   0  0  0  0  0  0  0  0  0  0  0  0
   26.7974  -20.5475   -7.8642 C   0  0  1  0  0  0  0  0  0  0  0  0
   27.2886  -19.2850   -7.2415 C   0  0  0  0  0  0  0  0  0  0  0  0
   27.9389  -19.4182   -5.9427 C   0  0  0  0  0  0  0  0  0  0  0  0
   29.2478  -19.8373   -5.8525 C   0  0  0  0  0  0  0  0  0  0  0  0
   29.8647  -19.9604   -4.6235 C   0  0  0  0  0  0  0  0  0  0  0  0
   29.1283  -19.6496   -3.4761 C   0  0  0  0  0  0  0  0  0  0  0  0
   27.8087  -19.2268   -3.5609 C   0  0  0  0  0  0  0  0  0  0  0  0
   27.2145  -19.1120   -4.8052 C   0  0  0  0  0  0  0  0  0  0  0  0
   25.7900  -21.2686   -7.0484 C   0  0  0  0  0  0  0  0  0  0  0  0
   24.5709  -21.0814   -7.3291 O   0  0  0  0  0  0  0  0  0  0  0  0
   26.1217  -22.1289   -6.0037 O   0  0  0  0  0  0  0  0  0  0  0  0
  2  1  1  6
  2  9  1  0
  3  2  1  0
  4  8  1  0
  4  3  1  0
  5  4  2  0
  6  5  1  0
  6  7  1  0
  7  8  2  0
  9 10  2  0
 12 11  1  6
 13 12  1  0
 14 12  1  0
 15  9  1  0
 14 15  1  6
 16 14  1  0
 16 17  2  0
 18 16  1  0
 19 27  1  0
 19 18  1  0
 19 20  1  1
 21 20  1  0
 21 22  2  0
 23 22  1  0
 24 23  2  0
 25 26  2  0
 25 24  1  0
 26 21  1  0
 27 29  1  0
 28 27  2  0
M  END
$$$$
