HTF.pdb
     RDKit          3D

 29 30  0  0  1  0  0  0  0  0999 V2000
   15.1491   -9.2588  -18.4341 N   0  0  0  0  0  0  0  0  0  0  0  0
   16.4517   -9.5760  -17.8836 C   0  0  1  0  0  0  0  0  0  0  0  0
   17.1109  -10.5804  -18.7845 C   0  0  0  0  0  0  0  0  0  0  0  0
   16.3432  -11.8428  -18.6945 C   0  0  0  0  0  0  0  0  0  0  0  0
   16.1867  -12.6197  -17.5709 C   0  0  0  0  0  0  0  0  0  0  0  0
   15.4225  -13.6965  -17.8637 N   0  0  0  0  0  0  0  0  0  0  0  0
   15.1029  -13.5911  -19.1685 C   0  0  0  0  0  0  0  0  0  0  0  0
   15.6668  -12.4567  -19.6756 N   0  0  0  0  0  0  0  0  0  0  0  0
   17.2836   -8.3445  -17.7179 C   0  0  0  0  0  0  0  0  0  0  0  0
   17.0211   -7.3476  -18.4291 O   0  0  0  0  0  0  0  0  0  0  0  0
   17.2161   -5.5904  -17.0809 C   0  0  0  0  0  0  0  0  0  0  0  0
   18.2269   -5.9682  -16.0086 C   0  0  1  0  0  0  0  0  0  0  0  0
   17.5142   -6.1467  -14.8448 O   0  0  0  0  0  0  0  0  0  0  0  0
   19.0991   -7.0964  -16.4139 C   0  0  2  0  0  0  0  0  0  0  0  0
   18.3443   -8.2678  -16.7962 N   0  0  0  0  0  0  0  0  0  0  0  0
   20.2214   -7.3742  -15.4878 C   0  0  0  0  0  0  0  0  0  0  0  0
   20.2929   -8.3914  -14.7361 O   0  0  0  0  0  0  0  0  0  0  0  0
   21.2883   -6.4705  -15.4219 N   0  0  0  0  0  0  0  0  0  0  0  0
   22.6176   -6.8604  -14.9146 C   0  0  1  0  0  0  0  0  0  0  0  0
   23.0881   -7.9604  -15.8044 C   0  0  0  0  0  0  0  0  0  0  0  0
   24.4167   -8.4925  -15.5230 C   0  0  0  0  0  0  0  0  0  0  0  0
   25.4919   -8.1502  -16.3130 C   0  0  0  0  0  0  0  0  0  0  0  0
   26.7503   -8.6511  -16.0451 C   0  0  0  0  0  0  0  0  0  0  0  0
   26.9044   -9.5124  -14.9543 C   0  0  0  0  0  0  0  0  0  0  0  0
   25.8244   -9.8609  -14.1547 C   0  0  0  0  0  0  0  0  0  0  0  0
   24.5740   -9.3446  -14.4454 C   0  0  0  0  0  0  0  0  0  0  0  0
   23.4506   -5.6349  -14.9809 C   0  0  0  0  0  0  0  0  0  0  0  0
   23.2467   -4.8434  -15.9464 O   0  0  0  0  0  0  0  0  0  0  0  0
   24.4317   -5.3219  -14.0422 O   0  0  0  0  0  0  0  0  0  0  0  0
  2  1  1  6
  2  9  1  0
  3  2  1  0
  4  8  1  0
  4  3  1  0
  5  4  2  0
  6  5  1  0
  6  7  1  0
  7  8  2  0
  9 10  2  0
 12 11  1  6
 13 12  1  0
 14 12  1  0
 15  9  1  0
 14 15  1  1
 16 14  1  0
 16 17  2  0
 18 16  1  0
 19 27  1  0
 19 18  1  0
 19 20  1  6
 21 20  1  0
 21 22  2  0
 23 22  1  0
 24 23  2  0
 25 26  2  0
 25 24  1  0
 26 21  1  0
 27 29  1  0
 28 27  2  0
M  END
$$$$
