HTF.pdb
     RDKit          3D

 29 30  0  0  1  0  0  0  0  0999 V2000
   14.6664  -10.9001  -15.7986 N   0  0  0  0  0  0  0  0  0  0  0  0
   15.0075   -9.6516  -15.1464 C   0  0  1  0  0  0  0  0  0  0  0  0
   14.5580   -9.7303  -13.7157 C   0  0  0  0  0  0  0  0  0  0  0  0
   13.0820   -9.6197  -13.6975 C   0  0  0  0  0  0  0  0  0  0  0  0
   12.1948  -10.6354  -13.4297 C   0  0  0  0  0  0  0  0  0  0  0  0
   10.9285  -10.1660  -13.5029 N   0  0  0  0  0  0  0  0  0  0  0  0
   11.0261   -8.8590  -13.8162 C   0  0  0  0  0  0  0  0  0  0  0  0
   12.3440   -8.5261  -13.9349 N   0  0  0  0  0  0  0  0  0  0  0  0
   16.4712   -9.3659  -15.2564 C   0  0  0  0  0  0  0  0  0  0  0  0
   17.2796  -10.2853  -14.9927 O   0  0  0  0  0  0  0  0  0  0  0  0
   18.4558   -8.6371  -18.1526 C   0  0  0  0  0  0  0  0  0  0  0  0
   18.6729   -7.4356  -17.2451 C   0  0  1  0  0  0  0  0  0  0  0  0
   17.9930   -6.3849  -17.8178 O   0  0  0  0  0  0  0  0  0  0  0  0
   18.3485   -7.7213  -15.8270 C   0  0  2  0  0  0  0  0  0  0  0  0
   16.9682   -8.1074  -15.6435 N   0  0  0  0  0  0  0  0  0  0  0  0
   18.8252   -6.7001  -14.8656 C   0  0  0  0  0  0  0  0  0  0  0  0
   18.0686   -5.9011  -14.2379 O   0  0  0  0  0  0  0  0  0  0  0  0
   20.1977   -6.5921  -14.6130 N   0  0  0  0  0  0  0  0  0  0  0  0
   20.7463   -5.6039  -13.6650 C   0  0  1  0  0  0  0  0  0  0  0  0
   21.7775   -6.3295  -12.8692 C   0  0  0  0  0  0  0  0  0  0  0  0
   22.6349   -7.2474  -13.6106 C   0  0  0  0  0  0  0  0  0  0  0  0
   23.5537   -6.7708  -14.5194 C   0  0  0  0  0  0  0  0  0  0  0  0
   24.3678   -7.6391  -15.2191 C   0  0  0  0  0  0  0  0  0  0  0  0
   24.2355   -9.0109  -14.9820 C   0  0  0  0  0  0  0  0  0  0  0  0
   23.3111   -9.4969  -14.0673 C   0  0  0  0  0  0  0  0  0  0  0  0
   22.5077   -8.6049  -13.3795 C   0  0  0  0  0  0  0  0  0  0  0  0
   21.2926   -4.5049  -14.4982 C   0  0  0  0  0  0  0  0  0  0  0  0
   21.7382   -3.4847  -13.8975 O   0  0  0  0  0  0  0  0  0  0  0  0
   21.3360   -4.5459  -15.8903 O   0  0  0  0  0  0  0  0  0  0  0  0
  2  1  1  1
  2  9  1  0
  3  2  1  0
  4  8  1  0
  4  3  1  0
  5  4  2  0
  6  5  1  0
  6  7  1  0
  7  8  2  0
  9 10  2  0
 12 11  1  6
 13 12  1  0
 14 12  1  0
 15  9  1  0
 14 15  1  6
 16 14  1  0
 16 17  2  0
 18 16  1  0
 19 27  1  0
 19 18  1  0
 19 20  1  6
 21 20  1  0
 21 22  2  0
 23 22  1  0
 24 23  2  0
 25 26  2  0
 25 24  1  0
 26 21  1  0
 27 29  1  0
 28 27  2  0
M  END
$$$$
