TSR.pdb
     RDKit          3D

 25 24  0  0  1  0  0  0  0  0999 V2000
   16.0632  -10.0030  -10.7654 C   0  0  0  0  0  0  0  0  0  0  0  0
   14.6382   -9.9522  -10.2971 C   0  0  1  0  0  0  0  0  0  0  0  0
   14.1251  -11.1837   -9.9613 O   0  0  0  0  0  0  0  0  0  0  0  0
   14.4567   -8.9163   -9.1841 C   0  0  2  0  0  0  0  0  0  0  0  0
   13.0284   -8.7841   -8.9705 N   0  0  0  0  0  0  0  0  0  0  0  0
   15.0393   -7.6522   -9.7374 C   0  0  0  0  0  0  0  0  0  0  0  0
   14.3646   -7.0470  -10.6076 O   0  0  0  0  0  0  0  0  0  0  0  0
   17.1691   -3.6529   -9.5968 O   0  0  0  0  0  0  0  0  0  0  0  0
   16.7135   -4.8256   -9.0333 C   0  0  0  0  0  0  0  0  0  0  0  0
   16.8704   -6.0266   -9.9537 C   0  0  2  0  0  0  0  0  0  0  0  0
   16.2971   -7.1570   -9.2995 N   0  0  0  0  0  0  0  0  0  0  0  0
   18.2624   -6.2194  -10.3778 C   0  0  0  0  0  0  0  0  0  0  0  0
   19.0960   -6.6220   -9.4929 O   0  0  0  0  0  0  0  0  0  0  0  0
   20.1896  -11.3927  -16.2897 N   0  0  0  0  0  0  0  0  0  0  0  0
   19.3618  -11.0913  -15.1625 C   0  0  0  0  0  0  0  0  0  0  0  0
   18.2385  -11.6972  -15.0525 N   0  0  0  0  0  0  0  0  0  0  0  0
   19.8486  -10.1395  -14.2510 N   0  0  0  0  0  0  0  0  0  0  0  0
   20.8312   -9.1321  -14.7292 C   0  0  0  0  0  0  0  0  0  0  0  0
   21.0545   -8.2147  -13.5914 C   0  0  0  0  0  0  0  0  0  0  0  0
   20.0166   -7.3352  -13.0901 C   0  0  0  0  0  0  0  0  0  0  0  0
   20.1954   -6.3190  -12.0357 C   0  0  2  0  0  0  0  0  0  0  0  0
   18.7678   -6.0056  -11.6609 N   0  0  0  0  0  0  0  0  0  0  0  0
   20.9007   -5.0868  -12.2753 C   0  0  0  0  0  0  0  0  0  0  0  0
   20.3492   -3.9804  -12.3695 O   0  0  0  0  0  0  0  0  0  0  0  0
   22.3114   -5.0268  -12.4277 O   0  0  0  0  0  0  0  0  0  0  0  0
  2  4  1  0
  2  1  1  1
  3  2  1  0
  4  6  1  0
  4  5  1  6
  6 11  1  0
  6  7  2  0
  9  8  1  0
 10  9  1  1
 10 12  1  0
 11 10  1  0
 12 13  2  0
 15 14  1  0
 15 16  2  0
 17 15  1  0
 18 17  1  0
 19 18  1  0
 20 19  1  0
 21 20  1  6
 21 23  1  0
 22 12  1  0
 22 21  1  0
 23 25  1  0
 24 23  2  0
M  END
$$$$
