TSR.pdb
     RDKit          3D

 25 24  0  0  1  0  0  0  0  0999 V2000
   20.2355   -8.1143   12.5010 C   0  0  0  0  0  0  0  0  0  0  0  0
   19.6669   -9.0054   11.4357 C   0  0  1  0  0  0  0  0  0  0  0  0
   18.5445   -9.6935   11.8350 O   0  0  0  0  0  0  0  0  0  0  0  0
   19.4521   -8.2388   10.1277 C   0  0  2  0  0  0  0  0  0  0  0  0
   18.3061   -7.3751   10.3374 N   0  0  0  0  0  0  0  0  0  0  0  0
   19.1530   -9.2947    9.1084 C   0  0  0  0  0  0  0  0  0  0  0  0
   17.9511   -9.4365    8.7704 O   0  0  0  0  0  0  0  0  0  0  0  0
   20.7268  -11.7924    5.3919 O   0  0  0  0  0  0  0  0  0  0  0  0
   20.9925  -11.0256    6.5063 C   0  0  0  0  0  0  0  0  0  0  0  0
   19.8541  -11.0306    7.5154 C   0  0  2  0  0  0  0  0  0  0  0  0
   20.1797  -10.1007    8.5468 N   0  0  0  0  0  0  0  0  0  0  0  0
   19.5506  -12.3829    7.9990 C   0  0  0  0  0  0  0  0  0  0  0  0
   20.2895  -12.8525    8.9336 O   0  0  0  0  0  0  0  0  0  0  0  0
   12.3754  -17.3583    6.5444 N   0  0  0  0  0  0  0  0  0  0  0  0
   13.1338  -18.1447    7.4679 C   0  0  0  0  0  0  0  0  0  0  0  0
   12.6303  -19.2451    7.8879 N   0  0  0  0  0  0  0  0  0  0  0  0
   14.3889  -17.6429    7.8512 N   0  0  0  0  0  0  0  0  0  0  0  0
   14.8510  -16.3568    7.2669 C   0  0  0  0  0  0  0  0  0  0  0  0
   16.1580  -16.0737    7.8976 C   0  0  0  0  0  0  0  0  0  0  0  0
   16.9417  -14.9008    7.5630 C   0  0  0  0  0  0  0  0  0  0  0  0
   18.2841  -14.5925    8.0916 C   0  0  2  0  0  0  0  0  0  0  0  0
   18.5273  -13.2110    7.5357 N   0  0  0  0  0  0  0  0  0  0  0  0
   19.4255  -15.4226    7.8064 C   0  0  0  0  0  0  0  0  0  0  0  0
   20.1387  -15.2971    6.8001 O   0  0  0  0  0  0  0  0  0  0  0  0
   19.8432  -16.4747    8.6640 O   0  0  0  0  0  0  0  0  0  0  0  0
  2  4  1  0
  2  1  1  1
  3  2  1  0
  4  6  1  0
  4  5  1  1
  6 11  1  0
  6  7  2  0
  9  8  1  0
 10  9  1  6
 10 12  1  0
 11 10  1  0
 12 13  2  0
 15 14  1  0
 15 16  2  0
 17 15  1  0
 18 17  1  0
 19 18  1  0
 20 19  1  0
 21 20  1  6
 21 23  1  0
 22 12  1  0
 22 21  1  0
 23 25  1  0
 24 23  2  0
M  END
$$$$
