TSR.pdb
     RDKit          3D

 25 24  0  0  1  0  0  0  0  0999 V2000
   22.1200  -15.0549  -22.2450 C   0  0  0  0  0  0  0  0  0  0  0  0
   21.2480  -15.9046  -21.3673 C   0  0  1  0  0  0  0  0  0  0  0  0
   20.3105  -16.6328  -22.0625 O   0  0  0  0  0  0  0  0  0  0  0  0
   22.0872  -16.7732  -20.4260 C   0  0  2  0  0  0  0  0  0  0  0  0
   21.1517  -17.5394  -19.6254 N   0  0  0  0  0  0  0  0  0  0  0  0
   22.8490  -15.7987  -19.5813 C   0  0  0  0  0  0  0  0  0  0  0  0
   22.1780  -15.0600  -18.8178 O   0  0  0  0  0  0  0  0  0  0  0  0
   27.1813  -14.2852  -18.0253 O   0  0  0  0  0  0  0  0  0  0  0  0
   26.4235  -15.1270  -18.8112 C   0  0  0  0  0  0  0  0  0  0  0  0
   24.9437  -14.7744  -18.8032 C   0  0  2  0  0  0  0  0  0  0  0  0
   24.2661  -15.7117  -19.6380 N   0  0  0  0  0  0  0  0  0  0  0  0
   24.7085  -13.3704  -19.1612 C   0  0  0  0  0  0  0  0  0  0  0  0
   24.7188  -13.0717  -20.4064 O   0  0  0  0  0  0  0  0  0  0  0  0
   20.7263   -7.1685  -14.3469 N   0  0  0  0  0  0  0  0  0  0  0  0
   20.8409   -6.5577  -15.6354 C   0  0  0  0  0  0  0  0  0  0  0  0
   20.2892   -5.4164  -15.8197 N   0  0  0  0  0  0  0  0  0  0  0  0
   21.5571   -7.2661  -16.6147 N   0  0  0  0  0  0  0  0  0  0  0  0
   22.0819   -8.6151  -16.2776 C   0  0  0  0  0  0  0  0  0  0  0  0
   22.8346   -9.0644  -17.4683 C   0  0  0  0  0  0  0  0  0  0  0  0
   23.4644  -10.3682  -17.5401 C   0  0  0  0  0  0  0  0  0  0  0  0
   24.1424  -10.9239  -18.7268 C   0  0  2  0  0  0  0  0  0  0  0  0
   24.4723  -12.3233  -18.2694 N   0  0  0  0  0  0  0  0  0  0  0  0
   25.3248  -10.3192  -19.2829 C   0  0  0  0  0  0  0  0  0  0  0  0
   25.3095   -9.3417  -20.0453 O   0  0  0  0  0  0  0  0  0  0  0  0
   26.6338  -10.7946  -19.0043 O   0  0  0  0  0  0  0  0  0  0  0  0
  2  4  1  0
  2  1  1  6
  3  2  1  0
  4  6  1  0
  4  5  1  1
  6 11  1  0
  6  7  2  0
  9  8  1  0
 10  9  1  6
 10 12  1  0
 11 10  1  0
 12 13  2  0
 15 14  1  0
 15 16  2  0
 17 15  1  0
 18 17  1  0
 19 18  1  0
 20 19  1  0
 21 20  1  1
 21 23  1  0
 22 12  1  0
 22 21  1  0
 23 25  1  0
 24 23  2  0
M  END
$$$$
