TSR.pdb
     RDKit          3D

 25 24  0  0  1  0  0  0  0  0999 V2000
   25.0608  -13.6184  -21.2573 C   0  0  0  0  0  0  0  0  0  0  0  0
   24.6793  -13.0080  -19.9403 C   0  0  1  0  0  0  0  0  0  0  0  0
   23.3200  -12.9095  -19.7526 O   0  0  0  0  0  0  0  0  0  0  0  0
   25.3837  -13.7127  -18.7776 C   0  0  2  0  0  0  0  0  0  0  0  0
   24.7268  -14.9949  -18.6113 N   0  0  0  0  0  0  0  0  0  0  0  0
   25.1479  -12.8275  -17.5926 C   0  0  0  0  0  0  0  0  0  0  0  0
   24.0366  -12.9317  -17.0156 O   0  0  0  0  0  0  0  0  0  0  0  0
   27.8307   -9.7171  -16.4196 O   0  0  0  0  0  0  0  0  0  0  0  0
   27.1324  -10.4841  -15.5116 C   0  0  0  0  0  0  0  0  0  0  0  0
   25.8225  -11.0194  -16.0700 C   0  0  2  0  0  0  0  0  0  0  0  0
   26.1344  -11.9112  -17.1387 N   0  0  0  0  0  0  0  0  0  0  0  0
   24.8969   -9.9410  -16.4375 C   0  0  0  0  0  0  0  0  0  0  0  0
   24.9926   -9.4624  -17.6214 O   0  0  0  0  0  0  0  0  0  0  0  0
   16.8477   -7.8018  -15.8802 N   0  0  0  0  0  0  0  0  0  0  0  0
   17.3789   -6.5066  -15.5854 C   0  0  0  0  0  0  0  0  0  0  0  0
   16.6083   -5.4904  -15.7056 N   0  0  0  0  0  0  0  0  0  0  0  0
   18.7237   -6.4461  -15.1835 N   0  0  0  0  0  0  0  0  0  0  0  0
   19.5792   -7.6465  -15.3738 C   0  0  0  0  0  0  0  0  0  0  0  0
   20.9266   -7.2603  -14.9032 C   0  0  0  0  0  0  0  0  0  0  0  0
   22.0562   -8.1673  -14.9595 C   0  0  0  0  0  0  0  0  0  0  0  0
   23.0397   -8.2379  -16.0570 C   0  0  2  0  0  0  0  0  0  0  0  0
   23.9160   -9.3842  -15.6158 N   0  0  0  0  0  0  0  0  0  0  0  0
   23.8722   -7.1170  -16.4085 C   0  0  0  0  0  0  0  0  0  0  0  0
   23.6372   -6.3493  -17.3533 O   0  0  0  0  0  0  0  0  0  0  0  0
   25.0543   -6.7849  -15.6949 O   0  0  0  0  0  0  0  0  0  0  0  0
  2  4  1  0
  2  1  1  6
  3  2  1  0
  4  6  1  0
  4  5  1  1
  6 11  1  0
  6  7  2  0
  9  8  1  0
 10  9  1  6
 10 12  1  0
 11 10  1  0
 12 13  2  0
 15 14  1  0
 15 16  2  0
 17 15  1  0
 18 17  1  0
 19 18  1  0
 20 19  1  0
 21 20  1  1
 21 23  1  0
 22 12  1  0
 22 21  1  0
 23 25  1  0
 24 23  2  0
M  END
$$$$
