TSR.pdb
     RDKit          3D

 25 24  0  0  1  0  0  0  0  0999 V2000
   30.7740  -11.3369  -20.9954 C   0  0  0  0  0  0  0  0  0  0  0  0
   29.6452  -11.9873  -20.2502 C   0  0  1  0  0  0  0  0  0  0  0  0
   29.4717  -13.3155  -20.5639 O   0  0  0  0  0  0  0  0  0  0  0  0
   29.7668  -11.7505  -18.7422 C   0  0  2  0  0  0  0  0  0  0  0  0
   28.6697  -12.4670  -18.1208 N   0  0  0  0  0  0  0  0  0  0  0  0
   29.6105  -10.2706  -18.5721 C   0  0  0  0  0  0  0  0  0  0  0  0
   28.4388   -9.8169  -18.5783 O   0  0  0  0  0  0  0  0  0  0  0  0
   32.1094   -7.6147  -16.3601 O   0  0  0  0  0  0  0  0  0  0  0  0
   31.8570   -7.4363  -17.7036 C   0  0  0  0  0  0  0  0  0  0  0  0
   30.5270   -8.0307  -18.1417 C   0  0  2  0  0  0  0  0  0  0  0  0
   30.7342   -9.4162  -18.4102 N   0  0  0  0  0  0  0  0  0  0  0  0
   29.9291   -7.2852  -19.2559 C   0  0  0  0  0  0  0  0  0  0  0  0
   30.3815   -7.5207  -20.4306 O   0  0  0  0  0  0  0  0  0  0  0  0
   21.6817   -5.8613  -20.2732 N   0  0  0  0  0  0  0  0  0  0  0  0
   22.2596   -6.6247  -21.3361 C   0  0  0  0  0  0  0  0  0  0  0  0
   21.4767   -7.2706  -22.1176 N   0  0  0  0  0  0  0  0  0  0  0  0
   23.6604   -6.6101  -21.4422 N   0  0  0  0  0  0  0  0  0  0  0  0
   24.4442   -5.8571  -20.4285 C   0  0  0  0  0  0  0  0  0  0  0  0
   25.8612   -6.0011  -20.8257 C   0  0  0  0  0  0  0  0  0  0  0  0
   26.9472   -5.4641  -20.0294 C   0  0  0  0  0  0  0  0  0  0  0  0
   28.3817   -5.5830  -20.3527 C   0  0  2  0  0  0  0  0  0  0  0  0
   28.9080   -6.3391  -19.1577 N   0  0  0  0  0  0  0  0  0  0  0  0
   29.2105   -4.4280  -20.5814 C   0  0  0  0  0  0  0  0  0  0  0  0
   29.3812   -3.9076  -21.6937 O   0  0  0  0  0  0  0  0  0  0  0  0
   29.9171   -3.7715  -19.5391 O   0  0  0  0  0  0  0  0  0  0  0  0
  2  4  1  0
  2  1  1  6
  3  2  1  0
  4  6  1  0
  4  5  1  1
  6 11  1  0
  6  7  2  0
  9  8  1  0
 10  9  1  6
 10 12  1  0
 11 10  1  0
 12 13  2  0
 15 14  1  0
 15 16  2  0
 17 15  1  0
 18 17  1  0
 19 18  1  0
 20 19  1  0
 21 20  1  1
 21 23  1  0
 22 12  1  0
 22 21  1  0
 23 25  1  0
 24 23  2  0
M  END
$$$$
