TSR.pdb
     RDKit          3D

 25 24  0  0  1  0  0  0  0  0999 V2000
   25.9486  -23.2964  -11.0071 C   0  0  0  0  0  0  0  0  0  0  0  0
   25.5070  -22.0392  -11.6977 C   0  0  1  0  0  0  0  0  0  0  0  0
   24.1677  -21.7666  -11.5409 O   0  0  0  0  0  0  0  0  0  0  0  0
   26.3970  -20.8537  -11.3140 C   0  0  2  0  0  0  0  0  0  0  0  0
   25.8660  -20.3216  -10.0738 N   0  0  0  0  0  0  0  0  0  0  0  0
   26.2355  -19.8737  -12.4351 C   0  0  0  0  0  0  0  0  0  0  0  0
   25.5184  -18.8662  -12.2124 O   0  0  0  0  0  0  0  0  0  0  0  0
   27.5962  -18.4885  -16.8710 O   0  0  0  0  0  0  0  0  0  0  0  0
   27.7255  -19.3353  -15.7908 C   0  0  0  0  0  0  0  0  0  0  0  0
   26.6430  -19.1290  -14.7420 C   0  0  2  0  0  0  0  0  0  0  0  0
   26.8640  -20.0711  -13.6941 N   0  0  0  0  0  0  0  0  0  0  0  0
   25.2955  -19.1795  -15.3217 C   0  0  0  0  0  0  0  0  0  0  0  0
   24.7518  -20.3323  -15.4456 O   0  0  0  0  0  0  0  0  0  0  0  0
   20.6142  -12.7228  -18.1695 N   0  0  0  0  0  0  0  0  0  0  0  0
   19.6240  -13.7435  -18.3248 C   0  0  0  0  0  0  0  0  0  0  0  0
   18.6312  -13.5158  -19.1014 N   0  0  0  0  0  0  0  0  0  0  0  0
   19.8167  -14.9330  -17.6024 N   0  0  0  0  0  0  0  0  0  0  0  0
   20.9235  -14.9943  -16.6123 C   0  0  0  0  0  0  0  0  0  0  0  0
   21.3165  -16.4176  -16.5342 C   0  0  0  0  0  0  0  0  0  0  0  0
   22.6963  -16.8324  -16.3732 C   0  0  0  0  0  0  0  0  0  0  0  0
   23.1711  -18.2292  -16.3604 C   0  0  2  0  0  0  0  0  0  0  0  0
   24.5446  -18.0850  -15.7528 N   0  0  0  0  0  0  0  0  0  0  0  0
   23.2687  -19.0129  -17.5644 C   0  0  0  0  0  0  0  0  0  0  0  0
   24.3220  -19.1846  -18.1953 O   0  0  0  0  0  0  0  0  0  0  0  0
   22.1515  -19.6689  -18.1461 O   0  0  0  0  0  0  0  0  0  0  0  0
  2  4  1  0
  2  1  1  1
  3  2  1  0
  4  6  1  0
  4  5  1  1
  6 11  1  0
  6  7  2  0
  9  8  1  0
 10  9  1  6
 10 12  1  0
 11 10  1  0
 12 13  2  0
 15 14  1  0
 15 16  2  0
 17 15  1  0
 18 17  1  0
 19 18  1  0
 20 19  1  0
 21 20  1  6
 21 23  1  0
 22 12  1  0
 22 21  1  0
 23 25  1  0
 24 23  2  0
M  END
$$$$
