TSR.pdb
     RDKit          3D

 25 24  0  0  1  0  0  0  0  0999 V2000
   20.5859  -13.8059  -22.6664 C   0  0  0  0  0  0  0  0  0  0  0  0
   20.2516  -15.0199  -21.8498 C   0  0  1  0  0  0  0  0  0  0  0  0
   19.1895  -15.7407  -22.3448 O   0  0  0  0  0  0  0  0  0  0  0  0
   21.4910  -15.8873  -21.6125 C   0  0  2  0  0  0  0  0  0  0  0  0
   21.0446  -17.0549  -20.8772 N   0  0  0  0  0  0  0  0  0  0  0  0
   22.3996  -15.0383  -20.7777 C   0  0  0  0  0  0  0  0  0  0  0  0
   21.9556  -14.6477  -19.6690 O   0  0  0  0  0  0  0  0  0  0  0  0
   26.8052  -13.0821  -20.2476 O   0  0  0  0  0  0  0  0  0  0  0  0
   25.9391  -13.9097  -20.9299 C   0  0  0  0  0  0  0  0  0  0  0  0
   24.5137  -13.8413  -20.4028 C   0  0  2  0  0  0  0  0  0  0  0  0
   23.7053  -14.6893  -21.2164 N   0  0  0  0  0  0  0  0  0  0  0  0
   24.0268  -12.4600  -20.3046 C   0  0  0  0  0  0  0  0  0  0  0  0
   23.5478  -11.9287  -21.3667 O   0  0  0  0  0  0  0  0  0  0  0  0
   21.2526   -8.0178  -13.2434 N   0  0  0  0  0  0  0  0  0  0  0  0
   20.7195   -7.2933  -14.3557 C   0  0  0  0  0  0  0  0  0  0  0  0
   19.8815   -6.3524  -14.1246 N   0  0  0  0  0  0  0  0  0  0  0  0
   21.1594   -7.6750  -15.6343 N   0  0  0  0  0  0  0  0  0  0  0  0
   22.0454   -8.8618  -15.7583 C   0  0  0  0  0  0  0  0  0  0  0  0
   22.3637   -8.9789  -17.1975 C   0  0  0  0  0  0  0  0  0  0  0  0
   23.1726  -10.0595  -17.7265 C   0  0  0  0  0  0  0  0  0  0  0  0
   23.5233  -10.2459  -19.1473 C   0  0  2  0  0  0  0  0  0  0  0  0
   24.0351  -11.6653  -19.1575 N   0  0  0  0  0  0  0  0  0  0  0  0
   24.4751   -9.3974  -19.8159 C   0  0  0  0  0  0  0  0  0  0  0  0
   25.6924   -9.6275  -19.8661 O   0  0  0  0  0  0  0  0  0  0  0  0
   24.1004   -8.2034  -20.4874 O   0  0  0  0  0  0  0  0  0  0  0  0
  2  4  1  0
  2  1  1  6
  3  2  1  0
  4  6  1  0
  4  5  1  1
  6 11  1  0
  6  7  2  0
  9  8  1  0
 10  9  1  6
 10 12  1  0
 11 10  1  0
 12 13  2  0
 15 14  1  0
 15 16  2  0
 17 15  1  0
 18 17  1  0
 19 18  1  0
 20 19  1  0
 21 20  1  1
 21 23  1  0
 22 12  1  0
 22 21  1  0
 23 25  1  0
 24 23  2  0
M  END
$$$$
