TSR.pdb
     RDKit          3D

 25 24  0  0  1  0  0  0  0  0999 V2000
   18.6105  -12.4506  -18.7117 C   0  0  0  0  0  0  0  0  0  0  0  0
   18.6185  -11.8141  -17.3526 C   0  0  1  0  0  0  0  0  0  0  0  0
   17.6266  -12.2800  -16.5209 O   0  0  0  0  0  0  0  0  0  0  0  0
   20.0072  -11.8915  -16.7120 C   0  0  2  0  0  0  0  0  0  0  0  0
   20.1846  -13.2621  -16.2723 N   0  0  0  0  0  0  0  0  0  0  0  0
   19.9448  -10.9540  -15.5456 C   0  0  0  0  0  0  0  0  0  0  0  0
   19.3522  -11.3637  -14.5162 O   0  0  0  0  0  0  0  0  0  0  0  0
   21.4228   -6.7951  -13.5659 O   0  0  0  0  0  0  0  0  0  0  0  0
   21.4786   -7.7231  -14.5839 C   0  0  0  0  0  0  0  0  0  0  0  0
   20.3957   -8.7863  -14.4777 C   0  0  2  0  0  0  0  0  0  0  0  0
   20.5290   -9.6597  -15.5975 N   0  0  0  0  0  0  0  0  0  0  0  0
   19.0585   -8.1998  -14.3284 C   0  0  0  0  0  0  0  0  0  0  0  0
   18.4562   -7.8302  -15.3964 O   0  0  0  0  0  0  0  0  0  0  0  0
   13.0247   -9.6897   -8.1630 N   0  0  0  0  0  0  0  0  0  0  0  0
   12.3075   -8.9734   -9.1725 C   0  0  0  0  0  0  0  0  0  0  0  0
   11.0399   -8.8422   -9.0420 N   0  0  0  0  0  0  0  0  0  0  0  0
   13.0570   -8.4636  -10.2459 N   0  0  0  0  0  0  0  0  0  0  0  0
   14.5193   -8.7262  -10.2824 C   0  0  0  0  0  0  0  0  0  0  0  0
   15.0296   -8.0030  -11.4668 C   0  0  0  0  0  0  0  0  0  0  0  0
   16.3996   -8.1329  -11.9229 C   0  0  0  0  0  0  0  0  0  0  0  0
   16.9905   -7.4103  -13.0654 C   0  0  2  0  0  0  0  0  0  0  0  0
   18.3756   -8.0057  -13.1270 N   0  0  0  0  0  0  0  0  0  0  0  0
   17.0938   -5.9743  -13.0889 C   0  0  0  0  0  0  0  0  0  0  0  0
   18.0881   -5.3452  -12.6984 O   0  0  0  0  0  0  0  0  0  0  0  0
   16.0513   -5.1374  -13.5682 O   0  0  0  0  0  0  0  0  0  0  0  0
  2  4  1  0
  2  1  1  6
  3  2  1  0
  4  6  1  0
  4  5  1  1
  6 11  1  0
  6  7  2  0
  9  8  1  0
 10  9  1  6
 10 12  1  0
 11 10  1  0
 12 13  2  0
 15 14  1  0
 15 16  2  0
 17 15  1  0
 18 17  1  0
 19 18  1  0
 20 19  1  0
 21 20  1  1
 21 23  1  0
 22 12  1  0
 22 21  1  0
 23 25  1  0
 24 23  2  0
M  END
$$$$
