LMR.pdb
     RDKit          3D

 28 27  0  0  1  0  0  0  0  0999 V2000
   19.2887  -24.2998   -8.8600 C   0  0  0  0  0  0  0  0  0  0  0  0
   17.9666  -24.6914   -8.2821 C   0  0  1  0  0  0  0  0  0  0  0  0
   17.3212  -25.8148   -9.0578 C   0  0  0  0  0  0  0  0  0  0  0  0
   18.0375  -25.0783   -6.8344 C   0  0  0  0  0  0  0  0  0  0  0  0
   16.7153  -25.5024   -6.2424 C   0  0  2  0  0  0  0  0  0  0  0  0
   15.6970  -24.4737   -6.4398 N   0  0  0  0  0  0  0  0  0  0  0  0
   16.9435  -25.5690   -4.7579 C   0  0  0  0  0  0  0  0  0  0  0  0
   17.9478  -26.1322   -4.2519 O   0  0  0  0  0  0  0  0  0  0  0  0
   15.5666  -21.1670   -0.6882 C   0  0  0  0  0  0  0  0  0  0  0  0
   15.3927  -22.4800    0.5427 S   0  0  0  0  0  0  0  0  0  0  0  0
   15.8764  -24.0652   -0.2011 C   0  0  0  0  0  0  0  0  0  0  0  0
   15.5657  -23.9841   -1.6742 C   0  0  0  0  0  0  0  0  0  0  0  0
   16.1799  -25.1308   -2.4565 C   0  0  2  0  0  0  0  0  0  0  0  0
   16.0126  -24.9856   -3.8645 N   0  0  0  0  0  0  0  0  0  0  0  0
   15.5743  -26.3779   -1.9604 C   0  0  0  0  0  0  0  0  0  0  0  0
   14.3815  -26.7212   -2.2216 O   0  0  0  0  0  0  0  0  0  0  0  0
   18.6772  -29.8841   -5.5592 N   0  0  0  0  0  0  0  0  0  0  0  0
   17.3738  -30.2833   -5.9567 C   0  0  0  0  0  0  0  0  0  0  0  0
   17.0420  -30.1511   -7.1756 N   0  0  0  0  0  0  0  0  0  0  0  0
   16.4809  -30.8148   -4.9900 N   0  0  0  0  0  0  0  0  0  0  0  0
   16.7495  -30.7500   -3.5913 C   0  0  0  0  0  0  0  0  0  0  0  0
   16.0819  -29.5922   -2.8848 C   0  0  0  0  0  0  0  0  0  0  0  0
   16.3904  -29.6062   -1.4194 C   0  0  0  0  0  0  0  0  0  0  0  0
   15.7662  -28.5005   -0.6293 C   0  0  2  0  0  0  0  0  0  0  0  0
   16.3391  -27.2497   -1.1536 N   0  0  0  0  0  0  0  0  0  0  0  0
   16.0242  -28.5339    0.8102 C   0  0  0  0  0  0  0  0  0  0  0  0
   17.0884  -28.0757    1.3211 O   0  0  0  0  0  0  0  0  0  0  0  0
   15.0926  -29.0775    1.6712 O   0  0  0  0  0  0  0  0  0  0  0  0
  2  1  1  6
  2  3  1  0
  4  2  1  0
  5  4  1  0
  5  6  1  1
  7  8  2  0
  7  5  1  0
  9 10  1  0
 10 11  1  0
 11 12  1  0
 13 12  1  1
 13 15  1  0
 13 14  1  0
 14  7  1  0
 15 16  2  0
 18 17  1  0
 18 20  1  0
 19 18  2  0
 20 21  1  0
 21 22  1  0
 22 23  1  0
 24 23  1  6
 24 26  1  0
 25 24  1  0
 25 15  1  0
 26 27  2  0
 26 28  1  0
M  END
$$$$
