LMR.pdb
     RDKit          3D

 28 27  0  0  1  0  0  0  0  0999 V2000
   18.4312  -18.2392  -12.5909 C   0  0  0  0  0  0  0  0  0  0  0  0
   19.1977  -19.5198  -12.6787 C   0  0  1  0  0  0  0  0  0  0  0  0
   18.3366  -20.6619  -13.1626 C   0  0  0  0  0  0  0  0  0  0  0  0
   20.4174  -19.4287  -13.5472 C   0  0  0  0  0  0  0  0  0  0  0  0
   21.1763  -20.7262  -13.6854 C   0  0  2  0  0  0  0  0  0  0  0  0
   20.9522  -21.5917  -12.5300 N   0  0  0  0  0  0  0  0  0  0  0  0
   22.6304  -20.3479  -13.6340 C   0  0  0  0  0  0  0  0  0  0  0  0
   23.1111  -19.4118  -14.3228 O   0  0  0  0  0  0  0  0  0  0  0  0
   29.5726  -21.1676   -9.9708 C   0  0  0  0  0  0  0  0  0  0  0  0
   27.8423  -21.6775  -10.0949 S   0  0  0  0  0  0  0  0  0  0  0  0
   27.1056  -20.9376  -11.5814 C   0  0  0  0  0  0  0  0  0  0  0  0
   25.6426  -21.3018  -11.5871 C   0  0  0  0  0  0  0  0  0  0  0  0
   24.9134  -20.7392  -12.7937 C   0  0  2  0  0  0  0  0  0  0  0  0
   23.5227  -21.0506  -12.7883 N   0  0  0  0  0  0  0  0  0  0  0  0
   25.5847  -21.2588  -13.9969 C   0  0  0  0  0  0  0  0  0  0  0  0
   25.4721  -22.4595  -14.3896 O   0  0  0  0  0  0  0  0  0  0  0  0
   30.4892  -20.0134  -19.7078 N   0  0  0  0  0  0  0  0  0  0  0  0
   29.6000  -19.4490  -20.6603 C   0  0  0  0  0  0  0  0  0  0  0  0
   29.7739  -19.7180  -21.8894 N   0  0  0  0  0  0  0  0  0  0  0  0
   28.5481  -18.6046  -20.2190 N   0  0  0  0  0  0  0  0  0  0  0  0
   28.1911  -18.4917  -18.8433 C   0  0  0  0  0  0  0  0  0  0  0  0
   27.8426  -19.8064  -18.1833 C   0  0  0  0  0  0  0  0  0  0  0  0
   27.3398  -19.5917  -16.7891 C   0  0  0  0  0  0  0  0  0  0  0  0
   26.9744  -20.8380  -16.0477 C   0  0  2  0  0  0  0  0  0  0  0  0
   26.3977  -20.3973  -14.7668 N   0  0  0  0  0  0  0  0  0  0  0  0
   28.0874  -21.7371  -15.7436 C   0  0  0  0  0  0  0  0  0  0  0  0
   28.5471  -22.5603  -16.5890 O   0  0  0  0  0  0  0  0  0  0  0  0
   28.6816  -21.7116  -14.4982 O   0  0  0  0  0  0  0  0  0  0  0  0
  2  1  1  6
  2  3  1  0
  4  2  1  0
  5  4  1  0
  5  6  1  1
  7  8  2  0
  7  5  1  0
  9 10  1  0
 10 11  1  0
 11 12  1  0
 13 12  1  1
 13 15  1  0
 13 14  1  0
 14  7  1  0
 15 16  2  0
 18 17  1  0
 18 20  1  0
 19 18  2  0
 20 21  1  0
 21 22  1  0
 22 23  1  0
 24 23  1  1
 24 26  1  0
 25 24  1  0
 25 15  1  0
 26 27  2  0
 26 28  1  0
M  END
$$$$
