LMR.pdb
     RDKit          3D

 28 27  0  0  1  0  0  0  0  0999 V2000
   29.5880  -21.9940  -15.9651 C   0  0  0  0  0  0  0  0  0  0  0  0
   28.3755  -21.1688  -15.6753 C   0  0  1  0  0  0  0  0  0  0  0  0
   27.4996  -21.0038  -16.8942 C   0  0  0  0  0  0  0  0  0  0  0  0
   27.5434  -21.7036  -14.5475 C   0  0  0  0  0  0  0  0  0  0  0  0
   26.3015  -20.8959  -14.2584 C   0  0  2  0  0  0  0  0  0  0  0  0
   26.6092  -19.4700  -14.1768 N   0  0  0  0  0  0  0  0  0  0  0  0
   25.8737  -21.2992  -12.8747 C   0  0  0  0  0  0  0  0  0  0  0  0
   25.5646  -22.4820  -12.5795 O   0  0  0  0  0  0  0  0  0  0  0  0
   28.0847  -19.6345   -6.9365 C   0  0  0  0  0  0  0  0  0  0  0  0
   26.3141  -19.2783   -6.8512 S   0  0  0  0  0  0  0  0  0  0  0  0
   25.4393  -20.2964   -8.0751 C   0  0  0  0  0  0  0  0  0  0  0  0
   25.8864  -19.8408   -9.4410 C   0  0  0  0  0  0  0  0  0  0  0  0
   25.3103  -20.6998  -10.5521 C   0  0  2  0  0  0  0  0  0  0  0  0
   25.8049  -20.3366  -11.8384 N   0  0  0  0  0  0  0  0  0  0  0  0
   23.8437  -20.5897  -10.4798 C   0  0  0  0  0  0  0  0  0  0  0  0
   23.1742  -19.7747  -11.1843 O   0  0  0  0  0  0  0  0  0  0  0  0
   18.5215  -26.1011   -6.8219 N   0  0  0  0  0  0  0  0  0  0  0  0
   17.6078  -25.0147   -6.8557 C   0  0  0  0  0  0  0  0  0  0  0  0
   16.3628  -25.2660   -6.8482 N   0  0  0  0  0  0  0  0  0  0  0  0
   18.1042  -23.6858   -6.8978 N   0  0  0  0  0  0  0  0  0  0  0  0
   19.4884  -23.3975   -7.0812 C   0  0  0  0  0  0  0  0  0  0  0  0
   19.7827  -22.4919   -8.2554 C   0  0  0  0  0  0  0  0  0  0  0  0
   21.2547  -22.2553   -8.3965 C   0  0  0  0  0  0  0  0  0  0  0  0
   21.6543  -21.4324   -9.5796 C   0  0  2  0  0  0  0  0  0  0  0  0
   23.1265  -21.4215   -9.5912 N   0  0  0  0  0  0  0  0  0  0  0  0
   21.2035  -20.0410   -9.5581 C   0  0  0  0  0  0  0  0  0  0  0  0
   21.8536  -19.1244   -8.9744 O   0  0  0  0  0  0  0  0  0  0  0  0
   20.0301  -19.6805  -10.1891 O   0  0  0  0  0  0  0  0  0  0  0  0
  2  1  1  6
  2  3  1  0
  4  2  1  0
  5  4  1  0
  5  6  1  1
  7  8  2  0
  7  5  1  0
  9 10  1  0
 10 11  1  0
 11 12  1  0
 13 12  1  1
 13 15  1  0
 13 14  1  0
 14  7  1  0
 15 16  2  0
 18 17  1  0
 18 20  1  0
 19 18  2  0
 20 21  1  0
 21 22  1  0
 22 23  1  0
 24 23  1  1
 24 26  1  0
 25 24  1  0
 25 15  1  0
 26 27  2  0
 26 28  1  0
M  END
$$$$
