LMR.pdb
     RDKit          3D

 28 27  0  0  1  0  0  0  0  0999 V2000
   13.3320  -23.5509    0.8749 C   0  0  0  0  0  0  0  0  0  0  0  0
   14.2259  -22.4182    0.4836 C   0  0  1  0  0  0  0  0  0  0  0  0
   13.5674  -21.4978   -0.5161 C   0  0  0  0  0  0  0  0  0  0  0  0
   14.7071  -21.6056    1.6491 C   0  0  0  0  0  0  0  0  0  0  0  0
   15.5534  -20.4159    1.2659 C   0  0  2  0  0  0  0  0  0  0  0  0
   16.7895  -20.8390    0.6123 N   0  0  0  0  0  0  0  0  0  0  0  0
   15.9750  -19.7883    2.5654 C   0  0  0  0  0  0  0  0  0  0  0  0
   15.1474  -19.3815    3.4206 O   0  0  0  0  0  0  0  0  0  0  0  0
   21.5852  -19.1378    8.0078 C   0  0  0  0  0  0  0  0  0  0  0  0
   20.9477  -19.9330    6.5144 S   0  0  0  0  0  0  0  0  0  0  0  0
   19.4601  -19.0525    5.9561 C   0  0  0  0  0  0  0  0  0  0  0  0
   19.0191  -19.6898    4.6629 C   0  0  0  0  0  0  0  0  0  0  0  0
   17.7472  -19.0661    4.1176 C   0  0  2  0  0  0  0  0  0  0  0  0
   17.3486  -19.6333    2.8723 N   0  0  0  0  0  0  0  0  0  0  0  0
   17.9784  -17.6160    4.0081 C   0  0  0  0  0  0  0  0  0  0  0  0
   18.6716  -17.0924    3.0841 O   0  0  0  0  0  0  0  0  0  0  0  0
   11.9563  -11.9949    4.4925 N   0  0  0  0  0  0  0  0  0  0  0  0
   12.5767  -12.8468    3.5409 C   0  0  0  0  0  0  0  0  0  0  0  0
   11.8645  -13.3456    2.6150 N   0  0  0  0  0  0  0  0  0  0  0  0
   13.9656  -13.1185    3.6476 N   0  0  0  0  0  0  0  0  0  0  0  0
   14.7332  -12.7171    4.7800 C   0  0  0  0  0  0  0  0  0  0  0  0
   16.1628  -13.2085    4.7656 C   0  0  0  0  0  0  0  0  0  0  0  0
   16.2174  -14.7051    4.7826 C   0  0  0  0  0  0  0  0  0  0  0  0
   17.5913  -15.2887    4.8728 C   0  0  2  0  0  0  0  0  0  0  0  0
   17.4106  -16.7468    4.9662 N   0  0  0  0  0  0  0  0  0  0  0  0
   18.3781  -14.8670    6.0316 C   0  0  0  0  0  0  0  0  0  0  0  0
   18.5947  -15.6283    7.0199 O   0  0  0  0  0  0  0  0  0  0  0  0
   18.9194  -13.5983    6.0801 O   0  0  0  0  0  0  0  0  0  0  0  0
  2  1  1  1
  2  3  1  0
  4  2  1  0
  5  4  1  0
  5  6  1  1
  7  8  2  0
  7  5  1  0
  9 10  1  0
 10 11  1  0
 11 12  1  0
 13 12  1  6
 13 15  1  0
 13 14  1  0
 14  7  1  0
 15 16  2  0
 18 17  1  0
 18 20  1  0
 19 18  2  0
 20 21  1  0
 21 22  1  0
 22 23  1  0
 24 23  1  1
 24 26  1  0
 25 24  1  0
 25 15  1  0
 26 27  2  0
 26 28  1  0
M  END
$$$$
