LMR.pdb
     RDKit          3D

 28 27  0  0  1  0  0  0  0  0999 V2000
   29.4772  -20.1759  -17.8084 C   0  0  0  0  0  0  0  0  0  0  0  0
   28.7511  -19.3224  -16.8188 C   0  0  1  0  0  0  0  0  0  0  0  0
   29.1153  -17.8634  -16.9560 C   0  0  0  0  0  0  0  0  0  0  0  0
   27.2590  -19.4598  -16.8911 C   0  0  0  0  0  0  0  0  0  0  0  0
   26.5157  -18.7026  -15.8175 C   0  0  2  0  0  0  0  0  0  0  0  0
   27.4373  -17.9425  -14.9767 N   0  0  0  0  0  0  0  0  0  0  0  0
   25.9223  -19.7547  -14.9223 C   0  0  0  0  0  0  0  0  0  0  0  0
   25.4027  -20.8092  -15.3692 O   0  0  0  0  0  0  0  0  0  0  0  0
   27.0555  -20.1365   -8.6610 C   0  0  0  0  0  0  0  0  0  0  0  0
   25.5311  -21.1086   -8.6431 S   0  0  0  0  0  0  0  0  0  0  0  0
   25.0029  -21.4248  -10.3522 C   0  0  0  0  0  0  0  0  0  0  0  0
   25.5626  -20.3169  -11.2080 C   0  0  0  0  0  0  0  0  0  0  0  0
   25.2317  -20.5012  -12.6780 C   0  0  2  0  0  0  0  0  0  0  0  0
   25.9315  -19.5855  -13.5165 N   0  0  0  0  0  0  0  0  0  0  0  0
   23.7724  -20.3677  -12.8220 C   0  0  0  0  0  0  0  0  0  0  0  0
   23.1763  -19.2483  -12.8330 O   0  0  0  0  0  0  0  0  0  0  0  0
   17.7761  -26.2707  -15.1558 N   0  0  0  0  0  0  0  0  0  0  0  0
   19.1833  -26.2158  -15.3385 C   0  0  0  0  0  0  0  0  0  0  0  0
   19.7980  -27.2817  -15.6536 N   0  0  0  0  0  0  0  0  0  0  0  0
   19.8624  -24.9818  -15.1649 N   0  0  0  0  0  0  0  0  0  0  0  0
   19.1672  -23.7561  -14.9481 C   0  0  0  0  0  0  0  0  0  0  0  0
   20.0628  -22.5408  -14.8701 C   0  0  0  0  0  0  0  0  0  0  0  0
   21.0976  -22.7030  -13.7997 C   0  0  0  0  0  0  0  0  0  0  0  0
   21.5182  -21.4354  -13.1268 C   0  0  2  0  0  0  0  0  0  0  0  0
   22.9776  -21.5280  -12.9563 N   0  0  0  0  0  0  0  0  0  0  0  0
   20.9343  -21.2017  -11.8062 C   0  0  0  0  0  0  0  0  0  0  0  0
   21.5580  -21.4518  -10.7329 O   0  0  0  0  0  0  0  0  0  0  0  0
   19.6579  -20.6892  -11.6910 O   0  0  0  0  0  0  0  0  0  0  0  0
  2  1  1  6
  2  3  1  0
  4  2  1  0
  5  4  1  0
  5  6  1  1
  7  8  2  0
  7  5  1  0
  9 10  1  0
 10 11  1  0
 11 12  1  0
 13 12  1  1
 13 15  1  0
 13 14  1  0
 14  7  1  0
 15 16  2  0
 18 17  1  0
 18 20  1  0
 19 18  2  0
 20 21  1  0
 21 22  1  0
 22 23  1  0
 24 23  1  1
 24 26  1  0
 25 24  1  0
 25 15  1  0
 26 27  2  0
 26 28  1  0
M  END
$$$$
