LMR.pdb
     RDKit          3D

 28 27  0  0  1  0  0  0  0  0999 V2000
   18.3602  -22.6847   -9.0988 C   0  0  0  0  0  0  0  0  0  0  0  0
   19.4856  -22.7387   -8.1161 C   0  0  1  0  0  0  0  0  0  0  0  0
   19.9822  -24.1486   -7.9023 C   0  0  0  0  0  0  0  0  0  0  0  0
   20.6472  -21.8654   -8.4883 C   0  0  0  0  0  0  0  0  0  0  0  0
   21.8238  -21.9677   -7.5481 C   0  0  2  0  0  0  0  0  0  0  0  0
   21.5033  -21.3984   -6.2414 N   0  0  0  0  0  0  0  0  0  0  0  0
   22.8827  -21.0744   -8.1321 C   0  0  0  0  0  0  0  0  0  0  0  0
   22.6233  -19.9408   -8.6113 O   0  0  0  0  0  0  0  0  0  0  0  0
   28.4152  -21.1382   -5.5846 C   0  0  0  0  0  0  0  0  0  0  0  0
   28.1772  -19.4552   -6.2011 S   0  0  0  0  0  0  0  0  0  0  0  0
   26.6115  -19.3697   -7.1182 C   0  0  0  0  0  0  0  0  0  0  0  0
   26.5142  -20.6174   -7.9589 C   0  0  0  0  0  0  0  0  0  0  0  0
   25.2293  -20.6699   -8.7655 C   0  0  2  0  0  0  0  0  0  0  0  0
   24.2352  -21.4926   -8.1603 N   0  0  0  0  0  0  0  0  0  0  0  0
   25.5759  -21.1377  -10.1180 C   0  0  0  0  0  0  0  0  0  0  0  0
   25.4678  -22.3479  -10.4819 O   0  0  0  0  0  0  0  0  0  0  0  0
   21.3149  -18.3701  -16.0478 N   0  0  0  0  0  0  0  0  0  0  0  0
   22.1182  -19.3426  -16.7001 C   0  0  0  0  0  0  0  0  0  0  0  0
   22.0889  -19.4049  -17.9683 N   0  0  0  0  0  0  0  0  0  0  0  0
   22.9265  -20.2144  -15.9250 N   0  0  0  0  0  0  0  0  0  0  0  0
   22.8668  -20.2400  -14.5007 C   0  0  0  0  0  0  0  0  0  0  0  0
   24.0318  -20.9449  -13.8440 C   0  0  0  0  0  0  0  0  0  0  0  0
   24.9274  -19.9682  -13.1463 C   0  0  0  0  0  0  0  0  0  0  0  0
   26.1362  -20.5659  -12.4998 C   0  0  2  0  0  0  0  0  0  0  0  0
   26.0534  -20.2126  -11.0730 N   0  0  0  0  0  0  0  0  0  0  0  0
   27.4216  -20.0793  -13.0003 C   0  0  0  0  0  0  0  0  0  0  0  0
   27.9446  -18.9996  -12.5949 O   0  0  0  0  0  0  0  0  0  0  0  0
   28.1164  -20.8009  -13.9498 O   0  0  0  0  0  0  0  0  0  0  0  0
  2  1  1  6
  2  3  1  0
  4  2  1  0
  5  4  1  0
  5  6  1  1
  7  8  2  0
  7  5  1  0
  9 10  1  0
 10 11  1  0
 11 12  1  0
 13 12  1  1
 13 15  1  0
 13 14  1  0
 14  7  1  0
 15 16  2  0
 18 17  1  0
 18 20  1  0
 19 18  2  0
 20 21  1  0
 21 22  1  0
 22 23  1  0
 24 23  1  6
 24 26  1  0
 25 24  1  0
 25 15  1  0
 26 27  2  0
 26 28  1  0
M  END
$$$$
