LMR.pdb
     RDKit          3D

 28 27  0  0  1  0  0  0  0  0999 V2000
   29.7114  -20.3769  -17.9746 C   0  0  0  0  0  0  0  0  0  0  0  0
   28.8748  -19.4931  -17.1063 C   0  0  1  0  0  0  0  0  0  0  0  0
   27.8562  -18.7160  -17.9055 C   0  0  0  0  0  0  0  0  0  0  0  0
   28.1700  -20.2296  -16.0057 C   0  0  0  0  0  0  0  0  0  0  0  0
   27.2918  -19.3574  -15.1417 C   0  0  2  0  0  0  0  0  0  0  0  0
   28.0610  -18.2723  -14.5374 N   0  0  0  0  0  0  0  0  0  0  0  0
   26.8570  -20.2327  -13.9992 C   0  0  0  0  0  0  0  0  0  0  0  0
   26.3733  -21.3807  -14.1721 O   0  0  0  0  0  0  0  0  0  0  0  0
   27.0599  -18.5936   -7.4521 C   0  0  0  0  0  0  0  0  0  0  0  0
   27.0502  -20.3977   -7.5724 S   0  0  0  0  0  0  0  0  0  0  0  0
   26.2435  -20.8896   -9.1238 C   0  0  0  0  0  0  0  0  0  0  0  0
   26.9427  -20.1626  -10.2444 C   0  0  0  0  0  0  0  0  0  0  0  0
   26.3467  -20.4873  -11.6022 C   0  0  2  0  0  0  0  0  0  0  0  0
   26.9825  -19.7798  -12.6635 N   0  0  0  0  0  0  0  0  0  0  0  0
   24.9060  -20.1906  -11.5342 C   0  0  0  0  0  0  0  0  0  0  0  0
   24.4329  -19.0200  -11.6544 O   0  0  0  0  0  0  0  0  0  0  0  0
   19.8727  -25.5712  -14.7389 N   0  0  0  0  0  0  0  0  0  0  0  0
   19.3216  -24.4866  -15.4712 C   0  0  0  0  0  0  0  0  0  0  0  0
   18.1864  -24.6375  -16.0206 N   0  0  0  0  0  0  0  0  0  0  0  0
   20.0475  -23.2711  -15.5712 N   0  0  0  0  0  0  0  0  0  0  0  0
   21.2993  -23.0780  -14.9168 C   0  0  0  0  0  0  0  0  0  0  0  0
   21.2169  -22.2546  -13.6517 C   0  0  0  0  0  0  0  0  0  0  0  0
   22.5707  -22.0765  -13.0366 C   0  0  0  0  0  0  0  0  0  0  0  0
   22.6132  -21.1696  -11.8483 C   0  0  2  0  0  0  0  0  0  0  0  0
   23.9878  -21.2440  -11.3264 N   0  0  0  0  0  0  0  0  0  0  0  0
   21.7073  -21.5232  -10.7556 C   0  0  0  0  0  0  0  0  0  0  0  0
   22.0819  -22.2018   -9.7542 O   0  0  0  0  0  0  0  0  0  0  0  0
   20.3887  -21.1166  -10.7863 O   0  0  0  0  0  0  0  0  0  0  0  0
  2  1  1  6
  2  3  1  0
  4  2  1  0
  5  4  1  0
  5  6  1  1
  7  8  2  0
  7  5  1  0
  9 10  1  0
 10 11  1  0
 11 12  1  0
 13 12  1  1
 13 15  1  0
 13 14  1  0
 14  7  1  0
 15 16  2  0
 18 17  1  0
 18 20  1  0
 19 18  2  0
 20 21  1  0
 21 22  1  0
 22 23  1  0
 24 23  1  6
 24 26  1  0
 25 24  1  0
 25 15  1  0
 26 27  2  0
 26 28  1  0
M  END
$$$$
