LMR.pdb
     RDKit          3D

 28 27  0  0  1  0  0  0  0  0999 V2000
   14.1420  -21.3222  -11.2729 C   0  0  0  0  0  0  0  0  0  0  0  0
   15.3011  -22.2665  -11.2707 C   0  0  1  0  0  0  0  0  0  0  0  0
   15.0198  -23.5085  -12.0822 C   0  0  0  0  0  0  0  0  0  0  0  0
   16.5781  -21.6472  -11.7566 C   0  0  0  0  0  0  0  0  0  0  0  0
   17.7269  -22.6181  -11.8834 C   0  0  2  0  0  0  0  0  0  0  0  0
   18.0732  -23.1947  -10.5865 N   0  0  0  0  0  0  0  0  0  0  0  0
   18.9122  -21.7865  -12.2881 C   0  0  0  0  0  0  0  0  0  0  0  0
   18.9206  -21.0814  -13.3295 O   0  0  0  0  0  0  0  0  0  0  0  0
   25.8554  -21.8314  -10.7493 C   0  0  0  0  0  0  0  0  0  0  0  0
   24.8421  -20.4969  -10.0700 S   0  0  0  0  0  0  0  0  0  0  0  0
   23.4749  -20.1429  -11.2125 C   0  0  0  0  0  0  0  0  0  0  0  0
   22.3780  -21.1357  -10.9223 C   0  0  0  0  0  0  0  0  0  0  0  0
   21.2187  -21.0141  -11.8946 C   0  0  2  0  0  0  0  0  0  0  0  0
   20.0815  -21.7718  -11.4896 N   0  0  0  0  0  0  0  0  0  0  0  0
   21.7084  -21.4300  -13.2196 C   0  0  0  0  0  0  0  0  0  0  0  0
   21.7345  -22.6395  -13.6007 O   0  0  0  0  0  0  0  0  0  0  0  0
   25.4493  -25.9685  -17.9760 N   0  0  0  0  0  0  0  0  0  0  0  0
   26.2284  -25.5000  -16.8852 C   0  0  0  0  0  0  0  0  0  0  0  0
   27.3816  -25.9998  -16.7019 N   0  0  0  0  0  0  0  0  0  0  0  0
   25.7031  -24.4940  -16.0331 N   0  0  0  0  0  0  0  0  0  0  0  0
   24.3919  -23.9612  -16.2053 C   0  0  0  0  0  0  0  0  0  0  0  0
   24.0434  -22.8487  -15.2429 C   0  0  0  0  0  0  0  0  0  0  0  0
   22.6757  -22.3058  -15.5208 C   0  0  0  0  0  0  0  0  0  0  0  0
   22.5687  -20.8143  -15.4987 C   0  0  2  0  0  0  0  0  0  0  0  0
   22.1760  -20.4530  -14.1266 N   0  0  0  0  0  0  0  0  0  0  0  0
   21.5746  -20.2422  -16.4066 C   0  0  0  0  0  0  0  0  0  0  0  0
   21.8935  -19.5175  -17.3948 O   0  0  0  0  0  0  0  0  0  0  0  0
   20.2304  -20.4833  -16.2069 O   0  0  0  0  0  0  0  0  0  0  0  0
  2  1  1  6
  2  3  1  0
  4  2  1  0
  5  4  1  0
  5  6  1  1
  7  8  2  0
  7  5  1  0
  9 10  1  0
 10 11  1  0
 11 12  1  0
 13 12  1  1
 13 15  1  0
 13 14  1  0
 14  7  1  0
 15 16  2  0
 18 17  1  0
 18 20  1  0
 19 18  2  0
 20 21  1  0
 21 22  1  0
 22 23  1  0
 24 23  1  1
 24 26  1  0
 25 24  1  0
 25 15  1  0
 26 27  2  0
 26 28  1  0
M  END
$$$$
