LMR.pdb
     RDKit          3D

 28 27  0  0  1  0  0  0  0  0999 V2000
   29.8480  -23.2708  -16.8657 C   0  0  0  0  0  0  0  0  0  0  0  0
   29.3544  -21.9858  -16.2824 C   0  0  1  0  0  0  0  0  0  0  0  0
   29.2683  -20.8909  -17.3188 C   0  0  0  0  0  0  0  0  0  0  0  0
   28.0263  -22.1113  -15.5963 C   0  0  0  0  0  0  0  0  0  0  0  0
   27.5454  -20.8385  -14.9427 C   0  0  2  0  0  0  0  0  0  0  0  0
   28.6424  -20.1456  -14.2714 N   0  0  0  0  0  0  0  0  0  0  0  0
   26.6119  -21.2772  -13.8489 C   0  0  0  0  0  0  0  0  0  0  0  0
   25.6061  -22.0002  -14.0669 O   0  0  0  0  0  0  0  0  0  0  0  0
   26.7413  -18.9815   -7.5215 C   0  0  0  0  0  0  0  0  0  0  0  0
   26.0721  -20.6595   -7.4462 S   0  0  0  0  0  0  0  0  0  0  0  0
   25.3284  -21.0796   -9.0494 C   0  0  0  0  0  0  0  0  0  0  0  0
   26.3407  -20.7463  -10.1158 C   0  0  0  0  0  0  0  0  0  0  0  0
   25.8739  -21.1547  -11.5012 C   0  0  2  0  0  0  0  0  0  0  0  0
   26.8431  -20.8804  -12.5095 N   0  0  0  0  0  0  0  0  0  0  0  0
   24.6028  -20.4584  -11.7618 C   0  0  0  0  0  0  0  0  0  0  0  0
   24.5386  -19.2428  -12.1178 O   0  0  0  0  0  0  0  0  0  0  0  0
   18.5446  -22.1438  -17.3794 N   0  0  0  0  0  0  0  0  0  0  0  0
   19.3163  -20.9659  -17.5620 C   0  0  0  0  0  0  0  0  0  0  0  0
   18.9647  -20.1413  -18.4619 N   0  0  0  0  0  0  0  0  0  0  0  0
   20.4527  -20.7414  -16.7420 N   0  0  0  0  0  0  0  0  0  0  0  0
   20.8265  -21.6395  -15.6997 C   0  0  0  0  0  0  0  0  0  0  0  0
   20.7801  -21.0355  -14.3146 C   0  0  0  0  0  0  0  0  0  0  0  0
   22.0708  -21.2563  -13.5879 C   0  0  0  0  0  0  0  0  0  0  0  0
   22.1401  -20.6539  -12.2209 C   0  0  2  0  0  0  0  0  0  0  0  0
   23.3839  -21.1574  -11.6151 N   0  0  0  0  0  0  0  0  0  0  0  0
   21.0395  -21.0045  -11.3234 C   0  0  0  0  0  0  0  0  0  0  0  0
   21.1732  -21.8321  -10.3744 O   0  0  0  0  0  0  0  0  0  0  0  0
   19.7963  -20.4287  -11.4898 O   0  0  0  0  0  0  0  0  0  0  0  0
  2  1  1  6
  2  3  1  0
  4  2  1  0
  5  4  1  0
  5  6  1  1
  7  8  2  0
  7  5  1  0
  9 10  1  0
 10 11  1  0
 11 12  1  0
 13 12  1  1
 13 15  1  0
 13 14  1  0
 14  7  1  0
 15 16  2  0
 18 17  1  0
 18 20  1  0
 19 18  2  0
 20 21  1  0
 21 22  1  0
 22 23  1  0
 24 23  1  6
 24 26  1  0
 25 24  1  0
 25 15  1  0
 26 27  2  0
 26 28  1  0
M  END
$$$$
