LMR.pdb
     RDKit          3D

 28 27  0  0  1  0  0  0  0  0999 V2000
   27.0462  -18.4006  -16.3973 C   0  0  0  0  0  0  0  0  0  0  0  0
   28.0379  -19.1005  -15.5246 C   0  0  1  0  0  0  0  0  0  0  0  0
   29.1267  -18.1696  -15.0470 C   0  0  0  0  0  0  0  0  0  0  0  0
   27.4183  -19.7742  -14.3360 C   0  0  0  0  0  0  0  0  0  0  0  0
   28.4097  -20.4606  -13.4280 C   0  0  2  0  0  0  0  0  0  0  0  0
   28.8294  -21.7450  -13.9835 N   0  0  0  0  0  0  0  0  0  0  0  0
   27.6457  -20.7895  -12.1756 C   0  0  0  0  0  0  0  0  0  0  0  0
   26.7356  -21.6571  -12.1460 O   0  0  0  0  0  0  0  0  0  0  0  0
   26.9910  -20.4717   -4.5320 C   0  0  0  0  0  0  0  0  0  0  0  0
   27.9069  -19.9936   -6.0158 S   0  0  0  0  0  0  0  0  0  0  0  0
   26.7423  -19.7705   -7.3919 C   0  0  0  0  0  0  0  0  0  0  0  0
   27.5565  -19.4836   -8.6280 C   0  0  0  0  0  0  0  0  0  0  0  0
   27.1189  -20.3238   -9.8141 C   0  0  2  0  0  0  0  0  0  0  0  0
   27.9352  -20.1166  -10.9638 N   0  0  0  0  0  0  0  0  0  0  0  0
   25.7064  -20.0061  -10.0829 C   0  0  0  0  0  0  0  0  0  0  0  0
   25.3105  -18.8553  -10.4402 O   0  0  0  0  0  0  0  0  0  0  0  0
   19.3652  -19.5117  -12.6065 N   0  0  0  0  0  0  0  0  0  0  0  0
   20.0445  -19.3014  -13.8356 C   0  0  0  0  0  0  0  0  0  0  0  0
   19.3766  -18.9024  -14.8396 N   0  0  0  0  0  0  0  0  0  0  0  0
   21.4412  -19.5413  -13.9115 N   0  0  0  0  0  0  0  0  0  0  0  0
   22.1936  -20.0075  -12.7938 C   0  0  0  0  0  0  0  0  0  0  0  0
   22.5404  -21.4779  -12.8498 C   0  0  0  0  0  0  0  0  0  0  0  0
   23.3247  -21.8919  -11.6430 C   0  0  0  0  0  0  0  0  0  0  0  0
   23.3946  -20.8720  -10.5514 C   0  0  2  0  0  0  0  0  0  0  0  0
   24.7276  -21.0152   -9.9431 N   0  0  0  0  0  0  0  0  0  0  0  0
   22.4049  -21.0245   -9.4851 C   0  0  0  0  0  0  0  0  0  0  0  0
   22.7096  -21.4429   -8.3294 O   0  0  0  0  0  0  0  0  0  0  0  0
   21.0812  -20.7082   -9.7145 O   0  0  0  0  0  0  0  0  0  0  0  0
  2  1  1  1
  2  3  1  0
  4  2  1  0
  5  4  1  0
  5  6  1  6
  7  8  2  0
  7  5  1  0
  9 10  1  0
 10 11  1  0
 11 12  1  0
 13 12  1  1
 13 15  1  0
 13 14  1  0
 14  7  1  0
 15 16  2  0
 18 17  1  0
 18 20  1  0
 19 18  2  0
 20 21  1  0
 21 22  1  0
 22 23  1  0
 24 23  1  6
 24 26  1  0
 25 24  1  0
 25 15  1  0
 26 27  2  0
 26 28  1  0
M  END
$$$$
