LMR.pdb
     RDKit          3D

 28 27  0  0  1  0  0  0  0  0999 V2000
   28.6033  -18.8082   -6.2676 C   0  0  0  0  0  0  0  0  0  0  0  0
   28.4639  -19.9591   -7.2117 C   0  0  1  0  0  0  0  0  0  0  0  0
   28.6933  -21.2843   -6.5251 C   0  0  0  0  0  0  0  0  0  0  0  0
   27.1395  -19.9989   -7.9151 C   0  0  0  0  0  0  0  0  0  0  0  0
   27.0453  -21.0471   -8.9971 C   0  0  2  0  0  0  0  0  0  0  0  0
   28.3687  -21.3928   -9.5104 N   0  0  0  0  0  0  0  0  0  0  0  0
   26.3276  -20.3820  -10.1385 C   0  0  0  0  0  0  0  0  0  0  0  0
   25.2243  -19.7956   -9.9947 O   0  0  0  0  0  0  0  0  0  0  0  0
   29.2772  -18.9165  -15.5360 C   0  0  0  0  0  0  0  0  0  0  0  0
   27.6501  -18.3399  -16.0740 S   0  0  0  0  0  0  0  0  0  0  0  0
   26.4492  -18.6051  -14.7371 C   0  0  0  0  0  0  0  0  0  0  0  0
   27.1267  -19.4450  -13.6841 C   0  0  0  0  0  0  0  0  0  0  0  0
   26.2055  -19.7637  -12.5205 C   0  0  2  0  0  0  0  0  0  0  0  0
   26.8859  -20.3963  -11.4398 N   0  0  0  0  0  0  0  0  0  0  0  0
   25.1105  -20.5997  -13.0406 C   0  0  0  0  0  0  0  0  0  0  0  0
   25.1977  -21.8591  -13.1623 O   0  0  0  0  0  0  0  0  0  0  0  0
   19.6513  -22.6600  -10.1861 N   0  0  0  0  0  0  0  0  0  0  0  0
   18.7968  -23.3160  -11.1112 C   0  0  0  0  0  0  0  0  0  0  0  0
   18.1275  -24.3202  -10.7151 N   0  0  0  0  0  0  0  0  0  0  0  0
   18.7132  -22.8379  -12.4449 N   0  0  0  0  0  0  0  0  0  0  0  0
   19.4424  -21.6964  -12.8896 C   0  0  0  0  0  0  0  0  0  0  0  0
   20.9040  -21.7056  -12.5039 C   0  0  0  0  0  0  0  0  0  0  0  0
   21.6106  -20.5009  -13.0446 C   0  0  0  0  0  0  0  0  0  0  0  0
   22.7721  -20.7952  -13.9394 C   0  0  2  0  0  0  0  0  0  0  0  0
   23.8954  -19.9923  -13.4284 N   0  0  0  0  0  0  0  0  0  0  0  0
   22.5850  -20.4453  -15.3473 C   0  0  0  0  0  0  0  0  0  0  0  0
   21.6013  -20.8627  -16.0267 O   0  0  0  0  0  0  0  0  0  0  0  0
   23.4963  -19.6309  -15.9885 O   0  0  0  0  0  0  0  0  0  0  0  0
  2  1  1  1
  2  3  1  0
  4  2  1  0
  5  4  1  0
  5  6  1  6
  7  8  2  0
  7  5  1  0
  9 10  1  0
 10 11  1  0
 11 12  1  0
 13 12  1  6
 13 15  1  0
 13 14  1  0
 14  7  1  0
 15 16  2  0
 18 17  1  0
 18 20  1  0
 19 18  2  0
 20 21  1  0
 21 22  1  0
 22 23  1  0
 24 23  1  1
 24 26  1  0
 25 24  1  0
 25 15  1  0
 26 27  2  0
 26 28  1  0
M  END
$$$$
