EEK.pdb
     RDKit          3D

 28 27  0  0  1  0  0  0  0  0999 V2000
   20.7343  -13.3487  -16.4673 N   0  0  0  0  0  0  0  0  0  0  0  0
   20.3436  -12.1235  -17.1971 C   0  0  1  0  0  0  0  0  0  0  0  0
   18.8606  -12.0378  -17.0522 C   0  0  0  0  0  0  0  0  0  0  0  0
   18.3740  -12.1164  -15.6482 C   0  0  0  0  0  0  0  0  0  0  0  0
   16.8868  -11.8649  -15.6792 C   0  0  0  0  0  0  0  0  0  0  0  0
   16.4648  -10.7165  -15.6395 O   0  0  0  0  0  0  0  0  0  0  0  0
   21.0358  -10.9944  -16.5574 C   0  0  0  0  0  0  0  0  0  0  0  0
   20.9413  -10.8485  -15.2931 O   0  0  0  0  0  0  0  0  0  0  0  0
   16.0378  -12.9451  -15.7530 O   0  0  0  0  0  0  0  0  0  0  0  0
   21.8135  -10.0385  -17.2219 N   0  0  0  0  0  0  0  0  0  0  0  0
   22.5178   -8.9310  -16.5297 C   0  0  1  0  0  0  0  0  0  0  0  0
   23.7948   -8.7793  -17.2824 C   0  0  0  0  0  0  0  0  0  0  0  0
   24.7129   -7.6957  -16.8705 C   0  0  0  0  0  0  0  0  0  0  0  0
   26.0033   -7.7636  -17.6642 C   0  0  0  0  0  0  0  0  0  0  0  0
   26.9364   -8.5109  -17.2285 O   0  0  0  0  0  0  0  0  0  0  0  0
   21.6487   -7.7579  -16.4807 C   0  0  0  0  0  0  0  0  0  0  0  0
   21.0507   -7.3842  -17.5182 O   0  0  0  0  0  0  0  0  0  0  0  0
   26.2178   -7.0678  -18.8163 O   0  0  0  0  0  0  0  0  0  0  0  0
   21.4210   -6.9879  -15.3178 N   0  0  0  0  0  0  0  0  0  0  0  0
   20.6037   -5.7563  -15.3569 C   0  0  1  0  0  0  0  0  0  0  0  0
   19.2909   -6.0965  -14.7123 C   0  0  0  0  0  0  0  0  0  0  0  0
   18.0823   -5.8018  -15.5430 C   0  0  0  0  0  0  0  0  0  0  0  0
   16.7867   -6.2138  -14.8917 C   0  0  0  0  0  0  0  0  0  0  0  0
   15.6108   -6.0811  -15.8351 C   0  0  0  0  0  0  0  0  0  0  0  0
   14.4058   -6.6306  -15.2978 N   0  0  0  0  0  0  0  0  0  0  0  0
   21.3074   -4.6614  -14.6822 C   0  0  0  0  0  0  0  0  0  0  0  0
   21.0073   -3.3374  -14.9097 O   0  0  0  0  0  0  0  0  0  0  0  0
   22.2261   -4.9587  -13.8624 O   0  0  0  0  0  0  0  0  0  0  0  0
  2  7  1  0
  2  1  1  1
  3  2  1  0
  4  3  1  0
  5  4  1  0
  6  5  2  0
  7  8  2  0
  9  5  1  0
 10  7  1  0
 10 11  1  0
 11 12  1  6
 12 13  1  0
 13 14  1  0
 14 18  1  0
 15 14  2  0
 16 17  2  0
 16 11  1  0
 19 16  1  0
 20 19  1  0
 20 21  1  1
 22 21  1  0
 23 22  1  0
 24 23  1  0
 25 24  1  0
 26 27  1  0
 26 20  1  0
 28 26  2  0
M  END
$$$$
