EEK.pdb
     RDKit          3D

 28 27  0  0  1  0  0  0  0  0999 V2000
   17.8827  -11.2718  -14.7674 N   0  0  0  0  0  0  0  0  0  0  0  0
   17.5187   -9.8392  -14.8056 C   0  0  1  0  0  0  0  0  0  0  0  0
   16.0478   -9.8158  -15.0582 C   0  0  0  0  0  0  0  0  0  0  0  0
   15.6544  -10.2059  -16.4392 C   0  0  0  0  0  0  0  0  0  0  0  0
   14.2176   -9.7859  -16.6267 C   0  0  0  0  0  0  0  0  0  0  0  0
   13.4341  -10.5387  -17.1904 O   0  0  0  0  0  0  0  0  0  0  0  0
   17.8725   -9.2635  -13.4992 C   0  0  0  0  0  0  0  0  0  0  0  0
   17.6744   -9.9556  -12.4454 O   0  0  0  0  0  0  0  0  0  0  0  0
   13.8241   -8.5556  -16.1527 O   0  0  0  0  0  0  0  0  0  0  0  0
   18.4248   -7.9933  -13.2957 N   0  0  0  0  0  0  0  0  0  0  0  0
   18.7205   -7.4343  -11.9534 C   0  0  1  0  0  0  0  0  0  0  0  0
   19.7870   -6.4237  -12.2020 C   0  0  0  0  0  0  0  0  0  0  0  0
   21.1094   -6.9128  -12.6477 C   0  0  0  0  0  0  0  0  0  0  0  0
   22.0891   -5.7612  -12.7642 C   0  0  0  0  0  0  0  0  0  0  0  0
   22.5855   -5.5099  -13.9085 O   0  0  0  0  0  0  0  0  0  0  0  0
   17.4853   -6.9407  -11.3497 C   0  0  0  0  0  0  0  0  0  0  0  0
   16.6741   -6.2827  -12.0443 O   0  0  0  0  0  0  0  0  0  0  0  0
   22.4670   -4.9827  -11.7113 O   0  0  0  0  0  0  0  0  0  0  0  0
   17.1209   -7.1554  -10.0011 N   0  0  0  0  0  0  0  0  0  0  0  0
   15.9668   -6.4582   -9.3944 C   0  0  1  0  0  0  0  0  0  0  0  0
   14.9783   -7.5229   -9.0148 C   0  0  0  0  0  0  0  0  0  0  0  0
   13.6723   -7.0165   -8.4902 C   0  0  0  0  0  0  0  0  0  0  0  0
   12.6819   -8.1095   -8.1790 C   0  0  0  0  0  0  0  0  0  0  0  0
   11.3710   -7.5564   -7.6632 C   0  0  0  0  0  0  0  0  0  0  0  0
   10.4111   -8.5780   -7.3840 N   0  0  0  0  0  0  0  0  0  0  0  0
   16.4075   -5.6512   -8.2526 C   0  0  0  0  0  0  0  0  0  0  0  0
   15.6969   -4.5639   -7.7966 O   0  0  0  0  0  0  0  0  0  0  0  0
   17.4862   -5.9761   -7.6737 O   0  0  0  0  0  0  0  0  0  0  0  0
  2  7  1  0
  2  1  1  1
  3  2  1  0
  4  3  1  0
  5  4  1  0
  6  5  2  0
  7  8  2  0
  9  5  1  0
 10  7  1  0
 10 11  1  0
 11 12  1  6
 12 13  1  0
 13 14  1  0
 14 18  1  0
 15 14  2  0
 16 17  2  0
 16 11  1  0
 19 16  1  0
 20 19  1  0
 20 21  1  1
 22 21  1  0
 23 22  1  0
 24 23  1  0
 25 24  1  0
 26 27  1  0
 26 20  1  0
 28 26  2  0
M  END
$$$$
