EEK.pdb
     RDKit          3D

 28 27  0  0  1  0  0  0  0  0999 V2000
   13.6555  -17.9528    5.0749 N   0  0  0  0  0  0  0  0  0  0  0  0
   14.6287  -18.9560    5.5575 C   0  0  1  0  0  0  0  0  0  0  0  0
   15.4250  -19.3389    4.3546 C   0  0  0  0  0  0  0  0  0  0  0  0
   14.6782  -20.1490    3.3545 C   0  0  0  0  0  0  0  0  0  0  0  0
   15.6123  -20.3947    2.1956 C   0  0  0  0  0  0  0  0  0  0  0  0
   15.1920  -20.3095    1.0491 O   0  0  0  0  0  0  0  0  0  0  0  0
   15.4500  -18.3063    6.5902 C   0  0  0  0  0  0  0  0  0  0  0  0
   15.3766  -17.0401    6.7315 O   0  0  0  0  0  0  0  0  0  0  0  0
   16.9246  -20.7099    2.4631 O   0  0  0  0  0  0  0  0  0  0  0  0
   16.3278  -18.9638    7.4604 N   0  0  0  0  0  0  0  0  0  0  0  0
   17.0574  -18.2813    8.5576 C   0  0  1  0  0  0  0  0  0  0  0  0
   17.3239  -19.3607    9.5498 C   0  0  0  0  0  0  0  0  0  0  0  0
   16.4858  -19.3997   10.7675 C   0  0  0  0  0  0  0  0  0  0  0  0
   16.6690  -20.7173   11.4954 C   0  0  0  0  0  0  0  0  0  0  0  0
   17.4464  -21.5833   10.9811 O   0  0  0  0  0  0  0  0  0  0  0  0
   18.2268  -17.5970    8.0116 C   0  0  0  0  0  0  0  0  0  0  0  0
   18.7684  -18.0305    6.9665 O   0  0  0  0  0  0  0  0  0  0  0  0
   16.0461  -21.0242   12.6682 O   0  0  0  0  0  0  0  0  0  0  0  0
   18.8128  -16.4469    8.5871 N   0  0  0  0  0  0  0  0  0  0  0  0
   20.0306  -15.8341    8.0145 C   0  0  1  0  0  0  0  0  0  0  0  0
   19.9148  -14.3560    8.2523 C   0  0  0  0  0  0  0  0  0  0  0  0
   21.0559  -13.5398    7.7334 C   0  0  0  0  0  0  0  0  0  0  0  0
   20.9621  -12.0773    8.0868 C   0  0  0  0  0  0  0  0  0  0  0  0
   22.1384  -11.2887    7.5530 C   0  0  0  0  0  0  0  0  0  0  0  0
   22.0270   -9.8871    7.8097 N   0  0  0  0  0  0  0  0  0  0  0  0
   21.2267  -16.4214    8.6255 C   0  0  0  0  0  0  0  0  0  0  0  0
   22.3998  -16.6043    7.9287 O   0  0  0  0  0  0  0  0  0  0  0  0
   21.1645  -16.7719    9.8411 O   0  0  0  0  0  0  0  0  0  0  0  0
  2  7  1  0
  2  1  1  6
  3  2  1  0
  4  3  1  0
  5  4  1  0
  6  5  2  0
  7  8  2  0
  9  5  1  0
 10  7  1  0
 10 11  1  0
 11 12  1  1
 12 13  1  0
 13 14  1  0
 14 18  1  0
 15 14  2  0
 16 17  2  0
 16 11  1  0
 19 16  1  0
 20 19  1  0
 20 21  1  1
 22 21  1  0
 23 22  1  0
 24 23  1  0
 25 24  1  0
 26 27  1  0
 26 20  1  0
 28 26  2  0
M  END
$$$$
