EEK.pdb
     RDKit          3D

 28 27  0  0  1  0  0  0  0  0999 V2000
   25.8186  -17.4929  -16.3729 N   0  0  0  0  0  0  0  0  0  0  0  0
   24.4139  -17.5012  -16.8345 C   0  0  1  0  0  0  0  0  0  0  0  0
   24.4919  -17.5336  -18.3246 C   0  0  0  0  0  0  0  0  0  0  0  0
   25.8591  -17.3261  -18.8739 C   0  0  0  0  0  0  0  0  0  0  0  0
   25.7564  -17.4399  -20.3748 C   0  0  0  0  0  0  0  0  0  0  0  0
   26.7757  -17.5136  -21.0487 O   0  0  0  0  0  0  0  0  0  0  0  0
   23.7788  -18.7062  -16.2798 C   0  0  0  0  0  0  0  0  0  0  0  0
   22.6248  -19.0474  -16.7050 O   0  0  0  0  0  0  0  0  0  0  0  0
   24.5065  -17.4587  -20.9496 O   0  0  0  0  0  0  0  0  0  0  0  0
   24.3367  -19.5407  -15.3040 N   0  0  0  0  0  0  0  0  0  0  0  0
   23.6303  -20.7104  -14.7255 C   0  0  1  0  0  0  0  0  0  0  0  0
   24.6974  -21.4714  -14.0165 C   0  0  0  0  0  0  0  0  0  0  0  0
   25.7360  -22.1297  -14.8379 C   0  0  0  0  0  0  0  0  0  0  0  0
   26.8625  -21.1618  -15.1441 C   0  0  0  0  0  0  0  0  0  0  0  0
   26.8931  -20.6226  -16.2961 O   0  0  0  0  0  0  0  0  0  0  0  0
   22.5107  -20.2472  -13.9095 C   0  0  0  0  0  0  0  0  0  0  0  0
   22.5979  -19.1555  -13.2977 O   0  0  0  0  0  0  0  0  0  0  0  0
   27.8430  -20.8395  -14.2539 O   0  0  0  0  0  0  0  0  0  0  0  0
   21.2978  -20.9553  -13.7522 N   0  0  0  0  0  0  0  0  0  0  0  0
   20.1404  -20.3557  -13.0544 C   0  0  1  0  0  0  0  0  0  0  0  0
   19.7214  -19.1667  -13.8701 C   0  0  0  0  0  0  0  0  0  0  0  0
   18.4416  -18.5227  -13.4399 C   0  0  0  0  0  0  0  0  0  0  0  0
   17.9734  -17.4307  -14.3676 C   0  0  0  0  0  0  0  0  0  0  0  0
   16.6998  -16.7772  -13.8764 C   0  0  0  0  0  0  0  0  0  0  0  0
   16.2958  -15.6728  -14.6887 N   0  0  0  0  0  0  0  0  0  0  0  0
   19.0739  -21.3495  -12.8991 C   0  0  0  0  0  0  0  0  0  0  0  0
   19.0268  -22.5069  -13.6429 O   0  0  0  0  0  0  0  0  0  0  0  0
   18.1659  -21.1213  -12.0460 O   0  0  0  0  0  0  0  0  0  0  0  0
  2  7  1  0
  2  1  1  1
  3  2  1  0
  4  3  1  0
  5  4  1  0
  6  5  2  0
  7  8  2  0
  9  5  1  0
 10  7  1  0
 10 11  1  0
 11 12  1  1
 12 13  1  0
 13 14  1  0
 14 18  1  0
 15 14  2  0
 16 17  2  0
 16 11  1  0
 19 16  1  0
 20 19  1  0
 20 21  1  6
 22 21  1  0
 23 22  1  0
 24 23  1  0
 25 24  1  0
 26 27  1  0
 26 20  1  0
 28 26  2  0
M  END
$$$$
