EEK.pdb
     RDKit          3D

 28 27  0  0  1  0  0  0  0  0999 V2000
   24.7576  -18.5058  -15.7223 N   0  0  0  0  0  0  0  0  0  0  0  0
   23.9287  -19.7248  -15.8380 C   0  0  1  0  0  0  0  0  0  0  0  0
   24.8837  -20.8626  -15.6927 C   0  0  0  0  0  0  0  0  0  0  0  0
   26.2552  -20.5832  -16.1975 C   0  0  0  0  0  0  0  0  0  0  0  0
   27.0593  -21.8475  -16.0210 C   0  0  0  0  0  0  0  0  0  0  0  0
   26.5411  -22.8287  -15.5042 O   0  0  0  0  0  0  0  0  0  0  0  0
   22.9367  -19.6832  -14.7531 C   0  0  0  0  0  0  0  0  0  0  0  0
   23.3329  -19.4488  -13.5628 O   0  0  0  0  0  0  0  0  0  0  0  0
   28.3660  -21.8622  -16.4515 O   0  0  0  0  0  0  0  0  0  0  0  0
   21.5589  -19.8788  -14.9062 N   0  0  0  0  0  0  0  0  0  0  0  0
   20.5845  -19.7464  -13.7950 C   0  0  1  0  0  0  0  0  0  0  0  0
   19.5345  -18.8358  -14.3325 C   0  0  0  0  0  0  0  0  0  0  0  0
   18.3541  -18.5678  -13.4830 C   0  0  0  0  0  0  0  0  0  0  0  0
   17.3905  -17.6364  -14.1927 C   0  0  0  0  0  0  0  0  0  0  0  0
   17.6787  -16.3980  -14.2395 O   0  0  0  0  0  0  0  0  0  0  0  0
   20.1414  -21.0740  -13.3765 C   0  0  0  0  0  0  0  0  0  0  0  0
   20.0803  -22.0023  -14.2179 O   0  0  0  0  0  0  0  0  0  0  0  0
   16.2338  -18.0530  -14.7810 O   0  0  0  0  0  0  0  0  0  0  0  0
   19.7658  -21.4043  -12.0547 N   0  0  0  0  0  0  0  0  0  0  0  0
   19.2025  -22.7304  -11.7224 C   0  0  1  0  0  0  0  0  0  0  0  0
   19.2178  -22.8355  -10.2245 C   0  0  0  0  0  0  0  0  0  0  0  0
   18.5779  -24.0685   -9.6696 C   0  0  0  0  0  0  0  0  0  0  0  0
   18.4925  -24.0795   -8.1647 C   0  0  0  0  0  0  0  0  0  0  0  0
   17.8795  -25.3604   -7.6412 C   0  0  0  0  0  0  0  0  0  0  0  0
   17.8415  -25.4123   -6.2134 N   0  0  0  0  0  0  0  0  0  0  0  0
   17.8591  -22.8660  -12.2933 C   0  0  0  0  0  0  0  0  0  0  0  0
   16.9818  -21.8087  -12.3805 O   0  0  0  0  0  0  0  0  0  0  0  0
   17.5034  -24.0055  -12.7168 O   0  0  0  0  0  0  0  0  0  0  0  0
  2  7  1  0
  2  1  1  1
  3  2  1  0
  4  3  1  0
  5  4  1  0
  6  5  2  0
  7  8  2  0
  9  5  1  0
 10  7  1  0
 10 11  1  0
 11 12  1  6
 12 13  1  0
 13 14  1  0
 14 18  1  0
 15 14  2  0
 16 17  2  0
 16 11  1  0
 19 16  1  0
 20 19  1  0
 20 21  1  1
 22 21  1  0
 23 22  1  0
 24 23  1  0
 25 24  1  0
 26 27  1  0
 26 20  1  0
 28 26  2  0
M  END
$$$$
