EEK.pdb
     RDKit          3D

 28 27  0  0  1  0  0  0  0  0999 V2000
   20.2596  -11.2650  -18.6357 N   0  0  0  0  0  0  0  0  0  0  0  0
   19.2340  -11.0998  -17.5834 C   0  0  1  0  0  0  0  0  0  0  0  0
   19.3108  -12.3445  -16.7634 C   0  0  0  0  0  0  0  0  0  0  0  0
   20.4041  -13.2741  -17.1567 C   0  0  0  0  0  0  0  0  0  0  0  0
   19.7530  -14.5023  -17.7428 C   0  0  0  0  0  0  0  0  0  0  0  0
   20.0039  -14.8305  -18.8951 O   0  0  0  0  0  0  0  0  0  0  0  0
   19.5880   -9.8980  -16.8131 C   0  0  0  0  0  0  0  0  0  0  0  0
   18.8732   -9.5777  -15.8055 O   0  0  0  0  0  0  0  0  0  0  0  0
   18.8871  -15.2271  -16.9567 O   0  0  0  0  0  0  0  0  0  0  0  0
   20.6672   -9.0489  -17.0857 N   0  0  0  0  0  0  0  0  0  0  0  0
   21.0505   -7.9075  -16.2185 C   0  0  1  0  0  0  0  0  0  0  0  0
   22.5400   -7.9453  -16.1970 C   0  0  0  0  0  0  0  0  0  0  0  0
   23.1912   -8.9845  -15.3707 C   0  0  0  0  0  0  0  0  0  0  0  0
   24.6820   -8.7256  -15.2708 C   0  0  0  0  0  0  0  0  0  0  0  0
   25.1500   -7.6893  -15.8417 O   0  0  0  0  0  0  0  0  0  0  0  0
   20.4386   -6.6829  -16.7282 C   0  0  0  0  0  0  0  0  0  0  0  0
   20.4368   -6.4565  -17.9620 O   0  0  0  0  0  0  0  0  0  0  0  0
   25.5465   -9.5420  -14.6046 O   0  0  0  0  0  0  0  0  0  0  0  0
   19.8276   -5.7032  -15.9133 N   0  0  0  0  0  0  0  0  0  0  0  0
   19.1282   -4.5400  -16.4998 C   0  0  1  0  0  0  0  0  0  0  0  0
   17.6640   -4.8728  -16.4854 C   0  0  0  0  0  0  0  0  0  0  0  0
   16.7574   -3.7596  -16.9054 C   0  0  0  0  0  0  0  0  0  0  0  0
   15.2945   -4.1200  -16.8538 C   0  0  0  0  0  0  0  0  0  0  0  0
   14.4186   -3.0133  -17.3999 C   0  0  0  0  0  0  0  0  0  0  0  0
   13.0279   -3.2389  -17.1595 N   0  0  0  0  0  0  0  0  0  0  0  0
   19.4477   -3.3249  -15.7445 C   0  0  0  0  0  0  0  0  0  0  0  0
   19.7855   -2.1397  -16.3578 O   0  0  0  0  0  0  0  0  0  0  0  0
   19.4100   -3.3818  -14.4797 O   0  0  0  0  0  0  0  0  0  0  0  0
  2  7  1  0
  2  1  1  6
  3  2  1  0
  4  3  1  0
  5  4  1  0
  6  5  2  0
  7  8  2  0
  9  5  1  0
 10  7  1  0
 10 11  1  0
 11 12  1  6
 12 13  1  0
 13 14  1  0
 14 18  1  0
 15 14  2  0
 16 17  2  0
 16 11  1  0
 19 16  1  0
 20 19  1  0
 20 21  1  1
 22 21  1  0
 23 22  1  0
 24 23  1  0
 25 24  1  0
 26 27  1  0
 26 20  1  0
 28 26  2  0
M  END
$$$$
