EEK.pdb
     RDKit          3D

 28 27  0  0  1  0  0  0  0  0999 V2000
   19.5826  -11.9503  -16.3313 N   0  0  0  0  0  0  0  0  0  0  0  0
   19.9991  -10.6412  -16.8781 C   0  0  1  0  0  0  0  0  0  0  0  0
   19.3369  -10.5458  -18.2123 C   0  0  0  0  0  0  0  0  0  0  0  0
   17.8953  -10.9145  -18.2116 C   0  0  0  0  0  0  0  0  0  0  0  0
   17.2272  -10.0956  -19.2883 C   0  0  0  0  0  0  0  0  0  0  0  0
   16.3856   -9.2614  -18.9815 O   0  0  0  0  0  0  0  0  0  0  0  0
   19.5286   -9.6077  -15.9434 C   0  0  0  0  0  0  0  0  0  0  0  0
   18.5429   -9.8710  -15.1768 O   0  0  0  0  0  0  0  0  0  0  0  0
   17.5875  -10.3114  -20.5985 O   0  0  0  0  0  0  0  0  0  0  0  0
   20.0768   -8.3266  -15.8083 N   0  0  0  0  0  0  0  0  0  0  0  0
   19.5673   -7.3148  -14.8499 C   0  0  1  0  0  0  0  0  0  0  0  0
   20.7894   -6.6011  -14.3835 C   0  0  0  0  0  0  0  0  0  0  0  0
   20.6139   -5.4854  -13.4289 C   0  0  0  0  0  0  0  0  0  0  0  0
   21.9614   -4.9476  -12.9881 C   0  0  0  0  0  0  0  0  0  0  0  0
   22.2361   -3.7327  -13.2478 O   0  0  0  0  0  0  0  0  0  0  0  0
   18.5467   -6.4981  -15.5021 C   0  0  0  0  0  0  0  0  0  0  0  0
   18.7105   -6.1316  -16.6905 O   0  0  0  0  0  0  0  0  0  0  0  0
   22.8933   -5.6941  -12.3309 O   0  0  0  0  0  0  0  0  0  0  0  0
   17.3504   -6.0771  -14.8787 N   0  0  0  0  0  0  0  0  0  0  0  0
   16.4052   -5.1671  -15.5604 C   0  0  1  0  0  0  0  0  0  0  0  0
   15.0352   -5.5241  -15.0598 C   0  0  0  0  0  0  0  0  0  0  0  0
   13.9347   -4.6282  -15.5327 C   0  0  0  0  0  0  0  0  0  0  0  0
   12.5865   -4.9687  -14.9506 C   0  0  0  0  0  0  0  0  0  0  0  0
   11.5085   -4.0173  -15.4232 C   0  0  0  0  0  0  0  0  0  0  0  0
   10.2227   -4.3244  -14.8799 N   0  0  0  0  0  0  0  0  0  0  0  0
   16.7672   -3.7715  -15.2951 C   0  0  0  0  0  0  0  0  0  0  0  0
   17.2731   -3.3556  -14.0843 O   0  0  0  0  0  0  0  0  0  0  0  0
   16.6013   -2.9257  -16.2232 O   0  0  0  0  0  0  0  0  0  0  0  0
  2  7  1  0
  2  1  1  1
  3  2  1  0
  4  3  1  0
  5  4  1  0
  6  5  2  0
  7  8  2  0
  9  5  1  0
 10  7  1  0
 10 11  1  0
 11 12  1  6
 12 13  1  0
 13 14  1  0
 14 18  1  0
 15 14  2  0
 16 17  2  0
 16 11  1  0
 19 16  1  0
 20 19  1  0
 20 21  1  1
 22 21  1  0
 23 22  1  0
 24 23  1  0
 25 24  1  0
 26 27  1  0
 26 20  1  0
 28 26  2  0
M  END
$$$$
