EEK.pdb
     RDKit          3D

 28 27  0  0  1  0  0  0  0  0999 V2000
   17.4592  -12.2734  -14.7719 N   0  0  0  0  0  0  0  0  0  0  0  0
   17.0956  -10.8440  -14.8760 C   0  0  1  0  0  0  0  0  0  0  0  0
   15.6037  -10.8216  -14.9158 C   0  0  0  0  0  0  0  0  0  0  0  0
   15.0161  -11.2559  -16.2120 C   0  0  0  0  0  0  0  0  0  0  0  0
   13.5188  -11.1187  -16.0887 C   0  0  0  0  0  0  0  0  0  0  0  0
   12.9807  -10.0586  -16.3803 O   0  0  0  0  0  0  0  0  0  0  0  0
   17.6351  -10.1682  -13.6863 C   0  0  0  0  0  0  0  0  0  0  0  0
   17.4653  -10.7051  -12.5410 O   0  0  0  0  0  0  0  0  0  0  0  0
   12.7926  -12.2011  -15.6480 O   0  0  0  0  0  0  0  0  0  0  0  0
   18.3401   -8.9587  -13.6906 N   0  0  0  0  0  0  0  0  0  0  0  0
   18.8135   -8.2823  -12.4577 C   0  0  1  0  0  0  0  0  0  0  0  0
   19.9862   -7.4793  -12.9053 C   0  0  0  0  0  0  0  0  0  0  0  0
   20.6229   -6.5805  -11.9186 C   0  0  0  0  0  0  0  0  0  0  0  0
   21.7871   -5.8408  -12.5488 C   0  0  0  0  0  0  0  0  0  0  0  0
   22.3957   -6.3960  -13.5185 O   0  0  0  0  0  0  0  0  0  0  0  0
   17.7087   -7.5398  -11.8561 C   0  0  0  0  0  0  0  0  0  0  0  0
   17.0066   -6.7840  -12.5698 O   0  0  0  0  0  0  0  0  0  0  0  0
   22.2168   -4.6161  -12.1329 O   0  0  0  0  0  0  0  0  0  0  0  0
   17.3572   -7.6105  -10.4890 N   0  0  0  0  0  0  0  0  0  0  0  0
   16.2295   -6.8263   -9.9418 C   0  0  1  0  0  0  0  0  0  0  0  0
   15.2762   -7.8170   -9.3379 C   0  0  0  0  0  0  0  0  0  0  0  0
   14.0518   -7.2212   -8.7187 C   0  0  0  0  0  0  0  0  0  0  0  0
   13.1040   -8.2455   -8.1486 C   0  0  0  0  0  0  0  0  0  0  0  0
   11.8826   -7.6033   -7.5271 C   0  0  0  0  0  0  0  0  0  0  0  0
   10.9863   -8.5582   -6.9547 N   0  0  0  0  0  0  0  0  0  0  0  0
   16.7218   -5.8409   -8.9745 C   0  0  0  0  0  0  0  0  0  0  0  0
   16.0148   -4.7053   -8.6499 O   0  0  0  0  0  0  0  0  0  0  0  0
   17.8432   -6.0534   -8.4251 O   0  0  0  0  0  0  0  0  0  0  0  0
  2  7  1  0
  2  1  1  1
  3  2  1  0
  4  3  1  0
  5  4  1  0
  6  5  2  0
  7  8  2  0
  9  5  1  0
 10  7  1  0
 10 11  1  0
 11 12  1  6
 12 13  1  0
 13 14  1  0
 14 18  1  0
 15 14  2  0
 16 17  2  0
 16 11  1  0
 19 16  1  0
 20 19  1  0
 20 21  1  1
 22 21  1  0
 23 22  1  0
 24 23  1  0
 25 24  1  0
 26 27  1  0
 26 20  1  0
 28 26  2  0
M  END
$$$$
