EEK.pdb
     RDKit          3D

 28 27  0  0  1  0  0  0  0  0999 V2000
   19.6401  -11.8235  -16.0294 N   0  0  0  0  0  0  0  0  0  0  0  0
   20.2195  -10.7153  -16.8184 C   0  0  1  0  0  0  0  0  0  0  0  0
   19.6596  -10.8786  -18.1922 C   0  0  0  0  0  0  0  0  0  0  0  0
   20.1110  -12.1079  -18.8987 C   0  0  0  0  0  0  0  0  0  0  0  0
   19.5780  -12.0310  -20.3079 C   0  0  0  0  0  0  0  0  0  0  0  0
   19.5328  -13.0428  -20.9954 O   0  0  0  0  0  0  0  0  0  0  0  0
   19.7932   -9.4584  -16.1847 C   0  0  0  0  0  0  0  0  0  0  0  0
   18.7089   -9.4429  -15.5117 O   0  0  0  0  0  0  0  0  0  0  0  0
   19.1522  -10.8128  -20.7853 O   0  0  0  0  0  0  0  0  0  0  0  0
   20.4848   -8.2428  -16.2486 N   0  0  0  0  0  0  0  0  0  0  0  0
   19.9638   -6.9736  -15.6834 C   0  0  1  0  0  0  0  0  0  0  0  0
   21.0641   -6.4818  -14.8070 C   0  0  0  0  0  0  0  0  0  0  0  0
   20.9076   -5.1484  -14.1872 C   0  0  0  0  0  0  0  0  0  0  0  0
   22.1140   -4.8170  -13.3302 C   0  0  0  0  0  0  0  0  0  0  0  0
   22.4948   -5.6768  -12.4731 O   0  0  0  0  0  0  0  0  0  0  0  0
   19.5547   -6.0889  -16.7715 C   0  0  0  0  0  0  0  0  0  0  0  0
   20.3379   -5.8779  -17.7284 O   0  0  0  0  0  0  0  0  0  0  0  0
   22.8106   -3.6496  -13.4273 O   0  0  0  0  0  0  0  0  0  0  0  0
   18.3045   -5.4327  -16.8323 N   0  0  0  0  0  0  0  0  0  0  0  0
   17.9887   -4.4751  -17.9137 C   0  0  1  0  0  0  0  0  0  0  0  0
   16.4951   -4.4864  -18.0688 C   0  0  0  0  0  0  0  0  0  0  0  0
   15.9522   -3.4909  -19.0444 C   0  0  0  0  0  0  0  0  0  0  0  0
   14.4514   -3.5334  -19.1785 C   0  0  0  0  0  0  0  0  0  0  0  0
   13.9374   -2.4767  -20.1322 C   0  0  0  0  0  0  0  0  0  0  0  0
   12.5140   -2.4929  -20.2610 N   0  0  0  0  0  0  0  0  0  0  0  0
   18.5214   -3.1493  -17.5860 C   0  0  0  0  0  0  0  0  0  0  0  0
   19.1364   -2.3471  -18.5204 O   0  0  0  0  0  0  0  0  0  0  0  0
   18.4070   -2.7389  -16.3931 O   0  0  0  0  0  0  0  0  0  0  0  0
  2  7  1  0
  2  1  1  1
  3  2  1  0
  4  3  1  0
  5  4  1  0
  6  5  2  0
  7  8  2  0
  9  5  1  0
 10  7  1  0
 10 11  1  0
 11 12  1  6
 12 13  1  0
 13 14  1  0
 14 18  1  0
 15 14  2  0
 16 17  2  0
 16 11  1  0
 19 16  1  0
 20 19  1  0
 20 21  1  1
 22 21  1  0
 23 22  1  0
 24 23  1  0
 25 24  1  0
 26 27  1  0
 26 20  1  0
 28 26  2  0
M  END
$$$$
