EEK.pdb
     RDKit          3D

 28 27  0  0  1  0  0  0  0  0999 V2000
   25.8477  -21.8046  -14.4718 N   0  0  0  0  0  0  0  0  0  0  0  0
   24.5564  -22.0071  -15.1631 C   0  0  1  0  0  0  0  0  0  0  0  0
   24.5159  -23.4609  -15.4984 C   0  0  0  0  0  0  0  0  0  0  0  0
   24.3178  -24.3573  -14.3274 C   0  0  0  0  0  0  0  0  0  0  0  0
   23.2452  -25.3491  -14.7041 C   0  0  0  0  0  0  0  0  0  0  0  0
   22.7312  -25.2944  -15.8137 O   0  0  0  0  0  0  0  0  0  0  0  0
   23.4928  -21.6182  -14.2247 C   0  0  0  0  0  0  0  0  0  0  0  0
   23.7635  -21.5471  -12.9796 O   0  0  0  0  0  0  0  0  0  0  0  0
   22.8719  -26.2978  -13.7801 O   0  0  0  0  0  0  0  0  0  0  0  0
   22.1743  -21.3066  -14.5775 N   0  0  0  0  0  0  0  0  0  0  0  0
   21.1517  -20.8516  -13.6034 C   0  0  1  0  0  0  0  0  0  0  0  0
   20.4122  -19.7754  -14.3214 C   0  0  0  0  0  0  0  0  0  0  0  0
   20.7766  -18.3732  -14.0252 C   0  0  0  0  0  0  0  0  0  0  0  0
   19.9205  -17.4201  -14.8366 C   0  0  0  0  0  0  0  0  0  0  0  0
   18.9251  -16.8726  -14.2636 O   0  0  0  0  0  0  0  0  0  0  0  0
   20.3620  -21.9967  -13.1573 C   0  0  0  0  0  0  0  0  0  0  0  0
   20.0772  -22.9091  -13.9696 O   0  0  0  0  0  0  0  0  0  0  0  0
   20.1585  -17.1195  -16.1445 O   0  0  0  0  0  0  0  0  0  0  0  0
   19.8801  -22.1623  -11.8391 N   0  0  0  0  0  0  0  0  0  0  0  0
   19.1295  -23.3718  -11.4393 C   0  0  1  0  0  0  0  0  0  0  0  0
   19.2100  -23.4466   -9.9417 C   0  0  0  0  0  0  0  0  0  0  0  0
   18.5446  -24.6387   -9.3305 C   0  0  0  0  0  0  0  0  0  0  0  0
   18.7828  -24.7691   -7.8477 C   0  0  0  0  0  0  0  0  0  0  0  0
   18.1091  -25.9955   -7.2711 C   0  0  0  0  0  0  0  0  0  0  0  0
   18.3508  -26.1529   -5.8713 N   0  0  0  0  0  0  0  0  0  0  0  0
   17.7524  -23.2991  -11.9368 C   0  0  0  0  0  0  0  0  0  0  0  0
   17.0658  -24.4073  -12.3790 O   0  0  0  0  0  0  0  0  0  0  0  0
   17.1848  -22.1669  -11.9573 O   0  0  0  0  0  0  0  0  0  0  0  0
  2  7  1  0
  2  1  1  1
  3  2  1  0
  4  3  1  0
  5  4  1  0
  6  5  2  0
  7  8  2  0
  9  5  1  0
 10  7  1  0
 10 11  1  0
 11 12  1  6
 12 13  1  0
 13 14  1  0
 14 18  1  0
 15 14  2  0
 16 17  2  0
 16 11  1  0
 19 16  1  0
 20 19  1  0
 20 21  1  1
 22 21  1  0
 23 22  1  0
 24 23  1  0
 25 24  1  0
 26 27  1  0
 26 20  1  0
 28 26  2  0
M  END
$$$$
