EEK.pdb
     RDKit          3D

 28 27  0  0  1  0  0  0  0  0999 V2000
   28.2881  -20.6855  -17.0928 N   0  0  0  0  0  0  0  0  0  0  0  0
   27.3257  -19.6061  -16.7847 C   0  0  1  0  0  0  0  0  0  0  0  0
   27.3476  -18.7099  -17.9780 C   0  0  0  0  0  0  0  0  0  0  0  0
   28.7091  -18.2916  -18.4085 C   0  0  0  0  0  0  0  0  0  0  0  0
   28.6581  -16.8048  -18.6591 C   0  0  0  0  0  0  0  0  0  0  0  0
   27.6084  -16.1973  -18.4932 O   0  0  0  0  0  0  0  0  0  0  0  0
   26.0126  -20.2366  -16.5808 C   0  0  0  0  0  0  0  0  0  0  0  0
   25.3855  -20.6979  -17.5921 O   0  0  0  0  0  0  0  0  0  0  0  0
   29.8057  -16.1667  -19.0704 O   0  0  0  0  0  0  0  0  0  0  0  0
   25.3678  -20.3862  -15.3473 N   0  0  0  0  0  0  0  0  0  0  0  0
   24.0774  -21.0992  -15.1789 C   0  0  1  0  0  0  0  0  0  0  0  0
   24.4379  -22.3447  -14.4446 C   0  0  0  0  0  0  0  0  0  0  0  0
   25.0320  -23.4546  -15.2205 C   0  0  0  0  0  0  0  0  0  0  0  0
   25.3207  -24.6380  -14.3173 C   0  0  0  0  0  0  0  0  0  0  0  0
   25.0966  -24.5100  -13.0714 O   0  0  0  0  0  0  0  0  0  0  0  0
   23.1152  -20.2150  -14.5259 C   0  0  0  0  0  0  0  0  0  0  0  0
   23.4813  -19.5044  -13.5592 O   0  0  0  0  0  0  0  0  0  0  0  0
   25.8076  -25.8290  -14.7668 O   0  0  0  0  0  0  0  0  0  0  0  0
   21.7613  -20.0932  -14.9123 N   0  0  0  0  0  0  0  0  0  0  0  0
   20.8194  -19.2368  -14.1601 C   0  0  1  0  0  0  0  0  0  0  0  0
   19.6247  -19.0371  -15.0476 C   0  0  0  0  0  0  0  0  0  0  0  0
   18.5063  -18.2536  -14.4372 C   0  0  0  0  0  0  0  0  0  0  0  0
   17.3377  -18.0450  -15.3664 C   0  0  0  0  0  0  0  0  0  0  0  0
   16.2510  -17.2052  -14.7306 C   0  0  0  0  0  0  0  0  0  0  0  0
   15.1300  -17.0048  -15.5943 N   0  0  0  0  0  0  0  0  0  0  0  0
   20.4830  -19.8614  -12.8772 C   0  0  0  0  0  0  0  0  0  0  0  0
   20.1480  -19.1273  -11.7619 O   0  0  0  0  0  0  0  0  0  0  0  0
   20.5074  -21.1258  -12.8050 O   0  0  0  0  0  0  0  0  0  0  0  0
  2  7  1  0
  2  1  1  6
  3  2  1  0
  4  3  1  0
  5  4  1  0
  6  5  2  0
  7  8  2  0
  9  5  1  0
 10  7  1  0
 10 11  1  0
 11 12  1  1
 12 13  1  0
 13 14  1  0
 14 18  1  0
 15 14  2  0
 16 17  2  0
 16 11  1  0
 19 16  1  0
 20 19  1  0
 20 21  1  6
 22 21  1  0
 23 22  1  0
 24 23  1  0
 25 24  1  0
 26 27  1  0
 26 20  1  0
 28 26  2  0
M  END
$$$$
