EEK.pdb
     RDKit          3D

 28 27  0  0  1  0  0  0  0  0999 V2000
   24.8901  -20.1943  -14.5738 N   0  0  0  0  0  0  0  0  0  0  0  0
   23.8709  -21.1267  -15.1012 C   0  0  1  0  0  0  0  0  0  0  0  0
   24.4622  -22.4871  -14.9361 C   0  0  0  0  0  0  0  0  0  0  0  0
   25.9257  -22.4935  -14.6675 C   0  0  0  0  0  0  0  0  0  0  0  0
   26.6127  -22.8546  -15.9612 C   0  0  0  0  0  0  0  0  0  0  0  0
   27.8192  -23.0612  -15.9702 O   0  0  0  0  0  0  0  0  0  0  0  0
   22.6531  -20.9431  -14.2972 C   0  0  0  0  0  0  0  0  0  0  0  0
   22.7491  -20.3997  -13.1464 O   0  0  0  0  0  0  0  0  0  0  0  0
   25.8553  -22.9434  -17.1065 O   0  0  0  0  0  0  0  0  0  0  0  0
   21.3608  -21.3154  -14.6862 N   0  0  0  0  0  0  0  0  0  0  0  0
   20.1583  -21.1014  -13.8437 C   0  0  1  0  0  0  0  0  0  0  0  0
   19.2083  -20.3777  -14.7349 C   0  0  0  0  0  0  0  0  0  0  0  0
   19.2829  -18.9012  -14.7676 C   0  0  0  0  0  0  0  0  0  0  0  0
   18.8424  -18.3183  -13.4387 C   0  0  0  0  0  0  0  0  0  0  0  0
   19.4019  -17.2479  -13.0387 O   0  0  0  0  0  0  0  0  0  0  0  0
   19.7028  -22.3836  -13.3123 C   0  0  0  0  0  0  0  0  0  0  0  0
   19.8430  -23.4250  -13.9974 O   0  0  0  0  0  0  0  0  0  0  0  0
   17.8822  -18.8787  -12.6504 O   0  0  0  0  0  0  0  0  0  0  0  0
   19.0986  -22.5470  -12.0452 N   0  0  0  0  0  0  0  0  0  0  0  0
   18.7612  -23.8872  -11.5196 C   0  0  1  0  0  0  0  0  0  0  0  0
   18.6298  -23.7395  -10.0310 C   0  0  0  0  0  0  0  0  0  0  0  0
   18.1503  -24.9610   -9.3132 C   0  0  0  0  0  0  0  0  0  0  0  0
   17.9044  -24.7398   -7.8425 C   0  0  0  0  0  0  0  0  0  0  0  0
   17.3695  -25.9824   -7.1641 C   0  0  0  0  0  0  0  0  0  0  0  0
   17.2560  -25.8337   -5.7471 N   0  0  0  0  0  0  0  0  0  0  0  0
   17.5390  -24.3866  -12.1566 C   0  0  0  0  0  0  0  0  0  0  0  0
   17.3528  -25.7164  -12.4599 O   0  0  0  0  0  0  0  0  0  0  0  0
   16.6280  -23.5519  -12.4353 O   0  0  0  0  0  0  0  0  0  0  0  0
  2  7  1  0
  2  1  1  1
  3  2  1  0
  4  3  1  0
  5  4  1  0
  6  5  2  0
  7  8  2  0
  9  5  1  0
 10  7  1  0
 10 11  1  0
 11 12  1  6
 12 13  1  0
 13 14  1  0
 14 18  1  0
 15 14  2  0
 16 17  2  0
 16 11  1  0
 19 16  1  0
 20 19  1  0
 20 21  1  1
 22 21  1  0
 23 22  1  0
 24 23  1  0
 25 24  1  0
 26 27  1  0
 26 20  1  0
 28 26  2  0
M  END
$$$$
