EEK.pdb
     RDKit          3D

 28 27  0  0  1  0  0  0  0  0999 V2000
   17.4378  -10.6370  -15.0487 N   0  0  0  0  0  0  0  0  0  0  0  0
   18.9073  -10.7460  -15.1712 C   0  0  1  0  0  0  0  0  0  0  0  0
   19.1385  -11.8824  -16.1108 C   0  0  0  0  0  0  0  0  0  0  0  0
   18.7598  -11.6009  -17.5219 C   0  0  0  0  0  0  0  0  0  0  0  0
   18.9544  -12.8804  -18.2973 C   0  0  0  0  0  0  0  0  0  0  0  0
   18.2123  -13.1398  -19.2357 O   0  0  0  0  0  0  0  0  0  0  0  0
   19.3971   -9.4669  -15.7070 C   0  0  0  0  0  0  0  0  0  0  0  0
   18.6242   -8.7706  -16.4463 O   0  0  0  0  0  0  0  0  0  0  0  0
   19.9720  -13.7280  -17.9244 O   0  0  0  0  0  0  0  0  0  0  0  0
   20.6659   -8.9229  -15.4742 N   0  0  0  0  0  0  0  0  0  0  0  0
   21.0828   -7.5822  -15.9543 C   0  0  1  0  0  0  0  0  0  0  0  0
   21.2767   -6.7887  -14.7080 C   0  0  0  0  0  0  0  0  0  0  0  0
   21.7083   -5.3811  -14.8474 C   0  0  0  0  0  0  0  0  0  0  0  0
   21.8409   -4.7297  -13.4844 C   0  0  0  0  0  0  0  0  0  0  0  0
   21.0393   -3.7863  -13.1904 O   0  0  0  0  0  0  0  0  0  0  0  0
   22.2471   -7.7184  -16.8259 C   0  0  0  0  0  0  0  0  0  0  0  0
   23.1926   -8.4696  -16.4865 O   0  0  0  0  0  0  0  0  0  0  0  0
   22.7713   -5.0984  -12.5593 O   0  0  0  0  0  0  0  0  0  0  0  0
   22.3947   -7.0495  -18.0621 N   0  0  0  0  0  0  0  0  0  0  0  0
   23.6166   -7.2033  -18.8803 C   0  0  1  0  0  0  0  0  0  0  0  0
   23.1571   -7.4474  -20.2889 C   0  0  0  0  0  0  0  0  0  0  0  0
   22.8366   -8.8721  -20.6126 C   0  0  0  0  0  0  0  0  0  0  0  0
   22.4574   -9.0932  -22.0547 C   0  0  0  0  0  0  0  0  0  0  0  0
   22.0668  -10.5303  -22.3241 C   0  0  0  0  0  0  0  0  0  0  0  0
   21.8949  -10.8052  -23.7161 N   0  0  0  0  0  0  0  0  0  0  0  0
   24.4639   -6.0139  -18.7513 C   0  0  0  0  0  0  0  0  0  0  0  0
   25.8222   -6.0455  -18.9722 O   0  0  0  0  0  0  0  0  0  0  0  0
   23.9129   -4.9222  -18.4211 O   0  0  0  0  0  0  0  0  0  0  0  0
  2  7  1  0
  2  1  1  6
  3  2  1  0
  4  3  1  0
  5  4  1  0
  6  5  2  0
  7  8  2  0
  9  5  1  0
 10  7  1  0
 10 11  1  0
 11 12  1  1
 12 13  1  0
 13 14  1  0
 14 18  1  0
 15 14  2  0
 16 17  2  0
 16 11  1  0
 19 16  1  0
 20 19  1  0
 20 21  1  6
 22 21  1  0
 23 22  1  0
 24 23  1  0
 25 24  1  0
 26 27  1  0
 26 20  1  0
 28 26  2  0
M  END
$$$$
