EEK.pdb
     RDKit          3D

 28 27  0  0  1  0  0  0  0  0999 V2000
   18.6442  -11.6004  -15.6190 N   0  0  0  0  0  0  0  0  0  0  0  0
   17.7601  -10.4233  -15.4805 C   0  0  1  0  0  0  0  0  0  0  0  0
   16.3778  -10.9799  -15.3954 C   0  0  0  0  0  0  0  0  0  0  0  0
   15.5001  -10.6258  -16.5436 C   0  0  0  0  0  0  0  0  0  0  0  0
   15.2361   -9.1428  -16.4596 C   0  0  0  0  0  0  0  0  0  0  0  0
   16.1387   -8.3514  -16.6996 O   0  0  0  0  0  0  0  0  0  0  0  0
   18.1581   -9.7201  -14.2516 C   0  0  0  0  0  0  0  0  0  0  0  0
   18.3482  -10.3973  -13.1867 O   0  0  0  0  0  0  0  0  0  0  0  0
   13.9744   -8.7172  -16.1128 O   0  0  0  0  0  0  0  0  0  0  0  0
   18.3572   -8.3392  -14.1358 N   0  0  0  0  0  0  0  0  0  0  0  0
   18.7824   -7.6757  -12.8785 C   0  0  1  0  0  0  0  0  0  0  0  0
   19.8057   -6.6837  -13.3134 C   0  0  0  0  0  0  0  0  0  0  0  0
   21.1461   -6.7595  -12.6934 C   0  0  0  0  0  0  0  0  0  0  0  0
   22.0055   -5.5941  -13.1439 C   0  0  0  0  0  0  0  0  0  0  0  0
   22.3730   -4.7468  -12.2687 O   0  0  0  0  0  0  0  0  0  0  0  0
   17.6098   -7.1410  -12.1907 C   0  0  0  0  0  0  0  0  0  0  0  0
   16.7844   -6.4398  -12.8237 O   0  0  0  0  0  0  0  0  0  0  0  0
   22.4038   -5.4047  -14.4335 O   0  0  0  0  0  0  0  0  0  0  0  0
   17.3232   -7.3608  -10.8244 N   0  0  0  0  0  0  0  0  0  0  0  0
   16.1967   -6.6772  -10.1537 C   0  0  1  0  0  0  0  0  0  0  0  0
   15.2014   -7.7446   -9.8002 C   0  0  0  0  0  0  0  0  0  0  0  0
   14.0208   -7.2736   -9.0118 C   0  0  0  0  0  0  0  0  0  0  0  0
   13.0995   -8.3862   -8.5808 C   0  0  0  0  0  0  0  0  0  0  0  0
   11.9261   -7.8707   -7.7760 C   0  0  0  0  0  0  0  0  0  0  0  0
   11.0174   -8.9068   -7.3970 N   0  0  0  0  0  0  0  0  0  0  0  0
   16.6798   -5.9340   -8.9861 C   0  0  0  0  0  0  0  0  0  0  0  0
   15.9434   -4.9375   -8.3865 O   0  0  0  0  0  0  0  0  0  0  0  0
   17.8212   -6.2284   -8.5223 O   0  0  0  0  0  0  0  0  0  0  0  0
  2  7  1  0
  2  1  1  1
  3  2  1  0
  4  3  1  0
  5  4  1  0
  6  5  2  0
  7  8  2  0
  9  5  1  0
 10  7  1  0
 10 11  1  0
 11 12  1  6
 12 13  1  0
 13 14  1  0
 14 18  1  0
 15 14  2  0
 16 17  2  0
 16 11  1  0
 19 16  1  0
 20 19  1  0
 20 21  1  1
 22 21  1  0
 23 22  1  0
 24 23  1  0
 25 24  1  0
 26 27  1  0
 26 20  1  0
 28 26  2  0
M  END
$$$$
