KDT.pdb
     RDKit          3D

 25 24  0  0  1  0  0  0  0  0999 V2000
    9.0098  -17.9754   18.0040 N   0  0  0  0  0  0  0  0  0  0  0  0
   10.0293  -17.1109   18.5481 C   0  0  1  0  0  0  0  0  0  0  0  0
    9.6665  -15.6603   18.4287 C   0  0  0  0  0  0  0  0  0  0  0  0
    8.8164  -15.3805   17.2117 C   0  0  0  0  0  0  0  0  0  0  0  0
    8.4295  -13.9333   17.1093 C   0  0  0  0  0  0  0  0  0  0  0  0
    8.1356  -13.5041   15.6917 C   0  0  0  0  0  0  0  0  0  0  0  0
    6.7385  -13.1429   15.5499 N   0  0  0  0  0  0  0  0  0  0  0  0
   10.3329  -17.4999   19.9488 C   0  0  0  0  0  0  0  0  0  0  0  0
    9.5497  -18.2384   20.5958 O   0  0  0  0  0  0  0  0  0  0  0  0
   11.5021  -17.0404   20.5549 N   0  0  0  0  0  0  0  0  0  0  0  0
   11.8803  -17.4541   21.9630 C   0  0  1  0  0  0  0  0  0  0  0  0
   13.3724  -17.3609   21.9057 C   0  0  0  0  0  0  0  0  0  0  0  0
   14.1035  -18.3865   21.1921 C   0  0  0  0  0  0  0  0  0  0  0  0
   14.8413  -18.2242   20.2143 O   0  0  0  0  0  0  0  0  0  0  0  0
   11.2037  -16.4637   22.7942 C   0  0  0  0  0  0  0  0  0  0  0  0
   11.7306  -15.3143   22.9385 O   0  0  0  0  0  0  0  0  0  0  0  0
   13.9834  -19.7287   21.6337 O   0  0  0  0  0  0  0  0  0  0  0  0
    8.1832  -14.5724   22.4696 C   0  0  0  0  0  0  0  0  0  0  0  0
    8.0558  -15.3236   23.7624 C   0  0  1  0  0  0  0  0  0  0  0  0
    7.3488  -16.5024   23.5413 O   0  0  0  0  0  0  0  0  0  0  0  0
    9.4268  -15.6405   24.3350 C   0  0  2  0  0  0  0  0  0  0  0  0
    9.9965  -16.6775   23.4546 N   0  0  0  0  0  0  0  0  0  0  0  0
    9.3372  -16.1864   25.7038 C   0  0  0  0  0  0  0  0  0  0  0  0
    9.6543  -17.3583   25.9847 O   0  0  0  0  0  0  0  0  0  0  0  0
    8.8849  -15.3937   26.7523 O   0  0  0  0  0  0  0  0  0  0  0  0
  2  1  1  1
  3  2  1  0
  4  3  1  0
  5  6  1  0
  5  4  1  0
  6  7  1  0
  8  9  2  0
  8  2  1  0
 10  8  1  0
 11 10  1  0
 12 13  1  0
 11 12  1  6
 13 17  1  0
 14 13  2  0
 15 16  2  0
 15 11  1  0
 19 21  1  0
 19 18  1  6
 20 19  1  0
 21 22  1  6
 22 15  1  0
 23 21  1  0
 24 23  2  0
 25 23  1  0
M  END
$$$$
