KDT.pdb
     RDKit          3D

 25 24  0  0  1  0  0  0  0  0999 V2000
    6.9808  -13.5972   21.1680 N   0  0  0  0  0  0  0  0  0  0  0  0
    6.6514  -14.9456   20.7727 C   0  0  1  0  0  0  0  0  0  0  0  0
    6.4903  -15.0783   19.2872 C   0  0  0  0  0  0  0  0  0  0  0  0
    7.4173  -14.1599   18.5260 C   0  0  0  0  0  0  0  0  0  0  0  0
    7.2443  -14.2825   17.0396 C   0  0  0  0  0  0  0  0  0  0  0  0
    8.2238  -13.4349   16.2636 C   0  0  0  0  0  0  0  0  0  0  0  0
    8.1117  -13.7018   14.8428 N   0  0  0  0  0  0  0  0  0  0  0  0
    7.6558  -15.8955   21.3153 C   0  0  0  0  0  0  0  0  0  0  0  0
    7.3477  -17.0886   21.5582 O   0  0  0  0  0  0  0  0  0  0  0  0
    8.9580  -15.4591   21.5584 N   0  0  0  0  0  0  0  0  0  0  0  0
   10.0130  -16.3887   22.1234 C   0  0  1  0  0  0  0  0  0  0  0  0
   11.2637  -15.7898   21.5616 C   0  0  0  0  0  0  0  0  0  0  0  0
   12.5142  -16.4946   21.7495 C   0  0  0  0  0  0  0  0  0  0  0  0
   12.6811  -17.5541   22.3629 O   0  0  0  0  0  0  0  0  0  0  0  0
    9.8295  -16.2635   23.5657 C   0  0  0  0  0  0  0  0  0  0  0  0
    9.8162  -15.1033   24.0885 O   0  0  0  0  0  0  0  0  0  0  0  0
   13.6904  -15.9394   21.1845 O   0  0  0  0  0  0  0  0  0  0  0  0
    7.1485  -17.0826   27.1633 C   0  0  0  0  0  0  0  0  0  0  0  0
    7.7403  -16.9195   25.7939 C   0  0  1  0  0  0  0  0  0  0  0  0
    7.4355  -15.6503   25.3097 O   0  0  0  0  0  0  0  0  0  0  0  0
    9.2468  -17.1110   25.8353 C   0  0  2  0  0  0  0  0  0  0  0  0
    9.6587  -17.3361   24.4372 N   0  0  0  0  0  0  0  0  0  0  0  0
    9.6280  -18.2943   26.6317 C   0  0  0  0  0  0  0  0  0  0  0  0
    9.6361  -19.4488   26.1628 O   0  0  0  0  0  0  0  0  0  0  0  0
    9.9999  -18.1591   27.9642 O   0  0  0  0  0  0  0  0  0  0  0  0
  2  1  1  6
  3  2  1  0
  4  3  1  0
  5  6  1  0
  5  4  1  0
  6  7  1  0
  8  9  2  0
  8  2  1  0
 10  8  1  0
 11 10  1  0
 12 13  1  0
 11 12  1  1
 13 17  1  0
 14 13  2  0
 15 16  2  0
 15 11  1  0
 19 21  1  0
 19 18  1  1
 20 19  1  0
 21 22  1  6
 22 15  1  0
 23 21  1  0
 24 23  2  0
 25 23  1  0
M  END
$$$$
