KDT.pdb
     RDKit          3D

 25 24  0  0  1  0  0  0  0  0999 V2000
    6.0368  -16.9819   19.9951 N   0  0  0  0  0  0  0  0  0  0  0  0
    7.4416  -16.9568   20.3248 C   0  0  1  0  0  0  0  0  0  0  0  0
    8.1727  -15.8585   19.6110 C   0  0  0  0  0  0  0  0  0  0  0  0
    7.5413  -14.5056   19.8416 C   0  0  0  0  0  0  0  0  0  0  0  0
    7.5624  -13.6508   18.6073 C   0  0  0  0  0  0  0  0  0  0  0  0
    8.3014  -12.3495   18.8082 C   0  0  0  0  0  0  0  0  0  0  0  0
    8.2978  -11.9745   20.2089 N   0  0  0  0  0  0  0  0  0  0  0  0
    7.6181  -16.8834   21.7976 C   0  0  0  0  0  0  0  0  0  0  0  0
    6.6240  -16.8168   22.5623 O   0  0  0  0  0  0  0  0  0  0  0  0
    8.9031  -16.8887   22.3400 N   0  0  0  0  0  0  0  0  0  0  0  0
    9.1373  -17.1074   23.8212 C   0  0  1  0  0  0  0  0  0  0  0  0
   10.5122  -17.6973   23.8172 C   0  0  0  0  0  0  0  0  0  0  0  0
   11.1737  -17.9208   25.0854 C   0  0  0  0  0  0  0  0  0  0  0  0
   10.6639  -18.3739   26.1157 O   0  0  0  0  0  0  0  0  0  0  0  0
    9.0130  -15.7650   24.3799 C   0  0  0  0  0  0  0  0  0  0  0  0
    9.3381  -14.7649   23.6633 O   0  0  0  0  0  0  0  0  0  0  0  0
   12.5501  -17.5966   25.1923 O   0  0  0  0  0  0  0  0  0  0  0  0
    6.6590  -12.3614   26.4334 C   0  0  0  0  0  0  0  0  0  0  0  0
    6.9838  -13.6899   25.8157 C   0  0  1  0  0  0  0  0  0  0  0  0
    6.7968  -13.6143   24.4381 O   0  0  0  0  0  0  0  0  0  0  0  0
    8.4174  -14.0876   26.1236 C   0  0  2  0  0  0  0  0  0  0  0  0
    8.5519  -15.4822   25.6631 N   0  0  0  0  0  0  0  0  0  0  0  0
    8.7001  -14.0437   27.5720 C   0  0  0  0  0  0  0  0  0  0  0  0
    8.5996  -13.0014   28.2475 O   0  0  0  0  0  0  0  0  0  0  0  0
    9.0980  -15.1905   28.2492 O   0  0  0  0  0  0  0  0  0  0  0  0
  2  1  1  1
  3  2  1  0
  4  3  1  0
  5  6  1  0
  5  4  1  0
  6  7  1  0
  8  9  2  0
  8  2  1  0
 10  8  1  0
 11 10  1  0
 12 13  1  0
 11 12  1  6
 13 17  1  0
 14 13  2  0
 15 16  2  0
 15 11  1  0
 19 21  1  0
 19 18  1  1
 20 19  1  0
 21 22  1  1
 22 15  1  0
 23 21  1  0
 24 23  2  0
 25 23  1  0
M  END
$$$$
