KDT.pdb
     RDKit          3D

 25 24  0  0  1  0  0  0  0  0999 V2000
    6.6647  -16.5725   21.1089 N   0  0  0  0  0  0  0  0  0  0  0  0
    7.8219  -15.7934   21.4788 C   0  0  1  0  0  0  0  0  0  0  0  0
    7.5211  -14.3252   21.5427 C   0  0  0  0  0  0  0  0  0  0  0  0
    7.0504  -13.7785   20.2154 C   0  0  0  0  0  0  0  0  0  0  0  0
    8.1567  -13.7156   19.2022 C   0  0  0  0  0  0  0  0  0  0  0  0
    7.7448  -13.0197   17.9270 C   0  0  0  0  0  0  0  0  0  0  0  0
    8.8525  -12.9750   16.9924 N   0  0  0  0  0  0  0  0  0  0  0  0
    8.3951  -16.3045   22.7500 C   0  0  0  0  0  0  0  0  0  0  0  0
    7.6548  -16.7929   23.6393 O   0  0  0  0  0  0  0  0  0  0  0  0
    9.7725  -16.2423   22.9604 N   0  0  0  0  0  0  0  0  0  0  0  0
   10.4117  -16.8287   24.2031 C   0  0  1  0  0  0  0  0  0  0  0  0
   11.7641  -17.2070   23.6872 C   0  0  0  0  0  0  0  0  0  0  0  0
   12.7630  -17.6624   24.6309 C   0  0  0  0  0  0  0  0  0  0  0  0
   12.5868  -18.4348   25.5792 O   0  0  0  0  0  0  0  0  0  0  0  0
   10.3703  -15.7216   25.1529 C   0  0  0  0  0  0  0  0  0  0  0  0
   10.9539  -14.6304   24.8560 O   0  0  0  0  0  0  0  0  0  0  0  0
   14.0927  -17.1928   24.4817 O   0  0  0  0  0  0  0  0  0  0  0  0
    8.3562  -13.1495   26.0947 C   0  0  0  0  0  0  0  0  0  0  0  0
    8.5429  -13.9319   27.3616 C   0  0  1  0  0  0  0  0  0  0  0  0
    7.5044  -14.8498   27.4922 O   0  0  0  0  0  0  0  0  0  0  0  0
    9.8779  -14.6570   27.3514 C   0  0  2  0  0  0  0  0  0  0  0  0
    9.7244  -15.7613   26.3860 N   0  0  0  0  0  0  0  0  0  0  0  0
   10.2004  -15.2318   28.6725 C   0  0  0  0  0  0  0  0  0  0  0  0
   10.2029  -16.4584   28.8919 O   0  0  0  0  0  0  0  0  0  0  0  0
   10.5199  -14.4054   29.7436 O   0  0  0  0  0  0  0  0  0  0  0  0
  2  1  1  1
  3  2  1  0
  4  3  1  0
  5  6  1  0
  5  4  1  0
  6  7  1  0
  8  9  2  0
  8  2  1  0
 10  8  1  0
 11 10  1  0
 12 13  1  0
 11 12  1  6
 13 17  1  0
 14 13  2  0
 15 16  2  0
 15 11  1  0
 19 21  1  0
 19 18  1  6
 20 19  1  0
 21 22  1  6
 22 15  1  0
 23 21  1  0
 24 23  2  0
 25 23  1  0
M  END
$$$$
