KDT.pdb
     RDKit          3D

 25 24  0  0  1  0  0  0  0  0999 V2000
    8.0872  -18.6452   18.4558 N   0  0  0  0  0  0  0  0  0  0  0  0
    8.1895  -17.6826   19.5262 C   0  0  1  0  0  0  0  0  0  0  0  0
    6.8752  -17.4552   20.2126 C   0  0  0  0  0  0  0  0  0  0  0  0
    6.3091  -18.7257   20.8020 C   0  0  0  0  0  0  0  0  0  0  0  0
    4.9840  -19.0912   20.1979 C   0  0  0  0  0  0  0  0  0  0  0  0
    4.4430  -20.4007   20.7200 C   0  0  0  0  0  0  0  0  0  0  0  0
    3.1591  -20.6970   20.1147 N   0  0  0  0  0  0  0  0  0  0  0  0
    9.2559  -18.0887   20.4766 C   0  0  0  0  0  0  0  0  0  0  0  0
    9.4702  -19.3014   20.7236 O   0  0  0  0  0  0  0  0  0  0  0  0
   10.0304  -17.1126   21.1035 N   0  0  0  0  0  0  0  0  0  0  0  0
   11.1988  -17.4802   21.9959 C   0  0  1  0  0  0  0  0  0  0  0  0
   12.3181  -16.7406   21.3337 C   0  0  0  0  0  0  0  0  0  0  0  0
   13.6632  -16.9254   21.8361 C   0  0  0  0  0  0  0  0  0  0  0  0
   14.6814  -16.3365   21.4578 O   0  0  0  0  0  0  0  0  0  0  0  0
   10.7856  -16.9869   23.3056 C   0  0  0  0  0  0  0  0  0  0  0  0
   10.5826  -15.7402   23.4606 O   0  0  0  0  0  0  0  0  0  0  0  0
   13.8705  -17.8736   22.8700 O   0  0  0  0  0  0  0  0  0  0  0  0
    7.8439  -17.5842   24.7369 C   0  0  0  0  0  0  0  0  0  0  0  0
    8.7596  -16.5784   25.3706 C   0  0  1  0  0  0  0  0  0  0  0  0
    8.1719  -16.0910   26.5348 O   0  0  0  0  0  0  0  0  0  0  0  0
   10.1048  -17.2070   25.6925 C   0  0  2  0  0  0  0  0  0  0  0  0
   10.5860  -17.7896   24.4259 N   0  0  0  0  0  0  0  0  0  0  0  0
    9.9803  -18.2899   26.6882 C   0  0  0  0  0  0  0  0  0  0  0  0
   10.1127  -19.4938   26.3954 O   0  0  0  0  0  0  0  0  0  0  0  0
    9.7044  -17.9978   28.0189 O   0  0  0  0  0  0  0  0  0  0  0  0
  2  1  1  6
  3  2  1  0
  4  3  1  0
  5  6  1  0
  5  4  1  0
  6  7  1  0
  8  9  2  0
  8  2  1  0
 10  8  1  0
 11 10  1  0
 12 13  1  0
 11 12  1  6
 13 17  1  0
 14 13  2  0
 15 16  2  0
 15 11  1  0
 19 21  1  0
 19 18  1  1
 20 19  1  0
 21 22  1  6
 22 15  1  0
 23 21  1  0
 24 23  2  0
 25 23  1  0
M  END
$$$$
