KDT.pdb
     RDKit          3D

 25 24  0  0  1  0  0  0  0  0999 V2000
    6.4447  -15.8529   20.3137 N   0  0  0  0  0  0  0  0  0  0  0  0
    7.6514  -15.1699   20.7140 C   0  0  1  0  0  0  0  0  0  0  0  0
    7.4868  -13.6788   20.7128 C   0  0  0  0  0  0  0  0  0  0  0  0
    7.1319  -13.1427   19.3458 C   0  0  0  0  0  0  0  0  0  0  0  0
    8.0292  -13.6861   18.2716 C   0  0  0  0  0  0  0  0  0  0  0  0
    7.6900  -13.1541   16.8998 C   0  0  0  0  0  0  0  0  0  0  0  0
    8.5472  -13.7545   15.8962 N   0  0  0  0  0  0  0  0  0  0  0  0
    8.1146  -15.6820   22.0288 C   0  0  0  0  0  0  0  0  0  0  0  0
    7.2916  -16.0708   22.8942 O   0  0  0  0  0  0  0  0  0  0  0  0
    9.4803  -15.7329   22.3076 N   0  0  0  0  0  0  0  0  0  0  0  0
   10.0061  -16.3614   23.5824 C   0  0  1  0  0  0  0  0  0  0  0  0
   11.3942  -16.7401   23.1724 C   0  0  0  0  0  0  0  0  0  0  0  0
   11.5743  -17.9019   22.3277 C   0  0  0  0  0  0  0  0  0  0  0  0
   12.1728  -17.9455   21.2476 O   0  0  0  0  0  0  0  0  0  0  0  0
    9.8936  -15.2813   24.5573 C   0  0  0  0  0  0  0  0  0  0  0  0
   10.5430  -14.2042   24.3639 O   0  0  0  0  0  0  0  0  0  0  0  0
   11.0187  -19.1353   22.7533 O   0  0  0  0  0  0  0  0  0  0  0  0
    7.4746  -12.9131   25.3802 C   0  0  0  0  0  0  0  0  0  0  0  0
    7.7310  -13.6392   26.6683 C   0  0  1  0  0  0  0  0  0  0  0  0
    6.7892  -14.6533   26.8196 O   0  0  0  0  0  0  0  0  0  0  0  0
    9.1322  -14.2263   26.6824 C   0  0  2  0  0  0  0  0  0  0  0  0
    9.1106  -15.3329   25.7077 N   0  0  0  0  0  0  0  0  0  0  0  0
    9.4836  -14.7760   28.0068 C   0  0  0  0  0  0  0  0  0  0  0  0
    9.6364  -14.0600   29.0152 O   0  0  0  0  0  0  0  0  0  0  0  0
    9.6608  -16.1438   28.1796 O   0  0  0  0  0  0  0  0  0  0  0  0
  2  1  1  1
  3  2  1  0
  4  3  1  0
  5  6  1  0
  5  4  1  0
  6  7  1  0
  8  9  2  0
  8  2  1  0
 10  8  1  0
 11 10  1  0
 12 13  1  0
 11 12  1  6
 13 17  1  0
 14 13  2  0
 15 16  2  0
 15 11  1  0
 19 21  1  0
 19 18  1  6
 20 19  1  0
 21 22  1  6
 22 15  1  0
 23 21  1  0
 24 23  2  0
 25 23  1  0
M  END
$$$$
