KDT.pdb
     RDKit          3D

 25 24  0  0  1  0  0  0  0  0999 V2000
    9.5011  -16.8785   19.3766 N   0  0  0  0  0  0  0  0  0  0  0  0
    9.2864  -18.1037   20.1083 C   0  0  1  0  0  0  0  0  0  0  0  0
    9.2147  -19.2993   19.2050 C   0  0  0  0  0  0  0  0  0  0  0  0
    8.9830  -18.9146   17.7626 C   0  0  0  0  0  0  0  0  0  0  0  0
    7.9750  -19.8030   17.0924 C   0  0  0  0  0  0  0  0  0  0  0  0
    7.8419  -19.5271   15.6138 C   0  0  0  0  0  0  0  0  0  0  0  0
    6.8732  -20.4247   15.0151 N   0  0  0  0  0  0  0  0  0  0  0  0
   10.3229  -18.2571   21.1607 C   0  0  0  0  0  0  0  0  0  0  0  0
   10.3565  -19.2817   21.8864 O   0  0  0  0  0  0  0  0  0  0  0  0
   11.2718  -17.2519   21.3469 N   0  0  0  0  0  0  0  0  0  0  0  0
   12.2829  -17.3153   22.4740 C   0  0  1  0  0  0  0  0  0  0  0  0
   13.4555  -16.6213   21.8560 C   0  0  0  0  0  0  0  0  0  0  0  0
   14.6642  -16.4735   22.6388 C   0  0  0  0  0  0  0  0  0  0  0  0
   15.2155  -17.3446   23.3198 O   0  0  0  0  0  0  0  0  0  0  0  0
   11.6144  -16.6079   23.5613 C   0  0  0  0  0  0  0  0  0  0  0  0
   12.3186  -16.0836   24.4825 O   0  0  0  0  0  0  0  0  0  0  0  0
   15.3089  -15.2104   22.6483 O   0  0  0  0  0  0  0  0  0  0  0  0
    8.8182  -13.9081   23.4548 C   0  0  0  0  0  0  0  0  0  0  0  0
    8.4189  -15.0540   24.3376 C   0  0  1  0  0  0  0  0  0  0  0  0
    7.6091  -15.9283   23.6178 O   0  0  0  0  0  0  0  0  0  0  0  0
    9.6464  -15.7876   24.8508 C   0  0  2  0  0  0  0  0  0  0  0  0
   10.2351  -16.4521   23.6732 N   0  0  0  0  0  0  0  0  0  0  0  0
    9.2927  -16.8216   25.8435 C   0  0  0  0  0  0  0  0  0  0  0  0
    8.8132  -16.5481   26.9607 O   0  0  0  0  0  0  0  0  0  0  0  0
    9.4867  -18.1686   25.5603 O   0  0  0  0  0  0  0  0  0  0  0  0
  2  1  1  6
  3  2  1  0
  4  3  1  0
  5  6  1  0
  5  4  1  0
  6  7  1  0
  8  9  2  0
  8  2  1  0
 10  8  1  0
 11 10  1  0
 12 13  1  0
 11 12  1  6
 13 17  1  0
 14 13  2  0
 15 16  2  0
 15 11  1  0
 19 21  1  0
 19 18  1  6
 20 19  1  0
 21 22  1  6
 22 15  1  0
 23 21  1  0
 24 23  2  0
 25 23  1  0
M  END
$$$$
