KDT.pdb
     RDKit          3D

 25 24  0  0  1  0  0  0  0  0999 V2000
    9.0719  -20.7161   20.4259 N   0  0  0  0  0  0  0  0  0  0  0  0
    8.7438  -19.4140   20.9550 C   0  0  1  0  0  0  0  0  0  0  0  0
    7.5588  -19.4567   21.8737 C   0  0  0  0  0  0  0  0  0  0  0  0
    7.0322  -20.8596   22.0651 C   0  0  0  0  0  0  0  0  0  0  0  0
    5.6968  -20.8767   22.7513 C   0  0  0  0  0  0  0  0  0  0  0  0
    5.1437  -22.2713   22.9224 C   0  0  0  0  0  0  0  0  0  0  0  0
    3.8763  -22.2319   23.6258 N   0  0  0  0  0  0  0  0  0  0  0  0
    9.9362  -18.8128   21.6048 C   0  0  0  0  0  0  0  0  0  0  0  0
   10.6988  -19.5088   22.3201 O   0  0  0  0  0  0  0  0  0  0  0  0
   10.2143  -17.4587   21.4194 N   0  0  0  0  0  0  0  0  0  0  0  0
   11.4529  -16.8158   22.0104 C   0  0  1  0  0  0  0  0  0  0  0  0
   11.6869  -15.6920   21.0508 C   0  0  0  0  0  0  0  0  0  0  0  0
   13.0255  -15.4846   20.5402 C   0  0  0  0  0  0  0  0  0  0  0  0
   13.3817  -14.6265   19.7257 O   0  0  0  0  0  0  0  0  0  0  0  0
   11.0239  -16.4384   23.3532 C   0  0  0  0  0  0  0  0  0  0  0  0
   11.8784  -15.9520   24.1611 O   0  0  0  0  0  0  0  0  0  0  0  0
   14.0606  -16.3373   21.0010 O   0  0  0  0  0  0  0  0  0  0  0  0
    8.1085  -14.1848   24.4962 C   0  0  0  0  0  0  0  0  0  0  0  0
    8.0203  -15.5335   25.1482 C   0  0  1  0  0  0  0  0  0  0  0  0
    7.1477  -16.3391   24.4216 O   0  0  0  0  0  0  0  0  0  0  0  0
    9.3910  -16.1850   25.2183 C   0  0  2  0  0  0  0  0  0  0  0  0
    9.7227  -16.5660   23.8326 N   0  0  0  0  0  0  0  0  0  0  0  0
    9.3766  -17.4058   26.0485 C   0  0  0  0  0  0  0  0  0  0  0  0
    9.5698  -18.5435   25.5783 O   0  0  0  0  0  0  0  0  0  0  0  0
    9.1413  -17.3273   27.4162 O   0  0  0  0  0  0  0  0  0  0  0  0
  2  1  1  1
  3  2  1  0
  4  3  1  0
  5  6  1  0
  5  4  1  0
  6  7  1  0
  8  9  2  0
  8  2  1  0
 10  8  1  0
 11 10  1  0
 12 13  1  0
 11 12  1  6
 13 17  1  0
 14 13  2  0
 15 16  2  0
 15 11  1  0
 19 21  1  0
 19 18  1  6
 20 19  1  0
 21 22  1  6
 22 15  1  0
 23 21  1  0
 24 23  2  0
 25 23  1  0
M  END
$$$$
