KDT.pdb
     RDKit          3D

 25 24  0  0  1  0  0  0  0  0999 V2000
    7.4066  -18.0594   18.7119 N   0  0  0  0  0  0  0  0  0  0  0  0
    8.7077  -17.4572   18.8773 C   0  0  1  0  0  0  0  0  0  0  0  0
    8.7494  -16.0469   18.3677 C   0  0  0  0  0  0  0  0  0  0  0  0
    7.4160  -15.5963   17.8188 C   0  0  0  0  0  0  0  0  0  0  0  0
    7.4606  -14.1867   17.3036 C   0  0  0  0  0  0  0  0  0  0  0  0
    8.1891  -14.0668   15.9864 C   0  0  0  0  0  0  0  0  0  0  0  0
    8.2272  -12.6841   15.5514 N   0  0  0  0  0  0  0  0  0  0  0  0
    9.1375  -17.5542   20.2955 C   0  0  0  0  0  0  0  0  0  0  0  0
    8.3718  -18.0322   21.1688 O   0  0  0  0  0  0  0  0  0  0  0  0
   10.4072  -17.1096   20.6640 N   0  0  0  0  0  0  0  0  0  0  0  0
   10.9289  -17.2834   22.0762 C   0  0  1  0  0  0  0  0  0  0  0  0
   12.4055  -17.1797   21.8587 C   0  0  0  0  0  0  0  0  0  0  0  0
   13.2840  -17.2941   23.0036 C   0  0  0  0  0  0  0  0  0  0  0  0
   14.4524  -16.8999   23.0817 O   0  0  0  0  0  0  0  0  0  0  0  0
   10.3046  -16.1807   22.8000 C   0  0  0  0  0  0  0  0  0  0  0  0
   10.4833  -14.9905   22.3868 O   0  0  0  0  0  0  0  0  0  0  0  0
   12.7845  -17.9188   24.1747 O   0  0  0  0  0  0  0  0  0  0  0  0
    7.4529  -14.5741   22.7080 C   0  0  0  0  0  0  0  0  0  0  0  0
    7.5024  -15.0479   24.1310 C   0  0  1  0  0  0  0  0  0  0  0  0
    6.8813  -16.2905   24.2236 O   0  0  0  0  0  0  0  0  0  0  0  0
    8.9399  -15.1494   24.6120 C   0  0  2  0  0  0  0  0  0  0  0  0
    9.5058  -16.3289   23.9311 N   0  0  0  0  0  0  0  0  0  0  0  0
    9.0167  -15.3691   26.0699 C   0  0  0  0  0  0  0  0  0  0  0  0
    9.4732  -16.4146   26.5713 O   0  0  0  0  0  0  0  0  0  0  0  0
    8.5717  -14.3946   26.9556 O   0  0  0  0  0  0  0  0  0  0  0  0
  2  1  1  1
  3  2  1  0
  4  3  1  0
  5  6  1  0
  5  4  1  0
  6  7  1  0
  8  9  2  0
  8  2  1  0
 10  8  1  0
 11 10  1  0
 12 13  1  0
 11 12  1  6
 13 17  1  0
 14 13  2  0
 15 16  2  0
 15 11  1  0
 19 21  1  0
 19 18  1  6
 20 19  1  0
 21 22  1  6
 22 15  1  0
 23 21  1  0
 24 23  2  0
 25 23  1  0
M  END
$$$$
