KDT.pdb
     RDKit          3D

 25 24  0  0  1  0  0  0  0  0999 V2000
    9.5115  -13.9947   19.5742 N   0  0  0  0  0  0  0  0  0  0  0  0
    8.3185  -13.6512   20.3101 C   0  0  1  0  0  0  0  0  0  0  0  0
    7.0808  -13.7660   19.4703 C   0  0  0  0  0  0  0  0  0  0  0  0
    7.3166  -13.3382   18.0408 C   0  0  0  0  0  0  0  0  0  0  0  0
    7.5189  -14.5093   17.1231 C   0  0  0  0  0  0  0  0  0  0  0  0
    7.5749  -14.1108   15.6678 C   0  0  0  0  0  0  0  0  0  0  0  0
    7.9706  -15.2390   14.8473 N   0  0  0  0  0  0  0  0  0  0  0  0
    8.2327  -14.4642   21.5499 C   0  0  0  0  0  0  0  0  0  0  0  0
    7.1486  -14.5720   22.1750 O   0  0  0  0  0  0  0  0  0  0  0  0
    9.3689  -15.1172   22.0273 N   0  0  0  0  0  0  0  0  0  0  0  0
    9.3223  -15.9820   23.2710 C   0  0  1  0  0  0  0  0  0  0  0  0
   10.5629  -16.8018   23.1053 C   0  0  0  0  0  0  0  0  0  0  0  0
   10.5992  -17.7989   22.0565 C   0  0  0  0  0  0  0  0  0  0  0  0
   11.4941  -17.9602   21.2199 O   0  0  0  0  0  0  0  0  0  0  0  0
    9.3343  -15.0062   24.3559 C   0  0  0  0  0  0  0  0  0  0  0  0
   10.2506  -14.1236   24.3832 O   0  0  0  0  0  0  0  0  0  0  0  0
    9.5104  -18.7010   21.9482 O   0  0  0  0  0  0  0  0  0  0  0  0
    7.0154  -12.3461   25.3105 C   0  0  0  0  0  0  0  0  0  0  0  0
    7.1757  -13.2409   26.5044 C   0  0  1  0  0  0  0  0  0  0  0  0
    6.1408  -14.1720   26.5232 O   0  0  0  0  0  0  0  0  0  0  0  0
    8.5157  -13.9556   26.4619 C   0  0  2  0  0  0  0  0  0  0  0  0
    8.3990  -14.9581   25.3865 N   0  0  0  0  0  0  0  0  0  0  0  0
    8.8030  -14.6588   27.7279 C   0  0  0  0  0  0  0  0  0  0  0  0
    8.8555  -15.9009   27.8126 O   0  0  0  0  0  0  0  0  0  0  0  0
    9.0303  -13.9432   28.8977 O   0  0  0  0  0  0  0  0  0  0  0  0
  2  1  1  6
  3  2  1  0
  4  3  1  0
  5  6  1  0
  5  4  1  0
  6  7  1  0
  8  9  2  0
  8  2  1  0
 10  8  1  0
 11 10  1  0
 12 13  1  0
 11 12  1  1
 13 17  1  0
 14 13  2  0
 15 16  2  0
 15 11  1  0
 19 21  1  0
 19 18  1  6
 20 19  1  0
 21 22  1  6
 22 15  1  0
 23 21  1  0
 24 23  2  0
 25 23  1  0
M  END
$$$$
