KDT.pdb
     RDKit          3D

 25 24  0  0  1  0  0  0  0  0999 V2000
    6.3415  -15.8920   20.9545 N   0  0  0  0  0  0  0  0  0  0  0  0
    7.6235  -15.3260   21.2994 C   0  0  1  0  0  0  0  0  0  0  0  0
    7.6027  -13.8261   21.2910 C   0  0  0  0  0  0  0  0  0  0  0  0
    7.3062  -13.2648   19.9202 C   0  0  0  0  0  0  0  0  0  0  0  0
    8.2517  -13.7852   18.8763 C   0  0  0  0  0  0  0  0  0  0  0  0
    7.9248  -13.2871   17.4888 C   0  0  0  0  0  0  0  0  0  0  0  0
    8.7411  -13.9651   16.5006 N   0  0  0  0  0  0  0  0  0  0  0  0
    8.0892  -15.8734   22.5990 C   0  0  0  0  0  0  0  0  0  0  0  0
    7.2701  -16.1612   23.5067 O   0  0  0  0  0  0  0  0  0  0  0  0
    9.4526  -16.0713   22.8161 N   0  0  0  0  0  0  0  0  0  0  0  0
    9.9647  -16.7594   24.0654 C   0  0  1  0  0  0  0  0  0  0  0  0
   11.2434  -17.3566   23.5687 C   0  0  0  0  0  0  0  0  0  0  0  0
   12.0543  -18.1230   24.4912 C   0  0  0  0  0  0  0  0  0  0  0  0
   11.7921  -18.3763   25.6718 O   0  0  0  0  0  0  0  0  0  0  0  0
   10.0930  -15.6636   25.0205 C   0  0  0  0  0  0  0  0  0  0  0  0
   10.8440  -14.6775   24.7325 O   0  0  0  0  0  0  0  0  0  0  0  0
   13.2843  -18.6529   24.0251 O   0  0  0  0  0  0  0  0  0  0  0  0
    8.1575  -12.9281   26.1022 C   0  0  0  0  0  0  0  0  0  0  0  0
    8.4215  -13.7410   27.3357 C   0  0  1  0  0  0  0  0  0  0  0  0
    7.3641  -14.6234   27.5398 O   0  0  0  0  0  0  0  0  0  0  0  0
    9.7227  -14.5133   27.1997 C   0  0  2  0  0  0  0  0  0  0  0  0
    9.4407  -15.6054   26.2495 N   0  0  0  0  0  0  0  0  0  0  0  0
   10.1451  -15.1075   28.4836 C   0  0  0  0  0  0  0  0  0  0  0  0
   10.1515  -16.3367   28.6881 O   0  0  0  0  0  0  0  0  0  0  0  0
   10.5600  -14.2976   29.5343 O   0  0  0  0  0  0  0  0  0  0  0  0
  2  1  1  1
  3  2  1  0
  4  3  1  0
  5  6  1  0
  5  4  1  0
  6  7  1  0
  8  9  2  0
  8  2  1  0
 10  8  1  0
 11 10  1  0
 12 13  1  0
 11 12  1  6
 13 17  1  0
 14 13  2  0
 15 16  2  0
 15 11  1  0
 19 21  1  0
 19 18  1  6
 20 19  1  0
 21 22  1  6
 22 15  1  0
 23 21  1  0
 24 23  2  0
 25 23  1  0
M  END
$$$$
