KDT.pdb
     RDKit          3D

 25 24  0  0  1  0  0  0  0  0999 V2000
    8.0705  -17.5510   19.3764 N   0  0  0  0  0  0  0  0  0  0  0  0
    9.3001  -16.8964   19.7537 C   0  0  1  0  0  0  0  0  0  0  0  0
    9.2001  -15.4026   19.6591 C   0  0  0  0  0  0  0  0  0  0  0  0
    7.7817  -14.9366   19.4287 C   0  0  0  0  0  0  0  0  0  0  0  0
    7.6883  -13.4438   19.2970 C   0  0  0  0  0  0  0  0  0  0  0  0
    6.2902  -12.9698   18.9794 C   0  0  0  0  0  0  0  0  0  0  0  0
    6.2613  -11.5261   18.8481 N   0  0  0  0  0  0  0  0  0  0  0  0
    9.7230  -17.3459   21.1045 C   0  0  0  0  0  0  0  0  0  0  0  0
    8.9571  -18.0356   21.8223 O   0  0  0  0  0  0  0  0  0  0  0  0
   10.9862  -16.9992   21.5834 N   0  0  0  0  0  0  0  0  0  0  0  0
   11.5232  -17.5628   22.8837 C   0  0  1  0  0  0  0  0  0  0  0  0
   12.9786  -17.2365   22.7664 C   0  0  0  0  0  0  0  0  0  0  0  0
   13.8623  -17.6135   23.8494 C   0  0  0  0  0  0  0  0  0  0  0  0
   15.0837  -17.4349   23.9035 O   0  0  0  0  0  0  0  0  0  0  0  0
   10.7770  -16.8267   23.8991 C   0  0  0  0  0  0  0  0  0  0  0  0
   10.3506  -15.6589   23.6273 O   0  0  0  0  0  0  0  0  0  0  0  0
   13.3017  -18.2572   24.9818 O   0  0  0  0  0  0  0  0  0  0  0  0
    8.6909  -15.2757   24.2415 C   0  0  0  0  0  0  0  0  0  0  0  0
    8.4363  -16.1176   25.4573 C   0  0  1  0  0  0  0  0  0  0  0  0
    7.7583  -17.2741   25.0819 O   0  0  0  0  0  0  0  0  0  0  0  0
    9.7438  -16.4814   26.1401 C   0  0  2  0  0  0  0  0  0  0  0  0
   10.4822  -17.3120   25.1706 N   0  0  0  0  0  0  0  0  0  0  0  0
    9.5212  -17.2768   27.3638 C   0  0  0  0  0  0  0  0  0  0  0  0
    9.8181  -18.4842   27.4468 O   0  0  0  0  0  0  0  0  0  0  0  0
    8.9591  -16.6932   28.4932 O   0  0  0  0  0  0  0  0  0  0  0  0
  2  1  1  1
  3  2  1  0
  4  3  1  0
  5  6  1  0
  5  4  1  0
  6  7  1  0
  8  9  2  0
  8  2  1  0
 10  8  1  0
 11 10  1  0
 12 13  1  0
 11 12  1  1
 13 17  1  0
 14 13  2  0
 15 16  2  0
 15 11  1  0
 19 21  1  0
 19 18  1  6
 20 19  1  0
 21 22  1  6
 22 15  1  0
 23 21  1  0
 24 23  2  0
 25 23  1  0
M  END
$$$$
