KDT.pdb
     RDKit          3D

 25 24  0  0  1  0  0  0  0  0999 V2000
    6.3440  -17.0641   20.6895 N   0  0  0  0  0  0  0  0  0  0  0  0
    7.7551  -16.9431   20.9668 C   0  0  1  0  0  0  0  0  0  0  0  0
    8.4068  -15.8754   20.1389 C   0  0  0  0  0  0  0  0  0  0  0  0
    7.6889  -14.5504   20.2443 C   0  0  0  0  0  0  0  0  0  0  0  0
    8.3765  -13.4678   19.4634 C   0  0  0  0  0  0  0  0  0  0  0  0
    7.7435  -12.1111   19.6599 C   0  0  0  0  0  0  0  0  0  0  0  0
    8.3922  -11.1219   18.8213 N   0  0  0  0  0  0  0  0  0  0  0  0
    7.9728  -16.7363   22.4213 C   0  0  0  0  0  0  0  0  0  0  0  0
    7.0134  -16.4567   23.1822 O   0  0  0  0  0  0  0  0  0  0  0  0
    9.2578  -16.8540   22.9507 N   0  0  0  0  0  0  0  0  0  0  0  0
    9.4990  -16.8855   24.4465 C   0  0  1  0  0  0  0  0  0  0  0  0
   10.9123  -17.3729   24.5059 C   0  0  0  0  0  0  0  0  0  0  0  0
   11.1766  -18.7673   24.2208 C   0  0  0  0  0  0  0  0  0  0  0  0
   12.1379  -19.2247   23.5936 O   0  0  0  0  0  0  0  0  0  0  0  0
    9.2770  -15.5005   24.8489 C   0  0  0  0  0  0  0  0  0  0  0  0
    9.9856  -14.5832   24.3237 O   0  0  0  0  0  0  0  0  0  0  0  0
   10.2568  -19.7368   24.6952 O   0  0  0  0  0  0  0  0  0  0  0  0
    6.5221  -12.9299   24.8995 C   0  0  0  0  0  0  0  0  0  0  0  0
    6.9398  -13.2221   26.3109 C   0  0  1  0  0  0  0  0  0  0  0  0
    6.0813  -14.1724   26.8569 O   0  0  0  0  0  0  0  0  0  0  0  0
    8.3705  -13.7314   26.3515 C   0  0  2  0  0  0  0  0  0  0  0  0
    8.3264  -15.0903   25.7802 N   0  0  0  0  0  0  0  0  0  0  0  0
    8.8822  -13.8212   27.7335 C   0  0  0  0  0  0  0  0  0  0  0  0
    9.1692  -14.9050   28.2773 O   0  0  0  0  0  0  0  0  0  0  0  0
    9.0660  -12.6727   28.4948 O   0  0  0  0  0  0  0  0  0  0  0  0
  2  1  1  1
  3  2  1  0
  4  3  1  0
  5  6  1  0
  5  4  1  0
  6  7  1  0
  8  9  2  0
  8  2  1  0
 10  8  1  0
 11 10  1  0
 12 13  1  0
 11 12  1  6
 13 17  1  0
 14 13  2  0
 15 16  2  0
 15 11  1  0
 19 21  1  0
 19 18  1  6
 20 19  1  0
 21 22  1  1
 22 15  1  0
 23 21  1  0
 24 23  2  0
 25 23  1  0
M  END
$$$$
