KDT.pdb
     RDKit          3D

 25 24  0  0  1  0  0  0  0  0999 V2000
    6.9273  -17.1455   19.8480 N   0  0  0  0  0  0  0  0  0  0  0  0
    7.8776  -16.1776   20.3407 C   0  0  1  0  0  0  0  0  0  0  0  0
    7.2064  -14.9790   20.9434 C   0  0  0  0  0  0  0  0  0  0  0  0
    7.5032  -13.7108   20.1780 C   0  0  0  0  0  0  0  0  0  0  0  0
    7.5688  -13.9435   18.6961 C   0  0  0  0  0  0  0  0  0  0  0  0
    7.8541  -12.6820   17.9168 C   0  0  0  0  0  0  0  0  0  0  0  0
    7.9622  -12.9738   16.5006 N   0  0  0  0  0  0  0  0  0  0  0  0
    8.8220  -16.8260   21.2858 C   0  0  0  0  0  0  0  0  0  0  0  0
    8.4393  -17.7500   22.0456 O   0  0  0  0  0  0  0  0  0  0  0  0
   10.1510  -16.4052   21.3313 N   0  0  0  0  0  0  0  0  0  0  0  0
   11.1581  -17.0588   22.2561 C   0  0  1  0  0  0  0  0  0  0  0  0
   12.4493  -16.5951   21.6592 C   0  0  0  0  0  0  0  0  0  0  0  0
   13.0306  -17.3668   20.5811 C   0  0  0  0  0  0  0  0  0  0  0  0
   13.6623  -16.9276   19.6142 O   0  0  0  0  0  0  0  0  0  0  0  0
   10.8171  -16.5071   23.5634 C   0  0  0  0  0  0  0  0  0  0  0  0
   10.5589  -15.2649   23.6616 O   0  0  0  0  0  0  0  0  0  0  0  0
   12.8780  -18.7764   20.6049 O   0  0  0  0  0  0  0  0  0  0  0  0
    8.0006  -17.0835   25.1776 C   0  0  0  0  0  0  0  0  0  0  0  0
    8.9318  -16.0286   25.6994 C   0  0  1  0  0  0  0  0  0  0  0  0
    8.3927  -15.4706   26.8554 O   0  0  0  0  0  0  0  0  0  0  0  0
   10.2986  -16.6209   25.9979 C   0  0  2  0  0  0  0  0  0  0  0  0
   10.7447  -17.2484   24.7400 N   0  0  0  0  0  0  0  0  0  0  0  0
   10.2291  -17.6629   27.0416 C   0  0  0  0  0  0  0  0  0  0  0  0
    9.8974  -17.4184   28.2176 O   0  0  0  0  0  0  0  0  0  0  0  0
   10.5388  -18.9845   26.7422 O   0  0  0  0  0  0  0  0  0  0  0  0
  2  1  1  1
  3  2  1  0
  4  3  1  0
  5  6  1  0
  5  4  1  0
  6  7  1  0
  8  9  2  0
  8  2  1  0
 10  8  1  0
 11 10  1  0
 12 13  1  0
 11 12  1  6
 13 17  1  0
 14 13  2  0
 15 16  2  0
 15 11  1  0
 19 21  1  0
 19 18  1  1
 20 19  1  0
 21 22  1  6
 22 15  1  0
 23 21  1  0
 24 23  2  0
 25 23  1  0
M  END
$$$$
