KDT.pdb
     RDKit          3D

 25 24  0  0  1  0  0  0  0  0999 V2000
    9.1474  -15.5207   19.5947 N   0  0  0  0  0  0  0  0  0  0  0  0
    8.7668  -14.5175   20.5598 C   0  0  1  0  0  0  0  0  0  0  0  0
    7.6521  -13.6454   20.0626 C   0  0  0  0  0  0  0  0  0  0  0  0
    7.2259  -14.0050   18.6586 C   0  0  0  0  0  0  0  0  0  0  0  0
    8.1415  -13.4234   17.6203 C   0  0  0  0  0  0  0  0  0  0  0  0
    7.6554  -13.6616   16.2107 C   0  0  0  0  0  0  0  0  0  0  0  0
    8.6162  -13.1552   15.2500 N   0  0  0  0  0  0  0  0  0  0  0  0
    8.4408  -15.1582   21.8594 C   0  0  0  0  0  0  0  0  0  0  0  0
    7.2837  -15.0825   22.3419 O   0  0  0  0  0  0  0  0  0  0  0  0
    9.4307  -15.8534   22.5538 N   0  0  0  0  0  0  0  0  0  0  0  0
    9.1589  -16.4784   23.9074 C   0  0  1  0  0  0  0  0  0  0  0  0
   10.2094  -17.5427   23.9557 C   0  0  0  0  0  0  0  0  0  0  0  0
   10.3303  -18.3425   25.1563 C   0  0  0  0  0  0  0  0  0  0  0  0
   11.2398  -19.1329   25.4300 O   0  0  0  0  0  0  0  0  0  0  0  0
    9.3298  -15.3613   24.8305 C   0  0  0  0  0  0  0  0  0  0  0  0
   10.4075  -14.6857   24.7904 O   0  0  0  0  0  0  0  0  0  0  0  0
    9.3170  -18.2329   26.1423 O   0  0  0  0  0  0  0  0  0  0  0  0
    7.3105  -12.1939   25.4705 C   0  0  0  0  0  0  0  0  0  0  0  0
    7.4224  -12.9999   26.7314 C   0  0  1  0  0  0  0  0  0  0  0  0
    6.2948  -13.8058   26.8633 O   0  0  0  0  0  0  0  0  0  0  0  0
    8.6747  -13.8597   26.7081 C   0  0  2  0  0  0  0  0  0  0  0  0
    8.3845  -14.9615   25.7717 N   0  0  0  0  0  0  0  0  0  0  0  0
    8.9683  -14.4379   28.0344 C   0  0  0  0  0  0  0  0  0  0  0  0
    8.8875  -15.6587   28.2708 O   0  0  0  0  0  0  0  0  0  0  0  0
    9.3540  -13.6215   29.0913 O   0  0  0  0  0  0  0  0  0  0  0  0
  2  1  1  6
  3  2  1  0
  4  3  1  0
  5  6  1  0
  5  4  1  0
  6  7  1  0
  8  9  2  0
  8  2  1  0
 10  8  1  0
 11 10  1  0
 12 13  1  0
 11 12  1  1
 13 17  1  0
 14 13  2  0
 15 16  2  0
 15 11  1  0
 19 21  1  0
 19 18  1  6
 20 19  1  0
 21 22  1  6
 22 15  1  0
 23 21  1  0
 24 23  2  0
 25 23  1  0
M  END
$$$$
