SVA.pdb
     RDKit          3D

 19 18  0  0  1  0  0  0  0  0999 V2000
    8.1108  -19.3285   18.6370 O   0  0  0  0  0  0  0  0  0  0  0  0
    7.0413  -18.4743   18.5237 C   0  0  0  0  0  0  0  0  0  0  0  0
    7.4561  -17.1634   17.8641 C   0  0  2  0  0  0  0  0  0  0  0  0
    8.0343  -17.4870   16.5972 N   0  0  0  0  0  0  0  0  0  0  0  0
    8.4033  -16.4098   18.7340 C   0  0  0  0  0  0  0  0  0  0  0  0
    9.6243  -16.4386   18.4978 O   0  0  0  0  0  0  0  0  0  0  0  0
    6.8431  -14.1883   22.0017 C   0  0  0  0  0  0  0  0  0  0  0  0
    8.1032  -13.7942   21.3130 C   0  0  2  0  0  0  0  0  0  0  0  0
    7.7410  -12.8762   20.1411 C   0  0  0  0  0  0  0  0  0  0  0  0
    8.9048  -14.9273   20.7228 C   0  0  2  0  0  0  0  0  0  0  0  0
    7.9564  -15.6459   19.8429 N   0  0  0  0  0  0  0  0  0  0  0  0
    9.3705  -15.8063   21.8009 C   0  0  0  0  0  0  0  0  0  0  0  0
    8.5360  -16.6466   22.2848 O   0  0  0  0  0  0  0  0  0  0  0  0
   12.5096  -16.9740   23.4239 C   0  0  0  0  0  0  0  0  0  0  0  0
   10.9899  -16.7754   23.4652 C   0  0  2  0  0  0  0  0  0  0  0  0
   10.6563  -15.8384   22.3791 N   0  0  0  0  0  0  0  0  0  0  0  0
   10.6615  -16.2094   24.7788 C   0  0  0  0  0  0  0  0  0  0  0  0
   10.2654  -15.0250   24.8486 O   0  0  0  0  0  0  0  0  0  0  0  0
   10.7824  -16.9593   25.9297 O   0  0  0  0  0  0  0  0  0  0  0  0
  2  1  1  0
  3  2  1  0
  3  4  1  6
  5 11  1  0
  5  3  1  0
  6  5  2  0
  8  7  1  6
  8 10  1  0
  9  8  1  0
 10 12  1  0
 10 11  1  6
 12 16  1  0
 13 12  2  0
 15 14  1  1
 16 15  1  0
 17 15  1  0
 17 19  1  0
 18 17  2  0
M  END
$$$$
