SVA.pdb
     RDKit          3D

 19 18  0  0  1  0  0  0  0  0999 V2000
    5.9851  -19.6898   17.7758 O   0  0  0  0  0  0  0  0  0  0  0  0
    6.8212  -18.9067   18.5336 C   0  0  0  0  0  0  0  0  0  0  0  0
    7.2440  -17.6577   17.7674 C   0  0  2  0  0  0  0  0  0  0  0  0
    7.9443  -18.0905   16.5984 N   0  0  0  0  0  0  0  0  0  0  0  0
    8.0814  -16.7700   18.6233 C   0  0  0  0  0  0  0  0  0  0  0  0
    9.3127  -16.9377   18.6783 O   0  0  0  0  0  0  0  0  0  0  0  0
    7.0650  -12.8333   19.6381 C   0  0  0  0  0  0  0  0  0  0  0  0
    7.4445  -13.7686   20.7330 C   0  0  2  0  0  0  0  0  0  0  0  0
    8.2258  -12.9786   21.7878 C   0  0  0  0  0  0  0  0  0  0  0  0
    8.3339  -14.9176   20.3291 C   0  0  2  0  0  0  0  0  0  0  0  0
    7.5162  -15.7204   19.3925 N   0  0  0  0  0  0  0  0  0  0  0  0
    8.6769  -15.7075   21.5166 C   0  0  0  0  0  0  0  0  0  0  0  0
    7.7240  -16.0485   22.2991 O   0  0  0  0  0  0  0  0  0  0  0  0
   10.4713  -18.3177   22.8248 C   0  0  0  0  0  0  0  0  0  0  0  0
   10.1764  -16.8556   23.1795 C   0  0  2  0  0  0  0  0  0  0  0  0
    9.9587  -16.1475   21.9067 N   0  0  0  0  0  0  0  0  0  0  0  0
   11.3522  -16.3346   23.8864 C   0  0  0  0  0  0  0  0  0  0  0  0
   11.5720  -16.7097   25.0593 O   0  0  0  0  0  0  0  0  0  0  0  0
   12.2126  -15.4434   23.2806 O   0  0  0  0  0  0  0  0  0  0  0  0
  2  1  1  0
  3  2  1  0
  3  4  1  6
  5 11  1  0
  5  3  1  0
  6  5  2  0
  8  7  1  6
  8 10  1  0
  9  8  1  0
 10 12  1  0
 10 11  1  6
 12 16  1  0
 13 12  2  0
 15 14  1  6
 16 15  1  0
 17 15  1  0
 17 19  1  0
 18 17  2  0
M  END
$$$$
