SVA.pdb
     RDKit          3D

 19 18  0  0  1  0  0  0  0  0999 V2000
    7.8234  -19.4433   19.1401 O   0  0  0  0  0  0  0  0  0  0  0  0
    6.9151  -18.6696   18.4599 C   0  0  0  0  0  0  0  0  0  0  0  0
    7.5962  -17.4681   17.8132 C   0  0  2  0  0  0  0  0  0  0  0  0
    8.4397  -17.9652   16.7712 N   0  0  0  0  0  0  0  0  0  0  0  0
    8.3611  -16.6853   18.8250 C   0  0  0  0  0  0  0  0  0  0  0  0
    9.5873  -16.8553   18.9480 O   0  0  0  0  0  0  0  0  0  0  0  0
    7.2220  -12.8415   19.9921 C   0  0  0  0  0  0  0  0  0  0  0  0
    7.5682  -13.8224   21.0577 C   0  0  2  0  0  0  0  0  0  0  0  0
    8.2777  -13.0703   22.1882 C   0  0  0  0  0  0  0  0  0  0  0  0
    8.5030  -14.9312   20.6437 C   0  0  2  0  0  0  0  0  0  0  0  0
    7.7315  -15.7351   19.6696 N   0  0  0  0  0  0  0  0  0  0  0  0
    8.8472  -15.7405   21.8177 C   0  0  0  0  0  0  0  0  0  0  0  0
    7.8915  -16.3169   22.4431 O   0  0  0  0  0  0  0  0  0  0  0  0
   11.7277  -17.5728   23.1821 C   0  0  0  0  0  0  0  0  0  0  0  0
   10.3586  -16.9323   23.4385 C   0  0  2  0  0  0  0  0  0  0  0  0
   10.1334  -15.9660   22.3502 N   0  0  0  0  0  0  0  0  0  0  0  0
   10.4301  -16.2619   24.7419 C   0  0  0  0  0  0  0  0  0  0  0  0
   10.4634  -15.0120   24.7818 O   0  0  0  0  0  0  0  0  0  0  0  0
   10.4609  -16.9847   25.9159 O   0  0  0  0  0  0  0  0  0  0  0  0
  2  1  1  0
  3  2  1  0
  3  4  1  6
  5 11  1  0
  5  3  1  0
  6  5  2  0
  8  7  1  6
  8 10  1  0
  9  8  1  0
 10 12  1  0
 10 11  1  6
 12 16  1  0
 13 12  2  0
 15 14  1  6
 16 15  1  0
 17 15  1  0
 17 19  1  0
 18 17  2  0
M  END
$$$$
