SVA.pdb
     RDKit          3D

 19 18  0  0  1  0  0  0  0  0999 V2000
    6.1893  -17.4726   21.1748 O   0  0  0  0  0  0  0  0  0  0  0  0
    7.0289  -16.9351   22.1195 C   0  0  0  0  0  0  0  0  0  0  0  0
    7.1532  -15.4252   21.9449 C   0  0  2  0  0  0  0  0  0  0  0  0
    7.7820  -15.1917   20.6823 N   0  0  0  0  0  0  0  0  0  0  0  0
    7.9221  -14.8237   23.0713 C   0  0  0  0  0  0  0  0  0  0  0  0
    9.1551  -14.6860   22.9811 O   0  0  0  0  0  0  0  0  0  0  0  0
    6.4201  -12.0016   25.6383 C   0  0  0  0  0  0  0  0  0  0  0  0
    7.0737  -13.1732   26.2845 C   0  0  2  0  0  0  0  0  0  0  0  0
    7.8539  -12.6732   27.5045 C   0  0  0  0  0  0  0  0  0  0  0  0
    8.0687  -13.9176   25.4297 C   0  0  2  0  0  0  0  0  0  0  0  0
    7.2886  -14.3940   24.2658 N   0  0  0  0  0  0  0  0  0  0  0  0
    8.6057  -15.0536   26.1866 C   0  0  0  0  0  0  0  0  0  0  0  0
    7.7763  -15.9301   26.6113 O   0  0  0  0  0  0  0  0  0  0  0  0
   11.7672  -16.8708   26.7822 C   0  0  0  0  0  0  0  0  0  0  0  0
   10.3610  -16.4977   27.2659 C   0  0  2  0  0  0  0  0  0  0  0  0
    9.9563  -15.3021   26.5073 N   0  0  0  0  0  0  0  0  0  0  0  0
   10.4575  -16.2118   28.7021 C   0  0  0  0  0  0  0  0  0  0  0  0
   10.3439  -15.0298   29.0957 O   0  0  0  0  0  0  0  0  0  0  0  0
   10.6701  -17.2204   29.6182 O   0  0  0  0  0  0  0  0  0  0  0  0
  2  1  1  0
  3  2  1  0
  3  4  1  6
  5 11  1  0
  5  3  1  0
  6  5  2  0
  8  7  1  6
  8 10  1  0
  9  8  1  0
 10 12  1  0
 10 11  1  6
 12 16  1  0
 13 12  2  0
 15 14  1  6
 16 15  1  0
 17 15  1  0
 17 19  1  0
 18 17  2  0
M  END
$$$$
