SVA.pdb
     RDKit          3D

 19 18  0  0  1  0  0  0  0  0999 V2000
    6.7326  -19.1774   17.0010 O   0  0  0  0  0  0  0  0  0  0  0  0
    7.3827  -18.4791   17.9890 C   0  0  0  0  0  0  0  0  0  0  0  0
    7.8492  -17.1190   17.4808 C   0  0  2  0  0  0  0  0  0  0  0  0
    8.5790  -17.3423   16.2717 N   0  0  0  0  0  0  0  0  0  0  0  0
    8.6733  -16.4237   18.5100 C   0  0  0  0  0  0  0  0  0  0  0  0
    9.9064  -16.5856   18.5349 O   0  0  0  0  0  0  0  0  0  0  0  0
    6.7260  -14.2699   21.6326 C   0  0  0  0  0  0  0  0  0  0  0  0
    8.0270  -13.8124   21.0708 C   0  0  2  0  0  0  0  0  0  0  0  0
    7.7370  -12.8631   19.9038 C   0  0  0  0  0  0  0  0  0  0  0  0
    8.9142  -14.8979   20.5146 C   0  0  2  0  0  0  0  0  0  0  0  0
    8.0932  -15.5676   19.4812 N   0  0  0  0  0  0  0  0  0  0  0  0
    9.2590  -15.8398   21.5851 C   0  0  0  0  0  0  0  0  0  0  0  0
    8.3703  -16.6898   21.9378 O   0  0  0  0  0  0  0  0  0  0  0  0
   12.1392  -17.4254   23.1848 C   0  0  0  0  0  0  0  0  0  0  0  0
   10.6964  -16.9305   23.3389 C   0  0  2  0  0  0  0  0  0  0  0  0
   10.4799  -15.9240   22.2858 N   0  0  0  0  0  0  0  0  0  0  0  0
   10.5812  -16.3375   24.6763 C   0  0  0  0  0  0  0  0  0  0  0  0
   10.3602  -15.1106   24.7805 O   0  0  0  0  0  0  0  0  0  0  0  0
   10.7122  -17.1078   25.8126 O   0  0  0  0  0  0  0  0  0  0  0  0
  2  1  1  0
  3  2  1  0
  3  4  1  6
  5 11  1  0
  5  3  1  0
  6  5  2  0
  8  7  1  6
  8 10  1  0
  9  8  1  0
 10 12  1  0
 10 11  1  6
 12 16  1  0
 13 12  2  0
 15 14  1  6
 16 15  1  0
 17 15  1  0
 17 19  1  0
 18 17  2  0
M  END
$$$$
