SVA.pdb
     RDKit          3D

 19 18  0  0  1  0  0  0  0  0999 V2000
    6.2847  -17.5215   21.2949 O   0  0  0  0  0  0  0  0  0  0  0  0
    7.0574  -16.9036   22.2476 C   0  0  0  0  0  0  0  0  0  0  0  0
    7.0911  -15.3946   22.0298 C   0  0  2  0  0  0  0  0  0  0  0  0
    7.6852  -15.1609   20.7505 N   0  0  0  0  0  0  0  0  0  0  0  0
    7.8416  -14.7184   23.1259 C   0  0  0  0  0  0  0  0  0  0  0  0
    9.0721  -14.5612   23.0341 O   0  0  0  0  0  0  0  0  0  0  0  0
    6.3588  -11.7962   25.6507 C   0  0  0  0  0  0  0  0  0  0  0  0
    6.9560  -12.9976   26.2968 C   0  0  2  0  0  0  0  0  0  0  0  0
    7.7066  -12.5423   27.5524 C   0  0  0  0  0  0  0  0  0  0  0  0
    7.9590  -13.7548   25.4630 C   0  0  2  0  0  0  0  0  0  0  0  0
    7.1929  -14.2379   24.2925 N   0  0  0  0  0  0  0  0  0  0  0  0
    8.4793  -14.8866   26.2377 C   0  0  0  0  0  0  0  0  0  0  0  0
    7.6465  -15.7815   26.6149 O   0  0  0  0  0  0  0  0  0  0  0  0
   11.5206  -16.8100   26.8028 C   0  0  0  0  0  0  0  0  0  0  0  0
   10.2043  -16.3011   27.4018 C   0  0  2  0  0  0  0  0  0  0  0  0
    9.8169  -15.1127   26.6230 N   0  0  0  0  0  0  0  0  0  0  0  0
   10.4692  -15.9579   28.8039 C   0  0  0  0  0  0  0  0  0  0  0  0
   10.7666  -16.8695   29.6072 O   0  0  0  0  0  0  0  0  0  0  0  0
   10.3957  -14.6537   29.2459 O   0  0  0  0  0  0  0  0  0  0  0  0
  2  1  1  0
  3  2  1  0
  3  4  1  6
  5 11  1  0
  5  3  1  0
  6  5  2  0
  8  7  1  6
  8 10  1  0
  9  8  1  0
 10 12  1  0
 10 11  1  6
 12 16  1  0
 13 12  2  0
 15 14  1  6
 16 15  1  0
 17 15  1  0
 17 19  1  0
 18 17  2  0
M  END
$$$$
