SVA.pdb
     RDKit          3D

 19 18  0  0  1  0  0  0  0  0999 V2000
    6.7019  -18.7855   19.1166 O   0  0  0  0  0  0  0  0  0  0  0  0
    7.3112  -18.7969   17.8857 C   0  0  0  0  0  0  0  0  0  0  0  0
    7.5769  -17.3781   17.3939 C   0  0  2  0  0  0  0  0  0  0  0  0
    8.3145  -17.4802   16.1734 N   0  0  0  0  0  0  0  0  0  0  0  0
    8.3096  -16.5892   18.4248 C   0  0  0  0  0  0  0  0  0  0  0  0
    9.5153  -16.8091   18.6375 O   0  0  0  0  0  0  0  0  0  0  0  0
    7.2310  -12.6964   19.5414 C   0  0  0  0  0  0  0  0  0  0  0  0
    7.4713  -13.6985   20.6164 C   0  0  2  0  0  0  0  0  0  0  0  0
    8.1349  -12.9833   21.7976 C   0  0  0  0  0  0  0  0  0  0  0  0
    8.3884  -14.8387   20.2508 C   0  0  2  0  0  0  0  0  0  0  0  0
    7.6714  -15.5773   19.1874 N   0  0  0  0  0  0  0  0  0  0  0  0
    8.5893  -15.6961   21.4240 C   0  0  0  0  0  0  0  0  0  0  0  0
    7.5485  -16.1381   22.0223 O   0  0  0  0  0  0  0  0  0  0  0  0
   10.5320  -18.2866   22.7142 C   0  0  0  0  0  0  0  0  0  0  0  0
    9.8767  -16.9763   23.1662 C   0  0  2  0  0  0  0  0  0  0  0  0
    9.8190  -16.1021   21.9824 N   0  0  0  0  0  0  0  0  0  0  0  0
   10.7303  -16.4025   24.2129 C   0  0  0  0  0  0  0  0  0  0  0  0
   11.4808  -15.4432   23.9275 O   0  0  0  0  0  0  0  0  0  0  0  0
   10.7174  -16.9019   25.4983 O   0  0  0  0  0  0  0  0  0  0  0  0
  2  1  1  0
  3  2  1  0
  3  4  1  6
  5 11  1  0
  5  3  1  0
  6  5  2  0
  8  7  1  6
  8 10  1  0
  9  8  1  0
 10 12  1  0
 10 11  1  6
 12 16  1  0
 13 12  2  0
 15 14  1  6
 16 15  1  0
 17 15  1  0
 17 19  1  0
 18 17  2  0
M  END
$$$$
