SVA.pdb
     RDKit          3D

 19 18  0  0  1  0  0  0  0  0999 V2000
    5.9411  -19.4324   17.6914 O   0  0  0  0  0  0  0  0  0  0  0  0
    6.9052  -18.8166   18.4514 C   0  0  0  0  0  0  0  0  0  0  0  0
    7.5232  -17.6405   17.7026 C   0  0  2  0  0  0  0  0  0  0  0  0
    8.3189  -18.1789   16.6438 N   0  0  0  0  0  0  0  0  0  0  0  0
    8.3251  -16.7879   18.6256 C   0  0  0  0  0  0  0  0  0  0  0  0
    9.5595  -16.9279   18.6892 O   0  0  0  0  0  0  0  0  0  0  0  0
    7.1934  -12.9373   19.6781 C   0  0  0  0  0  0  0  0  0  0  0  0
    7.6058  -13.8478   20.7819 C   0  0  2  0  0  0  0  0  0  0  0  0
    8.3762  -13.0242   21.8189 C   0  0  0  0  0  0  0  0  0  0  0  0
    8.5203  -14.9797   20.3853 C   0  0  2  0  0  0  0  0  0  0  0  0
    7.7220  -15.8036   19.4504 N   0  0  0  0  0  0  0  0  0  0  0  0
    8.8767  -15.7569   21.5773 C   0  0  0  0  0  0  0  0  0  0  0  0
    7.9227  -16.1932   22.3095 O   0  0  0  0  0  0  0  0  0  0  0  0
   11.0486  -18.1538   22.9100 C   0  0  0  0  0  0  0  0  0  0  0  0
   10.3924  -16.8191   23.2820 C   0  0  2  0  0  0  0  0  0  0  0  0
   10.1731  -16.0899   22.0214 N   0  0  0  0  0  0  0  0  0  0  0  0
   11.3286  -16.1039   24.1570 C   0  0  0  0  0  0  0  0  0  0  0  0
   12.0103  -15.1684   23.6827 O   0  0  0  0  0  0  0  0  0  0  0  0
   11.4670  -16.4457   25.4858 O   0  0  0  0  0  0  0  0  0  0  0  0
  2  1  1  0
  3  2  1  0
  3  4  1  6
  5 11  1  0
  5  3  1  0
  6  5  2  0
  8  7  1  6
  8 10  1  0
  9  8  1  0
 10 12  1  0
 10 11  1  6
 12 16  1  0
 13 12  2  0
 15 14  1  6
 16 15  1  0
 17 15  1  0
 17 19  1  0
 18 17  2  0
M  END
$$$$
