SVA.pdb
     RDKit          3D

 19 18  0  0  1  0  0  0  0  0999 V2000
    6.3241  -17.2341   20.8549 O   0  0  0  0  0  0  0  0  0  0  0  0
    7.1168  -16.8172   21.8962 C   0  0  0  0  0  0  0  0  0  0  0  0
    7.4062  -15.3231   21.7987 C   0  0  2  0  0  0  0  0  0  0  0  0
    8.1929  -15.1163   20.6228 N   0  0  0  0  0  0  0  0  0  0  0  0
    8.0983  -14.8369   23.0260 C   0  0  0  0  0  0  0  0  0  0  0  0
    9.3412  -14.8189   23.0752 O   0  0  0  0  0  0  0  0  0  0  0  0
    6.5008  -11.9835   25.6081 C   0  0  0  0  0  0  0  0  0  0  0  0
    7.0187  -13.2445   26.2072 C   0  0  2  0  0  0  0  0  0  0  0  0
    7.6733  -12.9029   27.5496 C   0  0  0  0  0  0  0  0  0  0  0  0
    8.0709  -13.9644   25.4014 C   0  0  2  0  0  0  0  0  0  0  0  0
    7.3793  -14.3850   24.1625 N   0  0  0  0  0  0  0  0  0  0  0  0
    8.5393  -15.1358   26.1499 C   0  0  0  0  0  0  0  0  0  0  0  0
    7.6627  -15.9839   26.5359 O   0  0  0  0  0  0  0  0  0  0  0  0
   11.5604  -17.1492   26.7432 C   0  0  0  0  0  0  0  0  0  0  0  0
   10.2011  -16.6644   27.2606 C   0  0  2  0  0  0  0  0  0  0  0  0
    9.8692  -15.4472   26.5009 N   0  0  0  0  0  0  0  0  0  0  0  0
   10.3589  -16.3751   28.6907 C   0  0  0  0  0  0  0  0  0  0  0  0
   10.3705  -15.1839   29.0724 O   0  0  0  0  0  0  0  0  0  0  0  0
   10.4935  -17.3906   29.6139 O   0  0  0  0  0  0  0  0  0  0  0  0
  2  1  1  0
  3  2  1  0
  3  4  1  6
  5 11  1  0
  5  3  1  0
  6  5  2  0
  8  7  1  6
  8 10  1  0
  9  8  1  0
 10 12  1  0
 10 11  1  6
 12 16  1  0
 13 12  2  0
 15 14  1  6
 16 15  1  0
 17 15  1  0
 17 19  1  0
 18 17  2  0
M  END
$$$$
