SVA.pdb
     RDKit          3D

 19 18  0  0  1  0  0  0  0  0999 V2000
    7.4852  -19.2750   18.8405 O   0  0  0  0  0  0  0  0  0  0  0  0
    6.6784  -18.5434   18.0037 C   0  0  0  0  0  0  0  0  0  0  0  0
    7.4586  -17.4113   17.3439 C   0  0  2  0  0  0  0  0  0  0  0  0
    8.2942  -17.9959   16.3418 N   0  0  0  0  0  0  0  0  0  0  0  0
    8.2476  -16.6525   18.3557 C   0  0  0  0  0  0  0  0  0  0  0  0
    9.4612  -16.8838   18.5012 O   0  0  0  0  0  0  0  0  0  0  0  0
    7.1619  -12.7829   19.5001 C   0  0  0  0  0  0  0  0  0  0  0  0
    7.5456  -13.7454   20.5695 C   0  0  2  0  0  0  0  0  0  0  0  0
    8.3065  -12.9768   21.6546 C   0  0  0  0  0  0  0  0  0  0  0  0
    8.4551  -14.8689   20.1390 C   0  0  2  0  0  0  0  0  0  0  0  0
    7.6553  -15.6572   19.1749 N   0  0  0  0  0  0  0  0  0  0  0  0
    8.8030  -15.6868   21.3060 C   0  0  0  0  0  0  0  0  0  0  0  0
    7.8434  -16.1744   21.9974 O   0  0  0  0  0  0  0  0  0  0  0  0
   11.1360  -18.0813   22.4298 C   0  0  0  0  0  0  0  0  0  0  0  0
   10.3046  -16.8924   22.9257 C   0  0  2  0  0  0  0  0  0  0  0  0
   10.0967  -16.0089   21.7659 N   0  0  0  0  0  0  0  0  0  0  0  0
   11.0848  -16.2239   23.9735 C   0  0  0  0  0  0  0  0  0  0  0  0
   11.6788  -15.1569   23.7020 O   0  0  0  0  0  0  0  0  0  0  0  0
   11.1721  -16.7510   25.2448 O   0  0  0  0  0  0  0  0  0  0  0  0
  2  1  1  0
  3  2  1  0
  3  4  1  6
  5 11  1  0
  5  3  1  0
  6  5  2  0
  8  7  1  6
  8 10  1  0
  9  8  1  0
 10 12  1  0
 10 11  1  6
 12 16  1  0
 13 12  2  0
 15 14  1  6
 16 15  1  0
 17 15  1  0
 17 19  1  0
 18 17  2  0
M  END
$$$$
