SVA.pdb
     RDKit          3D

 19 18  0  0  1  0  0  0  0  0999 V2000
    5.9549  -16.6193   20.4420 O   0  0  0  0  0  0  0  0  0  0  0  0
    6.7674  -16.2356   21.4808 C   0  0  0  0  0  0  0  0  0  0  0  0
    6.9086  -14.7180   21.5327 C   0  0  2  0  0  0  0  0  0  0  0  0
    7.5332  -14.3054   20.3145 N   0  0  0  0  0  0  0  0  0  0  0  0
    7.6907  -14.2999   22.7307 C   0  0  0  0  0  0  0  0  0  0  0  0
    8.9292  -14.2048   22.6646 O   0  0  0  0  0  0  0  0  0  0  0  0
    6.2995  -11.7643   25.6457 C   0  0  0  0  0  0  0  0  0  0  0  0
    6.8813  -13.0472   26.1286 C   0  0  2  0  0  0  0  0  0  0  0  0
    7.6650  -12.7632   27.4141 C   0  0  0  0  0  0  0  0  0  0  0  0
    7.8514  -13.7174   25.1882 C   0  0  2  0  0  0  0  0  0  0  0  0
    7.0637  -14.0003   23.9676 N   0  0  0  0  0  0  0  0  0  0  0  0
    8.3286  -14.9665   25.7913 C   0  0  0  0  0  0  0  0  0  0  0  0
    7.4509  -15.7953   26.2148 O   0  0  0  0  0  0  0  0  0  0  0  0
   11.3673  -17.0824   25.8771 C   0  0  0  0  0  0  0  0  0  0  0  0
   10.0078  -16.7095   26.4797 C   0  0  2  0  0  0  0  0  0  0  0  0
    9.6681  -15.3733   25.9621 N   0  0  0  0  0  0  0  0  0  0  0  0
   10.1694  -16.6923   27.9382 C   0  0  0  0  0  0  0  0  0  0  0  0
   10.2052  -15.5924   28.5330 O   0  0  0  0  0  0  0  0  0  0  0  0
   10.2815  -17.8632   28.6580 O   0  0  0  0  0  0  0  0  0  0  0  0
  2  1  1  0
  3  2  1  0
  3  4  1  6
  5 11  1  0
  5  3  1  0
  6  5  2  0
  8  7  1  6
  8 10  1  0
  9  8  1  0
 10 12  1  0
 10 11  1  6
 12 16  1  0
 13 12  2  0
 15 14  1  6
 16 15  1  0
 17 15  1  0
 17 19  1  0
 18 17  2  0
M  END
$$$$
