SVA.pdb
     RDKit          3D

 19 18  0  0  1  0  0  0  0  0999 V2000
    8.0182  -19.3518   19.0506 O   0  0  0  0  0  0  0  0  0  0  0  0
    7.0853  -18.6285   18.3485 C   0  0  0  0  0  0  0  0  0  0  0  0
    7.7290  -17.4317   17.6564 C   0  0  2  0  0  0  0  0  0  0  0  0
    8.6332  -17.9423   16.6735 N   0  0  0  0  0  0  0  0  0  0  0  0
    8.4171  -16.5551   18.6463 C   0  0  0  0  0  0  0  0  0  0  0  0
    9.6421  -16.6660   18.8316 O   0  0  0  0  0  0  0  0  0  0  0  0
    7.0735  -12.7061   19.8242 C   0  0  0  0  0  0  0  0  0  0  0  0
    7.3682  -13.7415   20.8530 C   0  0  2  0  0  0  0  0  0  0  0  0
    7.9454  -13.0396   22.0865 C   0  0  0  0  0  0  0  0  0  0  0  0
    8.3814  -14.7854   20.4550 C   0  0  2  0  0  0  0  0  0  0  0  0
    7.7141  -15.5800   19.3997 N   0  0  0  0  0  0  0  0  0  0  0  0
    8.6903  -15.6297   21.6142 C   0  0  0  0  0  0  0  0  0  0  0  0
    7.7660  -16.3974   22.0534 O   0  0  0  0  0  0  0  0  0  0  0  0
   10.0951  -18.0800   22.6568 C   0  0  0  0  0  0  0  0  0  0  0  0
   10.1454  -16.7165   23.3558 C   0  0  2  0  0  0  0  0  0  0  0  0
    9.9112  -15.6997   22.3165 N   0  0  0  0  0  0  0  0  0  0  0  0
   11.4823  -16.5798   23.9453 C   0  0  0  0  0  0  0  0  0  0  0  0
   11.8163  -17.3431   24.8784 O   0  0  0  0  0  0  0  0  0  0  0  0
   12.3701  -15.6284   23.4887 O   0  0  0  0  0  0  0  0  0  0  0  0
  2  1  1  0
  3  2  1  0
  3  4  1  6
  5 11  1  0
  5  3  1  0
  6  5  2  0
  8  7  1  6
  8 10  1  0
  9  8  1  0
 10 12  1  0
 10 11  1  6
 12 16  1  0
 13 12  2  0
 15 14  1  6
 16 15  1  0
 17 15  1  0
 17 19  1  0
 18 17  2  0
M  END
$$$$
