PHV.pdb
     RDKit          3D

 25 26  0  0  1  0  0  0  0  0999 V2000
    8.8608  -14.8490   19.1290 N   0  0  0  0  0  0  0  0  0  0  0  0
    8.6211  -14.3503   17.7889 C   0  0  0  0  0  0  0  0  0  0  0  0
    7.2878  -13.6479   17.9567 C   0  0  0  0  0  0  0  0  0  0  0  0
    7.5037  -12.9021   19.2587 C   0  0  0  0  0  0  0  0  0  0  0  0
    8.5592  -13.7095   19.9545 C   0  0  1  0  0  0  0  0  0  0  0  0
    8.0300  -14.0965   21.2852 C   0  0  0  0  0  0  0  0  0  0  0  0
    7.5063  -13.2309   22.0245 O   0  0  0  0  0  0  0  0  0  0  0  0
    8.1322  -15.4412   21.6850 N   0  0  0  0  0  0  0  0  0  0  0  0
    7.6813  -15.8354   22.9843 C   0  0  1  0  0  0  0  0  0  0  0  0
    8.0189  -17.3047   23.1293 C   0  0  0  0  0  0  0  0  0  0  0  0
    7.5573  -17.9077   24.3862 C   0  0  0  0  0  0  0  0  0  0  0  0
    6.5569  -17.4924   25.2125 C   0  0  0  0  0  0  0  0  0  0  0  0
    6.4927  -18.3398   26.2612 N   0  0  0  0  0  0  0  0  0  0  0  0
    7.4364  -19.2787   26.1052 C   0  0  0  0  0  0  0  0  0  0  0  0
    8.0934  -19.0239   24.9617 N   0  0  0  0  0  0  0  0  0  0  0  0
    8.3172  -15.0926   24.0749 C   0  0  0  0  0  0  0  0  0  0  0  0
    9.5575  -14.9327   24.0637 O   0  0  0  0  0  0  0  0  0  0  0  0
    7.2162  -11.5632   25.5835 C   0  0  0  0  0  0  0  0  0  0  0  0
    7.4053  -12.5787   26.6636 C   0  0  1  0  0  0  0  0  0  0  0  0
    6.0876  -12.9815   27.2588 C   0  0  0  0  0  0  0  0  0  0  0  0
    8.2255  -13.7488   26.2051 C   0  0  2  0  0  0  0  0  0  0  0  0
    7.6008  -14.5231   25.1796 N   0  0  0  0  0  0  0  0  0  0  0  0
    8.6253  -14.5765   27.3566 C   0  0  0  0  0  0  0  0  0  0  0  0
    9.5052  -14.1536   28.3340 O   0  0  0  0  0  0  0  0  0  0  0  0
    8.1408  -15.7310   27.4576 O   0  0  0  0  0  0  0  0  0  0  0  0
  1  5  1  0
  1  2  1  0
  2  3  1  0
  4  3  1  0
  5  4  1  0
  5  6  1  1
  6  7  2  0
  8  6  1  0
  9  8  1  0
  9 10  1  1
 11 10  1  0
 11 15  1  0
 12 13  1  0
 12 11  2  0
 13 14  1  0
 14 15  2  0
 16  9  1  0
 17 16  2  0
 19 20  1  6
 19 21  1  0
 19 18  1  0
 21 22  1  6
 22 16  1  0
 23 21  1  0
 23 24  1  0
 25 23  2  0
M  END
$$$$
