PHV.pdb
     RDKit          3D

 25 26  0  0  1  0  0  0  0  0999 V2000
    9.0478  -14.7950   19.0611 N   0  0  0  0  0  0  0  0  0  0  0  0
    8.8691  -14.2434   17.7322 C   0  0  0  0  0  0  0  0  0  0  0  0
    7.5056  -13.5910   17.8515 C   0  0  0  0  0  0  0  0  0  0  0  0
    7.6210  -12.8988   19.1953 C   0  0  0  0  0  0  0  0  0  0  0  0
    8.6612  -13.7041   19.9164 C   0  0  1  0  0  0  0  0  0  0  0  0
    8.0695  -14.1674   21.1954 C   0  0  0  0  0  0  0  0  0  0  0  0
    7.3035  -13.4125   21.8384 O   0  0  0  0  0  0  0  0  0  0  0  0
    8.3890  -15.4573   21.6564 N   0  0  0  0  0  0  0  0  0  0  0  0
    7.8237  -15.9381   22.8796 C   0  0  1  0  0  0  0  0  0  0  0  0
    8.2331  -17.3912   23.0007 C   0  0  0  0  0  0  0  0  0  0  0  0
    7.6369  -18.2715   21.9878 C   0  0  0  0  0  0  0  0  0  0  0  0
    6.7649  -17.9533   20.9905 C   0  0  0  0  0  0  0  0  0  0  0  0
    6.4702  -19.0801   20.3083 N   0  0  0  0  0  0  0  0  0  0  0  0
    7.1431  -20.0985   20.8620 C   0  0  0  0  0  0  0  0  0  0  0  0
    7.8598  -19.6151   21.8900 N   0  0  0  0  0  0  0  0  0  0  0  0
    8.2894  -15.2135   24.0642 C   0  0  0  0  0  0  0  0  0  0  0  0
    9.4971  -14.9013   24.1542 O   0  0  0  0  0  0  0  0  0  0  0  0
    7.2453  -12.1062   27.7553 C   0  0  0  0  0  0  0  0  0  0  0  0
    6.7698  -13.0248   26.6765 C   0  0  1  0  0  0  0  0  0  0  0  0
    6.1212  -12.2552   25.5629 C   0  0  0  0  0  0  0  0  0  0  0  0
    7.8520  -13.9487   26.1999 C   0  0  2  0  0  0  0  0  0  0  0  0
    7.4381  -14.8284   25.1528 N   0  0  0  0  0  0  0  0  0  0  0  0
    8.4384  -14.6800   27.3367 C   0  0  0  0  0  0  0  0  0  0  0  0
    9.3109  -14.1111   28.2441 O   0  0  0  0  0  0  0  0  0  0  0  0
    8.1296  -15.8876   27.4917 O   0  0  0  0  0  0  0  0  0  0  0  0
  1  5  1  0
  1  2  1  0
  2  3  1  0
  4  3  1  0
  5  4  1  0
  5  6  1  1
  6  7  2  0
  8  6  1  0
  9  8  1  0
  9 10  1  1
 11 10  1  0
 11 15  1  0
 12 13  1  0
 12 11  2  0
 13 14  1  0
 14 15  2  0
 16  9  1  0
 17 16  2  0
 19 20  1  6
 19 21  1  0
 19 18  1  0
 21 22  1  6
 22 16  1  0
 23 21  1  0
 23 24  1  0
 25 23  2  0
M  END
$$$$
