PHV.pdb
     RDKit          3D

 25 26  0  0  1  0  0  0  0  0999 V2000
    7.0226  -18.4922   18.6743 N   0  0  0  0  0  0  0  0  0  0  0  0
    6.6187  -18.8346   17.3245 C   0  0  0  0  0  0  0  0  0  0  0  0
    7.6182  -18.0505   16.4968 C   0  0  0  0  0  0  0  0  0  0  0  0
    8.9098  -18.3348   17.2379 C   0  0  0  0  0  0  0  0  0  0  0  0
    8.4524  -18.6498   18.6314 C   0  0  1  0  0  0  0  0  0  0  0  0
    9.1534  -17.7274   19.5579 C   0  0  0  0  0  0  0  0  0  0  0  0
   10.4052  -17.7300   19.6128 O   0  0  0  0  0  0  0  0  0  0  0  0
    8.3836  -16.8648   20.3591 N   0  0  0  0  0  0  0  0  0  0  0  0
    9.0289  -15.9862   21.2856 C   0  0  1  0  0  0  0  0  0  0  0  0
    8.1615  -14.7482   21.3799 C   0  0  0  0  0  0  0  0  0  0  0  0
    8.0464  -13.9962   20.1239 C   0  0  0  0  0  0  0  0  0  0  0  0
    8.7213  -12.8778   19.7365 C   0  0  0  0  0  0  0  0  0  0  0  0
    8.2836  -12.5209   18.5105 N   0  0  0  0  0  0  0  0  0  0  0  0
    7.3460  -13.3971   18.1240 C   0  0  0  0  0  0  0  0  0  0  0  0
    7.1931  -14.3036   19.1032 N   0  0  0  0  0  0  0  0  0  0  0  0
    9.1848  -16.5594   22.6245 C   0  0  0  0  0  0  0  0  0  0  0  0
    8.1933  -17.0706   23.1898 O   0  0  0  0  0  0  0  0  0  0  0  0
   12.0379  -19.2161   25.5023 C   0  0  0  0  0  0  0  0  0  0  0  0
   11.7748  -18.4010   24.2774 C   0  0  1  0  0  0  0  0  0  0  0  0
   11.5715  -19.2821   23.0794 C   0  0  0  0  0  0  0  0  0  0  0  0
   10.6602  -17.4168   24.4793 C   0  0  2  0  0  0  0  0  0  0  0  0
   10.4230  -16.5759   23.3487 N   0  0  0  0  0  0  0  0  0  0  0  0
   10.8811  -16.6383   25.7105 C   0  0  0  0  0  0  0  0  0  0  0  0
   10.4862  -17.0618   26.9647 O   0  0  0  0  0  0  0  0  0  0  0  0
   11.4604  -15.5276   25.6176 O   0  0  0  0  0  0  0  0  0  0  0  0
  1  5  1  0
  1  2  1  0
  2  3  1  0
  4  3  1  0
  5  4  1  0
  5  6  1  1
  6  7  2  0
  8  6  1  0
  9  8  1  0
  9 10  1  1
 11 10  1  0
 11 15  1  0
 12 13  1  0
 12 11  2  0
 13 14  1  0
 14 15  2  0
 16  9  1  0
 17 16  2  0
 19 20  1  6
 19 21  1  0
 19 18  1  0
 21 22  1  6
 22 16  1  0
 23 21  1  0
 23 24  1  0
 25 23  2  0
M  END
$$$$
