PHV.pdb
     RDKit          3D

 25 26  0  0  1  0  0  0  0  0999 V2000
    9.3065  -14.6467   18.8926 N   0  0  0  0  0  0  0  0  0  0  0  0
    8.9449  -14.1914   17.5644 C   0  0  0  0  0  0  0  0  0  0  0  0
    7.4932  -13.7995   17.7589 C   0  0  0  0  0  0  0  0  0  0  0  0
    7.5598  -13.0449   19.0721 C   0  0  0  0  0  0  0  0  0  0  0  0
    8.7756  -13.6135   19.7420 C   0  0  1  0  0  0  0  0  0  0  0  0
    8.3624  -14.1272   21.0708 C   0  0  0  0  0  0  0  0  0  0  0  0
    7.6352  -13.4264   21.8125 O   0  0  0  0  0  0  0  0  0  0  0  0
    8.8041  -15.4029   21.4662 N   0  0  0  0  0  0  0  0  0  0  0  0
    8.3049  -15.9885   22.6723 C   0  0  1  0  0  0  0  0  0  0  0  0
    8.9137  -17.3724   22.7624 C   0  0  0  0  0  0  0  0  0  0  0  0
    8.4159  -18.3163   21.7536 C   0  0  0  0  0  0  0  0  0  0  0  0
    7.1720  -18.3968   21.2035 C   0  0  0  0  0  0  0  0  0  0  0  0
    7.1593  -19.4264   20.3307 N   0  0  0  0  0  0  0  0  0  0  0  0
    8.3745  -19.9919   20.3253 C   0  0  0  0  0  0  0  0  0  0  0  0
    9.1508  -19.3208   21.1919 N   0  0  0  0  0  0  0  0  0  0  0  0
    8.6574  -15.2356   23.8782 C   0  0  0  0  0  0  0  0  0  0  0  0
    9.8445  -14.8833   24.0536 O   0  0  0  0  0  0  0  0  0  0  0  0
    7.2773  -12.2515   27.5770 C   0  0  0  0  0  0  0  0  0  0  0  0
    6.9007  -13.1356   26.4323 C   0  0  1  0  0  0  0  0  0  0  0  0
    6.3026  -12.3370   25.3110 C   0  0  0  0  0  0  0  0  0  0  0  0
    8.0389  -14.0081   25.9907 C   0  0  2  0  0  0  0  0  0  0  0  0
    7.7152  -14.8658   24.8947 N   0  0  0  0  0  0  0  0  0  0  0  0
    8.5846  -14.7570   27.1363 C   0  0  0  0  0  0  0  0  0  0  0  0
    9.4553  -14.2135   28.0608 O   0  0  0  0  0  0  0  0  0  0  0  0
    8.2406  -15.9561   27.2827 O   0  0  0  0  0  0  0  0  0  0  0  0
  1  5  1  0
  1  2  1  0
  2  3  1  0
  4  3  1  0
  5  4  1  0
  5  6  1  1
  6  7  2  0
  8  6  1  0
  9  8  1  0
  9 10  1  1
 11 10  1  0
 11 15  1  0
 12 13  1  0
 12 11  2  0
 13 14  1  0
 14 15  2  0
 16  9  1  0
 17 16  2  0
 19 20  1  6
 19 21  1  0
 19 18  1  0
 21 22  1  6
 22 16  1  0
 23 21  1  0
 23 24  1  0
 25 23  2  0
M  END
$$$$
