PHV.pdb
     RDKit          3D

 25 26  0  0  1  0  0  0  0  0999 V2000
   10.2980  -18.1163   19.3751 N   0  0  0  0  0  0  0  0  0  0  0  0
   10.7865  -19.4551   19.1081 C   0  0  0  0  0  0  0  0  0  0  0  0
   11.4828  -19.7934   20.4118 C   0  0  0  0  0  0  0  0  0  0  0  0
   10.4717  -19.3010   21.4283 C   0  0  0  0  0  0  0  0  0  0  0  0
    9.7124  -18.2431   20.6836 C   0  0  1  0  0  0  0  0  0  0  0  0
    9.7976  -16.9870   21.4681 C   0  0  0  0  0  0  0  0  0  0  0  0
   10.9059  -16.4244   21.6271 O   0  0  0  0  0  0  0  0  0  0  0  0
    8.6171  -16.4558   22.0183 N   0  0  0  0  0  0  0  0  0  0  0  0
    8.6634  -15.2348   22.7625 C   0  0  1  0  0  0  0  0  0  0  0  0
    7.4959  -14.3960   22.2856 C   0  0  0  0  0  0  0  0  0  0  0  0
    7.6234  -13.9167   20.9034 C   0  0  0  0  0  0  0  0  0  0  0  0
    8.2160  -12.7772   20.4488 C   0  0  0  0  0  0  0  0  0  0  0  0
    8.0829  -12.7358   19.1061 N   0  0  0  0  0  0  0  0  0  0  0  0
    7.4169  -13.8303   18.7127 C   0  0  0  0  0  0  0  0  0  0  0  0
    7.1310  -14.5595   19.8039 N   0  0  0  0  0  0  0  0  0  0  0  0
    8.5497  -15.4268   24.2101 C   0  0  0  0  0  0  0  0  0  0  0  0
    7.8730  -16.3828   24.6486 O   0  0  0  0  0  0  0  0  0  0  0  0
    9.8822  -14.1497   28.8575 C   0  0  0  0  0  0  0  0  0  0  0  0
   10.0919  -14.0054   27.3848 C   0  0  1  0  0  0  0  0  0  0  0  0
   11.5181  -14.2916   27.0148 C   0  0  0  0  0  0  0  0  0  0  0  0
    9.1056  -14.8097   26.5897 C   0  0  2  0  0  0  0  0  0  0  0  0
    9.1742  -14.5760   25.1817 N   0  0  0  0  0  0  0  0  0  0  0  0
    7.7434  -14.6154   27.1164 C   0  0  0  0  0  0  0  0  0  0  0  0
    6.7482  -13.9424   26.4345 O   0  0  0  0  0  0  0  0  0  0  0  0
    7.4690  -15.0869   28.2479 O   0  0  0  0  0  0  0  0  0  0  0  0
  1  5  1  0
  1  2  1  0
  2  3  1  0
  4  3  1  0
  5  4  1  0
  5  6  1  1
  6  7  2  0
  8  6  1  0
  9  8  1  0
  9 10  1  6
 11 10  1  0
 11 15  1  0
 12 13  1  0
 12 11  2  0
 13 14  1  0
 14 15  2  0
 16  9  1  0
 17 16  2  0
 19 20  1  1
 19 21  1  0
 19 18  1  0
 21 22  1  6
 22 16  1  0
 23 21  1  0
 23 24  1  0
 25 23  2  0
M  END
$$$$
