PHV.pdb
     RDKit          3D

 25 26  0  0  1  0  0  0  0  0999 V2000
    9.0573  -14.7260   19.1053 N   0  0  0  0  0  0  0  0  0  0  0  0
    8.8119  -14.2246   17.7672 C   0  0  0  0  0  0  0  0  0  0  0  0
    7.5141  -13.4640   17.9575 C   0  0  0  0  0  0  0  0  0  0  0  0
    7.7889  -12.7211   19.2501 C   0  0  0  0  0  0  0  0  0  0  0  0
    8.8225  -13.5698   19.9295 C   0  0  1  0  0  0  0  0  0  0  0  0
    8.3046  -13.9260   21.2732 C   0  0  0  0  0  0  0  0  0  0  0  0
    7.7450  -13.0539   21.9778 O   0  0  0  0  0  0  0  0  0  0  0  0
    8.4580  -15.2494   21.7244 N   0  0  0  0  0  0  0  0  0  0  0  0
    7.8363  -15.6636   22.9446 C   0  0  1  0  0  0  0  0  0  0  0  0
    8.0736  -17.1547   23.0636 C   0  0  0  0  0  0  0  0  0  0  0  0
    7.5179  -17.9433   21.9565 C   0  0  0  0  0  0  0  0  0  0  0  0
    6.2878  -17.8500   21.3784 C   0  0  0  0  0  0  0  0  0  0  0  0
    6.2030  -18.7834   20.4069 N   0  0  0  0  0  0  0  0  0  0  0  0
    7.3596  -19.4594   20.3673 C   0  0  0  0  0  0  0  0  0  0  0  0
    8.1709  -18.9539   21.3109 N   0  0  0  0  0  0  0  0  0  0  0  0
    8.3789  -15.0004   24.1325 C   0  0  0  0  0  0  0  0  0  0  0  0
    9.6157  -14.8451   24.2345 O   0  0  0  0  0  0  0  0  0  0  0  0
    7.1167  -11.5911   25.6864 C   0  0  0  0  0  0  0  0  0  0  0  0
    7.2532  -12.6261   26.7559 C   0  0  1  0  0  0  0  0  0  0  0  0
    5.9075  -13.0487   27.2692 C   0  0  0  0  0  0  0  0  0  0  0  0
    8.1062  -13.7818   26.3218 C   0  0  2  0  0  0  0  0  0  0  0  0
    7.5730  -14.5056   25.2112 N   0  0  0  0  0  0  0  0  0  0  0  0
    8.3973  -14.6621   27.4669 C   0  0  0  0  0  0  0  0  0  0  0  0
    9.1616  -14.2785   28.5518 O   0  0  0  0  0  0  0  0  0  0  0  0
    7.9257  -15.8262   27.4587 O   0  0  0  0  0  0  0  0  0  0  0  0
  1  5  1  0
  1  2  1  0
  2  3  1  0
  4  3  1  0
  5  4  1  0
  5  6  1  1
  6  7  2  0
  8  6  1  0
  9  8  1  0
  9 10  1  1
 11 10  1  0
 11 15  1  0
 12 13  1  0
 12 11  2  0
 13 14  1  0
 14 15  2  0
 16  9  1  0
 17 16  2  0
 19 20  1  6
 19 21  1  0
 19 18  1  0
 21 22  1  6
 22 16  1  0
 23 21  1  0
 23 24  1  0
 25 23  2  0
M  END
$$$$
