PHV.pdb
     RDKit          3D

 25 26  0  0  1  0  0  0  0  0999 V2000
    4.9923  -17.2159   22.2772 N   0  0  0  0  0  0  0  0  0  0  0  0
    3.9495  -17.9510   21.5884 C   0  0  0  0  0  0  0  0  0  0  0  0
    4.5679  -18.1498   20.2183 C   0  0  0  0  0  0  0  0  0  0  0  0
    5.9811  -18.5591   20.5838 C   0  0  0  0  0  0  0  0  0  0  0  0
    6.1810  -17.9548   21.9422 C   0  0  1  0  0  0  0  0  0  0  0  0
    7.3870  -17.0932   21.8819 C   0  0  0  0  0  0  0  0  0  0  0  0
    8.5076  -17.6033   21.6493 O   0  0  0  0  0  0  0  0  0  0  0  0
    7.2372  -15.7102   22.0903 N   0  0  0  0  0  0  0  0  0  0  0  0
    8.3927  -14.8689   22.1534 C   0  0  1  0  0  0  0  0  0  0  0  0
    8.1251  -13.7004   21.2277 C   0  0  0  0  0  0  0  0  0  0  0  0
    8.1286  -14.0489   19.8012 C   0  0  0  0  0  0  0  0  0  0  0  0
    7.3540  -13.5450   18.8000 C   0  0  0  0  0  0  0  0  0  0  0  0
    7.6879  -14.1682   17.6500 N   0  0  0  0  0  0  0  0  0  0  0  0
    8.6585  -15.0538   17.9148 C   0  0  0  0  0  0  0  0  0  0  0  0
    8.9356  -14.9891   19.2275 N   0  0  0  0  0  0  0  0  0  0  0  0
    8.6707  -14.3560   23.4969 C   0  0  0  0  0  0  0  0  0  0  0  0
    9.7036  -13.6782   23.6907 O   0  0  0  0  0  0  0  0  0  0  0  0
    7.3945  -12.6076   27.8043 C   0  0  0  0  0  0  0  0  0  0  0  0
    6.9753  -13.3384   26.5698 C   0  0  1  0  0  0  0  0  0  0  0  0
    6.2758  -12.4181   25.6123 C   0  0  0  0  0  0  0  0  0  0  0  0
    8.1127  -14.0878   25.9400 C   0  0  2  0  0  0  0  0  0  0  0  0
    7.8220  -14.5819   24.6312 N   0  0  0  0  0  0  0  0  0  0  0  0
    8.5848  -15.1538   26.8410 C   0  0  0  0  0  0  0  0  0  0  0  0
    8.6165  -16.4905   26.4939 O   0  0  0  0  0  0  0  0  0  0  0  0
    8.9809  -14.8321   27.9887 O   0  0  0  0  0  0  0  0  0  0  0  0
  1  5  1  0
  1  2  1  0
  2  3  1  0
  4  3  1  0
  5  4  1  0
  5  6  1  6
  6  7  2  0
  8  6  1  0
  9  8  1  0
  9 10  1  6
 11 10  1  0
 11 15  1  0
 12 13  1  0
 12 11  2  0
 13 14  1  0
 14 15  2  0
 16  9  1  0
 17 16  2  0
 19 20  1  6
 19 21  1  0
 19 18  1  0
 21 22  1  6
 22 16  1  0
 23 21  1  0
 23 24  1  0
 25 23  2  0
M  END
$$$$
