PHV.pdb
     RDKit          3D

 25 26  0  0  1  0  0  0  0  0999 V2000
    8.8206  -14.9360   19.0389 N   0  0  0  0  0  0  0  0  0  0  0  0
    8.6005  -14.3039   17.7528 C   0  0  0  0  0  0  0  0  0  0  0  0
    7.3473  -13.4932   18.0197 C   0  0  0  0  0  0  0  0  0  0  0  0
    7.6657  -12.8855   19.3716 C   0  0  0  0  0  0  0  0  0  0  0  0
    8.6521  -13.8474   19.9649 C   0  0  1  0  0  0  0  0  0  0  0  0
    8.1182  -14.2937   21.2750 C   0  0  0  0  0  0  0  0  0  0  0  0
    7.2160  -13.6323   21.8394 O   0  0  0  0  0  0  0  0  0  0  0  0
    8.6462  -15.4617   21.8543 N   0  0  0  0  0  0  0  0  0  0  0  0
    8.1882  -15.8901   23.1402 C   0  0  1  0  0  0  0  0  0  0  0  0
    8.7705  -17.2698   23.3665 C   0  0  0  0  0  0  0  0  0  0  0  0
    8.3100  -18.2826   22.4081 C   0  0  0  0  0  0  0  0  0  0  0  0
    7.2826  -18.2061   21.5166 C   0  0  0  0  0  0  0  0  0  0  0  0
    7.2104  -19.3776   20.8499 N   0  0  0  0  0  0  0  0  0  0  0  0
    8.1755  -20.1862   21.3093 C   0  0  0  0  0  0  0  0  0  0  0  0
    8.8540  -19.5266   22.2625 N   0  0  0  0  0  0  0  0  0  0  0  0
    8.6095  -15.0119   24.2341 C   0  0  0  0  0  0  0  0  0  0  0  0
    9.7515  -14.5030   24.2041 O   0  0  0  0  0  0  0  0  0  0  0  0
    7.0751  -11.7492   25.4293 C   0  0  0  0  0  0  0  0  0  0  0  0
    7.1867  -12.6603   26.6088 C   0  0  1  0  0  0  0  0  0  0  0  0
    5.8357  -13.1595   27.0315 C   0  0  0  0  0  0  0  0  0  0  0  0
    8.1766  -13.7648   26.3811 C   0  0  2  0  0  0  0  0  0  0  0  0
    7.7855  -14.6875   25.3626 N   0  0  0  0  0  0  0  0  0  0  0  0
    8.4883  -14.4432   27.6513 C   0  0  0  0  0  0  0  0  0  0  0  0
    8.2506  -15.7845   27.8807 O   0  0  0  0  0  0  0  0  0  0  0  0
    8.9985  -13.7668   28.5787 O   0  0  0  0  0  0  0  0  0  0  0  0
  1  5  1  0
  1  2  1  0
  2  3  1  0
  4  3  1  0
  5  4  1  0
  5  6  1  1
  6  7  2  0
  8  6  1  0
  9  8  1  0
  9 10  1  1
 11 10  1  0
 11 15  1  0
 12 13  1  0
 12 11  2  0
 13 14  1  0
 14 15  2  0
 16  9  1  0
 17 16  2  0
 19 20  1  6
 19 21  1  0
 19 18  1  0
 21 22  1  6
 22 16  1  0
 23 21  1  0
 23 24  1  0
 25 23  2  0
M  END
$$$$
