PHV.pdb
     RDKit          3D

 25 26  0  0  1  0  0  0  0  0999 V2000
    8.8301  -14.9263   18.8206 N   0  0  0  0  0  0  0  0  0  0  0  0
    8.6329  -14.2066   17.5775 C   0  0  0  0  0  0  0  0  0  0  0  0
    7.4132  -13.3656   17.9000 C   0  0  0  0  0  0  0  0  0  0  0  0
    7.7578  -12.8568   19.2859 C   0  0  0  0  0  0  0  0  0  0  0  0
    8.7065  -13.8922   19.8137 C   0  0  1  0  0  0  0  0  0  0  0  0
    8.1576  -14.3984   21.0955 C   0  0  0  0  0  0  0  0  0  0  0  0
    7.2084  -13.7964   21.6492 O   0  0  0  0  0  0  0  0  0  0  0  0
    8.7252  -15.5547   21.6606 N   0  0  0  0  0  0  0  0  0  0  0  0
    8.2159  -16.0694   22.8945 C   0  0  1  0  0  0  0  0  0  0  0  0
    8.8388  -17.4375   23.0796 C   0  0  0  0  0  0  0  0  0  0  0  0
    8.3867  -18.4417   22.1082 C   0  0  0  0  0  0  0  0  0  0  0  0
    7.4710  -18.3070   21.1084 C   0  0  0  0  0  0  0  0  0  0  0  0
    7.3573  -19.4930   20.4740 N   0  0  0  0  0  0  0  0  0  0  0  0
    8.1865  -20.3679   21.0600 C   0  0  0  0  0  0  0  0  0  0  0  0
    8.8210  -19.7354   22.0607 N   0  0  0  0  0  0  0  0  0  0  0  0
    8.5431  -15.2380   24.0551 C   0  0  0  0  0  0  0  0  0  0  0  0
    9.7143  -14.8236   24.1994 O   0  0  0  0  0  0  0  0  0  0  0  0
    7.1094  -12.1355   27.6242 C   0  0  0  0  0  0  0  0  0  0  0  0
    6.7356  -13.1099   26.5544 C   0  0  1  0  0  0  0  0  0  0  0  0
    6.0628  -12.4153   25.4064 C   0  0  0  0  0  0  0  0  0  0  0  0
    7.8977  -13.9584   26.1284 C   0  0  2  0  0  0  0  0  0  0  0  0
    7.5931  -14.8574   25.0604 N   0  0  0  0  0  0  0  0  0  0  0  0
    8.4756  -14.6561   27.2903 C   0  0  0  0  0  0  0  0  0  0  0  0
    9.2849  -14.0422   28.2265 O   0  0  0  0  0  0  0  0  0  0  0  0
    8.2198  -15.8766   27.4404 O   0  0  0  0  0  0  0  0  0  0  0  0
  1  5  1  0
  1  2  1  0
  2  3  1  0
  4  3  1  0
  5  4  1  0
  5  6  1  1
  6  7  2  0
  8  6  1  0
  9  8  1  0
  9 10  1  1
 11 10  1  0
 11 15  1  0
 12 13  1  0
 12 11  2  0
 13 14  1  0
 14 15  2  0
 16  9  1  0
 17 16  2  0
 19 20  1  6
 19 21  1  0
 19 18  1  0
 21 22  1  6
 22 16  1  0
 23 21  1  0
 23 24  1  0
 25 23  2  0
M  END
$$$$
