PHV.pdb
     RDKit          3D

 25 26  0  0  1  0  0  0  0  0999 V2000
    8.7892  -15.0937   19.3128 N   0  0  0  0  0  0  0  0  0  0  0  0
    8.6052  -14.6196   17.9550 C   0  0  0  0  0  0  0  0  0  0  0  0
    7.3346  -13.8026   18.0847 C   0  0  0  0  0  0  0  0  0  0  0  0
    7.6004  -13.0362   19.3654 C   0  0  0  0  0  0  0  0  0  0  0  0
    8.5772  -13.9070   20.0988 C   0  0  1  0  0  0  0  0  0  0  0  0
    8.0047  -14.2052   21.4344 C   0  0  0  0  0  0  0  0  0  0  0  0
    7.3698  -13.3198   22.0532 O   0  0  0  0  0  0  0  0  0  0  0  0
    8.1929  -15.4898   21.9756 N   0  0  0  0  0  0  0  0  0  0  0  0
    7.6285  -15.8172   23.2489 C   0  0  1  0  0  0  0  0  0  0  0  0
    7.8281  -17.3066   23.4377 C   0  0  0  0  0  0  0  0  0  0  0  0
    7.0681  -18.1402   22.4975 C   0  0  0  0  0  0  0  0  0  0  0  0
    5.7590  -18.0368   22.1346 C   0  0  0  0  0  0  0  0  0  0  0  0
    5.4823  -19.0239   21.2564 N   0  0  0  0  0  0  0  0  0  0  0  0
    6.5965  -19.7435   21.0636 C   0  0  0  0  0  0  0  0  0  0  0  0
    7.5724  -19.2117   21.8179 N   0  0  0  0  0  0  0  0  0  0  0  0
    8.2560  -15.1088   24.3669 C   0  0  0  0  0  0  0  0  0  0  0  0
    9.5028  -15.1019   24.4635 O   0  0  0  0  0  0  0  0  0  0  0  0
    7.2985  -11.4736   25.7917 C   0  0  0  0  0  0  0  0  0  0  0  0
    7.4133  -12.4772   26.8932 C   0  0  1  0  0  0  0  0  0  0  0  0
    6.0692  -12.7732   27.4923 C   0  0  0  0  0  0  0  0  0  0  0  0
    8.1493  -13.7117   26.4619 C   0  0  2  0  0  0  0  0  0  0  0  0
    7.5239  -14.4067   25.3814 N   0  0  0  0  0  0  0  0  0  0  0  0
    8.3939  -14.5922   27.6176 C   0  0  0  0  0  0  0  0  0  0  0  0
    7.9098  -15.8825   27.7123 O   0  0  0  0  0  0  0  0  0  0  0  0
    9.0803  -14.1475   28.5709 O   0  0  0  0  0  0  0  0  0  0  0  0
  1  5  1  0
  1  2  1  0
  2  3  1  0
  4  3  1  0
  5  4  1  0
  5  6  1  1
  6  7  2  0
  8  6  1  0
  9  8  1  0
  9 10  1  1
 11 10  1  0
 11 15  1  0
 12 13  1  0
 12 11  2  0
 13 14  1  0
 14 15  2  0
 16  9  1  0
 17 16  2  0
 19 20  1  6
 19 21  1  0
 19 18  1  0
 21 22  1  6
 22 16  1  0
 23 21  1  0
 23 24  1  0
 25 23  2  0
M  END
$$$$
