PHV.pdb
     RDKit          3D

 25 26  0  0  1  0  0  0  0  0999 V2000
    8.6304  -15.0497   18.9950 N   0  0  0  0  0  0  0  0  0  0  0  0
    8.4620  -14.5789   17.6341 C   0  0  0  0  0  0  0  0  0  0  0  0
    7.4081  -13.5031   17.8098 C   0  0  0  0  0  0  0  0  0  0  0  0
    7.9175  -12.7828   19.0427 C   0  0  0  0  0  0  0  0  0  0  0  0
    8.7314  -13.8273   19.7477 C   0  0  1  0  0  0  0  0  0  0  0  0
    8.1990  -13.9631   21.1256 C   0  0  0  0  0  0  0  0  0  0  0  0
    8.1113  -12.9540   21.8632 O   0  0  0  0  0  0  0  0  0  0  0  0
    7.8026  -15.2370   21.5713 N   0  0  0  0  0  0  0  0  0  0  0  0
    7.3274  -15.4085   22.9098 C   0  0  1  0  0  0  0  0  0  0  0  0
    7.1478  -16.8983   23.1149 C   0  0  0  0  0  0  0  0  0  0  0  0
    8.3894  -17.6751   23.0074 C   0  0  0  0  0  0  0  0  0  0  0  0
    9.3350  -17.6374   22.0273 C   0  0  0  0  0  0  0  0  0  0  0  0
   10.2975  -18.5338   22.3308 N   0  0  0  0  0  0  0  0  0  0  0  0
    9.9701  -19.1320   23.4846 C   0  0  0  0  0  0  0  0  0  0  0  0
    8.8050  -18.6144   23.9072 N   0  0  0  0  0  0  0  0  0  0  0  0
    8.2478  -14.8969   23.9278 C   0  0  0  0  0  0  0  0  0  0  0  0
    9.1248  -14.0685   23.5980 O   0  0  0  0  0  0  0  0  0  0  0  0
    7.7980  -12.4079   25.1108 C   0  0  0  0  0  0  0  0  0  0  0  0
    7.7354  -13.1477   26.4079 C   0  0  1  0  0  0  0  0  0  0  0  0
    6.3126  -13.3747   26.8286 C   0  0  0  0  0  0  0  0  0  0  0  0
    8.5489  -14.4084   26.3820 C   0  0  2  0  0  0  0  0  0  0  0  0
    8.2130  -15.2883   25.3075 N   0  0  0  0  0  0  0  0  0  0  0  0
    8.4876  -15.0845   27.6897 C   0  0  0  0  0  0  0  0  0  0  0  0
    9.0767  -14.5875   28.8362 O   0  0  0  0  0  0  0  0  0  0  0  0
    7.8660  -16.1730   27.7694 O   0  0  0  0  0  0  0  0  0  0  0  0
  1  5  1  0
  1  2  1  0
  2  3  1  0
  4  3  1  0
  5  4  1  0
  5  6  1  1
  6  7  2  0
  8  6  1  0
  9  8  1  0
  9 10  1  1
 11 10  1  0
 11 15  1  0
 12 13  1  0
 12 11  2  0
 13 14  1  0
 14 15  2  0
 16  9  1  0
 17 16  2  0
 19 20  1  6
 19 21  1  0
 19 18  1  0
 21 22  1  6
 22 16  1  0
 23 21  1  0
 23 24  1  0
 25 23  2  0
M  END
$$$$
