PHV.pdb
     RDKit          3D

 25 26  0  0  1  0  0  0  0  0999 V2000
    9.2023  -14.5637   19.0470 N   0  0  0  0  0  0  0  0  0  0  0  0
    9.0155  -14.0318   17.7112 C   0  0  0  0  0  0  0  0  0  0  0  0
    7.5516  -13.6381   17.7396 C   0  0  0  0  0  0  0  0  0  0  0  0
    7.4500  -12.9585   19.0909 C   0  0  0  0  0  0  0  0  0  0  0  0
    8.5685  -13.5746   19.8782 C   0  0  1  0  0  0  0  0  0  0  0  0
    7.9867  -14.1579   21.1118 C   0  0  0  0  0  0  0  0  0  0  0  0
    7.1566  -13.5005   21.7818 O   0  0  0  0  0  0  0  0  0  0  0  0
    8.3882  -15.4488   21.5000 N   0  0  0  0  0  0  0  0  0  0  0  0
    7.9001  -16.0105   22.7220 C   0  0  1  0  0  0  0  0  0  0  0  0
    8.3246  -17.4644   22.7268 C   0  0  0  0  0  0  0  0  0  0  0  0
    7.6729  -18.2856   21.6986 C   0  0  0  0  0  0  0  0  0  0  0  0
    6.3665  -18.2869   21.3120 C   0  0  0  0  0  0  0  0  0  0  0  0
    6.2106  -19.2156   20.3448 N   0  0  0  0  0  0  0  0  0  0  0  0
    7.3977  -19.7956   20.1196 C   0  0  0  0  0  0  0  0  0  0  0  0
    8.2991  -19.2345   20.9422 N   0  0  0  0  0  0  0  0  0  0  0  0
    8.4317  -15.3569   23.9201 C   0  0  0  0  0  0  0  0  0  0  0  0
    9.6331  -15.0102   23.9451 O   0  0  0  0  0  0  0  0  0  0  0  0
    7.5042  -12.2347   27.5623 C   0  0  0  0  0  0  0  0  0  0  0  0
    7.0162  -13.1900   26.5217 C   0  0  1  0  0  0  0  0  0  0  0  0
    6.4210  -12.4561   25.3555 C   0  0  0  0  0  0  0  0  0  0  0  0
    8.0718  -14.1774   26.1181 C   0  0  2  0  0  0  0  0  0  0  0  0
    7.6534  -15.0806   25.0930 N   0  0  0  0  0  0  0  0  0  0  0  0
    8.5895  -14.8860   27.3016 C   0  0  0  0  0  0  0  0  0  0  0  0
    9.5690  -14.3755   28.1312 O   0  0  0  0  0  0  0  0  0  0  0  0
    8.1158  -16.0171   27.5736 O   0  0  0  0  0  0  0  0  0  0  0  0
  1  5  1  0
  1  2  1  0
  2  3  1  0
  4  3  1  0
  5  4  1  0
  5  6  1  1
  6  7  2  0
  8  6  1  0
  9  8  1  0
  9 10  1  1
 11 10  1  0
 11 15  1  0
 12 13  1  0
 12 11  2  0
 13 14  1  0
 14 15  2  0
 16  9  1  0
 17 16  2  0
 19 20  1  6
 19 21  1  0
 19 18  1  0
 21 22  1  6
 22 16  1  0
 23 21  1  0
 23 24  1  0
 25 23  2  0
M  END
$$$$
