PHV.pdb
     RDKit          3D

 25 26  0  0  1  0  0  0  0  0999 V2000
    8.7560  -14.9598   19.1618 N   0  0  0  0  0  0  0  0  0  0  0  0
    8.5235  -14.4389   17.8288 C   0  0  0  0  0  0  0  0  0  0  0  0
    7.2267  -13.6768   18.0190 C   0  0  0  0  0  0  0  0  0  0  0  0
    7.4929  -12.9530   19.3241 C   0  0  0  0  0  0  0  0  0  0  0  0
    8.5180  -13.8147   20.0002 C   0  0  1  0  0  0  0  0  0  0  0  0
    7.9877  -14.1880   21.3343 C   0  0  0  0  0  0  0  0  0  0  0  0
    7.5230  -13.3039   22.0910 O   0  0  0  0  0  0  0  0  0  0  0  0
    8.0216  -15.5410   21.7175 N   0  0  0  0  0  0  0  0  0  0  0  0
    7.5694  -15.9253   23.0192 C   0  0  1  0  0  0  0  0  0  0  0  0
    7.9262  -17.3880   23.1841 C   0  0  0  0  0  0  0  0  0  0  0  0
    7.5030  -17.9708   24.4638 C   0  0  0  0  0  0  0  0  0  0  0  0
    6.8447  -17.3721   25.4955 C   0  0  0  0  0  0  0  0  0  0  0  0
    6.6764  -18.2828   26.4776 N   0  0  0  0  0  0  0  0  0  0  0  0
    7.2184  -19.4415   26.0778 C   0  0  0  0  0  0  0  0  0  0  0  0
    7.7268  -19.2619   24.8476 N   0  0  0  0  0  0  0  0  0  0  0  0
    8.1893  -15.1605   24.1037 C   0  0  0  0  0  0  0  0  0  0  0  0
    9.4262  -14.9762   24.0922 O   0  0  0  0  0  0  0  0  0  0  0  0
    6.9740  -11.6722   25.4846 C   0  0  0  0  0  0  0  0  0  0  0  0
    7.2305  -12.6071   26.6221 C   0  0  1  0  0  0  0  0  0  0  0  0
    5.9470  -13.0017   27.2930 C   0  0  0  0  0  0  0  0  0  0  0  0
    8.0654  -13.7846   26.2118 C   0  0  2  0  0  0  0  0  0  0  0  0
    7.4605  -14.5955   25.2027 N   0  0  0  0  0  0  0  0  0  0  0  0
    8.4554  -14.5727   27.3940 C   0  0  0  0  0  0  0  0  0  0  0  0
    9.2778  -14.0939   28.3953 O   0  0  0  0  0  0  0  0  0  0  0  0
    8.0172  -15.7452   27.4997 O   0  0  0  0  0  0  0  0  0  0  0  0
  1  5  1  0
  1  2  1  0
  2  3  1  0
  4  3  1  0
  5  4  1  0
  5  6  1  1
  6  7  2  0
  8  6  1  0
  9  8  1  0
  9 10  1  1
 11 10  1  0
 11 15  1  0
 12 13  1  0
 12 11  2  0
 13 14  1  0
 14 15  2  0
 16  9  1  0
 17 16  2  0
 19 20  1  6
 19 21  1  0
 19 18  1  0
 21 22  1  6
 22 16  1  0
 23 21  1  0
 23 24  1  0
 25 23  2  0
M  END
$$$$
