PHV.pdb
     RDKit          3D

 25 26  0  0  1  0  0  0  0  0999 V2000
    9.0808  -14.8089   19.3000 N   0  0  0  0  0  0  0  0  0  0  0  0
    8.8532  -14.4052   17.9262 C   0  0  0  0  0  0  0  0  0  0  0  0
    7.4366  -13.8688   17.9946 C   0  0  0  0  0  0  0  0  0  0  0  0
    7.4895  -13.0438   19.2653 C   0  0  0  0  0  0  0  0  0  0  0  0
    8.5979  -13.6802   20.0508 C   0  0  1  0  0  0  0  0  0  0  0  0
    8.0503  -14.0700   21.3732 C   0  0  0  0  0  0  0  0  0  0  0  0
    7.3247  -13.2703   22.0087 O   0  0  0  0  0  0  0  0  0  0  0  0
    8.3650  -15.3426   21.8832 N   0  0  0  0  0  0  0  0  0  0  0  0
    7.8443  -15.7516   23.1514 C   0  0  1  0  0  0  0  0  0  0  0  0
    8.1855  -17.2194   23.3033 C   0  0  0  0  0  0  0  0  0  0  0  0
    7.3861  -18.1144   22.4569 C   0  0  0  0  0  0  0  0  0  0  0  0
    6.0386  -18.1170   22.2555 C   0  0  0  0  0  0  0  0  0  0  0  0
    5.7373  -19.1263   21.4113 N   0  0  0  0  0  0  0  0  0  0  0  0
    6.8736  -19.7555   21.0810 C   0  0  0  0  0  0  0  0  0  0  0  0
    7.8882  -19.1449   21.7149 N   0  0  0  0  0  0  0  0  0  0  0  0
    8.4108  -15.0132   24.2825 C   0  0  0  0  0  0  0  0  0  0  0  0
    9.6508  -14.8698   24.3593 O   0  0  0  0  0  0  0  0  0  0  0  0
    7.1265  -11.5075   25.6293 C   0  0  0  0  0  0  0  0  0  0  0  0
    7.3261  -12.4600   26.7636 C   0  0  1  0  0  0  0  0  0  0  0  0
    6.0108  -12.8647   27.3628 C   0  0  0  0  0  0  0  0  0  0  0  0
    8.1813  -13.6311   26.3775 C   0  0  2  0  0  0  0  0  0  0  0  0
    7.6252  -14.4301   25.3316 N   0  0  0  0  0  0  0  0  0  0  0  0
    8.5180  -14.4334   27.5665 C   0  0  0  0  0  0  0  0  0  0  0  0
    9.2963  -13.9677   28.6084 O   0  0  0  0  0  0  0  0  0  0  0  0
    8.0740  -15.6062   27.6394 O   0  0  0  0  0  0  0  0  0  0  0  0
  1  5  1  0
  1  2  1  0
  2  3  1  0
  4  3  1  0
  5  4  1  0
  5  6  1  1
  6  7  2  0
  8  6  1  0
  9  8  1  0
  9 10  1  1
 11 10  1  0
 11 15  1  0
 12 13  1  0
 12 11  2  0
 13 14  1  0
 14 15  2  0
 16  9  1  0
 17 16  2  0
 19 20  1  6
 19 21  1  0
 19 18  1  0
 21 22  1  6
 22 16  1  0
 23 21  1  0
 23 24  1  0
 25 23  2  0
M  END
$$$$
