IHM.pdb
     RDKit          3D

 27 27  0  0  1  0  0  0  0  0999 V2000
    7.5712  -12.1106   19.9882 C   0  0  0  0  0  0  0  0  0  0  0  0
    7.9013  -13.5444   19.7566 C   0  0  0  0  0  0  0  0  0  0  0  0
    9.3304  -13.8149   19.3529 C   0  0  2  0  0  0  0  0  0  0  0  0
    9.6408  -12.9514   18.1763 C   0  0  0  0  0  0  0  0  0  0  0  0
    9.5733  -15.2703   19.2024 C   0  0  2  0  0  0  0  0  0  0  0  0
    8.8158  -15.6883   17.9957 N   0  0  0  0  0  0  0  0  0  0  0  0
    9.2081  -16.1190   20.3424 C   0  0  0  0  0  0  0  0  0  0  0  0
    8.0057  -16.4139   20.5039 O   0  0  0  0  0  0  0  0  0  0  0  0
   10.1731  -16.6073   21.2507 N   0  0  0  0  0  0  0  0  0  0  0  0
    9.9538  -17.2824   22.4800 C   0  0  1  0  0  0  0  0  0  0  0  0
   10.7988  -18.4663   22.7670 C   0  0  0  0  0  0  0  0  0  0  0  0
   10.5175  -19.6094   21.8581 C   0  0  0  0  0  0  0  0  0  0  0  0
    9.2822  -20.1703   21.5736 C   0  0  0  0  0  0  0  0  0  0  0  0
    9.4711  -21.1707   20.7125 N   0  0  0  0  0  0  0  0  0  0  0  0
   10.7970  -21.2514   20.4496 C   0  0  0  0  0  0  0  0  0  0  0  0
   11.4050  -20.3026   21.1501 N   0  0  0  0  0  0  0  0  0  0  0  0
    9.8123  -16.3341   23.6396 C   0  0  0  0  0  0  0  0  0  0  0  0
   10.7119  -15.4975   23.8958 O   0  0  0  0  0  0  0  0  0  0  0  0
    7.1813  -11.1812   27.0860 C   0  0  0  0  0  0  0  0  0  0  0  0
    6.3068  -12.2865   25.9918 S   0  0  0  0  0  0  0  0  0  0  0  0
    6.4472  -13.9881   26.3560 C   0  0  0  0  0  0  0  0  0  0  0  0
    7.1688  -14.9089   25.5148 C   0  0  0  0  0  0  0  0  0  0  0  0
    8.5849  -15.3013   25.5920 C   0  0  2  0  0  0  0  0  0  0  0  0
    8.6865  -16.3419   24.4728 N   0  0  0  0  0  0  0  0  0  0  0  0
    8.9725  -16.0642   26.8079 C   0  0  0  0  0  0  0  0  0  0  0  0
    9.5847  -15.6162   27.9058 O   0  0  0  0  0  0  0  0  0  0  0  0
    8.6847  -17.3233   26.8036 O   0  0  0  0  0  0  0  0  0  0  0  0
  1  2  1  0
  3  5  1  0
  3  2  1  0
  3  4  1  6
  5  6  1  6
  7  8  2  0
  7  5  1  0
  9  7  1  0
 10  9  1  0
 10 11  1  1
 12 16  1  0
 12 11  1  0
 13 12  2  0
 14 13  1  0
 14 15  1  0
 15 16  2  0
 17 10  1  0
 18 17  2  0
 19 20  1  0
 20 21  1  0
 22 21  1  0
 23 24  1  0
 23 22  1  1
 24 17  1  0
 25 23  1  0
 26 25  1  0
 27 25  2  0
M  END
$$$$
