IHM.pdb
     RDKit          3D

 27 27  0  0  1  0  0  0  0  0999 V2000
    8.0948  -11.8655   21.7790 C   0  0  0  0  0  0  0  0  0  0  0  0
    7.6702  -13.2548   21.4502 C   0  0  0  0  0  0  0  0  0  0  0  0
    8.2252  -13.8048   20.1588 C   0  0  2  0  0  0  0  0  0  0  0  0
    7.7162  -12.9511   19.0459 C   0  0  0  0  0  0  0  0  0  0  0  0
    7.9800  -15.2638   20.0540 C   0  0  2  0  0  0  0  0  0  0  0  0
    6.5181  -15.4185   19.8456 N   0  0  0  0  0  0  0  0  0  0  0  0
    8.4142  -16.0865   21.1889 C   0  0  0  0  0  0  0  0  0  0  0  0
    7.5549  -16.4704   22.0092 O   0  0  0  0  0  0  0  0  0  0  0  0
    9.7657  -16.4530   21.3731 N   0  0  0  0  0  0  0  0  0  0  0  0
   10.3279  -17.2182   22.4283 C   0  0  1  0  0  0  0  0  0  0  0  0
   11.5836  -17.9527   22.1429 C   0  0  0  0  0  0  0  0  0  0  0  0
   11.4319  -18.9516   21.0514 C   0  0  0  0  0  0  0  0  0  0  0  0
   10.5913  -20.0537   21.0340 C   0  0  0  0  0  0  0  0  0  0  0  0
   10.7616  -20.6849   19.8719 N   0  0  0  0  0  0  0  0  0  0  0  0
   11.6900  -20.0047   19.1587 C   0  0  0  0  0  0  0  0  0  0  0  0
   12.0780  -18.9669   19.8887 N   0  0  0  0  0  0  0  0  0  0  0  0
   10.3359  -16.4750   23.7366 C   0  0  0  0  0  0  0  0  0  0  0  0
   10.9486  -15.3857   23.8503 O   0  0  0  0  0  0  0  0  0  0  0  0
    6.5110  -11.5683   26.5609 C   0  0  0  0  0  0  0  0  0  0  0  0
    6.5985  -13.3364   26.3377 S   0  0  0  0  0  0  0  0  0  0  0  0
    8.2039  -14.0216   26.3049 C   0  0  0  0  0  0  0  0  0  0  0  0
    8.4467  -15.4326   26.1430 C   0  0  0  0  0  0  0  0  0  0  0  0
    9.7320  -16.1486   26.1684 C   0  0  2  0  0  0  0  0  0  0  0  0
    9.6692  -16.9581   24.8697 N   0  0  0  0  0  0  0  0  0  0  0  0
    9.8624  -17.1927   27.2191 C   0  0  0  0  0  0  0  0  0  0  0  0
   10.3221  -17.0601   28.4649 O   0  0  0  0  0  0  0  0  0  0  0  0
    9.4873  -18.3829   26.8861 O   0  0  0  0  0  0  0  0  0  0  0  0
  1  2  1  0
  3  5  1  0
  3  2  1  0
  3  4  1  6
  5  6  1  1
  7  8  2  0
  7  5  1  0
  9  7  1  0
 10  9  1  0
 10 11  1  6
 12 16  1  0
 12 11  1  0
 13 12  2  0
 14 13  1  0
 14 15  1  0
 15 16  2  0
 17 10  1  0
 18 17  2  0
 19 20  1  0
 20 21  1  0
 22 21  1  0
 23 24  1  0
 23 22  1  1
 24 17  1  0
 25 23  1  0
 26 25  1  0
 27 25  2  0
M  END
$$$$
