IHM.pdb
     RDKit          3D

 27 27  0  0  1  0  0  0  0  0999 V2000
    7.7349  -12.1055   20.2175 C   0  0  0  0  0  0  0  0  0  0  0  0
    7.7397  -13.5620   19.9058 C   0  0  0  0  0  0  0  0  0  0  0  0
    8.9048  -14.0335   19.0699 C   0  0  2  0  0  0  0  0  0  0  0  0
    8.8913  -13.2591   17.7947 C   0  0  0  0  0  0  0  0  0  0  0  0
    8.9146  -15.5126   18.9590 C   0  0  2  0  0  0  0  0  0  0  0  0
    7.7625  -15.8648   18.0912 N   0  0  0  0  0  0  0  0  0  0  0  0
    8.8442  -16.2665   20.2160 C   0  0  0  0  0  0  0  0  0  0  0  0
    7.7201  -16.5753   20.6628 O   0  0  0  0  0  0  0  0  0  0  0  0
   10.0046  -16.6494   20.9243 N   0  0  0  0  0  0  0  0  0  0  0  0
   10.0851  -17.3155   22.1753 C   0  0  1  0  0  0  0  0  0  0  0  0
   11.0050  -18.4740   22.2721 C   0  0  0  0  0  0  0  0  0  0  0  0
   10.6012  -19.6056   21.3955 C   0  0  0  0  0  0  0  0  0  0  0  0
   11.1295  -19.9375   20.1576 C   0  0  0  0  0  0  0  0  0  0  0  0
   10.4884  -21.0179   19.7109 N   0  0  0  0  0  0  0  0  0  0  0  0
    9.5692  -21.3726   20.6397 C   0  0  0  0  0  0  0  0  0  0  0  0
    9.6561  -20.5085   21.6429 N   0  0  0  0  0  0  0  0  0  0  0  0
   10.1814  -16.3575   23.3316 C   0  0  0  0  0  0  0  0  0  0  0  0
   11.0508  -15.4526   23.3425 O   0  0  0  0  0  0  0  0  0  0  0  0
    5.9065  -11.3336   27.0417 C   0  0  0  0  0  0  0  0  0  0  0  0
    6.2128  -12.7793   26.0418 S   0  0  0  0  0  0  0  0  0  0  0  0
    7.7656  -13.5452   26.2656 C   0  0  0  0  0  0  0  0  0  0  0  0
    8.1967  -14.6773   25.4853 C   0  0  0  0  0  0  0  0  0  0  0  0
    9.4697  -15.4112   25.5639 C   0  0  2  0  0  0  0  0  0  0  0  0
    9.3175  -16.4313   24.4316 N   0  0  0  0  0  0  0  0  0  0  0  0
    9.6454  -16.2607   26.7715 C   0  0  0  0  0  0  0  0  0  0  0  0
   10.2061  -15.9350   27.9380 O   0  0  0  0  0  0  0  0  0  0  0  0
    9.2032  -17.4710   26.6832 O   0  0  0  0  0  0  0  0  0  0  0  0
  1  2  1  0
  3  5  1  0
  3  2  1  0
  3  4  1  6
  5  6  1  6
  7  8  2  0
  7  5  1  0
  9  7  1  0
 10  9  1  0
 10 11  1  6
 12 16  1  0
 12 11  1  0
 13 12  2  0
 14 13  1  0
 14 15  1  0
 15 16  2  0
 17 10  1  0
 18 17  2  0
 19 20  1  0
 20 21  1  0
 22 21  1  0
 23 24  1  0
 23 22  1  1
 24 17  1  0
 25 23  1  0
 26 25  1  0
 27 25  2  0
M  END
$$$$
