IHM.pdb
     RDKit          3D

 27 27  0  0  1  0  0  0  0  0999 V2000
    3.3549  -19.4341   20.5030 C   0  0  0  0  0  0  0  0  0  0  0  0
    4.3185  -18.3057   20.6318 C   0  0  0  0  0  0  0  0  0  0  0  0
    5.2377  -18.3826   21.8267 C   0  0  2  0  0  0  0  0  0  0  0  0
    4.3912  -18.5894   23.0379 C   0  0  0  0  0  0  0  0  0  0  0  0
    6.1761  -17.2342   21.8495 C   0  0  2  0  0  0  0  0  0  0  0  0
    6.7441  -17.1434   20.4807 N   0  0  0  0  0  0  0  0  0  0  0  0
    7.2587  -17.2896   22.8386 C   0  0  0  0  0  0  0  0  0  0  0  0
    6.9571  -17.3680   24.0476 O   0  0  0  0  0  0  0  0  0  0  0  0
    8.6192  -17.2590   22.4608 N   0  0  0  0  0  0  0  0  0  0  0  0
    9.7604  -17.2299   23.3045 C   0  0  1  0  0  0  0  0  0  0  0  0
   11.0824  -17.4468   22.6698 C   0  0  0  0  0  0  0  0  0  0  0  0
   11.1965  -18.7775   22.0154 C   0  0  0  0  0  0  0  0  0  0  0  0
   10.2996  -19.8314   22.0961 C   0  0  0  0  0  0  0  0  0  0  0  0
   10.7771  -20.8373   21.3626 N   0  0  0  0  0  0  0  0  0  0  0  0
   11.9536  -20.4397   20.8229 C   0  0  0  0  0  0  0  0  0  0  0  0
   12.1843  -19.1981   21.2300 N   0  0  0  0  0  0  0  0  0  0  0  0
    9.7276  -16.0819   24.2767 C   0  0  0  0  0  0  0  0  0  0  0  0
    9.9549  -14.9096   23.8909 O   0  0  0  0  0  0  0  0  0  0  0  0
    6.2588  -11.4910   25.7571 C   0  0  0  0  0  0  0  0  0  0  0  0
    6.3100  -12.5961   27.1570 S   0  0  0  0  0  0  0  0  0  0  0  0
    7.8339  -13.4007   27.4369 C   0  0  0  0  0  0  0  0  0  0  0  0
    8.3298  -14.4508   26.5838 C   0  0  0  0  0  0  0  0  0  0  0  0
    9.6517  -15.0970   26.6025 C   0  0  2  0  0  0  0  0  0  0  0  0
    9.4456  -16.2673   25.6361 N   0  0  0  0  0  0  0  0  0  0  0  0
   10.0198  -15.7650   27.8789 C   0  0  0  0  0  0  0  0  0  0  0  0
   10.6245  -15.2369   28.9449 O   0  0  0  0  0  0  0  0  0  0  0  0
    9.7210  -17.0182   27.9702 O   0  0  0  0  0  0  0  0  0  0  0  0
  1  2  1  0
  3  5  1  0
  3  2  1  0
  3  4  1  1
  5  6  1  6
  7  8  2  0
  7  5  1  0
  9  7  1  0
 10  9  1  0
 10 11  1  6
 12 16  1  0
 12 11  1  0
 13 12  2  0
 14 13  1  0
 14 15  1  0
 15 16  2  0
 17 10  1  0
 18 17  2  0
 19 20  1  0
 20 21  1  0
 22 21  1  0
 23 24  1  0
 23 22  1  1
 24 17  1  0
 25 23  1  0
 26 25  1  0
 27 25  2  0
M  END
$$$$
