IHM.pdb
     RDKit          3D

 27 27  0  0  1  0  0  0  0  0999 V2000
    8.5074  -12.2765   18.2557 C   0  0  0  0  0  0  0  0  0  0  0  0
    8.8495  -13.6288   18.7781 C   0  0  0  0  0  0  0  0  0  0  0  0
    7.9122  -14.1629   19.8338 C   0  0  2  0  0  0  0  0  0  0  0  0
    7.8832  -13.1787   20.9549 C   0  0  0  0  0  0  0  0  0  0  0  0
    8.2453  -15.5664   20.1788 C   0  0  2  0  0  0  0  0  0  0  0  0
    8.3164  -16.2984   18.8890 N   0  0  0  0  0  0  0  0  0  0  0  0
    7.3279  -16.2535   21.0951 C   0  0  0  0  0  0  0  0  0  0  0  0
    6.1348  -16.3882   20.7530 O   0  0  0  0  0  0  0  0  0  0  0  0
    7.7571  -16.7631   22.3405 N   0  0  0  0  0  0  0  0  0  0  0  0
    6.9624  -17.1052   23.4658 C   0  0  1  0  0  0  0  0  0  0  0  0
    6.2551  -18.4076   23.4295 C   0  0  0  0  0  0  0  0  0  0  0  0
    7.0007  -19.4477   22.6718 C   0  0  0  0  0  0  0  0  0  0  0  0
    7.6638  -19.2921   21.4645 C   0  0  0  0  0  0  0  0  0  0  0  0
    8.2000  -20.4671   21.1331 N   0  0  0  0  0  0  0  0  0  0  0  0
    7.8889  -21.3575   22.1046 C   0  0  0  0  0  0  0  0  0  0  0  0
    7.1675  -20.7211   23.0184 N   0  0  0  0  0  0  0  0  0  0  0  0
    7.6587  -16.8215   24.7691 C   0  0  0  0  0  0  0  0  0  0  0  0
    7.1246  -17.1326   25.8613 O   0  0  0  0  0  0  0  0  0  0  0  0
    5.9740  -11.5424   28.5708 C   0  0  0  0  0  0  0  0  0  0  0  0
    6.1193  -12.8422   27.3571 S   0  0  0  0  0  0  0  0  0  0  0  0
    7.7117  -13.5320   27.1666 C   0  0  0  0  0  0  0  0  0  0  0  0
    8.0072  -14.5564   26.1973 C   0  0  0  0  0  0  0  0  0  0  0  0
    9.2560  -15.3139   26.0185 C   0  0  2  0  0  0  0  0  0  0  0  0
    8.9161  -16.2067   24.8213 N   0  0  0  0  0  0  0  0  0  0  0  0
    9.5733  -16.2884   27.0958 C   0  0  0  0  0  0  0  0  0  0  0  0
   10.4224  -16.1472   28.1157 O   0  0  0  0  0  0  0  0  0  0  0  0
    8.9525  -17.4195   27.0388 O   0  0  0  0  0  0  0  0  0  0  0  0
  1  2  1  0
  3  5  1  0
  3  2  1  0
  3  4  1  1
  5  6  1  6
  7  8  2  0
  7  5  1  0
  9  7  1  0
 10  9  1  0
 10 11  1  6
 12 16  1  0
 12 11  1  0
 13 12  2  0
 14 13  1  0
 14 15  1  0
 15 16  2  0
 17 10  1  0
 18 17  2  0
 19 20  1  0
 20 21  1  0
 22 21  1  0
 23 24  1  0
 23 22  1  1
 24 17  1  0
 25 23  1  0
 26 25  1  0
 27 25  2  0
M  END
$$$$
