IHM.pdb
     RDKit          3D

 27 27  0  0  1  0  0  0  0  0999 V2000
    7.2483  -11.4833   19.1828 C   0  0  0  0  0  0  0  0  0  0  0  0
    7.6982  -12.8788   18.9207 C   0  0  0  0  0  0  0  0  0  0  0  0
    7.7405  -13.7759   20.1339 C   0  0  2  0  0  0  0  0  0  0  0  0
    8.5420  -13.0820   21.1838 C   0  0  0  0  0  0  0  0  0  0  0  0
    8.1611  -15.1494   19.7643 C   0  0  2  0  0  0  0  0  0  0  0  0
    7.1684  -15.6266   18.7686 N   0  0  0  0  0  0  0  0  0  0  0  0
    8.2774  -16.1185   20.8601 C   0  0  0  0  0  0  0  0  0  0  0  0
    7.2370  -16.4806   21.4475 O   0  0  0  0  0  0  0  0  0  0  0  0
    9.5239  -16.6479   21.2610 N   0  0  0  0  0  0  0  0  0  0  0  0
    9.8178  -17.4075   22.4236 C   0  0  1  0  0  0  0  0  0  0  0  0
   10.9746  -18.3324   22.3585 C   0  0  0  0  0  0  0  0  0  0  0  0
   11.1373  -19.1404   23.5965 C   0  0  0  0  0  0  0  0  0  0  0  0
   10.2412  -20.0576   24.1230 C   0  0  0  0  0  0  0  0  0  0  0  0
   10.7714  -20.5595   25.2387 N   0  0  0  0  0  0  0  0  0  0  0  0
   11.9802  -19.9785   25.4254 C   0  0  0  0  0  0  0  0  0  0  0  0
   12.1776  -19.1292   24.4254 N   0  0  0  0  0  0  0  0  0  0  0  0
    9.7634  -16.5807   23.6796 C   0  0  0  0  0  0  0  0  0  0  0  0
   10.5446  -15.6123   23.8429 O   0  0  0  0  0  0  0  0  0  0  0  0
    7.5869  -11.3575   25.9667 C   0  0  0  0  0  0  0  0  0  0  0  0
    6.8490  -12.8486   26.6116 S   0  0  0  0  0  0  0  0  0  0  0  0
    7.0061  -14.2706   25.6111 C   0  0  0  0  0  0  0  0  0  0  0  0
    7.5423  -15.5146   26.1023 C   0  0  0  0  0  0  0  0  0  0  0  0
    8.9190  -16.0232   25.9950 C   0  0  2  0  0  0  0  0  0  0  0  0
    8.8513  -16.8505   24.7078 N   0  0  0  0  0  0  0  0  0  0  0  0
    9.3152  -17.0200   27.0247 C   0  0  0  0  0  0  0  0  0  0  0  0
    9.9709  -16.8124   28.1683 O   0  0  0  0  0  0  0  0  0  0  0  0
    8.9878  -18.2459   26.7834 O   0  0  0  0  0  0  0  0  0  0  0  0
  1  2  1  0
  3  5  1  0
  3  2  1  0
  3  4  1  1
  5  6  1  6
  7  8  2  0
  7  5  1  0
  9  7  1  0
 10  9  1  0
 10 11  1  6
 12 16  1  0
 12 11  1  0
 13 12  2  0
 14 13  1  0
 14 15  1  0
 15 16  2  0
 17 10  1  0
 18 17  2  0
 19 20  1  0
 20 21  1  0
 22 21  1  0
 23 24  1  0
 23 22  1  1
 24 17  1  0
 25 23  1  0
 26 25  1  0
 27 25  2  0
M  END
$$$$
