IHM.pdb
     RDKit          3D

 27 27  0  0  1  0  0  0  0  0999 V2000
    7.3535  -11.9699   18.8922 C   0  0  0  0  0  0  0  0  0  0  0  0
    7.4911  -13.4518   18.9519 C   0  0  0  0  0  0  0  0  0  0  0  0
    7.7199  -14.0180   20.3323 C   0  0  2  0  0  0  0  0  0  0  0  0
    8.8367  -13.2516   20.9579 C   0  0  0  0  0  0  0  0  0  0  0  0
    7.8604  -15.4938   20.2843 C   0  0  2  0  0  0  0  0  0  0  0  0
    6.6197  -16.0019   19.6464 N   0  0  0  0  0  0  0  0  0  0  0  0
    8.0805  -16.1751   21.5653 C   0  0  0  0  0  0  0  0  0  0  0  0
    7.1232  -16.2703   22.3611 O   0  0  0  0  0  0  0  0  0  0  0  0
    9.3346  -16.7220   21.9157 N   0  0  0  0  0  0  0  0  0  0  0  0
    9.6958  -17.3789   23.1211 C   0  0  1  0  0  0  0  0  0  0  0  0
   10.6449  -18.5133   23.0206 C   0  0  0  0  0  0  0  0  0  0  0  0
   10.1128  -19.6401   22.2086 C   0  0  0  0  0  0  0  0  0  0  0  0
    9.0389  -20.4611   22.5156 C   0  0  0  0  0  0  0  0  0  0  0  0
    8.8947  -21.3407   21.5239 N   0  0  0  0  0  0  0  0  0  0  0  0
    9.8535  -21.0913   20.6009 C   0  0  0  0  0  0  0  0  0  0  0  0
   10.5732  -20.0646   21.0350 N   0  0  0  0  0  0  0  0  0  0  0  0
   10.0103  -16.4125   24.2307 C   0  0  0  0  0  0  0  0  0  0  0  0
   11.0124  -15.6605   24.1597 O   0  0  0  0  0  0  0  0  0  0  0  0
    7.1174  -11.4502   25.3989 C   0  0  0  0  0  0  0  0  0  0  0  0
    7.3027  -11.9532   27.1008 S   0  0  0  0  0  0  0  0  0  0  0  0
    8.4482  -13.2374   27.3951 C   0  0  0  0  0  0  0  0  0  0  0  0
    8.6158  -14.3536   26.4994 C   0  0  0  0  0  0  0  0  0  0  0  0
    9.6601  -15.3902   26.5149 C   0  0  2  0  0  0  0  0  0  0  0  0
    9.2101  -16.3099   25.3757 N   0  0  0  0  0  0  0  0  0  0  0  0
    9.6561  -16.2853   27.7022 C   0  0  0  0  0  0  0  0  0  0  0  0
   10.3653  -16.1712   28.8269 O   0  0  0  0  0  0  0  0  0  0  0  0
    8.8694  -17.3076   27.6395 O   0  0  0  0  0  0  0  0  0  0  0  0
  1  2  1  0
  3  5  1  0
  3  2  1  0
  3  4  1  6
  5  6  1  1
  7  8  2  0
  7  5  1  0
  9  7  1  0
 10  9  1  0
 10 11  1  6
 12 16  1  0
 12 11  1  0
 13 12  2  0
 14 13  1  0
 14 15  1  0
 15 16  2  0
 17 10  1  0
 18 17  2  0
 19 20  1  0
 20 21  1  0
 22 21  1  0
 23 24  1  0
 23 22  1  1
 24 17  1  0
 25 23  1  0
 26 25  1  0
 27 25  2  0
M  END
$$$$
