IHM.pdb
     RDKit          3D

 27 27  0  0  1  0  0  0  0  0999 V2000
    6.9642  -22.3483   21.2278 C   0  0  0  0  0  0  0  0  0  0  0  0
    6.9499  -21.0353   20.5247 C   0  0  0  0  0  0  0  0  0  0  0  0
    7.4892  -19.8749   21.3253 C   0  0  2  0  0  0  0  0  0  0  0  0
    6.7598  -19.8432   22.6265 C   0  0  0  0  0  0  0  0  0  0  0  0
    7.4864  -18.6283   20.5216 C   0  0  2  0  0  0  0  0  0  0  0  0
    8.1433  -18.9703   19.2347 N   0  0  0  0  0  0  0  0  0  0  0  0
    8.1378  -17.4581   21.1213 C   0  0  0  0  0  0  0  0  0  0  0  0
    9.3837  -17.4458   21.2007 O   0  0  0  0  0  0  0  0  0  0  0  0
    7.3983  -16.3559   21.6039 N   0  0  0  0  0  0  0  0  0  0  0  0
    7.8905  -15.1734   22.2159 C   0  0  1  0  0  0  0  0  0  0  0  0
    7.3401  -13.8812   21.7415 C   0  0  0  0  0  0  0  0  0  0  0  0
    7.5399  -13.6700   20.2829 C   0  0  0  0  0  0  0  0  0  0  0  0
    6.5706  -13.3700   19.3384 C   0  0  0  0  0  0  0  0  0  0  0  0
    7.1694  -13.2617   18.1520 N   0  0  0  0  0  0  0  0  0  0  0  0
    8.4927  -13.4870   18.3293 C   0  0  0  0  0  0  0  0  0  0  0  0
    8.6907  -13.7303   19.6185 N   0  0  0  0  0  0  0  0  0  0  0  0
    7.9725  -15.2924   23.7136 C   0  0  0  0  0  0  0  0  0  0  0  0
    7.0296  -14.8949   24.4400 O   0  0  0  0  0  0  0  0  0  0  0  0
    6.4594  -20.3122   28.5200 C   0  0  0  0  0  0  0  0  0  0  0  0
    7.1191  -19.6849   26.9854 S   0  0  0  0  0  0  0  0  0  0  0  0
    7.9691  -18.1633   27.0872 C   0  0  0  0  0  0  0  0  0  0  0  0
    8.2744  -17.3614   25.9296 C   0  0  0  0  0  0  0  0  0  0  0  0
    9.0263  -16.0982   25.8642 C   0  0  2  0  0  0  0  0  0  0  0  0
    9.0885  -15.8447   24.3550 N   0  0  0  0  0  0  0  0  0  0  0  0
   10.4575  -16.1840   26.2584 C   0  0  0  0  0  0  0  0  0  0  0  0
   10.9874  -16.0804   27.4788 O   0  0  0  0  0  0  0  0  0  0  0  0
   11.2996  -16.3803   25.2989 O   0  0  0  0  0  0  0  0  0  0  0  0
  1  2  1  0
  3  5  1  0
  3  2  1  0
  3  4  1  1
  5  6  1  6
  7  8  2  0
  7  5  1  0
  9  7  1  0
 10  9  1  0
 10 11  1  1
 12 16  1  0
 12 11  1  0
 13 12  2  0
 14 13  1  0
 14 15  1  0
 15 16  2  0
 17 10  1  0
 18 17  2  0
 19 20  1  0
 20 21  1  0
 22 21  1  0
 23 24  1  0
 23 22  1  6
 24 17  1  0
 25 23  1  0
 26 25  1  0
 27 25  2  0
M  END
$$$$
