IHM.pdb
     RDKit          3D

 27 27  0  0  1  0  0  0  0  0999 V2000
    7.5822  -11.9678   18.4174 C   0  0  0  0  0  0  0  0  0  0  0  0
    7.7698  -13.4454   18.4077 C   0  0  0  0  0  0  0  0  0  0  0  0
    7.9233  -14.0798   19.7688 C   0  0  2  0  0  0  0  0  0  0  0  0
    8.9687  -13.3159   20.5103 C   0  0  0  0  0  0  0  0  0  0  0  0
    8.1163  -15.5458   19.6527 C   0  0  2  0  0  0  0  0  0  0  0  0
    6.9493  -16.0522   18.8870 N   0  0  0  0  0  0  0  0  0  0  0  0
    8.2538  -16.2922   20.9087 C   0  0  0  0  0  0  0  0  0  0  0  0
    7.2581  -16.3892   21.6556 O   0  0  0  0  0  0  0  0  0  0  0  0
    9.4711  -16.8991   21.2885 N   0  0  0  0  0  0  0  0  0  0  0  0
    9.7822  -17.5415   22.5156 C   0  0  1  0  0  0  0  0  0  0  0  0
   10.7792  -18.6380   22.4767 C   0  0  0  0  0  0  0  0  0  0  0  0
   10.3425  -19.7849   21.6366 C   0  0  0  0  0  0  0  0  0  0  0  0
    9.1131  -20.4248   21.6645 C   0  0  0  0  0  0  0  0  0  0  0  0
    9.1330  -21.3979   20.7532 N   0  0  0  0  0  0  0  0  0  0  0  0
   10.3469  -21.3842   20.1533 C   0  0  0  0  0  0  0  0  0  0  0  0
   11.0561  -20.4060   20.7015 N   0  0  0  0  0  0  0  0  0  0  0  0
    9.9893  -16.5636   23.6402 C   0  0  0  0  0  0  0  0  0  0  0  0
   10.9597  -15.7681   23.6263 O   0  0  0  0  0  0  0  0  0  0  0  0
    6.3646  -11.0526   27.4176 C   0  0  0  0  0  0  0  0  0  0  0  0
    6.5080  -12.4834   26.3612 S   0  0  0  0  0  0  0  0  0  0  0  0
    7.8984  -13.5011   26.6417 C   0  0  0  0  0  0  0  0  0  0  0  0
    8.2288  -14.6206   25.7969 C   0  0  0  0  0  0  0  0  0  0  0  0
    9.4127  -15.4926   25.8551 C   0  0  2  0  0  0  0  0  0  0  0  0
    9.1207  -16.4979   24.7371 N   0  0  0  0  0  0  0  0  0  0  0  0
    9.5197  -16.3469   27.0673 C   0  0  0  0  0  0  0  0  0  0  0  0
   10.1168  -16.0664   28.2274 O   0  0  0  0  0  0  0  0  0  0  0  0
    8.9685  -17.5124   26.9906 O   0  0  0  0  0  0  0  0  0  0  0  0
  1  2  1  0
  3  5  1  0
  3  2  1  0
  3  4  1  6
  5  6  1  1
  7  8  2  0
  7  5  1  0
  9  7  1  0
 10  9  1  0
 10 11  1  6
 12 16  1  0
 12 11  1  0
 13 12  2  0
 14 13  1  0
 14 15  1  0
 15 16  2  0
 17 10  1  0
 18 17  2  0
 19 20  1  0
 20 21  1  0
 22 21  1  0
 23 24  1  0
 23 22  1  1
 24 17  1  0
 25 23  1  0
 26 25  1  0
 27 25  2  0
M  END
$$$$
