IHM.pdb
     RDKit          3D

 27 27  0  0  1  0  0  0  0  0999 V2000
    7.5209  -11.8085   18.5957 C   0  0  0  0  0  0  0  0  0  0  0  0
    7.7642  -13.2746   18.4967 C   0  0  0  0  0  0  0  0  0  0  0  0
    7.8977  -13.9917   19.8183 C   0  0  2  0  0  0  0  0  0  0  0  0
    8.9171  -13.2636   20.6288 C   0  0  0  0  0  0  0  0  0  0  0  0
    8.1128  -15.4450   19.6146 C   0  0  2  0  0  0  0  0  0  0  0  0
    6.9842  -15.9105   18.7694 N   0  0  0  0  0  0  0  0  0  0  0  0
    8.2075  -16.2713   20.8236 C   0  0  0  0  0  0  0  0  0  0  0  0
    7.2537  -16.2593   21.6291 O   0  0  0  0  0  0  0  0  0  0  0  0
    9.3380  -17.0733   21.0947 N   0  0  0  0  0  0  0  0  0  0  0  0
    9.7202  -17.6561   22.3313 C   0  0  1  0  0  0  0  0  0  0  0  0
   10.7875  -18.6845   22.2986 C   0  0  0  0  0  0  0  0  0  0  0  0
   10.9610  -19.3770   23.6033 C   0  0  0  0  0  0  0  0  0  0  0  0
   10.1803  -19.2329   24.7397 C   0  0  0  0  0  0  0  0  0  0  0  0
   10.6752  -20.0324   25.6850 N   0  0  0  0  0  0  0  0  0  0  0  0
   11.7491  -20.6756   25.1688 C   0  0  0  0  0  0  0  0  0  0  0  0
   11.9009  -20.2648   23.9163 N   0  0  0  0  0  0  0  0  0  0  0  0
    9.8873  -16.6329   23.4219 C   0  0  0  0  0  0  0  0  0  0  0  0
   10.7742  -15.7489   23.3398 O   0  0  0  0  0  0  0  0  0  0  0  0
    5.9980  -11.3225   27.1925 C   0  0  0  0  0  0  0  0  0  0  0  0
    6.2353  -12.7508   26.1498 S   0  0  0  0  0  0  0  0  0  0  0  0
    7.7436  -13.6048   26.3595 C   0  0  0  0  0  0  0  0  0  0  0  0
    8.1239  -14.7286   25.5417 C   0  0  0  0  0  0  0  0  0  0  0  0
    9.3274  -15.5691   25.6444 C   0  0  2  0  0  0  0  0  0  0  0  0
    9.0722  -16.6210   24.5608 N   0  0  0  0  0  0  0  0  0  0  0  0
    9.4404  -16.3760   26.8882 C   0  0  0  0  0  0  0  0  0  0  0  0
    8.9100  -17.5725   27.1494 O   0  0  0  0  0  0  0  0  0  0  0  0
   10.1374  -15.8540   27.8420 O   0  0  0  0  0  0  0  0  0  0  0  0
  1  2  1  0
  3  5  1  0
  3  2  1  0
  3  4  1  6
  5  6  1  6
  7  8  2  0
  7  5  1  0
  9  7  1  0
 10  9  1  0
 10 11  1  6
 12 16  1  0
 12 11  1  0
 13 12  2  0
 14 13  1  0
 14 15  1  0
 15 16  2  0
 17 10  1  0
 18 17  2  0
 19 20  1  0
 20 21  1  0
 22 21  1  0
 23 24  1  0
 23 22  1  1
 24 17  1  0
 25 23  1  0
 26 25  1  0
 27 25  2  0
M  END
$$$$
