IHM.pdb
     RDKit          3D

 27 27  0  0  1  0  0  0  0  0999 V2000
    7.4801  -12.0033   20.1261 C   0  0  0  0  0  0  0  0  0  0  0  0
    7.5666  -13.4635   19.8450 C   0  0  0  0  0  0  0  0  0  0  0  0
    8.8015  -13.8983   19.0937 C   0  0  2  0  0  0  0  0  0  0  0  0
    8.8700  -13.1024   17.8336 C   0  0  0  0  0  0  0  0  0  0  0  0
    8.8498  -15.3747   18.9606 C   0  0  2  0  0  0  0  0  0  0  0  0
    7.7415  -15.7386   18.0420 N   0  0  0  0  0  0  0  0  0  0  0  0
    8.7467  -16.1503   20.2021 C   0  0  0  0  0  0  0  0  0  0  0  0
    7.6201  -16.5490   20.5633 O   0  0  0  0  0  0  0  0  0  0  0  0
    9.8789  -16.4558   20.9892 N   0  0  0  0  0  0  0  0  0  0  0  0
    9.9281  -17.1947   22.2003 C   0  0  1  0  0  0  0  0  0  0  0  0
   10.8016  -18.3921   22.2326 C   0  0  0  0  0  0  0  0  0  0  0  0
   10.3470  -19.4626   21.3056 C   0  0  0  0  0  0  0  0  0  0  0  0
   10.8158  -19.7192   20.0266 C   0  0  0  0  0  0  0  0  0  0  0  0
   10.1440  -20.7642   19.5423 N   0  0  0  0  0  0  0  0  0  0  0  0
    9.2637  -21.1700   20.4876 C   0  0  0  0  0  0  0  0  0  0  0  0
    9.4045  -20.3720   21.5383 N   0  0  0  0  0  0  0  0  0  0  0  0
   10.0568  -16.3087   23.4096 C   0  0  0  0  0  0  0  0  0  0  0  0
   11.0887  -15.6179   23.5902 O   0  0  0  0  0  0  0  0  0  0  0  0
    6.7996  -10.7936   26.2097 C   0  0  0  0  0  0  0  0  0  0  0  0
    6.4334  -12.4973   26.5931 S   0  0  0  0  0  0  0  0  0  0  0  0
    7.8112  -13.5612   26.7264 C   0  0  0  0  0  0  0  0  0  0  0  0
    8.1426  -14.5381   25.7203 C   0  0  0  0  0  0  0  0  0  0  0  0
    9.3146  -15.4257   25.6579 C   0  0  2  0  0  0  0  0  0  0  0  0
    9.0451  -16.2160   24.3739 N   0  0  0  0  0  0  0  0  0  0  0  0
    9.3759  -16.4798   26.7048 C   0  0  0  0  0  0  0  0  0  0  0  0
    9.9721  -16.4278   27.8976 O   0  0  0  0  0  0  0  0  0  0  0  0
    8.7800  -17.5913   26.4264 O   0  0  0  0  0  0  0  0  0  0  0  0
  1  2  1  0
  3  5  1  0
  3  2  1  0
  3  4  1  6
  5  6  1  6
  7  8  2  0
  7  5  1  0
  9  7  1  0
 10  9  1  0
 10 11  1  6
 12 16  1  0
 12 11  1  0
 13 12  2  0
 14 13  1  0
 14 15  1  0
 15 16  2  0
 17 10  1  0
 18 17  2  0
 19 20  1  0
 20 21  1  0
 22 21  1  0
 23 24  1  0
 23 22  1  1
 24 17  1  0
 25 23  1  0
 26 25  1  0
 27 25  2  0
M  END
$$$$
