WFN.pdb
     RDKit          3D

 34 36  0  0  1  0  0  0  0  0999 V2000
   26.5409  -21.9260  -13.4348 N   0  0  0  0  0  0  0  0  0  0  0  0
   26.8231  -20.8597  -12.5438 C   0  0  1  0  0  0  0  0  0  0  0  0
   26.0612  -19.5802  -12.7962 C   0  0  0  0  0  0  0  0  0  0  0  0
   26.2351  -19.0320  -14.1458 C   0  0  0  0  0  0  0  0  0  0  0  0
   25.2477  -18.6668  -15.0307 C   0  0  0  0  0  0  0  0  0  0  0  0
   25.7876  -18.1883  -16.1599 N   0  0  0  0  0  0  0  0  0  0  0  0
   27.1202  -18.2336  -16.0314 C   0  0  0  0  0  0  0  0  0  0  0  0
   28.1292  -17.8797  -16.8677 C   0  0  0  0  0  0  0  0  0  0  0  0
   29.4606  -18.0135  -16.5414 C   0  0  0  0  0  0  0  0  0  0  0  0
   29.7546  -18.5325  -15.3051 C   0  0  0  0  0  0  0  0  0  0  0  0
   28.7558  -18.8989  -14.4385 C   0  0  0  0  0  0  0  0  0  0  0  0
   27.4267  -18.7603  -14.7743 C   0  0  0  0  0  0  0  0  0  0  0  0
   26.7098  -21.2712  -11.1058 C   0  0  0  0  0  0  0  0  0  0  0  0
   25.9248  -22.2157  -10.8026 O   0  0  0  0  0  0  0  0  0  0  0  0
   27.4973  -20.5675  -10.1749 N   0  0  0  0  0  0  0  0  0  0  0  0
   27.3133  -20.7221   -8.7762 C   0  0  1  0  0  0  0  0  0  0  0  0
   28.3349  -19.9170   -8.0125 C   0  0  0  0  0  0  0  0  0  0  0  0
   28.1446  -20.0154   -6.5507 C   0  0  0  0  0  0  0  0  0  0  0  0
   28.6020  -21.0993   -5.8436 C   0  0  0  0  0  0  0  0  0  0  0  0
   28.4125  -21.1749   -4.4748 C   0  0  0  0  0  0  0  0  0  0  0  0
   27.7627  -20.1623   -3.8095 C   0  0  0  0  0  0  0  0  0  0  0  0
   27.3044  -19.0768   -4.5165 C   0  0  0  0  0  0  0  0  0  0  0  0
   27.4968  -19.0042   -5.8934 C   0  0  0  0  0  0  0  0  0  0  0  0
   25.9065  -20.2914   -8.4319 C   0  0  0  0  0  0  0  0  0  0  0  0
   25.3498  -19.2933   -8.9459 O   0  0  0  0  0  0  0  0  0  0  0  0
   20.9312  -20.0362   -9.3849 N   0  0  0  0  0  0  0  0  0  0  0  0
   21.6106  -21.1190   -8.7774 C   0  0  0  0  0  0  0  0  0  0  0  0
   20.9289  -22.0150   -8.2317 O   0  0  0  0  0  0  0  0  0  0  0  0
   23.0801  -21.1827   -8.7911 C   0  0  0  0  0  0  0  0  0  0  0  0
   23.7044  -20.8348   -7.4443 C   0  0  2  0  0  0  0  0  0  0  0  0
   25.1387  -21.0243   -7.4838 N   0  0  0  0  0  0  0  0  0  0  0  0
   23.1951  -21.6762   -6.3428 C   0  0  0  0  0  0  0  0  0  0  0  0
   22.1792  -21.3475   -5.6817 O   0  0  0  0  0  0  0  0  0  0  0  0
   23.7989  -22.8846   -5.9608 O   0  0  0  0  0  0  0  0  0  0  0  0
  2  1  1  6
  3  2  1  0
  4  3  1  0
  4  5  2  0
  6  5  1  0
  7  6  1  0
  8  7  2  0
  9  8  1  0
 10  9  2  0
 10 11  1  0
 11 12  2  0
 12  7  1  0
 12  4  1  0
 13  2  1  0
 14 13  2  0
 15 13  1  0
 16 15  1  0
 16 17  1  1
 18 17  1  0
 18 19  2  0
 20 19  1  0
 21 20  2  0
 22 23  2  0
 22 21  1  0
 23 18  1  0
 24 16  1  0
 25 24  2  0
 26 27  1  0
 27 28  2  0
 30 29  1  6
 29 27  1  0
 30 31  1  0
 31 24  1  0
 32 34  1  0
 32 30  1  0
 33 32  2  0
M  END
$$$$
