WFN.pdb
     RDKit          3D

 34 36  0  0  1  0  0  0  0  0999 V2000
   26.9457  -20.6322  -12.5385 N   0  0  0  0  0  0  0  0  0  0  0  0
   25.6441  -20.5322  -11.9849 C   0  0  1  0  0  0  0  0  0  0  0  0
   24.5282  -21.0867  -12.8385 C   0  0  0  0  0  0  0  0  0  0  0  0
   24.2752  -20.3263  -14.0672 C   0  0  0  0  0  0  0  0  0  0  0  0
   25.0681  -20.2682  -15.1895 C   0  0  0  0  0  0  0  0  0  0  0  0
   24.5029  -19.4862  -16.1194 N   0  0  0  0  0  0  0  0  0  0  0  0
   23.3461  -19.0268  -15.6243 C   0  0  0  0  0  0  0  0  0  0  0  0
   22.3960  -18.2056  -16.1399 C   0  0  0  0  0  0  0  0  0  0  0  0
   21.2589  -17.8435  -15.4522 C   0  0  0  0  0  0  0  0  0  0  0  0
   21.1029  -18.3509  -14.1863 C   0  0  0  0  0  0  0  0  0  0  0  0
   22.0464  -19.1834  -13.6390 C   0  0  0  0  0  0  0  0  0  0  0  0
   23.1804  -19.5403  -14.3357 C   0  0  0  0  0  0  0  0  0  0  0  0
   25.5718  -21.0830  -10.5915 C   0  0  0  0  0  0  0  0  0  0  0  0
   25.8369  -22.3059  -10.4055 O   0  0  0  0  0  0  0  0  0  0  0  0
   25.2080  -20.1878   -9.5678 N   0  0  0  0  0  0  0  0  0  0  0  0
   24.9265  -20.6368   -8.2511 C   0  0  1  0  0  0  0  0  0  0  0  0
   25.3233  -19.5937   -7.2366 C   0  0  0  0  0  0  0  0  0  0  0  0
   26.7671  -19.6367   -6.9263 C   0  0  0  0  0  0  0  0  0  0  0  0
   27.5083  -20.7725   -7.1381 C   0  0  0  0  0  0  0  0  0  0  0  0
   28.8593  -20.7945   -6.8392 C   0  0  0  0  0  0  0  0  0  0  0  0
   29.4726  -19.6761   -6.3261 C   0  0  0  0  0  0  0  0  0  0  0  0
   28.7314  -18.5386   -6.1137 C   0  0  0  0  0  0  0  0  0  0  0  0
   27.3726  -18.5202   -6.4155 C   0  0  0  0  0  0  0  0  0  0  0  0
   23.4520  -20.9549   -8.1631 C   0  0  0  0  0  0  0  0  0  0  0  0
   22.6151  -20.5678   -9.0117 O   0  0  0  0  0  0  0  0  0  0  0  0
   19.0191  -23.2996   -7.2612 N   0  0  0  0  0  0  0  0  0  0  0  0
   19.8948  -23.5255   -8.3499 C   0  0  0  0  0  0  0  0  0  0  0  0
   19.4711  -24.1872   -9.3236 O   0  0  0  0  0  0  0  0  0  0  0  0
   21.2658  -22.9931   -8.3304 C   0  0  0  0  0  0  0  0  0  0  0  0
   21.5552  -22.1369   -7.1024 C   0  0  2  0  0  0  0  0  0  0  0  0
   22.9436  -21.7286   -7.0821 N   0  0  0  0  0  0  0  0  0  0  0  0
   21.3042  -22.8512   -5.8345 C   0  0  0  0  0  0  0  0  0  0  0  0
   20.4756  -22.4233   -4.9933 O   0  0  0  0  0  0  0  0  0  0  0  0
   21.9620  -24.0404   -5.4828 O   0  0  0  0  0  0  0  0  0  0  0  0
  2  1  1  6
  3  2  1  0
  4  3  1  0
  4  5  2  0
  6  5  1  0
  7  6  1  0
  8  7  2  0
  9  8  1  0
 10  9  2  0
 10 11  1  0
 11 12  2  0
 12  7  1  0
 12  4  1  0
 13  2  1  0
 14 13  2  0
 15 13  1  0
 16 15  1  0
 16 17  1  1
 18 17  1  0
 18 19  2  0
 20 19  1  0
 21 20  2  0
 22 23  2  0
 22 21  1  0
 23 18  1  0
 24 16  1  0
 25 24  2  0
 26 27  1  0
 27 28  2  0
 30 29  1  6
 29 27  1  0
 30 31  1  0
 31 24  1  0
 32 34  1  0
 32 30  1  0
 33 32  2  0
M  END
$$$$
