WFN.pdb
     RDKit          3D

 34 36  0  0  1  0  0  0  0  0999 V2000
   36.7616  -36.3997   -0.8042 N   0  0  0  0  0  0  0  0  0  0  0  0
   35.4428  -36.1636   -1.2685 C   0  0  1  0  0  0  0  0  0  0  0  0
   34.6704  -37.3913   -1.6898 C   0  0  0  0  0  0  0  0  0  0  0  0
   35.2672  -38.1223   -2.8129 C   0  0  0  0  0  0  0  0  0  0  0  0
   36.1131  -39.2047   -2.7473 C   0  0  0  0  0  0  0  0  0  0  0  0
   36.4377  -39.6177   -3.9801 N   0  0  0  0  0  0  0  0  0  0  0  0
   35.8164  -38.8205   -4.8592 C   0  0  0  0  0  0  0  0  0  0  0  0
   35.8039  -38.7950   -6.2163 C   0  0  0  0  0  0  0  0  0  0  0  0
   35.0896  -37.8710   -6.9463 C   0  0  0  0  0  0  0  0  0  0  0  0
   34.3637  -36.9417   -6.2436 C   0  0  0  0  0  0  0  0  0  0  0  0
   34.3570  -36.9429   -4.8714 C   0  0  0  0  0  0  0  0  0  0  0  0
   35.0746  -37.8723   -4.1504 C   0  0  0  0  0  0  0  0  0  0  0  0
   34.6403  -35.3325   -0.3118 C   0  0  0  0  0  0  0  0  0  0  0  0
   35.0565  -35.1976    0.8751 O   0  0  0  0  0  0  0  0  0  0  0  0
   33.4586  -34.7490   -0.8068 N   0  0  0  0  0  0  0  0  0  0  0  0
   32.6019  -33.9816    0.0248 C   0  0  1  0  0  0  0  0  0  0  0  0
   32.7714  -32.5085   -0.2510 C   0  0  0  0  0  0  0  0  0  0  0  0
   34.0309  -31.9765    0.3087 C   0  0  0  0  0  0  0  0  0  0  0  0
   34.1320  -31.6293    1.6329 C   0  0  0  0  0  0  0  0  0  0  0  0
   35.3196  -31.1303    2.1387 C   0  0  0  0  0  0  0  0  0  0  0  0
   36.4114  -30.9776    1.3173 C   0  0  0  0  0  0  0  0  0  0  0  0
   36.3111  -31.3249   -0.0086 C   0  0  0  0  0  0  0  0  0  0  0  0
   35.1148  -31.8264   -0.5139 C   0  0  0  0  0  0  0  0  0  0  0  0
   31.1788  -34.4258   -0.2213 C   0  0  0  0  0  0  0  0  0  0  0  0
   30.1937  -33.9331    0.3763 O   0  0  0  0  0  0  0  0  0  0  0  0
   27.0040  -36.9514   -1.8962 N   0  0  0  0  0  0  0  0  0  0  0  0
   28.1216  -37.7351   -2.2706 C   0  0  0  0  0  0  0  0  0  0  0  0
   27.9140  -38.8245   -2.8498 O   0  0  0  0  0  0  0  0  0  0  0  0
   29.4886  -37.2742   -1.9833 C   0  0  0  0  0  0  0  0  0  0  0  0
   29.5285  -35.8956   -1.3331 C   0  0  2  0  0  0  0  0  0  0  0  0
   30.8956  -35.4499   -1.1682 N   0  0  0  0  0  0  0  0  0  0  0  0
   28.9112  -35.8773    0.0083 C   0  0  0  0  0  0  0  0  0  0  0  0
   27.8298  -35.2765    0.2248 O   0  0  0  0  0  0  0  0  0  0  0  0
   29.4783  -36.5192    1.1205 O   0  0  0  0  0  0  0  0  0  0  0  0
  2  1  1  1
  3  2  1  0
  4  3  1  0
  4  5  2  0
  6  5  1  0
  7  6  1  0
  8  7  2  0
  9  8  1  0
 10  9  2  0
 10 11  1  0
 11 12  2  0
 12  7  1  0
 12  4  1  0
 13  2  1  0
 14 13  2  0
 15 13  1  0
 16 15  1  0
 16 17  1  6
 18 17  1  0
 18 19  2  0
 20 19  1  0
 21 20  2  0
 22 23  2  0
 22 21  1  0
 23 18  1  0
 24 16  1  0
 25 24  2  0
 26 27  1  0
 27 28  2  0
 30 29  1  1
 29 27  1  0
 30 31  1  0
 31 24  1  0
 32 34  1  0
 32 30  1  0
 33 32  2  0
M  END
$$$$
