WFN.pdb
     RDKit          3D

 34 36  0  0  1  0  0  0  0  0999 V2000
   24.8210  -17.9021  -14.5264 N   0  0  0  0  0  0  0  0  0  0  0  0
   25.6937  -19.0049  -14.3449 C   0  0  1  0  0  0  0  0  0  0  0  0
   27.1345  -18.6554  -14.0564 C   0  0  0  0  0  0  0  0  0  0  0  0
   27.6769  -17.5887  -14.9048 C   0  0  0  0  0  0  0  0  0  0  0  0
   27.5175  -16.2323  -14.7423 C   0  0  0  0  0  0  0  0  0  0  0  0
   28.1750  -15.5675  -15.7022 N   0  0  0  0  0  0  0  0  0  0  0  0
   28.7667  -16.4690  -16.4970 C   0  0  0  0  0  0  0  0  0  0  0  0
   29.5409  -16.3389  -17.6044 C   0  0  0  0  0  0  0  0  0  0  0  0
   30.0573  -17.4139  -18.2935 C   0  0  0  0  0  0  0  0  0  0  0  0
   29.7597  -18.6663  -17.8169 C   0  0  0  0  0  0  0  0  0  0  0  0
   28.9798  -18.8288  -16.6997 C   0  0  0  0  0  0  0  0  0  0  0  0
   28.4685  -17.7466  -16.0170 C   0  0  0  0  0  0  0  0  0  0  0  0
   25.1724  -19.9864  -13.3375 C   0  0  0  0  0  0  0  0  0  0  0  0
   25.8416  -21.0345  -13.1055 O   0  0  0  0  0  0  0  0  0  0  0  0
   23.9537  -19.6704  -12.7075 N   0  0  0  0  0  0  0  0  0  0  0  0
   23.3230  -20.5721  -11.8112 C   0  0  1  0  0  0  0  0  0  0  0  0
   23.1469  -19.9381  -10.4541 C   0  0  0  0  0  0  0  0  0  0  0  0
   24.3464  -20.0924   -9.6053 C   0  0  0  0  0  0  0  0  0  0  0  0
   24.6649  -21.2991   -9.0340 C   0  0  0  0  0  0  0  0  0  0  0  0
   25.7915  -21.4239   -8.2400 C   0  0  0  0  0  0  0  0  0  0  0  0
   26.6036  -20.3374   -8.0159 C   0  0  0  0  0  0  0  0  0  0  0  0
   26.2854  -19.1288   -8.5874 C   0  0  0  0  0  0  0  0  0  0  0  0
   25.1513  -19.0071   -9.3855 C   0  0  0  0  0  0  0  0  0  0  0  0
   21.9936  -20.9783  -12.4037 C   0  0  0  0  0  0  0  0  0  0  0  0
   21.4474  -20.3630  -13.3488 O   0  0  0  0  0  0  0  0  0  0  0  0
   17.5526  -23.3912  -13.4144 N   0  0  0  0  0  0  0  0  0  0  0  0
   18.4518  -24.3575  -12.9037 C   0  0  0  0  0  0  0  0  0  0  0  0
   18.1099  -25.5606  -12.9362 O   0  0  0  0  0  0  0  0  0  0  0  0
   19.7527  -23.9506  -12.3509 C   0  0  0  0  0  0  0  0  0  0  0  0
   20.0075  -22.4518  -12.4677 C   0  0  2  0  0  0  0  0  0  0  0  0
   21.2918  -22.1076  -11.8960 N   0  0  0  0  0  0  0  0  0  0  0  0
   18.9963  -21.6424  -11.7585 C   0  0  0  0  0  0  0  0  0  0  0  0
   19.0468  -21.4716  -10.5153 O   0  0  0  0  0  0  0  0  0  0  0  0
   17.9232  -21.0152  -12.4109 O   0  0  0  0  0  0  0  0  0  0  0  0
  2  1  1  1
  3  2  1  0
  4  3  1  0
  4  5  2  0
  6  5  1  0
  7  6  1  0
  8  7  2  0
  9  8  1  0
 10  9  2  0
 10 11  1  0
 11 12  2  0
 12  7  1  0
 12  4  1  0
 13  2  1  0
 14 13  2  0
 15 13  1  0
 16 15  1  0
 16 17  1  1
 18 17  1  0
 18 19  2  0
 20 19  1  0
 21 20  2  0
 22 23  2  0
 22 21  1  0
 23 18  1  0
 24 16  1  0
 25 24  2  0
 26 27  1  0
 27 28  2  0
 30 29  1  1
 29 27  1  0
 30 31  1  0
 31 24  1  0
 32 34  1  0
 32 30  1  0
 33 32  2  0
M  END
$$$$
