WFN.pdb
     RDKit          3D

 34 36  0  0  1  0  0  0  0  0999 V2000
   25.3344  -19.3289  -12.1036 N   0  0  0  0  0  0  0  0  0  0  0  0
   25.4772  -20.7349  -11.9878 C   0  0  1  0  0  0  0  0  0  0  0  0
   25.8110  -21.4640  -13.2678 C   0  0  0  0  0  0  0  0  0  0  0  0
   25.1049  -20.9588  -14.4502 C   0  0  0  0  0  0  0  0  0  0  0  0
   25.6625  -20.4465  -15.5983 C   0  0  0  0  0  0  0  0  0  0  0  0
   24.7036  -20.1042  -16.4695 N   0  0  0  0  0  0  0  0  0  0  0  0
   23.5190  -20.3840  -15.9101 C   0  0  0  0  0  0  0  0  0  0  0  0
   22.2442  -20.2326  -16.3511 C   0  0  0  0  0  0  0  0  0  0  0  0
   21.1416  -20.5847  -15.6045 C   0  0  0  0  0  0  0  0  0  0  0  0
   21.3702  -21.1118  -14.3579 C   0  0  0  0  0  0  0  0  0  0  0  0
   22.6478  -21.2768  -13.8855 C   0  0  0  0  0  0  0  0  0  0  0  0
   23.7444  -20.9219  -14.6406 C   0  0  0  0  0  0  0  0  0  0  0  0
   26.4235  -21.1249  -10.8913 C   0  0  0  0  0  0  0  0  0  0  0  0
   26.7588  -22.3395  -10.7794 O   0  0  0  0  0  0  0  0  0  0  0  0
   26.8824  -20.0965  -10.0464 N   0  0  0  0  0  0  0  0  0  0  0  0
   27.1951  -20.3367   -8.6830 C   0  0  1  0  0  0  0  0  0  0  0  0
   28.2220  -19.3481   -8.1900 C   0  0  0  0  0  0  0  0  0  0  0  0
   28.5505  -19.5482   -6.7635 C   0  0  0  0  0  0  0  0  0  0  0  0
   28.1557  -18.6456   -5.8076 C   0  0  0  0  0  0  0  0  0  0  0  0
   28.4748  -18.8488   -4.4764 C   0  0  0  0  0  0  0  0  0  0  0  0
   29.1918  -19.9594   -4.0987 C   0  0  0  0  0  0  0  0  0  0  0  0
   29.5875  -20.8636   -5.0549 C   0  0  0  0  0  0  0  0  0  0  0  0
   29.2647  -20.6558   -6.3931 C   0  0  0  0  0  0  0  0  0  0  0  0
   25.9180  -20.2476   -7.8803 C   0  0  0  0  0  0  0  0  0  0  0  0
   25.0595  -19.3516   -8.0547 O   0  0  0  0  0  0  0  0  0  0  0  0
   21.5048  -23.3098   -5.5910 N   0  0  0  0  0  0  0  0  0  0  0  0
   22.0881  -22.0786   -5.9744 C   0  0  0  0  0  0  0  0  0  0  0  0
   21.5071  -21.0201   -5.6467 O   0  0  0  0  0  0  0  0  0  0  0  0
   23.3449  -22.0518   -6.7382 C   0  0  0  0  0  0  0  0  0  0  0  0
   24.3855  -21.1110   -6.1407 C   0  0  2  0  0  0  0  0  0  0  0  0
   25.6340  -21.2056   -6.8668 N   0  0  0  0  0  0  0  0  0  0  0  0
   24.6911  -21.4179   -4.7289 C   0  0  0  0  0  0  0  0  0  0  0  0
   25.7020  -22.0902   -4.4076 O   0  0  0  0  0  0  0  0  0  0  0  0
   23.8877  -20.9878   -3.6611 O   0  0  0  0  0  0  0  0  0  0  0  0
  2  1  1  6
  3  2  1  0
  4  3  1  0
  4  5  2  0
  6  5  1  0
  7  6  1  0
  8  7  2  0
  9  8  1  0
 10  9  2  0
 10 11  1  0
 11 12  2  0
 12  7  1  0
 12  4  1  0
 13  2  1  0
 14 13  2  0
 15 13  1  0
 16 15  1  0
 16 17  1  1
 18 17  1  0
 18 19  2  0
 20 19  1  0
 21 20  2  0
 22 23  2  0
 22 21  1  0
 23 18  1  0
 24 16  1  0
 25 24  2  0
 26 27  1  0
 27 28  2  0
 30 29  1  6
 29 27  1  0
 30 31  1  0
 31 24  1  0
 32 34  1  0
 32 30  1  0
 33 32  2  0
M  END
$$$$
