WFN.pdb
     RDKit          3D

 34 36  0  0  1  0  0  0  0  0999 V2000
   26.4429  -21.4121  -14.2686 N   0  0  0  0  0  0  0  0  0  0  0  0
   25.1612  -20.8286  -14.1036 C   0  0  1  0  0  0  0  0  0  0  0  0
   24.2504  -20.9047  -15.3061 C   0  0  0  0  0  0  0  0  0  0  0  0
   24.7551  -20.1998  -16.4894 C   0  0  0  0  0  0  0  0  0  0  0  0
   25.7712  -20.5980  -17.3265 C   0  0  0  0  0  0  0  0  0  0  0  0
   25.9384  -19.7067  -18.3131 N   0  0  0  0  0  0  0  0  0  0  0  0
   25.0449  -18.7242  -18.1372 C   0  0  0  0  0  0  0  0  0  0  0  0
   24.7887  -17.5892  -18.8364 C   0  0  0  0  0  0  0  0  0  0  0  0
   23.8098  -16.6886  -18.4791 C   0  0  0  0  0  0  0  0  0  0  0  0
   23.0720  -16.9760  -17.3577 C   0  0  0  0  0  0  0  0  0  0  0  0
   23.3081  -18.1157  -16.6311 C   0  0  0  0  0  0  0  0  0  0  0  0
   24.2895  -19.0108  -16.9975 C   0  0  0  0  0  0  0  0  0  0  0  0
   24.4610  -21.3256  -12.8737 C   0  0  0  0  0  0  0  0  0  0  0  0
   24.4186  -22.5714  -12.6584 O   0  0  0  0  0  0  0  0  0  0  0  0
   23.8886  -20.3568  -12.0277 N   0  0  0  0  0  0  0  0  0  0  0  0
   23.1952  -20.7184  -10.8434 C   0  0  1  0  0  0  0  0  0  0  0  0
   23.4425  -19.7075   -9.7517 C   0  0  0  0  0  0  0  0  0  0  0  0
   24.7746  -19.8676   -9.1331 C   0  0  0  0  0  0  0  0  0  0  0  0
   25.2223  -21.0950   -8.7122 C   0  0  0  0  0  0  0  0  0  0  0  0
   26.4723  -21.2251   -8.1328 C   0  0  0  0  0  0  0  0  0  0  0  0
   27.2788  -20.1231   -7.9733 C   0  0  0  0  0  0  0  0  0  0  0  0
   26.8315  -18.8939   -8.3943 C   0  0  0  0  0  0  0  0  0  0  0  0
   25.5734  -18.7669   -8.9767 C   0  0  0  0  0  0  0  0  0  0  0  0
   21.7236  -20.8256  -11.1689 C   0  0  0  0  0  0  0  0  0  0  0  0
   21.1192  -19.9994  -11.8917 O   0  0  0  0  0  0  0  0  0  0  0  0
   16.8337  -21.9296  -11.6617 N   0  0  0  0  0  0  0  0  0  0  0  0
   17.4966  -20.6861  -11.5291 C   0  0  0  0  0  0  0  0  0  0  0  0
   16.8403  -19.6404  -11.7317 O   0  0  0  0  0  0  0  0  0  0  0  0
   18.9200  -20.6324  -11.1624 C   0  0  0  0  0  0  0  0  0  0  0  0
   19.5568  -22.0126  -11.0413 C   0  0  2  0  0  0  0  0  0  0  0  0
   20.9462  -21.8998  -10.6519 N   0  0  0  0  0  0  0  0  0  0  0  0
   19.5314  -22.7680  -12.3099 C   0  0  0  0  0  0  0  0  0  0  0  0
   18.8248  -23.7971  -12.4467 O   0  0  0  0  0  0  0  0  0  0  0  0
   20.2824  -22.3973  -13.4365 O   0  0  0  0  0  0  0  0  0  0  0  0
  2  1  1  6
  3  2  1  0
  4  3  1  0
  4  5  2  0
  6  5  1  0
  7  6  1  0
  8  7  2  0
  9  8  1  0
 10  9  2  0
 10 11  1  0
 11 12  2  0
 12  7  1  0
 12  4  1  0
 13  2  1  0
 14 13  2  0
 15 13  1  0
 16 15  1  0
 16 17  1  1
 18 17  1  0
 18 19  2  0
 20 19  1  0
 21 20  2  0
 22 23  2  0
 22 21  1  0
 23 18  1  0
 24 16  1  0
 25 24  2  0
 26 27  1  0
 27 28  2  0
 30 29  1  6
 29 27  1  0
 30 31  1  0
 31 24  1  0
 32 34  1  0
 32 30  1  0
 33 32  2  0
M  END
$$$$
