WFN.pdb
     RDKit          3D

 34 36  0  0  1  0  0  0  0  0999 V2000
   26.7116  -21.6724  -13.3164 N   0  0  0  0  0  0  0  0  0  0  0  0
   26.5327  -20.6030  -12.4025 C   0  0  1  0  0  0  0  0  0  0  0  0
   25.3165  -19.7394  -12.6397 C   0  0  0  0  0  0  0  0  0  0  0  0
   25.2481  -19.1511  -13.9818 C   0  0  0  0  0  0  0  0  0  0  0  0
   24.1346  -19.0190  -14.7781 C   0  0  0  0  0  0  0  0  0  0  0  0
   24.4549  -18.4147  -15.9305 N   0  0  0  0  0  0  0  0  0  0  0  0
   25.7670  -18.1465  -15.9048 C   0  0  0  0  0  0  0  0  0  0  0  0
   26.5945  -17.5560  -16.8044 C   0  0  0  0  0  0  0  0  0  0  0  0
   27.9422  -17.3763  -16.5842 C   0  0  0  0  0  0  0  0  0  0  0  0
   28.4480  -17.8248  -15.3895 C   0  0  0  0  0  0  0  0  0  0  0  0
   27.6358  -18.4253  -14.4608 C   0  0  0  0  0  0  0  0  0  0  0  0
   26.2884  -18.5998  -14.6906 C   0  0  0  0  0  0  0  0  0  0  0  0
   26.5930  -21.0560  -10.9738 C   0  0  0  0  0  0  0  0  0  0  0  0
   26.3701  -22.2731  -10.7108 O   0  0  0  0  0  0  0  0  0  0  0  0
   26.8985  -20.0806  -10.0057 N   0  0  0  0  0  0  0  0  0  0  0  0
   27.0612  -20.4159   -8.6363 C   0  0  1  0  0  0  0  0  0  0  0  0
   27.9385  -19.4050   -7.9411 C   0  0  0  0  0  0  0  0  0  0  0  0
   28.0797  -19.6865   -6.4976 C   0  0  0  0  0  0  0  0  0  0  0  0
   27.4810  -18.8893   -5.5540 C   0  0  0  0  0  0  0  0  0  0  0  0
   27.6265  -19.1674   -4.2062 C   0  0  0  0  0  0  0  0  0  0  0  0
   28.3738  -20.2474   -3.7995 C   0  0  0  0  0  0  0  0  0  0  0  0
   28.9735  -21.0459   -4.7434 C   0  0  0  0  0  0  0  0  0  0  0  0
   28.8250  -20.7630   -6.0984 C   0  0  0  0  0  0  0  0  0  0  0  0
   25.6930  -20.4857   -7.9988 C   0  0  0  0  0  0  0  0  0  0  0  0
   24.7955  -19.6363   -8.2068 O   0  0  0  0  0  0  0  0  0  0  0  0
   21.4477  -22.1428   -5.6117 N   0  0  0  0  0  0  0  0  0  0  0  0
   22.2781  -23.2697   -5.8211 C   0  0  0  0  0  0  0  0  0  0  0  0
   21.8220  -24.4014   -5.5444 O   0  0  0  0  0  0  0  0  0  0  0  0
   23.6408  -23.1069   -6.3505 C   0  0  0  0  0  0  0  0  0  0  0  0
   24.0093  -21.6503   -6.6100 C   0  0  2  0  0  0  0  0  0  0  0  0
   25.3628  -21.5494   -7.1127 N   0  0  0  0  0  0  0  0  0  0  0  0
   23.9457  -20.8180   -5.3919 C   0  0  0  0  0  0  0  0  0  0  0  0
   24.9213  -20.7295   -4.6060 O   0  0  0  0  0  0  0  0  0  0  0  0
   22.8095  -20.0774   -5.0294 O   0  0  0  0  0  0  0  0  0  0  0  0
  2  1  1  6
  3  2  1  0
  4  3  1  0
  4  5  2  0
  6  5  1  0
  7  6  1  0
  8  7  2  0
  9  8  1  0
 10  9  2  0
 10 11  1  0
 11 12  2  0
 12  7  1  0
 12  4  1  0
 13  2  1  0
 14 13  2  0
 15 13  1  0
 16 15  1  0
 16 17  1  1
 18 17  1  0
 18 19  2  0
 20 19  1  0
 21 20  2  0
 22 23  2  0
 22 21  1  0
 23 18  1  0
 24 16  1  0
 25 24  2  0
 26 27  1  0
 27 28  2  0
 30 29  1  1
 29 27  1  0
 30 31  1  0
 31 24  1  0
 32 34  1  0
 32 30  1  0
 33 32  2  0
M  END
$$$$
