WFN.pdb
     RDKit          3D

 34 36  0  0  1  0  0  0  0  0999 V2000
   28.3429  -21.4904  -15.8368 N   0  0  0  0  0  0  0  0  0  0  0  0
   27.3673  -20.5936  -15.3322 C   0  0  1  0  0  0  0  0  0  0  0  0
   26.4506  -19.9797  -16.3638 C   0  0  0  0  0  0  0  0  0  0  0  0
   27.1370  -19.1572  -17.3659 C   0  0  0  0  0  0  0  0  0  0  0  0
   27.4487  -19.5065  -18.6591 C   0  0  0  0  0  0  0  0  0  0  0  0
   28.0585  -18.4891  -19.2825 N   0  0  0  0  0  0  0  0  0  0  0  0
   28.1536  -17.4719  -18.4161 C   0  0  0  0  0  0  0  0  0  0  0  0
   28.6800  -16.2257  -18.5277 C   0  0  0  0  0  0  0  0  0  0  0  0
   28.6828  -15.3135  -17.4958 C   0  0  0  0  0  0  0  0  0  0  0  0
   28.1202  -15.7085  -16.3076 C   0  0  0  0  0  0  0  0  0  0  0  0
   27.5803  -16.9619  -16.1653 C   0  0  0  0  0  0  0  0  0  0  0  0
   27.5819  -17.8670  -17.2042 C   0  0  0  0  0  0  0  0  0  0  0  0
   26.5769  -21.1852  -14.2030 C   0  0  0  0  0  0  0  0  0  0  0  0
   26.1619  -22.3756  -14.3081 O   0  0  0  0  0  0  0  0  0  0  0  0
   26.3459  -20.3629  -13.0840 N   0  0  0  0  0  0  0  0  0  0  0  0
   25.4519  -20.7458  -12.0503 C   0  0  1  0  0  0  0  0  0  0  0  0
   25.9759  -20.3104  -10.7047 C   0  0  0  0  0  0  0  0  0  0  0  0
   27.3068  -20.8810  -10.4120 C   0  0  0  0  0  0  0  0  0  0  0  0
   27.5600  -22.2202  -10.5754 C   0  0  0  0  0  0  0  0  0  0  0  0
   28.8125  -22.7370  -10.2940 C   0  0  0  0  0  0  0  0  0  0  0  0
   29.8169  -21.9114   -9.8470 C   0  0  0  0  0  0  0  0  0  0  0  0
   29.5645  -20.5706   -9.6830 C   0  0  0  0  0  0  0  0  0  0  0  0
   28.3032  -20.0543   -9.9672 C   0  0  0  0  0  0  0  0  0  0  0  0
   24.1019  -20.1312  -12.3385 C   0  0  0  0  0  0  0  0  0  0  0  0
   23.9282  -19.2238  -13.1851 O   0  0  0  0  0  0  0  0  0  0  0  0
   20.2839  -22.3495  -15.4129 N   0  0  0  0  0  0  0  0  0  0  0  0
   20.4158  -21.5750  -14.2356 C   0  0  0  0  0  0  0  0  0  0  0  0
   19.4035  -20.9836  -13.7989 O   0  0  0  0  0  0  0  0  0  0  0  0
   21.7124  -21.4728  -13.5486 C   0  0  0  0  0  0  0  0  0  0  0  0
   21.6671  -20.5691  -12.3214 C   0  0  2  0  0  0  0  0  0  0  0  0
   22.9436  -20.5726  -11.6391 N   0  0  0  0  0  0  0  0  0  0  0  0
   20.6563  -20.9961  -11.3331 C   0  0  0  0  0  0  0  0  0  0  0  0
   20.8738  -21.9456  -10.5405 O   0  0  0  0  0  0  0  0  0  0  0  0
   19.3999  -20.3823  -11.2095 O   0  0  0  0  0  0  0  0  0  0  0  0
  2  1  1  6
  3  2  1  0
  4  3  1  0
  4  5  2  0
  6  5  1  0
  7  6  1  0
  8  7  2  0
  9  8  1  0
 10  9  2  0
 10 11  1  0
 11 12  2  0
 12  7  1  0
 12  4  1  0
 13  2  1  0
 14 13  2  0
 15 13  1  0
 16 15  1  0
 16 17  1  1
 18 17  1  0
 18 19  2  0
 20 19  1  0
 21 20  2  0
 22 23  2  0
 22 21  1  0
 23 18  1  0
 24 16  1  0
 25 24  2  0
 26 27  1  0
 27 28  2  0
 30 29  1  6
 29 27  1  0
 30 31  1  0
 31 24  1  0
 32 34  1  0
 32 30  1  0
 33 32  2  0
M  END
$$$$
