WFN.pdb
     RDKit          3D

 34 36  0  0  1  0  0  0  0  0999 V2000
   28.5141  -20.9447  -15.4760 N   0  0  0  0  0  0  0  0  0  0  0  0
   27.4814  -20.1820  -14.8740 C   0  0  1  0  0  0  0  0  0  0  0  0
   26.4566  -19.6082  -15.8236 C   0  0  0  0  0  0  0  0  0  0  0  0
   26.9270  -18.4476  -16.5877 C   0  0  0  0  0  0  0  0  0  0  0  0
   27.0893  -18.3572  -17.9505 C   0  0  0  0  0  0  0  0  0  0  0  0
   27.5187  -17.1337  -18.2884 N   0  0  0  0  0  0  0  0  0  0  0  0
   27.6423  -16.4149  -17.1647 C   0  0  0  0  0  0  0  0  0  0  0  0
   28.0390  -15.1364  -16.9394 C   0  0  0  0  0  0  0  0  0  0  0  0
   28.1029  -14.5775  -15.6822 C   0  0  0  0  0  0  0  0  0  0  0  0
   27.7430  -15.3729  -14.6229 C   0  0  0  0  0  0  0  0  0  0  0  0
   27.3377  -16.6690  -14.8200 C   0  0  0  0  0  0  0  0  0  0  0  0
   27.2765  -17.2185  -16.0821 C   0  0  0  0  0  0  0  0  0  0  0  0
   26.8125  -20.9137  -13.7483 C   0  0  0  0  0  0  0  0  0  0  0  0
   26.6781  -22.1687  -13.8323 O   0  0  0  0  0  0  0  0  0  0  0  0
   26.3719  -20.1423  -12.6562 N   0  0  0  0  0  0  0  0  0  0  0  0
   25.5396  -20.6898  -11.6453 C   0  0  1  0  0  0  0  0  0  0  0  0
   25.7140  -19.9403  -10.3481 C   0  0  0  0  0  0  0  0  0  0  0  0
   26.9258  -20.3637   -9.6167 C   0  0  0  0  0  0  0  0  0  0  0  0
   27.9760  -20.9650  -10.2646 C   0  0  0  0  0  0  0  0  0  0  0  0
   29.1021  -21.3569   -9.5622 C   0  0  0  0  0  0  0  0  0  0  0  0
   29.1790  -21.1469   -8.2057 C   0  0  0  0  0  0  0  0  0  0  0  0
   28.1281  -20.5452   -7.5561 C   0  0  0  0  0  0  0  0  0  0  0  0
   26.9969  -20.1523   -8.2660 C   0  0  0  0  0  0  0  0  0  0  0  0
   24.1081  -20.6302  -12.1253 C   0  0  0  0  0  0  0  0  0  0  0  0
   23.6125  -19.6222  -12.6808 O   0  0  0  0  0  0  0  0  0  0  0  0
   20.4711  -23.8433  -15.1945 N   0  0  0  0  0  0  0  0  0  0  0  0
   20.4921  -23.5035  -13.8207 C   0  0  0  0  0  0  0  0  0  0  0  0
   19.3991  -23.3663  -13.2275 O   0  0  0  0  0  0  0  0  0  0  0  0
   21.7694  -23.3182  -13.1152 C   0  0  0  0  0  0  0  0  0  0  0  0
   22.0672  -21.8574  -12.7955 C   0  0  2  0  0  0  0  0  0  0  0  0
   23.2439  -21.7488  -11.9596 N   0  0  0  0  0  0  0  0  0  0  0  0
   20.9666  -21.1949  -12.0673 C   0  0  0  0  0  0  0  0  0  0  0  0
   21.0218  -21.0037  -10.8273 O   0  0  0  0  0  0  0  0  0  0  0  0
   19.7981  -20.7383  -12.6971 O   0  0  0  0  0  0  0  0  0  0  0  0
  2  1  1  6
  3  2  1  0
  4  3  1  0
  4  5  2  0
  6  5  1  0
  7  6  1  0
  8  7  2  0
  9  8  1  0
 10  9  2  0
 10 11  1  0
 11 12  2  0
 12  7  1  0
 12  4  1  0
 13  2  1  0
 14 13  2  0
 15 13  1  0
 16 15  1  0
 16 17  1  1
 18 17  1  0
 18 19  2  0
 20 19  1  0
 21 20  2  0
 22 23  2  0
 22 21  1  0
 23 18  1  0
 24 16  1  0
 25 24  2  0
 26 27  1  0
 27 28  2  0
 30 29  1  1
 29 27  1  0
 30 31  1  0
 31 24  1  0
 32 34  1  0
 32 30  1  0
 33 32  2  0
M  END
$$$$
