WFN.pdb
     RDKit          3D

 34 36  0  0  1  0  0  0  0  0999 V2000
   22.5230  -13.5476  -16.7722 N   0  0  0  0  0  0  0  0  0  0  0  0
   22.8995  -12.3783  -16.0639 C   0  0  1  0  0  0  0  0  0  0  0  0
   24.3727  -12.0460  -16.0905 C   0  0  0  0  0  0  0  0  0  0  0  0
   25.2500  -13.1710  -15.7489 C   0  0  0  0  0  0  0  0  0  0  0  0
   25.2307  -13.9232  -14.5977 C   0  0  0  0  0  0  0  0  0  0  0  0
   26.1690  -14.8785  -14.6495 N   0  0  0  0  0  0  0  0  0  0  0  0
   26.8081  -14.7658  -15.8214 C   0  0  0  0  0  0  0  0  0  0  0  0
   27.8307  -15.4676  -16.3732 C   0  0  0  0  0  0  0  0  0  0  0  0
   28.3576  -15.1827  -17.6134 C   0  0  0  0  0  0  0  0  0  0  0  0
   27.8043  -14.1334  -18.3042 C   0  0  0  0  0  0  0  0  0  0  0  0
   26.7697  -13.4060  -17.7719 C   0  0  0  0  0  0  0  0  0  0  0  0
   26.2492  -13.6997  -16.5304 C   0  0  0  0  0  0  0  0  0  0  0  0
   22.0780  -11.1851  -16.4528 C   0  0  0  0  0  0  0  0  0  0  0  0
   22.0350  -10.8459  -17.6707 O   0  0  0  0  0  0  0  0  0  0  0  0
   21.3989  -10.5117  -15.4197 N   0  0  0  0  0  0  0  0  0  0  0  0
   20.5367   -9.4162  -15.6857 C   0  0  1  0  0  0  0  0  0  0  0  0
   19.1406   -9.7056  -15.1936 C   0  0  0  0  0  0  0  0  0  0  0  0
   18.4617  -10.7323  -16.0108 C   0  0  0  0  0  0  0  0  0  0  0  0
   18.4104  -12.0439  -15.6092 C   0  0  0  0  0  0  0  0  0  0  0  0
   17.7718  -12.9920  -16.3892 C   0  0  0  0  0  0  0  0  0  0  0  0
   17.1816  -12.6276  -17.5762 C   0  0  0  0  0  0  0  0  0  0  0  0
   17.2324  -11.3147  -17.9791 C   0  0  0  0  0  0  0  0  0  0  0  0
   17.8758  -10.3638  -17.1919 C   0  0  0  0  0  0  0  0  0  0  0  0
   21.1101   -8.1878  -15.0183 C   0  0  0  0  0  0  0  0  0  0  0  0
   22.0554   -8.2319  -14.1968 O   0  0  0  0  0  0  0  0  0  0  0  0
   22.5789   -3.4283  -13.9370 N   0  0  0  0  0  0  0  0  0  0  0  0
   23.3200   -4.4093  -14.6381 C   0  0  0  0  0  0  0  0  0  0  0  0
   24.5375   -4.2018  -14.8375 O   0  0  0  0  0  0  0  0  0  0  0  0
   22.6690   -5.6385  -15.1167 C   0  0  0  0  0  0  0  0  0  0  0  0
   21.2037   -5.7354  -14.7064 C   0  0  2  0  0  0  0  0  0  0  0  0
   20.5830   -6.8974  -15.3058 N   0  0  0  0  0  0  0  0  0  0  0  0
   20.4115   -4.5640  -15.1317 C   0  0  0  0  0  0  0  0  0  0  0  0
   19.9816   -4.4542  -16.3066 O   0  0  0  0  0  0  0  0  0  0  0  0
   20.0865   -3.5057  -14.2686 O   0  0  0  0  0  0  0  0  0  0  0  0
  2  1  1  6
  3  2  1  0
  4  3  1  0
  4  5  2  0
  6  5  1  0
  7  6  1  0
  8  7  2  0
  9  8  1  0
 10  9  2  0
 10 11  1  0
 11 12  2  0
 12  7  1  0
 12  4  1  0
 13  2  1  0
 14 13  2  0
 15 13  1  0
 16 15  1  0
 16 17  1  1
 18 17  1  0
 18 19  2  0
 20 19  1  0
 21 20  2  0
 22 23  2  0
 22 21  1  0
 23 18  1  0
 24 16  1  0
 25 24  2  0
 26 27  1  0
 27 28  2  0
 30 29  1  6
 29 27  1  0
 30 31  1  0
 31 24  1  0
 32 34  1  0
 32 30  1  0
 33 32  2  0
M  END
$$$$
