SMV.pdb
     RDKit          3D

 22 21  0  0  1  0  0  0  0  0999 V2000
   10.2542  -18.3497   21.6708 O   0  0  0  0  0  0  0  0  0  0  0  0
    9.0728  -17.8297   21.1595 C   0  0  0  0  0  0  0  0  0  0  0  0
    9.1972  -16.3241   21.0366 C   0  0  2  0  0  0  0  0  0  0  0  0
   10.2389  -16.0378   20.0956 N   0  0  0  0  0  0  0  0  0  0  0  0
    9.4711  -15.6750   22.3228 C   0  0  0  0  0  0  0  0  0  0  0  0
   10.6141  -15.2843   22.6721 O   0  0  0  0  0  0  0  0  0  0  0  0
    5.5562  -11.3640   25.7173 C   0  0  0  0  0  0  0  0  0  0  0  0
    5.7551  -12.8492   26.7012 S   0  0  0  0  0  0  0  0  0  0  0  0
    7.3322  -13.6875   26.3634 C   0  0  0  0  0  0  0  0  0  0  0  0
    7.2472  -14.3568   25.0340 C   0  0  0  0  0  0  0  0  0  0  0  0
    8.5997  -14.8223   24.5363 C   0  0  2  0  0  0  0  0  0  0  0  0
    8.4182  -15.4508   23.2661 N   0  0  0  0  0  0  0  0  0  0  0  0
    9.2655  -15.6715   25.5291 C   0  0  0  0  0  0  0  0  0  0  0  0
    9.1957  -16.9215   25.4130 O   0  0  0  0  0  0  0  0  0  0  0  0
   10.1885  -14.8719   29.7049 C   0  0  0  0  0  0  0  0  0  0  0  0
   11.2644  -15.2881   28.7299 C   0  0  2  0  0  0  0  0  0  0  0  0
   11.9615  -14.0551   28.1775 C   0  0  0  0  0  0  0  0  0  0  0  0
   10.6874  -16.0386   27.5461 C   0  0  2  0  0  0  0  0  0  0  0  0
    9.9973  -15.1644   26.6332 N   0  0  0  0  0  0  0  0  0  0  0  0
    9.7899  -17.0894   28.0950 C   0  0  0  0  0  0  0  0  0  0  0  0
    8.5412  -16.9939   27.9241 O   0  0  0  0  0  0  0  0  0  0  0  0
   10.2453  -18.1818   28.7919 O   0  0  0  0  0  0  0  0  0  0  0  0
  1  2  1  0
  3  4  1  6
  3  5  1  0
  3  2  1  0
  5  6  2  0
  7  8  1  0
  8  9  1  0
  9 10  1  0
 11 10  1  1
 11 13  1  0
 12  5  1  0
 12 11  1  0
 13 19  1  0
 13 14  2  0
 16 18  1  0
 16 15  1  1
 17 16  1  0
 18 20  1  0
 18 19  1  6
 20 22  1  0
 21 20  2  0
M  END
$$$$
