SMV.pdb
     RDKit          3D

 22 21  0  0  1  0  0  0  0  0999 V2000
    8.3033  -18.3396   19.9590 O   0  0  0  0  0  0  0  0  0  0  0  0
    8.9085  -17.8423   21.1053 C   0  0  0  0  0  0  0  0  0  0  0  0
    9.0361  -16.3361   20.9942 C   0  0  2  0  0  0  0  0  0  0  0  0
   10.0553  -16.0445   20.0305 N   0  0  0  0  0  0  0  0  0  0  0  0
    9.3444  -15.7009   22.2796 C   0  0  0  0  0  0  0  0  0  0  0  0
   10.5144  -15.4456   22.6632 O   0  0  0  0  0  0  0  0  0  0  0  0
    5.7748  -11.1535   26.1860 C   0  0  0  0  0  0  0  0  0  0  0  0
    5.7895  -12.8315   26.8165 S   0  0  0  0  0  0  0  0  0  0  0  0
    7.3235  -13.7089   26.3905 C   0  0  0  0  0  0  0  0  0  0  0  0
    7.2131  -14.2231   24.9956 C   0  0  0  0  0  0  0  0  0  0  0  0
    8.5135  -14.8178   24.4968 C   0  0  2  0  0  0  0  0  0  0  0  0
    8.2961  -15.3324   23.1816 N   0  0  0  0  0  0  0  0  0  0  0  0
    9.0400  -15.8076   25.4419 C   0  0  0  0  0  0  0  0  0  0  0  0
    8.6008  -16.9852   25.4054 O   0  0  0  0  0  0  0  0  0  0  0  0
   11.6521  -14.8993   28.7998 C   0  0  0  0  0  0  0  0  0  0  0  0
   11.8898  -16.0943   27.9071 C   0  0  2  0  0  0  0  0  0  0  0  0
   12.8691  -15.7246   26.8044 C   0  0  0  0  0  0  0  0  0  0  0  0
   10.6126  -16.5508   27.2307 C   0  0  2  0  0  0  0  0  0  0  0  0
   10.0316  -15.5171   26.4134 N   0  0  0  0  0  0  0  0  0  0  0  0
    9.6871  -16.9943   28.3067 C   0  0  0  0  0  0  0  0  0  0  0  0
   10.0193  -17.9554   29.0574 O   0  0  0  0  0  0  0  0  0  0  0  0
    8.4662  -16.4100   28.5398 O   0  0  0  0  0  0  0  0  0  0  0  0
  1  2  1  0
  3  4  1  6
  3  5  1  0
  3  2  1  0
  5  6  2  0
  7  8  1  0
  8  9  1  0
  9 10  1  0
 11 10  1  1
 11 13  1  0
 12  5  1  0
 12 11  1  0
 13 19  1  0
 13 14  2  0
 16 18  1  0
 16 15  1  1
 17 16  1  0
 18 20  1  0
 18 19  1  1
 20 22  1  0
 21 20  2  0
M  END
$$$$
