SMV.pdb
     RDKit          3D

 22 21  0  0  1  0  0  0  0  0999 V2000
    8.6353  -18.1418   21.0416 O   0  0  0  0  0  0  0  0  0  0  0  0
    7.7974  -17.2719   20.3569 C   0  0  0  0  0  0  0  0  0  0  0  0
    8.3581  -15.8660   20.4364 C   0  0  2  0  0  0  0  0  0  0  0  0
    9.4171  -15.7531   19.4781 N   0  0  0  0  0  0  0  0  0  0  0  0
    8.8395  -15.5270   21.7796 C   0  0  0  0  0  0  0  0  0  0  0  0
   10.0497  -15.5829   22.1164 O   0  0  0  0  0  0  0  0  0  0  0  0
    6.8524  -10.7674   27.1926 C   0  0  0  0  0  0  0  0  0  0  0  0
    6.2150  -12.3725   26.7122 S   0  0  0  0  0  0  0  0  0  0  0  0
    7.5297  -13.4837   26.1281 C   0  0  0  0  0  0  0  0  0  0  0  0
    7.1981  -13.9389   24.7479 C   0  0  0  0  0  0  0  0  0  0  0  0
    8.3128  -14.7552   24.1276 C   0  0  2  0  0  0  0  0  0  0  0  0
    7.9259  -15.1050   22.7973 N   0  0  0  0  0  0  0  0  0  0  0  0
    8.6565  -15.9067   24.9680 C   0  0  0  0  0  0  0  0  0  0  0  0
    7.8278  -16.8439   25.0934 O   0  0  0  0  0  0  0  0  0  0  0  0
   12.6789  -16.8069   26.2746 C   0  0  0  0  0  0  0  0  0  0  0  0
   11.5627  -17.7905   26.0142 C   0  0  2  0  0  0  0  0  0  0  0  0
   11.4958  -18.1098   24.5292 C   0  0  0  0  0  0  0  0  0  0  0  0
   10.2132  -17.2228   26.4066 C   0  0  2  0  0  0  0  0  0  0  0  0
    9.8869  -16.0342   25.6618 N   0  0  0  0  0  0  0  0  0  0  0  0
   10.2603  -16.9659   27.8704 C   0  0  0  0  0  0  0  0  0  0  0  0
   10.1037  -15.7882   28.3017 O   0  0  0  0  0  0  0  0  0  0  0  0
   10.4680  -17.9524   28.8031 O   0  0  0  0  0  0  0  0  0  0  0  0
  1  2  1  0
  3  4  1  6
  3  5  1  0
  3  2  1  0
  5  6  2  0
  7  8  1  0
  8  9  1  0
  9 10  1  0
 11 10  1  1
 11 13  1  0
 12  5  1  0
 12 11  1  0
 13 19  1  0
 13 14  2  0
 16 18  1  0
 16 15  1  6
 17 16  1  0
 18 20  1  0
 18 19  1  6
 20 22  1  0
 21 20  2  0
M  END
$$$$
