SMV.pdb
     RDKit          3D

 22 21  0  0  1  0  0  0  0  0999 V2000
    8.3105  -18.0953   20.5146 O   0  0  0  0  0  0  0  0  0  0  0  0
    7.3718  -17.1290   20.1791 C   0  0  0  0  0  0  0  0  0  0  0  0
    8.0361  -15.7668   20.1606 C   0  0  2  0  0  0  0  0  0  0  0  0
    9.0643  -15.7854   19.1630 N   0  0  0  0  0  0  0  0  0  0  0  0
    8.5903  -15.3929   21.4659 C   0  0  0  0  0  0  0  0  0  0  0  0
    9.8162  -15.4499   21.7400 O   0  0  0  0  0  0  0  0  0  0  0  0
    6.6536  -11.5170   28.1079 C   0  0  0  0  0  0  0  0  0  0  0  0
    6.1877  -12.2695   26.5490 S   0  0  0  0  0  0  0  0  0  0  0  0
    7.5316  -13.2696   25.8434 C   0  0  0  0  0  0  0  0  0  0  0  0
    7.1094  -13.7674   24.5032 C   0  0  0  0  0  0  0  0  0  0  0  0
    8.1892  -14.5861   23.8269 C   0  0  2  0  0  0  0  0  0  0  0  0
    7.7350  -14.9331   22.5173 N   0  0  0  0  0  0  0  0  0  0  0  0
    8.5712  -15.7397   24.6476 C   0  0  0  0  0  0  0  0  0  0  0  0
    7.7375  -16.6618   24.8359 O   0  0  0  0  0  0  0  0  0  0  0  0
   12.6527  -16.6103   25.8199 C   0  0  0  0  0  0  0  0  0  0  0  0
   11.5512  -17.6164   25.5840 C   0  0  2  0  0  0  0  0  0  0  0  0
   11.4679  -17.9487   24.1028 C   0  0  0  0  0  0  0  0  0  0  0  0
   10.1975  -17.0706   25.9925 C   0  0  2  0  0  0  0  0  0  0  0  0
    9.8448  -15.8853   25.2546 N   0  0  0  0  0  0  0  0  0  0  0  0
   10.2564  -16.8168   27.4564 C   0  0  0  0  0  0  0  0  0  0  0  0
   10.0831  -15.6433   27.8929 O   0  0  0  0  0  0  0  0  0  0  0  0
   10.4930  -17.8018   28.3839 O   0  0  0  0  0  0  0  0  0  0  0  0
  1  2  1  0
  3  4  1  6
  3  5  1  0
  3  2  1  0
  5  6  2  0
  7  8  1  0
  8  9  1  0
  9 10  1  0
 11 10  1  1
 11 13  1  0
 12  5  1  0
 12 11  1  0
 13 19  1  0
 13 14  2  0
 16 18  1  0
 16 15  1  6
 17 16  1  0
 18 20  1  0
 18 19  1  6
 20 22  1  0
 21 20  2  0
M  END
$$$$
