SMV.pdb
     RDKit          3D

 22 21  0  0  1  0  0  0  0  0999 V2000
    6.9065  -18.3635   19.7264 O   0  0  0  0  0  0  0  0  0  0  0  0
    7.6479  -17.8732   20.7928 C   0  0  0  0  0  0  0  0  0  0  0  0
    7.9373  -16.4021   20.5705 C   0  0  2  0  0  0  0  0  0  0  0  0
    8.7948  -16.2836   19.4289 N   0  0  0  0  0  0  0  0  0  0  0  0
    8.5473  -15.7650   21.7422 C   0  0  0  0  0  0  0  0  0  0  0  0
    9.7885  -15.6238   21.8864 O   0  0  0  0  0  0  0  0  0  0  0  0
    6.8742  -11.0580   27.8212 C   0  0  0  0  0  0  0  0  0  0  0  0
    6.2760  -12.2448   26.6183 S   0  0  0  0  0  0  0  0  0  0  0  0
    7.6125  -13.2893   25.9648 C   0  0  0  0  0  0  0  0  0  0  0  0
    7.1644  -13.8971   24.6794 C   0  0  0  0  0  0  0  0  0  0  0  0
    8.2479  -14.7317   24.0288 C   0  0  2  0  0  0  0  0  0  0  0  0
    7.7327  -15.2607   22.8055 N   0  0  0  0  0  0  0  0  0  0  0  0
    8.7544  -15.7534   24.9507 C   0  0  0  0  0  0  0  0  0  0  0  0
    7.9833  -16.6685   25.3363 O   0  0  0  0  0  0  0  0  0  0  0  0
   12.4670  -18.4684   25.6357 C   0  0  0  0  0  0  0  0  0  0  0  0
   12.0923  -17.0585   26.0269 C   0  0  2  0  0  0  0  0  0  0  0  0
   12.7203  -16.7138   27.3680 C   0  0  0  0  0  0  0  0  0  0  0  0
   10.5932  -16.9012   26.1861 C   0  0  2  0  0  0  0  0  0  0  0  0
   10.0836  -15.7765   25.4450 N   0  0  0  0  0  0  0  0  0  0  0  0
   10.3231  -16.7753   27.6428 C   0  0  0  0  0  0  0  0  0  0  0  0
   10.4882  -17.7768   28.3961 O   0  0  0  0  0  0  0  0  0  0  0  0
    9.8957  -15.6110   28.2329 O   0  0  0  0  0  0  0  0  0  0  0  0
  1  2  1  0
  3  4  1  6
  3  5  1  0
  3  2  1  0
  5  6  2  0
  7  8  1  0
  8  9  1  0
  9 10  1  0
 11 10  1  1
 11 13  1  0
 12  5  1  0
 12 11  1  0
 13 19  1  0
 13 14  2  0
 16 18  1  0
 16 15  1  1
 17 16  1  0
 18 20  1  0
 18 19  1  6
 20 22  1  0
 21 20  2  0
M  END
$$$$
