SMV.pdb
     RDKit          3D

 22 21  0  0  1  0  0  0  0  0999 V2000
    8.5761  -18.3137   21.4583 O   0  0  0  0  0  0  0  0  0  0  0  0
    7.5233  -17.4484   21.1931 C   0  0  0  0  0  0  0  0  0  0  0  0
    8.0582  -16.0394   21.0321 C   0  0  2  0  0  0  0  0  0  0  0  0
    8.9483  -16.0256   19.9095 N   0  0  0  0  0  0  0  0  0  0  0  0
    8.7397  -15.5549   22.2369 C   0  0  0  0  0  0  0  0  0  0  0  0
    9.9865  -15.6015   22.3936 O   0  0  0  0  0  0  0  0  0  0  0  0
    5.3334  -11.9701   26.4064 C   0  0  0  0  0  0  0  0  0  0  0  0
    6.9907  -11.6631   27.0167 S   0  0  0  0  0  0  0  0  0  0  0  0
    8.1903  -12.8685   26.3748 C   0  0  0  0  0  0  0  0  0  0  0  0
    7.6239  -13.5084   25.1533 C   0  0  0  0  0  0  0  0  0  0  0  0
    8.5791  -14.5046   24.5297 C   0  0  2  0  0  0  0  0  0  0  0  0
    7.9938  -14.9907   23.3203 N   0  0  0  0  0  0  0  0  0  0  0  0
    8.9386  -15.5605   25.4815 C   0  0  0  0  0  0  0  0  0  0  0  0
    8.1173  -16.4841   25.7124 O   0  0  0  0  0  0  0  0  0  0  0  0
   12.9540  -16.1953   26.9813 C   0  0  0  0  0  0  0  0  0  0  0  0
   11.8863  -17.2491   26.8061 C   0  0  2  0  0  0  0  0  0  0  0  0
   11.8995  -17.7603   25.3743 C   0  0  0  0  0  0  0  0  0  0  0  0
   10.5010  -16.6910   27.0646 C   0  0  2  0  0  0  0  0  0  0  0  0
   10.1766  -15.6084   26.1719 N   0  0  0  0  0  0  0  0  0  0  0  0
   10.4637  -16.2667   28.4892 C   0  0  0  0  0  0  0  0  0  0  0  0
   10.2537  -15.0529   28.7726 O   0  0  0  0  0  0  0  0  0  0  0  0
   10.6475  -17.1327   29.5392 O   0  0  0  0  0  0  0  0  0  0  0  0
  1  2  1  0
  3  4  1  6
  3  5  1  0
  3  2  1  0
  5  6  2  0
  7  8  1  0
  8  9  1  0
  9 10  1  0
 11 10  1  1
 11 13  1  0
 12  5  1  0
 12 11  1  0
 13 19  1  0
 13 14  2  0
 16 18  1  0
 16 15  1  6
 17 16  1  0
 18 20  1  0
 18 19  1  6
 20 22  1  0
 21 20  2  0
M  END
$$$$
