SMV.pdb
     RDKit          3D

 22 21  0  0  1  0  0  0  0  0999 V2000
    7.2373  -17.3866   20.2133 O   0  0  0  0  0  0  0  0  0  0  0  0
    6.2273  -16.4426   20.0856 C   0  0  0  0  0  0  0  0  0  0  0  0
    6.8272  -15.0521   20.1479 C   0  0  2  0  0  0  0  0  0  0  0  0
    7.6086  -14.8498   18.9642 N   0  0  0  0  0  0  0  0  0  0  0  0
    7.6450  -14.8451   21.3476 C   0  0  0  0  0  0  0  0  0  0  0  0
    8.8996  -14.9302   21.3540 O   0  0  0  0  0  0  0  0  0  0  0  0
    6.7598  -10.4179   26.9194 C   0  0  0  0  0  0  0  0  0  0  0  0
    6.4469  -12.1773   27.0602 S   0  0  0  0  0  0  0  0  0  0  0  0
    7.5731  -13.1575   26.0232 C   0  0  0  0  0  0  0  0  0  0  0  0
    6.8713  -13.5200   24.7589 C   0  0  0  0  0  0  0  0  0  0  0  0
    7.7570  -14.3048   23.8137 C   0  0  2  0  0  0  0  0  0  0  0  0
    7.0332  -14.5276   22.6020 N   0  0  0  0  0  0  0  0  0  0  0  0
    8.2486  -15.5331   24.4459 C   0  0  0  0  0  0  0  0  0  0  0  0
    7.4361  -16.4563   24.7075 O   0  0  0  0  0  0  0  0  0  0  0  0
   12.4651  -16.3436   25.0783 C   0  0  0  0  0  0  0  0  0  0  0  0
   11.4298  -17.3931   24.7500 C   0  0  2  0  0  0  0  0  0  0  0  0
   11.2898  -17.5220   23.2416 C   0  0  0  0  0  0  0  0  0  0  0  0
   10.0640  -17.0211   25.2917 C   0  0  2  0  0  0  0  0  0  0  0  0
    9.6076  -15.7514   24.7880 N   0  0  0  0  0  0  0  0  0  0  0  0
   10.1704  -17.0248   26.7748 C   0  0  0  0  0  0  0  0  0  0  0  0
    9.9733  -15.9538   27.4164 O   0  0  0  0  0  0  0  0  0  0  0  0
   10.4766  -18.1462   27.5063 O   0  0  0  0  0  0  0  0  0  0  0  0
  1  2  1  0
  3  4  1  6
  3  5  1  0
  3  2  1  0
  5  6  2  0
  7  8  1  0
  8  9  1  0
  9 10  1  0
 11 10  1  1
 11 13  1  0
 12  5  1  0
 12 11  1  0
 13 19  1  0
 13 14  2  0
 16 18  1  0
 16 15  1  6
 17 16  1  0
 18 20  1  0
 18 19  1  6
 20 22  1  0
 21 20  2  0
M  END
$$$$
