SMV.pdb
     RDKit          3D

 22 21  0  0  1  0  0  0  0  0999 V2000
    8.0459  -14.9364   19.2882 O   0  0  0  0  0  0  0  0  0  0  0  0
    8.7742  -16.1133   19.3980 C   0  0  0  0  0  0  0  0  0  0  0  0
    8.4379  -16.7927   20.7105 C   0  0  2  0  0  0  0  0  0  0  0  0
    7.0198  -16.9910   20.7597 N   0  0  0  0  0  0  0  0  0  0  0  0
    8.8923  -16.0249   21.8745 C   0  0  0  0  0  0  0  0  0  0  0  0
   10.0826  -15.6537   22.0379 O   0  0  0  0  0  0  0  0  0  0  0  0
    6.0193  -11.2869   27.5231 C   0  0  0  0  0  0  0  0  0  0  0  0
    5.7917  -12.4085   26.1433 S   0  0  0  0  0  0  0  0  0  0  0  0
    7.3479  -13.2053   25.6456 C   0  0  0  0  0  0  0  0  0  0  0  0
    7.0830  -14.0918   24.4767 C   0  0  0  0  0  0  0  0  0  0  0  0
    8.3191  -14.8478   24.0360 C   0  0  2  0  0  0  0  0  0  0  0  0
    7.9737  -15.6529   22.9072 N   0  0  0  0  0  0  0  0  0  0  0  0
    8.9017  -15.6045   25.1488 C   0  0  0  0  0  0  0  0  0  0  0  0
    8.4116  -16.7213   25.4546 O   0  0  0  0  0  0  0  0  0  0  0  0
   12.6585  -16.2801   28.3692 C   0  0  0  0  0  0  0  0  0  0  0  0
   11.9171  -15.3495   27.4387 C   0  0  2  0  0  0  0  0  0  0  0  0
   11.3771  -14.1635   28.2218 C   0  0  0  0  0  0  0  0  0  0  0  0
   10.7280  -16.0331   26.7937 C   0  0  2  0  0  0  0  0  0  0  0  0
   10.0035  -15.1495   25.9172 N   0  0  0  0  0  0  0  0  0  0  0  0
    9.8726  -16.5463   27.8964 C   0  0  0  0  0  0  0  0  0  0  0  0
    8.8349  -15.9062   28.2296 O   0  0  0  0  0  0  0  0  0  0  0  0
   10.1476  -17.6993   28.5903 O   0  0  0  0  0  0  0  0  0  0  0  0
  1  2  1  0
  3  4  1  1
  3  5  1  0
  3  2  1  0
  5  6  2  0
  7  8  1  0
  8  9  1  0
  9 10  1  0
 11 10  1  1
 11 13  1  0
 12  5  1  0
 12 11  1  0
 13 19  1  0
 13 14  2  0
 16 18  1  0
 16 15  1  1
 17 16  1  0
 18 20  1  0
 18 19  1  1
 20 22  1  0
 21 20  2  0
M  END
$$$$
