SMV.pdb
     RDKit          3D

 22 21  0  0  1  0  0  0  0  0999 V2000
   10.5273  -18.5744   20.0362 O   0  0  0  0  0  0  0  0  0  0  0  0
    9.9444  -18.1117   21.2082 C   0  0  0  0  0  0  0  0  0  0  0  0
    9.5133  -16.6707   21.0212 C   0  0  2  0  0  0  0  0  0  0  0  0
   10.2860  -16.1088   19.9536 N   0  0  0  0  0  0  0  0  0  0  0  0
    9.6660  -15.8744   22.2432 C   0  0  0  0  0  0  0  0  0  0  0  0
   10.7129  -15.2397   22.5303 O   0  0  0  0  0  0  0  0  0  0  0  0
    5.8304  -11.3293   25.8977 C   0  0  0  0  0  0  0  0  0  0  0  0
    5.6811  -13.0674   26.3102 S   0  0  0  0  0  0  0  0  0  0  0  0
    7.2632  -13.9475   26.1473 C   0  0  0  0  0  0  0  0  0  0  0  0
    7.2836  -14.6643   24.8404 C   0  0  0  0  0  0  0  0  0  0  0  0
    8.6833  -15.0696   24.4279 C   0  0  2  0  0  0  0  0  0  0  0  0
    8.5983  -15.7814   23.1919 N   0  0  0  0  0  0  0  0  0  0  0  0
    9.3554  -15.8149   25.4971 C   0  0  0  0  0  0  0  0  0  0  0  0
    9.4034  -17.0697   25.4339 O   0  0  0  0  0  0  0  0  0  0  0  0
    9.9434  -14.5760   29.5393 C   0  0  0  0  0  0  0  0  0  0  0  0
   11.1279  -15.1236   28.7789 C   0  0  2  0  0  0  0  0  0  0  0  0
   11.9568  -13.9762   28.2241 C   0  0  0  0  0  0  0  0  0  0  0  0
   10.6932  -15.9679   27.5976 C   0  0  2  0  0  0  0  0  0  0  0  0
    9.9667  -15.2000   26.6196 N   0  0  0  0  0  0  0  0  0  0  0  0
    9.8795  -17.0874   28.1412 C   0  0  0  0  0  0  0  0  0  0  0  0
    8.6524  -17.1654   27.8484 O   0  0  0  0  0  0  0  0  0  0  0  0
   10.3916  -18.0637   28.9604 O   0  0  0  0  0  0  0  0  0  0  0  0
  1  2  1  0
  3  4  1  6
  3  5  1  0
  3  2  1  0
  5  6  2  0
  7  8  1  0
  8  9  1  0
  9 10  1  0
 11 10  1  1
 11 13  1  0
 12  5  1  0
 12 11  1  0
 13 19  1  0
 13 14  2  0
 16 18  1  0
 16 15  1  6
 17 16  1  0
 18 20  1  0
 18 19  1  6
 20 22  1  0
 21 20  2  0
M  END
$$$$
