SMV.pdb
     RDKit          3D

 22 21  0  0  1  0  0  0  0  0999 V2000
   10.4576  -18.2153   22.0083 O   0  0  0  0  0  0  0  0  0  0  0  0
    9.4232  -17.7538   21.2055 C   0  0  0  0  0  0  0  0  0  0  0  0
    9.5660  -16.2574   21.0113 C   0  0  2  0  0  0  0  0  0  0  0  0
   10.7198  -16.0215   20.1953 N   0  0  0  0  0  0  0  0  0  0  0  0
    9.6755  -15.5328   22.2816 C   0  0  0  0  0  0  0  0  0  0  0  0
   10.7378  -14.9908   22.6807 O   0  0  0  0  0  0  0  0  0  0  0  0
    6.0136  -12.7238   27.0493 C   0  0  0  0  0  0  0  0  0  0  0  0
    6.2862  -11.9483   25.4562 S   0  0  0  0  0  0  0  0  0  0  0  0
    6.7586  -13.1538   24.1804 C   0  0  0  0  0  0  0  0  0  0  0  0
    7.1902  -14.4159   24.8462 C   0  0  0  0  0  0  0  0  0  0  0  0
    8.5950  -14.8228   24.4529 C   0  0  2  0  0  0  0  0  0  0  0  0
    8.5446  -15.4066   23.1497 N   0  0  0  0  0  0  0  0  0  0  0  0
    9.1989  -15.6905   25.4691 C   0  0  0  0  0  0  0  0  0  0  0  0
    9.2196  -16.9335   25.2809 O   0  0  0  0  0  0  0  0  0  0  0  0
    9.9640  -14.6452   29.5374 C   0  0  0  0  0  0  0  0  0  0  0  0
   11.0601  -15.3323   28.7578 C   0  0  2  0  0  0  0  0  0  0  0  0
   12.0414  -14.2974   28.2308 C   0  0  0  0  0  0  0  0  0  0  0  0
   10.5113  -16.0749   27.5559 C   0  0  2  0  0  0  0  0  0  0  0  0
    9.7723  -15.2092   26.6737 N   0  0  0  0  0  0  0  0  0  0  0  0
    9.6705  -17.1841   28.0788 C   0  0  0  0  0  0  0  0  0  0  0  0
    8.4301  -17.1936   27.8362 O   0  0  0  0  0  0  0  0  0  0  0  0
   10.1708  -18.2223   28.8261 O   0  0  0  0  0  0  0  0  0  0  0  0
  1  2  1  0
  3  4  1  6
  3  5  1  0
  3  2  1  0
  5  6  2  0
  7  8  1  0
  8  9  1  0
  9 10  1  0
 11 10  1  1
 11 13  1  0
 12  5  1  0
 12 11  1  0
 13 19  1  0
 13 14  2  0
 16 18  1  0
 16 15  1  6
 17 16  1  0
 18 20  1  0
 18 19  1  6
 20 22  1  0
 21 20  2  0
M  END
$$$$
