SMV.pdb
     RDKit          3D

 22 21  0  0  1  0  0  0  0  0999 V2000
   10.6952  -17.9731   21.5332 O   0  0  0  0  0  0  0  0  0  0  0  0
    9.3878  -17.7804   21.1076 C   0  0  0  0  0  0  0  0  0  0  0  0
    9.1543  -16.3050   20.8507 C   0  0  2  0  0  0  0  0  0  0  0  0
   10.0600  -15.8819   19.8244 N   0  0  0  0  0  0  0  0  0  0  0  0
    9.3250  -15.4896   22.0577 C   0  0  0  0  0  0  0  0  0  0  0  0
   10.3600  -14.8175   22.2990 O   0  0  0  0  0  0  0  0  0  0  0  0
    5.5496  -10.9442   25.8967 C   0  0  0  0  0  0  0  0  0  0  0  0
    5.4666  -12.6999   26.2489 S   0  0  0  0  0  0  0  0  0  0  0  0
    7.0699  -13.5222   26.0087 C   0  0  0  0  0  0  0  0  0  0  0  0
    7.0400  -14.2691   24.7189 C   0  0  0  0  0  0  0  0  0  0  0  0
    8.4161  -14.7356   24.2919 C   0  0  2  0  0  0  0  0  0  0  0  0
    8.2903  -15.4206   23.0442 N   0  0  0  0  0  0  0  0  0  0  0  0
    9.0555  -15.5316   25.3443 C   0  0  0  0  0  0  0  0  0  0  0  0
    9.0993  -16.7826   25.2265 O   0  0  0  0  0  0  0  0  0  0  0  0
   11.0543  -13.6683   28.5995 C   0  0  0  0  0  0  0  0  0  0  0  0
   10.5315  -15.0722   28.7917 C   0  0  2  0  0  0  0  0  0  0  0  0
   11.5323  -15.8872   29.5952 C   0  0  0  0  0  0  0  0  0  0  0  0
   10.3408  -15.7849   27.4677 C   0  0  2  0  0  0  0  0  0  0  0  0
    9.6391  -14.9710   26.5091 N   0  0  0  0  0  0  0  0  0  0  0  0
    9.6168  -17.0509   27.7576 C   0  0  0  0  0  0  0  0  0  0  0  0
    8.3537  -17.0707   27.7130 O   0  0  0  0  0  0  0  0  0  0  0  0
   10.2510  -18.2263   28.0778 O   0  0  0  0  0  0  0  0  0  0  0  0
  1  2  1  0
  3  4  1  6
  3  5  1  0
  3  2  1  0
  5  6  2  0
  7  8  1  0
  8  9  1  0
  9 10  1  0
 11 10  1  1
 11 13  1  0
 12  5  1  0
 12 11  1  0
 13 19  1  0
 13 14  2  0
 16 18  1  0
 16 15  1  6
 17 16  1  0
 18 20  1  0
 18 19  1  6
 20 22  1  0
 21 20  2  0
M  END
$$$$
