SMV.pdb
     RDKit          3D

 22 21  0  0  1  0  0  0  0  0999 V2000
    8.0759  -18.8584   20.2437 O   0  0  0  0  0  0  0  0  0  0  0  0
    8.6270  -18.1546   21.3061 C   0  0  0  0  0  0  0  0  0  0  0  0
    8.5948  -16.6710   20.9978 C   0  0  2  0  0  0  0  0  0  0  0  0
    9.3615  -16.4456   19.8087 N   0  0  0  0  0  0  0  0  0  0  0  0
    9.1062  -15.8550   22.1039 C   0  0  0  0  0  0  0  0  0  0  0  0
   10.3177  -15.5431   22.2322 O   0  0  0  0  0  0  0  0  0  0  0  0
    4.9818  -12.6869   26.6049 C   0  0  0  0  0  0  0  0  0  0  0  0
    6.4717  -11.7666   26.2220 S   0  0  0  0  0  0  0  0  0  0  0  0
    7.8751  -12.8607   25.8509 C   0  0  0  0  0  0  0  0  0  0  0  0
    7.4850  -13.7889   24.7516 C   0  0  0  0  0  0  0  0  0  0  0  0
    8.6498  -14.6250   24.2637 C   0  0  2  0  0  0  0  0  0  0  0  0
    8.2230  -15.3627   23.1168 N   0  0  0  0  0  0  0  0  0  0  0  0
    9.1888  -15.4615   25.3407 C   0  0  0  0  0  0  0  0  0  0  0  0
    8.8412  -16.6676   25.4134 O   0  0  0  0  0  0  0  0  0  0  0  0
    9.9857  -14.6571   29.3493 C   0  0  0  0  0  0  0  0  0  0  0  0
   11.1556  -15.1490   28.5304 C   0  0  2  0  0  0  0  0  0  0  0  0
   11.9945  -13.9667   28.0720 C   0  0  0  0  0  0  0  0  0  0  0  0
   10.6987  -15.8783   27.2828 C   0  0  2  0  0  0  0  0  0  0  0  0
   10.0945  -14.9890   26.3246 N   0  0  0  0  0  0  0  0  0  0  0  0
    9.7583  -16.9426   27.7231 C   0  0  0  0  0  0  0  0  0  0  0  0
    8.5292  -16.8418   27.4461 O   0  0  0  0  0  0  0  0  0  0  0  0
   10.1528  -18.0535   28.4280 O   0  0  0  0  0  0  0  0  0  0  0  0
  1  2  1  0
  3  4  1  6
  3  5  1  0
  3  2  1  0
  5  6  2  0
  7  8  1  0
  8  9  1  0
  9 10  1  0
 11 10  1  1
 11 13  1  0
 12  5  1  0
 12 11  1  0
 13 19  1  0
 13 14  2  0
 16 18  1  0
 16 15  1  6
 17 16  1  0
 18 20  1  0
 18 19  1  6
 20 22  1  0
 21 20  2  0
M  END
$$$$
