SMV.pdb
     RDKit          3D

 22 21  0  0  1  0  0  0  0  0999 V2000
    8.5563  -18.3141   21.0284 O   0  0  0  0  0  0  0  0  0  0  0  0
    7.6325  -17.3400   20.6746 C   0  0  0  0  0  0  0  0  0  0  0  0
    8.3260  -15.9948   20.5924 C   0  0  2  0  0  0  0  0  0  0  0  0
    9.3844  -16.0964   19.6321 N   0  0  0  0  0  0  0  0  0  0  0  0
    8.8469  -15.5498   21.8891 C   0  0  0  0  0  0  0  0  0  0  0  0
   10.0672  -15.5764   22.1916 O   0  0  0  0  0  0  0  0  0  0  0  0
    6.6865  -11.3427   28.2577 C   0  0  0  0  0  0  0  0  0  0  0  0
    6.2747  -12.1828   26.7286 S   0  0  0  0  0  0  0  0  0  0  0  0
    7.6468  -13.2085   26.1207 C   0  0  0  0  0  0  0  0  0  0  0  0
    7.2738  -13.7747   24.7931 C   0  0  0  0  0  0  0  0  0  0  0  0
    8.3886  -14.6007   24.1859 C   0  0  2  0  0  0  0  0  0  0  0  0
    7.9631  -15.0507   22.8983 N   0  0  0  0  0  0  0  0  0  0  0  0
    8.7974  -15.6825   25.0876 C   0  0  0  0  0  0  0  0  0  0  0  0
    7.9799  -16.5992   25.3563 O   0  0  0  0  0  0  0  0  0  0  0  0
   12.8696  -16.2487   26.4811 C   0  0  0  0  0  0  0  0  0  0  0  0
   11.8527  -17.3487   26.2879 C   0  0  2  0  0  0  0  0  0  0  0  0
   11.8942  -17.8394   24.8495 C   0  0  0  0  0  0  0  0  0  0  0  0
   10.4421  -16.8593   26.5486 C   0  0  2  0  0  0  0  0  0  0  0  0
   10.0799  -15.7632   25.6877 N   0  0  0  0  0  0  0  0  0  0  0  0
   10.3725  -16.4836   27.9856 C   0  0  0  0  0  0  0  0  0  0  0  0
   10.5829  -17.3617   28.8702 O   0  0  0  0  0  0  0  0  0  0  0  0
   10.0874  -15.2122   28.4200 O   0  0  0  0  0  0  0  0  0  0  0  0
  1  2  1  0
  3  4  1  6
  3  5  1  0
  3  2  1  0
  5  6  2  0
  7  8  1  0
  8  9  1  0
  9 10  1  0
 11 10  1  1
 11 13  1  0
 12  5  1  0
 12 11  1  0
 13 19  1  0
 13 14  2  0
 16 18  1  0
 16 15  1  6
 17 16  1  0
 18 20  1  0
 18 19  1  6
 20 22  1  0
 21 20  2  0
M  END
$$$$
