SMV.pdb
     RDKit          3D

 22 21  0  0  1  0  0  0  0  0999 V2000
   10.9308  -18.5712   22.0828 O   0  0  0  0  0  0  0  0  0  0  0  0
   11.2889  -17.7263   21.0410 C   0  0  0  0  0  0  0  0  0  0  0  0
   10.2379  -16.6452   20.8857 C   0  0  2  0  0  0  0  0  0  0  0  0
   10.6338  -15.7896   19.8069 N   0  0  0  0  0  0  0  0  0  0  0  0
   10.0427  -15.8692   22.1147 C   0  0  0  0  0  0  0  0  0  0  0  0
   10.8960  -15.0650   22.5691 O   0  0  0  0  0  0  0  0  0  0  0  0
    6.3787  -11.6539   26.4653 C   0  0  0  0  0  0  0  0  0  0  0  0
    6.9372  -12.7135   25.1316 S   0  0  0  0  0  0  0  0  0  0  0  0
    6.6828  -14.4743   25.5047 C   0  0  0  0  0  0  0  0  0  0  0  0
    7.0722  -15.2806   24.3128 C   0  0  0  0  0  0  0  0  0  0  0  0
    8.5689  -15.2791   24.0808 C   0  0  2  0  0  0  0  0  0  0  0  0
    8.8365  -15.9966   22.8745 N   0  0  0  0  0  0  0  0  0  0  0  0
    9.2864  -15.7959   25.2505 C   0  0  0  0  0  0  0  0  0  0  0  0
    9.4546  -17.0363   25.3685 O   0  0  0  0  0  0  0  0  0  0  0  0
   11.3315  -15.0942   29.7055 C   0  0  0  0  0  0  0  0  0  0  0  0
   10.9718  -14.4668   28.3796 C   0  0  2  0  0  0  0  0  0  0  0  0
    9.7521  -13.5748   28.5478 C   0  0  0  0  0  0  0  0  0  0  0  0
   10.6156  -15.5136   27.3430 C   0  0  2  0  0  0  0  0  0  0  0  0
    9.8132  -14.9713   26.2772 N   0  0  0  0  0  0  0  0  0  0  0  0
    9.9173  -16.6133   28.0600 C   0  0  0  0  0  0  0  0  0  0  0  0
    8.6554  -16.6767   28.0260 O   0  0  0  0  0  0  0  0  0  0  0  0
   10.5747  -17.5860   28.7727 O   0  0  0  0  0  0  0  0  0  0  0  0
  1  2  1  0
  3  4  1  6
  3  5  1  0
  3  2  1  0
  5  6  2  0
  7  8  1  0
  8  9  1  0
  9 10  1  0
 11 10  1  1
 11 13  1  0
 12  5  1  0
 12 11  1  0
 13 19  1  0
 13 14  2  0
 16 18  1  0
 16 15  1  1
 17 16  1  0
 18 20  1  0
 18 19  1  6
 20 22  1  0
 21 20  2  0
M  END
$$$$
