KTL.pdb
     RDKit          3D

 25 24  0  0  1  0  0  0  0  0999 V2000
   11.0386  -17.9417   19.6770 N   0  0  0  0  0  0  0  0  0  0  0  0
    9.8638  -17.9137   20.4765 C   0  0  1  0  0  0  0  0  0  0  0  0
    9.7760  -18.9265   21.5734 C   0  0  0  0  0  0  0  0  0  0  0  0
   11.0345  -19.6903   21.7602 C   0  0  0  0  0  0  0  0  0  0  0  0
   10.9642  -20.6921   22.8554 C   0  0  0  0  0  0  0  0  0  0  0  0
   12.3758  -21.2938   22.9710 C   0  0  0  0  0  0  0  0  0  0  0  0
   12.3436  -22.2660   24.0252 N   0  0  0  0  0  0  0  0  0  0  0  0
    9.7996  -16.5689   21.1534 C   0  0  0  0  0  0  0  0  0  0  0  0
   10.8522  -15.9055   21.2928 O   0  0  0  0  0  0  0  0  0  0  0  0
    7.7747  -13.5275   20.2935 C   0  0  0  0  0  0  0  0  0  0  0  0
    7.3294  -14.0099   21.6609 C   0  0  1  0  0  0  0  0  0  0  0  0
    6.2407  -14.8489   21.4705 O   0  0  0  0  0  0  0  0  0  0  0  0
    8.4579  -14.8357   22.2713 C   0  0  2  0  0  0  0  0  0  0  0  0
    8.5298  -16.1317   21.5969 N   0  0  0  0  0  0  0  0  0  0  0  0
    8.1088  -15.0861   23.7048 C   0  0  0  0  0  0  0  0  0  0  0  0
    8.2201  -16.2558   24.2037 O   0  0  0  0  0  0  0  0  0  0  0  0
   10.7898  -15.1686   27.9157 C   0  0  0  0  0  0  0  0  0  0  0  0
    9.2495  -14.8668   27.8773 C   0  0  1  0  0  0  0  0  0  0  0  0
    9.0760  -13.7560   28.8561 C   0  0  0  0  0  0  0  0  0  0  0  0
    8.9050  -14.6178   26.4696 C   0  0  0  0  0  0  0  0  0  0  0  0
    7.5249  -14.3284   26.0418 C   0  0  2  0  0  0  0  0  0  0  0  0
    7.6473  -14.0674   24.5713 N   0  0  0  0  0  0  0  0  0  0  0  0
    6.9032  -13.1632   26.6723 C   0  0  0  0  0  0  0  0  0  0  0  0
    6.1845  -13.2559   27.6649 O   0  0  0  0  0  0  0  0  0  0  0  0
    7.1141  -11.8727   26.1499 O   0  0  0  0  0  0  0  0  0  0  0  0
  2  1  1  1
  2  3  1  0
  3  4  1  0
  5  6  1  0
  5  4  1  0
  6  7  1  0
  8  2  1  0
  9  8  2  0
 11 10  1  6
 11 12  1  0
 11 13  1  0
 13 14  1  6
 14  8  1  0
 15 13  1  0
 15 22  1  0
 16 15  2  0
 18 17  1  6
 18 20  1  0
 19 18  1  0
 21 20  1  1
 21 22  1  0
 21 23  1  0
 23 25  1  0
 24 23  2  0
M  END
$$$$
