KTL.pdb
     RDKit          3D

 25 24  0  0  1  0  0  0  0  0999 V2000
    7.4549  -19.4858   20.5573 N   0  0  0  0  0  0  0  0  0  0  0  0
    6.9733  -18.5430   21.5056 C   0  0  1  0  0  0  0  0  0  0  0  0
    6.9582  -18.9799   22.9359 C   0  0  0  0  0  0  0  0  0  0  0  0
    6.3404  -20.3154   23.1284 C   0  0  0  0  0  0  0  0  0  0  0  0
    6.2619  -20.7338   24.5520 C   0  0  0  0  0  0  0  0  0  0  0  0
    5.5154  -22.0794   24.5579 C   0  0  0  0  0  0  0  0  0  0  0  0
    5.5258  -22.5707   25.9056 N   0  0  0  0  0  0  0  0  0  0  0  0
    7.8751  -17.3368   21.4544 C   0  0  0  0  0  0  0  0  0  0  0  0
    9.1046  -17.5015   21.2851 O   0  0  0  0  0  0  0  0  0  0  0  0
    8.3401  -12.5456   20.8504 C   0  0  0  0  0  0  0  0  0  0  0  0
    7.4351  -13.7627   20.8319 C   0  0  1  0  0  0  0  0  0  0  0  0
    7.2920  -14.1531   19.5080 O   0  0  0  0  0  0  0  0  0  0  0  0
    8.1330  -14.8932   21.5821 C   0  0  2  0  0  0  0  0  0  0  0  0
    7.2643  -16.0699   21.6032 N   0  0  0  0  0  0  0  0  0  0  0  0
    8.3264  -14.4438   22.9963 C   0  0  0  0  0  0  0  0  0  0  0  0
    8.1347  -13.2241   23.3203 O   0  0  0  0  0  0  0  0  0  0  0  0
    5.6837  -12.7497   26.0039 C   0  0  0  0  0  0  0  0  0  0  0  0
    7.1982  -12.8773   25.6103 C   0  0  1  0  0  0  0  0  0  0  0  0
    7.8781  -11.8598   26.4616 C   0  0  0  0  0  0  0  0  0  0  0  0
    7.5609  -14.2913   25.7873 C   0  0  0  0  0  0  0  0  0  0  0  0
    8.8942  -14.8072   25.4299 C   0  0  2  0  0  0  0  0  0  0  0  0
    8.7224  -15.3215   24.0330 N   0  0  0  0  0  0  0  0  0  0  0  0
    9.3918  -15.8971   26.2704 C   0  0  0  0  0  0  0  0  0  0  0  0
    9.6727  -15.7393   27.4563 O   0  0  0  0  0  0  0  0  0  0  0  0
    9.5678  -17.1873   25.7344 O   0  0  0  0  0  0  0  0  0  0  0  0
  2  1  1  6
  2  3  1  0
  3  4  1  0
  5  6  1  0
  5  4  1  0
  6  7  1  0
  8  2  1  0
  9  8  2  0
 11 10  1  6
 11 12  1  0
 11 13  1  0
 13 14  1  1
 14  8  1  0
 15 13  1  0
 15 22  1  0
 16 15  2  0
 18 17  1  1
 18 20  1  0
 19 18  1  0
 21 20  1  1
 21 22  1  0
 21 23  1  0
 23 25  1  0
 24 23  2  0
M  END
$$$$
