KTL.pdb
     RDKit          3D

 25 24  0  0  1  0  0  0  0  0999 V2000
   12.7421  -18.1563   18.6315 N   0  0  0  0  0  0  0  0  0  0  0  0
   13.0949  -18.1340   20.0081 C   0  0  1  0  0  0  0  0  0  0  0  0
   14.4098  -17.5101   20.3524 C   0  0  0  0  0  0  0  0  0  0  0  0
   15.5491  -18.4534   20.2322 C   0  0  0  0  0  0  0  0  0  0  0  0
   16.8446  -17.8800   20.6801 C   0  0  0  0  0  0  0  0  0  0  0  0
   17.9026  -18.9659   20.4168 C   0  0  0  0  0  0  0  0  0  0  0  0
   19.1681  -18.4468   20.8489 N   0  0  0  0  0  0  0  0  0  0  0  0
   12.0533  -17.3252   20.7373 C   0  0  0  0  0  0  0  0  0  0  0  0
   11.6785  -16.2339   20.2515 O   0  0  0  0  0  0  0  0  0  0  0  0
    8.7030  -17.9095   21.1435 C   0  0  0  0  0  0  0  0  0  0  0  0
    9.1988  -17.9061   22.5770 C   0  0  1  0  0  0  0  0  0  0  0  0
    9.4835  -19.2201   22.9205 O   0  0  0  0  0  0  0  0  0  0  0  0
   10.5009  -17.1129   22.6344 C   0  0  2  0  0  0  0  0  0  0  0  0
   11.5545  -17.8601   21.9478 N   0  0  0  0  0  0  0  0  0  0  0  0
   10.8918  -16.9913   24.0737 C   0  0  0  0  0  0  0  0  0  0  0  0
   11.8038  -17.7388   24.5626 O   0  0  0  0  0  0  0  0  0  0  0  0
   11.4680  -13.7031   28.5549 C   0  0  0  0  0  0  0  0  0  0  0  0
   10.0981  -14.4396   28.3407 C   0  0  1  0  0  0  0  0  0  0  0  0
    9.0869  -13.4788   28.8666 C   0  0  0  0  0  0  0  0  0  0  0  0
   10.0374  -14.8091   26.9187 C   0  0  0  0  0  0  0  0  0  0  0  0
   10.7122  -16.0092   26.3932 C   0  0  2  0  0  0  0  0  0  0  0  0
   10.2901  -16.0637   24.9564 N   0  0  0  0  0  0  0  0  0  0  0  0
   10.3417  -17.2704   27.0365 C   0  0  0  0  0  0  0  0  0  0  0  0
   11.0604  -17.8232   27.8661 O   0  0  0  0  0  0  0  0  0  0  0  0
    9.1245  -17.9025   26.7177 O   0  0  0  0  0  0  0  0  0  0  0  0
  2  1  1  6
  2  3  1  0
  3  4  1  0
  5  6  1  0
  5  4  1  0
  6  7  1  0
  8  2  1  0
  9  8  2  0
 11 10  1  6
 11 12  1  0
 11 13  1  0
 13 14  1  6
 14  8  1  0
 15 13  1  0
 15 22  1  0
 16 15  2  0
 18 17  1  6
 18 20  1  0
 19 18  1  0
 21 20  1  1
 21 22  1  0
 21 23  1  0
 23 25  1  0
 24 23  2  0
M  END
$$$$
