KTL.pdb
     RDKit          3D

 25 24  0  0  1  0  0  0  0  0999 V2000
   12.0103  -17.7634   19.0760 N   0  0  0  0  0  0  0  0  0  0  0  0
   11.2650  -18.1267   20.2304 C   0  0  1  0  0  0  0  0  0  0  0  0
   11.9707  -18.9681   21.2457 C   0  0  0  0  0  0  0  0  0  0  0  0
   13.1872  -19.6270   20.7090 C   0  0  0  0  0  0  0  0  0  0  0  0
   13.3997  -21.0004   21.2351 C   0  0  0  0  0  0  0  0  0  0  0  0
   14.7121  -21.4978   20.6040 C   0  0  0  0  0  0  0  0  0  0  0  0
   15.0133  -22.7731   21.1876 N   0  0  0  0  0  0  0  0  0  0  0  0
   10.8773  -16.8585   20.9460 C   0  0  0  0  0  0  0  0  0  0  0  0
   11.6629  -15.8837   20.9281 O   0  0  0  0  0  0  0  0  0  0  0  0
    7.3267  -14.3064   23.1471 C   0  0  0  0  0  0  0  0  0  0  0  0
    7.7326  -15.6457   22.5620 C   0  0  1  0  0  0  0  0  0  0  0  0
    7.0841  -15.7793   21.3426 O   0  0  0  0  0  0  0  0  0  0  0  0
    9.2346  -15.6192   22.2949 C   0  0  2  0  0  0  0  0  0  0  0  0
    9.6262  -16.8484   21.6056 N   0  0  0  0  0  0  0  0  0  0  0  0
    9.9280  -15.5991   23.6208 C   0  0  0  0  0  0  0  0  0  0  0  0
   10.9064  -14.8059   23.8281 O   0  0  0  0  0  0  0  0  0  0  0  0
   10.4627  -13.4749   27.8820 C   0  0  0  0  0  0  0  0  0  0  0  0
    9.0993  -14.2339   27.7087 C   0  0  1  0  0  0  0  0  0  0  0  0
    8.0696  -13.1896   27.9762 C   0  0  0  0  0  0  0  0  0  0  0  0
    9.1320  -14.8580   26.3776 C   0  0  0  0  0  0  0  0  0  0  0  0
    9.9229  -16.0704   26.1017 C   0  0  2  0  0  0  0  0  0  0  0  0
    9.5499  -16.4359   24.6972 N   0  0  0  0  0  0  0  0  0  0  0  0
    9.6434  -17.2138   26.9713 C   0  0  0  0  0  0  0  0  0  0  0  0
    8.5954  -17.8523   26.9043 O   0  0  0  0  0  0  0  0  0  0  0  0
   10.5869  -17.6263   27.9319 O   0  0  0  0  0  0  0  0  0  0  0  0
  2  1  1  6
  2  3  1  0
  3  4  1  0
  5  6  1  0
  5  4  1  0
  6  7  1  0
  8  2  1  0
  9  8  2  0
 11 10  1  6
 11 12  1  0
 11 13  1  0
 13 14  1  1
 14  8  1  0
 15 13  1  0
 15 22  1  0
 16 15  2  0
 18 17  1  6
 18 20  1  0
 19 18  1  0
 21 20  1  1
 21 22  1  0
 21 23  1  0
 23 25  1  0
 24 23  2  0
M  END
$$$$
