KTL.pdb
     RDKit          3D

 25 24  0  0  1  0  0  0  0  0999 V2000
   10.3697  -13.5951   19.3930 N   0  0  0  0  0  0  0  0  0  0  0  0
    9.0320  -13.1582   19.5917 C   0  0  1  0  0  0  0  0  0  0  0  0
    8.1497  -13.1319   18.3843 C   0  0  0  0  0  0  0  0  0  0  0  0
    8.4679  -14.2045   17.4095 C   0  0  0  0  0  0  0  0  0  0  0  0
    7.7075  -14.0957   16.1376 C   0  0  0  0  0  0  0  0  0  0  0  0
    8.2312  -15.2247   15.2326 C   0  0  0  0  0  0  0  0  0  0  0  0
    7.5332  -15.1323   13.9828 N   0  0  0  0  0  0  0  0  0  0  0  0
    8.3759  -14.1094   20.5589 C   0  0  0  0  0  0  0  0  0  0  0  0
    7.1481  -14.0037   20.7800 O   0  0  0  0  0  0  0  0  0  0  0  0
    8.3604  -17.7840   20.5542 C   0  0  0  0  0  0  0  0  0  0  0  0
    8.9646  -17.3976   21.8908 C   0  0  1  0  0  0  0  0  0  0  0  0
   10.3439  -17.4742   21.7601 O   0  0  0  0  0  0  0  0  0  0  0  0
    8.6003  -15.9449   22.1821 C   0  0  2  0  0  0  0  0  0  0  0  0
    9.2039  -15.0809   21.1678 N   0  0  0  0  0  0  0  0  0  0  0  0
    9.2020  -15.5855   23.5042 C   0  0  0  0  0  0  0  0  0  0  0  0
   10.0714  -14.6547   23.5885 O   0  0  0  0  0  0  0  0  0  0  0  0
    8.8169  -12.5349   27.0501 C   0  0  0  0  0  0  0  0  0  0  0  0
    7.5285  -13.3892   26.7758 C   0  0  1  0  0  0  0  0  0  0  0  0
    6.4837  -12.3737   26.4606 C   0  0  0  0  0  0  0  0  0  0  0  0
    7.8864  -14.3684   25.7388 C   0  0  0  0  0  0  0  0  0  0  0  0
    8.8244  -15.4749   25.9986 C   0  0  2  0  0  0  0  0  0  0  0  0
    8.8517  -16.2384   24.7095 N   0  0  0  0  0  0  0  0  0  0  0  0
    8.4355  -16.3884   27.0737 C   0  0  0  0  0  0  0  0  0  0  0  0
    7.4739  -17.1477   26.9780 O   0  0  0  0  0  0  0  0  0  0  0  0
    9.1669  -16.4262   28.2765 O   0  0  0  0  0  0  0  0  0  0  0  0
  2  1  1  6
  2  3  1  0
  3  4  1  0
  5  6  1  0
  5  4  1  0
  6  7  1  0
  8  2  1  0
  9  8  2  0
 11 10  1  6
 11 12  1  0
 11 13  1  0
 13 14  1  6
 14  8  1  0
 15 13  1  0
 15 22  1  0
 16 15  2  0
 18 17  1  6
 18 20  1  0
 19 18  1  0
 21 20  1  6
 21 22  1  0
 21 23  1  0
 23 25  1  0
 24 23  2  0
M  END
$$$$
