KTL.pdb
     RDKit          3D

 25 24  0  0  1  0  0  0  0  0999 V2000
    7.1333  -17.3207   19.7634 N   0  0  0  0  0  0  0  0  0  0  0  0
    8.0964  -16.5618   20.4822 C   0  0  1  0  0  0  0  0  0  0  0  0
    7.9856  -15.0736   20.3835 C   0  0  0  0  0  0  0  0  0  0  0  0
    8.3129  -14.5557   19.0320 C   0  0  0  0  0  0  0  0  0  0  0  0
    8.1703  -13.0816   18.9103 C   0  0  0  0  0  0  0  0  0  0  0  0
    8.4757  -12.7460   17.4399 C   0  0  0  0  0  0  0  0  0  0  0  0
    8.3312  -11.3273   17.2839 N   0  0  0  0  0  0  0  0  0  0  0  0
    7.9416  -16.8888   21.9451 C   0  0  0  0  0  0  0  0  0  0  0  0
    6.7993  -17.1268   22.3992 O   0  0  0  0  0  0  0  0  0  0  0  0
    9.7384  -18.8779   25.8697 C   0  0  0  0  0  0  0  0  0  0  0  0
    9.9646  -18.4249   24.4398 C   0  0  1  0  0  0  0  0  0  0  0  0
    9.6503  -19.4930   23.6117 O   0  0  0  0  0  0  0  0  0  0  0  0
    8.9906  -17.2909   24.1342 C   0  0  2  0  0  0  0  0  0  0  0  0
    9.1190  -16.9072   22.7285 N   0  0  0  0  0  0  0  0  0  0  0  0
    9.3928  -16.1143   24.9667 C   0  0  0  0  0  0  0  0  0  0  0  0
   10.4689  -15.4773   24.7108 O   0  0  0  0  0  0  0  0  0  0  0  0
    6.0622  -12.2665   26.7171 C   0  0  0  0  0  0  0  0  0  0  0  0
    7.2570  -13.0534   26.0706 C   0  0  1  0  0  0  0  0  0  0  0  0
    7.9632  -12.0267   25.2524 C   0  0  0  0  0  0  0  0  0  0  0  0
    7.9884  -13.6898   27.1762 C   0  0  0  0  0  0  0  0  0  0  0  0
    9.1537  -14.5614   26.9436 C   0  0  2  0  0  0  0  0  0  0  0  0
    8.6235  -15.6485   26.0590 N   0  0  0  0  0  0  0  0  0  0  0  0
    9.7290  -15.1738   28.1418 C   0  0  0  0  0  0  0  0  0  0  0  0
    9.4557  -16.3195   28.4925 O   0  0  0  0  0  0  0  0  0  0  0  0
   10.6325  -14.4536   28.9467 O   0  0  0  0  0  0  0  0  0  0  0  0
  2  1  1  6
  2  3  1  0
  3  4  1  0
  5  6  1  0
  5  4  1  0
  6  7  1  0
  8  2  1  0
  9  8  2  0
 11 10  1  1
 11 12  1  0
 11 13  1  0
 13 14  1  6
 14  8  1  0
 15 13  1  0
 15 22  1  0
 16 15  2  0
 18 17  1  1
 18 20  1  0
 19 18  1  0
 21 20  1  1
 21 22  1  0
 21 23  1  0
 23 25  1  0
 24 23  2  0
M  END
$$$$
