KTL.pdb
     RDKit          3D

 25 24  0  0  1  0  0  0  0  0999 V2000
    5.9325  -19.2056   20.1789 N   0  0  0  0  0  0  0  0  0  0  0  0
    5.6558  -18.1133   21.0451 C   0  0  1  0  0  0  0  0  0  0  0  0
    4.2571  -18.0077   21.5639 C   0  0  0  0  0  0  0  0  0  0  0  0
    3.3587  -19.0608   21.0291 C   0  0  0  0  0  0  0  0  0  0  0  0
    2.0276  -18.5496   20.6109 C   0  0  0  0  0  0  0  0  0  0  0  0
    1.2491  -19.7704   20.0900 C   0  0  0  0  0  0  0  0  0  0  0  0
    0.2766  -20.1170   21.0859 N   0  0  0  0  0  0  0  0  0  0  0  0
    6.5349  -18.2556   22.2607 C   0  0  0  0  0  0  0  0  0  0  0  0
    6.3839  -19.2475   23.0097 O   0  0  0  0  0  0  0  0  0  0  0  0
    9.5291  -19.3570   22.5610 C   0  0  0  0  0  0  0  0  0  0  0  0
    9.7489  -17.9502   23.0840 C   0  0  1  0  0  0  0  0  0  0  0  0
   10.1335  -17.1630   22.0080 O   0  0  0  0  0  0  0  0  0  0  0  0
    8.4176  -17.4165   23.6044 C   0  0  2  0  0  0  0  0  0  0  0  0
    7.4943  -17.2406   22.4836 N   0  0  0  0  0  0  0  0  0  0  0  0
    8.6743  -16.0678   24.1998 C   0  0  0  0  0  0  0  0  0  0  0  0
    9.1225  -15.1156   23.4775 O   0  0  0  0  0  0  0  0  0  0  0  0
    5.7251  -12.6607   26.7682 C   0  0  0  0  0  0  0  0  0  0  0  0
    6.8315  -13.2637   25.8315 C   0  0  1  0  0  0  0  0  0  0  0  0
    7.1903  -12.1353   24.9258 C   0  0  0  0  0  0  0  0  0  0  0  0
    7.8742  -13.8120   26.7115 C   0  0  0  0  0  0  0  0  0  0  0  0
    9.0370  -14.5466   26.1825 C   0  0  2  0  0  0  0  0  0  0  0  0
    8.4406  -15.7742   25.5640 N   0  0  0  0  0  0  0  0  0  0  0  0
   10.0254  -14.9596   27.1796 C   0  0  0  0  0  0  0  0  0  0  0  0
   10.0988  -16.1135   27.5963 O   0  0  0  0  0  0  0  0  0  0  0  0
   10.9422  -14.0278   27.7031 O   0  0  0  0  0  0  0  0  0  0  0  0
  2  1  1  6
  2  3  1  0
  3  4  1  0
  5  6  1  0
  5  4  1  0
  6  7  1  0
  8  2  1  0
  9  8  2  0
 11 10  1  6
 11 12  1  0
 11 13  1  0
 13 14  1  6
 14  8  1  0
 15 13  1  0
 15 22  1  0
 16 15  2  0
 18 17  1  1
 18 20  1  0
 19 18  1  0
 21 20  1  1
 21 22  1  0
 21 23  1  0
 23 25  1  0
 24 23  2  0
M  END
$$$$
