KTL.pdb
     RDKit          3D

 25 24  0  0  1  0  0  0  0  0999 V2000
    6.5520  -18.9415   19.6061 N   0  0  0  0  0  0  0  0  0  0  0  0
    6.1436  -17.8134   20.3681 C   0  0  1  0  0  0  0  0  0  0  0  0
    4.6769  -17.6748   20.6259 C   0  0  0  0  0  0  0  0  0  0  0  0
    3.9036  -18.8818   20.2420 C   0  0  0  0  0  0  0  0  0  0  0  0
    2.4377  -18.7343   20.4356 C   0  0  0  0  0  0  0  0  0  0  0  0
    1.8130  -20.0614   19.9707 C   0  0  0  0  0  0  0  0  0  0  0  0
    0.3979  -19.9695   20.1874 N   0  0  0  0  0  0  0  0  0  0  0  0
    6.7910  -17.9156   21.7250 C   0  0  0  0  0  0  0  0  0  0  0  0
    6.2171  -18.5672   22.6269 O   0  0  0  0  0  0  0  0  0  0  0  0
   10.8584  -17.9132   24.2841 C   0  0  0  0  0  0  0  0  0  0  0  0
   10.1309  -17.9059   22.9531 C   0  0  1  0  0  0  0  0  0  0  0  0
   10.0616  -19.2194   22.5111 O   0  0  0  0  0  0  0  0  0  0  0  0
    8.7059  -17.4127   23.1859 C   0  0  2  0  0  0  0  0  0  0  0  0
    8.0304  -17.2566   21.8979 N   0  0  0  0  0  0  0  0  0  0  0  0
    8.7948  -16.0608   23.8212 C   0  0  0  0  0  0  0  0  0  0  0  0
    9.1993  -15.0543   23.1483 O   0  0  0  0  0  0  0  0  0  0  0  0
    7.7811  -11.4897   25.7229 C   0  0  0  0  0  0  0  0  0  0  0  0
    7.3042  -12.5967   26.7290 C   0  0  1  0  0  0  0  0  0  0  0  0
    5.9360  -12.1572   27.1256 C   0  0  0  0  0  0  0  0  0  0  0  0
    7.4505  -13.8855   26.0362 C   0  0  0  0  0  0  0  0  0  0  0  0
    8.7675  -14.5076   25.8121 C   0  0  2  0  0  0  0  0  0  0  0  0
    8.4438  -15.8227   25.1710 N   0  0  0  0  0  0  0  0  0  0  0  0
    9.5570  -14.7584   27.0185 C   0  0  0  0  0  0  0  0  0  0  0  0
    9.3878  -15.7516   27.7223 O   0  0  0  0  0  0  0  0  0  0  0  0
   10.5559  -13.8500   27.4184 O   0  0  0  0  0  0  0  0  0  0  0  0
  2  1  1  6
  2  3  1  0
  3  4  1  0
  5  6  1  0
  5  4  1  0
  6  7  1  0
  8  2  1  0
  9  8  2  0
 11 10  1  1
 11 12  1  0
 11 13  1  0
 13 14  1  6
 14  8  1  0
 15 13  1  0
 15 22  1  0
 16 15  2  0
 18 17  1  6
 18 20  1  0
 19 18  1  0
 21 20  1  1
 21 22  1  0
 21 23  1  0
 23 25  1  0
 24 23  2  0
M  END
$$$$
