KTL.pdb
     RDKit          3D

 25 24  0  0  1  0  0  0  0  0999 V2000
    8.4252  -16.9526   19.2598 N   0  0  0  0  0  0  0  0  0  0  0  0
    8.6197  -15.9114   20.2074 C   0  0  1  0  0  0  0  0  0  0  0  0
    7.6116  -14.8066   20.2048 C   0  0  0  0  0  0  0  0  0  0  0  0
    7.5012  -14.1249   18.8913 C   0  0  0  0  0  0  0  0  0  0  0  0
    8.1126  -12.7707   18.8719 C   0  0  0  0  0  0  0  0  0  0  0  0
    8.6021  -12.5471   17.4303 C   0  0  0  0  0  0  0  0  0  0  0  0
    7.4962  -12.8099   16.5553 N   0  0  0  0  0  0  0  0  0  0  0  0
    8.5548  -16.5231   21.5832 C   0  0  0  0  0  0  0  0  0  0  0  0
    7.4873  -16.4496   22.2334 O   0  0  0  0  0  0  0  0  0  0  0  0
   10.4749  -19.6643   24.7612 C   0  0  0  0  0  0  0  0  0  0  0  0
   10.5134  -19.0544   23.3729 C   0  0  1  0  0  0  0  0  0  0  0  0
    9.9228  -19.9616   22.5048 O   0  0  0  0  0  0  0  0  0  0  0  0
    9.6624  -17.7881   23.3795 C   0  0  2  0  0  0  0  0  0  0  0  0
    9.7260  -17.1543   22.0627 N   0  0  0  0  0  0  0  0  0  0  0  0
   10.2674  -16.8435   24.3700 C   0  0  0  0  0  0  0  0  0  0  0  0
   11.3371  -16.2067   24.0879 O   0  0  0  0  0  0  0  0  0  0  0  0
    8.4120  -12.7353   28.0187 C   0  0  0  0  0  0  0  0  0  0  0  0
    9.7250  -13.5862   27.8878 C   0  0  1  0  0  0  0  0  0  0  0  0
   10.0815  -13.9168   29.2970 C   0  0  0  0  0  0  0  0  0  0  0  0
    9.4196  -14.6912   26.9668 C   0  0  0  0  0  0  0  0  0  0  0  0
   10.4138  -15.7252   26.6294 C   0  0  2  0  0  0  0  0  0  0  0  0
    9.7039  -16.6048   25.6457 N   0  0  0  0  0  0  0  0  0  0  0  0
   10.8672  -16.5499   27.7502 C   0  0  0  0  0  0  0  0  0  0  0  0
   11.9431  -16.3621   28.3138 O   0  0  0  0  0  0  0  0  0  0  0  0
   10.0676  -17.6062   28.2272 O   0  0  0  0  0  0  0  0  0  0  0  0
  2  1  1  6
  2  3  1  0
  3  4  1  0
  5  6  1  0
  5  4  1  0
  6  7  1  0
  8  2  1  0
  9  8  2  0
 11 10  1  1
 11 12  1  0
 11 13  1  0
 13 14  1  6
 14  8  1  0
 15 13  1  0
 15 22  1  0
 16 15  2  0
 18 17  1  1
 18 20  1  0
 19 18  1  0
 21 20  1  1
 21 22  1  0
 21 23  1  0
 23 25  1  0
 24 23  2  0
M  END
$$$$
