KTL.pdb
     RDKit          3D

 25 24  0  0  1  0  0  0  0  0999 V2000
    7.9882  -16.3352   18.0626 N   0  0  0  0  0  0  0  0  0  0  0  0
    8.4108  -15.3412   18.9864 C   0  0  1  0  0  0  0  0  0  0  0  0
    7.8049  -13.9825   18.8319 C   0  0  0  0  0  0  0  0  0  0  0  0
    8.1832  -13.3196   17.5593 C   0  0  0  0  0  0  0  0  0  0  0  0
    7.7794  -14.0823   16.3496 C   0  0  0  0  0  0  0  0  0  0  0  0
    8.2014  -13.2219   15.1455 C   0  0  0  0  0  0  0  0  0  0  0  0
    7.7858  -13.9113   13.9581 N   0  0  0  0  0  0  0  0  0  0  0  0
    8.0303  -15.8056   20.3686 C   0  0  0  0  0  0  0  0  0  0  0  0
    6.8295  -16.0571   20.6182 O   0  0  0  0  0  0  0  0  0  0  0  0
    9.5331  -18.7508   21.7671 C   0  0  0  0  0  0  0  0  0  0  0  0
    9.7256  -17.7085   22.8522 C   0  0  1  0  0  0  0  0  0  0  0  0
   11.0151  -17.2118   22.7261 O   0  0  0  0  0  0  0  0  0  0  0  0
    8.7531  -16.5612   22.5958 C   0  0  2  0  0  0  0  0  0  0  0  0
    9.0735  -15.9310   21.3153 N   0  0  0  0  0  0  0  0  0  0  0  0
    8.9644  -15.5422   23.6711 C   0  0  0  0  0  0  0  0  0  0  0  0
    9.8190  -14.6066   23.5179 O   0  0  0  0  0  0  0  0  0  0  0  0
    8.0646  -11.4884   26.5750 C   0  0  0  0  0  0  0  0  0  0  0  0
    7.1476  -12.6739   27.0428 C   0  0  1  0  0  0  0  0  0  0  0  0
    5.8028  -12.0493   27.1970 C   0  0  0  0  0  0  0  0  0  0  0  0
    7.3098  -13.7473   26.0510 C   0  0  0  0  0  0  0  0  0  0  0  0
    8.5489  -14.5387   25.9509 C   0  0  2  0  0  0  0  0  0  0  0  0
    8.2472  -15.5538   24.8907 N   0  0  0  0  0  0  0  0  0  0  0  0
    8.9449  -15.2424   27.1714 C   0  0  0  0  0  0  0  0  0  0  0  0
    9.4514  -14.6646   28.1306 O   0  0  0  0  0  0  0  0  0  0  0  0
    8.7536  -16.6328   27.2866 O   0  0  0  0  0  0  0  0  0  0  0  0
  2  1  1  6
  2  3  1  0
  3  4  1  0
  5  6  1  0
  5  4  1  0
  6  7  1  0
  8  2  1  0
  9  8  2  0
 11 10  1  6
 11 12  1  0
 11 13  1  0
 13 14  1  6
 14  8  1  0
 15 13  1  0
 15 22  1  0
 16 15  2  0
 18 17  1  6
 18 20  1  0
 19 18  1  0
 21 20  1  1
 21 22  1  0
 21 23  1  0
 23 25  1  0
 24 23  2  0
M  END
$$$$
