KTL.pdb
     RDKit          3D

 25 24  0  0  1  0  0  0  0  0999 V2000
    7.8428  -16.4991   18.3162 N   0  0  0  0  0  0  0  0  0  0  0  0
    8.1316  -15.5653   19.3480 C   0  0  1  0  0  0  0  0  0  0  0  0
    7.5128  -14.2100   19.2171 C   0  0  0  0  0  0  0  0  0  0  0  0
    8.4890  -13.1067   19.3952 C   0  0  0  0  0  0  0  0  0  0  0  0
    9.8490  -13.4299   18.8914 C   0  0  0  0  0  0  0  0  0  0  0  0
   10.7362  -12.2297   19.2657 C   0  0  0  0  0  0  0  0  0  0  0  0
   11.9821  -12.7506   19.7497 N   0  0  0  0  0  0  0  0  0  0  0  0
    7.6077  -16.1325   20.6421 C   0  0  0  0  0  0  0  0  0  0  0  0
    6.7488  -17.0426   20.6055 O   0  0  0  0  0  0  0  0  0  0  0  0
    7.6346  -18.4582   21.9415 C   0  0  0  0  0  0  0  0  0  0  0  0
    8.3616  -17.7027   23.0377 C   0  0  1  0  0  0  0  0  0  0  0  0
    9.6987  -17.6294   22.6742 O   0  0  0  0  0  0  0  0  0  0  0  0
    7.8103  -16.2810   23.0898 C   0  0  2  0  0  0  0  0  0  0  0  0
    8.1295  -15.5911   21.8400 N   0  0  0  0  0  0  0  0  0  0  0  0
    8.5146  -15.5647   24.1989 C   0  0  0  0  0  0  0  0  0  0  0  0
    9.7256  -15.1860   24.0592 O   0  0  0  0  0  0  0  0  0  0  0  0
    5.7952  -11.9761   27.2564 C   0  0  0  0  0  0  0  0  0  0  0  0
    6.8211  -12.6492   26.2769 C   0  0  1  0  0  0  0  0  0  0  0  0
    7.5512  -11.4980   25.6738 C   0  0  0  0  0  0  0  0  0  0  0  0
    7.5852  -13.6220   27.0720 C   0  0  0  0  0  0  0  0  0  0  0  0
    8.6282  -14.4738   26.4735 C   0  0  2  0  0  0  0  0  0  0  0  0
    7.8961  -15.2706   25.4369 N   0  0  0  0  0  0  0  0  0  0  0  0
    9.2874  -15.4003   27.3947 C   0  0  0  0  0  0  0  0  0  0  0  0
    8.9814  -16.5885   27.4657 O   0  0  0  0  0  0  0  0  0  0  0  0
   10.3142  -14.9492   28.2462 O   0  0  0  0  0  0  0  0  0  0  0  0
  2  1  1  6
  2  3  1  0
  3  4  1  0
  5  6  1  0
  5  4  1  0
  6  7  1  0
  8  2  1  0
  9  8  2  0
 11 10  1  6
 11 12  1  0
 11 13  1  0
 13 14  1  6
 14  8  1  0
 15 13  1  0
 15 22  1  0
 16 15  2  0
 18 17  1  1
 18 20  1  0
 19 18  1  0
 21 20  1  1
 21 22  1  0
 21 23  1  0
 23 25  1  0
 24 23  2  0
M  END
$$$$
