KTL.pdb
     RDKit          3D

 25 24  0  0  1  0  0  0  0  0999 V2000
   12.6982  -17.6564   19.1742 N   0  0  0  0  0  0  0  0  0  0  0  0
   12.6414  -17.5082   20.5866 C   0  0  1  0  0  0  0  0  0  0  0  0
   13.5899  -16.5251   21.1954 C   0  0  0  0  0  0  0  0  0  0  0  0
   14.9987  -16.9913   21.1791 C   0  0  0  0  0  0  0  0  0  0  0  0
   15.9639  -15.9824   21.6874 C   0  0  0  0  0  0  0  0  0  0  0  0
   17.3586  -16.6137   21.5316 C   0  0  0  0  0  0  0  0  0  0  0  0
   18.3137  -15.6807   22.0560 N   0  0  0  0  0  0  0  0  0  0  0  0
   11.2606  -17.0214   20.9433 C   0  0  0  0  0  0  0  0  0  0  0  0
   10.5330  -16.5399   20.0453 O   0  0  0  0  0  0  0  0  0  0  0  0
    8.6163  -18.9748   21.6956 C   0  0  0  0  0  0  0  0  0  0  0  0
    8.7492  -18.1531   22.9636 C   0  0  1  0  0  0  0  0  0  0  0  0
    9.5536  -18.8685   23.8391 O   0  0  0  0  0  0  0  0  0  0  0  0
    9.4689  -16.8520   22.6211 C   0  0  2  0  0  0  0  0  0  0  0  0
   10.8653  -17.1415   22.2959 N   0  0  0  0  0  0  0  0  0  0  0  0
    9.4545  -15.9928   23.8462 C   0  0  0  0  0  0  0  0  0  0  0  0
   10.4977  -15.8847   24.5737 O   0  0  0  0  0  0  0  0  0  0  0  0
    7.4101  -11.7722   26.8251 C   0  0  0  0  0  0  0  0  0  0  0  0
    6.5614  -13.0921   26.7748 C   0  0  1  0  0  0  0  0  0  0  0  0
    5.1499  -12.6137   26.8068 C   0  0  0  0  0  0  0  0  0  0  0  0
    7.0187  -13.8411   25.5949 C   0  0  0  0  0  0  0  0  0  0  0  0
    8.3318  -14.5085   25.5530 C   0  0  2  0  0  0  0  0  0  0  0  0
    8.3132  -15.2664   24.2604 N   0  0  0  0  0  0  0  0  0  0  0  0
    8.5926  -15.4503   26.6424 C   0  0  0  0  0  0  0  0  0  0  0  0
    9.3140  -15.1704   27.5972 O   0  0  0  0  0  0  0  0  0  0  0  0
    8.0126  -16.7334   26.6296 O   0  0  0  0  0  0  0  0  0  0  0  0
  2  1  1  6
  2  3  1  0
  3  4  1  0
  5  6  1  0
  5  4  1  0
  6  7  1  0
  8  2  1  0
  9  8  2  0
 11 10  1  6
 11 12  1  0
 11 13  1  0
 13 14  1  1
 14  8  1  0
 15 13  1  0
 15 22  1  0
 16 15  2  0
 18 17  1  6
 18 20  1  0
 19 18  1  0
 21 20  1  1
 21 22  1  0
 21 23  1  0
 23 25  1  0
 24 23  2  0
M  END
$$$$
