KTL.pdb
     RDKit          3D

 25 24  0  0  1  0  0  0  0  0999 V2000
    7.2045  -15.9889   19.3003 N   0  0  0  0  0  0  0  0  0  0  0  0
    8.0624  -15.2056   20.1192 C   0  0  1  0  0  0  0  0  0  0  0  0
    7.7326  -13.7516   20.2362 C   0  0  0  0  0  0  0  0  0  0  0  0
    7.7443  -13.0469   18.9303 C   0  0  0  0  0  0  0  0  0  0  0  0
    8.8900  -13.4238   18.0624 C   0  0  0  0  0  0  0  0  0  0  0  0
    8.3278  -13.5124   16.6327 C   0  0  0  0  0  0  0  0  0  0  0  0
    9.3638  -14.0453   15.7958 N   0  0  0  0  0  0  0  0  0  0  0  0
    7.9911  -15.7567   21.5199 C   0  0  0  0  0  0  0  0  0  0  0  0
    6.8938  -16.1726   21.9565 O   0  0  0  0  0  0  0  0  0  0  0  0
   10.2888  -18.3117   24.8140 C   0  0  0  0  0  0  0  0  0  0  0  0
   10.3177  -17.5437   23.5063 C   0  0  1  0  0  0  0  0  0  0  0  0
   10.0470  -18.4473   22.4886 O   0  0  0  0  0  0  0  0  0  0  0  0
    9.1944  -16.5115   23.5291 C   0  0  2  0  0  0  0  0  0  0  0  0
    9.1913  -15.7703   22.2680 N   0  0  0  0  0  0  0  0  0  0  0  0
    9.4959  -15.5412   24.6276 C   0  0  0  0  0  0  0  0  0  0  0  0
   10.5359  -14.8031   24.5726 O   0  0  0  0  0  0  0  0  0  0  0  0
    5.8096  -12.4591   27.0562 C   0  0  0  0  0  0  0  0  0  0  0  0
    7.1105  -12.9333   26.3161 C   0  0  1  0  0  0  0  0  0  0  0  0
    7.7482  -11.6649   25.8611 C   0  0  0  0  0  0  0  0  0  0  0  0
    7.8461  -13.7846   27.2629 C   0  0  0  0  0  0  0  0  0  0  0  0
    9.0864  -14.4845   26.8844 C   0  0  2  0  0  0  0  0  0  0  0  0
    8.6670  -15.3867   25.7638 N   0  0  0  0  0  0  0  0  0  0  0  0
    9.6939  -15.2995   27.9372 C   0  0  0  0  0  0  0  0  0  0  0  0
    9.4809  -16.5053   28.0429 O   0  0  0  0  0  0  0  0  0  0  0  0
   10.5595  -14.7146   28.8814 O   0  0  0  0  0  0  0  0  0  0  0  0
  2  1  1  6
  2  3  1  0
  3  4  1  0
  5  6  1  0
  5  4  1  0
  6  7  1  0
  8  2  1  0
  9  8  2  0
 11 10  1  1
 11 12  1  0
 11 13  1  0
 13 14  1  6
 14  8  1  0
 15 13  1  0
 15 22  1  0
 16 15  2  0
 18 17  1  1
 18 20  1  0
 19 18  1  0
 21 20  1  1
 21 22  1  0
 21 23  1  0
 23 25  1  0
 24 23  2  0
M  END
$$$$
