KTL.pdb
     RDKit          3D

 25 24  0  0  1  0  0  0  0  0999 V2000
    9.9134  -15.6546   17.6274 N   0  0  0  0  0  0  0  0  0  0  0  0
   10.5688  -15.5704   18.8857 C   0  0  1  0  0  0  0  0  0  0  0  0
   11.6623  -14.5570   19.0046 C   0  0  0  0  0  0  0  0  0  0  0  0
   12.9840  -15.0762   18.5736 C   0  0  0  0  0  0  0  0  0  0  0  0
   14.1140  -14.5875   19.4056 C   0  0  0  0  0  0  0  0  0  0  0  0
   15.3968  -15.0472   18.6908 C   0  0  0  0  0  0  0  0  0  0  0  0
   16.5107  -14.5910   19.4711 N   0  0  0  0  0  0  0  0  0  0  0  0
    9.5389  -15.1857   19.9163 C   0  0  0  0  0  0  0  0  0  0  0  0
    8.7251  -14.2713   19.6534 O   0  0  0  0  0  0  0  0  0  0  0  0
    6.9240  -17.1192   20.8921 C   0  0  0  0  0  0  0  0  0  0  0  0
    7.6009  -16.8671   22.2259 C   0  0  1  0  0  0  0  0  0  0  0  0
    8.4277  -17.9514   22.4830 O   0  0  0  0  0  0  0  0  0  0  0  0
    8.4799  -15.6271   22.0929 C   0  0  2  0  0  0  0  0  0  0  0  0
    9.5561  -15.8957   21.1394 N   0  0  0  0  0  0  0  0  0  0  0  0
    9.1063  -15.3733   23.4281 C   0  0  0  0  0  0  0  0  0  0  0  0
   10.3405  -15.6332   23.6244 O   0  0  0  0  0  0  0  0  0  0  0  0
    6.9477  -11.6817   27.1773 C   0  0  0  0  0  0  0  0  0  0  0  0
    7.1774  -13.2029   26.8641 C   0  0  1  0  0  0  0  0  0  0  0  0
    6.0153  -13.5733   26.0070 C   0  0  0  0  0  0  0  0  0  0  0  0
    8.5288  -13.3156   26.2957 C   0  0  0  0  0  0  0  0  0  0  0  0
    9.0775  -14.6025   25.8326 C   0  0  2  0  0  0  0  0  0  0  0  0
    8.3868  -14.8425   24.5246 N   0  0  0  0  0  0  0  0  0  0  0  0
    8.8240  -15.7456   26.7107 C   0  0  0  0  0  0  0  0  0  0  0  0
    9.3399  -15.8509   27.8211 O   0  0  0  0  0  0  0  0  0  0  0  0
    7.9628  -16.7817   26.3013 O   0  0  0  0  0  0  0  0  0  0  0  0
  2  1  1  6
  2  3  1  0
  3  4  1  0
  5  6  1  0
  5  4  1  0
  6  7  1  0
  8  2  1  0
  9  8  2  0
 11 10  1  6
 11 12  1  0
 11 13  1  0
 13 14  1  6
 14  8  1  0
 15 13  1  0
 15 22  1  0
 16 15  2  0
 18 17  1  6
 18 20  1  0
 19 18  1  0
 21 20  1  1
 21 22  1  0
 21 23  1  0
 23 25  1  0
 24 23  2  0
M  END
$$$$
