KTL.pdb
     RDKit          3D

 25 24  0  0  1  0  0  0  0  0999 V2000
    9.6061  -16.2998   18.0997 N   0  0  0  0  0  0  0  0  0  0  0  0
    9.1757  -15.1940   18.8820 C   0  0  1  0  0  0  0  0  0  0  0  0
    8.2725  -14.2093   18.2098 C   0  0  0  0  0  0  0  0  0  0  0  0
    7.9812  -14.5591   16.7975 C   0  0  0  0  0  0  0  0  0  0  0  0
    7.1872  -13.5270   16.0817 C   0  0  0  0  0  0  0  0  0  0  0  0
    7.0139  -14.0470   14.6439 C   0  0  0  0  0  0  0  0  0  0  0  0
    6.2727  -13.0580   13.9156 N   0  0  0  0  0  0  0  0  0  0  0  0
    8.3954  -15.7341   20.0526 C   0  0  0  0  0  0  0  0  0  0  0  0
    7.3660  -16.4137   19.8378 O   0  0  0  0  0  0  0  0  0  0  0  0
    7.9631  -18.2349   21.2561 C   0  0  0  0  0  0  0  0  0  0  0  0
    8.6333  -17.5912   22.4549 C   0  0  1  0  0  0  0  0  0  0  0  0
   10.0044  -17.6808   22.2613 O   0  0  0  0  0  0  0  0  0  0  0  0
    8.2581  -16.1125   22.4799 C   0  0  2  0  0  0  0  0  0  0  0  0
    8.8844  -15.4341   21.3453 N   0  0  0  0  0  0  0  0  0  0  0  0
    8.8262  -15.5243   23.7332 C   0  0  0  0  0  0  0  0  0  0  0  0
   10.0553  -15.1843   23.7898 O   0  0  0  0  0  0  0  0  0  0  0  0
    5.9223  -12.0180   26.6265 C   0  0  0  0  0  0  0  0  0  0  0  0
    7.0919  -12.6595   25.7985 C   0  0  1  0  0  0  0  0  0  0  0  0
    7.9930  -11.5104   25.4988 C   0  0  0  0  0  0  0  0  0  0  0  0
    7.6196  -13.7689   26.6066 C   0  0  0  0  0  0  0  0  0  0  0  0
    8.6718  -14.6704   26.1046 C   0  0  2  0  0  0  0  0  0  0  0  0
    8.0547  -15.3141   24.9004 N   0  0  0  0  0  0  0  0  0  0  0  0
    9.0927  -15.7218   27.0315 C   0  0  0  0  0  0  0  0  0  0  0  0
    9.7305  -15.4822   28.0543 O   0  0  0  0  0  0  0  0  0  0  0  0
    8.7729  -17.0688   26.7743 O   0  0  0  0  0  0  0  0  0  0  0  0
  2  1  1  6
  2  3  1  0
  3  4  1  0
  5  6  1  0
  5  4  1  0
  6  7  1  0
  8  2  1  0
  9  8  2  0
 11 10  1  6
 11 12  1  0
 11 13  1  0
 13 14  1  6
 14  8  1  0
 15 13  1  0
 15 22  1  0
 16 15  2  0
 18 17  1  1
 18 20  1  0
 19 18  1  0
 21 20  1  1
 21 22  1  0
 21 23  1  0
 23 25  1  0
 24 23  2  0
M  END
$$$$
