NKK.pdb
     RDKit          3D

 27 26  0  0  1  0  0  0  0  0999 V2000
   18.2406  -20.6935  -11.4295 N   0  0  0  0  0  0  0  0  0  0  0  0
   17.0173  -20.6161  -10.7258 C   0  0  0  0  0  0  0  0  0  0  0  0
   16.4339  -19.5126  -10.5944 O   0  0  0  0  0  0  0  0  0  0  0  0
   16.4383  -21.8536  -10.1491 C   0  0  0  0  0  0  0  0  0  0  0  0
   17.3413  -23.0020  -10.4624 C   0  0  2  0  0  0  0  0  0  0  0  0
   17.2665  -23.4171  -11.8308 N   0  0  0  0  0  0  0  0  0  0  0  0
   17.1402  -24.1517   -9.5453 C   0  0  0  0  0  0  0  0  0  0  0  0
   16.0830  -24.8397   -9.5708 O   0  0  0  0  0  0  0  0  0  0  0  0
   18.1372  -24.5166   -8.6034 N   0  0  0  0  0  0  0  0  0  0  0  0
   17.9834  -25.7513   -7.8754 C   0  0  1  0  0  0  0  0  0  0  0  0
   19.0327  -26.7746   -8.2734 C   0  0  0  0  0  0  0  0  0  0  0  0
   18.8706  -27.1393   -9.7410 C   0  0  0  0  0  0  0  0  0  0  0  0
   20.0262  -28.0713  -10.0901 C   0  0  0  0  0  0  0  0  0  0  0  0
   19.9241  -28.5136  -11.5307 C   0  0  0  0  0  0  0  0  0  0  0  0
   21.0348  -29.4055  -11.8084 N   0  0  0  0  0  0  0  0  0  0  0  0
   18.1653  -25.5045   -6.4271 C   0  0  0  0  0  0  0  0  0  0  0  0
   19.0972  -24.8071   -5.9535 O   0  0  0  0  0  0  0  0  0  0  0  0
   17.2591  -26.0697   -5.5084 N   0  0  0  0  0  0  0  0  0  0  0  0
   17.3702  -25.8916   -4.0677 C   0  0  1  0  0  0  0  0  0  0  0  0
   16.2099  -26.4219   -3.3266 C   0  0  0  0  0  0  0  0  0  0  0  0
   16.3418  -26.1336   -1.8583 C   0  0  0  0  0  0  0  0  0  0  0  0
   15.2091  -26.6930   -1.0367 C   0  0  0  0  0  0  0  0  0  0  0  0
   15.3487  -26.3728    0.4295 C   0  0  0  0  0  0  0  0  0  0  0  0
   14.2875  -26.8655    1.2436 N   0  0  0  0  0  0  0  0  0  0  0  0
   18.6061  -26.5977   -3.6624 C   0  0  0  0  0  0  0  0  0  0  0  0
   19.3575  -26.1750   -2.7356 O   0  0  0  0  0  0  0  0  0  0  0  0
   19.0167  -27.7914   -4.2938 O   0  0  0  0  0  0  0  0  0  0  0  0
  2  1  1  0
  3  2  2  0
  4  2  1  0
  5  4  1  0
  5  6  1  6
  7  5  1  0
  7  8  2  0
  9  7  1  0
 10  9  1  0
 10 11  1  6
 12 11  1  0
 12 13  1  0
 13 14  1  0
 14 15  1  0
 16 10  1  0
 17 16  2  0
 18 16  1  0
 19 25  1  0
 19 18  1  0
 19 20  1  1
 21 20  1  0
 22 21  1  0
 23 22  1  0
 23 24  1  0
 25 27  1  0
 26 25  2  0
M  END
$$$$
