NKK.pdb
     RDKit          3D

 27 26  0  0  1  0  0  0  0  0999 V2000
   29.8848  -19.4726  -20.1848 N   0  0  0  0  0  0  0  0  0  0  0  0
   29.1833  -19.2038  -18.9877 C   0  0  0  0  0  0  0  0  0  0  0  0
   29.7107  -18.5005  -18.0917 O   0  0  0  0  0  0  0  0  0  0  0  0
   27.8215  -19.7633  -18.8094 C   0  0  0  0  0  0  0  0  0  0  0  0
   27.5862  -20.0093  -17.3546 C   0  0  2  0  0  0  0  0  0  0  0  0
   28.5721  -20.8632  -16.7635 N   0  0  0  0  0  0  0  0  0  0  0  0
   26.2153  -20.5053  -17.0749 C   0  0  0  0  0  0  0  0  0  0  0  0
   25.2344  -20.1780  -17.7976 O   0  0  0  0  0  0  0  0  0  0  0  0
   25.9619  -21.3695  -15.9780 N   0  0  0  0  0  0  0  0  0  0  0  0
   24.6210  -21.8597  -15.7780 C   0  0  1  0  0  0  0  0  0  0  0  0
   24.6099  -23.1798  -15.0273 C   0  0  0  0  0  0  0  0  0  0  0  0
   23.1811  -23.6795  -14.8784 C   0  0  0  0  0  0  0  0  0  0  0  0
   23.2458  -24.9402  -14.0226 C   0  0  0  0  0  0  0  0  0  0  0  0
   21.8532  -25.4543  -13.7434 C   0  0  0  0  0  0  0  0  0  0  0  0
   21.9692  -26.6538  -12.9346 N   0  0  0  0  0  0  0  0  0  0  0  0
   23.8552  -20.8997  -14.9513 C   0  0  0  0  0  0  0  0  0  0  0  0
   24.2563  -20.4636  -13.8432 O   0  0  0  0  0  0  0  0  0  0  0  0
   22.6066  -20.4337  -15.4080 N   0  0  0  0  0  0  0  0  0  0  0  0
   21.8309  -19.4190  -14.7090 C   0  0  1  0  0  0  0  0  0  0  0  0
   21.0908  -18.5251  -15.6201 C   0  0  0  0  0  0  0  0  0  0  0  0
   20.3439  -17.4779  -14.8443 C   0  0  0  0  0  0  0  0  0  0  0  0
   19.4422  -16.6293  -15.7034 C   0  0  0  0  0  0  0  0  0  0  0  0
   18.6778  -15.6074  -14.9014 C   0  0  0  0  0  0  0  0  0  0  0  0
   17.8434  -14.7526  -15.6790 N   0  0  0  0  0  0  0  0  0  0  0  0
   20.8912  -20.1538  -13.8331 C   0  0  0  0  0  0  0  0  0  0  0  0
   20.3281  -21.2294  -14.1913 O   0  0  0  0  0  0  0  0  0  0  0  0
   20.5698  -19.6900  -12.5394 O   0  0  0  0  0  0  0  0  0  0  0  0
  2  1  1  0
  3  2  2  0
  4  2  1  0
  5  4  1  0
  5  6  1  6
  7  5  1  0
  7  8  2  0
  9  7  1  0
 10  9  1  0
 10 11  1  1
 12 11  1  0
 12 13  1  0
 13 14  1  0
 14 15  1  0
 16 10  1  0
 17 16  2  0
 18 16  1  0
 19 25  1  0
 19 18  1  0
 19 20  1  6
 21 20  1  0
 22 21  1  0
 23 22  1  0
 23 24  1  0
 25 27  1  0
 26 25  2  0
M  END
$$$$
