NKK.pdb
     RDKit          3D

 27 26  0  0  1  0  0  0  0  0999 V2000
   28.4960  -19.4809  -15.7530 N   0  0  0  0  0  0  0  0  0  0  0  0
   27.5076  -20.3676  -15.2689 C   0  0  0  0  0  0  0  0  0  0  0  0
   27.6451  -21.6065  -15.4156 O   0  0  0  0  0  0  0  0  0  0  0  0
   26.3124  -19.8124  -14.5887 C   0  0  0  0  0  0  0  0  0  0  0  0
   25.1273  -20.6570  -14.9269 C   0  0  2  0  0  0  0  0  0  0  0  0
   25.0564  -20.9930  -16.3171 N   0  0  0  0  0  0  0  0  0  0  0  0
   23.8509  -20.0624  -14.4570 C   0  0  0  0  0  0  0  0  0  0  0  0
   23.6675  -19.7658  -13.2445 O   0  0  0  0  0  0  0  0  0  0  0  0
   22.7883  -19.8067  -15.3623 N   0  0  0  0  0  0  0  0  0  0  0  0
   21.5587  -19.2562  -14.8493 C   0  0  1  0  0  0  0  0  0  0  0  0
   20.8973  -18.3251  -15.8503 C   0  0  0  0  0  0  0  0  0  0  0  0
   19.6558  -17.6990  -15.2342 C   0  0  0  0  0  0  0  0  0  0  0  0
   19.0382  -16.8069  -16.3059 C   0  0  0  0  0  0  0  0  0  0  0  0
   17.9020  -16.0000  -15.7233 C   0  0  0  0  0  0  0  0  0  0  0  0
   17.2962  -15.2339  -16.7968 N   0  0  0  0  0  0  0  0  0  0  0  0
   20.5925  -20.3469  -14.5880 C   0  0  0  0  0  0  0  0  0  0  0  0
   20.3525  -21.2719  -15.4039 O   0  0  0  0  0  0  0  0  0  0  0  0
   19.8909  -20.3735  -13.3666 N   0  0  0  0  0  0  0  0  0  0  0  0
   18.9724  -21.4416  -12.9986 C   0  0  1  0  0  0  0  0  0  0  0  0
   18.9245  -21.6902  -11.5452 C   0  0  0  0  0  0  0  0  0  0  0  0
   18.4490  -23.0866  -11.2616 C   0  0  0  0  0  0  0  0  0  0  0  0
   18.2491  -23.3617   -9.7934 C   0  0  0  0  0  0  0  0  0  0  0  0
   17.6939  -24.7393   -9.5363 C   0  0  0  0  0  0  0  0  0  0  0  0
   17.3923  -25.0070   -8.1693 N   0  0  0  0  0  0  0  0  0  0  0  0
   17.6414  -21.0250  -13.4937 C   0  0  0  0  0  0  0  0  0  0  0  0
   17.2992  -19.8096  -13.5827 O   0  0  0  0  0  0  0  0  0  0  0  0
   16.6735  -21.9699  -13.8969 O   0  0  0  0  0  0  0  0  0  0  0  0
  2  1  1  0
  3  2  2  0
  4  2  1  0
  5  4  1  0
  5  6  1  6
  7  5  1  0
  7  8  2  0
  9  7  1  0
 10  9  1  0
 10 11  1  6
 12 11  1  0
 12 13  1  0
 13 14  1  0
 14 15  1  0
 16 10  1  0
 17 16  2  0
 18 16  1  0
 19 25  1  0
 19 18  1  0
 19 20  1  1
 21 20  1  0
 22 21  1  0
 23 22  1  0
 23 24  1  0
 25 27  1  0
 26 25  2  0
M  END
$$$$
