NKK.pdb
     RDKit          3D

 27 26  0  0  1  0  0  0  0  0999 V2000
   15.8454  -14.4018  -17.9918 N   0  0  0  0  0  0  0  0  0  0  0  0
   16.3523  -13.1170  -17.6918 C   0  0  0  0  0  0  0  0  0  0  0  0
   16.9369  -12.4468  -18.5776 O   0  0  0  0  0  0  0  0  0  0  0  0
   16.1825  -12.5775  -16.3209 C   0  0  0  0  0  0  0  0  0  0  0  0
   17.5159  -12.1475  -15.8017 C   0  0  2  0  0  0  0  0  0  0  0  0
   18.3572  -13.2475  -15.4372 N   0  0  0  0  0  0  0  0  0  0  0  0
   17.4063  -11.1697  -14.6902 C   0  0  0  0  0  0  0  0  0  0  0  0
   16.9970  -11.5125  -13.5470 O   0  0  0  0  0  0  0  0  0  0  0  0
   17.7603   -9.8083  -14.8786 N   0  0  0  0  0  0  0  0  0  0  0  0
   17.7021   -8.9148  -13.7488 C   0  0  1  0  0  0  0  0  0  0  0  0
   18.4683   -7.6293  -14.0071 C   0  0  0  0  0  0  0  0  0  0  0  0
   19.9566   -7.9249  -14.1111 C   0  0  0  0  0  0  0  0  0  0  0  0
   20.6156   -6.6634  -14.6592 C   0  0  0  0  0  0  0  0  0  0  0  0
   22.1042   -6.8730  -14.8061 C   0  0  0  0  0  0  0  0  0  0  0  0
   22.3148   -8.0507  -15.6277 N   0  0  0  0  0  0  0  0  0  0  0  0
   16.2978   -8.5227  -13.4925 C   0  0  0  0  0  0  0  0  0  0  0  0
   15.4836   -8.2235  -14.4017 O   0  0  0  0  0  0  0  0  0  0  0  0
   15.8224   -8.4745  -12.1672 N   0  0  0  0  0  0  0  0  0  0  0  0
   14.4532   -8.1173  -11.8245 C   0  0  1  0  0  0  0  0  0  0  0  0
   13.9296   -8.8697  -10.6685 C   0  0  0  0  0  0  0  0  0  0  0  0
   12.4969   -8.5044  -10.4031 C   0  0  0  0  0  0  0  0  0  0  0  0
   11.8866   -9.2759   -9.2613 C   0  0  0  0  0  0  0  0  0  0  0  0
   10.4979   -8.7985   -8.9215 C   0  0  0  0  0  0  0  0  0  0  0  0
    9.8894   -9.4855   -7.8309 N   0  0  0  0  0  0  0  0  0  0  0  0
   14.4704   -6.6671  -11.5297 C   0  0  0  0  0  0  0  0  0  0  0  0
   15.4857   -6.0832  -11.0496 O   0  0  0  0  0  0  0  0  0  0  0  0
   13.3449   -5.8502  -11.7705 O   0  0  0  0  0  0  0  0  0  0  0  0
  2  1  1  0
  3  2  2  0
  4  2  1  0
  5  4  1  0
  5  6  1  1
  7  5  1  0
  7  8  2  0
  9  7  1  0
 10  9  1  0
 10 11  1  6
 12 11  1  0
 12 13  1  0
 13 14  1  0
 14 15  1  0
 16 10  1  0
 17 16  2  0
 18 16  1  0
 19 25  1  0
 19 18  1  0
 19 20  1  1
 21 20  1  0
 22 21  1  0
 23 22  1  0
 23 24  1  0
 25 27  1  0
 26 25  2  0
M  END
$$$$
