NKK.pdb
     RDKit          3D

 27 26  0  0  1  0  0  0  0  0999 V2000
   31.3370  -21.4967  -10.8670 N   0  0  0  0  0  0  0  0  0  0  0  0
   30.4319  -21.0570  -11.8595 C   0  0  0  0  0  0  0  0  0  0  0  0
   30.8194  -20.2826  -12.7682 O   0  0  0  0  0  0  0  0  0  0  0  0
   29.0251  -21.5235  -11.8093 C   0  0  0  0  0  0  0  0  0  0  0  0
   28.1593  -20.5256  -12.5072 C   0  0  2  0  0  0  0  0  0  0  0  0
   28.3515  -19.1879  -12.0337 N   0  0  0  0  0  0  0  0  0  0  0  0
   26.7229  -20.8992  -12.4794 C   0  0  0  0  0  0  0  0  0  0  0  0
   26.2743  -21.8502  -13.1765 O   0  0  0  0  0  0  0  0  0  0  0  0
   25.8014  -20.1937  -11.6625 N   0  0  0  0  0  0  0  0  0  0  0  0
   24.4202  -20.6065  -11.6610 C   0  0  1  0  0  0  0  0  0  0  0  0
   23.7892  -20.4577  -10.2876 C   0  0  0  0  0  0  0  0  0  0  0  0
   22.3628  -20.9848  -10.3126 C   0  0  0  0  0  0  0  0  0  0  0  0
   21.8407  -20.9015   -8.8821 C   0  0  0  0  0  0  0  0  0  0  0  0
   20.4458  -21.4751   -8.8005 C   0  0  0  0  0  0  0  0  0  0  0  0
   20.0002  -21.3828   -7.4224 N   0  0  0  0  0  0  0  0  0  0  0  0
   23.6394  -19.7454  -12.5777 C   0  0  0  0  0  0  0  0  0  0  0  0
   23.7232  -18.4917  -12.5925 O   0  0  0  0  0  0  0  0  0  0  0  0
   22.7470  -20.3374  -13.4931 N   0  0  0  0  0  0  0  0  0  0  0  0
   21.9839  -19.5732  -14.4695 C   0  0  1  0  0  0  0  0  0  0  0  0
   21.9968  -20.1759  -15.8161 C   0  0  0  0  0  0  0  0  0  0  0  0
   21.2352  -19.3198  -16.7874 C   0  0  0  0  0  0  0  0  0  0  0  0
   21.1968  -19.8898  -18.1819 C   0  0  0  0  0  0  0  0  0  0  0  0
   20.4666  -18.9945  -19.1499 C   0  0  0  0  0  0  0  0  0  0  0  0
   20.3853  -19.5051  -20.4781 N   0  0  0  0  0  0  0  0  0  0  0  0
   20.6006  -19.5086  -13.9477 C   0  0  0  0  0  0  0  0  0  0  0  0
   20.0448  -20.4895  -13.3721 O   0  0  0  0  0  0  0  0  0  0  0  0
   19.8198  -18.3387  -14.0651 O   0  0  0  0  0  0  0  0  0  0  0  0
  2  1  1  0
  3  2  2  0
  4  2  1  0
  5  4  1  0
  5  6  1  1
  7  5  1  0
  7  8  2  0
  9  7  1  0
 10  9  1  0
 10 11  1  1
 12 11  1  0
 12 13  1  0
 13 14  1  0
 14 15  1  0
 16 10  1  0
 17 16  2  0
 18 16  1  0
 19 25  1  0
 19 18  1  0
 19 20  1  6
 21 20  1  0
 22 21  1  0
 23 22  1  0
 23 24  1  0
 25 27  1  0
 26 25  2  0
M  END
$$$$
