NKK.pdb
     RDKit          3D

 27 26  0  0  1  0  0  0  0  0999 V2000
   14.5269  -14.6781  -10.5725 N   0  0  0  0  0  0  0  0  0  0  0  0
   15.6558  -14.3989  -11.3758 C   0  0  0  0  0  0  0  0  0  0  0  0
   16.4939  -15.3004  -11.6213 O   0  0  0  0  0  0  0  0  0  0  0  0
   15.8321  -13.0308  -11.9203 C   0  0  0  0  0  0  0  0  0  0  0  0
   14.7458  -12.1542  -11.3875 C   0  0  2  0  0  0  0  0  0  0  0  0
   13.4685  -12.4234  -11.9762 N   0  0  0  0  0  0  0  0  0  0  0  0
   15.0812  -10.7111  -11.4796 C   0  0  0  0  0  0  0  0  0  0  0  0
   14.9446  -10.0689  -12.5570 O   0  0  0  0  0  0  0  0  0  0  0  0
   15.5700  -10.0023  -10.3514 N   0  0  0  0  0  0  0  0  0  0  0  0
   15.8261   -8.5894  -10.4789 C   0  0  1  0  0  0  0  0  0  0  0  0
   15.4685   -7.8353   -9.2101 C   0  0  0  0  0  0  0  0  0  0  0  0
   15.6276   -6.3394   -9.4339 C   0  0  0  0  0  0  0  0  0  0  0  0
   15.1845   -5.6549   -8.1451 C   0  0  0  0  0  0  0  0  0  0  0  0
   15.2071   -4.1543   -8.3158 C   0  0  0  0  0  0  0  0  0  0  0  0
   14.7321   -3.5531   -7.0832 N   0  0  0  0  0  0  0  0  0  0  0  0
   17.2704   -8.3614  -10.7102 C   0  0  0  0  0  0  0  0  0  0  0  0
   18.1667   -8.7111   -9.9018 O   0  0  0  0  0  0  0  0  0  0  0  0
   17.6903   -7.7202  -11.8923 N   0  0  0  0  0  0  0  0  0  0  0  0
   19.0849   -7.6395  -12.3025 C   0  0  1  0  0  0  0  0  0  0  0  0
   19.3846   -8.4464  -13.5008 C   0  0  0  0  0  0  0  0  0  0  0  0
   20.8091   -8.2451  -13.9329 C   0  0  0  0  0  0  0  0  0  0  0  0
   21.1858   -9.0600  -15.1433 C   0  0  0  0  0  0  0  0  0  0  0  0
   22.6404   -8.9094  -15.5085 C   0  0  0  0  0  0  0  0  0  0  0  0
   23.0974   -9.8280  -16.4980 N   0  0  0  0  0  0  0  0  0  0  0  0
   19.3514   -6.2078  -12.5663 C   0  0  0  0  0  0  0  0  0  0  0  0
   20.5206   -5.7227  -12.5652 O   0  0  0  0  0  0  0  0  0  0  0  0
   18.3061   -5.2984  -12.8357 O   0  0  0  0  0  0  0  0  0  0  0  0
  2  1  1  0
  3  2  2  0
  4  2  1  0
  5  4  1  0
  5  6  1  6
  7  5  1  0
  7  8  2  0
  9  7  1  0
 10  9  1  0
 10 11  1  1
 12 11  1  0
 12 13  1  0
 13 14  1  0
 14 15  1  0
 16 10  1  0
 17 16  2  0
 18 16  1  0
 19 25  1  0
 19 18  1  0
 19 20  1  6
 21 20  1  0
 22 21  1  0
 23 22  1  0
 23 24  1  0
 25 27  1  0
 26 25  2  0
M  END
$$$$
