NKK.pdb
     RDKit          3D

 27 26  0  0  1  0  0  0  0  0999 V2000
   22.3078  -12.5354  -19.6273 N   0  0  0  0  0  0  0  0  0  0  0  0
   21.1952  -12.5513  -20.4988 C   0  0  0  0  0  0  0  0  0  0  0  0
   21.2478  -13.1911  -21.5773 O   0  0  0  0  0  0  0  0  0  0  0  0
   19.9720  -11.8036  -20.1193 C   0  0  0  0  0  0  0  0  0  0  0  0
   20.1676  -11.2133  -18.7608 C   0  0  2  0  0  0  0  0  0  0  0  0
   20.6644  -12.1573  -17.8054 N   0  0  0  0  0  0  0  0  0  0  0  0
   18.9492  -10.5336  -18.2540 C   0  0  0  0  0  0  0  0  0  0  0  0
   18.1708   -9.9104  -19.0269 O   0  0  0  0  0  0  0  0  0  0  0  0
   18.6183  -10.5625  -16.8741 N   0  0  0  0  0  0  0  0  0  0  0  0
   17.3863   -9.9495  -16.4444 C   0  0  1  0  0  0  0  0  0  0  0  0
   16.8236  -10.6241  -15.2056 C   0  0  0  0  0  0  0  0  0  0  0  0
   16.3058  -12.0096  -15.5597 C   0  0  0  0  0  0  0  0  0  0  0  0
   15.6998  -12.5887  -14.2856 C   0  0  0  0  0  0  0  0  0  0  0  0
   15.0447  -13.9184  -14.5760 C   0  0  0  0  0  0  0  0  0  0  0  0
   14.5243  -14.4466  -13.3284 N   0  0  0  0  0  0  0  0  0  0  0  0
   17.6315   -8.5362  -16.0786 C   0  0  0  0  0  0  0  0  0  0  0  0
   18.6759   -8.1390  -15.5036 O   0  0  0  0  0  0  0  0  0  0  0  0
   16.6581   -7.5634  -16.3799 N   0  0  0  0  0  0  0  0  0  0  0  0
   16.8617   -6.1384  -16.1614 C   0  0  1  0  0  0  0  0  0  0  0  0
   15.7509   -5.3096  -16.6673 C   0  0  0  0  0  0  0  0  0  0  0  0
   16.0826   -3.8493  -16.5493 C   0  0  0  0  0  0  0  0  0  0  0  0
   15.0129   -2.9477  -17.1096 C   0  0  0  0  0  0  0  0  0  0  0  0
   15.3860   -1.4898  -17.0243 C   0  0  0  0  0  0  0  0  0  0  0  0
   14.4871   -0.6115  -17.6966 N   0  0  0  0  0  0  0  0  0  0  0  0
   17.0080   -5.9657  -14.6989 C   0  0  0  0  0  0  0  0  0  0  0  0
   16.3367   -6.6402  -13.8643 O   0  0  0  0  0  0  0  0  0  0  0  0
   17.9127   -5.0307  -14.1515 O   0  0  0  0  0  0  0  0  0  0  0  0
  2  1  1  0
  3  2  2  0
  4  2  1  0
  5  4  1  0
  5  6  1  1
  7  5  1  0
  7  8  2  0
  9  7  1  0
 10  9  1  0
 10 11  1  1
 12 11  1  0
 12 13  1  0
 13 14  1  0
 14 15  1  0
 16 10  1  0
 17 16  2  0
 18 16  1  0
 19 25  1  0
 19 18  1  0
 19 20  1  1
 21 20  1  0
 22 21  1  0
 23 22  1  0
 23 24  1  0
 25 27  1  0
 26 25  2  0
M  END
$$$$
