NKK.pdb
     RDKit          3D

 27 26  0  0  1  0  0  0  0  0999 V2000
   17.8059  -21.3811  -20.7207 N   0  0  0  0  0  0  0  0  0  0  0  0
   16.8673  -20.3547  -20.4698 C   0  0  0  0  0  0  0  0  0  0  0  0
   15.8270  -20.2670  -21.1666 O   0  0  0  0  0  0  0  0  0  0  0  0
   17.1309  -19.3889  -19.3757 C   0  0  0  0  0  0  0  0  0  0  0  0
   18.4714  -19.6818  -18.7844 C   0  0  2  0  0  0  0  0  0  0  0  0
   18.4982  -20.8993  -18.0312 N   0  0  0  0  0  0  0  0  0  0  0  0
   19.0013  -18.5490  -17.9847 C   0  0  0  0  0  0  0  0  0  0  0  0
   18.3494  -18.0580  -17.0225 O   0  0  0  0  0  0  0  0  0  0  0  0
   20.2667  -17.9774  -18.2785 N   0  0  0  0  0  0  0  0  0  0  0  0
   20.7251  -16.8646  -17.4850 C   0  0  1  0  0  0  0  0  0  0  0  0
   22.2380  -16.7363  -17.5155 C   0  0  0  0  0  0  0  0  0  0  0  0
   22.8776  -18.0249  -17.0219 C   0  0  0  0  0  0  0  0  0  0  0  0
   24.3848  -17.7922  -17.0200 C   0  0  0  0  0  0  0  0  0  0  0  0
   25.1131  -19.0862  -16.7434 C   0  0  0  0  0  0  0  0  0  0  0  0
   26.5389  -18.8276  -16.8254 N   0  0  0  0  0  0  0  0  0  0  0  0
   20.1851  -15.6010  -18.0357 C   0  0  0  0  0  0  0  0  0  0  0  0
   20.1684  -15.3295  -19.2625 O   0  0  0  0  0  0  0  0  0  0  0  0
   19.6550  -14.6336  -17.1594 N   0  0  0  0  0  0  0  0  0  0  0  0
   19.1137  -13.3601  -17.6121 C   0  0  1  0  0  0  0  0  0  0  0  0
   17.7190  -13.1381  -17.1852 C   0  0  0  0  0  0  0  0  0  0  0  0
   17.2003  -11.8357  -17.7250 C   0  0  0  0  0  0  0  0  0  0  0  0
   15.7855  -11.5360  -17.3014 C   0  0  0  0  0  0  0  0  0  0  0  0
   15.2556  -10.2680  -17.9207 C   0  0  0  0  0  0  0  0  0  0  0  0
   14.0151   -9.8217  -17.3790 N   0  0  0  0  0  0  0  0  0  0  0  0
   19.9974  -12.3161  -17.0468 C   0  0  0  0  0  0  0  0  0  0  0  0
   19.5466  -11.2832  -16.4704 O   0  0  0  0  0  0  0  0  0  0  0  0
   21.4032  -12.4176  -17.1209 O   0  0  0  0  0  0  0  0  0  0  0  0
  2  1  1  0
  3  2  2  0
  4  2  1  0
  5  4  1  0
  5  6  1  1
  7  5  1  0
  7  8  2  0
  9  7  1  0
 10  9  1  0
 10 11  1  6
 12 11  1  0
 12 13  1  0
 13 14  1  0
 14 15  1  0
 16 10  1  0
 17 16  2  0
 18 16  1  0
 19 25  1  0
 19 18  1  0
 19 20  1  1
 21 20  1  0
 22 21  1  0
 23 22  1  0
 23 24  1  0
 25 27  1  0
 26 25  2  0
M  END
$$$$
