NKK.pdb
     RDKit          3D

 27 26  0  0  1  0  0  0  0  0999 V2000
   27.9031  -22.3501  -15.1840 N   0  0  0  0  0  0  0  0  0  0  0  0
   27.1601  -21.2912  -15.7534 C   0  0  0  0  0  0  0  0  0  0  0  0
   27.3877  -20.9230  -16.9316 O   0  0  0  0  0  0  0  0  0  0  0  0
   26.1133  -20.6265  -14.9399 C   0  0  0  0  0  0  0  0  0  0  0  0
   24.7791  -21.1791  -15.3231 C   0  0  2  0  0  0  0  0  0  0  0  0
   24.5308  -21.1189  -16.7320 N   0  0  0  0  0  0  0  0  0  0  0  0
   23.6660  -20.5619  -14.5592 C   0  0  0  0  0  0  0  0  0  0  0  0
   23.6716  -20.5243  -13.2981 O   0  0  0  0  0  0  0  0  0  0  0  0
   22.5516  -19.9906  -15.2271 N   0  0  0  0  0  0  0  0  0  0  0  0
   21.4857  -19.4262  -14.4375 C   0  0  1  0  0  0  0  0  0  0  0  0
   20.7040  -18.3797  -15.2122 C   0  0  0  0  0  0  0  0  0  0  0  0
   19.6541  -17.7459  -14.3128 C   0  0  0  0  0  0  0  0  0  0  0  0
   18.9588  -16.6713  -15.1423 C   0  0  0  0  0  0  0  0  0  0  0  0
   17.8877  -15.9905  -14.3235 C   0  0  0  0  0  0  0  0  0  0  0  0
   17.1732  -15.0716  -15.1904 N   0  0  0  0  0  0  0  0  0  0  0  0
   20.5195  -20.4859  -14.0703 C   0  0  0  0  0  0  0  0  0  0  0  0
   20.1797  -21.4145  -14.8458 O   0  0  0  0  0  0  0  0  0  0  0  0
   19.9346  -20.4768  -12.7887 N   0  0  0  0  0  0  0  0  0  0  0  0
   19.0348  -21.5194  -12.3163 C   0  0  1  0  0  0  0  0  0  0  0  0
   19.4096  -22.0530  -10.9929 C   0  0  0  0  0  0  0  0  0  0  0  0
   18.4452  -23.1199  -10.5589 C   0  0  0  0  0  0  0  0  0  0  0  0
   18.7131  -23.6361   -9.1687 C   0  0  0  0  0  0  0  0  0  0  0  0
   17.6931  -24.6538   -8.7261 C   0  0  0  0  0  0  0  0  0  0  0  0
   17.9166  -25.1828   -7.4215 N   0  0  0  0  0  0  0  0  0  0  0  0
   17.6897  -20.9047  -12.2613 C   0  0  0  0  0  0  0  0  0  0  0  0
   17.5015  -19.7149  -11.8725 O   0  0  0  0  0  0  0  0  0  0  0  0
   16.5339  -21.6193  -12.6431 O   0  0  0  0  0  0  0  0  0  0  0  0
  2  1  1  0
  3  2  2  0
  4  2  1  0
  5  4  1  0
  5  6  1  6
  7  5  1  0
  7  8  2  0
  9  7  1  0
 10  9  1  0
 10 11  1  6
 12 11  1  0
 12 13  1  0
 13 14  1  0
 14 15  1  0
 16 10  1  0
 17 16  2  0
 18 16  1  0
 19 25  1  0
 19 18  1  0
 19 20  1  1
 21 20  1  0
 22 21  1  0
 23 22  1  0
 23 24  1  0
 25 27  1  0
 26 25  2  0
M  END
$$$$
