NKK.pdb
     RDKit          3D

 27 26  0  0  1  0  0  0  0  0999 V2000
   26.8033  -21.8649   -9.8632 N   0  0  0  0  0  0  0  0  0  0  0  0
   26.7197  -20.4769   -9.6102 C   0  0  0  0  0  0  0  0  0  0  0  0
   27.1342  -20.0079   -8.5222 O   0  0  0  0  0  0  0  0  0  0  0  0
   26.1375  -19.5895  -10.6459 C   0  0  0  0  0  0  0  0  0  0  0  0
   25.7095  -20.4214  -11.8109 C   0  0  2  0  0  0  0  0  0  0  0  0
   26.7327  -21.3116  -12.2703 N   0  0  0  0  0  0  0  0  0  0  0  0
   25.1732  -19.6043  -12.9282 C   0  0  0  0  0  0  0  0  0  0  0  0
   24.2233  -18.7921  -12.7556 O   0  0  0  0  0  0  0  0  0  0  0  0
   25.7150  -19.7113  -14.2356 N   0  0  0  0  0  0  0  0  0  0  0  0
   25.1704  -18.8813  -15.2809 C   0  0  1  0  0  0  0  0  0  0  0  0
   26.1961  -18.5925  -16.3630 C   0  0  0  0  0  0  0  0  0  0  0  0
   25.6130  -17.6304  -17.3865 C   0  0  0  0  0  0  0  0  0  0  0  0
   26.6808  -17.4310  -18.4570 C   0  0  0  0  0  0  0  0  0  0  0  0
   26.2511  -16.3591  -19.4306 C   0  0  0  0  0  0  0  0  0  0  0  0
   27.2864  -16.2242  -20.4386 N   0  0  0  0  0  0  0  0  0  0  0  0
   24.0473  -19.5826  -15.9430 C   0  0  0  0  0  0  0  0  0  0  0  0
   24.0823  -20.7955  -16.2697 O   0  0  0  0  0  0  0  0  0  0  0  0
   22.8637  -18.8759  -16.2337 N   0  0  0  0  0  0  0  0  0  0  0  0
   21.5640  -19.5188  -16.3649 C   0  0  1  0  0  0  0  0  0  0  0  0
   20.9350  -19.8257  -15.0661 C   0  0  0  0  0  0  0  0  0  0  0  0
   20.1941  -21.1308  -15.1312 C   0  0  0  0  0  0  0  0  0  0  0  0
   19.4545  -21.4606  -13.8602 C   0  0  0  0  0  0  0  0  0  0  0  0
   18.5673  -22.6701  -14.0078 C   0  0  0  0  0  0  0  0  0  0  0  0
   17.8745  -23.0410  -12.8186 N   0  0  0  0  0  0  0  0  0  0  0  0
   20.7194  -18.5799  -17.1366 C   0  0  0  0  0  0  0  0  0  0  0  0
   20.8849  -17.3257  -17.0953 O   0  0  0  0  0  0  0  0  0  0  0  0
   19.6744  -19.0374  -17.9678 O   0  0  0  0  0  0  0  0  0  0  0  0
  2  1  1  0
  3  2  2  0
  4  2  1  0
  5  4  1  0
  5  6  1  6
  7  5  1  0
  7  8  2  0
  9  7  1  0
 10  9  1  0
 10 11  1  6
 12 11  1  0
 12 13  1  0
 13 14  1  0
 14 15  1  0
 16 10  1  0
 17 16  2  0
 18 16  1  0
 19 25  1  0
 19 18  1  0
 19 20  1  1
 21 20  1  0
 22 21  1  0
 23 22  1  0
 23 24  1  0
 25 27  1  0
 26 25  2  0
M  END
$$$$
