NKK.pdb
     RDKit          3D

 27 26  0  0  1  0  0  0  0  0999 V2000
   17.3952  -14.6623  -16.0068 N   0  0  0  0  0  0  0  0  0  0  0  0
   17.6165  -13.9398  -14.8124 C   0  0  0  0  0  0  0  0  0  0  0  0
   18.3767  -14.4022  -13.9271 O   0  0  0  0  0  0  0  0  0  0  0  0
   16.9393  -12.6340  -14.6242 C   0  0  0  0  0  0  0  0  0  0  0  0
   15.9928  -12.4118  -15.7587 C   0  0  2  0  0  0  0  0  0  0  0  0
   16.3892  -13.0836  -16.9596 N   0  0  0  0  0  0  0  0  0  0  0  0
   15.7366  -10.9721  -16.0136 C   0  0  0  0  0  0  0  0  0  0  0  0
   15.8016  -10.4854  -17.1757 O   0  0  0  0  0  0  0  0  0  0  0  0
   15.4085  -10.0903  -14.9510 N   0  0  0  0  0  0  0  0  0  0  0  0
   15.0294   -8.7358  -15.2671 C   0  0  1  0  0  0  0  0  0  0  0  0
   13.9998   -8.1962  -14.2898 C   0  0  0  0  0  0  0  0  0  0  0  0
   13.5613   -6.8035  -14.7152 C   0  0  0  0  0  0  0  0  0  0  0  0
   12.4781   -6.3674  -13.7341 C   0  0  0  0  0  0  0  0  0  0  0  0
   12.0093   -4.9692  -14.0607 C   0  0  0  0  0  0  0  0  0  0  0  0
   10.9583   -4.6157  -13.1242 N   0  0  0  0  0  0  0  0  0  0  0  0
   16.2103   -7.8489  -15.1657 C   0  0  0  0  0  0  0  0  0  0  0  0
   17.0807   -7.9521  -14.2652 O   0  0  0  0  0  0  0  0  0  0  0  0
   16.3926   -6.8259  -16.1170 N   0  0  0  0  0  0  0  0  0  0  0  0
   17.5657   -5.9640  -16.1450 C   0  0  1  0  0  0  0  0  0  0  0  0
   18.2396   -5.9443  -17.4573 C   0  0  0  0  0  0  0  0  0  0  0  0
   19.4086   -5.0010  -17.4389 C   0  0  0  0  0  0  0  0  0  0  0  0
   20.0984   -4.8802  -18.7733 C   0  0  0  0  0  0  0  0  0  0  0  0
   21.2300   -3.8848  -18.7482 C   0  0  0  0  0  0  0  0  0  0  0  0
   21.7637   -3.5674  -20.0312 N   0  0  0  0  0  0  0  0  0  0  0  0
   17.0861   -4.6090  -15.7923 C   0  0  0  0  0  0  0  0  0  0  0  0
   17.4976   -3.9873  -14.7694 O   0  0  0  0  0  0  0  0  0  0  0  0
   16.1353   -3.9314  -16.5855 O   0  0  0  0  0  0  0  0  0  0  0  0
  2  1  1  0
  3  2  2  0
  4  2  1  0
  5  4  1  0
  5  6  1  6
  7  5  1  0
  7  8  2  0
  9  7  1  0
 10  9  1  0
 10 11  1  1
 12 11  1  0
 12 13  1  0
 13 14  1  0
 14 15  1  0
 16 10  1  0
 17 16  2  0
 18 16  1  0
 19 25  1  0
 19 18  1  0
 19 20  1  6
 21 20  1  0
 22 21  1  0
 23 22  1  0
 23 24  1  0
 25 27  1  0
 26 25  2  0
M  END
$$$$
