VLY.pdb
     RDKit          3D

 28 28  0  0  1  0  0  0  0  0999 V2000
   26.1619  -19.4509  -12.1634 C   0  0  0  0  0  0  0  0  0  0  0  0
   25.5833  -20.7035  -11.5245 C   0  0  2  0  0  0  0  0  0  0  0  0
   26.7443  -21.5330  -11.0344 C   0  0  0  0  0  0  0  0  0  0  0  0
   24.7638  -21.4569  -12.5622 C   0  0  2  0  0  0  0  0  0  0  0  0
   25.5849  -21.9679  -13.6112 N   0  0  0  0  0  0  0  0  0  0  0  0
   23.6357  -20.6343  -13.0357 C   0  0  0  0  0  0  0  0  0  0  0  0
   22.7907  -20.2403  -12.1912 O   0  0  0  0  0  0  0  0  0  0  0  0
   21.3142  -17.8502  -18.1910 C   0  0  0  0  0  0  0  0  0  0  0  0
   21.3553  -18.0651  -16.7256 C   0  0  2  0  0  0  0  0  0  0  0  0
   21.3726  -16.7009  -16.0250 C   0  0  0  0  0  0  0  0  0  0  0  0
   22.4578  -18.8766  -16.1795 C   0  0  0  0  0  0  0  0  0  0  0  0
   22.2771  -19.5123  -14.8552 C   0  0  2  0  0  0  0  0  0  0  0  0
   23.4292  -20.2497  -14.3861 N   0  0  0  0  0  0  0  0  0  0  0  0
   21.0272  -20.2837  -14.7079 C   0  0  0  0  0  0  0  0  0  0  0  0
   21.0645  -21.5339  -14.8410 O   0  0  0  0  0  0  0  0  0  0  0  0
   13.9818  -23.8657  -11.3606 O   0  0  0  0  0  0  0  0  0  0  0  0
   15.1143  -23.1794  -11.7362 C   0  0  0  0  0  0  0  0  0  0  0  0
   16.0670  -23.7682  -12.5370 C   0  0  0  0  0  0  0  0  0  0  0  0
   17.1837  -23.0342  -12.8834 C   0  0  0  0  0  0  0  0  0  0  0  0
   17.3997  -21.7311  -12.4674 C   0  0  0  0  0  0  0  0  0  0  0  0
   18.6128  -21.0060  -12.8682 C   0  0  0  0  0  0  0  0  0  0  0  0
   18.5462  -20.4122  -14.2568 C   0  0  2  0  0  0  0  0  0  0  0  0
   19.8036  -19.6716  -14.4253 N   0  0  0  0  0  0  0  0  0  0  0  0
   17.3806  -19.5486  -14.4508 C   0  0  0  0  0  0  0  0  0  0  0  0
   16.3990  -19.9641  -15.1039 O   0  0  0  0  0  0  0  0  0  0  0  0
   16.4235  -21.1616  -11.6610 C   0  0  0  0  0  0  0  0  0  0  0  0
   15.3037  -21.8782  -11.3056 C   0  0  0  0  0  0  0  0  0  0  0  0
   17.3711  -18.2800  -13.9109 O   0  0  0  0  0  0  0  0  0  0  0  0
  2  1  1  6
  2  3  1  0
  4  6  1  0
  4  2  1  0
  4  5  1  6
  6  7  2  0
  9 11  1  0
  9  8  1  6
 10  9  1  0
 12 11  1  6
 12 14  1  0
 13 12  1  0
 13  6  1  0
 14 15  2  0
 16 17  1  0
 17 18  2  0
 18 19  1  0
 20 19  2  0
 20 21  1  0
 22 21  1  1
 22 24  1  0
 23 22  1  0
 23 14  1  0
 24 25  2  0
 24 28  1  0
 26 20  1  0
 27 17  1  0
 27 26  2  0
M  END
$$$$
