VLY.pdb
     RDKit          3D

 28 28  0  0  1  0  0  0  0  0999 V2000
   26.0981  -19.8798  -17.1176 C   0  0  0  0  0  0  0  0  0  0  0  0
   27.4035  -19.6135  -16.3847 C   0  0  2  0  0  0  0  0  0  0  0  0
   28.4166  -19.1840  -17.4168 C   0  0  0  0  0  0  0  0  0  0  0  0
   27.8424  -20.8858  -15.6742 C   0  0  2  0  0  0  0  0  0  0  0  0
   28.1051  -21.9405  -16.5985 N   0  0  0  0  0  0  0  0  0  0  0  0
   26.8860  -21.2486  -14.6125 C   0  0  0  0  0  0  0  0  0  0  0  0
   25.9082  -21.9793  -14.9165 O   0  0  0  0  0  0  0  0  0  0  0  0
   25.5951  -20.0115   -8.5407 C   0  0  0  0  0  0  0  0  0  0  0  0
   25.2688  -20.5962   -9.8623 C   0  0  2  0  0  0  0  0  0  0  0  0
   24.9127  -22.0761   -9.6752 C   0  0  0  0  0  0  0  0  0  0  0  0
   26.2825  -20.4981  -10.9277 C   0  0  0  0  0  0  0  0  0  0  0  0
   25.9241  -20.9603  -12.2873 C   0  0  2  0  0  0  0  0  0  0  0  0
   26.9866  -20.8314  -13.2598 N   0  0  0  0  0  0  0  0  0  0  0  0
   24.6401  -20.4393  -12.7962 C   0  0  0  0  0  0  0  0  0  0  0  0
   24.6095  -19.2907  -13.3079 O   0  0  0  0  0  0  0  0  0  0  0  0
   17.5487  -19.4405  -17.5216 O   0  0  0  0  0  0  0  0  0  0  0  0
   18.6934  -19.7959  -16.8447 C   0  0  0  0  0  0  0  0  0  0  0  0
   19.6820  -18.8722  -16.5901 C   0  0  0  0  0  0  0  0  0  0  0  0
   20.8093  -19.2826  -15.9072 C   0  0  0  0  0  0  0  0  0  0  0  0
   21.0017  -20.5797  -15.4616 C   0  0  0  0  0  0  0  0  0  0  0  0
   22.2276  -20.9533  -14.7438 C   0  0  0  0  0  0  0  0  0  0  0  0
   22.1710  -20.7023  -13.2541 C   0  0  2  0  0  0  0  0  0  0  0  0
   23.4571  -21.1795  -12.7287 N   0  0  0  0  0  0  0  0  0  0  0  0
   21.0416  -21.3716  -12.6070 C   0  0  0  0  0  0  0  0  0  0  0  0
   21.0917  -22.6000  -12.3808 O   0  0  0  0  0  0  0  0  0  0  0  0
   19.9894  -21.4907  -15.7315 C   0  0  0  0  0  0  0  0  0  0  0  0
   18.8585  -21.0993  -16.4110 C   0  0  0  0  0  0  0  0  0  0  0  0
   19.9275  -20.6426  -12.2493 O   0  0  0  0  0  0  0  0  0  0  0  0
  2  1  1  6
  2  3  1  0
  4  6  1  0
  4  2  1  0
  4  5  1  6
  6  7  2  0
  9 11  1  0
  9  8  1  1
 10  9  1  0
 12 11  1  1
 12 14  1  0
 13 12  1  0
 13  6  1  0
 14 15  2  0
 16 17  1  0
 17 18  2  0
 18 19  1  0
 20 19  2  0
 20 21  1  0
 22 21  1  6
 22 24  1  0
 23 22  1  0
 23 14  1  0
 24 25  2  0
 24 28  1  0
 26 20  1  0
 27 17  1  0
 27 26  2  0
M  END
$$$$
