VLY.pdb
     RDKit          3D

 28 28  0  0  1  0  0  0  0  0999 V2000
   26.0301  -17.7042  -18.3003 C   0  0  0  0  0  0  0  0  0  0  0  0
   25.0986  -18.5205  -17.4183 C   0  0  2  0  0  0  0  0  0  0  0  0
   24.1906  -17.5485  -16.7062 C   0  0  0  0  0  0  0  0  0  0  0  0
   25.9298  -19.3267  -16.4307 C   0  0  2  0  0  0  0  0  0  0  0  0
   26.9140  -20.1182  -17.0946 N   0  0  0  0  0  0  0  0  0  0  0  0
   25.0611  -20.0958  -15.5212 C   0  0  0  0  0  0  0  0  0  0  0  0
   24.4662  -21.1055  -15.9785 O   0  0  0  0  0  0  0  0  0  0  0  0
   25.6489  -22.5352  -11.6722 C   0  0  0  0  0  0  0  0  0  0  0  0
   25.4977  -21.0830  -11.4205 C   0  0  2  0  0  0  0  0  0  0  0  0
   25.6707  -20.8196   -9.9196 C   0  0  0  0  0  0  0  0  0  0  0  0
   24.2496  -20.4343  -11.8605 C   0  0  0  0  0  0  0  0  0  0  0  0
   23.9046  -20.4709  -13.2993 C   0  0  2  0  0  0  0  0  0  0  0  0
   24.8435  -19.7798  -14.1549 N   0  0  0  0  0  0  0  0  0  0  0  0
   22.5061  -20.1121  -13.6065 C   0  0  0  0  0  0  0  0  0  0  0  0
   22.0758  -18.9841  -13.2534 O   0  0  0  0  0  0  0  0  0  0  0  0
   14.7465  -20.1856  -17.8386 O   0  0  0  0  0  0  0  0  0  0  0  0
   16.0356  -20.3829  -17.3981 C   0  0  0  0  0  0  0  0  0  0  0  0
   16.5386  -21.6526  -17.2238 C   0  0  0  0  0  0  0  0  0  0  0  0
   17.8381  -21.7929  -16.7799 C   0  0  0  0  0  0  0  0  0  0  0  0
   18.6684  -20.7208  -16.4983 C   0  0  0  0  0  0  0  0  0  0  0  0
   20.0416  -20.9384  -16.0241 C   0  0  0  0  0  0  0  0  0  0  0  0
   20.2325  -20.6789  -14.5471 C   0  0  2  0  0  0  0  0  0  0  0  0
   21.6439  -20.9834  -14.2766 N   0  0  0  0  0  0  0  0  0  0  0  0
   19.3374  -21.4778  -13.7088 C   0  0  0  0  0  0  0  0  0  0  0  0
   19.6506  -22.6486  -13.4022 O   0  0  0  0  0  0  0  0  0  0  0  0
   18.1362  -19.4518  -16.6826 C   0  0  0  0  0  0  0  0  0  0  0  0
   16.8426  -19.2929  -17.1246 C   0  0  0  0  0  0  0  0  0  0  0  0
   18.1526  -20.9339  -13.2605 O   0  0  0  0  0  0  0  0  0  0  0  0
  2  1  1  6
  2  3  1  0
  4  6  1  0
  4  2  1  0
  4  5  1  6
  6  7  2  0
  9 11  1  0
  9  8  1  1
 10  9  1  0
 12 11  1  1
 12 14  1  0
 13 12  1  0
 13  6  1  0
 14 15  2  0
 16 17  1  0
 17 18  2  0
 18 19  1  0
 20 19  2  0
 20 21  1  0
 22 21  1  6
 22 24  1  0
 23 22  1  0
 23 14  1  0
 24 25  2  0
 24 28  1  0
 26 20  1  0
 27 17  1  0
 27 26  2  0
M  END
$$$$
