VLY.pdb
     RDKit          3D

 28 28  0  0  1  0  0  0  0  0999 V2000
   18.9080  -24.5619  -17.8800 C   0  0  0  0  0  0  0  0  0  0  0  0
   20.1686  -24.1622  -18.6305 C   0  0  2  0  0  0  0  0  0  0  0  0
   19.7348  -23.5430  -19.9361 C   0  0  0  0  0  0  0  0  0  0  0  0
   21.0224  -25.4006  -18.8619 C   0  0  2  0  0  0  0  0  0  0  0  0
   20.3617  -26.3454  -19.7025 N   0  0  0  0  0  0  0  0  0  0  0  0
   21.4845  -25.9644  -17.5805 C   0  0  0  0  0  0  0  0  0  0  0  0
   20.7868  -26.8594  -17.0378 O   0  0  0  0  0  0  0  0  0  0  0  0
   25.2295  -28.2211  -16.2968 C   0  0  0  0  0  0  0  0  0  0  0  0
   25.4568  -26.7605  -16.1966 C   0  0  2  0  0  0  0  0  0  0  0  0
   26.8857  -26.5145  -15.6967 C   0  0  0  0  0  0  0  0  0  0  0  0
   24.5341  -25.9761  -15.3565 C   0  0  0  0  0  0  0  0  0  0  0  0
   23.0811  -26.0801  -15.6176 C   0  0  2  0  0  0  0  0  0  0  0  0
   22.6692  -25.5693  -16.9063 N   0  0  0  0  0  0  0  0  0  0  0  0
   22.2220  -25.5845  -14.5242 C   0  0  0  0  0  0  0  0  0  0  0  0
   22.1495  -24.3452  -14.3214 O   0  0  0  0  0  0  0  0  0  0  0  0
   15.6851  -29.0097  -15.5655 O   0  0  0  0  0  0  0  0  0  0  0  0
   16.5977  -28.1126  -15.0585 C   0  0  0  0  0  0  0  0  0  0  0  0
   17.5673  -27.5569  -15.8627 C   0  0  0  0  0  0  0  0  0  0  0  0
   18.4572  -26.6626  -15.3024 C   0  0  0  0  0  0  0  0  0  0  0  0
   18.4283  -26.2916  -13.9684 C   0  0  0  0  0  0  0  0  0  0  0  0
   19.4082  -25.3371  -13.4328 C   0  0  0  0  0  0  0  0  0  0  0  0
   20.5474  -25.9817  -12.6766 C   0  0  2  0  0  0  0  0  0  0  0  0
   21.4863  -26.4459  -13.7067 N   0  0  0  0  0  0  0  0  0  0  0  0
   20.1083  -27.0783  -11.8125 C   0  0  0  0  0  0  0  0  0  0  0  0
   20.4199  -28.2559  -12.0932 O   0  0  0  0  0  0  0  0  0  0  0  0
   17.4407  -26.8666  -13.1801 C   0  0  0  0  0  0  0  0  0  0  0  0
   16.5449  -27.7601  -13.7217 C   0  0  0  0  0  0  0  0  0  0  0  0
   19.3529  -26.8062  -10.6917 O   0  0  0  0  0  0  0  0  0  0  0  0
  2  1  1  1
  2  3  1  0
  4  6  1  0
  4  2  1  0
  4  5  1  1
  6  7  2  0
  9 11  1  0
  9  8  1  1
 10  9  1  0
 12 11  1  1
 12 14  1  0
 13 12  1  0
 13  6  1  0
 14 15  2  0
 16 17  1  0
 17 18  2  0
 18 19  1  0
 20 19  2  0
 20 21  1  0
 22 21  1  6
 22 24  1  0
 23 22  1  0
 23 14  1  0
 24 25  2  0
 24 28  1  0
 26 20  1  0
 27 17  1  0
 27 26  2  0
M  END
$$$$
