VLY.pdb
     RDKit          3D

 28 28  0  0  1  0  0  0  0  0999 V2000
   29.3990  -21.5706  -13.1857 C   0  0  0  0  0  0  0  0  0  0  0  0
   28.5046  -21.3817  -14.4008 C   0  0  2  0  0  0  0  0  0  0  0  0
   29.3841  -20.9201  -15.5364 C   0  0  0  0  0  0  0  0  0  0  0  0
   27.4350  -20.3496  -14.0743 C   0  0  2  0  0  0  0  0  0  0  0  0
   27.9907  -19.0432  -13.9314 N   0  0  0  0  0  0  0  0  0  0  0  0
   26.6256  -20.7820  -12.9205 C   0  0  0  0  0  0  0  0  0  0  0  0
   26.0253  -21.8850  -12.9944 O   0  0  0  0  0  0  0  0  0  0  0  0
   26.2726  -21.8975   -8.1024 C   0  0  0  0  0  0  0  0  0  0  0  0
   26.6879  -20.5456   -8.5439 C   0  0  2  0  0  0  0  0  0  0  0  0
   27.0237  -19.7020   -7.3079 C   0  0  0  0  0  0  0  0  0  0  0  0
   25.7515  -19.7779   -9.3842 C   0  0  0  0  0  0  0  0  0  0  0  0
   25.4389  -20.2868  -10.7383 C   0  0  2  0  0  0  0  0  0  0  0  0
   26.4711  -20.0401  -11.7206 N   0  0  0  0  0  0  0  0  0  0  0  0
   24.0987  -19.9229  -11.2387 C   0  0  0  0  0  0  0  0  0  0  0  0
   23.8403  -18.7121  -11.4611 O   0  0  0  0  0  0  0  0  0  0  0  0
   17.0543  -20.6002  -16.3930 O   0  0  0  0  0  0  0  0  0  0  0  0
   18.2221  -20.7399  -15.6778 C   0  0  0  0  0  0  0  0  0  0  0  0
   19.2234  -19.7990  -15.7646 C   0  0  0  0  0  0  0  0  0  0  0  0
   20.3738  -19.9888  -15.0257 C   0  0  0  0  0  0  0  0  0  0  0  0
   20.5776  -21.0797  -14.1973 C   0  0  0  0  0  0  0  0  0  0  0  0
   21.8281  -21.2250  -13.4404 C   0  0  0  0  0  0  0  0  0  0  0  0
   21.8064  -20.5649  -12.0807 C   0  0  2  0  0  0  0  0  0  0  0  0
   23.1069  -20.8784  -11.4738 N   0  0  0  0  0  0  0  0  0  0  0  0
   20.6959  -21.0220  -11.2440 C   0  0  0  0  0  0  0  0  0  0  0  0
   20.8576  -21.9876  -10.4668 O   0  0  0  0  0  0  0  0  0  0  0  0
   19.5522  -22.0132  -14.1282 C   0  0  0  0  0  0  0  0  0  0  0  0
   18.3981  -21.8403  -14.8578 C   0  0  0  0  0  0  0  0  0  0  0  0
   19.4759  -20.3839  -11.3173 O   0  0  0  0  0  0  0  0  0  0  0  0
  2  1  1  1
  2  3  1  0
  4  6  1  0
  4  2  1  0
  4  5  1  1
  6  7  2  0
  9 11  1  0
  9  8  1  1
 10  9  1  0
 12 11  1  1
 12 14  1  0
 13 12  1  0
 13  6  1  0
 14 15  2  0
 16 17  1  0
 17 18  2  0
 18 19  1  0
 20 19  2  0
 20 21  1  0
 22 21  1  6
 22 24  1  0
 23 22  1  0
 23 14  1  0
 24 25  2  0
 24 28  1  0
 26 20  1  0
 27 17  1  0
 27 26  2  0
M  END
$$$$
