VLY.pdb
     RDKit          3D

 28 28  0  0  1  0  0  0  0  0999 V2000
   20.7990  -21.5357  -22.8520 C   0  0  0  0  0  0  0  0  0  0  0  0
   20.7660  -23.0277  -22.5602 C   0  0  2  0  0  0  0  0  0  0  0  0
   20.1535  -23.7050  -23.7611 C   0  0  0  0  0  0  0  0  0  0  0  0
   19.9386  -23.2700  -21.3061 C   0  0  2  0  0  0  0  0  0  0  0  0
   18.5480  -23.0567  -21.5439 N   0  0  0  0  0  0  0  0  0  0  0  0
   20.4736  -22.4989  -20.1692 C   0  0  0  0  0  0  0  0  0  0  0  0
   21.6549  -22.7245  -19.8002 O   0  0  0  0  0  0  0  0  0  0  0  0
   23.0835  -19.5603  -18.5004 C   0  0  0  0  0  0  0  0  0  0  0  0
   21.8333  -19.0546  -19.1138 C   0  0  2  0  0  0  0  0  0  0  0  0
   21.9124  -17.5261  -19.2119 C   0  0  0  0  0  0  0  0  0  0  0  0
   20.5570  -19.4085  -18.4671 C   0  0  0  0  0  0  0  0  0  0  0  0
   20.2397  -20.8405  -18.2691 C   0  0  2  0  0  0  0  0  0  0  0  0
   19.7490  -21.5113  -19.4526 N   0  0  0  0  0  0  0  0  0  0  0  0
   19.4090  -21.1289  -17.0835 C   0  0  0  0  0  0  0  0  0  0  0  0
   18.2110  -20.7457  -17.0721 O   0  0  0  0  0  0  0  0  0  0  0  0
   17.1199  -25.2334   -9.5366 O   0  0  0  0  0  0  0  0  0  0  0  0
   17.7632  -24.7656  -10.6601 C   0  0  0  0  0  0  0  0  0  0  0  0
   17.4980  -25.2975  -11.9019 C   0  0  0  0  0  0  0  0  0  0  0  0
   18.1718  -24.7908  -12.9950 C   0  0  0  0  0  0  0  0  0  0  0  0
   19.1053  -23.7713  -12.9108 C   0  0  0  0  0  0  0  0  0  0  0  0
   19.7915  -23.2799  -14.1131 C   0  0  0  0  0  0  0  0  0  0  0  0
   19.1133  -22.1003  -14.7717 C   0  0  2  0  0  0  0  0  0  0  0  0
   19.9087  -21.8135  -15.9729 N   0  0  0  0  0  0  0  0  0  0  0  0
   19.0219  -20.9332  -13.8932 C   0  0  0  0  0  0  0  0  0  0  0  0
   17.9719  -20.7183  -13.2498 O   0  0  0  0  0  0  0  0  0  0  0  0
   19.3537  -23.2530  -11.6469 C   0  0  0  0  0  0  0  0  0  0  0  0
   18.6912  -23.7458  -10.5459 C   0  0  0  0  0  0  0  0  0  0  0  0
   20.0961  -20.0765  -13.7792 O   0  0  0  0  0  0  0  0  0  0  0  0
  2  1  1  6
  2  3  1  0
  4  6  1  0
  4  2  1  0
  4  5  1  6
  6  7  2  0
  9 11  1  0
  9  8  1  1
 10  9  1  0
 12 11  1  6
 12 14  1  0
 13 12  1  0
 13  6  1  0
 14 15  2  0
 16 17  1  0
 17 18  2  0
 18 19  1  0
 20 19  2  0
 20 21  1  0
 22 21  1  1
 22 24  1  0
 23 22  1  0
 23 14  1  0
 24 25  2  0
 24 28  1  0
 26 20  1  0
 27 17  1  0
 27 26  2  0
M  END
$$$$
