VLY.pdb
     RDKit          3D

 28 28  0  0  1  0  0  0  0  0999 V2000
   24.7461  -17.3133  -17.6575 C   0  0  0  0  0  0  0  0  0  0  0  0
   26.2028  -17.2324  -17.2293 C   0  0  2  0  0  0  0  0  0  0  0  0
   26.9199  -16.3741  -18.2419 C   0  0  0  0  0  0  0  0  0  0  0  0
   26.7855  -18.6375  -17.1829 C   0  0  2  0  0  0  0  0  0  0  0  0
   26.7927  -19.2468  -18.4731 N   0  0  0  0  0  0  0  0  0  0  0  0
   26.1191  -19.4462  -16.1460 C   0  0  0  0  0  0  0  0  0  0  0  0
   25.0808  -20.0820  -16.4627 O   0  0  0  0  0  0  0  0  0  0  0  0
   26.6707  -21.3209  -10.1357 C   0  0  0  0  0  0  0  0  0  0  0  0
   25.9479  -21.2161  -11.4247 C   0  0  2  0  0  0  0  0  0  0  0  0
   25.6486  -22.6288  -11.9413 C   0  0  0  0  0  0  0  0  0  0  0  0
   26.5873  -20.4544  -12.5126 C   0  0  0  0  0  0  0  0  0  0  0  0
   25.8129  -20.2050  -13.7489 C   0  0  2  0  0  0  0  0  0  0  0  0
   26.5652  -19.5627  -14.8038 N   0  0  0  0  0  0  0  0  0  0  0  0
   24.5003  -19.5647  -13.5347 C   0  0  0  0  0  0  0  0  0  0  0  0
   24.4563  -18.4401  -12.9729 O   0  0  0  0  0  0  0  0  0  0  0  0
   16.5994  -16.1905  -14.2792 O   0  0  0  0  0  0  0  0  0  0  0  0
   17.8206  -16.8140  -14.4005 C   0  0  0  0  0  0  0  0  0  0  0  0
   18.9452  -16.2929  -13.8011 C   0  0  0  0  0  0  0  0  0  0  0  0
   20.1444  -16.9590  -13.9552 C   0  0  0  0  0  0  0  0  0  0  0  0
   20.2794  -18.1291  -14.6837 C   0  0  0  0  0  0  0  0  0  0  0  0
   21.5865  -18.7869  -14.8129 C   0  0  0  0  0  0  0  0  0  0  0  0
   21.9773  -19.6231  -13.6157 C   0  0  2  0  0  0  0  0  0  0  0  0
   23.3044  -20.1658  -13.9352 N   0  0  0  0  0  0  0  0  0  0  0  0
   21.0144  -20.6866  -13.3260 C   0  0  0  0  0  0  0  0  0  0  0  0
   21.1133  -21.7910  -13.9034 O   0  0  0  0  0  0  0  0  0  0  0  0
   19.1299  -18.6328  -15.2774 C   0  0  0  0  0  0  0  0  0  0  0  0
   17.9257  -17.9822  -15.1344 C   0  0  0  0  0  0  0  0  0  0  0  0
   20.0026  -20.4647  -12.4162 O   0  0  0  0  0  0  0  0  0  0  0  0
  2  1  1  6
  2  3  1  0
  4  6  1  0
  4  2  1  0
  4  5  1  6
  6  7  2  0
  9 11  1  0
  9  8  1  1
 10  9  1  0
 12 11  1  1
 12 14  1  0
 13 12  1  0
 13  6  1  0
 14 15  2  0
 16 17  1  0
 17 18  2  0
 18 19  1  0
 20 19  2  0
 20 21  1  0
 22 21  1  6
 22 24  1  0
 23 22  1  0
 23 14  1  0
 24 25  2  0
 24 28  1  0
 26 20  1  0
 27 17  1  0
 27 26  2  0
M  END
$$$$
