VLY.pdb
     RDKit          3D

 28 28  0  0  1  0  0  0  0  0999 V2000
   23.5353  -18.1199  -19.8819 C   0  0  0  0  0  0  0  0  0  0  0  0
   22.3010  -18.9423  -19.5468 C   0  0  2  0  0  0  0  0  0  0  0  0
   21.1044  -18.1869  -20.0697 C   0  0  0  0  0  0  0  0  0  0  0  0
   22.2226  -19.1278  -18.0383 C   0  0  2  0  0  0  0  0  0  0  0  0
   21.8777  -17.9119  -17.3761 N   0  0  0  0  0  0  0  0  0  0  0  0
   23.4521  -19.7581  -17.5241 C   0  0  0  0  0  0  0  0  0  0  0  0
   23.7398  -20.9155  -17.9242 O   0  0  0  0  0  0  0  0  0  0  0  0
   28.9314  -18.8542  -14.6631 C   0  0  0  0  0  0  0  0  0  0  0  0
   27.7659  -19.6992  -15.0136 C   0  0  2  0  0  0  0  0  0  0  0  0
   28.2265  -20.8071  -15.9689 C   0  0  0  0  0  0  0  0  0  0  0  0
   26.5905  -19.0383  -15.6084 C   0  0  0  0  0  0  0  0  0  0  0  0
   25.3925  -19.8573  -15.8992 C   0  0  2  0  0  0  0  0  0  0  0  0
   24.3444  -19.1513  -16.6023 N   0  0  0  0  0  0  0  0  0  0  0  0
   24.8719  -20.6180  -14.7462 C   0  0  0  0  0  0  0  0  0  0  0  0
   25.4603  -21.6739  -14.3983 O   0  0  0  0  0  0  0  0  0  0  0  0
   21.2633  -22.2006   -6.9012 O   0  0  0  0  0  0  0  0  0  0  0  0
   21.7529  -21.6701   -8.0732 C   0  0  0  0  0  0  0  0  0  0  0  0
   23.1060  -21.6358   -8.3249 C   0  0  0  0  0  0  0  0  0  0  0  0
   23.5425  -21.0925   -9.5165 C   0  0  0  0  0  0  0  0  0  0  0  0
   22.6895  -20.5770  -10.4781 C   0  0  0  0  0  0  0  0  0  0  0  0
   23.2190  -20.0081  -11.7247 C   0  0  0  0  0  0  0  0  0  0  0  0
   23.1832  -20.9579  -12.9002 C   0  0  2  0  0  0  0  0  0  0  0  0
   23.7472  -20.2045  -14.0281 N   0  0  0  0  0  0  0  0  0  0  0  0
   21.8354  -21.4456  -13.1966 C   0  0  0  0  0  0  0  0  0  0  0  0
   21.0724  -20.7680  -13.9187 O   0  0  0  0  0  0  0  0  0  0  0  0
   21.3303  -20.6241  -10.1989 C   0  0  0  0  0  0  0  0  0  0  0  0
   20.8770  -21.1622   -9.0162 C   0  0  0  0  0  0  0  0  0  0  0  0
   21.4144  -22.6516  -12.6779 O   0  0  0  0  0  0  0  0  0  0  0  0
  2  1  1  1
  2  3  1  0
  4  6  1  0
  4  2  1  0
  4  5  1  1
  6  7  2  0
  9 11  1  0
  9  8  1  6
 10  9  1  0
 12 11  1  1
 12 14  1  0
 13 12  1  0
 13  6  1  0
 14 15  2  0
 16 17  1  0
 17 18  2  0
 18 19  1  0
 20 19  2  0
 20 21  1  0
 22 21  1  1
 22 24  1  0
 23 22  1  0
 23 14  1  0
 24 25  2  0
 24 28  1  0
 26 20  1  0
 27 17  1  0
 27 26  2  0
M  END
$$$$
