VLY.pdb
     RDKit          3D

 28 28  0  0  1  0  0  0  0  0999 V2000
   27.4523  -18.8355  -17.9106 C   0  0  0  0  0  0  0  0  0  0  0  0
   26.2953  -19.2797  -17.0297 C   0  0  2  0  0  0  0  0  0  0  0  0
   25.5708  -18.0347  -16.5809 C   0  0  0  0  0  0  0  0  0  0  0  0
   26.8451  -20.0582  -15.8432 C   0  0  2  0  0  0  0  0  0  0  0  0
   27.7006  -21.1206  -16.2619 N   0  0  0  0  0  0  0  0  0  0  0  0
   25.7548  -20.4885  -14.9492 C   0  0  0  0  0  0  0  0  0  0  0  0
   24.9709  -21.3847  -15.3551 O   0  0  0  0  0  0  0  0  0  0  0  0
   26.2839  -22.2456  -10.9442 C   0  0  0  0  0  0  0  0  0  0  0  0
   26.0443  -20.7909  -10.7970 C   0  0  2  0  0  0  0  0  0  0  0  0
   26.1435  -20.4200   -9.3122 C   0  0  0  0  0  0  0  0  0  0  0  0
   24.7810  -20.2445  -11.3242 C   0  0  0  0  0  0  0  0  0  0  0  0
   24.4794  -20.4257  -12.7617 C   0  0  2  0  0  0  0  0  0  0  0  0
   25.5206  -19.9625  -13.6521 N   0  0  0  0  0  0  0  0  0  0  0  0
   23.1442  -19.9512  -13.1754 C   0  0  0  0  0  0  0  0  0  0  0  0
   22.8543  -18.7373  -13.0182 O   0  0  0  0  0  0  0  0  0  0  0  0
   16.0728  -18.9601  -18.2163 O   0  0  0  0  0  0  0  0  0  0  0  0
   17.2466  -19.3302  -17.5999 C   0  0  0  0  0  0  0  0  0  0  0  0
   18.2486  -18.4133  -17.3747 C   0  0  0  0  0  0  0  0  0  0  0  0
   19.4052  -18.8386  -16.7525 C   0  0  0  0  0  0  0  0  0  0  0  0
   19.6143  -20.1440  -16.3401 C   0  0  0  0  0  0  0  0  0  0  0  0
   20.8712  -20.5332  -15.6869 C   0  0  0  0  0  0  0  0  0  0  0  0
   20.8661  -20.3580  -14.1854 C   0  0  2  0  0  0  0  0  0  0  0  0
   22.1912  -20.8052  -13.7358 N   0  0  0  0  0  0  0  0  0  0  0  0
   19.7925  -21.1054  -13.5291 C   0  0  0  0  0  0  0  0  0  0  0  0
   19.9502  -22.3160  -13.2601 O   0  0  0  0  0  0  0  0  0  0  0  0
   18.5880  -21.0479  -16.5793 C   0  0  0  0  0  0  0  0  0  0  0  0
   17.4279  -20.6418  -17.1983 C   0  0  0  0  0  0  0  0  0  0  0  0
   18.6117  -20.4693  -13.2100 O   0  0  0  0  0  0  0  0  0  0  0  0
  2  1  1  6
  2  3  1  0
  4  6  1  0
  4  2  1  0
  4  5  1  6
  6  7  2  0
  9 11  1  0
  9  8  1  1
 10  9  1  0
 12 11  1  1
 12 14  1  0
 13 12  1  0
 13  6  1  0
 14 15  2  0
 16 17  1  0
 17 18  2  0
 18 19  1  0
 20 19  2  0
 20 21  1  0
 22 21  1  6
 22 24  1  0
 23 22  1  0
 23 14  1  0
 24 25  2  0
 24 28  1  0
 26 20  1  0
 27 17  1  0
 27 26  2  0
M  END
$$$$
