VLY.pdb
     RDKit          3D

 28 28  0  0  1  0  0  0  0  0999 V2000
   33.1000  -11.3831  -22.7458 C   0  0  0  0  0  0  0  0  0  0  0  0
   31.8166  -12.1384  -22.4383 C   0  0  2  0  0  0  0  0  0  0  0  0
   30.7146  -11.1156  -22.3128 C   0  0  0  0  0  0  0  0  0  0  0  0
   31.9976  -12.9186  -21.1443 C   0  0  2  0  0  0  0  0  0  0  0  0
   33.0839  -13.8394  -21.2328 N   0  0  0  0  0  0  0  0  0  0  0  0
   30.7266  -13.5354  -20.7231 C   0  0  0  0  0  0  0  0  0  0  0  0
   30.3115  -14.5376  -21.3600 O   0  0  0  0  0  0  0  0  0  0  0  0
   26.5779  -13.6928  -15.9990 C   0  0  0  0  0  0  0  0  0  0  0  0
   26.9591  -13.9406  -17.4091 C   0  0  2  0  0  0  0  0  0  0  0  0
   26.8751  -15.4464  -17.6879 C   0  0  0  0  0  0  0  0  0  0  0  0
   28.2783  -13.4622  -17.8599 C   0  0  0  0  0  0  0  0  0  0  0  0
   28.6467  -13.6443  -19.2817 C   0  0  2  0  0  0  0  0  0  0  0  0
   29.9281  -13.0791  -19.6423 N   0  0  0  0  0  0  0  0  0  0  0  0
   27.5886  -13.2783  -20.2437 C   0  0  0  0  0  0  0  0  0  0  0  0
   27.4025  -12.0632  -20.5104 O   0  0  0  0  0  0  0  0  0  0  0  0
   24.7908  -20.2462  -22.1061 O   0  0  0  0  0  0  0  0  0  0  0  0
   25.0650  -18.9162  -22.3315 C   0  0  0  0  0  0  0  0  0  0  0  0
   24.0704  -18.0409  -22.7060 C   0  0  0  0  0  0  0  0  0  0  0  0
   24.4010  -16.7177  -22.9191 C   0  0  0  0  0  0  0  0  0  0  0  0
   25.6852  -16.2194  -22.7763 C   0  0  0  0  0  0  0  0  0  0  0  0
   25.9718  -14.7999  -23.0229 C   0  0  0  0  0  0  0  0  0  0  0  0
   25.7264  -13.9047  -21.8297 C   0  0  2  0  0  0  0  0  0  0  0  0
   26.7864  -14.2365  -20.8683 N   0  0  0  0  0  0  0  0  0  0  0  0
   24.3951  -14.0836  -21.2486 C   0  0  0  0  0  0  0  0  0  0  0  0
   23.3811  -13.7520  -21.9002 O   0  0  0  0  0  0  0  0  0  0  0  0
   26.6688  -17.1232  -22.3979 C   0  0  0  0  0  0  0  0  0  0  0  0
   26.3576  -18.4461  -22.1810 C   0  0  0  0  0  0  0  0  0  0  0  0
   24.2662  -14.6183  -19.9843 O   0  0  0  0  0  0  0  0  0  0  0  0
  2  1  1  1
  2  3  1  0
  4  6  1  0
  4  2  1  0
  4  5  1  6
  6  7  2  0
  9 11  1  0
  9  8  1  1
 10  9  1  0
 12 11  1  1
 12 14  1  0
 13 12  1  0
 13  6  1  0
 14 15  2  0
 16 17  1  0
 17 18  2  0
 18 19  1  0
 20 19  2  0
 20 21  1  0
 22 21  1  6
 22 24  1  0
 23 22  1  0
 23 14  1  0
 24 25  2  0
 24 28  1  0
 26 20  1  0
 27 17  1  0
 27 26  2  0
M  END
$$$$
