VLY.pdb
     RDKit          3D

 28 28  0  0  1  0  0  0  0  0999 V2000
   28.5907  -19.0975  -15.0737 C   0  0  0  0  0  0  0  0  0  0  0  0
   27.4490  -19.5402  -14.1721 C   0  0  2  0  0  0  0  0  0  0  0  0
   26.8202  -18.2932  -13.6014 C   0  0  0  0  0  0  0  0  0  0  0  0
   28.0031  -20.4340  -13.0720 C   0  0  2  0  0  0  0  0  0  0  0  0
   28.7287  -21.5395  -13.6079 N   0  0  0  0  0  0  0  0  0  0  0  0
   26.9397  -20.8211  -12.1272 C   0  0  0  0  0  0  0  0  0  0  0  0
   26.1170  -21.7026  -12.4856 O   0  0  0  0  0  0  0  0  0  0  0  0
   28.0278  -21.5066   -7.6419 C   0  0  0  0  0  0  0  0  0  0  0  0
   27.3782  -20.2382   -8.0474 C   0  0  2  0  0  0  0  0  0  0  0  0
   27.4600  -19.2448   -6.8819 C   0  0  0  0  0  0  0  0  0  0  0  0
   25.9780  -20.2972   -8.5041 C   0  0  0  0  0  0  0  0  0  0  0  0
   25.7114  -20.6361   -9.9199 C   0  0  2  0  0  0  0  0  0  0  0  0
   26.7728  -20.2686  -10.8307 N   0  0  0  0  0  0  0  0  0  0  0  0
   24.3856  -20.2156  -10.4145 C   0  0  0  0  0  0  0  0  0  0  0  0
   24.2465  -19.0501  -10.8665 O   0  0  0  0  0  0  0  0  0  0  0  0
   17.2275  -20.7518  -15.3099 O   0  0  0  0  0  0  0  0  0  0  0  0
   18.3942  -20.9086  -14.5964 C   0  0  0  0  0  0  0  0  0  0  0  0
   18.6662  -22.0834  -13.9320 C   0  0  0  0  0  0  0  0  0  0  0  0
   19.8513  -22.1867  -13.2317 C   0  0  0  0  0  0  0  0  0  0  0  0
   20.7869  -21.1681  -13.1601 C   0  0  0  0  0  0  0  0  0  0  0  0
   22.0278  -21.3405  -12.3931 C   0  0  0  0  0  0  0  0  0  0  0  0
   21.9870  -20.7334  -11.0093 C   0  0  2  0  0  0  0  0  0  0  0  0
   23.2797  -21.0690  -10.3975 N   0  0  0  0  0  0  0  0  0  0  0  0
   20.8659  -21.2234  -10.2059 C   0  0  0  0  0  0  0  0  0  0  0  0
   21.0273  -22.1983   -9.4402 O   0  0  0  0  0  0  0  0  0  0  0  0
   20.4876  -19.9947  -13.8391 C   0  0  0  0  0  0  0  0  0  0  0  0
   19.3110  -19.8738  -14.5425 C   0  0  0  0  0  0  0  0  0  0  0  0
   19.6367  -20.6060  -10.2977 O   0  0  0  0  0  0  0  0  0  0  0  0
  2  1  1  6
  2  3  1  0
  4  6  1  0
  4  2  1  0
  4  5  1  6
  6  7  2  0
  9 11  1  0
  9  8  1  1
 10  9  1  0
 12 11  1  1
 12 14  1  0
 13 12  1  0
 13  6  1  0
 14 15  2  0
 16 17  1  0
 17 18  2  0
 18 19  1  0
 20 19  2  0
 20 21  1  0
 22 21  1  6
 22 24  1  0
 23 22  1  0
 23 14  1  0
 24 25  2  0
 24 28  1  0
 26 20  1  0
 27 17  1  0
 27 26  2  0
M  END
$$$$
