VLY.pdb
     RDKit          3D

 28 28  0  0  1  0  0  0  0  0999 V2000
   30.5475  -23.1958  -16.2969 C   0  0  0  0  0  0  0  0  0  0  0  0
   29.7394  -24.4702  -16.4836 C   0  0  2  0  0  0  0  0  0  0  0  0
   30.6010  -25.4370  -17.2576 C   0  0  0  0  0  0  0  0  0  0  0  0
   28.4604  -24.1408  -17.2397 C   0  0  2  0  0  0  0  0  0  0  0  0
   28.7266  -23.7957  -18.5984 N   0  0  0  0  0  0  0  0  0  0  0  0
   27.6682  -23.1320  -16.5132 C   0  0  0  0  0  0  0  0  0  0  0  0
   27.3982  -23.3456  -15.3033 O   0  0  0  0  0  0  0  0  0  0  0  0
   27.9191  -17.3575  -16.5575 C   0  0  0  0  0  0  0  0  0  0  0  0
   27.6267  -18.7182  -16.0496 C   0  0  2  0  0  0  0  0  0  0  0  0
   28.9411  -19.5015  -15.9455 C   0  0  0  0  0  0  0  0  0  0  0  0
   26.6597  -19.5399  -16.7994 C   0  0  0  0  0  0  0  0  0  0  0  0
   26.4231  -20.9319  -16.3558 C   0  0  2  0  0  0  0  0  0  0  0  0
   27.1823  -21.9258  -17.0817 N   0  0  0  0  0  0  0  0  0  0  0  0
   25.0004  -21.3043  -16.2289 C   0  0  0  0  0  0  0  0  0  0  0  0
   24.4341  -21.8809  -17.1928 O   0  0  0  0  0  0  0  0  0  0  0  0
   17.3089  -22.7510  -11.9716 O   0  0  0  0  0  0  0  0  0  0  0  0
   18.6010  -22.4306  -12.3218 C   0  0  0  0  0  0  0  0  0  0  0  0
   19.0460  -21.1286  -12.2748 C   0  0  0  0  0  0  0  0  0  0  0  0
   20.3515  -20.8635  -12.6369 C   0  0  0  0  0  0  0  0  0  0  0  0
   21.2432  -21.8405  -13.0471 C   0  0  0  0  0  0  0  0  0  0  0  0
   22.6194  -21.4910  -13.4238 C   0  0  0  0  0  0  0  0  0  0  0  0
   22.8459  -21.3982  -14.9156 C   0  0  2  0  0  0  0  0  0  0  0  0
   24.2612  -21.0378  -15.0738 N   0  0  0  0  0  0  0  0  0  0  0  0
   21.9653  -20.4264  -15.5653 C   0  0  0  0  0  0  0  0  0  0  0  0
   20.9285  -20.8152  -16.1454 O   0  0  0  0  0  0  0  0  0  0  0  0
   20.7686  -23.1446  -13.0852 C   0  0  0  0  0  0  0  0  0  0  0  0
   19.4701  -23.4276  -12.7278 C   0  0  0  0  0  0  0  0  0  0  0  0
   22.2839  -19.0854  -15.5334 O   0  0  0  0  0  0  0  0  0  0  0  0
  2  1  1  6
  2  3  1  0
  4  6  1  0
  4  2  1  0
  4  5  1  6
  6  7  2  0
  9 11  1  0
  9  8  1  6
 10  9  1  0
 12 11  1  6
 12 14  1  0
 13 12  1  0
 13  6  1  0
 14 15  2  0
 16 17  1  0
 17 18  2  0
 18 19  1  0
 20 19  2  0
 20 21  1  0
 22 21  1  1
 22 24  1  0
 23 22  1  0
 23 14  1  0
 24 25  2  0
 24 28  1  0
 26 20  1  0
 27 17  1  0
 27 26  2  0
M  END
$$$$
