VLY.pdb
     RDKit          3D

 28 28  0  0  1  0  0  0  0  0999 V2000
   25.1244  -18.0173  -17.6350 C   0  0  0  0  0  0  0  0  0  0  0  0
   26.0754  -17.5299  -16.5533 C   0  0  2  0  0  0  0  0  0  0  0  0
   27.0773  -16.6173  -17.2163 C   0  0  0  0  0  0  0  0  0  0  0  0
   26.7583  -18.7308  -15.9147 C   0  0  2  0  0  0  0  0  0  0  0  0
   27.5497  -19.4497  -16.8595 N   0  0  0  0  0  0  0  0  0  0  0  0
   25.7801  -19.5683  -15.1971 C   0  0  0  0  0  0  0  0  0  0  0  0
   25.2113  -20.4944  -15.8305 O   0  0  0  0  0  0  0  0  0  0  0  0
   25.9151  -22.2780  -11.3272 C   0  0  0  0  0  0  0  0  0  0  0  0
   25.7108  -20.8309  -11.0837 C   0  0  2  0  0  0  0  0  0  0  0  0
   25.6732  -20.5835   -9.5706 C   0  0  0  0  0  0  0  0  0  0  0  0
   24.5258  -20.1923  -11.6838 C   0  0  0  0  0  0  0  0  0  0  0  0
   24.4045  -20.1749  -13.1587 C   0  0  2  0  0  0  0  0  0  0  0  0
   25.4284  -19.4068  -13.8317 N   0  0  0  0  0  0  0  0  0  0  0  0
   23.0532  -19.8587  -13.6618 C   0  0  0  0  0  0  0  0  0  0  0  0
   22.6430  -18.6713  -13.5990 O   0  0  0  0  0  0  0  0  0  0  0  0
   15.4753  -20.7658  -18.1378 O   0  0  0  0  0  0  0  0  0  0  0  0
   16.7364  -20.8937  -17.6010 C   0  0  0  0  0  0  0  0  0  0  0  0
   17.0947  -22.0189  -16.8933 C   0  0  0  0  0  0  0  0  0  0  0  0
   18.3726  -22.0950  -16.3766 C   0  0  0  0  0  0  0  0  0  0  0  0
   19.3193  -21.0961  -16.5318 C   0  0  0  0  0  0  0  0  0  0  0  0
   20.6618  -21.2370  -15.9524 C   0  0  0  0  0  0  0  0  0  0  0  0
   20.8228  -20.5783  -14.6013 C   0  0  2  0  0  0  0  0  0  0  0  0
   22.2141  -20.8344  -14.2056 N   0  0  0  0  0  0  0  0  0  0  0  0
   19.8764  -21.0836  -13.6057 C   0  0  0  0  0  0  0  0  0  0  0  0
   20.1254  -22.1431  -12.9907 O   0  0  0  0  0  0  0  0  0  0  0  0
   18.9318  -19.9727  -17.2496 C   0  0  0  0  0  0  0  0  0  0  0  0
   17.6620  -19.8796  -17.7720 C   0  0  0  0  0  0  0  0  0  0  0  0
   18.7143  -20.3871  -13.3506 O   0  0  0  0  0  0  0  0  0  0  0  0
  2  1  1  6
  2  3  1  0
  4  6  1  0
  4  2  1  0
  4  5  1  6
  6  7  2  0
  9 11  1  0
  9  8  1  1
 10  9  1  0
 12 11  1  1
 12 14  1  0
 13 12  1  0
 13  6  1  0
 14 15  2  0
 16 17  1  0
 17 18  2  0
 18 19  1  0
 20 19  2  0
 20 21  1  0
 22 21  1  6
 22 24  1  0
 23 22  1  0
 23 14  1  0
 24 25  2  0
 24 28  1  0
 26 20  1  0
 27 17  1  0
 27 26  2  0
M  END
$$$$
