VCY.pdb
     RDKit          3D

 26 26  0  0  1  0  0  0  0  0999 V2000
    5.8054  -18.1767   23.7954 C   0  0  0  0  0  0  0  0  0  0  0  0
    6.2801  -19.2203   22.8247 C   0  0  1  0  0  0  0  0  0  0  0  0
    5.3781  -20.4304   22.7952 C   0  0  0  0  0  0  0  0  0  0  0  0
    6.4653  -18.6490   21.4163 C   0  0  2  0  0  0  0  0  0  0  0  0
    6.9011  -19.7161   20.5225 N   0  0  0  0  0  0  0  0  0  0  0  0
    7.4863  -17.5899   21.4926 C   0  0  0  0  0  0  0  0  0  0  0  0
    8.6897  -17.9211   21.6474 O   0  0  0  0  0  0  0  0  0  0  0  0
    7.2251  -16.2084   21.4043 N   0  0  0  0  0  0  0  0  0  0  0  0
    8.2241  -15.1857   21.5021 C   0  0  1  0  0  0  0  0  0  0  0  0
    7.8202  -13.8829   20.8702 C   0  0  0  0  0  0  0  0  0  0  0  0
    7.6166  -14.0968   19.0835 S   0  0  0  0  0  0  0  0  0  0  0  0
    8.6621  -14.9389   22.8988 C   0  0  0  0  0  0  0  0  0  0  0  0
    8.0706  -14.0705   23.6294 O   0  0  0  0  0  0  0  0  0  0  0  0
    5.7092  -11.0951   26.7942 O   0  0  0  0  0  0  0  0  0  0  0  0
    6.4419  -12.2621   26.5331 C   0  0  0  0  0  0  0  0  0  0  0  0
    5.8684  -13.5152   26.5481 C   0  0  0  0  0  0  0  0  0  0  0  0
    6.6122  -14.6539   26.2870 C   0  0  0  0  0  0  0  0  0  0  0  0
    7.9556  -14.5402   26.0052 C   0  0  0  0  0  0  0  0  0  0  0  0
    8.8070  -15.7172   25.7253 C   0  0  0  0  0  0  0  0  0  0  0  0
   10.0541  -15.3830   24.9384 C   0  0  2  0  0  0  0  0  0  0  0  0
    9.7388  -15.6241   23.5223 N   0  0  0  0  0  0  0  0  0  0  0  0
   11.2380  -16.1597   25.3538 C   0  0  0  0  0  0  0  0  0  0  0  0
   11.8103  -16.0120   26.4596 O   0  0  0  0  0  0  0  0  0  0  0  0
    8.5247  -13.2875   25.9912 C   0  0  0  0  0  0  0  0  0  0  0  0
    7.7820  -12.1418   26.2526 C   0  0  0  0  0  0  0  0  0  0  0  0
   11.7516  -17.1048   24.4815 O   0  0  0  0  0  0  0  0  0  0  0  0
  2  1  1  1
  3  2  1  0
  4  2  1  0
  4  5  1  6
  6  4  1  0
  6  7  2  0
  8  6  1  0
  9  8  1  0
  9 10  1  1
 11 10  1  0
 12  9  1  0
 12 21  1  0
 13 12  2  0
 14 15  1  0
 15 25  2  0
 15 16  1  0
 16 17  2  0
 17 18  1  0
 18 19  1  0
 20 19  1  1
 20 22  1  0
 21 20  1  0
 22 23  2  0
 22 26  1  0
 24 18  2  0
 25 24  1  0
M  END
$$$$
