VCY.pdb
     RDKit          3D

 26 26  0  0  1  0  0  0  0  0999 V2000
    7.8647  -12.6436   21.1167 C   0  0  0  0  0  0  0  0  0  0  0  0
    7.6364  -13.1764   19.7307 C   0  0  1  0  0  0  0  0  0  0  0  0
    7.8459  -12.1241   18.6688 C   0  0  0  0  0  0  0  0  0  0  0  0
    8.4941  -14.4119   19.4448 C   0  0  2  0  0  0  0  0  0  0  0  0
    8.1840  -14.9088   18.1089 N   0  0  0  0  0  0  0  0  0  0  0  0
    8.1708  -15.4275   20.4616 C   0  0  0  0  0  0  0  0  0  0  0  0
    7.3272  -16.3169   20.1800 O   0  0  0  0  0  0  0  0  0  0  0  0
    8.7380  -15.4901   21.7495 N   0  0  0  0  0  0  0  0  0  0  0  0
    8.7956  -16.6744   22.5543 C   0  0  1  0  0  0  0  0  0  0  0  0
    9.4625  -17.8369   21.8734 C   0  0  0  0  0  0  0  0  0  0  0  0
    9.3138  -19.3237   22.8964 S   0  0  0  0  0  0  0  0  0  0  0  0
    9.4363  -16.4447   23.8736 C   0  0  0  0  0  0  0  0  0  0  0  0
   10.6142  -15.9511   23.9551 O   0  0  0  0  0  0  0  0  0  0  0  0
    6.1636  -10.9988   26.2670 O   0  0  0  0  0  0  0  0  0  0  0  0
    6.6964  -12.2696   26.5283 C   0  0  0  0  0  0  0  0  0  0  0  0
    5.9891  -13.4302   26.2995 C   0  0  0  0  0  0  0  0  0  0  0  0
    6.5360  -14.6745   26.5652 C   0  0  0  0  0  0  0  0  0  0  0  0
    7.8146  -14.7629   27.0695 C   0  0  0  0  0  0  0  0  0  0  0  0
    8.4534  -16.0602   27.3818 C   0  0  0  0  0  0  0  0  0  0  0  0
    9.5124  -16.4647   26.3812 C   0  0  2  0  0  0  0  0  0  0  0  0
    8.8160  -16.7425   25.1161 N   0  0  0  0  0  0  0  0  0  0  0  0
   10.3121  -17.6288   26.8087 C   0  0  0  0  0  0  0  0  0  0  0  0
   10.2565  -18.7501   26.2504 O   0  0  0  0  0  0  0  0  0  0  0  0
    8.5176  -13.6020   27.2968 C   0  0  0  0  0  0  0  0  0  0  0  0
    7.9728  -12.3510   27.0315 C   0  0  0  0  0  0  0  0  0  0  0  0
   11.1729  -17.4842   27.8839 O   0  0  0  0  0  0  0  0  0  0  0  0
  2  1  1  1
  3  2  1  0
  4  2  1  0
  4  5  1  6
  6  4  1  0
  6  7  2  0
  8  6  1  0
  9  8  1  0
  9 10  1  6
 11 10  1  0
 12  9  1  0
 12 21  1  0
 13 12  2  0
 14 15  1  0
 15 25  2  0
 15 16  1  0
 16 17  2  0
 17 18  1  0
 18 19  1  0
 20 19  1  1
 20 22  1  0
 21 20  1  0
 22 23  2  0
 22 26  1  0
 24 18  2  0
 25 24  1  0
M  END
$$$$
