VCY.pdb
     RDKit          3D

 26 26  0  0  1  0  0  0  0  0999 V2000
    8.8441  -12.8085   21.2684 C   0  0  0  0  0  0  0  0  0  0  0  0
    7.9015  -13.3109   20.2120 C   0  0  1  0  0  0  0  0  0  0  0  0
    7.7130  -12.3179   19.0908 C   0  0  0  0  0  0  0  0  0  0  0  0
    8.3330  -14.6729   19.6618 C   0  0  2  0  0  0  0  0  0  0  0  0
    7.3822  -15.0973   18.6402 N   0  0  0  0  0  0  0  0  0  0  0  0
    8.3452  -15.6267   20.7842 C   0  0  0  0  0  0  0  0  0  0  0  0
    7.2486  -16.0687   21.2132 O   0  0  0  0  0  0  0  0  0  0  0  0
    9.5044  -16.0972   21.4317 N   0  0  0  0  0  0  0  0  0  0  0  0
    9.5110  -17.0931   22.4621 C   0  0  1  0  0  0  0  0  0  0  0  0
   10.3739  -18.2833   22.1479 C   0  0  0  0  0  0  0  0  0  0  0  0
    9.5100  -19.3917   21.0058 S   0  0  0  0  0  0  0  0  0  0  0  0
    9.8914  -16.5476   23.7893 C   0  0  0  0  0  0  0  0  0  0  0  0
   10.8976  -15.7670   23.9150 O   0  0  0  0  0  0  0  0  0  0  0  0
    5.8145  -11.1889   25.2148 O   0  0  0  0  0  0  0  0  0  0  0  0
    6.4126  -12.3795   25.6526 C   0  0  0  0  0  0  0  0  0  0  0  0
    5.7862  -13.6031   25.5522 C   0  0  0  0  0  0  0  0  0  0  0  0
    6.3967  -14.7660   25.9915 C   0  0  0  0  0  0  0  0  0  0  0  0
    7.6576  -14.7072   26.5422 C   0  0  0  0  0  0  0  0  0  0  0  0
    8.3611  -15.9109   27.0373 C   0  0  0  0  0  0  0  0  0  0  0  0
    9.6196  -16.2320   26.2633 C   0  0  2  0  0  0  0  0  0  0  0  0
    9.1928  -16.8355   24.9920 N   0  0  0  0  0  0  0  0  0  0  0  0
   10.5434  -17.1266   26.9870 C   0  0  0  0  0  0  0  0  0  0  0  0
   11.1285  -16.8063   28.0486 O   0  0  0  0  0  0  0  0  0  0  0  0
    8.2797  -13.4838   26.6411 C   0  0  0  0  0  0  0  0  0  0  0  0
    7.6710  -12.3140   26.2014 C   0  0  0  0  0  0  0  0  0  0  0  0
   10.7830  -18.3900   26.4729 O   0  0  0  0  0  0  0  0  0  0  0  0
  2  1  1  1
  3  2  1  0
  4  2  1  0
  4  5  1  6
  6  4  1  0
  6  7  2  0
  8  6  1  0
  9  8  1  0
  9 10  1  6
 11 10  1  0
 12  9  1  0
 12 21  1  0
 13 12  2  0
 14 15  1  0
 15 25  2  0
 15 16  1  0
 16 17  2  0
 17 18  1  0
 18 19  1  0
 20 19  1  1
 20 22  1  0
 21 20  1  0
 22 23  2  0
 22 26  1  0
 24 18  2  0
 25 24  1  0
M  END
$$$$
