VCY.pdb
     RDKit          3D

 26 26  0  0  1  0  0  0  0  0999 V2000
    8.6608  -12.8636   20.2297 C   0  0  0  0  0  0  0  0  0  0  0  0
    7.9191  -13.5299   19.1060 C   0  0  1  0  0  0  0  0  0  0  0  0
    7.9125  -12.6959   17.8477 C   0  0  0  0  0  0  0  0  0  0  0  0
    8.4555  -14.9353   18.8210 C   0  0  2  0  0  0  0  0  0  0  0  0
    7.7196  -15.5080   17.6993 N   0  0  0  0  0  0  0  0  0  0  0  0
    8.2587  -15.7453   20.0354 C   0  0  0  0  0  0  0  0  0  0  0  0
    7.0867  -16.0518   20.3737 O   0  0  0  0  0  0  0  0  0  0  0  0
    9.2925  -16.2171   20.8679 N   0  0  0  0  0  0  0  0  0  0  0  0
    9.0861  -16.9358   22.0904 C   0  0  1  0  0  0  0  0  0  0  0  0
    9.3225  -18.4154   21.9698 C   0  0  0  0  0  0  0  0  0  0  0  0
   10.8586  -18.7264   21.0626 S   0  0  0  0  0  0  0  0  0  0  0  0
    9.8905  -16.4002   23.2172 C   0  0  0  0  0  0  0  0  0  0  0  0
   11.1344  -16.1378   23.0702 O   0  0  0  0  0  0  0  0  0  0  0  0
    4.8593  -12.5133   26.8507 O   0  0  0  0  0  0  0  0  0  0  0  0
    6.1755  -12.9389   26.6193 C   0  0  0  0  0  0  0  0  0  0  0  0
    7.1218  -12.9959   27.6198 C   0  0  0  0  0  0  0  0  0  0  0  0
    8.4160  -13.4197   27.3675 C   0  0  0  0  0  0  0  0  0  0  0  0
    8.7734  -13.7942   26.0912 C   0  0  0  0  0  0  0  0  0  0  0  0
   10.1404  -14.2486   25.7543 C   0  0  0  0  0  0  0  0  0  0  0  0
   10.2567  -15.7494   25.6124 C   0  0  2  0  0  0  0  0  0  0  0  0
    9.3645  -16.1412   24.5109 N   0  0  0  0  0  0  0  0  0  0  0  0
    9.9230  -16.4850   26.8473 C   0  0  0  0  0  0  0  0  0  0  0  0
   10.5196  -16.3158   27.9370 O   0  0  0  0  0  0  0  0  0  0  0  0
    7.8261  -13.7358   25.0950 C   0  0  0  0  0  0  0  0  0  0  0  0
    6.5259  -13.3113   25.3436 C   0  0  0  0  0  0  0  0  0  0  0  0
    8.8971  -17.4145   26.8097 O   0  0  0  0  0  0  0  0  0  0  0  0
  2  1  1  1
  3  2  1  0
  4  2  1  0
  4  5  1  6
  6  4  1  0
  6  7  2  0
  8  6  1  0
  9  8  1  0
  9 10  1  6
 11 10  1  0
 12  9  1  0
 12 21  1  0
 13 12  2  0
 14 15  1  0
 15 25  2  0
 15 16  1  0
 16 17  2  0
 17 18  1  0
 18 19  1  0
 20 19  1  1
 20 22  1  0
 21 20  1  0
 22 23  2  0
 22 26  1  0
 24 18  2  0
 25 24  1  0
M  END
$$$$
