VCY.pdb
     RDKit          3D

 26 26  0  0  1  0  0  0  0  0999 V2000
    7.8885  -12.0963   18.9184 C   0  0  0  0  0  0  0  0  0  0  0  0
    8.2151  -13.2325   19.8453 C   0  0  1  0  0  0  0  0  0  0  0  0
    7.2363  -13.3402   20.9896 C   0  0  0  0  0  0  0  0  0  0  0  0
    8.3247  -14.5652   19.0997 C   0  0  2  0  0  0  0  0  0  0  0  0
    7.0646  -14.8338   18.4158 N   0  0  0  0  0  0  0  0  0  0  0  0
    8.6061  -15.6141   20.0948 C   0  0  0  0  0  0  0  0  0  0  0  0
    7.6430  -16.1291   20.7186 O   0  0  0  0  0  0  0  0  0  0  0  0
    9.8888  -16.1012   20.4141 N   0  0  0  0  0  0  0  0  0  0  0  0
   10.1522  -17.1116   21.3955 C   0  0  1  0  0  0  0  0  0  0  0  0
   10.9367  -18.2795   20.8660 C   0  0  0  0  0  0  0  0  0  0  0  0
   10.2431  -18.8274   19.2855 S   0  0  0  0  0  0  0  0  0  0  0  0
   10.8236  -16.5780   22.6071 C   0  0  0  0  0  0  0  0  0  0  0  0
   11.0006  -15.3198   22.7600 O   0  0  0  0  0  0  0  0  0  0  0  0
   10.2165  -14.1123   30.6783 O   0  0  0  0  0  0  0  0  0  0  0  0
   10.2010  -14.6184   29.3704 C   0  0  0  0  0  0  0  0  0  0  0  0
   10.1884  -13.8013   28.2605 C   0  0  0  0  0  0  0  0  0  0  0  0
   10.1733  -14.3239   26.9781 C   0  0  0  0  0  0  0  0  0  0  0  0
   10.1706  -15.6895   26.7991 C   0  0  0  0  0  0  0  0  0  0  0  0
   10.1469  -16.3109   25.4567 C   0  0  0  0  0  0  0  0  0  0  0  0
   11.4953  -16.8302   25.0113 C   0  0  2  0  0  0  0  0  0  0  0  0
   11.3093  -17.3920   23.6650 N   0  0  0  0  0  0  0  0  0  0  0  0
   12.0705  -17.8349   25.9262 C   0  0  0  0  0  0  0  0  0  0  0  0
   11.6041  -18.9900   26.0683 O   0  0  0  0  0  0  0  0  0  0  0  0
   10.1830  -16.5021   27.9095 C   0  0  0  0  0  0  0  0  0  0  0  0
   10.1983  -15.9820   29.1985 C   0  0  0  0  0  0  0  0  0  0  0  0
   13.1858  -17.4921   26.6722 O   0  0  0  0  0  0  0  0  0  0  0  0
  2  1  1  6
  3  2  1  0
  4  2  1  0
  4  5  1  1
  6  4  1  0
  6  7  2  0
  8  6  1  0
  9  8  1  0
  9 10  1  6
 11 10  1  0
 12  9  1  0
 12 21  1  0
 13 12  2  0
 14 15  1  0
 15 25  2  0
 15 16  1  0
 16 17  2  0
 17 18  1  0
 18 19  1  0
 20 19  1  1
 20 22  1  0
 21 20  1  0
 22 23  2  0
 22 26  1  0
 24 18  2  0
 25 24  1  0
M  END
$$$$
