VCY.pdb
     RDKit          3D

 26 26  0  0  1  0  0  0  0  0999 V2000
    6.4364  -18.0235   22.5343 C   0  0  0  0  0  0  0  0  0  0  0  0
    6.6911  -17.7202   21.0852 C   0  0  1  0  0  0  0  0  0  0  0  0
    6.0061  -18.7004   20.1639 C   0  0  0  0  0  0  0  0  0  0  0  0
    6.3081  -16.2819   20.7263 C   0  0  2  0  0  0  0  0  0  0  0  0
    6.5547  -16.0634   19.3053 N   0  0  0  0  0  0  0  0  0  0  0  0
    7.1411  -15.3796   21.5398 C   0  0  0  0  0  0  0  0  0  0  0  0
    8.3619  -15.2672   21.2587 O   0  0  0  0  0  0  0  0  0  0  0  0
    6.6779  -14.6148   22.6283 N   0  0  0  0  0  0  0  0  0  0  0  0
    7.5145  -13.8132   23.4715 C   0  0  1  0  0  0  0  0  0  0  0  0
    6.7568  -12.8196   24.3071 C   0  0  0  0  0  0  0  0  0  0  0  0
    6.0074  -13.6501   25.7311 S   0  0  0  0  0  0  0  0  0  0  0  0
    8.3941  -14.6242   24.3502 C   0  0  0  0  0  0  0  0  0  0  0  0
    7.9186  -15.5838   25.0507 O   0  0  0  0  0  0  0  0  0  0  0  0
   11.6291  -16.8011   31.7014 O   0  0  0  0  0  0  0  0  0  0  0  0
   11.1003  -16.3484   30.4839 C   0  0  0  0  0  0  0  0  0  0  0  0
   10.6118  -17.2080   29.5237 C   0  0  0  0  0  0  0  0  0  0  0  0
   10.0940  -16.7377   28.3283 C   0  0  0  0  0  0  0  0  0  0  0  0
   10.0629  -15.3823   28.0859 C   0  0  0  0  0  0  0  0  0  0  0  0
    9.5304  -14.8163   26.8270 C   0  0  0  0  0  0  0  0  0  0  0  0
   10.5079  -14.8872   25.6757 C   0  0  2  0  0  0  0  0  0  0  0  0
    9.7922  -14.4115   24.4823 N   0  0  0  0  0  0  0  0  0  0  0  0
   11.0604  -16.2375   25.4550 C   0  0  0  0  0  0  0  0  0  0  0  0
   12.1554  -16.6239   25.9281 O   0  0  0  0  0  0  0  0  0  0  0  0
   10.5516  -14.5272   29.0468 C   0  0  0  0  0  0  0  0  0  0  0  0
   11.0721  -14.9946   30.2481 C   0  0  0  0  0  0  0  0  0  0  0  0
   10.3372  -17.1330   24.6848 O   0  0  0  0  0  0  0  0  0  0  0  0
  2  1  1  1
  3  2  1  0
  4  2  1  0
  4  5  1  6
  6  4  1  0
  6  7  2  0
  8  6  1  0
  9  8  1  0
  9 10  1  1
 11 10  1  0
 12  9  1  0
 12 21  1  0
 13 12  2  0
 14 15  1  0
 15 25  2  0
 15 16  1  0
 16 17  2  0
 17 18  1  0
 18 19  1  0
 20 19  1  1
 20 22  1  0
 21 20  1  0
 22 23  2  0
 22 26  1  0
 24 18  2  0
 25 24  1  0
M  END
$$$$
