VCY.pdb
     RDKit          3D

 26 26  0  0  1  0  0  0  0  0999 V2000
    8.9324  -12.9663   20.3817 C   0  0  0  0  0  0  0  0  0  0  0  0
    7.5722  -13.4992   20.0315 C   0  0  1  0  0  0  0  0  0  0  0  0
    6.9837  -12.8198   18.8186 C   0  0  0  0  0  0  0  0  0  0  0  0
    7.5835  -15.0191   19.8482 C   0  0  2  0  0  0  0  0  0  0  0  0
    6.2345  -15.4704   19.5251 N   0  0  0  0  0  0  0  0  0  0  0  0
    8.0400  -15.6201   21.1132 C   0  0  0  0  0  0  0  0  0  0  0  0
    7.3119  -15.5080   22.1326 O   0  0  0  0  0  0  0  0  0  0  0  0
    9.2476  -16.3255   21.2828 N   0  0  0  0  0  0  0  0  0  0  0  0
    9.6806  -16.9080   22.5184 C   0  0  1  0  0  0  0  0  0  0  0  0
   10.1011  -18.3459   22.3950 C   0  0  0  0  0  0  0  0  0  0  0  0
    8.6715  -19.3769   21.9798 S   0  0  0  0  0  0  0  0  0  0  0  0
   10.7653  -16.1336   23.1723 C   0  0  0  0  0  0  0  0  0  0  0  0
   11.7294  -15.6455   22.4868 O   0  0  0  0  0  0  0  0  0  0  0  0
    9.7047  -17.3240   30.7490 O   0  0  0  0  0  0  0  0  0  0  0  0
   10.0959  -16.5807   29.6259 C   0  0  0  0  0  0  0  0  0  0  0  0
    9.2316  -16.2909   28.5922 C   0  0  0  0  0  0  0  0  0  0  0  0
    9.6405  -15.5548   27.4927 C   0  0  0  0  0  0  0  0  0  0  0  0
   10.9381  -15.0983   27.4230 C   0  0  0  0  0  0  0  0  0  0  0  0
   11.4396  -14.3139   26.2732 C   0  0  0  0  0  0  0  0  0  0  0  0
   11.9747  -15.1714   25.1487 C   0  0  2  0  0  0  0  0  0  0  0  0
   10.8221  -15.8765   24.5680 N   0  0  0  0  0  0  0  0  0  0  0  0
   13.0135  -16.1265   25.5800 C   0  0  0  0  0  0  0  0  0  0  0  0
   12.8093  -17.3557   25.7200 O   0  0  0  0  0  0  0  0  0  0  0  0
   11.7981  -15.3897   28.4568 C   0  0  0  0  0  0  0  0  0  0  0  0
   11.3921  -16.1281   29.5624 C   0  0  0  0  0  0  0  0  0  0  0  0
   14.2855  -15.6483   25.8468 O   0  0  0  0  0  0  0  0  0  0  0  0
  2  1  1  6
  3  2  1  0
  4  2  1  0
  4  5  1  1
  6  4  1  0
  6  7  2  0
  8  6  1  0
  9  8  1  0
  9 10  1  6
 11 10  1  0
 12  9  1  0
 12 21  1  0
 13 12  2  0
 14 15  1  0
 15 25  2  0
 15 16  1  0
 16 17  2  0
 17 18  1  0
 18 19  1  0
 20 19  1  1
 20 22  1  0
 21 20  1  0
 22 23  2  0
 22 26  1  0
 24 18  2  0
 25 24  1  0
M  END
$$$$
