VCY.pdb
     RDKit          3D

 26 26  0  0  1  0  0  0  0  0999 V2000
    8.5823  -16.0413   19.8917 C   0  0  0  0  0  0  0  0  0  0  0  0
    8.1901  -14.8943   19.0043 C   0  0  1  0  0  0  0  0  0  0  0  0
    7.7961  -15.3478   17.6194 C   0  0  0  0  0  0  0  0  0  0  0  0
    7.0837  -14.0403   19.6293 C   0  0  2  0  0  0  0  0  0  0  0  0
    6.7036  -12.9908   18.6903 N   0  0  0  0  0  0  0  0  0  0  0  0
    7.6168  -13.4541   20.8711 C   0  0  0  0  0  0  0  0  0  0  0  0
    7.5604  -12.2069   21.0230 O   0  0  0  0  0  0  0  0  0  0  0  0
    8.1961  -14.1862   21.9260 N   0  0  0  0  0  0  0  0  0  0  0  0
    8.1406  -13.8034   23.3059 C   0  0  1  0  0  0  0  0  0  0  0  0
    6.7576  -13.4576   23.7828 C   0  0  0  0  0  0  0  0  0  0  0  0
    6.8004  -13.0078   25.5363 S   0  0  0  0  0  0  0  0  0  0  0  0
    8.7320  -14.8207   24.2109 C   0  0  0  0  0  0  0  0  0  0  0  0
    8.1025  -15.9001   24.4869 O   0  0  0  0  0  0  0  0  0  0  0  0
   11.6928  -17.3993   31.9824 O   0  0  0  0  0  0  0  0  0  0  0  0
   11.4801  -16.7530   30.7560 C   0  0  0  0  0  0  0  0  0  0  0  0
   12.0937  -17.1573   29.5899 C   0  0  0  0  0  0  0  0  0  0  0  0
   11.8683  -16.5034   28.3901 C   0  0  0  0  0  0  0  0  0  0  0  0
   11.0134  -15.4242   28.3526 C   0  0  0  0  0  0  0  0  0  0  0  0
   10.7361  -14.6782   27.1055 C   0  0  0  0  0  0  0  0  0  0  0  0
   10.3931  -15.5715   25.9348 C   0  0  2  0  0  0  0  0  0  0  0  0
   10.0053  -14.6867   24.8260 N   0  0  0  0  0  0  0  0  0  0  0  0
    9.3240  -16.5447   26.2304 C   0  0  0  0  0  0  0  0  0  0  0  0
    9.5259  -17.7740   26.3719 O   0  0  0  0  0  0  0  0  0  0  0  0
   10.4028  -15.0234   29.5187 C   0  0  0  0  0  0  0  0  0  0  0  0
   10.6259  -15.6767   30.7253 C   0  0  0  0  0  0  0  0  0  0  0  0
    8.0244  -16.0842   26.3603 O   0  0  0  0  0  0  0  0  0  0  0  0
  2  1  1  1
  3  2  1  0
  4  2  1  0
  4  5  1  6
  6  4  1  0
  6  7  2  0
  8  6  1  0
  9  8  1  0
  9 10  1  1
 11 10  1  0
 12  9  1  0
 12 21  1  0
 13 12  2  0
 14 15  1  0
 15 25  2  0
 15 16  1  0
 16 17  2  0
 17 18  1  0
 18 19  1  0
 20 19  1  1
 20 22  1  0
 21 20  1  0
 22 23  2  0
 22 26  1  0
 24 18  2  0
 25 24  1  0
M  END
$$$$
