VCY.pdb
     RDKit          3D

 26 26  0  0  1  0  0  0  0  0999 V2000
    8.1603  -12.8107   20.6825 C   0  0  0  0  0  0  0  0  0  0  0  0
    7.8880  -13.2863   19.2837 C   0  0  1  0  0  0  0  0  0  0  0  0
    8.0928  -12.1989   18.2569 C   0  0  0  0  0  0  0  0  0  0  0  0
    8.7135  -14.5264   18.9306 C   0  0  2  0  0  0  0  0  0  0  0  0
    8.3528  -14.9734   17.5898 N   0  0  0  0  0  0  0  0  0  0  0  0
    8.4034  -15.5693   19.9236 C   0  0  0  0  0  0  0  0  0  0  0  0
    7.5533  -16.4488   19.6305 O   0  0  0  0  0  0  0  0  0  0  0  0
    8.9904  -15.6691   21.2003 N   0  0  0  0  0  0  0  0  0  0  0  0
    8.7820  -16.7594   22.1066 C   0  0  1  0  0  0  0  0  0  0  0  0
    9.3990  -18.0520   21.6503 C   0  0  0  0  0  0  0  0  0  0  0  0
   11.1681  -17.8197   21.3409 S   0  0  0  0  0  0  0  0  0  0  0  0
    9.2382  -16.4577   23.4866 C   0  0  0  0  0  0  0  0  0  0  0  0
   10.3776  -15.9149   23.6981 O   0  0  0  0  0  0  0  0  0  0  0  0
    6.1391  -10.5845   26.1583 O   0  0  0  0  0  0  0  0  0  0  0  0
    6.5828  -11.9041   26.3277 C   0  0  0  0  0  0  0  0  0  0  0  0
    7.8981  -12.2138   26.5992 C   0  0  0  0  0  0  0  0  0  0  0  0
    8.3132  -13.5249   26.7626 C   0  0  0  0  0  0  0  0  0  0  0  0
    7.3976  -14.5480   26.6531 C   0  0  0  0  0  0  0  0  0  0  0  0
    7.7778  -15.9692   26.8090 C   0  0  0  0  0  0  0  0  0  0  0  0
    8.9793  -16.3640   25.9803 C   0  0  2  0  0  0  0  0  0  0  0  0
    8.4732  -16.7359   24.6506 N   0  0  0  0  0  0  0  0  0  0  0  0
    9.7658  -17.4640   26.5709 C   0  0  0  0  0  0  0  0  0  0  0  0
    9.6877  -18.6552   26.1872 O   0  0  0  0  0  0  0  0  0  0  0  0
    6.0855  -14.2350   26.3819 C   0  0  0  0  0  0  0  0  0  0  0  0
    5.6642  -12.9205   26.2172 C   0  0  0  0  0  0  0  0  0  0  0  0
   10.6398  -17.1743   27.6053 O   0  0  0  0  0  0  0  0  0  0  0  0
  2  1  1  1
  3  2  1  0
  4  2  1  0
  4  5  1  6
  6  4  1  0
  6  7  2  0
  8  6  1  0
  9  8  1  0
  9 10  1  6
 11 10  1  0
 12  9  1  0
 12 21  1  0
 13 12  2  0
 14 15  1  0
 15 25  2  0
 15 16  1  0
 16 17  2  0
 17 18  1  0
 18 19  1  0
 20 19  1  1
 20 22  1  0
 21 20  1  0
 22 23  2  0
 22 26  1  0
 24 18  2  0
 25 24  1  0
M  END
$$$$
