SPD.pdb
     RDKit          3D

 22 22  0  0  1  0  0  0  0  0999 V2000
    6.5029  -18.6827   18.1642 O   0  0  0  0  0  0  0  0  0  0  0  0
    7.4685  -18.2392   19.0391 C   0  0  0  0  0  0  0  0  0  0  0  0
    8.0708  -16.9442   18.4728 C   0  0  2  0  0  0  0  0  0  0  0  0
    8.9023  -17.3377   17.3750 N   0  0  0  0  0  0  0  0  0  0  0  0
    8.7881  -16.2842   19.5792 C   0  0  0  0  0  0  0  0  0  0  0  0
    9.9969  -16.6763   19.7543 O   0  0  0  0  0  0  0  0  0  0  0  0
    8.2397  -15.2844   20.4249 N   0  0  0  0  0  0  0  0  0  0  0  0
    6.9828  -14.6143   20.1998 C   0  0  0  0  0  0  0  0  0  0  0  0
    7.1070  -13.3137   21.0223 C   0  0  0  0  0  0  0  0  0  0  0  0
    7.8433  -13.8534   22.2152 C   0  0  0  0  0  0  0  0  0  0  0  0
    8.8579  -14.7660   21.5860 C   0  0  1  0  0  0  0  0  0  0  0  0
    9.2970  -15.8120   22.5525 C   0  0  0  0  0  0  0  0  0  0  0  0
    8.5397  -16.7995   22.7036 O   0  0  0  0  0  0  0  0  0  0  0  0
   10.4921  -15.7781   23.3040 N   0  0  0  0  0  0  0  0  0  0  0  0
   10.8525  -16.8380   24.2451 C   0  0  1  0  0  0  0  0  0  0  0  0
   12.3498  -16.8010   24.5211 C   0  0  0  0  0  0  0  0  0  0  0  0
   13.1270  -16.5829   23.2949 C   0  0  0  0  0  0  0  0  0  0  0  0
   12.8638  -17.2214   22.2529 O   0  0  0  0  0  0  0  0  0  0  0  0
   10.1270  -16.7183   25.5169 C   0  0  0  0  0  0  0  0  0  0  0  0
   10.2255  -17.6593   26.3423 O   0  0  0  0  0  0  0  0  0  0  0  0
   14.1688  -15.6563   23.2881 O   0  0  0  0  0  0  0  0  0  0  0  0
    9.3490  -15.6179   25.8319 O   0  0  0  0  0  0  0  0  0  0  0  0
  1  2  1  0
  3  2  1  0
  3  4  1  6
  3  5  1  0
  5  6  2  0
  7  5  1  0
  7 11  1  0
  8  7  1  0
  9  8  1  0
  9 10  1  0
 10 11  1  0
 11 12  1  1
 12 13  2  0
 12 14  1  0
 14 15  1  0
 15 16  1  1
 17 16  1  0
 17 18  2  0
 19 15  1  0
 19 22  1  0
 20 19  2  0
 21 17  1  0
M  END
$$$$
