SPD.pdb
     RDKit          3D

 22 22  0  0  1  0  0  0  0  0999 V2000
    8.7871  -17.5505   16.1719 O   0  0  0  0  0  0  0  0  0  0  0  0
    7.8373  -16.5550   16.2069 C   0  0  0  0  0  0  0  0  0  0  0  0
    8.4976  -15.2453   15.7495 C   0  0  2  0  0  0  0  0  0  0  0  0
    9.3017  -15.5799   14.6125 N   0  0  0  0  0  0  0  0  0  0  0  0
    9.2535  -14.7200   16.9015 C   0  0  0  0  0  0  0  0  0  0  0  0
   10.5043  -15.0051   16.9070 O   0  0  0  0  0  0  0  0  0  0  0  0
    8.6989  -13.9518   17.9587 N   0  0  0  0  0  0  0  0  0  0  0  0
    7.3460  -13.4540   17.9928 C   0  0  0  0  0  0  0  0  0  0  0  0
    7.4091  -12.2863   19.0008 C   0  0  0  0  0  0  0  0  0  0  0  0
    8.3657  -12.8793   19.9956 C   0  0  0  0  0  0  0  0  0  0  0  0
    9.3961  -13.5239   19.1119 C   0  0  1  0  0  0  0  0  0  0  0  0
   10.0967  -14.6231   19.8344 C   0  0  0  0  0  0  0  0  0  0  0  0
    9.5718  -15.7604   19.7846 O   0  0  0  0  0  0  0  0  0  0  0  0
   11.2980  -14.4842   20.5636 N   0  0  0  0  0  0  0  0  0  0  0  0
   11.9011  -15.5986   21.2937 C   0  0  1  0  0  0  0  0  0  0  0  0
   13.4078  -15.3997   21.3940 C   0  0  0  0  0  0  0  0  0  0  0  0
   14.0166  -15.1596   20.0799 C   0  0  0  0  0  0  0  0  0  0  0  0
   13.9979  -16.0460   19.1986 O   0  0  0  0  0  0  0  0  0  0  0  0
   11.3446  -15.7393   22.6460 C   0  0  0  0  0  0  0  0  0  0  0  0
   10.5785  -14.8369   23.0646 O   0  0  0  0  0  0  0  0  0  0  0  0
   14.6224  -13.9335   19.8082 O   0  0  0  0  0  0  0  0  0  0  0  0
   11.6322  -16.8185   23.4632 O   0  0  0  0  0  0  0  0  0  0  0  0
  1  2  1  0
  3  2  1  0
  3  4  1  6
  3  5  1  0
  5  6  2  0
  7  5  1  0
  7 11  1  0
  8  7  1  0
  9  8  1  0
  9 10  1  0
 10 11  1  0
 11 12  1  1
 12 13  2  0
 12 14  1  0
 14 15  1  0
 15 16  1  1
 17 16  1  0
 17 18  2  0
 19 15  1  0
 19 22  1  0
 20 19  2  0
 21 17  1  0
M  END
$$$$
