SPD.pdb
     RDKit          3D

 22 22  0  0  1  0  0  0  0  0999 V2000
    6.5204  -13.7032   26.6692 O   0  0  0  0  0  0  0  0  0  0  0  0
    7.3951  -14.5163   25.9851 C   0  0  0  0  0  0  0  0  0  0  0  0
    6.5735  -15.4857   25.1214 C   0  0  2  0  0  0  0  0  0  0  0  0
    6.1160  -16.5167   26.0041 N   0  0  0  0  0  0  0  0  0  0  0  0
    7.4595  -15.9537   24.0396 C   0  0  0  0  0  0  0  0  0  0  0  0
    7.9933  -17.1041   24.2330 O   0  0  0  0  0  0  0  0  0  0  0  0
    7.7434  -15.2338   22.8494 N   0  0  0  0  0  0  0  0  0  0  0  0
    7.0915  -14.0105   22.4518 C   0  0  0  0  0  0  0  0  0  0  0  0
    7.3284  -13.9461   20.9276 C   0  0  0  0  0  0  0  0  0  0  0  0
    8.7288  -14.4872   20.8792 C   0  0  0  0  0  0  0  0  0  0  0  0
    8.6717  -15.6262   21.8578 C   0  0  1  0  0  0  0  0  0  0  0  0
   10.0294  -15.9314   22.3911 C   0  0  0  0  0  0  0  0  0  0  0  0
   10.4216  -15.2518   23.3688 O   0  0  0  0  0  0  0  0  0  0  0  0
   10.9010  -16.9209   21.8856 N   0  0  0  0  0  0  0  0  0  0  0  0
   12.2256  -17.1600   22.4574 C   0  0  1  0  0  0  0  0  0  0  0  0
   12.2208  -18.4571   23.2556 C   0  0  0  0  0  0  0  0  0  0  0  0
   12.8720  -18.2983   24.5617 C   0  0  0  0  0  0  0  0  0  0  0  0
   13.4735  -17.2406   24.8482 O   0  0  0  0  0  0  0  0  0  0  0  0
   13.2680  -17.2357   21.4249 C   0  0  0  0  0  0  0  0  0  0  0  0
   14.2567  -16.4689   21.5285 O   0  0  0  0  0  0  0  0  0  0  0  0
   12.8216  -19.3340   25.4938 O   0  0  0  0  0  0  0  0  0  0  0  0
   13.1979  -18.1121   20.3561 O   0  0  0  0  0  0  0  0  0  0  0  0
  1  2  1  0
  3  2  1  0
  3  4  1  1
  3  5  1  0
  5  6  2  0
  7  5  1  0
  7 11  1  0
  8  7  1  0
  9  8  1  0
  9 10  1  0
 10 11  1  0
 11 12  1  1
 12 13  2  0
 12 14  1  0
 14 15  1  0
 15 16  1  6
 17 16  1  0
 17 18  2  0
 19 15  1  0
 19 22  1  0
 20 19  2  0
 21 17  1  0
M  END
$$$$
