SPD.pdb
     RDKit          3D

 22 22  0  0  1  0  0  0  0  0999 V2000
    7.9509  -17.3330   16.9600 O   0  0  0  0  0  0  0  0  0  0  0  0
    8.7891  -17.0431   15.9075 C   0  0  0  0  0  0  0  0  0  0  0  0
    8.8986  -15.5152   15.7880 C   0  0  2  0  0  0  0  0  0  0  0  0
    9.7287  -15.2627   14.6486 N   0  0  0  0  0  0  0  0  0  0  0  0
    9.4451  -15.0224   17.0658 C   0  0  0  0  0  0  0  0  0  0  0  0
   10.6706  -15.3300   17.2880 O   0  0  0  0  0  0  0  0  0  0  0  0
    8.7227  -14.2614   18.0221 N   0  0  0  0  0  0  0  0  0  0  0  0
    7.3784  -13.7725   17.8399 C   0  0  0  0  0  0  0  0  0  0  0  0
    7.2707  -12.6080   18.8477 C   0  0  0  0  0  0  0  0  0  0  0  0
    8.0595  -13.1981   19.9817 C   0  0  0  0  0  0  0  0  0  0  0  0
    9.2228  -13.8329   19.2733 C   0  0  1  0  0  0  0  0  0  0  0  0
    9.8061  -14.9300   20.0962 C   0  0  0  0  0  0  0  0  0  0  0  0
    9.3596  -16.0851   19.9014 O   0  0  0  0  0  0  0  0  0  0  0  0
   10.8166  -14.7707   21.0697 N   0  0  0  0  0  0  0  0  0  0  0  0
   11.3303  -15.8942   21.8525 C   0  0  1  0  0  0  0  0  0  0  0  0
   12.8210  -15.7125   22.1061 C   0  0  0  0  0  0  0  0  0  0  0  0
   13.3882  -16.8354   22.8627 C   0  0  0  0  0  0  0  0  0  0  0  0
   12.6715  -17.8032   23.1979 O   0  0  0  0  0  0  0  0  0  0  0  0
   10.6378  -16.0330   23.1406 C   0  0  0  0  0  0  0  0  0  0  0  0
   10.9583  -16.9947   23.8813 O   0  0  0  0  0  0  0  0  0  0  0  0
   14.7378  -16.8262   23.2129 O   0  0  0  0  0  0  0  0  0  0  0  0
    9.6570  -15.1510   23.5599 O   0  0  0  0  0  0  0  0  0  0  0  0
  1  2  1  0
  3  2  1  0
  3  4  1  6
  3  5  1  0
  5  6  2  0
  7  5  1  0
  7 11  1  0
  8  7  1  0
  9  8  1  0
  9 10  1  0
 10 11  1  0
 11 12  1  1
 12 13  2  0
 12 14  1  0
 14 15  1  0
 15 16  1  1
 17 16  1  0
 17 18  2  0
 19 15  1  0
 19 22  1  0
 20 19  2  0
 21 17  1  0
M  END
$$$$
