SPD.pdb
     RDKit          3D

 22 22  0  0  1  0  0  0  0  0999 V2000
    7.4532  -17.2474   15.5438 O   0  0  0  0  0  0  0  0  0  0  0  0
    8.6316  -16.9502   16.1899 C   0  0  0  0  0  0  0  0  0  0  0  0
    8.8964  -15.4445   16.0365 C   0  0  2  0  0  0  0  0  0  0  0  0
    9.7650  -15.3053   14.9062 N   0  0  0  0  0  0  0  0  0  0  0  0
    9.4705  -14.9771   17.3118 C   0  0  0  0  0  0  0  0  0  0  0  0
   10.6832  -15.3363   17.5264 O   0  0  0  0  0  0  0  0  0  0  0  0
    8.7862  -14.1881   18.2733 N   0  0  0  0  0  0  0  0  0  0  0  0
    7.4700  -13.6274   18.0921 C   0  0  0  0  0  0  0  0  0  0  0  0
    7.4207  -12.4682   19.1106 C   0  0  0  0  0  0  0  0  0  0  0  0
    8.1737  -13.1095   20.2411 C   0  0  0  0  0  0  0  0  0  0  0  0
    9.3043  -13.7982   19.5297 C   0  0  1  0  0  0  0  0  0  0  0  0
    9.8264  -14.9321   20.3439 C   0  0  0  0  0  0  0  0  0  0  0  0
    9.1667  -15.9978   20.3223 O   0  0  0  0  0  0  0  0  0  0  0  0
   10.9989  -14.8998   21.1301 N   0  0  0  0  0  0  0  0  0  0  0  0
   11.3609  -15.9889   22.0366 C   0  0  1  0  0  0  0  0  0  0  0  0
   12.8360  -15.8915   22.4031 C   0  0  0  0  0  0  0  0  0  0  0  0
   13.6913  -15.8094   21.2129 C   0  0  0  0  0  0  0  0  0  0  0  0
   14.5673  -14.9224   21.1190 O   0  0  0  0  0  0  0  0  0  0  0  0
   10.5586  -15.9737   23.2672 C   0  0  0  0  0  0  0  0  0  0  0  0
   10.6228  -16.9728   24.0248 O   0  0  0  0  0  0  0  0  0  0  0  0
   13.5286  -16.7267   20.1756 O   0  0  0  0  0  0  0  0  0  0  0  0
    9.7453  -14.9093   23.6151 O   0  0  0  0  0  0  0  0  0  0  0  0
  1  2  1  0
  3  2  1  0
  3  4  1  6
  3  5  1  0
  5  6  2  0
  7  5  1  0
  7 11  1  0
  8  7  1  0
  9  8  1  0
  9 10  1  0
 10 11  1  0
 11 12  1  1
 12 13  2  0
 12 14  1  0
 14 15  1  0
 15 16  1  1
 17 16  1  0
 17 18  2  0
 19 15  1  0
 19 22  1  0
 20 19  2  0
 21 17  1  0
M  END
$$$$
