SPD.pdb
     RDKit          3D

 22 22  0  0  1  0  0  0  0  0999 V2000
    7.9238  -18.3033   18.1942 O   0  0  0  0  0  0  0  0  0  0  0  0
    7.2599  -17.2533   17.6016 C   0  0  0  0  0  0  0  0  0  0  0  0
    8.3010  -16.2076   17.1735 C   0  0  2  0  0  0  0  0  0  0  0  0
    9.2001  -16.8805   16.2846 N   0  0  0  0  0  0  0  0  0  0  0  0
    8.9271  -15.6950   18.4063 C   0  0  0  0  0  0  0  0  0  0  0  0
    9.9891  -16.3133   18.7746 O   0  0  0  0  0  0  0  0  0  0  0  0
    8.4411  -14.6049   19.1750 N   0  0  0  0  0  0  0  0  0  0  0  0
    7.3233  -13.7715   18.8071 C   0  0  0  0  0  0  0  0  0  0  0  0
    7.5447  -12.4787   19.6214 C   0  0  0  0  0  0  0  0  0  0  0  0
    8.0672  -13.0827   20.8936 C   0  0  0  0  0  0  0  0  0  0  0  0
    9.0017  -14.1460   20.3892 C   0  0  1  0  0  0  0  0  0  0  0  0
    9.1833  -15.2158   21.4108 C   0  0  0  0  0  0  0  0  0  0  0  0
    8.2819  -16.0833   21.4911 O   0  0  0  0  0  0  0  0  0  0  0  0
   10.2848  -15.3283   22.2872 N   0  0  0  0  0  0  0  0  0  0  0  0
   10.3848  -16.3956   23.2821 C   0  0  1  0  0  0  0  0  0  0  0  0
   11.8282  -16.5402   23.7459 C   0  0  0  0  0  0  0  0  0  0  0  0
   12.7571  -16.6583   22.6153 C   0  0  0  0  0  0  0  0  0  0  0  0
   12.5444  -17.4835   21.7007 O   0  0  0  0  0  0  0  0  0  0  0  0
    9.5284  -16.1455   24.4492 C   0  0  0  0  0  0  0  0  0  0  0  0
    9.3446  -17.0881   25.2580 O   0  0  0  0  0  0  0  0  0  0  0  0
   13.8880  -15.8448   22.5572 O   0  0  0  0  0  0  0  0  0  0  0  0
    8.9253  -14.9222   24.6843 O   0  0  0  0  0  0  0  0  0  0  0  0
  1  2  1  0
  3  2  1  0
  3  4  1  6
  3  5  1  0
  5  6  2  0
  7  5  1  0
  7 11  1  0
  8  7  1  0
  9  8  1  0
  9 10  1  0
 10 11  1  0
 11 12  1  1
 12 13  2  0
 12 14  1  0
 14 15  1  0
 15 16  1  1
 17 16  1  0
 17 18  2  0
 19 15  1  0
 19 22  1  0
 20 19  2  0
 21 17  1  0
M  END
$$$$
