SPD.pdb
     RDKit          3D

 22 22  0  0  1  0  0  0  0  0999 V2000
    5.9677  -18.3880   19.1193 O   0  0  0  0  0  0  0  0  0  0  0  0
    7.1078  -17.6913   19.4496 C   0  0  0  0  0  0  0  0  0  0  0  0
    7.5598  -16.8973   18.2142 C   0  0  2  0  0  0  0  0  0  0  0  0
    7.9248  -17.8689   17.2273 N   0  0  0  0  0  0  0  0  0  0  0  0
    8.6626  -16.0195   18.6474 C   0  0  0  0  0  0  0  0  0  0  0  0
    9.8169  -16.5775   18.6910 O   0  0  0  0  0  0  0  0  0  0  0  0
    8.5243  -14.6525   19.0045 N   0  0  0  0  0  0  0  0  0  0  0  0
    7.3248  -13.8722   18.8261 C   0  0  0  0  0  0  0  0  0  0  0  0
    7.8302  -12.4135   18.8357 C   0  0  0  0  0  0  0  0  0  0  0  0
    8.8915  -12.5340   19.8918 C   0  0  0  0  0  0  0  0  0  0  0  0
    9.5475  -13.8410   19.5462 C   0  0  1  0  0  0  0  0  0  0  0  0
   10.2126  -14.4296   20.7431 C   0  0  0  0  0  0  0  0  0  0  0  0
    9.4659  -14.8823   21.6426 O   0  0  0  0  0  0  0  0  0  0  0  0
   11.6081  -14.5180   20.9399 N   0  0  0  0  0  0  0  0  0  0  0  0
   12.1923  -15.2204   22.0820 C   0  0  1  0  0  0  0  0  0  0  0  0
   11.6100  -16.6242   22.1821 C   0  0  0  0  0  0  0  0  0  0  0  0
   12.2020  -17.3844   23.2896 C   0  0  0  0  0  0  0  0  0  0  0  0
   13.0519  -16.8578   24.0401 O   0  0  0  0  0  0  0  0  0  0  0  0
   13.6551  -15.3134   21.9846 C   0  0  0  0  0  0  0  0  0  0  0  0
   14.3271  -15.1486   23.0322 O   0  0  0  0  0  0  0  0  0  0  0  0
   11.8158  -18.7059   23.5100 O   0  0  0  0  0  0  0  0  0  0  0  0
   14.3090  -15.5732   20.7927 O   0  0  0  0  0  0  0  0  0  0  0  0
  1  2  1  0
  3  2  1  0
  3  4  1  6
  3  5  1  0
  5  6  2  0
  7  5  1  0
  7 11  1  0
  8  7  1  0
  9  8  1  0
  9 10  1  0
 10 11  1  0
 11 12  1  1
 12 13  2  0
 12 14  1  0
 14 15  1  0
 15 16  1  6
 17 16  1  0
 17 18  2  0
 19 15  1  0
 19 22  1  0
 20 19  2  0
 21 17  1  0
M  END
$$$$
