SPD.pdb
     RDKit          3D

 22 22  0  0  1  0  0  0  0  0999 V2000
    8.0228  -18.1426   17.6523 O   0  0  0  0  0  0  0  0  0  0  0  0
    7.4424  -16.9837   17.1892 C   0  0  0  0  0  0  0  0  0  0  0  0
    8.5634  -15.9987   16.8231 C   0  0  2  0  0  0  0  0  0  0  0  0
    9.5004  -16.7374   16.0308 N   0  0  0  0  0  0  0  0  0  0  0  0
    9.1087  -15.4780   18.0904 C   0  0  0  0  0  0  0  0  0  0  0  0
   10.1500  -16.0879   18.5258 O   0  0  0  0  0  0  0  0  0  0  0  0
    8.5689  -14.3889   18.8238 N   0  0  0  0  0  0  0  0  0  0  0  0
    7.5126  -13.5251   18.3574 C   0  0  0  0  0  0  0  0  0  0  0  0
    7.6758  -12.2500   19.2122 C   0  0  0  0  0  0  0  0  0  0  0  0
    8.0516  -12.8846   20.5208 C   0  0  0  0  0  0  0  0  0  0  0  0
    9.0108  -13.9610   20.0968 C   0  0  1  0  0  0  0  0  0  0  0  0
    9.0638  -15.0498   21.1131 C   0  0  0  0  0  0  0  0  0  0  0  0
    8.1155  -15.8697   21.1170 O   0  0  0  0  0  0  0  0  0  0  0  0
   10.0927  -15.2292   22.0635 N   0  0  0  0  0  0  0  0  0  0  0  0
   10.0461  -16.2851   23.0743 C   0  0  1  0  0  0  0  0  0  0  0  0
   11.4225  -16.9189   23.2277 C   0  0  0  0  0  0  0  0  0  0  0  0
   11.8984  -17.5052   21.9688 C   0  0  0  0  0  0  0  0  0  0  0  0
   11.0905  -17.9920   21.1483 O   0  0  0  0  0  0  0  0  0  0  0  0
    9.6016  -15.7808   24.3805 C   0  0  0  0  0  0  0  0  0  0  0  0
    9.3257  -16.6196   25.2731 O   0  0  0  0  0  0  0  0  0  0  0  0
   13.2627  -17.5213   21.6817 O   0  0  0  0  0  0  0  0  0  0  0  0
    9.4785  -14.4303   24.6569 O   0  0  0  0  0  0  0  0  0  0  0  0
  1  2  1  0
  3  2  1  0
  3  4  1  1
  3  5  1  0
  5  6  2  0
  7  5  1  0
  7 11  1  0
  8  7  1  0
  9  8  1  0
  9 10  1  0
 10 11  1  0
 11 12  1  1
 12 13  2  0
 12 14  1  0
 14 15  1  0
 15 16  1  1
 17 16  1  0
 17 18  2  0
 19 15  1  0
 19 22  1  0
 20 19  2  0
 21 17  1  0
M  END
$$$$
