SPD.pdb
     RDKit          3D

 22 22  0  0  1  0  0  0  0  0999 V2000
    7.6737  -17.2873   17.3501 O   0  0  0  0  0  0  0  0  0  0  0  0
    8.7278  -17.1198   16.4811 C   0  0  0  0  0  0  0  0  0  0  0  0
    9.0777  -15.6245   16.4338 C   0  0  2  0  0  0  0  0  0  0  0  0
   10.1024  -15.4857   15.4428 N   0  0  0  0  0  0  0  0  0  0  0  0
    9.4860  -15.2354   17.7963 C   0  0  0  0  0  0  0  0  0  0  0  0
   10.5715  -15.7766   18.2142 O   0  0  0  0  0  0  0  0  0  0  0  0
    8.7760  -14.3364   18.6347 N   0  0  0  0  0  0  0  0  0  0  0  0
    7.5783  -13.6285   18.2554 C   0  0  0  0  0  0  0  0  0  0  0  0
    7.5298  -12.4364   19.2353 C   0  0  0  0  0  0  0  0  0  0  0  0
    8.0304  -13.1232   20.4739 C   0  0  0  0  0  0  0  0  0  0  0  0
    9.1558  -13.9673   19.9456 C   0  0  1  0  0  0  0  0  0  0  0  0
    9.4133  -15.1261   20.8467 C   0  0  0  0  0  0  0  0  0  0  0  0
    8.6936  -16.1402   20.6875 O   0  0  0  0  0  0  0  0  0  0  0  0
   10.3991  -15.1708   21.8568 N   0  0  0  0  0  0  0  0  0  0  0  0
   10.5617  -16.3266   22.7380 C   0  0  1  0  0  0  0  0  0  0  0  0
   12.0390  -16.5530   23.0311 C   0  0  0  0  0  0  0  0  0  0  0  0
   12.7820  -16.9449   21.8272 C   0  0  0  0  0  0  0  0  0  0  0  0
   12.1769  -17.3339   20.8048 O   0  0  0  0  0  0  0  0  0  0  0  0
    9.8406  -16.1600   24.0071 C   0  0  0  0  0  0  0  0  0  0  0  0
    9.8055  -17.1351   24.7972 O   0  0  0  0  0  0  0  0  0  0  0  0
   14.1749  -16.8842   21.8197 O   0  0  0  0  0  0  0  0  0  0  0  0
    9.2073  -14.9801   24.3566 O   0  0  0  0  0  0  0  0  0  0  0  0
  1  2  1  0
  3  2  1  0
  3  4  1  6
  3  5  1  0
  5  6  2  0
  7  5  1  0
  7 11  1  0
  8  7  1  0
  9  8  1  0
  9 10  1  0
 10 11  1  0
 11 12  1  1
 12 13  2  0
 12 14  1  0
 14 15  1  0
 15 16  1  1
 17 16  1  0
 17 18  2  0
 19 15  1  0
 19 22  1  0
 20 19  2  0
 21 17  1  0
M  END
$$$$
