SPD.pdb
     RDKit          3D

 22 22  0  0  1  0  0  0  0  0999 V2000
    7.8989  -17.4372   17.5320 O   0  0  0  0  0  0  0  0  0  0  0  0
    8.7033  -17.1443   16.4543 C   0  0  0  0  0  0  0  0  0  0  0  0
    8.7927  -15.6161   16.3234 C   0  0  2  0  0  0  0  0  0  0  0  0
    9.5983  -15.3612   15.1670 N   0  0  0  0  0  0  0  0  0  0  0  0
    9.3573  -15.1088   17.5876 C   0  0  0  0  0  0  0  0  0  0  0  0
   10.5745  -15.4450   17.8133 O   0  0  0  0  0  0  0  0  0  0  0  0
    8.6596  -14.3060   18.5280 N   0  0  0  0  0  0  0  0  0  0  0  0
    7.3592  -13.7228   18.3083 C   0  0  0  0  0  0  0  0  0  0  0  0
    7.3011  -12.5609   19.3233 C   0  0  0  0  0  0  0  0  0  0  0  0
    8.0101  -13.2131   20.4758 C   0  0  0  0  0  0  0  0  0  0  0  0
    9.1482  -13.9228   19.7982 C   0  0  1  0  0  0  0  0  0  0  0  0
    9.6269  -15.0641   20.6286 C   0  0  0  0  0  0  0  0  0  0  0  0
    9.0830  -16.1764   20.4326 O   0  0  0  0  0  0  0  0  0  0  0  0
   10.6392  -14.9905   21.6103 N   0  0  0  0  0  0  0  0  0  0  0  0
   11.0728  -16.1603   22.3735 C   0  0  1  0  0  0  0  0  0  0  0  0
   12.5709  -16.0828   22.6372 C   0  0  0  0  0  0  0  0  0  0  0  0
   13.0450  -17.2182   23.4379 C   0  0  0  0  0  0  0  0  0  0  0  0
   12.5029  -18.3400   23.3344 O   0  0  0  0  0  0  0  0  0  0  0  0
   10.3652  -16.2773   23.6556 C   0  0  0  0  0  0  0  0  0  0  0  0
    9.8095  -15.2506   24.1176 O   0  0  0  0  0  0  0  0  0  0  0  0
   14.1089  -17.0484   24.3229 O   0  0  0  0  0  0  0  0  0  0  0  0
   10.2914  -17.4651   24.3619 O   0  0  0  0  0  0  0  0  0  0  0  0
  1  2  1  0
  3  2  1  0
  3  4  1  6
  3  5  1  0
  5  6  2  0
  7  5  1  0
  7 11  1  0
  8  7  1  0
  9  8  1  0
  9 10  1  0
 10 11  1  0
 11 12  1  1
 12 13  2  0
 12 14  1  0
 14 15  1  0
 15 16  1  1
 17 16  1  0
 17 18  2  0
 19 15  1  0
 19 22  1  0
 20 19  2  0
 21 17  1  0
M  END
$$$$
