SEV.pdb
     RDKit          3D

 23 22  0  0  1  0  0  0  0  0999 V2000
   14.9832  -14.0960  -14.3843 O   0  0  0  0  0  0  0  0  0  0  0  0
   15.9349  -13.1756  -14.7795 C   0  0  0  0  0  0  0  0  0  0  0  0
   15.4843  -12.3968  -16.0104 C   0  0  2  0  0  0  0  0  0  0  0  0
   15.4993  -13.3061  -17.1179 N   0  0  0  0  0  0  0  0  0  0  0  0
   16.4889  -11.2884  -16.2011 C   0  0  0  0  0  0  0  0  0  0  0  0
   17.5063  -11.4569  -16.9132 O   0  0  0  0  0  0  0  0  0  0  0  0
   16.3253  -10.0286  -15.5911 N   0  0  0  0  0  0  0  0  0  0  0  0
   17.2352   -8.9025  -15.8272 C   0  0  1  0  0  0  0  0  0  0  0  0
   16.5391   -7.6103  -15.4932 C   0  0  0  0  0  0  0  0  0  0  0  0
   17.4157   -6.4171  -15.6072 C   0  0  0  0  0  0  0  0  0  0  0  0
   16.6535   -5.1826  -15.2219 C   0  0  0  0  0  0  0  0  0  0  0  0
   15.4525   -5.2840  -14.9091 O   0  0  0  0  0  0  0  0  0  0  0  0
   18.4590   -9.0429  -15.0270 C   0  0  0  0  0  0  0  0  0  0  0  0
   18.3834   -9.4291  -13.8398 O   0  0  0  0  0  0  0  0  0  0  0  0
   17.2528   -3.9440  -15.2072 O   0  0  0  0  0  0  0  0  0  0  0  0
   22.4099   -9.4287  -16.6599 C   0  0  0  0  0  0  0  0  0  0  0  0
   21.8979   -9.9429  -15.3606 C   0  0  1  0  0  0  0  0  0  0  0  0
   23.0176  -10.1757  -14.3672 C   0  0  0  0  0  0  0  0  0  0  0  0
   20.8983   -9.0212  -14.6943 C   0  0  2  0  0  0  0  0  0  0  0  0
   19.7577   -8.7587  -15.5347 N   0  0  0  0  0  0  0  0  0  0  0  0
   21.5641   -7.7425  -14.3209 C   0  0  0  0  0  0  0  0  0  0  0  0
   22.3236   -7.6097  -13.1876 O   0  0  0  0  0  0  0  0  0  0  0  0
   21.4236   -6.7568  -15.0694 O   0  0  0  0  0  0  0  0  0  0  0  0
  1  2  1  0
  3  5  1  0
  3  4  1  6
  3  2  1  0
  5  6  2  0
  7  8  1  0
  7  5  1  0
  8 13  1  0
  8  9  1  1
 10 11  1  0
 10  9  1  0
 11 15  1  0
 11 12  2  0
 13 14  2  0
 13 20  1  0
 17 18  1  1
 17 16  1  0
 19 17  1  0
 19 20  1  6
 21 19  1  0
 21 22  1  0
 23 21  2  0
M  END
$$$$
