SEV.pdb
     RDKit          3D

 23 22  0  0  1  0  0  0  0  0999 V2000
   16.4794  -12.5382  -14.5546 O   0  0  0  0  0  0  0  0  0  0  0  0
   17.3239  -11.5059  -14.9154 C   0  0  0  0  0  0  0  0  0  0  0  0
   16.7287  -10.6603  -16.0359 C   0  0  2  0  0  0  0  0  0  0  0  0
   16.8270  -11.4251  -17.2438 N   0  0  0  0  0  0  0  0  0  0  0  0
   17.5668   -9.4090  -16.1128 C   0  0  0  0  0  0  0  0  0  0  0  0
   18.6512   -9.3979  -16.7411 O   0  0  0  0  0  0  0  0  0  0  0  0
   17.1677   -8.2115  -15.4863 N   0  0  0  0  0  0  0  0  0  0  0  0
   17.9123   -6.9545  -15.6178 C   0  0  1  0  0  0  0  0  0  0  0  0
   16.9749   -5.7899  -15.4416 C   0  0  0  0  0  0  0  0  0  0  0  0
   17.6365   -4.4682  -15.5853 C   0  0  0  0  0  0  0  0  0  0  0  0
   16.6498   -3.3693  -15.3174 C   0  0  0  0  0  0  0  0  0  0  0  0
   17.0538   -2.1931  -15.2543 O   0  0  0  0  0  0  0  0  0  0  0  0
   18.9999   -6.8859  -14.6330 C   0  0  0  0  0  0  0  0  0  0  0  0
   18.7674   -7.1472  -13.4321 O   0  0  0  0  0  0  0  0  0  0  0  0
   15.3110   -3.6337  -15.1404 O   0  0  0  0  0  0  0  0  0  0  0  0
   22.1278   -8.9254  -14.4635 C   0  0  0  0  0  0  0  0  0  0  0  0
   22.5018   -7.4903  -14.3390 C   0  0  1  0  0  0  0  0  0  0  0  0
   23.0695   -6.9426  -15.6323 C   0  0  0  0  0  0  0  0  0  0  0  0
   21.3462   -6.5936  -13.9470 C   0  0  2  0  0  0  0  0  0  0  0  0
   20.3356   -6.5310  -14.9722 N   0  0  0  0  0  0  0  0  0  0  0  0
   21.8514   -5.2263  -13.6420 C   0  0  0  0  0  0  0  0  0  0  0  0
   22.5569   -4.9376  -12.5029 O   0  0  0  0  0  0  0  0  0  0  0  0
   21.6225   -4.3112  -14.4556 O   0  0  0  0  0  0  0  0  0  0  0  0
  1  2  1  0
  3  5  1  0
  3  4  1  6
  3  2  1  0
  5  6  2  0
  7  8  1  0
  7  5  1  0
  8 13  1  0
  8  9  1  1
 10 11  1  0
 10  9  1  0
 11 15  1  0
 11 12  2  0
 13 14  2  0
 13 20  1  0
 17 18  1  6
 17 16  1  0
 19 17  1  0
 19 20  1  6
 21 19  1  0
 21 22  1  0
 23 21  2  0
M  END
$$$$
