SEV.pdb
     RDKit          3D

 23 22  0  0  1  0  0  0  0  0999 V2000
   12.2193  -11.4714  -14.3864 O   0  0  0  0  0  0  0  0  0  0  0  0
   13.0043  -10.9271  -13.3881 C   0  0  0  0  0  0  0  0  0  0  0  0
   14.4180  -11.4978  -13.4128 C   0  0  2  0  0  0  0  0  0  0  0  0
   14.3299  -12.8693  -13.0068 N   0  0  0  0  0  0  0  0  0  0  0  0
   15.2190  -10.6870  -12.4253 C   0  0  0  0  0  0  0  0  0  0  0  0
   15.2022  -10.9618  -11.2026 O   0  0  0  0  0  0  0  0  0  0  0  0
   16.0123   -9.5965  -12.8343 N   0  0  0  0  0  0  0  0  0  0  0  0
   16.8349   -8.8142  -11.9054 C   0  0  1  0  0  0  0  0  0  0  0  0
   18.0375   -8.2701  -12.6290 C   0  0  0  0  0  0  0  0  0  0  0  0
   19.0669   -9.2983  -12.9264 C   0  0  0  0  0  0  0  0  0  0  0  0
   20.2569   -8.6580  -13.5798 C   0  0  0  0  0  0  0  0  0  0  0  0
   20.6481   -9.0869  -14.6815 O   0  0  0  0  0  0  0  0  0  0  0  0
   16.0567   -7.7172  -11.3150 C   0  0  0  0  0  0  0  0  0  0  0  0
   15.3075   -7.0270  -12.0407 O   0  0  0  0  0  0  0  0  0  0  0  0
   20.9233   -7.6094  -12.9883 O   0  0  0  0  0  0  0  0  0  0  0  0
   13.2825   -7.7198   -9.0083 C   0  0  0  0  0  0  0  0  0  0  0  0
   14.2567   -6.7395   -8.4563 C   0  0  1  0  0  0  0  0  0  0  0  0
   15.0023   -7.2989   -7.2621 C   0  0  0  0  0  0  0  0  0  0  0  0
   15.2987   -6.2889   -9.4584 C   0  0  2  0  0  0  0  0  0  0  0  0
   16.1057   -7.3846   -9.9322 N   0  0  0  0  0  0  0  0  0  0  0  0
   16.1643   -5.2421   -8.8480 C   0  0  0  0  0  0  0  0  0  0  0  0
   15.7049   -3.9847   -8.5531 O   0  0  0  0  0  0  0  0  0  0  0  0
   17.3516   -5.5227   -8.5966 O   0  0  0  0  0  0  0  0  0  0  0  0
  1  2  1  0
  3  5  1  0
  3  4  1  1
  3  2  1  0
  5  6  2  0
  7  8  1  0
  7  5  1  0
  8 13  1  0
  8  9  1  6
 10 11  1  0
 10  9  1  0
 11 15  1  0
 11 12  2  0
 13 14  2  0
 13 20  1  0
 17 18  1  1
 17 16  1  0
 19 17  1  0
 19 20  1  1
 21 19  1  0
 21 22  1  0
 23 21  2  0
M  END
$$$$
