SEV.pdb
     RDKit          3D

 23 22  0  0  1  0  0  0  0  0999 V2000
   16.1174  -10.9618  -15.7498 O   0  0  0  0  0  0  0  0  0  0  0  0
   16.3789  -10.3563  -14.5357 C   0  0  0  0  0  0  0  0  0  0  0  0
   17.8321   -9.9055  -14.4357 C   0  0  2  0  0  0  0  0  0  0  0  0
   18.6438  -11.0865  -14.4255 N   0  0  0  0  0  0  0  0  0  0  0  0
   17.9523   -9.1498  -13.1362 C   0  0  0  0  0  0  0  0  0  0  0  0
   18.0806   -9.7573  -12.0475 O   0  0  0  0  0  0  0  0  0  0  0  0
   17.9254   -7.7415  -13.0941 N   0  0  0  0  0  0  0  0  0  0  0  0
   18.1479   -6.9747  -11.8636 C   0  0  1  0  0  0  0  0  0  0  0  0
   19.1368   -5.8707  -12.1268 C   0  0  0  0  0  0  0  0  0  0  0  0
   20.5251   -6.3545  -12.3358 C   0  0  0  0  0  0  0  0  0  0  0  0
   21.4535   -5.1881  -12.5103 C   0  0  0  0  0  0  0  0  0  0  0  0
   22.6817   -5.3903  -12.5463 O   0  0  0  0  0  0  0  0  0  0  0  0
   16.8857   -6.4179  -11.3594 C   0  0  0  0  0  0  0  0  0  0  0  0
   16.0493   -5.9491  -12.1626 O   0  0  0  0  0  0  0  0  0  0  0  0
   20.9770   -3.9028  -12.6312 O   0  0  0  0  0  0  0  0  0  0  0  0
   14.2951   -8.1451   -9.1521 C   0  0  0  0  0  0  0  0  0  0  0  0
   14.5472   -6.7787   -8.6188 C   0  0  1  0  0  0  0  0  0  0  0  0
   15.3841   -6.8131   -7.3565 C   0  0  0  0  0  0  0  0  0  0  0  0
   15.2573   -5.8667   -9.5971 C   0  0  2  0  0  0  0  0  0  0  0  0
   16.5493   -6.3790   -9.9772 N   0  0  0  0  0  0  0  0  0  0  0  0
   15.3995   -4.5074   -9.0054 C   0  0  0  0  0  0  0  0  0  0  0  0
   14.3385   -3.6522   -8.8583 O   0  0  0  0  0  0  0  0  0  0  0  0
   16.5278   -4.1358   -8.6305 O   0  0  0  0  0  0  0  0  0  0  0  0
  1  2  1  0
  3  5  1  0
  3  4  1  1
  3  2  1  0
  5  6  2  0
  7  8  1  0
  7  5  1  0
  8 13  1  0
  8  9  1  6
 10 11  1  0
 10  9  1  0
 11 15  1  0
 11 12  2  0
 13 14  2  0
 13 20  1  0
 17 18  1  1
 17 16  1  0
 19 17  1  0
 19 20  1  1
 21 19  1  0
 21 22  1  0
 23 21  2  0
M  END
$$$$
