SEV.pdb
     RDKit          3D

 23 22  0  0  1  0  0  0  0  0999 V2000
   17.5750  -14.5420  -15.3557 O   0  0  0  0  0  0  0  0  0  0  0  0
   17.6115  -13.2754  -15.9065 C   0  0  0  0  0  0  0  0  0  0  0  0
   16.7241  -12.3036  -15.1366 C   0  0  2  0  0  0  0  0  0  0  0  0
   15.3660  -12.6017  -15.4836 N   0  0  0  0  0  0  0  0  0  0  0  0
   17.1132  -10.9207  -15.5953 C   0  0  0  0  0  0  0  0  0  0  0  0
   16.6257  -10.4276  -16.6393 O   0  0  0  0  0  0  0  0  0  0  0  0
   18.0333  -10.1336  -14.8744 N   0  0  0  0  0  0  0  0  0  0  0  0
   18.3339   -8.7397  -15.2184 C   0  0  1  0  0  0  0  0  0  0  0  0
   17.0836   -7.9092  -15.1046 C   0  0  0  0  0  0  0  0  0  0  0  0
   17.2871   -6.4795  -15.4507 C   0  0  0  0  0  0  0  0  0  0  0  0
   15.9833   -5.7407  -15.3641 C   0  0  0  0  0  0  0  0  0  0  0  0
   15.6090   -5.2975  -14.2622 O   0  0  0  0  0  0  0  0  0  0  0  0
   19.3843   -8.2006  -14.3445 C   0  0  0  0  0  0  0  0  0  0  0  0
   19.2588   -8.2781  -13.1025 O   0  0  0  0  0  0  0  0  0  0  0  0
   15.1947   -5.5433  -16.4744 O   0  0  0  0  0  0  0  0  0  0  0  0
   22.7680   -9.5510  -14.1815 C   0  0  0  0  0  0  0  0  0  0  0  0
   22.9037   -8.0728  -14.2883 C   0  0  1  0  0  0  0  0  0  0  0  0
   23.2833   -7.6425  -15.6903 C   0  0  0  0  0  0  0  0  0  0  0  0
   21.6433   -7.3191  -13.9191 C   0  0  2  0  0  0  0  0  0  0  0  0
   20.5656   -7.5800  -14.8392 N   0  0  0  0  0  0  0  0  0  0  0  0
   21.9281   -5.8584  -13.8652 C   0  0  0  0  0  0  0  0  0  0  0  0
   22.6626   -5.2865  -12.8590 O   0  0  0  0  0  0  0  0  0  0  0  0
   21.4801   -5.1301  -14.7711 O   0  0  0  0  0  0  0  0  0  0  0  0
  1  2  1  0
  3  5  1  0
  3  4  1  6
  3  2  1  0
  5  6  2  0
  7  8  1  0
  7  5  1  0
  8 13  1  0
  8  9  1  1
 10 11  1  0
 10  9  1  0
 11 15  1  0
 11 12  2  0
 13 14  2  0
 13 20  1  0
 17 18  1  6
 17 16  1  0
 19 17  1  0
 19 20  1  6
 21 19  1  0
 21 22  1  0
 23 21  2  0
M  END
$$$$
