SEV.pdb
     RDKit          3D

 23 22  0  0  1  0  0  0  0  0999 V2000
   15.4625   -8.3778  -15.6402 O   0  0  0  0  0  0  0  0  0  0  0  0
   15.9137   -9.2485  -16.6135 C   0  0  0  0  0  0  0  0  0  0  0  0
   16.7319  -10.3861  -16.0123 C   0  0  2  0  0  0  0  0  0  0  0  0
   15.9707  -10.9295  -14.9264 N   0  0  0  0  0  0  0  0  0  0  0  0
   18.0178   -9.7694  -15.5221 C   0  0  0  0  0  0  0  0  0  0  0  0
   18.2244   -9.5987  -14.2978 O   0  0  0  0  0  0  0  0  0  0  0  0
   19.0308   -9.3637  -16.4138 N   0  0  0  0  0  0  0  0  0  0  0  0
   20.3631   -8.9399  -15.9698 C   0  0  1  0  0  0  0  0  0  0  0  0
   21.4126   -9.5660  -16.8488 C   0  0  0  0  0  0  0  0  0  0  0  0
   22.8021   -9.2397  -16.4389 C   0  0  0  0  0  0  0  0  0  0  0  0
   23.7783  -10.0201  -17.2701 C   0  0  0  0  0  0  0  0  0  0  0  0
   24.6495   -9.4088  -17.9165 O   0  0  0  0  0  0  0  0  0  0  0  0
   20.4824   -7.4762  -15.9985 C   0  0  0  0  0  0  0  0  0  0  0  0
   20.1654   -6.8476  -17.0323 O   0  0  0  0  0  0  0  0  0  0  0  0
   23.7309  -11.3940  -17.3326 O   0  0  0  0  0  0  0  0  0  0  0  0
   18.6254   -4.9027  -15.4268 C   0  0  0  0  0  0  0  0  0  0  0  0
   19.8273   -4.5475  -14.6243 C   0  0  1  0  0  0  0  0  0  0  0  0
   19.6231   -4.8302  -13.1501 C   0  0  0  0  0  0  0  0  0  0  0  0
   21.0800   -5.2851  -15.0480 C   0  0  2  0  0  0  0  0  0  0  0  0
   20.9488   -6.7116  -14.8925 N   0  0  0  0  0  0  0  0  0  0  0  0
   22.2451   -4.7898  -14.2638 C   0  0  0  0  0  0  0  0  0  0  0  0
   22.8459   -3.5840  -14.5170 O   0  0  0  0  0  0  0  0  0  0  0  0
   22.6889   -5.5009  -13.3423 O   0  0  0  0  0  0  0  0  0  0  0  0
  1  2  1  0
  3  5  1  0
  3  4  1  1
  3  2  1  0
  5  6  2  0
  7  8  1  0
  7  5  1  0
  8 13  1  0
  8  9  1  6
 10 11  1  0
 10  9  1  0
 11 15  1  0
 11 12  2  0
 13 14  2  0
 13 20  1  0
 17 18  1  1
 17 16  1  0
 19 17  1  0
 19 20  1  1
 21 19  1  0
 21 22  1  0
 23 21  2  0
M  END
$$$$
