SEV.pdb
     RDKit          3D

 23 22  0  0  1  0  0  0  0  0999 V2000
   27.8481  -24.5953  -18.4344 O   0  0  0  0  0  0  0  0  0  0  0  0
   27.5386  -23.9051  -17.2781 C   0  0  0  0  0  0  0  0  0  0  0  0
   28.4475  -22.6959  -17.0868 C   0  0  2  0  0  0  0  0  0  0  0  0
   29.6781  -23.1730  -16.5286 N   0  0  0  0  0  0  0  0  0  0  0  0
   27.7334  -21.7772  -16.1276 C   0  0  0  0  0  0  0  0  0  0  0  0
   28.3230  -21.3071  -15.1265 O   0  0  0  0  0  0  0  0  0  0  0  0
   26.3852  -21.4133  -16.3166 N   0  0  0  0  0  0  0  0  0  0  0  0
   25.7164  -20.3819  -15.5162 C   0  0  1  0  0  0  0  0  0  0  0  0
   24.7584  -19.6099  -16.3836 C   0  0  0  0  0  0  0  0  0  0  0  0
   23.9896  -18.5762  -15.6448 C   0  0  0  0  0  0  0  0  0  0  0  0
   23.0805  -17.8426  -16.5872 C   0  0  0  0  0  0  0  0  0  0  0  0
   23.0830  -18.1485  -17.7943 O   0  0  0  0  0  0  0  0  0  0  0  0
   25.0040  -20.9820  -14.3805 C   0  0  0  0  0  0  0  0  0  0  0  0
   24.2320  -21.9473  -14.5719 O   0  0  0  0  0  0  0  0  0  0  0  0
   22.2460  -16.8412  -16.1464 O   0  0  0  0  0  0  0  0  0  0  0  0
   26.4681  -21.7037  -10.7093 C   0  0  0  0  0  0  0  0  0  0  0  0
   25.0933  -21.1351  -10.6690 C   0  0  1  0  0  0  0  0  0  0  0  0
   25.0944  -19.6932  -10.2041 C   0  0  0  0  0  0  0  0  0  0  0  0
   24.3826  -21.1696  -12.0056 C   0  0  2  0  0  0  0  0  0  0  0  0
   25.1434  -20.5191  -13.0420 N   0  0  0  0  0  0  0  0  0  0  0  0
   23.0419  -20.5338  -11.8791 C   0  0  0  0  0  0  0  0  0  0  0  0
   22.0287  -21.0891  -11.1415 O   0  0  0  0  0  0  0  0  0  0  0  0
   22.8359  -19.4553  -12.4675 O   0  0  0  0  0  0  0  0  0  0  0  0
  1  2  1  0
  3  5  1  0
  3  4  1  1
  3  2  1  0
  5  6  2  0
  7  8  1  0
  7  5  1  0
  8 13  1  0
  8  9  1  6
 10 11  1  0
 10  9  1  0
 11 15  1  0
 11 12  2  0
 13 14  2  0
 13 20  1  0
 17 18  1  6
 17 16  1  0
 19 17  1  0
 19 20  1  6
 21 19  1  0
 21 22  1  0
 23 21  2  0
M  END
$$$$
