SEV.pdb
     RDKit          3D

 23 22  0  0  1  0  0  0  0  0999 V2000
   15.5538  -12.5292  -14.2948 O   0  0  0  0  0  0  0  0  0  0  0  0
   16.5490  -11.6172  -14.5893 C   0  0  0  0  0  0  0  0  0  0  0  0
   16.5814  -11.2835  -16.0767 C   0  0  2  0  0  0  0  0  0  0  0  0
   16.9904  -12.4694  -16.7696 N   0  0  0  0  0  0  0  0  0  0  0  0
   17.5949  -10.1790  -16.2407 C   0  0  0  0  0  0  0  0  0  0  0  0
   18.7051  -10.3984  -16.7792 O   0  0  0  0  0  0  0  0  0  0  0  0
   17.3365   -8.8661  -15.7985 N   0  0  0  0  0  0  0  0  0  0  0  0
   18.2139   -7.7319  -16.1075 C   0  0  1  0  0  0  0  0  0  0  0  0
   17.3831   -6.4998  -16.3477 C   0  0  0  0  0  0  0  0  0  0  0  0
   18.1881   -5.2951  -16.6730 C   0  0  0  0  0  0  0  0  0  0  0  0
   17.2867   -4.1072  -16.8443 C   0  0  0  0  0  0  0  0  0  0  0  0
   17.2036   -3.2710  -15.9254 O   0  0  0  0  0  0  0  0  0  0  0  0
   19.1685   -7.4972  -15.0161 C   0  0  0  0  0  0  0  0  0  0  0  0
   18.7763   -7.5366  -13.8291 O   0  0  0  0  0  0  0  0  0  0  0  0
   16.5516   -3.9233  -17.9930 O   0  0  0  0  0  0  0  0  0  0  0  0
   22.1214   -9.5030  -14.0669 C   0  0  0  0  0  0  0  0  0  0  0  0
   22.5588   -8.0818  -14.1267 C   0  0  1  0  0  0  0  0  0  0  0  0
   23.3562   -7.7909  -15.3815 C   0  0  0  0  0  0  0  0  0  0  0  0
   21.4133   -7.0920  -14.0898 C   0  0  2  0  0  0  0  0  0  0  0  0
   20.5474   -7.2209  -15.2343 N   0  0  0  0  0  0  0  0  0  0  0  0
   21.9493   -5.7051  -14.0071 C   0  0  0  0  0  0  0  0  0  0  0  0
   22.5166   -5.2003  -12.8659 O   0  0  0  0  0  0  0  0  0  0  0  0
   21.8780   -4.9775  -15.0157 O   0  0  0  0  0  0  0  0  0  0  0  0
  1  2  1  0
  3  5  1  0
  3  4  1  6
  3  2  1  0
  5  6  2  0
  7  8  1  0
  7  5  1  0
  8 13  1  0
  8  9  1  1
 10 11  1  0
 10  9  1  0
 11 15  1  0
 11 12  2  0
 13 14  2  0
 13 20  1  0
 17 18  1  6
 17 16  1  0
 19 17  1  0
 19 20  1  6
 21 19  1  0
 21 22  1  0
 23 21  2  0
M  END
$$$$
