SEV.pdb
     RDKit          3D

 23 22  0  0  1  0  0  0  0  0999 V2000
   13.5135  -10.6993  -15.1418 O   0  0  0  0  0  0  0  0  0  0  0  0
   14.8783  -10.5055  -15.0482 C   0  0  0  0  0  0  0  0  0  0  0  0
   15.6526  -11.6510  -15.6908 C   0  0  2  0  0  0  0  0  0  0  0  0
   15.5064  -12.7938  -14.8386 N   0  0  0  0  0  0  0  0  0  0  0  0
   17.0909  -11.2031  -15.7606 C   0  0  0  0  0  0  0  0  0  0  0  0
   17.9185  -11.5569  -14.8885 O   0  0  0  0  0  0  0  0  0  0  0  0
   17.5584  -10.3754  -16.8008 N   0  0  0  0  0  0  0  0  0  0  0  0
   18.9749  -10.0379  -16.9778 C   0  0  1  0  0  0  0  0  0  0  0  0
   19.2490   -9.7492  -18.4296 C   0  0  0  0  0  0  0  0  0  0  0  0
   20.6712   -9.4290  -18.7129 C   0  0  0  0  0  0  0  0  0  0  0  0
   20.8563   -9.1733  -20.1804 C   0  0  0  0  0  0  0  0  0  0  0  0
   21.4962   -9.9946  -20.8634 O   0  0  0  0  0  0  0  0  0  0  0  0
   19.3439   -8.8816  -16.1505 C   0  0  0  0  0  0  0  0  0  0  0  0
   18.5194   -7.9584  -15.9709 O   0  0  0  0  0  0  0  0  0  0  0  0
   20.3350   -8.0527  -20.7854 O   0  0  0  0  0  0  0  0  0  0  0  0
   22.6854   -8.8855  -13.5439 C   0  0  0  0  0  0  0  0  0  0  0  0
   21.5144   -7.9824  -13.3758 C   0  0  1  0  0  0  0  0  0  0  0  0
   21.8945   -6.6923  -12.6787 C   0  0  0  0  0  0  0  0  0  0  0  0
   20.8490   -7.6017  -14.6816 C   0  0  2  0  0  0  0  0  0  0  0  0
   20.6153   -8.7458  -15.5257 N   0  0  0  0  0  0  0  0  0  0  0  0
   21.6847   -6.5989  -15.3985 C   0  0  0  0  0  0  0  0  0  0  0  0
   22.2700   -6.8577  -16.6107 O   0  0  0  0  0  0  0  0  0  0  0  0
   21.8569   -5.4823  -14.8738 O   0  0  0  0  0  0  0  0  0  0  0  0
  1  2  1  0
  3  5  1  0
  3  4  1  1
  3  2  1  0
  5  6  2  0
  7  8  1  0
  7  5  1  0
  8 13  1  0
  8  9  1  6
 10 11  1  0
 10  9  1  0
 11 15  1  0
 11 12  2  0
 13 14  2  0
 13 20  1  0
 17 18  1  6
 17 16  1  0
 19 17  1  0
 19 20  1  6
 21 19  1  0
 21 22  1  0
 23 21  2  0
M  END
$$$$
