SEV.pdb
     RDKit          3D

 23 22  0  0  1  0  0  0  0  0999 V2000
   25.0708  -11.9277  -19.4735 O   0  0  0  0  0  0  0  0  0  0  0  0
   24.2813  -10.7943  -19.4388 C   0  0  0  0  0  0  0  0  0  0  0  0
   22.7981  -11.1422  -19.5023 C   0  0  2  0  0  0  0  0  0  0  0  0
   22.4675  -11.3440  -20.8821 N   0  0  0  0  0  0  0  0  0  0  0  0
   22.0606   -9.9568  -18.9324 C   0  0  0  0  0  0  0  0  0  0  0  0
   21.6953   -9.0108  -19.6688 O   0  0  0  0  0  0  0  0  0  0  0  0
   21.7547   -9.8658  -17.5598 N   0  0  0  0  0  0  0  0  0  0  0  0
   20.8962   -8.8161  -17.0005 C   0  0  1  0  0  0  0  0  0  0  0  0
   19.7530   -9.4439  -16.2490 C   0  0  0  0  0  0  0  0  0  0  0  0
   18.8367   -8.4545  -15.6271 C   0  0  0  0  0  0  0  0  0  0  0  0
   17.7178   -9.1645  -14.9222 C   0  0  0  0  0  0  0  0  0  0  0  0
   17.7221  -10.4089  -14.8768 O   0  0  0  0  0  0  0  0  0  0  0  0
   21.6631   -7.9310  -16.1139 C   0  0  0  0  0  0  0  0  0  0  0  0
   22.4324   -8.4234  -15.2594 O   0  0  0  0  0  0  0  0  0  0  0  0
   16.6895   -8.4708  -14.3265 O   0  0  0  0  0  0  0  0  0  0  0  0
   24.0219   -4.9183  -16.9606 C   0  0  0  0  0  0  0  0  0  0  0  0
   23.0264   -4.5467  -15.9186 C   0  0  1  0  0  0  0  0  0  0  0  0
   21.9118   -3.6912  -16.4849 C   0  0  0  0  0  0  0  0  0  0  0  0
   22.3745   -5.7384  -15.2493 C   0  0  2  0  0  0  0  0  0  0  0  0
   21.5809   -6.5114  -16.1706 N   0  0  0  0  0  0  0  0  0  0  0  0
   21.5330   -5.2777  -14.1103 C   0  0  0  0  0  0  0  0  0  0  0  0
   22.0680   -4.7519  -12.9631 O   0  0  0  0  0  0  0  0  0  0  0  0
   20.2948   -5.3750  -14.2067 O   0  0  0  0  0  0  0  0  0  0  0  0
  1  2  1  0
  3  5  1  0
  3  4  1  6
  3  2  1  0
  5  6  2  0
  7  8  1  0
  7  5  1  0
  8 13  1  0
  8  9  1  1
 10 11  1  0
 10  9  1  0
 11 15  1  0
 11 12  2  0
 13 14  2  0
 13 20  1  0
 17 18  1  6
 17 16  1  0
 19 17  1  0
 19 20  1  6
 21 19  1  0
 21 22  1  0
 23 21  2  0
M  END
$$$$
