SEV.pdb
     RDKit          3D

 23 22  0  0  1  0  0  0  0  0999 V2000
   15.6816   -9.7834  -17.0600 O   0  0  0  0  0  0  0  0  0  0  0  0
   16.7724   -9.4252  -16.2914 C   0  0  0  0  0  0  0  0  0  0  0  0
   17.8312  -10.5222  -16.2751 C   0  0  2  0  0  0  0  0  0  0  0  0
   17.3420  -11.5727  -15.4320 N   0  0  0  0  0  0  0  0  0  0  0  0
   19.0783   -9.8982  -15.7010 C   0  0  0  0  0  0  0  0  0  0  0  0
   19.3185   -9.9524  -14.4722 O   0  0  0  0  0  0  0  0  0  0  0  0
   20.0163   -9.2345  -16.5168 N   0  0  0  0  0  0  0  0  0  0  0  0
   21.2248   -8.5943  -15.9863 C   0  0  1  0  0  0  0  0  0  0  0  0
   22.4444   -9.2240  -16.6046 C   0  0  0  0  0  0  0  0  0  0  0  0
   23.7233   -8.6915  -16.0697 C   0  0  0  0  0  0  0  0  0  0  0  0
   24.8751   -9.4920  -16.6040 C   0  0  0  0  0  0  0  0  0  0  0  0
   25.2070   -9.3561  -17.7965 O   0  0  0  0  0  0  0  0  0  0  0  0
   21.2092   -7.1493  -16.2494 C   0  0  0  0  0  0  0  0  0  0  0  0
   20.7627   -6.7211  -17.3364 O   0  0  0  0  0  0  0  0  0  0  0  0
   25.5705  -10.3709  -15.8056 O   0  0  0  0  0  0  0  0  0  0  0  0
   19.2990   -5.2828  -16.8041 C   0  0  0  0  0  0  0  0  0  0  0  0
   19.9672   -4.4842  -15.7408 C   0  0  1  0  0  0  0  0  0  0  0  0
   19.3270   -4.7047  -14.3856 C   0  0  0  0  0  0  0  0  0  0  0  0
   21.4426   -4.7891  -15.5892 C   0  0  2  0  0  0  0  0  0  0  0  0
   21.6838   -6.1835  -15.3182 N   0  0  0  0  0  0  0  0  0  0  0  0
   22.0210   -3.9492  -14.5039 C   0  0  0  0  0  0  0  0  0  0  0  0
   22.2309   -2.6021  -14.6459 O   0  0  0  0  0  0  0  0  0  0  0  0
   22.3250   -4.4947  -13.4261 O   0  0  0  0  0  0  0  0  0  0  0  0
  1  2  1  0
  3  5  1  0
  3  4  1  1
  3  2  1  0
  5  6  2  0
  7  8  1  0
  7  5  1  0
  8 13  1  0
  8  9  1  6
 10 11  1  0
 10  9  1  0
 11 15  1  0
 11 12  2  0
 13 14  2  0
 13 20  1  0
 17 18  1  1
 17 16  1  0
 19 17  1  0
 19 20  1  1
 21 19  1  0
 21 22  1  0
 23 21  2  0
M  END
$$$$
