SEV.pdb
     RDKit          3D

 23 22  0  0  1  0  0  0  0  0999 V2000
   15.5045  -13.1297  -15.2812 O   0  0  0  0  0  0  0  0  0  0  0  0
   16.6639  -12.4589  -15.6203 C   0  0  0  0  0  0  0  0  0  0  0  0
   16.7713  -12.2516  -17.1270 C   0  0  2  0  0  0  0  0  0  0  0  0
   16.9763  -13.5401  -17.7199 N   0  0  0  0  0  0  0  0  0  0  0  0
   17.9631  -11.3542  -17.3470 C   0  0  0  0  0  0  0  0  0  0  0  0
   19.1261  -11.8210  -17.3650 O   0  0  0  0  0  0  0  0  0  0  0  0
   17.8182   -9.9657  -17.5394 N   0  0  0  0  0  0  0  0  0  0  0  0
   18.9598   -9.0546  -17.6744 C   0  0  1  0  0  0  0  0  0  0  0  0
   18.5257   -7.8007  -18.3853 C   0  0  0  0  0  0  0  0  0  0  0  0
   19.6236   -6.8209  -18.5848 C   0  0  0  0  0  0  0  0  0  0  0  0
   19.2290   -5.4872  -18.0203 C   0  0  0  0  0  0  0  0  0  0  0  0
   18.0370   -5.1320  -18.0794 O   0  0  0  0  0  0  0  0  0  0  0  0
   19.5233   -8.7244  -16.3586 C   0  0  0  0  0  0  0  0  0  0  0  0
   18.7586   -8.4779  -15.4001 O   0  0  0  0  0  0  0  0  0  0  0  0
   20.1549   -4.6506  -17.4403 O   0  0  0  0  0  0  0  0  0  0  0  0
   21.7171  -10.7715  -14.0835 C   0  0  0  0  0  0  0  0  0  0  0  0
   22.3291   -9.4243  -14.2432 C   0  0  1  0  0  0  0  0  0  0  0  0
   23.5097   -9.4516  -15.1920 C   0  0  0  0  0  0  0  0  0  0  0  0
   21.3661   -8.3778  -14.7634 C   0  0  2  0  0  0  0  0  0  0  0  0
   20.9221   -8.6670  -16.1033 N   0  0  0  0  0  0  0  0  0  0  0  0
   22.0084   -7.0351  -14.7155 C   0  0  0  0  0  0  0  0  0  0  0  0
   22.2345   -6.3670  -13.5402 O   0  0  0  0  0  0  0  0  0  0  0  0
   22.3524   -6.5005  -15.7867 O   0  0  0  0  0  0  0  0  0  0  0  0
  1  2  1  0
  3  5  1  0
  3  4  1  6
  3  2  1  0
  5  6  2  0
  7  8  1  0
  7  5  1  0
  8 13  1  0
  8  9  1  1
 10 11  1  0
 10  9  1  0
 11 15  1  0
 11 12  2  0
 13 14  2  0
 13 20  1  0
 17 18  1  6
 17 16  1  0
 19 17  1  0
 19 20  1  6
 21 19  1  0
 21 22  1  0
 23 21  2  0
M  END
$$$$
