DRC.pdb
     RDKit          3D

 26 25  0  0  1  0  0  0  0  0999 V2000
   25.4180  -21.7469  -14.7541 N   0  0  0  0  0  0  0  0  0  0  0  0
   24.1743  -22.5080  -14.9484 C   0  0  1  0  0  0  0  0  0  0  0  0
   24.5067  -23.9512  -14.6548 C   0  0  0  0  0  0  0  0  0  0  0  0
   25.4189  -24.4464  -15.7115 C   0  0  0  0  0  0  0  0  0  0  0  0
   25.7215  -23.6903  -16.6565 O   0  0  0  0  0  0  0  0  0  0  0  0
   23.1073  -21.9995  -14.0533 C   0  0  0  0  0  0  0  0  0  0  0  0
   23.4277  -21.5425  -12.9182 O   0  0  0  0  0  0  0  0  0  0  0  0
   25.9371  -25.7381  -15.6590 O   0  0  0  0  0  0  0  0  0  0  0  0
   21.3449  -16.3129  -16.6081 N   0  0  0  0  0  0  0  0  0  0  0  0
   20.1972  -17.1717  -16.6255 C   0  0  0  0  0  0  0  0  0  0  0  0
   19.3999  -17.1389  -17.6305 N   0  0  0  0  0  0  0  0  0  0  0  0
   19.9370  -18.0525  -15.5456 N   0  0  0  0  0  0  0  0  0  0  0  0
   20.4823  -17.8388  -14.2212 C   0  0  0  0  0  0  0  0  0  0  0  0
   21.0524  -19.1680  -13.7178 C   0  0  0  0  0  0  0  0  0  0  0  0
   20.0986  -20.2931  -13.9754 C   0  0  0  0  0  0  0  0  0  0  0  0
   20.6638  -21.5989  -13.5390 C   0  0  2  0  0  0  0  0  0  0  0  0
   21.7588  -22.0110  -14.4286 N   0  0  0  0  0  0  0  0  0  0  0  0
   19.6640  -22.6786  -13.4446 C   0  0  0  0  0  0  0  0  0  0  0  0
   19.0512  -23.1491  -14.4272 O   0  0  0  0  0  0  0  0  0  0  0  0
   18.5583  -17.7387  -17.7114 N   0  0  0  0  0  0  0  0  0  0  0  0
   19.3295  -23.2692  -12.1646 C   0  0  2  0  0  0  0  0  0  0  0  0
   18.3738  -24.3592  -12.0804 C   0  0  0  0  0  0  0  0  0  0  0  0
   18.6368  -25.2237  -10.8599 S   0  0  0  0  0  0  0  0  0  0  0  0
   18.8464  -24.2142   -9.3617 C   0  0  0  0  0  0  0  0  0  0  0  0
   16.9903  -23.8470  -12.0591 O   0  0  0  0  0  0  0  0  0  0  0  0
   16.8309  -22.4696  -11.8707 O   0  0  0  0  0  0  0  0  0  0  0  0
  2  1  1  1
  3  2  1  0
  3  4  1  0
  4  8  1  0
  4  5  2  0
  6  2  1  0
  6  7  2  0
  9 10  1  0
 10 11  2  0
 10 12  1  0
 12 13  1  0
 14 15  1  0
 14 13  1  0
 16 15  1  6
 16 17  1  0
 17  6  1  0
 18 16  1  0
 19 18  2  0
 20 18  1  0
 21 20  1  0
 21 24  1  0
 21 22  1  1
 23 22  1  0
 24 25  1  0
 26 24  2  0
M  END
$$$$
