DRC.pdb
     RDKit          3D

 26 25  0  0  1  0  0  0  0  0999 V2000
   25.5474  -17.5970  -18.9956 N   0  0  0  0  0  0  0  0  0  0  0  0
   24.1336  -17.8145  -19.3388 C   0  0  1  0  0  0  0  0  0  0  0  0
   24.0886  -18.0587  -20.8280 C   0  0  0  0  0  0  0  0  0  0  0  0
   24.4903  -16.8121  -21.5197 C   0  0  0  0  0  0  0  0  0  0  0  0
   24.8312  -16.8652  -22.7187 O   0  0  0  0  0  0  0  0  0  0  0  0
   23.5842  -18.9633  -18.5794 C   0  0  0  0  0  0  0  0  0  0  0  0
   22.4269  -19.3871  -18.8638 O   0  0  0  0  0  0  0  0  0  0  0  0
   24.4904  -15.5917  -20.8485 O   0  0  0  0  0  0  0  0  0  0  0  0
   23.3873  -25.3052  -13.8058 N   0  0  0  0  0  0  0  0  0  0  0  0
   23.8441  -25.7633  -15.0849 C   0  0  0  0  0  0  0  0  0  0  0  0
   23.2956  -26.7932  -15.6191 N   0  0  0  0  0  0  0  0  0  0  0  0
   24.8929  -25.0907  -15.7613 N   0  0  0  0  0  0  0  0  0  0  0  0
   25.4269  -23.8256  -15.3017 C   0  0  0  0  0  0  0  0  0  0  0  0
   24.3571  -22.7498  -15.5109 C   0  0  0  0  0  0  0  0  0  0  0  0
   24.8496  -21.6745  -16.4290 C   0  0  0  0  0  0  0  0  0  0  0  0
   23.7775  -20.6910  -16.7427 C   0  0  2  0  0  0  0  0  0  0  0  0
   24.3089  -19.5904  -17.5590 N   0  0  0  0  0  0  0  0  0  0  0  0
   23.1014  -20.1469  -15.5505 C   0  0  0  0  0  0  0  0  0  0  0  0
   23.5989  -19.2775  -14.8029 O   0  0  0  0  0  0  0  0  0  0  0  0
   23.5923  -27.1904  -16.5294 N   0  0  0  0  0  0  0  0  0  0  0  0
   21.7811  -20.6082  -15.1720 C   0  0  1  0  0  0  0  0  0  0  0  0
   21.0571  -19.9685  -14.0879 C   0  0  0  0  0  0  0  0  0  0  0  0
   20.9742  -18.4666  -14.2973 S   0  0  0  0  0  0  0  0  0  0  0  0
   20.1532  -17.6437  -12.8986 C   0  0  0  0  0  0  0  0  0  0  0  0
   19.7056  -20.5430  -13.9452 O   0  0  0  0  0  0  0  0  0  0  0  0
   19.2207  -20.6973  -12.6417 O   0  0  0  0  0  0  0  0  0  0  0  0
  2  1  1  1
  3  2  1  0
  3  4  1  0
  4  8  1  0
  4  5  2  0
  6  2  1  0
  6  7  2  0
  9 10  1  0
 10 11  2  0
 10 12  1  0
 12 13  1  0
 14 15  1  0
 14 13  1  0
 16 15  1  1
 16 17  1  0
 17  6  1  0
 18 16  1  0
 19 18  2  0
 20 18  1  0
 21 20  1  0
 21 24  1  0
 21 22  1  6
 23 22  1  0
 24 25  1  0
 26 24  2  0
M  END
$$$$
