DRC.pdb
     RDKit          3D

 26 25  0  0  1  0  0  0  0  0999 V2000
   26.0890  -22.1815  -11.7983 N   0  0  0  0  0  0  0  0  0  0  0  0
   25.4873  -21.0434  -11.0865 C   0  0  1  0  0  0  0  0  0  0  0  0
   26.6028  -20.0567  -10.8390 C   0  0  0  0  0  0  0  0  0  0  0  0
   27.6334  -20.7142  -10.0027 C   0  0  0  0  0  0  0  0  0  0  0  0
   28.5920  -21.2876  -10.5584 O   0  0  0  0  0  0  0  0  0  0  0  0
   24.3956  -20.4443  -11.8911 C   0  0  0  0  0  0  0  0  0  0  0  0
   23.8072  -19.4140  -11.4525 O   0  0  0  0  0  0  0  0  0  0  0  0
   27.5418  -20.6977   -8.6130 O   0  0  0  0  0  0  0  0  0  0  0  0
   27.1681  -22.1605  -16.5248 N   0  0  0  0  0  0  0  0  0  0  0  0
   26.3403  -23.0739  -17.2562 C   0  0  0  0  0  0  0  0  0  0  0  0
   26.7801  -24.2498  -17.5219 N   0  0  0  0  0  0  0  0  0  0  0  0
   25.0453  -22.6899  -17.6869 N   0  0  0  0  0  0  0  0  0  0  0  0
   24.4305  -21.4432  -17.2808 C   0  0  0  0  0  0  0  0  0  0  0  0
   24.0278  -21.5650  -15.8083 C   0  0  0  0  0  0  0  0  0  0  0  0
   23.2805  -20.3498  -15.3539 C   0  0  0  0  0  0  0  0  0  0  0  0
   22.8884  -20.4536  -13.9219 C   0  0  2  0  0  0  0  0  0  0  0  0
   23.9989  -20.9857  -13.1196 N   0  0  0  0  0  0  0  0  0  0  0  0
   21.6758  -21.2611  -13.6936 C   0  0  0  0  0  0  0  0  0  0  0  0
   21.5388  -22.4395  -14.0874 O   0  0  0  0  0  0  0  0  0  0  0  0
   26.2109  -24.9805  -17.9874 N   0  0  0  0  0  0  0  0  0  0  0  0
   20.5431  -20.7111  -12.9771 C   0  0  1  0  0  0  0  0  0  0  0  0
   19.3486  -21.5076  -12.7593 C   0  0  0  0  0  0  0  0  0  0  0  0
   19.2287  -21.9263  -11.3044 S   0  0  0  0  0  0  0  0  0  0  0  0
   20.0022  -20.7098  -10.1956 C   0  0  0  0  0  0  0  0  0  0  0  0
   18.1410  -20.7742  -13.1843 O   0  0  0  0  0  0  0  0  0  0  0  0
   16.9216  -21.4524  -13.0784 O   0  0  0  0  0  0  0  0  0  0  0  0
  2  1  1  6
  3  2  1  0
  3  4  1  0
  4  8  1  0
  4  5  2  0
  6  2  1  0
  6  7  2  0
  9 10  1  0
 10 11  2  0
 10 12  1  0
 12 13  1  0
 14 15  1  0
 14 13  1  0
 16 15  1  6
 16 17  1  0
 17  6  1  0
 18 16  1  0
 19 18  2  0
 20 18  1  0
 21 20  1  0
 21 24  1  0
 21 22  1  6
 23 22  1  0
 24 25  1  0
 26 24  2  0
M  END
$$$$
