DRC.pdb
     RDKit          3D

 26 25  0  0  1  0  0  0  0  0999 V2000
   20.2925  -20.7331  -11.8498 N   0  0  0  0  0  0  0  0  0  0  0  0
   21.1376  -21.3720  -12.8703 C   0  0  1  0  0  0  0  0  0  0  0  0
   20.3002  -21.4611  -14.1234 C   0  0  0  0  0  0  0  0  0  0  0  0
   19.4041  -22.6346  -14.0059 C   0  0  0  0  0  0  0  0  0  0  0  0
   19.3955  -23.2886  -12.9435 O   0  0  0  0  0  0  0  0  0  0  0  0
   22.3725  -20.5820  -13.0928 C   0  0  0  0  0  0  0  0  0  0  0  0
   22.3199  -19.3226  -12.9877 O   0  0  0  0  0  0  0  0  0  0  0  0
   18.5781  -23.0103  -15.0625 O   0  0  0  0  0  0  0  0  0  0  0  0
   29.0402  -20.8995   -9.0044 N   0  0  0  0  0  0  0  0  0  0  0  0
   29.2511  -21.5251  -10.2768 C   0  0  0  0  0  0  0  0  0  0  0  0
   30.1370  -22.4470  -10.3874 N   0  0  0  0  0  0  0  0  0  0  0  0
   28.4925  -21.1348  -11.4090 N   0  0  0  0  0  0  0  0  0  0  0  0
   27.4600  -20.1218  -11.3395 C   0  0  0  0  0  0  0  0  0  0  0  0
   26.1162  -20.7850  -11.6554 C   0  0  0  0  0  0  0  0  0  0  0  0
   26.0030  -21.0997  -13.1149 C   0  0  0  0  0  0  0  0  0  0  0  0
   24.8169  -20.4397  -13.7254 C   0  0  2  0  0  0  0  0  0  0  0  0
   23.5917  -21.1897  -13.4149 N   0  0  0  0  0  0  0  0  0  0  0  0
   24.9279  -20.2459  -15.1829 C   0  0  0  0  0  0  0  0  0  0  0  0
   24.6906  -21.1388  -16.0249 O   0  0  0  0  0  0  0  0  0  0  0  0
   30.3909  -22.8894  -11.2898 N   0  0  0  0  0  0  0  0  0  0  0  0
   25.3314  -18.9674  -15.7321 C   0  0  2  0  0  0  0  0  0  0  0  0
   25.4503  -18.7837  -17.1676 C   0  0  0  0  0  0  0  0  0  0  0  0
   25.8230  -17.3510  -17.5063 S   0  0  0  0  0  0  0  0  0  0  0  0
   26.8972  -17.2712  -18.9717 C   0  0  0  0  0  0  0  0  0  0  0  0
   26.4367  -19.7203  -17.7392 O   0  0  0  0  0  0  0  0  0  0  0  0
   26.0998  -20.3264  -18.9547 O   0  0  0  0  0  0  0  0  0  0  0  0
  2  1  1  1
  3  2  1  0
  3  4  1  0
  4  8  1  0
  4  5  2  0
  6  2  1  0
  6  7  2  0
  9 10  1  0
 10 11  2  0
 10 12  1  0
 12 13  1  0
 14 15  1  0
 14 13  1  0
 16 15  1  6
 16 17  1  0
 17  6  1  0
 18 16  1  0
 19 18  2  0
 20 18  1  0
 21 20  1  0
 21 24  1  0
 21 22  1  1
 23 22  1  0
 24 25  1  0
 26 24  2  0
M  END
$$$$
