DRC.pdb
     RDKit          3D

 26 25  0  0  1  0  0  0  0  0999 V2000
   15.4900  -13.1865  -13.7547 N   0  0  0  0  0  0  0  0  0  0  0  0
   14.6773  -11.9746  -13.5689 C   0  0  1  0  0  0  0  0  0  0  0  0
   13.4849  -12.3834  -12.7380 C   0  0  0  0  0  0  0  0  0  0  0  0
   12.6353  -13.2855  -13.5493 C   0  0  0  0  0  0  0  0  0  0  0  0
   12.3083  -12.9384  -14.7022 O   0  0  0  0  0  0  0  0  0  0  0  0
   15.4700  -10.9132  -12.9029 C   0  0  0  0  0  0  0  0  0  0  0  0
   16.1024  -11.1954  -11.8445 O   0  0  0  0  0  0  0  0  0  0  0  0
   12.2024  -14.5074  -13.0402 O   0  0  0  0  0  0  0  0  0  0  0  0
   22.1337   -8.1348  -12.5995 N   0  0  0  0  0  0  0  0  0  0  0  0
   21.8426   -8.8109  -13.8296 C   0  0  0  0  0  0  0  0  0  0  0  0
   22.7884   -9.4037  -14.4628 N   0  0  0  0  0  0  0  0  0  0  0  0
   20.5240   -8.8292  -14.3500 N   0  0  0  0  0  0  0  0  0  0  0  0
   19.4110   -8.2049  -13.6654 C   0  0  0  0  0  0  0  0  0  0  0  0
   18.1581   -8.3817  -14.5282 C   0  0  0  0  0  0  0  0  0  0  0  0
   16.9753   -7.7116  -13.9007 C   0  0  0  0  0  0  0  0  0  0  0  0
   16.3758   -8.5531  -12.8295 C   0  0  2  0  0  0  0  0  0  0  0  0
   15.5378   -9.6109  -13.4118 N   0  0  0  0  0  0  0  0  0  0  0  0
   15.5972   -7.7887  -11.8376 C   0  0  0  0  0  0  0  0  0  0  0  0
   14.4923   -7.2563  -12.0788 O   0  0  0  0  0  0  0  0  0  0  0  0
   22.6413   -9.9392  -15.3381 N   0  0  0  0  0  0  0  0  0  0  0  0
   16.0900   -7.6095  -10.4870 C   0  0  2  0  0  0  0  0  0  0  0  0
   15.3605   -6.7889   -9.5366 C   0  0  0  0  0  0  0  0  0  0  0  0
   15.6180   -7.2442   -8.1109 S   0  0  0  0  0  0  0  0  0  0  0  0
   14.8135   -6.1453   -6.9056 C   0  0  0  0  0  0  0  0  0  0  0  0
   15.7106   -5.3641   -9.6924 O   0  0  0  0  0  0  0  0  0  0  0  0
   14.8458   -4.4345   -9.1040 O   0  0  0  0  0  0  0  0  0  0  0  0
  2  1  1  1
  3  2  1  0
  3  4  1  0
  4  8  1  0
  4  5  2  0
  6  2  1  0
  6  7  2  0
  9 10  1  0
 10 11  2  0
 10 12  1  0
 12 13  1  0
 14 15  1  0
 14 13  1  0
 16 15  1  6
 16 17  1  0
 17  6  1  0
 18 16  1  0
 19 18  2  0
 20 18  1  0
 21 20  1  0
 21 24  1  0
 21 22  1  1
 23 22  1  0
 24 25  1  0
 26 24  2  0
M  END
$$$$
