DRC.pdb
     RDKit          3D

 26 25  0  0  1  0  0  0  0  0999 V2000
   27.2984  -19.8089  -17.1617 N   0  0  0  0  0  0  0  0  0  0  0  0
   26.1755  -20.7152  -17.4470 C   0  0  1  0  0  0  0  0  0  0  0  0
   26.7403  -21.8494  -18.2680 C   0  0  0  0  0  0  0  0  0  0  0  0
   27.2678  -21.2933  -19.5354 C   0  0  0  0  0  0  0  0  0  0  0  0
   26.5544  -20.5162  -20.2015 O   0  0  0  0  0  0  0  0  0  0  0  0
   25.5667  -21.2030  -16.1862 C   0  0  0  0  0  0  0  0  0  0  0  0
   24.5812  -21.9935  -16.2488 O   0  0  0  0  0  0  0  0  0  0  0  0
   28.5426  -21.6279  -19.9856 O   0  0  0  0  0  0  0  0  0  0  0  0
   30.3563  -21.5016  -10.4577 N   0  0  0  0  0  0  0  0  0  0  0  0
   29.0987  -21.2640   -9.8121 C   0  0  0  0  0  0  0  0  0  0  0  0
   28.9959  -21.4432   -8.5455 N   0  0  0  0  0  0  0  0  0  0  0  0
   27.9724  -20.8350  -10.5587 N   0  0  0  0  0  0  0  0  0  0  0  0
   26.6223  -20.9146  -10.0410 C   0  0  0  0  0  0  0  0  0  0  0  0
   25.6797  -21.2254  -11.2074 C   0  0  0  0  0  0  0  0  0  0  0  0
   26.3415  -20.9463  -12.5212 C   0  0  0  0  0  0  0  0  0  0  0  0
   25.4187  -21.1975  -13.6616 C   0  0  2  0  0  0  0  0  0  0  0  0
   26.0509  -20.8139  -14.9317 N   0  0  0  0  0  0  0  0  0  0  0  0
   24.1132  -20.5245  -13.5304 C   0  0  0  0  0  0  0  0  0  0  0  0
   23.9396  -19.2994  -13.7075 O   0  0  0  0  0  0  0  0  0  0  0  0
   28.1174  -21.2911   -8.0169 N   0  0  0  0  0  0  0  0  0  0  0  0
   22.9249  -21.2744  -13.1775 C   0  0  1  0  0  0  0  0  0  0  0  0
   21.6167  -20.6448  -13.2095 C   0  0  0  0  0  0  0  0  0  0  0  0
   21.2541  -20.2092  -14.6184 S   0  0  0  0  0  0  0  0  0  0  0  0
   19.5465  -19.5893  -14.7048 C   0  0  0  0  0  0  0  0  0  0  0  0
   20.5832  -21.5485  -12.6689 O   0  0  0  0  0  0  0  0  0  0  0  0
   19.5610  -20.9588  -11.9169 O   0  0  0  0  0  0  0  0  0  0  0  0
  2  1  1  1
  3  2  1  0
  3  4  1  0
  4  8  1  0
  4  5  2  0
  6  2  1  0
  6  7  2  0
  9 10  1  0
 10 11  2  0
 10 12  1  0
 12 13  1  0
 14 15  1  0
 14 13  1  0
 16 15  1  1
 16 17  1  0
 17  6  1  0
 18 16  1  0
 19 18  2  0
 20 18  1  0
 21 20  1  0
 21 24  1  0
 21 22  1  1
 23 22  1  0
 24 25  1  0
 26 24  2  0
M  END
$$$$
