DRC.pdb
     RDKit          3D

 26 25  0  0  1  0  0  0  0  0999 V2000
   22.7193  -21.0919  -10.1816 N   0  0  0  0  0  0  0  0  0  0  0  0
   23.0272  -20.9677  -11.6147 C   0  0  1  0  0  0  0  0  0  0  0  0
   21.9211  -20.1362  -12.2184 C   0  0  0  0  0  0  0  0  0  0  0  0
   20.9921  -21.0407  -12.9344 C   0  0  0  0  0  0  0  0  0  0  0  0
   21.3109  -22.2362  -13.0949 O   0  0  0  0  0  0  0  0  0  0  0  0
   24.3546  -20.3364  -11.8093 C   0  0  0  0  0  0  0  0  0  0  0  0
   24.6612  -19.3291  -11.1084 O   0  0  0  0  0  0  0  0  0  0  0  0
   19.7761  -20.5717  -13.4256 O   0  0  0  0  0  0  0  0  0  0  0  0
   31.9502  -21.9094   -9.8515 N   0  0  0  0  0  0  0  0  0  0  0  0
   31.5741  -22.4512  -11.1242 C   0  0  0  0  0  0  0  0  0  0  0  0
   32.2508  -23.4215  -11.6217 N   0  0  0  0  0  0  0  0  0  0  0  0
   30.4658  -21.9253  -11.8349 N   0  0  0  0  0  0  0  0  0  0  0  0
   29.6577  -20.8399  -11.3192 C   0  0  0  0  0  0  0  0  0  0  0  0
   28.1905  -21.2777  -11.3522 C   0  0  0  0  0  0  0  0  0  0  0  0
   27.6632  -21.2826  -12.7535 C   0  0  0  0  0  0  0  0  0  0  0  0
   26.6123  -20.2462  -12.9451 C   0  0  2  0  0  0  0  0  0  0  0  0
   25.2755  -20.8231  -12.7445 N   0  0  0  0  0  0  0  0  0  0  0  0
   26.6735  -19.5713  -14.2548 C   0  0  0  0  0  0  0  0  0  0  0  0
   26.2085  -20.0537  -15.3099 O   0  0  0  0  0  0  0  0  0  0  0  0
   32.0412  -23.8511  -12.5415 N   0  0  0  0  0  0  0  0  0  0  0  0
   27.2970  -18.2706  -14.3898 C   0  0  2  0  0  0  0  0  0  0  0  0
   27.3125  -17.5876  -15.6712 C   0  0  0  0  0  0  0  0  0  0  0  0
   27.8154  -16.1621  -15.5247 S   0  0  0  0  0  0  0  0  0  0  0  0
   26.8899  -15.2577  -14.2468 C   0  0  0  0  0  0  0  0  0  0  0  0
   28.1334  -18.3241  -16.6514 O   0  0  0  0  0  0  0  0  0  0  0  0
   27.6339  -18.4077  -17.9558 O   0  0  0  0  0  0  0  0  0  0  0  0
  2  1  1  1
  3  2  1  0
  3  4  1  0
  4  8  1  0
  4  5  2  0
  6  2  1  0
  6  7  2  0
  9 10  1  0
 10 11  2  0
 10 12  1  0
 12 13  1  0
 14 15  1  0
 14 13  1  0
 16 15  1  6
 16 17  1  0
 17  6  1  0
 18 16  1  0
 19 18  2  0
 20 18  1  0
 21 20  1  0
 21 24  1  0
 21 22  1  1
 23 22  1  0
 24 25  1  0
 26 24  2  0
M  END
$$$$
