DRC.pdb
     RDKit          3D

 26 25  0  0  1  0  0  0  0  0999 V2000
   18.2027  -25.1678  -10.2802 N   0  0  0  0  0  0  0  0  0  0  0  0
   17.5193  -23.9265   -9.8851 C   0  0  1  0  0  0  0  0  0  0  0  0
   17.9154  -23.6583   -8.4532 C   0  0  0  0  0  0  0  0  0  0  0  0
   17.3516  -24.7314   -7.6020 C   0  0  0  0  0  0  0  0  0  0  0  0
   17.0891  -25.8384   -8.1140 O   0  0  0  0  0  0  0  0  0  0  0  0
   17.9098  -22.8099  -10.7790 C   0  0  0  0  0  0  0  0  0  0  0  0
   17.5446  -21.6350  -10.4852 O   0  0  0  0  0  0  0  0  0  0  0  0
   17.1144  -24.5167   -6.2465 O   0  0  0  0  0  0  0  0  0  0  0  0
   24.7024  -22.5240  -16.2204 N   0  0  0  0  0  0  0  0  0  0  0  0
   24.4046  -22.4700  -14.8193 C   0  0  0  0  0  0  0  0  0  0  0  0
   25.3210  -22.7569  -13.9679 N   0  0  0  0  0  0  0  0  0  0  0  0
   23.1111  -22.1044  -14.3687 N   0  0  0  0  0  0  0  0  0  0  0  0
   22.0505  -21.7258  -15.2792 C   0  0  0  0  0  0  0  0  0  0  0  0
   20.8520  -21.2563  -14.4496 C   0  0  0  0  0  0  0  0  0  0  0  0
   20.3386  -22.3589  -13.5764 C   0  0  0  0  0  0  0  0  0  0  0  0
   19.1361  -21.9333  -12.8096 C   0  0  2  0  0  0  0  0  0  0  0  0
   18.6696  -23.0192  -11.9359 N   0  0  0  0  0  0  0  0  0  0  0  0
   18.0253  -21.4625  -13.6575 C   0  0  0  0  0  0  0  0  0  0  0  0
   17.0981  -22.1964  -14.0625 O   0  0  0  0  0  0  0  0  0  0  0  0
   25.1549  -22.8090  -12.9461 N   0  0  0  0  0  0  0  0  0  0  0  0
   17.9495  -20.0784  -14.0786 C   0  0  1  0  0  0  0  0  0  0  0  0
   16.7531  -19.5661  -14.7228 C   0  0  0  0  0  0  0  0  0  0  0  0
   15.5381  -19.7265  -13.8260 S   0  0  0  0  0  0  0  0  0  0  0  0
   14.0183  -19.1751  -14.6590 C   0  0  0  0  0  0  0  0  0  0  0  0
   16.9254  -18.1519  -15.1068 O   0  0  0  0  0  0  0  0  0  0  0  0
   15.8541  -17.5440  -15.7709 O   0  0  0  0  0  0  0  0  0  0  0  0
  2  1  1  6
  3  2  1  0
  3  4  1  0
  4  8  1  0
  4  5  2  0
  6  2  1  0
  6  7  2  0
  9 10  1  0
 10 11  2  0
 10 12  1  0
 12 13  1  0
 14 15  1  0
 14 13  1  0
 16 15  1  6
 16 17  1  0
 17  6  1  0
 18 16  1  0
 19 18  2  0
 20 18  1  0
 21 20  1  0
 21 24  1  0
 21 22  1  6
 23 22  1  0
 24 25  1  0
 26 24  2  0
M  END
$$$$
