DRC.pdb
     RDKit          3D

 26 25  0  0  1  0  0  0  0  0999 V2000
   24.9831  -20.7982  -16.9435 N   0  0  0  0  0  0  0  0  0  0  0  0
   24.1369  -19.5950  -16.9535 C   0  0  1  0  0  0  0  0  0  0  0  0
   23.9394  -19.2241  -18.4036 C   0  0  0  0  0  0  0  0  0  0  0  0
   25.2614  -18.9041  -18.9899 C   0  0  0  0  0  0  0  0  0  0  0  0
   25.9869  -18.0589  -18.4280 O   0  0  0  0  0  0  0  0  0  0  0  0
   22.8452  -19.8612  -16.2762 C   0  0  0  0  0  0  0  0  0  0  0  0
   22.4273  -21.0528  -16.2030 O   0  0  0  0  0  0  0  0  0  0  0  0
   25.6975  -19.5338  -20.1531 O   0  0  0  0  0  0  0  0  0  0  0  0
   16.8295  -19.8216  -11.6141 N   0  0  0  0  0  0  0  0  0  0  0  0
   18.0287  -20.6034  -11.6899 C   0  0  0  0  0  0  0  0  0  0  0  0
   17.9444  -21.8801  -11.7882 N   0  0  0  0  0  0  0  0  0  0  0  0
   19.3015  -19.9799  -11.6567 N   0  0  0  0  0  0  0  0  0  0  0  0
   19.4634  -18.5424  -11.7253 C   0  0  0  0  0  0  0  0  0  0  0  0
   19.3851  -18.1213  -13.1957 C   0  0  0  0  0  0  0  0  0  0  0  0
   20.7458  -18.0969  -13.8201 C   0  0  0  0  0  0  0  0  0  0  0  0
   20.8470  -19.0641  -14.9467 C   0  0  2  0  0  0  0  0  0  0  0  0
   22.0773  -18.8331  -15.7168 N   0  0  0  0  0  0  0  0  0  0  0  0
   19.6820  -19.0492  -15.8506 C   0  0  0  0  0  0  0  0  0  0  0  0
   19.4105  -18.1042  -16.6223 O   0  0  0  0  0  0  0  0  0  0  0  0
   18.7696  -22.5023  -11.8675 N   0  0  0  0  0  0  0  0  0  0  0  0
   18.7614  -20.1671  -15.8915 C   0  0  2  0  0  0  0  0  0  0  0  0
   17.5969  -20.1346  -16.7585 C   0  0  0  0  0  0  0  0  0  0  0  0
   17.3325  -21.4992  -17.3701 S   0  0  0  0  0  0  0  0  0  0  0  0
   18.8154  -22.1602  -18.1896 C   0  0  0  0  0  0  0  0  0  0  0  0
   16.4072  -19.6604  -16.0259 O   0  0  0  0  0  0  0  0  0  0  0  0
   15.2231  -19.5342  -16.7609 O   0  0  0  0  0  0  0  0  0  0  0  0
  2  1  1  6
  3  2  1  0
  3  4  1  0
  4  8  1  0
  4  5  2  0
  6  2  1  0
  6  7  2  0
  9 10  1  0
 10 11  2  0
 10 12  1  0
 12 13  1  0
 14 15  1  0
 14 13  1  0
 16 15  1  1
 16 17  1  0
 17  6  1  0
 18 16  1  0
 19 18  2  0
 20 18  1  0
 21 20  1  0
 21 24  1  0
 21 22  1  1
 23 22  1  0
 24 25  1  0
 26 24  2  0
M  END
$$$$
