DRC.pdb
     RDKit          3D

 26 25  0  0  1  0  0  0  0  0999 V2000
   16.9795  -11.3004  -14.6056 N   0  0  0  0  0  0  0  0  0  0  0  0
   17.4783  -10.4121  -15.6668 C   0  0  1  0  0  0  0  0  0  0  0  0
   16.3455   -9.4732  -16.0050 C   0  0  0  0  0  0  0  0  0  0  0  0
   15.2384  -10.2654  -16.5888 C   0  0  0  0  0  0  0  0  0  0  0  0
   15.4971  -11.1234  -17.4568 O   0  0  0  0  0  0  0  0  0  0  0  0
   18.6803   -9.6758  -15.2072 C   0  0  0  0  0  0  0  0  0  0  0  0
   18.6396   -9.0709  -14.0970 O   0  0  0  0  0  0  0  0  0  0  0  0
   13.9226  -10.0621  -16.1801 O   0  0  0  0  0  0  0  0  0  0  0  0
   26.2708  -12.8371  -17.2331 N   0  0  0  0  0  0  0  0  0  0  0  0
   25.2116  -13.4689  -16.5026 C   0  0  0  0  0  0  0  0  0  0  0  0
   25.3625  -14.6740  -16.0880 N   0  0  0  0  0  0  0  0  0  0  0  0
   24.0038  -12.7761  -16.2361 N   0  0  0  0  0  0  0  0  0  0  0  0
   23.7978  -11.3970  -16.6270 C   0  0  0  0  0  0  0  0  0  0  0  0
   22.6455  -10.8297  -15.7930 C   0  0  0  0  0  0  0  0  0  0  0  0
   22.2629   -9.4618  -16.2664 C   0  0  0  0  0  0  0  0  0  0  0  0
   21.0784   -8.9409  -15.5311 C   0  0  2  0  0  0  0  0  0  0  0  0
   19.8560   -9.6316  -15.9657 N   0  0  0  0  0  0  0  0  0  0  0  0
   20.8972   -7.4824  -15.6511 C   0  0  0  0  0  0  0  0  0  0  0  0
   20.2448   -6.9339  -16.5653 O   0  0  0  0  0  0  0  0  0  0  0  0
   24.6731  -15.1613  -15.4866 N   0  0  0  0  0  0  0  0  0  0  0  0
   21.4863   -6.5803  -14.6826 C   0  0  1  0  0  0  0  0  0  0  0  0
   21.3505   -5.1424  -14.8333 C   0  0  0  0  0  0  0  0  0  0  0  0
   19.8888   -4.7337  -14.8836 S   0  0  0  0  0  0  0  0  0  0  0  0
   19.6939   -2.9346  -14.7030 C   0  0  0  0  0  0  0  0  0  0  0  0
   22.0463   -4.4299  -13.7446 O   0  0  0  0  0  0  0  0  0  0  0  0
   22.2281   -3.0521  -13.9082 O   0  0  0  0  0  0  0  0  0  0  0  0
  2  1  1  1
  3  2  1  0
  3  4  1  0
  4  8  1  0
  4  5  2  0
  6  2  1  0
  6  7  2  0
  9 10  1  0
 10 11  2  0
 10 12  1  0
 12 13  1  0
 14 15  1  0
 14 13  1  0
 16 15  1  6
 16 17  1  0
 17  6  1  0
 18 16  1  0
 19 18  2  0
 20 18  1  0
 21 20  1  0
 21 24  1  0
 21 22  1  6
 23 22  1  0
 24 25  1  0
 26 24  2  0
M  END
$$$$
