DRC.pdb
     RDKit          3D

 26 25  0  0  1  0  0  0  0  0999 V2000
   21.5670  -19.3962  -15.7416 N   0  0  0  0  0  0  0  0  0  0  0  0
   21.1485  -20.0160  -14.4749 C   0  0  1  0  0  0  0  0  0  0  0  0
   20.0930  -21.0363  -14.8272 C   0  0  0  0  0  0  0  0  0  0  0  0
   18.8748  -20.3179  -15.2671 C   0  0  0  0  0  0  0  0  0  0  0  0
   18.2022  -20.7826  -16.2095 O   0  0  0  0  0  0  0  0  0  0  0  0
   22.3074  -20.6409  -13.7931 C   0  0  0  0  0  0  0  0  0  0  0  0
   22.1014  -21.3646  -12.7764 O   0  0  0  0  0  0  0  0  0  0  0  0
   18.4774  -19.1380  -14.6426 O   0  0  0  0  0  0  0  0  0  0  0  0
   29.3565  -23.8581  -17.2076 N   0  0  0  0  0  0  0  0  0  0  0  0
   28.6409  -22.6162  -17.1922 C   0  0  0  0  0  0  0  0  0  0  0  0
   28.7501  -21.8127  -18.1869 N   0  0  0  0  0  0  0  0  0  0  0  0
   27.8175  -22.2698  -16.0914 N   0  0  0  0  0  0  0  0  0  0  0  0
   28.3448  -21.6537  -14.8916 C   0  0  0  0  0  0  0  0  0  0  0  0
   27.2022  -21.5181  -13.8809 C   0  0  0  0  0  0  0  0  0  0  0  0
   25.9126  -21.1937  -14.5691 C   0  0  0  0  0  0  0  0  0  0  0  0
   24.7943  -21.0559  -13.5967 C   0  0  2  0  0  0  0  0  0  0  0  0
   23.6198  -20.4527  -14.2423 N   0  0  0  0  0  0  0  0  0  0  0  0
   25.1479  -20.2896  -12.3875 C   0  0  0  0  0  0  0  0  0  0  0  0
   25.4547  -19.0779  -12.3950 O   0  0  0  0  0  0  0  0  0  0  0  0
   28.2511  -20.9060  -18.2459 N   0  0  0  0  0  0  0  0  0  0  0  0
   25.1583  -20.9238  -11.0849 C   0  0  2  0  0  0  0  0  0  0  0  0
   25.5617  -20.1809   -9.9041 C   0  0  0  0  0  0  0  0  0  0  0  0
   24.5312  -20.3133   -8.7965 S   0  0  0  0  0  0  0  0  0  0  0  0
   24.2168  -22.0566   -8.3847 C   0  0  0  0  0  0  0  0  0  0  0  0
   26.8865  -20.6241   -9.4293 O   0  0  0  0  0  0  0  0  0  0  0  0
   27.4114  -19.9601   -8.3150 O   0  0  0  0  0  0  0  0  0  0  0  0
  2  1  1  6
  3  2  1  0
  3  4  1  0
  4  8  1  0
  4  5  2  0
  6  2  1  0
  6  7  2  0
  9 10  1  0
 10 11  2  0
 10 12  1  0
 12 13  1  0
 14 15  1  0
 14 13  1  0
 16 15  1  6
 16 17  1  0
 17  6  1  0
 18 16  1  0
 19 18  2  0
 20 18  1  0
 21 20  1  0
 21 24  1  0
 21 22  1  6
 23 22  1  0
 24 25  1  0
 26 24  2  0
M  END
$$$$
