DRC.pdb
     RDKit          3D

 26 25  0  0  1  0  0  0  0  0999 V2000
   27.1937  -17.7342  -17.9704 N   0  0  0  0  0  0  0  0  0  0  0  0
   26.9241  -19.0509  -17.3726 C   0  0  1  0  0  0  0  0  0  0  0  0
   28.2621  -19.7343  -17.2239 C   0  0  0  0  0  0  0  0  0  0  0  0
   28.6823  -20.2363  -18.5526 C   0  0  0  0  0  0  0  0  0  0  0  0
   27.9845  -19.9690  -19.5517 O   0  0  0  0  0  0  0  0  0  0  0  0
   26.2393  -18.8993  -16.0663 C   0  0  0  0  0  0  0  0  0  0  0  0
   26.6733  -18.0414  -15.2443 O   0  0  0  0  0  0  0  0  0  0  0  0
   29.8400  -20.9975  -18.6945 O   0  0  0  0  0  0  0  0  0  0  0  0
   18.4747  -21.7523  -13.9843 N   0  0  0  0  0  0  0  0  0  0  0  0
   19.7004  -22.1910  -14.5844 C   0  0  0  0  0  0  0  0  0  0  0  0
   19.6661  -23.0684  -15.5202 N   0  0  0  0  0  0  0  0  0  0  0  0
   20.9448  -21.6659  -14.1536 N   0  0  0  0  0  0  0  0  0  0  0  0
   21.0435  -20.6375  -13.1388 C   0  0  0  0  0  0  0  0  0  0  0  0
   22.5017  -20.1752  -13.0657 C   0  0  0  0  0  0  0  0  0  0  0  0
   23.1055  -20.0855  -14.4328 C   0  0  0  0  0  0  0  0  0  0  0  0
   24.5415  -19.6992  -14.3712 C   0  0  2  0  0  0  0  0  0  0  0  0
   25.1286  -19.6771  -15.7184 N   0  0  0  0  0  0  0  0  0  0  0  0
   25.3516  -20.5579  -13.4876 C   0  0  0  0  0  0  0  0  0  0  0  0
   25.7165  -21.7160  -13.7842 O   0  0  0  0  0  0  0  0  0  0  0  0
   20.5150  -23.4483  -15.9781 N   0  0  0  0  0  0  0  0  0  0  0  0
   25.7802  -20.0871  -12.1862 C   0  0  2  0  0  0  0  0  0  0  0  0
   26.4519  -20.9819  -11.2606 C   0  0  0  0  0  0  0  0  0  0  0  0
   27.0506  -20.2140  -10.0952 S   0  0  0  0  0  0  0  0  0  0  0  0
   25.7926  -19.2211   -9.2356 C   0  0  0  0  0  0  0  0  0  0  0  0
   25.5288  -22.0231  -10.7700 O   0  0  0  0  0  0  0  0  0  0  0  0
   26.0952  -23.0758  -10.0424 O   0  0  0  0  0  0  0  0  0  0  0  0
  2  1  1  1
  3  2  1  0
  3  4  1  0
  4  8  1  0
  4  5  2  0
  6  2  1  0
  6  7  2  0
  9 10  1  0
 10 11  2  0
 10 12  1  0
 12 13  1  0
 14 15  1  0
 14 13  1  0
 16 15  1  6
 16 17  1  0
 17  6  1  0
 18 16  1  0
 19 18  2  0
 20 18  1  0
 21 20  1  0
 21 24  1  0
 21 22  1  6
 23 22  1  0
 24 25  1  0
 26 24  2  0
M  END
$$$$
