DRC.pdb
     RDKit          3D

 26 25  0  0  1  0  0  0  0  0999 V2000
   26.5970  -18.5998  -16.3221 N   0  0  0  0  0  0  0  0  0  0  0  0
   25.5218  -19.0874  -17.1996 C   0  0  1  0  0  0  0  0  0  0  0  0
   26.1823  -19.9603  -18.2394 C   0  0  0  0  0  0  0  0  0  0  0  0
   27.0876  -19.1166  -19.0533 C   0  0  0  0  0  0  0  0  0  0  0  0
   28.3147  -19.1520  -18.8310 O   0  0  0  0  0  0  0  0  0  0  0  0
   24.5112  -19.8386  -16.4168 C   0  0  0  0  0  0  0  0  0  0  0  0
   23.6420  -20.5193  -17.0341 O   0  0  0  0  0  0  0  0  0  0  0  0
   26.5844  -18.2914  -20.0561 O   0  0  0  0  0  0  0  0  0  0  0  0
   26.4955  -22.1387  -10.8013 N   0  0  0  0  0  0  0  0  0  0  0  0
   25.9417  -20.9503  -10.2220 C   0  0  0  0  0  0  0  0  0  0  0  0
   26.7213  -20.0996   -9.6605 N   0  0  0  0  0  0  0  0  0  0  0  0
   24.5453  -20.7087  -10.2637 N   0  0  0  0  0  0  0  0  0  0  0  0
   23.5870  -21.7485  -10.5763 C   0  0  0  0  0  0  0  0  0  0  0  0
   23.0212  -21.4742  -11.9728 C   0  0  0  0  0  0  0  0  0  0  0  0
   24.0375  -20.7989  -12.8405 C   0  0  0  0  0  0  0  0  0  0  0  0
   23.5040  -20.5394  -14.2055 C   0  0  2  0  0  0  0  0  0  0  0  0
   24.4923  -19.8154  -15.0173 N   0  0  0  0  0  0  0  0  0  0  0  0
   22.2211  -19.8122  -14.2150 C   0  0  0  0  0  0  0  0  0  0  0  0
   22.0444  -18.7032  -13.6661 O   0  0  0  0  0  0  0  0  0  0  0  0
   26.3989  -19.1855   -9.2929 N   0  0  0  0  0  0  0  0  0  0  0  0
   21.0608  -20.3650  -14.8835 C   0  0  1  0  0  0  0  0  0  0  0  0
   19.7868  -19.6688  -14.8503 C   0  0  0  0  0  0  0  0  0  0  0  0
   18.9821  -19.9413  -16.1090 S   0  0  0  0  0  0  0  0  0  0  0  0
   19.9698  -19.6467  -17.6075 C   0  0  0  0  0  0  0  0  0  0  0  0
   19.0113  -20.0451  -13.6529 O   0  0  0  0  0  0  0  0  0  0  0  0
   17.9813  -19.1783  -13.2708 O   0  0  0  0  0  0  0  0  0  0  0  0
  2  1  1  1
  3  2  1  0
  3  4  1  0
  4  8  1  0
  4  5  2  0
  6  2  1  0
  6  7  2  0
  9 10  1  0
 10 11  2  0
 10 12  1  0
 12 13  1  0
 14 15  1  0
 14 13  1  0
 16 15  1  1
 16 17  1  0
 17  6  1  0
 18 16  1  0
 19 18  2  0
 20 18  1  0
 21 20  1  0
 21 24  1  0
 21 22  1  1
 23 22  1  0
 24 25  1  0
 26 24  2  0
M  END
$$$$
