DRC.pdb
     RDKit          3D

 26 25  0  0  1  0  0  0  0  0999 V2000
   14.2045  -13.3559  -15.0117 N   0  0  0  0  0  0  0  0  0  0  0  0
   15.3099  -12.8239  -14.2000 C   0  0  1  0  0  0  0  0  0  0  0  0
   16.4988  -13.7175  -14.4598 C   0  0  0  0  0  0  0  0  0  0  0  0
   16.2432  -15.0330  -13.8290 C   0  0  0  0  0  0  0  0  0  0  0  0
   15.6894  -15.0739  -12.7118 O   0  0  0  0  0  0  0  0  0  0  0  0
   15.5939  -11.4155  -14.5662 C   0  0  0  0  0  0  0  0  0  0  0  0
   15.4183  -11.0477  -15.7636 O   0  0  0  0  0  0  0  0  0  0  0  0
   16.6127  -16.2144  -14.4673 O   0  0  0  0  0  0  0  0  0  0  0  0
   12.1569  -10.2109  -11.0975 N   0  0  0  0  0  0  0  0  0  0  0  0
   12.3932   -9.2071  -10.1017 C   0  0  0  0  0  0  0  0  0  0  0  0
   11.9752   -9.3966   -8.9033 N   0  0  0  0  0  0  0  0  0  0  0  0
   13.0813   -8.0117  -10.4293 N   0  0  0  0  0  0  0  0  0  0  0  0
   13.4620   -7.6827  -11.7872 C   0  0  0  0  0  0  0  0  0  0  0  0
   14.6486   -8.5678  -12.1797 C   0  0  0  0  0  0  0  0  0  0  0  0
   15.1379   -8.2310  -13.5540 C   0  0  0  0  0  0  0  0  0  0  0  0
   16.3047   -9.0708  -13.9393 C   0  0  2  0  0  0  0  0  0  0  0  0
   16.0498  -10.4840  -13.6260 N   0  0  0  0  0  0  0  0  0  0  0  0
   17.5746   -8.6440  -13.3233 C   0  0  0  0  0  0  0  0  0  0  0  0
   17.8608   -8.8241  -12.1200 O   0  0  0  0  0  0  0  0  0  0  0  0
   12.0903   -8.7025   -8.1421 N   0  0  0  0  0  0  0  0  0  0  0  0
   18.5898   -7.9714  -14.1081 C   0  0  1  0  0  0  0  0  0  0  0  0
   19.8324   -7.5381  -13.4942 C   0  0  0  0  0  0  0  0  0  0  0  0
   20.9883   -8.4305  -13.9112 S   0  0  0  0  0  0  0  0  0  0  0  0
   22.5756   -7.7991  -13.2873 C   0  0  0  0  0  0  0  0  0  0  0  0
   20.1231   -6.1307  -13.8284 O   0  0  0  0  0  0  0  0  0  0  0  0
   19.3342   -5.5433  -14.8238 O   0  0  0  0  0  0  0  0  0  0  0  0
  2  1  1  6
  3  2  1  0
  3  4  1  0
  4  8  1  0
  4  5  2  0
  6  2  1  0
  6  7  2  0
  9 10  1  0
 10 11  2  0
 10 12  1  0
 12 13  1  0
 14 15  1  0
 14 13  1  0
 16 15  1  1
 16 17  1  0
 17  6  1  0
 18 16  1  0
 19 18  2  0
 20 18  1  0
 21 20  1  0
 21 24  1  0
 21 22  1  1
 23 22  1  0
 24 25  1  0
 26 24  2  0
M  END
$$$$
