NTM.pdb
     RDKit          3D

 24 23  0  0  1  0  0  0  0  0999 V2000
   24.6387  -21.1400   -8.4707 N   0  0  0  0  0  0  0  0  0  0  0  0
   25.7247  -20.2455   -8.5595 C   0  0  0  0  0  0  0  0  0  0  0  0
   26.1618  -19.6960   -7.5212 O   0  0  0  0  0  0  0  0  0  0  0  0
   26.3579  -19.9419   -9.8512 C   0  0  0  0  0  0  0  0  0  0  0  0
   25.7223  -20.6629  -11.0128 C   0  0  2  0  0  0  0  0  0  0  0  0
   25.8593  -22.0769  -10.7687 N   0  0  0  0  0  0  0  0  0  0  0  0
   26.3800  -20.2498  -12.2781 C   0  0  0  0  0  0  0  0  0  0  0  0
   27.5987  -20.4368  -12.5060 O   0  0  0  0  0  0  0  0  0  0  0  0
   26.4700  -21.7218  -15.2358 C   0  0  0  0  0  0  0  0  0  0  0  0
   25.8753  -20.4108  -15.6249 C   0  0  1  0  0  0  0  0  0  0  0  0
   24.5382  -20.5035  -15.9047 O   0  0  0  0  0  0  0  0  0  0  0  0
   26.2146  -19.3511  -14.6021 C   0  0  2  0  0  0  0  0  0  0  0  0
   25.6253  -19.6027  -13.3187 N   0  0  0  0  0  0  0  0  0  0  0  0
   25.8929  -17.9782  -15.1065 C   0  0  0  0  0  0  0  0  0  0  0  0
   24.7532  -17.4779  -14.9051 O   0  0  0  0  0  0  0  0  0  0  0  0
   27.4357  -10.9037  -16.9880 C   0  0  0  0  0  0  0  0  0  0  0  0
   27.9266  -12.4524  -16.1722 S   0  0  0  0  0  0  0  0  0  0  0  0
   27.6032  -13.8239  -17.3332 C   0  0  0  0  0  0  0  0  0  0  0  0
   27.8264  -15.1510  -16.6758 C   0  0  0  0  0  0  0  0  0  0  0  0
   26.5608  -15.8618  -16.3439 C   0  0  2  0  0  0  0  0  0  0  0  0
   26.8325  -17.1989  -15.8129 N   0  0  0  0  0  0  0  0  0  0  0  0
   25.5524  -15.8763  -17.3893 C   0  0  0  0  0  0  0  0  0  0  0  0
   24.6148  -15.0678  -17.4203 O   0  0  0  0  0  0  0  0  0  0  0  0
   25.6016  -16.8225  -18.4243 O   0  0  0  0  0  0  0  0  0  0  0  0
  2  1  1  0
  2  4  1  0
  3  2  2  0
  4  5  1  0
  5  6  1  1
  5  7  1  0
  7  8  2  0
 10 12  1  0
 10  9  1  1
 10 11  1  0
 12 14  1  0
 13  7  1  0
 12 13  1  1
 14 15  2  0
 14 21  1  0
 16 17  1  0
 18 17  1  0
 19 18  1  0
 20 19  1  6
 20 22  1  0
 21 20  1  0
 22 24  1  0
 23 22  2  0
M  END
$$$$
