NTM.pdb
     RDKit          3D

 24 23  0  0  1  0  0  0  0  0999 V2000
   15.0850  -12.0910  -17.4382 N   0  0  0  0  0  0  0  0  0  0  0  0
   16.2629  -11.3618  -17.6998 C   0  0  0  0  0  0  0  0  0  0  0  0
   16.5931  -11.1217  -18.8849 O   0  0  0  0  0  0  0  0  0  0  0  0
   17.1165  -10.8753  -16.6061 C   0  0  0  0  0  0  0  0  0  0  0  0
   18.5389  -11.3677  -16.6935 C   0  0  2  0  0  0  0  0  0  0  0  0
   18.5146  -12.7932  -16.4814 N   0  0  0  0  0  0  0  0  0  0  0  0
   19.3730  -10.6685  -15.6837 C   0  0  0  0  0  0  0  0  0  0  0  0
   19.4412  -11.0318  -14.4857 O   0  0  0  0  0  0  0  0  0  0  0  0
   22.9583  -10.3600  -15.5335 C   0  0  0  0  0  0  0  0  0  0  0  0
   22.4809   -8.9477  -15.4998 C   0  0  1  0  0  0  0  0  0  0  0  0
   22.7638   -8.2705  -16.6556 O   0  0  0  0  0  0  0  0  0  0  0  0
   21.0252   -8.8903  -15.0973 C   0  0  2  0  0  0  0  0  0  0  0  0
   20.1558   -9.5178  -16.0502 N   0  0  0  0  0  0  0  0  0  0  0  0
   20.5966   -7.4896  -14.7856 C   0  0  0  0  0  0  0  0  0  0  0  0
   19.9797   -6.8070  -15.6477 O   0  0  0  0  0  0  0  0  0  0  0  0
   18.4891   -5.0105   -9.0049 C   0  0  0  0  0  0  0  0  0  0  0  0
   17.8732   -4.0388  -10.4126 S   0  0  0  0  0  0  0  0  0  0  0  0
   19.1637   -4.0444  -11.7042 C   0  0  0  0  0  0  0  0  0  0  0  0
   19.4722   -5.4398  -12.1524 C   0  0  0  0  0  0  0  0  0  0  0  0
   20.5203   -5.4989  -13.2084 C   0  0  2  0  0  0  0  0  0  0  0  0
   20.8567   -6.8851  -13.5382 N   0  0  0  0  0  0  0  0  0  0  0  0
   21.6999   -4.6845  -12.9729 C   0  0  0  0  0  0  0  0  0  0  0  0
   22.7617   -5.1593  -12.5479 O   0  0  0  0  0  0  0  0  0  0  0  0
   21.6834   -3.3039  -13.2227 O   0  0  0  0  0  0  0  0  0  0  0  0
  2  1  1  0
  2  4  1  0
  3  2  2  0
  4  5  1  0
  5  6  1  1
  5  7  1  0
  7  8  2  0
 10 12  1  0
 10  9  1  6
 10 11  1  0
 12 14  1  0
 13  7  1  0
 12 13  1  6
 14 15  2  0
 14 21  1  0
 16 17  1  0
 18 17  1  0
 19 18  1  0
 20 19  1  1
 20 22  1  0
 21 20  1  0
 22 24  1  0
 23 22  2  0
M  END
$$$$
