NTM.pdb
     RDKit          3D

 24 23  0  0  1  0  0  0  0  0999 V2000
   12.8458  -13.5231  -14.7525 N   0  0  0  0  0  0  0  0  0  0  0  0
   13.9912  -13.2221  -13.9877 C   0  0  0  0  0  0  0  0  0  0  0  0
   14.0990  -13.6803  -12.8261 O   0  0  0  0  0  0  0  0  0  0  0  0
   15.0668  -12.3770  -14.5268 C   0  0  0  0  0  0  0  0  0  0  0  0
   14.7412  -11.7811  -15.8730 C   0  0  2  0  0  0  0  0  0  0  0  0
   14.3693  -12.8666  -16.7455 N   0  0  0  0  0  0  0  0  0  0  0  0
   15.9160  -11.0320  -16.3856 C   0  0  0  0  0  0  0  0  0  0  0  0
   16.9275  -11.5956  -16.8665 O   0  0  0  0  0  0  0  0  0  0  0  0
   15.7811   -8.2327  -18.9501 C   0  0  0  0  0  0  0  0  0  0  0  0
   16.5875   -7.7227  -17.8042 C   0  0  1  0  0  0  0  0  0  0  0  0
   15.9573   -6.7133  -17.1270 O   0  0  0  0  0  0  0  0  0  0  0  0
   17.0355   -8.8652  -16.9220 C   0  0  2  0  0  0  0  0  0  0  0  0
   15.9400   -9.5935  -16.3499 N   0  0  0  0  0  0  0  0  0  0  0  0
   18.0075   -8.4055  -15.8795 C   0  0  0  0  0  0  0  0  0  0  0  0
   17.6194   -8.1908  -14.6992 O   0  0  0  0  0  0  0  0  0  0  0  0
   23.0964  -11.0548  -13.9637 C   0  0  0  0  0  0  0  0  0  0  0  0
   23.8994   -9.4237  -13.9765 S   0  0  0  0  0  0  0  0  0  0  0  0
   22.5985   -8.1609  -14.1919 C   0  0  0  0  0  0  0  0  0  0  0  0
   21.5167   -8.6512  -15.1044 C   0  0  0  0  0  0  0  0  0  0  0  0
   20.3560   -7.7225  -15.1908 C   0  0  2  0  0  0  0  0  0  0  0  0
   19.3730   -8.1989  -16.1656 N   0  0  0  0  0  0  0  0  0  0  0  0
   20.6830   -6.3193  -15.3756 C   0  0  0  0  0  0  0  0  0  0  0  0
   20.5180   -5.7345  -16.4546 O   0  0  0  0  0  0  0  0  0  0  0  0
   21.2070   -5.5569  -14.3206 O   0  0  0  0  0  0  0  0  0  0  0  0
  2  1  1  0
  2  4  1  0
  3  2  2  0
  4  5  1  0
  5  6  1  6
  5  7  1  0
  7  8  2  0
 10 12  1  0
 10  9  1  6
 10 11  1  0
 12 14  1  0
 13  7  1  0
 12 13  1  1
 14 15  2  0
 14 21  1  0
 16 17  1  0
 18 17  1  0
 19 18  1  0
 20 19  1  6
 20 22  1  0
 21 20  1  0
 22 24  1  0
 23 22  2  0
M  END
$$$$
