NTM.pdb
     RDKit          3D

 24 23  0  0  1  0  0  0  0  0999 V2000
   28.4118  -19.4937  -18.0973 N   0  0  0  0  0  0  0  0  0  0  0  0
   27.5920  -18.3475  -18.1348 C   0  0  0  0  0  0  0  0  0  0  0  0
   26.3719  -18.4489  -17.8661 O   0  0  0  0  0  0  0  0  0  0  0  0
   28.1409  -17.0293  -18.4849 C   0  0  0  0  0  0  0  0  0  0  0  0
   27.5323  -16.4404  -19.7324 C   0  0  2  0  0  0  0  0  0  0  0  0
   27.8734  -17.3106  -20.8298 N   0  0  0  0  0  0  0  0  0  0  0  0
   28.0438  -15.0615  -19.9354 C   0  0  0  0  0  0  0  0  0  0  0  0
   29.1076  -14.8122  -20.5503 O   0  0  0  0  0  0  0  0  0  0  0  0
   25.8688  -12.1178  -21.2353 C   0  0  0  0  0  0  0  0  0  0  0  0
   26.6044  -11.6570  -20.0227 C   0  0  1  0  0  0  0  0  0  0  0  0
   25.7724  -11.4273  -18.9599 O   0  0  0  0  0  0  0  0  0  0  0  0
   27.7508  -12.5916  -19.7119 C   0  0  2  0  0  0  0  0  0  0  0  0
   27.3199  -13.9287  -19.4215 N   0  0  0  0  0  0  0  0  0  0  0  0
   28.6316  -12.0405  -18.6333 C   0  0  0  0  0  0  0  0  0  0  0  0
   28.7628  -12.6583  -17.5421 O   0  0  0  0  0  0  0  0  0  0  0  0
   35.4216  -10.5395  -16.0303 C   0  0  0  0  0  0  0  0  0  0  0  0
   34.1859  -11.3884  -17.0586 S   0  0  0  0  0  0  0  0  0  0  0  0
   32.6362  -10.4261  -16.9809 C   0  0  0  0  0  0  0  0  0  0  0  0
   31.5871  -11.0206  -17.8691 C   0  0  0  0  0  0  0  0  0  0  0  0
   30.2862  -10.2989  -17.8053 C   0  0  2  0  0  0  0  0  0  0  0  0
   29.3409  -10.8313  -18.7884 N   0  0  0  0  0  0  0  0  0  0  0  0
   30.3665   -8.8490  -17.8440 C   0  0  0  0  0  0  0  0  0  0  0  0
   30.7789   -8.1800  -16.8870 O   0  0  0  0  0  0  0  0  0  0  0  0
   29.9741   -8.1363  -18.9873 O   0  0  0  0  0  0  0  0  0  0  0  0
  2  1  1  0
  2  4  1  0
  3  2  2  0
  4  5  1  0
  5  6  1  6
  5  7  1  0
  7  8  2  0
 10 12  1  0
 10  9  1  6
 10 11  1  0
 12 14  1  0
 13  7  1  0
 12 13  1  1
 14 15  2  0
 14 21  1  0
 16 17  1  0
 18 17  1  0
 19 18  1  0
 20 19  1  6
 20 22  1  0
 21 20  1  0
 22 24  1  0
 23 22  2  0
M  END
$$$$
