NTM.pdb
     RDKit          3D

 24 23  0  0  1  0  0  0  0  0999 V2000
   21.2121  -20.4624  -16.7683 N   0  0  0  0  0  0  0  0  0  0  0  0
   22.5468  -20.0191  -16.8652 C   0  0  0  0  0  0  0  0  0  0  0  0
   22.8448  -18.8620  -16.4865 O   0  0  0  0  0  0  0  0  0  0  0  0
   23.6016  -20.8897  -17.4046 C   0  0  0  0  0  0  0  0  0  0  0  0
   24.5055  -20.1936  -18.3903 C   0  0  2  0  0  0  0  0  0  0  0  0
   23.7112  -19.8704  -19.5489 N   0  0  0  0  0  0  0  0  0  0  0  0
   25.6504  -21.0762  -18.7286 C   0  0  0  0  0  0  0  0  0  0  0  0
   25.5322  -22.1071  -19.4323 O   0  0  0  0  0  0  0  0  0  0  0  0
   29.1428  -19.6856  -19.8847 C   0  0  0  0  0  0  0  0  0  0  0  0
   29.3552  -20.7401  -18.8520 C   0  0  1  0  0  0  0  0  0  0  0  0
   29.8657  -20.2369  -17.6855 O   0  0  0  0  0  0  0  0  0  0  0  0
   28.0994  -21.5606  -18.6670 C   0  0  2  0  0  0  0  0  0  0  0  0
   26.9739  -20.7750  -18.2501 N   0  0  0  0  0  0  0  0  0  0  0  0
   28.3349  -22.7277  -17.7587 C   0  0  0  0  0  0  0  0  0  0  0  0
   27.9795  -22.6745  -16.5502 O   0  0  0  0  0  0  0  0  0  0  0  0
   25.7146  -27.7814  -15.7051 C   0  0  0  0  0  0  0  0  0  0  0  0
   27.1145  -28.4879  -16.6251 S   0  0  0  0  0  0  0  0  0  0  0  0
   28.4900  -27.2889  -16.5594 C   0  0  0  0  0  0  0  0  0  0  0  0
   28.1924  -26.0806  -17.3929 C   0  0  0  0  0  0  0  0  0  0  0  0
   29.2696  -25.0537  -17.3434 C   0  0  2  0  0  0  0  0  0  0  0  0
   28.9504  -23.9151  -18.2066 N   0  0  0  0  0  0  0  0  0  0  0  0
   30.6202  -25.5454  -17.5534 C   0  0  0  0  0  0  0  0  0  0  0  0
   31.1375  -26.4012  -16.8229 O   0  0  0  0  0  0  0  0  0  0  0  0
   31.4060  -25.0628  -18.6110 O   0  0  0  0  0  0  0  0  0  0  0  0
  2  1  1  0
  2  4  1  0
  3  2  2  0
  4  5  1  0
  5  6  1  6
  5  7  1  0
  7  8  2  0
 10 12  1  0
 10  9  1  6
 10 11  1  0
 12 14  1  0
 13  7  1  0
 12 13  1  1
 14 15  2  0
 14 21  1  0
 16 17  1  0
 18 17  1  0
 19 18  1  0
 20 19  1  6
 20 22  1  0
 21 20  1  0
 22 24  1  0
 23 22  2  0
M  END
$$$$
