NTM.pdb
     RDKit          3D

 24 23  0  0  1  0  0  0  0  0999 V2000
   15.3435  -12.9308  -15.2036 N   0  0  0  0  0  0  0  0  0  0  0  0
   16.6788  -12.8240  -14.7642 C   0  0  0  0  0  0  0  0  0  0  0  0
   17.1560  -13.7048  -14.0110 O   0  0  0  0  0  0  0  0  0  0  0  0
   17.5271  -11.6947  -15.1726 C   0  0  0  0  0  0  0  0  0  0  0  0
   16.8005  -10.6736  -16.0109 C   0  0  2  0  0  0  0  0  0  0  0  0
   16.5405  -11.2766  -17.2940 N   0  0  0  0  0  0  0  0  0  0  0  0
   17.6261   -9.4453  -16.1297 C   0  0  0  0  0  0  0  0  0  0  0  0
   18.5669   -9.3327  -16.9508 O   0  0  0  0  0  0  0  0  0  0  0  0
   18.2864   -4.6679  -15.1192 C   0  0  0  0  0  0  0  0  0  0  0  0
   17.4103   -5.8684  -14.9968 C   0  0  1  0  0  0  0  0  0  0  0  0
   16.2086   -5.7081  -15.6329 O   0  0  0  0  0  0  0  0  0  0  0  0
   18.1595   -7.1148  -15.4086 C   0  0  2  0  0  0  0  0  0  0  0  0
   17.3718   -8.3075  -15.2861 N   0  0  0  0  0  0  0  0  0  0  0  0
   19.4681   -7.2317  -14.6898 C   0  0  0  0  0  0  0  0  0  0  0  0
   19.5055   -7.6534  -13.5022 O   0  0  0  0  0  0  0  0  0  0  0  0
   26.7270   -9.7548  -15.0602 C   0  0  0  0  0  0  0  0  0  0  0  0
   25.1606   -9.4158  -15.9185 S   0  0  0  0  0  0  0  0  0  0  0  0
   24.1649   -8.3168  -14.8534 C   0  0  0  0  0  0  0  0  0  0  0  0
   22.8094   -8.0769  -15.4435 C   0  0  0  0  0  0  0  0  0  0  0  0
   22.0047   -7.0831  -14.6807 C   0  0  2  0  0  0  0  0  0  0  0  0
   20.6922   -6.8842  -15.2982 N   0  0  0  0  0  0  0  0  0  0  0  0
   22.6712   -5.8275  -14.3817 C   0  0  0  0  0  0  0  0  0  0  0  0
   23.5936   -5.7435  -13.5597 O   0  0  0  0  0  0  0  0  0  0  0  0
   22.2907   -4.6394  -15.0240 O   0  0  0  0  0  0  0  0  0  0  0  0
  2  1  1  0
  2  4  1  0
  3  2  2  0
  4  5  1  0
  5  6  1  6
  5  7  1  0
  7  8  2  0
 10 12  1  0
 10  9  1  6
 10 11  1  0
 12 14  1  0
 13  7  1  0
 12 13  1  1
 14 15  2  0
 14 21  1  0
 16 17  1  0
 18 17  1  0
 19 18  1  0
 20 19  1  6
 20 22  1  0
 21 20  1  0
 22 24  1  0
 23 22  2  0
M  END
$$$$
