NTM.pdb
     RDKit          3D

 24 23  0  0  1  0  0  0  0  0999 V2000
   28.2479  -23.7277  -17.4331 N   0  0  0  0  0  0  0  0  0  0  0  0
   29.0959  -22.9288  -16.6392 C   0  0  0  0  0  0  0  0  0  0  0  0
   30.3272  -23.1625  -16.6183 O   0  0  0  0  0  0  0  0  0  0  0  0
   28.5633  -21.8224  -15.8307 C   0  0  0  0  0  0  0  0  0  0  0  0
   27.0566  -21.7809  -15.7928 C   0  0  2  0  0  0  0  0  0  0  0  0
   26.6075  -21.2855  -17.0697 N   0  0  0  0  0  0  0  0  0  0  0  0
   26.6083  -20.9174  -14.6713 C   0  0  0  0  0  0  0  0  0  0  0  0
   26.8654  -19.6918  -14.6092 O   0  0  0  0  0  0  0  0  0  0  0  0
   23.5592  -19.5519  -13.9120 C   0  0  0  0  0  0  0  0  0  0  0  0
   23.8376  -20.3623  -12.6916 C   0  0  1  0  0  0  0  0  0  0  0  0
   23.0714  -21.4952  -12.6279 O   0  0  0  0  0  0  0  0  0  0  0  0
   25.3207  -20.6178  -12.5527 C   0  0  2  0  0  0  0  0  0  0  0  0
   25.8414  -21.4673  -13.5847 N   0  0  0  0  0  0  0  0  0  0  0  0
   25.6653  -21.1222  -11.1853 C   0  0  0  0  0  0  0  0  0  0  0  0
   25.7211  -22.3615  -10.9604 O   0  0  0  0  0  0  0  0  0  0  0  0
   29.7158  -19.5013   -5.8560 C   0  0  0  0  0  0  0  0  0  0  0  0
   28.0028  -18.9821   -5.5377 S   0  0  0  0  0  0  0  0  0  0  0  0
   26.8967  -20.1091   -6.4543 C   0  0  0  0  0  0  0  0  0  0  0  0
   26.8590  -19.7614   -7.9106 C   0  0  0  0  0  0  0  0  0  0  0  0
   25.9794  -20.6615   -8.7063 C   0  0  2  0  0  0  0  0  0  0  0  0
   25.9396  -20.2506  -10.1110 N   0  0  0  0  0  0  0  0  0  0  0  0
   24.6534  -20.8926   -8.1599 C   0  0  0  0  0  0  0  0  0  0  0  0
   23.6466  -20.3140   -8.5904 O   0  0  0  0  0  0  0  0  0  0  0  0
   24.4567  -21.7967   -7.1051 O   0  0  0  0  0  0  0  0  0  0  0  0
  2  1  1  0
  2  4  1  0
  3  2  2  0
  4  5  1  0
  5  6  1  6
  5  7  1  0
  7  8  2  0
 10 12  1  0
 10  9  1  6
 10 11  1  0
 12 14  1  0
 13  7  1  0
 12 13  1  6
 14 15  2  0
 14 21  1  0
 16 17  1  0
 18 17  1  0
 19 18  1  0
 20 19  1  1
 20 22  1  0
 21 20  1  0
 22 24  1  0
 23 22  2  0
M  END
$$$$
