NTM.pdb
     RDKit          3D

 24 23  0  0  1  0  0  0  0  0999 V2000
   20.3505  -19.6020  -13.6355 N   0  0  0  0  0  0  0  0  0  0  0  0
   21.2812  -20.4871  -14.2169 C   0  0  0  0  0  0  0  0  0  0  0  0
   21.1006  -21.7241  -14.1263 O   0  0  0  0  0  0  0  0  0  0  0  0
   22.4655  -19.9867  -14.9302 C   0  0  0  0  0  0  0  0  0  0  0  0
   22.5857  -18.4839  -14.9089 C   0  0  2  0  0  0  0  0  0  0  0  0
   21.2589  -17.9437  -15.0694 N   0  0  0  0  0  0  0  0  0  0  0  0
   23.5021  -18.0402  -15.9894 C   0  0  0  0  0  0  0  0  0  0  0  0
   24.7072  -18.3820  -16.0449 O   0  0  0  0  0  0  0  0  0  0  0  0
   22.6801  -17.8984  -19.8664 C   0  0  0  0  0  0  0  0  0  0  0  0
   23.2358  -16.5894  -19.4178 C   0  0  1  0  0  0  0  0  0  0  0  0
   22.3082  -15.5832  -19.4605 O   0  0  0  0  0  0  0  0  0  0  0  0
   23.9190  -16.7356  -18.0775 C   0  0  2  0  0  0  0  0  0  0  0  0
   23.0309  -17.1792  -17.0420 N   0  0  0  0  0  0  0  0  0  0  0  0
   24.6470  -15.4846  -17.6929 C   0  0  0  0  0  0  0  0  0  0  0  0
   24.1141  -14.6552  -16.9071 O   0  0  0  0  0  0  0  0  0  0  0  0
   31.5578  -11.5789  -18.0537 C   0  0  0  0  0  0  0  0  0  0  0  0
   30.7053  -13.1815  -18.1533 S   0  0  0  0  0  0  0  0  0  0  0  0
   28.9203  -12.8821  -17.9128 C   0  0  0  0  0  0  0  0  0  0  0  0
   28.1351  -14.1477  -18.0712 C   0  0  0  0  0  0  0  0  0  0  0  0
   26.6719  -13.9598  -17.8686 C   0  0  2  0  0  0  0  0  0  0  0  0
   25.9361  -15.1863  -18.1813 N   0  0  0  0  0  0  0  0  0  0  0  0
   26.0920  -12.7896  -18.5047 C   0  0  0  0  0  0  0  0  0  0  0  0
   26.0441  -11.6848  -17.9474 O   0  0  0  0  0  0  0  0  0  0  0  0
   25.5546  -12.8654  -19.7987 O   0  0  0  0  0  0  0  0  0  0  0  0
  2  1  1  0
  2  4  1  0
  3  2  2  0
  4  5  1  0
  5  6  1  6
  5  7  1  0
  7  8  2  0
 10 12  1  0
 10  9  1  1
 10 11  1  0
 12 14  1  0
 13  7  1  0
 12 13  1  1
 14 15  2  0
 14 21  1  0
 16 17  1  0
 18 17  1  0
 19 18  1  0
 20 19  1  6
 20 22  1  0
 21 20  1  0
 22 24  1  0
 23 22  2  0
M  END
$$$$
