NTM.pdb
     RDKit          3D

 24 23  0  0  1  0  0  0  0  0999 V2000
   17.0603  -21.4907  -12.2885 N   0  0  0  0  0  0  0  0  0  0  0  0
   17.8395  -22.4674  -11.6356 C   0  0  0  0  0  0  0  0  0  0  0  0
   17.3736  -23.0674  -10.6386 O   0  0  0  0  0  0  0  0  0  0  0  0
   19.1942  -22.7978  -12.1016 C   0  0  0  0  0  0  0  0  0  0  0  0
   19.6868  -21.8897  -13.1998 C   0  0  2  0  0  0  0  0  0  0  0  0
   18.7925  -22.0443  -14.3196 N   0  0  0  0  0  0  0  0  0  0  0  0
   21.0855  -22.2430  -13.5510 C   0  0  0  0  0  0  0  0  0  0  0  0
   21.4038  -23.3443  -14.0587 O   0  0  0  0  0  0  0  0  0  0  0  0
   22.3730  -22.0229  -16.1602 C   0  0  0  0  0  0  0  0  0  0  0  0
   23.3295  -21.1133  -15.4665 C   0  0  1  0  0  0  0  0  0  0  0  0
   23.0719  -19.7919  -15.7158 O   0  0  0  0  0  0  0  0  0  0  0  0
   23.4125  -21.4540  -13.9963 C   0  0  2  0  0  0  0  0  0  0  0  0
   22.1571  -21.3114  -13.3169 N   0  0  0  0  0  0  0  0  0  0  0  0
   24.5068  -20.6903  -13.3166 C   0  0  0  0  0  0  0  0  0  0  0  0
   24.3336  -20.2280  -12.1565 O   0  0  0  0  0  0  0  0  0  0  0  0
   30.0839  -20.9350   -9.3560 C   0  0  0  0  0  0  0  0  0  0  0  0
   28.4467  -20.7637  -10.1276 S   0  0  0  0  0  0  0  0  0  0  0  0
   28.4130  -21.8271  -11.6115 C   0  0  0  0  0  0  0  0  0  0  0  0
   27.1062  -21.7051  -12.3328 C   0  0  0  0  0  0  0  0  0  0  0  0
   27.0407  -20.5202  -13.2323 C   0  0  2  0  0  0  0  0  0  0  0  0
   25.7555  -20.4611  -13.9311 N   0  0  0  0  0  0  0  0  0  0  0  0
   28.1679  -20.3480  -14.1322 C   0  0  0  0  0  0  0  0  0  0  0  0
   28.5206  -21.2254  -14.9318 O   0  0  0  0  0  0  0  0  0  0  0  0
   28.9146  -19.1600  -14.1320 O   0  0  0  0  0  0  0  0  0  0  0  0
  2  1  1  0
  2  4  1  0
  3  2  2  0
  4  5  1  0
  5  6  1  6
  5  7  1  0
  7  8  2  0
 10 12  1  0
 10  9  1  1
 10 11  1  0
 12 14  1  0
 13  7  1  0
 12 13  1  1
 14 15  2  0
 14 21  1  0
 16 17  1  0
 18 17  1  0
 19 18  1  0
 20 19  1  6
 20 22  1  0
 21 20  1  0
 22 24  1  0
 23 22  2  0
M  END
$$$$
