NTM.pdb
     RDKit          3D

 24 23  0  0  1  0  0  0  0  0999 V2000
   29.3775  -23.6397  -17.9066 N   0  0  0  0  0  0  0  0  0  0  0  0
   28.4821  -23.8520  -16.8385 C   0  0  0  0  0  0  0  0  0  0  0  0
   28.4039  -24.9864  -16.3112 O   0  0  0  0  0  0  0  0  0  0  0  0
   27.6332  -22.7653  -16.3285 C   0  0  0  0  0  0  0  0  0  0  0  0
   27.6656  -21.5274  -17.1887 C   0  0  2  0  0  0  0  0  0  0  0  0
   29.0324  -21.0721  -17.2363 N   0  0  0  0  0  0  0  0  0  0  0  0
   26.7559  -20.5003  -16.6213 C   0  0  0  0  0  0  0  0  0  0  0  0
   26.9442  -19.9654  -15.5031 O   0  0  0  0  0  0  0  0  0  0  0  0
   26.1688  -17.2208  -18.0048 C   0  0  0  0  0  0  0  0  0  0  0  0
   24.8017  -17.8000  -17.8660 C   0  0  1  0  0  0  0  0  0  0  0  0
   24.2334  -18.0994  -19.0751 O   0  0  0  0  0  0  0  0  0  0  0  0
   24.8127  -18.9555  -16.8919 C   0  0  2  0  0  0  0  0  0  0  0  0
   25.5937  -20.0676  -17.3514 N   0  0  0  0  0  0  0  0  0  0  0  0
   23.4236  -19.3660  -16.5112 C   0  0  0  0  0  0  0  0  0  0  0  0
   22.9637  -20.4779  -16.8878 O   0  0  0  0  0  0  0  0  0  0  0  0
   19.5179  -15.3371  -13.2642 C   0  0  0  0  0  0  0  0  0  0  0  0
   18.5868  -16.8591  -12.9156 S   0  0  0  0  0  0  0  0  0  0  0  0
   19.2458  -18.1778  -13.9929 C   0  0  0  0  0  0  0  0  0  0  0  0
   20.6675  -17.9020  -14.3748 C   0  0  0  0  0  0  0  0  0  0  0  0
   21.2213  -18.8975  -15.3336 C   0  0  2  0  0  0  0  0  0  0  0  0
   22.5862  -18.5443  -15.7284 N   0  0  0  0  0  0  0  0  0  0  0  0
   20.3790  -19.2106  -16.4750 C   0  0  0  0  0  0  0  0  0  0  0  0
   19.5917  -20.1665  -16.4782 O   0  0  0  0  0  0  0  0  0  0  0  0
   20.4237  -18.4284  -17.6391 O   0  0  0  0  0  0  0  0  0  0  0  0
  2  1  1  0
  2  4  1  0
  3  2  2  0
  4  5  1  0
  5  6  1  1
  5  7  1  0
  7  8  2  0
 10 12  1  0
 10  9  1  6
 10 11  1  0
 12 14  1  0
 13  7  1  0
 12 13  1  6
 14 15  2  0
 14 21  1  0
 16 17  1  0
 18 17  1  0
 19 18  1  0
 20 19  1  6
 20 22  1  0
 21 20  1  0
 22 24  1  0
 23 22  2  0
M  END
$$$$
