NTM.pdb
     RDKit          3D

 24 23  0  0  1  0  0  0  0  0999 V2000
   29.2239  -16.8427  -16.8178 N   0  0  0  0  0  0  0  0  0  0  0  0
   28.9483  -18.0280  -16.1061 C   0  0  0  0  0  0  0  0  0  0  0  0
   29.4492  -19.1114  -16.4885 O   0  0  0  0  0  0  0  0  0  0  0  0
   28.0806  -18.0197  -14.9192 C   0  0  0  0  0  0  0  0  0  0  0  0
   26.9247  -18.9829  -15.0169 C   0  0  2  0  0  0  0  0  0  0  0  0
   26.1016  -18.5568  -16.1209 N   0  0  0  0  0  0  0  0  0  0  0  0
   26.1748  -18.9957  -13.7356 C   0  0  0  0  0  0  0  0  0  0  0  0
   25.7655  -17.9519  -13.1744 O   0  0  0  0  0  0  0  0  0  0  0  0
   23.1525  -21.0153  -10.6092 C   0  0  0  0  0  0  0  0  0  0  0  0
   23.8479  -21.0092  -11.9283 C   0  0  1  0  0  0  0  0  0  0  0  0
   23.0357  -20.5901  -12.9477 O   0  0  0  0  0  0  0  0  0  0  0  0
   25.1532  -20.2529  -11.8352 C   0  0  2  0  0  0  0  0  0  0  0  0
   25.8809  -20.2380  -13.0713 N   0  0  0  0  0  0  0  0  0  0  0  0
   25.9929  -20.7449  -10.6969 C   0  0  0  0  0  0  0  0  0  0  0  0
   26.5294  -21.8847  -10.7491 O   0  0  0  0  0  0  0  0  0  0  0  0
   30.1750  -19.6507   -5.1821 C   0  0  0  0  0  0  0  0  0  0  0  0
   28.4783  -19.0290   -4.9822 S   0  0  0  0  0  0  0  0  0  0  0  0
   27.3671  -20.1165   -5.9395 C   0  0  0  0  0  0  0  0  0  0  0  0
   27.1870  -19.6080   -7.3367 C   0  0  0  0  0  0  0  0  0  0  0  0
   26.3891  -20.5249   -8.1968 C   0  0  2  0  0  0  0  0  0  0  0  0
   26.2182  -19.9695   -9.5406 N   0  0  0  0  0  0  0  0  0  0  0  0
   25.1369  -20.9930   -7.6284 C   0  0  0  0  0  0  0  0  0  0  0  0
   24.0639  -20.4005   -7.8049 O   0  0  0  0  0  0  0  0  0  0  0  0
   25.0920  -22.1555   -6.8440 O   0  0  0  0  0  0  0  0  0  0  0  0
  2  1  1  0
  2  4  1  0
  3  2  2  0
  4  5  1  0
  5  6  1  6
  5  7  1  0
  7  8  2  0
 10 12  1  0
 10  9  1  1
 10 11  1  0
 12 14  1  0
 13  7  1  0
 12 13  1  6
 14 15  2  0
 14 21  1  0
 16 17  1  0
 18 17  1  0
 19 18  1  0
 20 19  1  1
 20 22  1  0
 21 20  1  0
 22 24  1  0
 23 22  2  0
M  END
$$$$
