NTM.pdb
     RDKit          3D

 24 23  0  0  1  0  0  0  0  0999 V2000
   27.4138  -21.4284  -11.8151 N   0  0  0  0  0  0  0  0  0  0  0  0
   27.2452  -20.3637  -12.7236 C   0  0  0  0  0  0  0  0  0  0  0  0
   28.2256  -19.6417  -13.0215 O   0  0  0  0  0  0  0  0  0  0  0  0
   25.9367  -20.0807  -13.3314 C   0  0  0  0  0  0  0  0  0  0  0  0
   24.8326  -20.9673  -12.8135 C   0  0  2  0  0  0  0  0  0  0  0  0
   25.3750  -22.2960  -12.6790 N   0  0  0  0  0  0  0  0  0  0  0  0
   23.6799  -20.9283  -13.7484 C   0  0  0  0  0  0  0  0  0  0  0  0
   23.6944  -21.4835  -14.8725 O   0  0  0  0  0  0  0  0  0  0  0  0
   20.6196  -22.6002  -13.6416 C   0  0  0  0  0  0  0  0  0  0  0  0
   20.2121  -21.1658  -13.6491 C   0  0  1  0  0  0  0  0  0  0  0  0
   19.7653  -20.7409  -12.4267 O   0  0  0  0  0  0  0  0  0  0  0  0
   21.3103  -20.3065  -14.2320 C   0  0  2  0  0  0  0  0  0  0  0  0
   22.4706  -20.2346  -13.3916 N   0  0  0  0  0  0  0  0  0  0  0  0
   20.8042  -18.9472  -14.6053 C   0  0  0  0  0  0  0  0  0  0  0  0
   20.9399  -17.9781  -13.8104 O   0  0  0  0  0  0  0  0  0  0  0  0
   18.4180  -14.2756  -20.5429 C   0  0  0  0  0  0  0  0  0  0  0  0
   19.0653  -15.9024  -20.0533 S   0  0  0  0  0  0  0  0  0  0  0  0
   19.0952  -15.9671  -18.2288 C   0  0  0  0  0  0  0  0  0  0  0  0
   19.6105  -17.2873  -17.7444 C   0  0  0  0  0  0  0  0  0  0  0  0
   19.6774  -17.3824  -16.2599 C   0  0  2  0  0  0  0  0  0  0  0  0
   20.1683  -18.6959  -15.8388 N   0  0  0  0  0  0  0  0  0  0  0  0
   18.4747  -16.9871  -15.5476 C   0  0  0  0  0  0  0  0  0  0  0  0
   17.6392  -17.8083  -15.1462 O   0  0  0  0  0  0  0  0  0  0  0  0
   18.2074  -15.6358  -15.2803 O   0  0  0  0  0  0  0  0  0  0  0  0
  2  1  1  0
  2  4  1  0
  3  2  2  0
  4  5  1  0
  5  6  1  6
  5  7  1  0
  7  8  2  0
 10 12  1  0
 10  9  1  1
 10 11  1  0
 12 14  1  0
 13  7  1  0
 12 13  1  1
 14 15  2  0
 14 21  1  0
 16 17  1  0
 18 17  1  0
 19 18  1  0
 20 19  1  6
 20 22  1  0
 21 20  1  0
 22 24  1  0
 23 22  2  0
M  END
$$$$
