NTM.pdb
     RDKit          3D

 24 23  0  0  1  0  0  0  0  0999 V2000
   28.0682  -24.3309  -16.8309 N   0  0  0  0  0  0  0  0  0  0  0  0
   28.9464  -23.2595  -16.5694 C   0  0  0  0  0  0  0  0  0  0  0  0
   30.1844  -23.4396  -16.6467 O   0  0  0  0  0  0  0  0  0  0  0  0
   28.4377  -21.9289  -16.2054 C   0  0  0  0  0  0  0  0  0  0  0  0
   26.9642  -21.9190  -15.8859 C   0  0  2  0  0  0  0  0  0  0  0  0
   26.2626  -21.5874  -17.1006 N   0  0  0  0  0  0  0  0  0  0  0  0
   26.6942  -20.9410  -14.8019 C   0  0  0  0  0  0  0  0  0  0  0  0
   26.8431  -19.7045  -14.9463 O   0  0  0  0  0  0  0  0  0  0  0  0
   24.3395  -19.1720  -14.1264 C   0  0  0  0  0  0  0  0  0  0  0  0
   24.3455  -19.9619  -12.8617 C   0  0  1  0  0  0  0  0  0  0  0  0
   23.4005  -20.9526  -12.8573 O   0  0  0  0  0  0  0  0  0  0  0  0
   25.7420  -20.4468  -12.5470 C   0  0  2  0  0  0  0  0  0  0  0  0
   26.2392  -21.3855  -13.5110 N   0  0  0  0  0  0  0  0  0  0  0  0
   25.8375  -20.9759  -11.1492 C   0  0  0  0  0  0  0  0  0  0  0  0
   25.6548  -22.2021  -10.9199 O   0  0  0  0  0  0  0  0  0  0  0  0
   28.3561  -19.6952   -3.7625 C   0  0  0  0  0  0  0  0  0  0  0  0
   28.2392  -19.0387   -5.4538 S   0  0  0  0  0  0  0  0  0  0  0  0
   27.0975  -20.1105   -6.3927 C   0  0  0  0  0  0  0  0  0  0  0  0
   27.0494  -19.7136   -7.8361 C   0  0  0  0  0  0  0  0  0  0  0  0
   26.1818  -20.6000   -8.6599 C   0  0  2  0  0  0  0  0  0  0  0  0
   26.1326  -20.1429  -10.0500 N   0  0  0  0  0  0  0  0  0  0  0  0
   24.8608  -20.8695   -8.1192 C   0  0  0  0  0  0  0  0  0  0  0  0
   23.8305  -20.3886   -8.6100 O   0  0  0  0  0  0  0  0  0  0  0  0
   24.6963  -21.7006   -7.0007 O   0  0  0  0  0  0  0  0  0  0  0  0
  2  1  1  0
  2  4  1  0
  3  2  2  0
  4  5  1  0
  5  6  1  6
  5  7  1  0
  7  8  2  0
 10 12  1  0
 10  9  1  6
 10 11  1  0
 12 14  1  0
 13  7  1  0
 12 13  1  6
 14 15  2  0
 14 21  1  0
 16 17  1  0
 18 17  1  0
 19 18  1  0
 20 19  1  1
 20 22  1  0
 21 20  1  0
 22 24  1  0
 23 22  2  0
M  END
$$$$
