NTM.pdb
     RDKit          3D

 24 23  0  0  1  0  0  0  0  0999 V2000
   16.2987  -13.9271  -15.3416 N   0  0  0  0  0  0  0  0  0  0  0  0
   17.5369  -13.6217  -14.7406 C   0  0  0  0  0  0  0  0  0  0  0  0
   17.9245  -14.2830  -13.7489 O   0  0  0  0  0  0  0  0  0  0  0  0
   18.3867  -12.5379  -15.2551 C   0  0  0  0  0  0  0  0  0  0  0  0
   17.7611  -11.7788  -16.3978 C   0  0  2  0  0  0  0  0  0  0  0  0
   17.7696  -12.6479  -17.5477 N   0  0  0  0  0  0  0  0  0  0  0  0
   18.5200  -10.5261  -16.6409 C   0  0  0  0  0  0  0  0  0  0  0  0
   19.6383  -10.5052  -17.2075 O   0  0  0  0  0  0  0  0  0  0  0  0
   18.7204   -5.5821  -16.5154 C   0  0  0  0  0  0  0  0  0  0  0  0
   17.8866   -6.8024  -16.3173 C   0  0  1  0  0  0  0  0  0  0  0  0
   16.7777   -6.8164  -17.1203 O   0  0  0  0  0  0  0  0  0  0  0  0
   18.7363   -8.0476  -16.4255 C   0  0  2  0  0  0  0  0  0  0  0  0
   17.9880   -9.2551  -16.2255 N   0  0  0  0  0  0  0  0  0  0  0  0
   19.9331   -7.9754  -15.5281 C   0  0  0  0  0  0  0  0  0  0  0  0
   19.8083   -8.1554  -14.2864 O   0  0  0  0  0  0  0  0  0  0  0  0
   25.6495  -11.0664  -15.2157 C   0  0  0  0  0  0  0  0  0  0  0  0
   26.1165   -9.3477  -15.5807 S   0  0  0  0  0  0  0  0  0  0  0  0
   24.8046   -8.2598  -14.9255 C   0  0  0  0  0  0  0  0  0  0  0  0
   23.5356   -8.4152  -15.7056 C   0  0  0  0  0  0  0  0  0  0  0  0
   22.4192   -7.5800  -15.1828 C   0  0  2  0  0  0  0  0  0  0  0  0
   21.2271   -7.7104  -16.0226 N   0  0  0  0  0  0  0  0  0  0  0  0
   22.7474   -6.1935  -14.8998 C   0  0  0  0  0  0  0  0  0  0  0  0
   23.1454   -5.8177  -13.7890 O   0  0  0  0  0  0  0  0  0  0  0  0
   22.6254   -5.2079  -15.8910 O   0  0  0  0  0  0  0  0  0  0  0  0
  2  1  1  0
  2  4  1  0
  3  2  2  0
  4  5  1  0
  5  6  1  6
  5  7  1  0
  7  8  2  0
 10 12  1  0
 10  9  1  6
 10 11  1  0
 12 14  1  0
 13  7  1  0
 12 13  1  1
 14 15  2  0
 14 21  1  0
 16 17  1  0
 18 17  1  0
 19 18  1  0
 20 19  1  6
 20 22  1  0
 21 20  1  0
 22 24  1  0
 23 22  2  0
M  END
$$$$
