MYE.pdb
     RDKit          3D

 30 30  0  0  1  0  0  0  0  0999 V2000
   30.8156   -7.4336  -17.8771 C   0  0  0  0  0  0  0  0  0  0  0  0
   30.8719   -9.2246  -17.8978 S   0  0  0  0  0  0  0  0  0  0  0  0
   29.7294   -9.9454  -19.1061 C   0  0  0  0  0  0  0  0  0  0  0  0
   28.2876   -9.6885  -18.7277 C   0  0  0  0  0  0  0  0  0  0  0  0
   27.6963  -10.8288  -17.9308 C   0  0  2  0  0  0  0  0  0  0  0  0
   27.7544  -12.0811  -18.6744 N   0  0  0  0  0  0  0  0  0  0  0  0
   26.2850  -10.5773  -17.5400 C   0  0  0  0  0  0  0  0  0  0  0  0
   25.3293  -10.8389  -18.3387 O   0  0  0  0  0  0  0  0  0  0  0  0
   19.0558   -9.4798  -12.4844 O   0  0  0  0  0  0  0  0  0  0  0  0
   20.3393   -9.7261  -12.9935 C   0  0  0  0  0  0  0  0  0  0  0  0
   21.4582   -9.2490  -12.3700 C   0  0  0  0  0  0  0  0  0  0  0  0
   22.7284   -9.5031  -12.8897 C   0  0  0  0  0  0  0  0  0  0  0  0
   22.9004  -10.2361  -14.0376 C   0  0  0  0  0  0  0  0  0  0  0  0
   24.2163  -10.5098  -14.5886 C   0  0  0  0  0  0  0  0  0  0  0  0
   24.5614   -9.7896  -15.8535 C   0  0  2  0  0  0  0  0  0  0  0  0
   25.9277  -10.0396  -16.2737 N   0  0  0  0  0  0  0  0  0  0  0  0
   24.2473   -8.3680  -15.8980 C   0  0  0  0  0  0  0  0  0  0  0  0
   25.1480   -7.5394  -15.5218 O   0  0  0  0  0  0  0  0  0  0  0  0
   21.7708  -10.7128  -14.6596 C   0  0  0  0  0  0  0  0  0  0  0  0
   20.5031  -10.4696  -14.1571 C   0  0  0  0  0  0  0  0  0  0  0  0
   23.0341   -7.7817  -16.3213 N   0  0  0  0  0  0  0  0  0  0  0  0
   22.8144   -6.3282  -16.2678 C   0  0  1  0  0  0  0  0  0  0  0  0
   22.0301   -5.8825  -17.4578 C   0  0  0  0  0  0  0  0  0  0  0  0
   22.7880   -4.9146  -18.3171 C   0  0  0  0  0  0  0  0  0  0  0  0
   21.9816   -4.5062  -19.5103 C   0  0  0  0  0  0  0  0  0  0  0  0
   20.8169   -4.9225  -19.7033 O   0  0  0  0  0  0  0  0  0  0  0  0
   22.1699   -5.9429  -15.0045 C   0  0  0  0  0  0  0  0  0  0  0  0
   22.5583   -4.7359  -14.4118 O   0  0  0  0  0  0  0  0  0  0  0  0
   22.5513   -3.6392  -20.4245 O   0  0  0  0  0  0  0  0  0  0  0  0
   21.3048   -6.6013  -14.4134 O   0  0  0  0  0  0  0  0  0  0  0  0
  2  1  1  0
  3  2  1  0
  4  5  1  0
  4  3  1  0
  5  6  1  6
  7  5  1  0
  7  8  2  0
  9 10  1  0
 10 20  2  0
 10 11  1  0
 11 12  2  0
 12 13  1  0
 13 14  1  0
 15 14  1  1
 15 16  1  0
 16  7  1  0
 17 15  1  0
 18 17  2  0
 19 13  2  0
 20 19  1  0
 21 17  1  0
 22 21  1  0
 22 27  1  0
 22 23  1  6
 24 23  1  0
 25 24  1  0
 26 25  2  0
 27 28  1  0
 29 25  1  0
 30 27  2  0
M  END
$$$$
