MYE.pdb
     RDKit          3D

 30 30  0  0  1  0  0  0  0  0999 V2000
   16.2409  -13.9066  -15.0381 C   0  0  0  0  0  0  0  0  0  0  0  0
   16.3074  -14.7627  -13.4654 S   0  0  0  0  0  0  0  0  0  0  0  0
   15.4031  -13.8926  -12.1577 C   0  0  0  0  0  0  0  0  0  0  0  0
   15.6089  -12.3965  -12.2425 C   0  0  0  0  0  0  0  0  0  0  0  0
   14.8264  -11.6532  -11.1840 C   0  0  2  0  0  0  0  0  0  0  0  0
   13.3919  -11.8551  -11.3459 N   0  0  0  0  0  0  0  0  0  0  0  0
   15.1014  -10.1932  -11.1942 C   0  0  0  0  0  0  0  0  0  0  0  0
   14.2792   -9.3770  -11.7212 O   0  0  0  0  0  0  0  0  0  0  0  0
   11.8092   -5.9660   -6.9717 O   0  0  0  0  0  0  0  0  0  0  0  0
   13.0155   -6.3891   -7.5488 C   0  0  0  0  0  0  0  0  0  0  0  0
   13.2754   -7.7126   -7.7700 C   0  0  0  0  0  0  0  0  0  0  0  0
   14.4809   -8.1172   -8.3453 C   0  0  0  0  0  0  0  0  0  0  0  0
   15.4435   -7.2081   -8.7079 C   0  0  0  0  0  0  0  0  0  0  0  0
   16.7017   -7.6147   -9.3093 C   0  0  0  0  0  0  0  0  0  0  0  0
   16.6115   -8.2224  -10.6733 C   0  0  2  0  0  0  0  0  0  0  0  0
   16.2780   -9.6339  -10.6256 N   0  0  0  0  0  0  0  0  0  0  0  0
   17.7322   -7.9748  -11.5702 C   0  0  0  0  0  0  0  0  0  0  0  0
   18.7726   -8.7118  -11.4528 O   0  0  0  0  0  0  0  0  0  0  0  0
   15.1756   -5.8786   -8.4826 C   0  0  0  0  0  0  0  0  0  0  0  0
   13.9844   -5.4604   -7.9126 C   0  0  0  0  0  0  0  0  0  0  0  0
   17.8057   -6.9925  -12.5823 N   0  0  0  0  0  0  0  0  0  0  0  0
   18.9947   -6.8453  -13.4359 C   0  0  1  0  0  0  0  0  0  0  0  0
   18.6780   -5.9850  -14.6147 C   0  0  0  0  0  0  0  0  0  0  0  0
   19.8720   -5.7466  -15.4905 C   0  0  0  0  0  0  0  0  0  0  0  0
   19.5319   -4.8390  -16.6313 C   0  0  0  0  0  0  0  0  0  0  0  0
   18.9295   -5.2448  -17.6509 O   0  0  0  0  0  0  0  0  0  0  0  0
   20.1324   -6.3276  -12.6630 C   0  0  0  0  0  0  0  0  0  0  0  0
   21.4226   -6.6119  -13.1254 O   0  0  0  0  0  0  0  0  0  0  0  0
   19.8996   -3.5087  -16.5465 O   0  0  0  0  0  0  0  0  0  0  0  0
   20.0467   -5.6557  -11.6274 O   0  0  0  0  0  0  0  0  0  0  0  0
  2  1  1  0
  3  2  1  0
  4  5  1  0
  4  3  1  0
  5  6  1  6
  7  5  1  0
  7  8  2  0
  9 10  1  0
 10 20  2  0
 10 11  1  0
 11 12  2  0
 12 13  1  0
 13 14  1  0
 15 14  1  1
 15 16  1  0
 16  7  1  0
 17 15  1  0
 18 17  2  0
 19 13  2  0
 20 19  1  0
 21 17  1  0
 22 21  1  0
 22 27  1  0
 22 23  1  6
 24 23  1  0
 25 24  1  0
 26 25  2  0
 27 28  1  0
 29 25  1  0
 30 27  2  0
M  END
$$$$
