MYE.pdb
     RDKit          3D

 30 30  0  0  1  0  0  0  0  0999 V2000
   27.7172  -15.9011  -15.9212 C   0  0  0  0  0  0  0  0  0  0  0  0
   28.7884  -16.7078  -17.1097 S   0  0  0  0  0  0  0  0  0  0  0  0
   27.9735  -18.0830  -17.9640 C   0  0  0  0  0  0  0  0  0  0  0  0
   26.9781  -18.7822  -17.0650 C   0  0  0  0  0  0  0  0  0  0  0  0
   27.6357  -19.8248  -16.1898 C   0  0  2  0  0  0  0  0  0  0  0  0
   28.1932  -20.9105  -16.9867 N   0  0  0  0  0  0  0  0  0  0  0  0
   26.6979  -20.4042  -15.1937 C   0  0  0  0  0  0  0  0  0  0  0  0
   25.9233  -21.3643  -15.5067 O   0  0  0  0  0  0  0  0  0  0  0  0
   22.6626  -21.8450   -7.3197 O   0  0  0  0  0  0  0  0  0  0  0  0
   23.5138  -21.4220   -8.3511 C   0  0  0  0  0  0  0  0  0  0  0  0
   23.1630  -20.4051   -9.1943 C   0  0  0  0  0  0  0  0  0  0  0  0
   24.0216  -19.9960  -10.2157 C   0  0  0  0  0  0  0  0  0  0  0  0
   25.2414  -20.5949  -10.4104 C   0  0  0  0  0  0  0  0  0  0  0  0
   26.1458  -20.1782  -11.4680 C   0  0  0  0  0  0  0  0  0  0  0  0
   25.6881  -20.4459  -12.8668 C   0  0  2  0  0  0  0  0  0  0  0  0
   26.6137  -19.9278  -13.8571 N   0  0  0  0  0  0  0  0  0  0  0  0
   24.3152  -20.0761  -13.1831 C   0  0  0  0  0  0  0  0  0  0  0  0
   24.1068  -18.9307  -13.7160 O   0  0  0  0  0  0  0  0  0  0  0  0
   25.5879  -21.6170   -9.5587 C   0  0  0  0  0  0  0  0  0  0  0  0
   24.7475  -22.0351   -8.5402 C   0  0  0  0  0  0  0  0  0  0  0  0
   23.1571  -20.8552  -12.9670 N   0  0  0  0  0  0  0  0  0  0  0  0
   21.8331  -20.4259  -13.4429 C   0  0  1  0  0  0  0  0  0  0  0  0
   21.8310  -20.3220  -14.9326 C   0  0  0  0  0  0  0  0  0  0  0  0
   20.4693  -20.0252  -15.4869 C   0  0  0  0  0  0  0  0  0  0  0  0
   20.4883  -20.0063  -16.9836 C   0  0  0  0  0  0  0  0  0  0  0  0
   21.5101  -20.3049  -17.6423 O   0  0  0  0  0  0  0  0  0  0  0  0
   20.7826  -21.3275  -12.9497 C   0  0  0  0  0  0  0  0  0  0  0  0
   19.5424  -20.7697  -12.6184 O   0  0  0  0  0  0  0  0  0  0  0  0
   19.3330  -19.6456  -17.6522 O   0  0  0  0  0  0  0  0  0  0  0  0
   20.9019  -22.5500  -12.8000 O   0  0  0  0  0  0  0  0  0  0  0  0
  2  1  1  0
  3  2  1  0
  4  5  1  0
  4  3  1  0
  5  6  1  6
  7  5  1  0
  7  8  2  0
  9 10  1  0
 10 20  2  0
 10 11  1  0
 11 12  2  0
 12 13  1  0
 13 14  1  0
 15 14  1  1
 15 16  1  0
 16  7  1  0
 17 15  1  0
 18 17  2  0
 19 13  2  0
 20 19  1  0
 21 17  1  0
 22 21  1  0
 22 27  1  0
 22 23  1  6
 24 23  1  0
 25 24  1  0
 26 25  2  0
 27 28  1  0
 29 25  1  0
 30 27  2  0
M  END
$$$$
