MYE.pdb
     RDKit          3D

 30 30  0  0  1  0  0  0  0  0999 V2000
   27.8207  -20.8288  -22.3503 C   0  0  0  0  0  0  0  0  0  0  0  0
   27.1174  -21.4185  -20.8112 S   0  0  0  0  0  0  0  0  0  0  0  0
   26.4269  -20.0815  -19.8012 C   0  0  0  0  0  0  0  0  0  0  0  0
   25.7308  -20.6191  -18.5706 C   0  0  0  0  0  0  0  0  0  0  0  0
   26.6175  -21.5507  -17.7762 C   0  0  2  0  0  0  0  0  0  0  0  0
   26.7450  -22.8470  -18.4303 N   0  0  0  0  0  0  0  0  0  0  0  0
   26.1198  -21.7673  -16.3931 C   0  0  0  0  0  0  0  0  0  0  0  0
   25.2060  -22.6201  -16.1534 O   0  0  0  0  0  0  0  0  0  0  0  0
   25.0357  -20.3238   -7.6080 O   0  0  0  0  0  0  0  0  0  0  0  0
   25.5373  -20.4403   -8.9127 C   0  0  0  0  0  0  0  0  0  0  0  0
   25.9205  -21.6483   -9.4248 C   0  0  0  0  0  0  0  0  0  0  0  0
   26.4177  -21.7472  -10.7252 C   0  0  0  0  0  0  0  0  0  0  0  0
   26.5395  -20.6436  -11.5326 C   0  0  0  0  0  0  0  0  0  0  0  0
   27.0533  -20.7322  -12.8884 C   0  0  0  0  0  0  0  0  0  0  0  0
   26.0630  -21.1144  -13.9423 C   0  0  2  0  0  0  0  0  0  0  0  0
   26.6270  -21.0469  -15.2776 N   0  0  0  0  0  0  0  0  0  0  0  0
   24.7651  -20.4557  -13.8837 C   0  0  0  0  0  0  0  0  0  0  0  0
   24.6474  -19.3054  -14.4334 O   0  0  0  0  0  0  0  0  0  0  0  0
   26.1523  -19.4319  -11.0111 C   0  0  0  0  0  0  0  0  0  0  0  0
   25.6570  -19.3165   -9.7227 C   0  0  0  0  0  0  0  0  0  0  0  0
   23.5901  -20.9523  -13.2775 N   0  0  0  0  0  0  0  0  0  0  0  0
   22.3518  -20.1603  -13.2209 C   0  0  1  0  0  0  0  0  0  0  0  0
   21.9058  -19.8041  -14.6008 C   0  0  0  0  0  0  0  0  0  0  0  0
   21.3844  -20.9874  -15.3606 C   0  0  0  0  0  0  0  0  0  0  0  0
   20.9004  -20.5859  -16.7191 C   0  0  0  0  0  0  0  0  0  0  0  0
   19.7793  -20.0590  -16.8997 O   0  0  0  0  0  0  0  0  0  0  0  0
   21.3092  -20.8729  -12.4693 C   0  0  0  0  0  0  0  0  0  0  0  0
   21.5922  -22.1694  -12.0243 O   0  0  0  0  0  0  0  0  0  0  0  0
   21.7270  -20.8086  -17.8050 O   0  0  0  0  0  0  0  0  0  0  0  0
   20.1909  -20.4205  -12.1939 O   0  0  0  0  0  0  0  0  0  0  0  0
  2  1  1  0
  3  2  1  0
  4  5  1  0
  4  3  1  0
  5  6  1  6
  7  5  1  0
  7  8  2  0
  9 10  1  0
 10 20  2  0
 10 11  1  0
 11 12  2  0
 12 13  1  0
 13 14  1  0
 15 14  1  1
 15 16  1  0
 16  7  1  0
 17 15  1  0
 18 17  2  0
 19 13  2  0
 20 19  1  0
 21 17  1  0
 22 21  1  0
 22 27  1  0
 22 23  1  6
 24 23  1  0
 25 24  1  0
 26 25  2  0
 27 28  1  0
 29 25  1  0
 30 27  2  0
M  END
$$$$
