MYE.pdb
     RDKit          3D

 30 30  0  0  1  0  0  0  0  0999 V2000
   26.7701   -9.1311  -15.5127 C   0  0  0  0  0  0  0  0  0  0  0  0
   25.9670  -10.6314  -14.9514 S   0  0  0  0  0  0  0  0  0  0  0  0
   25.4460  -11.6989  -16.3203 C   0  0  0  0  0  0  0  0  0  0  0  0
   24.4634  -10.9947  -17.2295 C   0  0  0  0  0  0  0  0  0  0  0  0
   23.0372  -11.1439  -16.7510 C   0  0  2  0  0  0  0  0  0  0  0  0
   22.5473  -12.5007  -16.9602 N   0  0  0  0  0  0  0  0  0  0  0  0
   22.1099  -10.1985  -17.4246 C   0  0  0  0  0  0  0  0  0  0  0  0
   21.7983  -10.3497  -18.6493 O   0  0  0  0  0  0  0  0  0  0  0  0
   18.8603  -11.8732  -22.3713 O   0  0  0  0  0  0  0  0  0  0  0  0
   18.9586  -11.1293  -21.1862 C   0  0  0  0  0  0  0  0  0  0  0  0
   19.0847  -11.7387  -19.9693 C   0  0  0  0  0  0  0  0  0  0  0  0
   19.1813  -10.9839  -18.7994 C   0  0  0  0  0  0  0  0  0  0  0  0
   19.1537   -9.6116  -18.8266 C   0  0  0  0  0  0  0  0  0  0  0  0
   19.2553   -8.8135  -17.6172 C   0  0  0  0  0  0  0  0  0  0  0  0
   20.5832   -8.1734  -17.3624 C   0  0  2  0  0  0  0  0  0  0  0  0
   21.5276   -9.0902  -16.7514 N   0  0  0  0  0  0  0  0  0  0  0  0
   20.5647   -6.8936  -16.6671 C   0  0  0  0  0  0  0  0  0  0  0  0
   20.6589   -6.8998  -15.3902 O   0  0  0  0  0  0  0  0  0  0  0  0
   19.0266   -9.0053  -20.0539 C   0  0  0  0  0  0  0  0  0  0  0  0
   18.9294   -9.7396  -21.2243 C   0  0  0  0  0  0  0  0  0  0  0  0
   20.4547   -5.6132  -17.2528 N   0  0  0  0  0  0  0  0  0  0  0  0
   20.3129   -4.3967  -16.4381 C   0  0  1  0  0  0  0  0  0  0  0  0
   20.5205   -3.1840  -17.2844 C   0  0  0  0  0  0  0  0  0  0  0  0
   20.3495   -1.9084  -16.5140 C   0  0  0  0  0  0  0  0  0  0  0  0
   20.5514   -0.7150  -17.3947 C   0  0  0  0  0  0  0  0  0  0  0  0
   20.9167   -0.8194  -18.5875 O   0  0  0  0  0  0  0  0  0  0  0  0
   19.0140   -4.3760  -15.7509 C   0  0  0  0  0  0  0  0  0  0  0  0
   17.9724   -5.1362  -16.2950 O   0  0  0  0  0  0  0  0  0  0  0  0
   20.3240    0.5413  -16.8636 O   0  0  0  0  0  0  0  0  0  0  0  0
   18.7596   -3.7369  -14.7223 O   0  0  0  0  0  0  0  0  0  0  0  0
  2  1  1  0
  3  2  1  0
  4  5  1  0
  4  3  1  0
  5  6  1  6
  7  5  1  0
  7  8  2  0
  9 10  1  0
 10 20  2  0
 10 11  1  0
 11 12  2  0
 12 13  1  0
 13 14  1  0
 15 14  1  1
 15 16  1  0
 16  7  1  0
 17 15  1  0
 18 17  2  0
 19 13  2  0
 20 19  1  0
 21 17  1  0
 22 21  1  0
 22 27  1  0
 22 23  1  6
 24 23  1  0
 25 24  1  0
 26 25  2  0
 27 28  1  0
 29 25  1  0
 30 27  2  0
M  END
$$$$
