MYE.pdb
     RDKit          3D

 30 30  0  0  1  0  0  0  0  0999 V2000
   25.6618  -38.6784  -16.9240 C   0  0  0  0  0  0  0  0  0  0  0  0
   25.2308  -37.0752  -16.2495 S   0  0  0  0  0  0  0  0  0  0  0  0
   26.6571  -35.9640  -16.1235 C   0  0  0  0  0  0  0  0  0  0  0  0
   27.0758  -35.7605  -14.6843 C   0  0  0  0  0  0  0  0  0  0  0  0
   26.6568  -34.4078  -14.1553 C   0  0  2  0  0  0  0  0  0  0  0  0
   27.2318  -33.3277  -14.9473 N   0  0  0  0  0  0  0  0  0  0  0  0
   27.0435  -34.2085  -12.7346 C   0  0  0  0  0  0  0  0  0  0  0  0
   28.2433  -33.9266  -12.4174 O   0  0  0  0  0  0  0  0  0  0  0  0
   26.1852  -32.6958   -3.9832 O   0  0  0  0  0  0  0  0  0  0  0  0
   26.0865  -32.7718   -5.3803 C   0  0  0  0  0  0  0  0  0  0  0  0
   24.9166  -33.1204   -5.9953 C   0  0  0  0  0  0  0  0  0  0  0  0
   24.8350  -33.1915   -7.3868 C   0  0  0  0  0  0  0  0  0  0  0  0
   25.9181  -32.9159   -8.1839 C   0  0  0  0  0  0  0  0  0  0  0  0
   25.8469  -32.9839   -9.6332 C   0  0  0  0  0  0  0  0  0  0  0  0
   26.4636  -34.1915  -10.2650 C   0  0  2  0  0  0  0  0  0  0  0  0
   26.1116  -34.3192  -11.6670 N   0  0  0  0  0  0  0  0  0  0  0  0
   26.2892  -35.4542   -9.5599 C   0  0  0  0  0  0  0  0  0  0  0  0
   25.4246  -36.2830  -10.0124 O   0  0  0  0  0  0  0  0  0  0  0  0
   27.0915  -32.5660   -7.5588 C   0  0  0  0  0  0  0  0  0  0  0  0
   27.1894  -32.4909   -6.1792 C   0  0  0  0  0  0  0  0  0  0  0  0
   26.9828  -35.8828   -8.4067 N   0  0  0  0  0  0  0  0  0  0  0  0
   26.7146  -37.1861   -7.7795 C   0  0  1  0  0  0  0  0  0  0  0  0
   27.3720  -38.2769   -8.5591 C   0  0  0  0  0  0  0  0  0  0  0  0
   27.1635  -39.6293   -7.9450 C   0  0  0  0  0  0  0  0  0  0  0  0
   28.2268  -40.5892   -8.3796 C   0  0  0  0  0  0  0  0  0  0  0  0
   29.1537  -40.2542   -9.1514 O   0  0  0  0  0  0  0  0  0  0  0  0
   27.1322  -37.1841   -6.3704 C   0  0  0  0  0  0  0  0  0  0  0  0
   26.7198  -38.2503   -5.5630 O   0  0  0  0  0  0  0  0  0  0  0  0
   28.1747  -41.8876   -7.9072 O   0  0  0  0  0  0  0  0  0  0  0  0
   27.8238  -36.3112   -5.8310 O   0  0  0  0  0  0  0  0  0  0  0  0
  2  1  1  0
  3  2  1  0
  4  5  1  0
  4  3  1  0
  5  6  1  6
  7  5  1  0
  7  8  2  0
  9 10  1  0
 10 20  2  0
 10 11  1  0
 11 12  2  0
 12 13  1  0
 13 14  1  0
 15 14  1  1
 15 16  1  0
 16  7  1  0
 17 15  1  0
 18 17  2  0
 19 13  2  0
 20 19  1  0
 21 17  1  0
 22 21  1  0
 22 27  1  0
 22 23  1  6
 24 23  1  0
 25 24  1  0
 26 25  2  0
 27 28  1  0
 29 25  1  0
 30 27  2  0
M  END
$$$$
