MYE.pdb
     RDKit          3D

 30 30  0  0  1  0  0  0  0  0999 V2000
   22.9435  -11.0352  -22.7576 C   0  0  0  0  0  0  0  0  0  0  0  0
   22.5438  -10.0373  -21.3239 S   0  0  0  0  0  0  0  0  0  0  0  0
   21.0841  -10.6428  -20.4364 C   0  0  0  0  0  0  0  0  0  0  0  0
   20.7062   -9.7219  -19.2976 C   0  0  0  0  0  0  0  0  0  0  0  0
   20.7849  -10.4138  -17.9558 C   0  0  2  0  0  0  0  0  0  0  0  0
   20.0270  -11.6589  -17.9564 N   0  0  0  0  0  0  0  0  0  0  0  0
   20.2882   -9.5599  -16.8460 C   0  0  0  0  0  0  0  0  0  0  0  0
   19.0423   -9.3554  -16.6861 O   0  0  0  0  0  0  0  0  0  0  0  0
   19.7338   -5.0400   -9.2266 O   0  0  0  0  0  0  0  0  0  0  0  0
   20.1372   -5.8502  -10.2982 C   0  0  0  0  0  0  0  0  0  0  0  0
   19.5215   -7.0412  -10.5639 C   0  0  0  0  0  0  0  0  0  0  0  0
   19.9351   -7.8358  -11.6342 C   0  0  0  0  0  0  0  0  0  0  0  0
   20.9678   -7.4539  -12.4541 C   0  0  0  0  0  0  0  0  0  0  0  0
   21.4073   -8.2697  -13.5727 C   0  0  0  0  0  0  0  0  0  0  0  0
   20.7214   -8.0186  -14.8781 C   0  0  2  0  0  0  0  0  0  0  0  0
   21.1610   -8.9333  -15.9154 N   0  0  0  0  0  0  0  0  0  0  0  0
   20.7167   -6.6424  -15.3553 C   0  0  0  0  0  0  0  0  0  0  0  0
   21.7771   -6.1952  -15.9167 O   0  0  0  0  0  0  0  0  0  0  0  0
   21.5826   -6.2549  -12.1811 C   0  0  0  0  0  0  0  0  0  0  0  0
   21.1845   -5.4546  -11.1230 C   0  0  0  0  0  0  0  0  0  0  0  0
   19.6500   -5.7206  -15.2711 N   0  0  0  0  0  0  0  0  0  0  0  0
   19.7512   -4.3635  -15.8294 C   0  0  1  0  0  0  0  0  0  0  0  0
   18.4301   -3.9325  -16.3761 C   0  0  0  0  0  0  0  0  0  0  0  0
   18.4834   -2.5716  -17.0042 C   0  0  0  0  0  0  0  0  0  0  0  0
   17.1401   -2.1643  -17.5244 C   0  0  0  0  0  0  0  0  0  0  0  0
   16.1278   -2.8903  -17.4002 O   0  0  0  0  0  0  0  0  0  0  0  0
   20.2683   -3.4224  -14.8260 C   0  0  0  0  0  0  0  0  0  0  0  0
   21.3255   -2.5836  -15.1974 O   0  0  0  0  0  0  0  0  0  0  0  0
   17.0236   -0.9429  -18.1620 O   0  0  0  0  0  0  0  0  0  0  0  0
   19.8454   -3.3074  -13.6689 O   0  0  0  0  0  0  0  0  0  0  0  0
  2  1  1  0
  3  2  1  0
  4  5  1  0
  4  3  1  0
  5  6  1  6
  7  5  1  0
  7  8  2  0
  9 10  1  0
 10 20  2  0
 10 11  1  0
 11 12  2  0
 12 13  1  0
 13 14  1  0
 15 14  1  1
 15 16  1  0
 16  7  1  0
 17 15  1  0
 18 17  2  0
 19 13  2  0
 20 19  1  0
 21 17  1  0
 22 21  1  0
 22 27  1  0
 22 23  1  1
 24 23  1  0
 25 24  1  0
 26 25  2  0
 27 28  1  0
 29 25  1  0
 30 27  2  0
M  END
$$$$
