MYE.pdb
     RDKit          3D

 30 30  0  0  1  0  0  0  0  0999 V2000
   19.8670  -12.9327  -21.3718 C   0  0  0  0  0  0  0  0  0  0  0  0
   20.3492  -11.8240  -20.0492 S   0  0  0  0  0  0  0  0  0  0  0  0
   19.7635  -12.3771  -18.4256 C   0  0  0  0  0  0  0  0  0  0  0  0
   20.0714  -11.3601  -17.3492 C   0  0  0  0  0  0  0  0  0  0  0  0
   21.5388  -11.3418  -16.9862 C   0  0  2  0  0  0  0  0  0  0  0  0
   21.9620  -12.6190  -16.4257 N   0  0  0  0  0  0  0  0  0  0  0  0
   21.8707  -10.2674  -16.0151 C   0  0  0  0  0  0  0  0  0  0  0  0
   21.5445  -10.3709  -14.7893 O   0  0  0  0  0  0  0  0  0  0  0  0
   28.1141  -11.1921  -17.3423 O   0  0  0  0  0  0  0  0  0  0  0  0
   27.1210  -10.4204  -16.7214 C   0  0  0  0  0  0  0  0  0  0  0  0
   26.3463   -9.5474  -17.4327 C   0  0  0  0  0  0  0  0  0  0  0  0
   25.3622   -8.7868  -16.7996 C   0  0  0  0  0  0  0  0  0  0  0  0
   25.1368   -8.8862  -15.4491 C   0  0  0  0  0  0  0  0  0  0  0  0
   24.1148   -8.1023  -14.7775 C   0  0  0  0  0  0  0  0  0  0  0  0
   22.8106   -7.9685  -15.4979 C   0  0  2  0  0  0  0  0  0  0  0  0
   22.5597   -9.0829  -16.3929 N   0  0  0  0  0  0  0  0  0  0  0  0
   22.5612   -6.6945  -16.1586 C   0  0  0  0  0  0  0  0  0  0  0  0
   22.6182   -6.6570  -17.4371 O   0  0  0  0  0  0  0  0  0  0  0  0
   25.9195   -9.7661  -14.7398 C   0  0  0  0  0  0  0  0  0  0  0  0
   26.9004  -10.5282  -15.3527 C   0  0  0  0  0  0  0  0  0  0  0  0
   22.2531   -5.4644  -15.5369 N   0  0  0  0  0  0  0  0  0  0  0  0
   21.7960   -4.2982  -16.3082 C   0  0  1  0  0  0  0  0  0  0  0  0
   20.5850   -4.6525  -17.1069 C   0  0  0  0  0  0  0  0  0  0  0  0
   20.0082   -3.4728  -17.8317 C   0  0  0  0  0  0  0  0  0  0  0  0
   18.7774   -3.8560  -18.5926 C   0  0  0  0  0  0  0  0  0  0  0  0
   18.3371   -5.0279  -18.6040 O   0  0  0  0  0  0  0  0  0  0  0  0
   21.5591   -3.1475  -15.4252 C   0  0  0  0  0  0  0  0  0  0  0  0
   21.6395   -1.8661  -15.9825 O   0  0  0  0  0  0  0  0  0  0  0  0
   18.1110   -2.8753  -19.3040 O   0  0  0  0  0  0  0  0  0  0  0  0
   21.2926   -3.2151  -14.2187 O   0  0  0  0  0  0  0  0  0  0  0  0
  2  1  1  0
  3  2  1  0
  4  5  1  0
  4  3  1  0
  5  6  1  1
  7  5  1  0
  7  8  2  0
  9 10  1  0
 10 20  2  0
 10 11  1  0
 11 12  2  0
 12 13  1  0
 13 14  1  0
 15 14  1  6
 15 16  1  0
 16  7  1  0
 17 15  1  0
 18 17  2  0
 19 13  2  0
 20 19  1  0
 21 17  1  0
 22 21  1  0
 22 27  1  0
 22 23  1  1
 24 23  1  0
 25 24  1  0
 26 25  2  0
 27 28  1  0
 29 25  1  0
 30 27  2  0
M  END
$$$$
