MYE.pdb
     RDKit          3D

 30 30  0  0  1  0  0  0  0  0999 V2000
   26.6911  -17.4517  -19.5252 C   0  0  0  0  0  0  0  0  0  0  0  0
   26.2754  -16.9873  -17.8452 S   0  0  0  0  0  0  0  0  0  0  0  0
   25.6175  -15.3025  -17.7287 C   0  0  0  0  0  0  0  0  0  0  0  0
   26.6257  -14.2796  -18.2032 C   0  0  0  0  0  0  0  0  0  0  0  0
   26.0409  -12.8866  -18.2577 C   0  0  2  0  0  0  0  0  0  0  0  0
   24.9382  -12.8116  -19.2080 N   0  0  0  0  0  0  0  0  0  0  0  0
   27.0506  -11.8603  -18.6250 C   0  0  0  0  0  0  0  0  0  0  0  0
   27.3708  -11.6644  -19.8410 O   0  0  0  0  0  0  0  0  0  0  0  0
   33.0745   -5.3049  -17.5681 O   0  0  0  0  0  0  0  0  0  0  0  0
   32.0116   -6.2091  -17.4265 C   0  0  0  0  0  0  0  0  0  0  0  0
   32.0698   -7.2456  -16.5374 C   0  0  0  0  0  0  0  0  0  0  0  0
   31.0033   -8.1366  -16.4086 C   0  0  0  0  0  0  0  0  0  0  0  0
   29.8645   -8.0064  -17.1641 C   0  0  0  0  0  0  0  0  0  0  0  0
   28.7462   -8.9251  -17.0391 C   0  0  0  0  0  0  0  0  0  0  0  0
   28.7527  -10.0978  -17.9679 C   0  0  2  0  0  0  0  0  0  0  0  0
   27.7053  -11.0524  -17.6559 N   0  0  0  0  0  0  0  0  0  0  0  0
   30.0331  -10.7643  -18.1636 C   0  0  0  0  0  0  0  0  0  0  0  0
   30.4795  -11.5023  -17.2174 O   0  0  0  0  0  0  0  0  0  0  0  0
   29.8127   -6.9618  -18.0563 C   0  0  0  0  0  0  0  0  0  0  0  0
   30.8622   -6.0688  -18.1965 C   0  0  0  0  0  0  0  0  0  0  0  0
   30.8596  -10.6913  -19.3065 N   0  0  0  0  0  0  0  0  0  0  0  0
   32.1483  -11.3971  -19.3785 C   0  0  1  0  0  0  0  0  0  0  0  0
   32.1067  -12.4352  -20.4511 C   0  0  0  0  0  0  0  0  0  0  0  0
   31.9238  -11.8441  -21.8174 C   0  0  0  0  0  0  0  0  0  0  0  0
   31.9518  -12.9053  -22.8727 C   0  0  0  0  0  0  0  0  0  0  0  0
   32.8706  -12.9805  -23.7198 O   0  0  0  0  0  0  0  0  0  0  0  0
   33.2542  -10.4483  -19.5694 C   0  0  0  0  0  0  0  0  0  0  0  0
   32.9470   -9.1734  -20.0586 O   0  0  0  0  0  0  0  0  0  0  0  0
   30.9237  -13.8293  -22.9048 O   0  0  0  0  0  0  0  0  0  0  0  0
   34.4460  -10.6826  -19.3330 O   0  0  0  0  0  0  0  0  0  0  0  0
  2  1  1  0
  3  2  1  0
  4  5  1  0
  4  3  1  0
  5  6  1  6
  7  5  1  0
  7  8  2  0
  9 10  1  0
 10 20  2  0
 10 11  1  0
 11 12  2  0
 12 13  1  0
 13 14  1  0
 15 14  1  1
 15 16  1  0
 16  7  1  0
 17 15  1  0
 18 17  2  0
 19 13  2  0
 20 19  1  0
 21 17  1  0
 22 21  1  0
 22 27  1  0
 22 23  1  6
 24 23  1  0
 25 24  1  0
 26 25  2  0
 27 28  1  0
 29 25  1  0
 30 27  2  0
M  END
$$$$
