MYE.pdb
     RDKit          3D

 30 30  0  0  1  0  0  0  0  0999 V2000
   14.8585  -22.3212   -0.7011 C   0  0  0  0  0  0  0  0  0  0  0  0
   16.1495  -21.7475    0.4012 S   0  0  0  0  0  0  0  0  0  0  0  0
   15.5090  -20.7291    1.7568 C   0  0  0  0  0  0  0  0  0  0  0  0
   16.6281  -20.0659    2.5285 C   0  0  0  0  0  0  0  0  0  0  0  0
   16.1265  -19.3686    3.7725 C   0  0  2  0  0  0  0  0  0  0  0  0
   14.9371  -18.5744    3.4917 N   0  0  0  0  0  0  0  0  0  0  0  0
   17.1527  -18.4825    4.3803 C   0  0  0  0  0  0  0  0  0  0  0  0
   18.2579  -18.9542    4.7994 O   0  0  0  0  0  0  0  0  0  0  0  0
   21.3391  -10.8934    6.6801 O   0  0  0  0  0  0  0  0  0  0  0  0
   20.4889  -11.8741    6.1486 C   0  0  0  0  0  0  0  0  0  0  0  0
   20.4672  -13.1465    6.6473 C   0  0  0  0  0  0  0  0  0  0  0  0
   19.6151  -14.1108    6.1069 C   0  0  0  0  0  0  0  0  0  0  0  0
   18.7731  -13.8199    5.0625 C   0  0  0  0  0  0  0  0  0  0  0  0
   17.8796  -14.8129    4.4917 C   0  0  0  0  0  0  0  0  0  0  0  0
   17.9501  -16.1816    5.0913 C   0  0  2  0  0  0  0  0  0  0  0  0
   16.9621  -17.0814    4.5257 N   0  0  0  0  0  0  0  0  0  0  0  0
   17.9584  -16.2538    6.5461 C   0  0  0  0  0  0  0  0  0  0  0  0
   16.8655  -16.0123    7.1680 O   0  0  0  0  0  0  0  0  0  0  0  0
   18.8000  -12.5382    4.5658 C   0  0  0  0  0  0  0  0  0  0  0  0
   19.6397  -11.5695    5.0904 C   0  0  0  0  0  0  0  0  0  0  0  0
   19.0596  -16.5700    7.3720 N   0  0  0  0  0  0  0  0  0  0  0  0
   18.9503  -16.5854    8.8388 C   0  0  1  0  0  0  0  0  0  0  0  0
   19.8658  -17.6166    9.4118 C   0  0  0  0  0  0  0  0  0  0  0  0
   20.0793  -18.7758    8.4844 C   0  0  0  0  0  0  0  0  0  0  0  0
   20.9171  -19.8356    9.1291 C   0  0  0  0  0  0  0  0  0  0  0  0
   20.7372  -20.2007   10.3130 O   0  0  0  0  0  0  0  0  0  0  0  0
   19.2040  -15.2494    9.3961 C   0  0  0  0  0  0  0  0  0  0  0  0
   18.8746  -15.0254   10.7379 O   0  0  0  0  0  0  0  0  0  0  0  0
   21.9211  -20.4256    8.3836 O   0  0  0  0  0  0  0  0  0  0  0  0
   19.6883  -14.2955    8.7742 O   0  0  0  0  0  0  0  0  0  0  0  0
  2  1  1  0
  3  2  1  0
  4  5  1  0
  4  3  1  0
  5  6  1  6
  7  5  1  0
  7  8  2  0
  9 10  1  0
 10 20  2  0
 10 11  1  0
 11 12  2  0
 12 13  1  0
 13 14  1  0
 15 14  1  1
 15 16  1  0
 16  7  1  0
 17 15  1  0
 18 17  2  0
 19 13  2  0
 20 19  1  0
 21 17  1  0
 22 21  1  0
 22 27  1  0
 22 23  1  1
 24 23  1  0
 25 24  1  0
 26 25  2  0
 27 28  1  0
 29 25  1  0
 30 27  2  0
M  END
$$$$
