MYE.pdb
     RDKit          3D

 30 30  0  0  1  0  0  0  0  0999 V2000
   24.1596  -18.3133  -18.9309 C   0  0  0  0  0  0  0  0  0  0  0  0
   25.4996  -18.8670  -19.9839 S   0  0  0  0  0  0  0  0  0  0  0  0
   26.6385  -19.9907  -19.1323 C   0  0  0  0  0  0  0  0  0  0  0  0
   26.1124  -20.3861  -17.7705 C   0  0  0  0  0  0  0  0  0  0  0  0
   27.1002  -21.2349  -17.0029 C   0  0  2  0  0  0  0  0  0  0  0  0
   27.3303  -22.5117  -17.6673 N   0  0  0  0  0  0  0  0  0  0  0  0
   26.6585  -21.5011  -15.6095 C   0  0  0  0  0  0  0  0  0  0  0  0
   25.8473  -22.4470  -15.3506 O   0  0  0  0  0  0  0  0  0  0  0  0
   25.9098  -20.5938   -6.7341 O   0  0  0  0  0  0  0  0  0  0  0  0
   26.3433  -20.5498   -8.0674 C   0  0  0  0  0  0  0  0  0  0  0  0
   27.4378  -21.2535   -8.4857 C   0  0  0  0  0  0  0  0  0  0  0  0
   27.8561  -21.1989   -9.8161 C   0  0  0  0  0  0  0  0  0  0  0  0
   27.1890  -20.4425  -10.7474 C   0  0  0  0  0  0  0  0  0  0  0  0
   27.6119  -20.3780  -12.1356 C   0  0  0  0  0  0  0  0  0  0  0  0
   26.6413  -20.9080  -13.1430 C   0  0  2  0  0  0  0  0  0  0  0  0
   27.1089  -20.7281  -14.5050 N   0  0  0  0  0  0  0  0  0  0  0  0
   25.2567  -20.4789  -12.9994 C   0  0  0  0  0  0  0  0  0  0  0  0
   24.9496  -19.2957  -13.3801 O   0  0  0  0  0  0  0  0  0  0  0  0
   26.0890  -19.7372  -10.3198 C   0  0  0  0  0  0  0  0  0  0  0  0
   25.6608  -19.7804   -9.0033 C   0  0  0  0  0  0  0  0  0  0  0  0
   24.1852  -21.2369  -12.4780 N   0  0  0  0  0  0  0  0  0  0  0  0
   22.8143  -20.7064  -12.4223 C   0  0  1  0  0  0  0  0  0  0  0  0
   21.8835  -21.6080  -13.1644 C   0  0  0  0  0  0  0  0  0  0  0  0
   20.4517  -21.1756  -13.0522 C   0  0  0  0  0  0  0  0  0  0  0  0
   19.5592  -22.0430  -13.8839 C   0  0  0  0  0  0  0  0  0  0  0  0
   19.9857  -23.0502  -14.4928 O   0  0  0  0  0  0  0  0  0  0  0  0
   22.3903  -20.4980  -11.0306 C   0  0  0  0  0  0  0  0  0  0  0  0
   23.0857  -21.1788  -10.0246 O   0  0  0  0  0  0  0  0  0  0  0  0
   18.2197  -21.7125  -13.9763 O   0  0  0  0  0  0  0  0  0  0  0  0
   21.4613  -19.7654  -10.6684 O   0  0  0  0  0  0  0  0  0  0  0  0
  2  1  1  0
  3  2  1  0
  4  5  1  0
  4  3  1  0
  5  6  1  6
  7  5  1  0
  7  8  2  0
  9 10  1  0
 10 20  2  0
 10 11  1  0
 11 12  2  0
 12 13  1  0
 13 14  1  0
 15 14  1  1
 15 16  1  0
 16  7  1  0
 17 15  1  0
 18 17  2  0
 19 13  2  0
 20 19  1  0
 21 17  1  0
 22 21  1  0
 22 27  1  0
 22 23  1  1
 24 23  1  0
 25 24  1  0
 26 25  2  0
 27 28  1  0
 29 25  1  0
 30 27  2  0
M  END
$$$$
