MYE.pdb
     RDKit          3D

 30 30  0  0  1  0  0  0  0  0999 V2000
   27.4494  -18.6836   -6.2232 C   0  0  0  0  0  0  0  0  0  0  0  0
   27.6782  -20.4575   -6.1127 S   0  0  0  0  0  0  0  0  0  0  0  0
   27.7936  -21.2495   -7.7388 C   0  0  0  0  0  0  0  0  0  0  0  0
   26.7854  -20.6740   -8.7086 C   0  0  0  0  0  0  0  0  0  0  0  0
   26.8420  -21.3526  -10.0582 C   0  0  2  0  0  0  0  0  0  0  0  0
   28.1946  -21.3404  -10.6012 N   0  0  0  0  0  0  0  0  0  0  0  0
   25.9304  -20.7243  -11.0490 C   0  0  0  0  0  0  0  0  0  0  0  0
   25.9342  -19.4652  -11.2340 O   0  0  0  0  0  0  0  0  0  0  0  0
   29.2811  -18.5003  -16.2919 O   0  0  0  0  0  0  0  0  0  0  0  0
   28.1786  -19.2126  -15.7974 C   0  0  0  0  0  0  0  0  0  0  0  0
   26.9051  -18.7314  -15.9186 C   0  0  0  0  0  0  0  0  0  0  0  0
   25.8188  -19.4527  -15.4211 C   0  0  0  0  0  0  0  0  0  0  0  0
   25.9872  -20.6633  -14.7962 C   0  0  0  0  0  0  0  0  0  0  0  0
   24.8657  -21.4257  -14.2754 C   0  0  0  0  0  0  0  0  0  0  0  0
   24.2961  -20.9514  -12.9760 C   0  0  2  0  0  0  0  0  0  0  0  0
   25.0175  -21.4805  -11.8334 N   0  0  0  0  0  0  0  0  0  0  0  0
   22.8570  -21.0979  -12.8056 C   0  0  0  0  0  0  0  0  0  0  0  0
   22.4170  -22.1925  -12.3081 O   0  0  0  0  0  0  0  0  0  0  0  0
   27.2708  -21.1414  -14.6777 C   0  0  0  0  0  0  0  0  0  0  0  0
   28.3596  -20.4381  -15.1658 C   0  0  0  0  0  0  0  0  0  0  0  0
   21.8646  -20.1471  -13.1313 N   0  0  0  0  0  0  0  0  0  0  0  0
   20.4327  -20.4223  -12.9367 C   0  0  1  0  0  0  0  0  0  0  0  0
   19.6585  -19.1454  -12.9420 C   0  0  0  0  0  0  0  0  0  0  0  0
   18.1839  -19.3658  -12.7788 C   0  0  0  0  0  0  0  0  0  0  0  0
   17.4317  -18.0750  -12.8727 C   0  0  0  0  0  0  0  0  0  0  0  0
   18.0036  -16.9833  -13.0926 O   0  0  0  0  0  0  0  0  0  0  0  0
   19.9410  -21.3716  -13.9451 C   0  0  0  0  0  0  0  0  0  0  0  0
   18.9609  -22.2919  -13.5560 O   0  0  0  0  0  0  0  0  0  0  0  0
   16.0588  -18.0997  -12.7098 O   0  0  0  0  0  0  0  0  0  0  0  0
   20.3236  -21.4280  -15.1205 O   0  0  0  0  0  0  0  0  0  0  0  0
  2  1  1  0
  3  2  1  0
  4  5  1  0
  4  3  1  0
  5  6  1  6
  7  5  1  0
  7  8  2  0
  9 10  1  0
 10 20  2  0
 10 11  1  0
 11 12  2  0
 12 13  1  0
 13 14  1  0
 15 14  1  6
 15 16  1  0
 16  7  1  0
 17 15  1  0
 18 17  2  0
 19 13  2  0
 20 19  1  0
 21 17  1  0
 22 21  1  0
 22 27  1  0
 22 23  1  6
 24 23  1  0
 25 24  1  0
 26 25  2  0
 27 28  1  0
 29 25  1  0
 30 27  2  0
M  END
$$$$
