MYE.pdb
     RDKit          3D

 30 30  0  0  1  0  0  0  0  0999 V2000
   35.9042  -37.2189   -9.4549 C   0  0  0  0  0  0  0  0  0  0  0  0
   35.3099  -38.7236   -8.6844 S   0  0  0  0  0  0  0  0  0  0  0  0
   36.0372  -39.0050   -7.0483 C   0  0  0  0  0  0  0  0  0  0  0  0
   35.0684  -38.6497   -5.9424 C   0  0  0  0  0  0  0  0  0  0  0  0
   35.2632  -37.2345   -5.4477 C   0  0  2  0  0  0  0  0  0  0  0  0
   36.5216  -37.0940   -4.7258 N   0  0  0  0  0  0  0  0  0  0  0  0
   34.1585  -36.7851   -4.5616 C   0  0  0  0  0  0  0  0  0  0  0  0
   34.2746  -36.8360   -3.2953 O   0  0  0  0  0  0  0  0  0  0  0  0
   26.5455  -32.9304   -1.9315 O   0  0  0  0  0  0  0  0  0  0  0  0
   27.6959  -33.3360   -2.6240 C   0  0  0  0  0  0  0  0  0  0  0  0
   27.6885  -33.5111   -3.9795 C   0  0  0  0  0  0  0  0  0  0  0  0
   28.8419  -33.9151   -4.6536 C   0  0  0  0  0  0  0  0  0  0  0  0
   30.0180  -34.1500   -3.9858 C   0  0  0  0  0  0  0  0  0  0  0  0
   31.2264  -34.5689   -4.6747 C   0  0  0  0  0  0  0  0  0  0  0  0
   31.8138  -35.8728   -4.2361 C   0  0  2  0  0  0  0  0  0  0  0  0
   32.9299  -36.2812   -5.0688 N   0  0  0  0  0  0  0  0  0  0  0  0
   30.8785  -36.9706   -4.0316 C   0  0  0  0  0  0  0  0  0  0  0  0
   30.1938  -37.3743   -5.0354 O   0  0  0  0  0  0  0  0  0  0  0  0
   30.0183  -33.9720   -2.6225 C   0  0  0  0  0  0  0  0  0  0  0  0
   28.8825  -33.5716   -1.9384 C   0  0  0  0  0  0  0  0  0  0  0  0
   30.6344  -37.6613   -2.8241 N   0  0  0  0  0  0  0  0  0  0  0  0
   29.3073  -38.2039   -2.4950 C   0  0  1  0  0  0  0  0  0  0  0  0
   28.4745  -37.1577   -1.8304 C   0  0  0  0  0  0  0  0  0  0  0  0
   27.1430  -37.6818   -1.3808 C   0  0  0  0  0  0  0  0  0  0  0  0
   26.4011  -36.6560   -0.5821 C   0  0  0  0  0  0  0  0  0  0  0  0
   25.5395  -35.9060   -1.0942 O   0  0  0  0  0  0  0  0  0  0  0  0
   28.6550  -38.7522   -3.6923 C   0  0  0  0  0  0  0  0  0  0  0  0
   28.7588  -38.0276   -4.8853 O   0  0  0  0  0  0  0  0  0  0  0  0
   26.6839  -36.5406    0.7665 O   0  0  0  0  0  0  0  0  0  0  0  0
   28.0145  -39.8101   -3.7365 O   0  0  0  0  0  0  0  0  0  0  0  0
  2  1  1  0
  3  2  1  0
  4  5  1  0
  4  3  1  0
  5  6  1  1
  7  5  1  0
  7  8  2  0
  9 10  1  0
 10 20  2  0
 10 11  1  0
 11 12  2  0
 12 13  1  0
 13 14  1  0
 15 14  1  6
 15 16  1  0
 16  7  1  0
 17 15  1  0
 18 17  2  0
 19 13  2  0
 20 19  1  0
 21 17  1  0
 22 21  1  0
 22 27  1  0
 22 23  1  6
 24 23  1  0
 25 24  1  0
 26 25  2  0
 27 28  1  0
 29 25  1  0
 30 27  2  0
M  END
$$$$
