CSQ.pdb
     RDKit          3D

 22 21  0  0  1  0  0  0  0  0999 V2000
    8.7189  -16.2126   16.7390 N   0  0  0  0  0  0  0  0  0  0  0  0
    8.4704  -16.8515   18.0198 C   0  0  1  0  0  0  0  0  0  0  0  0
    8.8892  -18.3195   17.9806 C   0  0  0  0  0  0  0  0  0  0  0  0
    7.7278  -19.1872   16.9144 S   0  0  0  0  0  0  0  0  0  0  0  0
    9.2346  -16.1524   19.0817 C   0  0  0  0  0  0  0  0  0  0  0  0
   10.4500  -15.8501   18.9530 O   0  0  0  0  0  0  0  0  0  0  0  0
    7.5616  -15.9471   22.8817 O   0  0  0  0  0  0  0  0  0  0  0  0
    8.2110  -14.8227   22.4278 C   0  0  0  0  0  0  0  0  0  0  0  0
    9.2893  -15.1812   21.3959 C   0  0  2  0  0  0  0  0  0  0  0  0
    8.5917  -15.8032   20.2926 N   0  0  0  0  0  0  0  0  0  0  0  0
   10.1384  -16.2165   22.0437 C   0  0  0  0  0  0  0  0  0  0  0  0
   10.2729  -17.3220   21.4658 O   0  0  0  0  0  0  0  0  0  0  0  0
   14.9719  -15.0950   20.6198 N   0  0  0  0  0  0  0  0  0  0  0  0
   15.4350  -15.3808   21.9283 C   0  0  0  0  0  0  0  0  0  0  0  0
   16.5255  -14.9967   22.3720 O   0  0  0  0  0  0  0  0  0  0  0  0
   14.5309  -16.1979   22.8046 C   0  0  0  0  0  0  0  0  0  0  0  0
   13.1213  -15.7294   22.6052 C   0  0  0  0  0  0  0  0  0  0  0  0
   12.1697  -16.5480   23.4090 C   0  0  2  0  0  0  0  0  0  0  0  0
   10.7971  -16.0285   23.2629 N   0  0  0  0  0  0  0  0  0  0  0  0
   12.4322  -16.6211   24.8463 C   0  0  0  0  0  0  0  0  0  0  0  0
   11.8167  -15.8864   25.6512 O   0  0  0  0  0  0  0  0  0  0  0  0
   13.3584  -17.4979   25.3591 O   0  0  0  0  0  0  0  0  0  0  0  0
  2  1  1  6
  2  3  1  0
  3  4  1  0
  5  2  1  0
  5 10  1  0
  6  5  2  0
  8  7  1  0
  9  8  1  1
  9 10  1  0
  9 11  1  0
 11 19  1  0
 12 11  2  0
 13 14  1  0
 14 15  2  0
 16 17  1  0
 16 14  1  0
 18 17  1  6
 18 20  1  0
 19 18  1  0
 20 22  1  0
 21 20  2  0
M  END
$$$$
