CSQ.pdb
     RDKit          3D

 22 21  0  0  1  0  0  0  0  0999 V2000
    8.3020  -12.9994   18.7399 N   0  0  0  0  0  0  0  0  0  0  0  0
    7.5130  -13.6455   19.7745 C   0  0  1  0  0  0  0  0  0  0  0  0
    7.1108  -15.0547   19.3451 C   0  0  0  0  0  0  0  0  0  0  0  0
    8.6226  -15.9991   19.0974 S   0  0  0  0  0  0  0  0  0  0  0  0
    8.3024  -13.7220   21.0281 C   0  0  0  0  0  0  0  0  0  0  0  0
    9.5581  -13.6326   21.0432 O   0  0  0  0  0  0  0  0  0  0  0  0
    6.3981  -14.7494   24.6792 O   0  0  0  0  0  0  0  0  0  0  0  0
    7.2580  -13.6785   24.6030 C   0  0  0  0  0  0  0  0  0  0  0  0
    8.3338  -13.9036   23.5315 C   0  0  2  0  0  0  0  0  0  0  0  0
    7.6380  -13.9020   22.2640 N   0  0  0  0  0  0  0  0  0  0  0  0
    8.8553  -15.2767   23.7668 C   0  0  0  0  0  0  0  0  0  0  0  0
    8.6639  -16.1451   22.8816 O   0  0  0  0  0  0  0  0  0  0  0  0
   13.8188  -15.9972   22.6865 N   0  0  0  0  0  0  0  0  0  0  0  0
   13.8565  -17.2523   23.3435 C   0  0  0  0  0  0  0  0  0  0  0  0
   14.8269  -18.0207   23.3053 O   0  0  0  0  0  0  0  0  0  0  0  0
   12.6361  -17.6469   24.1232 C   0  0  0  0  0  0  0  0  0  0  0  0
   11.6214  -16.5497   24.0096 C   0  0  0  0  0  0  0  0  0  0  0  0
   10.4287  -16.8383   24.8558 C   0  0  2  0  0  0  0  0  0  0  0  0
    9.5485  -15.6566   24.9203 N   0  0  0  0  0  0  0  0  0  0  0  0
   10.6959  -17.2296   26.2399 C   0  0  0  0  0  0  0  0  0  0  0  0
   10.4742  -16.4408   27.1860 O   0  0  0  0  0  0  0  0  0  0  0  0
   11.1950  -18.4731   26.5463 O   0  0  0  0  0  0  0  0  0  0  0  0
  2  1  1  6
  2  3  1  0
  3  4  1  0
  5  2  1  0
  5 10  1  0
  6  5  2  0
  8  7  1  0
  9  8  1  1
  9 10  1  0
  9 11  1  0
 11 19  1  0
 12 11  2  0
 13 14  1  0
 14 15  2  0
 16 17  1  0
 16 14  1  0
 18 17  1  1
 18 20  1  0
 19 18  1  0
 20 22  1  0
 21 20  2  0
M  END
$$$$
