CSQ.pdb
     RDKit          3D

 22 21  0  0  1  0  0  0  0  0999 V2000
    7.6750  -13.3468   15.9139 N   0  0  0  0  0  0  0  0  0  0  0  0
    7.4797  -14.3269   16.9682 C   0  0  1  0  0  0  0  0  0  0  0  0
    7.9678  -15.7034   16.5221 C   0  0  0  0  0  0  0  0  0  0  0  0
    9.7408  -15.5847   16.2368 S   0  0  0  0  0  0  0  0  0  0  0  0
    8.2276  -13.9109   18.1797 C   0  0  0  0  0  0  0  0  0  0  0  0
    9.3059  -13.2638   18.1201 O   0  0  0  0  0  0  0  0  0  0  0  0
    7.0376  -15.5788   21.7476 O   0  0  0  0  0  0  0  0  0  0  0  0
    7.4796  -14.2787   21.8273 C   0  0  0  0  0  0  0  0  0  0  0  0
    8.4443  -13.9475   20.6803 C   0  0  2  0  0  0  0  0  0  0  0  0
    7.7272  -14.2442   19.4603 N   0  0  0  0  0  0  0  0  0  0  0  0
    9.5637  -14.9195   20.8022 C   0  0  0  0  0  0  0  0  0  0  0  0
    9.5097  -15.9761   20.1278 O   0  0  0  0  0  0  0  0  0  0  0  0
   15.3238  -14.7557   20.2301 N   0  0  0  0  0  0  0  0  0  0  0  0
   14.2540  -14.5981   19.3142 C   0  0  0  0  0  0  0  0  0  0  0  0
   14.3984  -14.2116   18.1466 O   0  0  0  0  0  0  0  0  0  0  0  0
   12.8777  -14.9257   19.8157 C   0  0  0  0  0  0  0  0  0  0  0  0
   12.9848  -15.3869   21.2378 C   0  0  0  0  0  0  0  0  0  0  0  0
   11.6563  -15.8170   21.7591 C   0  0  2  0  0  0  0  0  0  0  0  0
   10.6757  -14.7233   21.6272 N   0  0  0  0  0  0  0  0  0  0  0  0
   11.6161  -16.2404   23.1589 C   0  0  0  0  0  0  0  0  0  0  0  0
   10.9278  -15.6193   23.9997 O   0  0  0  0  0  0  0  0  0  0  0  0
   12.3281  -17.3323   23.5950 O   0  0  0  0  0  0  0  0  0  0  0  0
  2  1  1  6
  2  3  1  0
  3  4  1  0
  5  2  1  0
  5 10  1  0
  6  5  2  0
  8  7  1  0
  9  8  1  1
  9 10  1  0
  9 11  1  0
 11 19  1  0
 12 11  2  0
 13 14  1  0
 14 15  2  0
 16 17  1  0
 16 14  1  0
 18 17  1  1
 18 20  1  0
 19 18  1  0
 20 22  1  0
 21 20  2  0
M  END
$$$$
