CSQ.pdb
     RDKit          3D

 22 21  0  0  1  0  0  0  0  0999 V2000
    8.8290  -14.1825   13.8734 N   0  0  0  0  0  0  0  0  0  0  0  0
    8.0693  -14.5399   15.0589 C   0  0  1  0  0  0  0  0  0  0  0  0
    7.8905  -16.0538   15.1488 C   0  0  0  0  0  0  0  0  0  0  0  0
    9.5016  -16.7705   15.5086 S   0  0  0  0  0  0  0  0  0  0  0  0
    8.7786  -14.0578   16.2691 C   0  0  0  0  0  0  0  0  0  0  0  0
   10.0107  -13.7988   16.2730 O   0  0  0  0  0  0  0  0  0  0  0  0
    6.9173  -14.4357   20.0013 O   0  0  0  0  0  0  0  0  0  0  0  0
    7.5618  -13.2541   19.7176 C   0  0  0  0  0  0  0  0  0  0  0  0
    8.6978  -13.4683   18.7079 C   0  0  2  0  0  0  0  0  0  0  0  0
    8.0615  -13.8754   17.4750 N   0  0  0  0  0  0  0  0  0  0  0  0
    9.4817  -14.6230   19.2225 C   0  0  0  0  0  0  0  0  0  0  0  0
    9.2387  -15.7619   18.7555 O   0  0  0  0  0  0  0  0  0  0  0  0
   14.6675  -16.1112   18.2687 N   0  0  0  0  0  0  0  0  0  0  0  0
   14.4987  -14.8185   18.8244 C   0  0  0  0  0  0  0  0  0  0  0  0
   15.2829  -13.8792   18.6339 O   0  0  0  0  0  0  0  0  0  0  0  0
   13.2909  -14.6043   19.6895 C   0  0  0  0  0  0  0  0  0  0  0  0
   12.4389  -15.8362   19.6337 C   0  0  0  0  0  0  0  0  0  0  0  0
   11.2634  -15.7117   20.5416 C   0  0  2  0  0  0  0  0  0  0  0  0
   10.4764  -14.5123   20.1991 N   0  0  0  0  0  0  0  0  0  0  0  0
   11.5568  -15.6180   21.9718 C   0  0  0  0  0  0  0  0  0  0  0  0
   12.2032  -16.5162   22.5565 O   0  0  0  0  0  0  0  0  0  0  0  0
   11.1360  -14.5428   22.7177 O   0  0  0  0  0  0  0  0  0  0  0  0
  2  1  1  6
  2  3  1  0
  3  4  1  0
  5  2  1  0
  5 10  1  0
  6  5  2  0
  8  7  1  0
  9  8  1  1
  9 10  1  0
  9 11  1  0
 11 19  1  0
 12 11  2  0
 13 14  1  0
 14 15  2  0
 16 17  1  0
 16 14  1  0
 18 17  1  6
 18 20  1  0
 19 18  1  0
 20 22  1  0
 21 20  2  0
M  END
$$$$
