CSQ.pdb
     RDKit          3D

 22 21  0  0  1  0  0  0  0  0999 V2000
    7.4569  -14.3350   18.5967 N   0  0  0  0  0  0  0  0  0  0  0  0
    8.3881  -14.1522   19.6966 C   0  0  1  0  0  0  0  0  0  0  0  0
    8.2300  -12.7636   20.3121 C   0  0  0  0  0  0  0  0  0  0  0  0
    8.6186  -11.5563   19.0353 S   0  0  0  0  0  0  0  0  0  0  0  0
    8.1386  -15.1801   20.7365 C   0  0  0  0  0  0  0  0  0  0  0  0
    7.2256  -16.0406   20.6318 O   0  0  0  0  0  0  0  0  0  0  0  0
   10.7761  -17.5502   21.9694 O   0  0  0  0  0  0  0  0  0  0  0  0
    9.4046  -17.5408   22.0735 C   0  0  0  0  0  0  0  0  0  0  0  0
    8.9132  -16.3063   22.8420 C   0  0  2  0  0  0  0  0  0  0  0  0
    8.9462  -15.2118   21.8977 N   0  0  0  0  0  0  0  0  0  0  0  0
    9.9423  -16.0445   23.8837 C   0  0  0  0  0  0  0  0  0  0  0  0
   10.9208  -15.3188   23.5835 O   0  0  0  0  0  0  0  0  0  0  0  0
    6.4102  -13.1200   25.4214 N   0  0  0  0  0  0  0  0  0  0  0  0
    7.0552  -12.9427   26.6706 C   0  0  0  0  0  0  0  0  0  0  0  0
    6.9865  -11.9028   27.3396 O   0  0  0  0  0  0  0  0  0  0  0  0
    7.8612  -14.0984   27.1882 C   0  0  0  0  0  0  0  0  0  0  0  0
    8.2529  -14.9644   26.0294 C   0  0  0  0  0  0  0  0  0  0  0  0
    9.5527  -15.6459   26.2898 C   0  0  2  0  0  0  0  0  0  0  0  0
    9.8820  -16.5617   25.1815 N   0  0  0  0  0  0  0  0  0  0  0  0
    9.6342  -16.4378   27.5172 C   0  0  0  0  0  0  0  0  0  0  0  0
    9.5044  -17.6823   27.4901 O   0  0  0  0  0  0  0  0  0  0  0  0
    9.8581  -15.8436   28.7364 O   0  0  0  0  0  0  0  0  0  0  0  0
  2  1  1  6
  2  3  1  0
  3  4  1  0
  5  2  1  0
  5 10  1  0
  6  5  2  0
  8  7  1  0
  9  8  1  6
  9 10  1  0
  9 11  1  0
 11 19  1  0
 12 11  2  0
 13 14  1  0
 14 15  2  0
 16 17  1  0
 16 14  1  0
 18 17  1  6
 18 20  1  0
 19 18  1  0
 20 22  1  0
 21 20  2  0
M  END
$$$$
