CSQ.pdb
     RDKit          3D

 22 21  0  0  1  0  0  0  0  0999 V2000
    8.6194  -16.9566   17.9561 N   0  0  0  0  0  0  0  0  0  0  0  0
    7.8460  -16.8732   19.1830 C   0  0  1  0  0  0  0  0  0  0  0  0
    7.5022  -18.2684   19.6998 C   0  0  0  0  0  0  0  0  0  0  0  0
    6.4356  -19.0517   18.4801 S   0  0  0  0  0  0  0  0  0  0  0  0
    8.6259  -16.1471   20.2150 C   0  0  0  0  0  0  0  0  0  0  0  0
    9.8825  -16.0745   20.1866 O   0  0  0  0  0  0  0  0  0  0  0  0
    6.5995  -14.7854   23.5533 O   0  0  0  0  0  0  0  0  0  0  0  0
    7.5507  -13.9414   23.0290 C   0  0  0  0  0  0  0  0  0  0  0  0
    8.6399  -14.7249   22.2834 C   0  0  2  0  0  0  0  0  0  0  0  0
    7.9510  -15.5051   21.2797 N   0  0  0  0  0  0  0  0  0  0  0  0
    9.2138  -15.6662   23.2820 C   0  0  0  0  0  0  0  0  0  0  0  0
    8.8646  -16.8703   23.2331 O   0  0  0  0  0  0  0  0  0  0  0  0
    9.0795  -19.3371   28.3622 N   0  0  0  0  0  0  0  0  0  0  0  0
    9.7261  -18.2522   27.7193 C   0  0  0  0  0  0  0  0  0  0  0  0
    9.9529  -17.1642   28.2654 O   0  0  0  0  0  0  0  0  0  0  0  0
   10.1493  -18.4626   26.2946 C   0  0  0  0  0  0  0  0  0  0  0  0
    9.5982  -17.3443   25.4627 C   0  0  0  0  0  0  0  0  0  0  0  0
   10.6465  -16.3220   25.1840 C   0  0  2  0  0  0  0  0  0  0  0  0
   10.1224  -15.2858   24.2746 N   0  0  0  0  0  0  0  0  0  0  0  0
   11.8853  -16.8126   24.5799 C   0  0  0  0  0  0  0  0  0  0  0  0
   12.9835  -16.6794   25.1652 O   0  0  0  0  0  0  0  0  0  0  0  0
   11.8839  -17.4365   23.3551 O   0  0  0  0  0  0  0  0  0  0  0  0
  2  1  1  6
  2  3  1  0
  3  4  1  0
  5  2  1  0
  5 10  1  0
  6  5  2  0
  8  7  1  0
  9  8  1  1
  9 10  1  0
  9 11  1  0
 11 19  1  0
 12 11  2  0
 13 14  1  0
 14 15  2  0
 16 17  1  0
 16 14  1  0
 18 17  1  6
 18 20  1  0
 19 18  1  0
 20 22  1  0
 21 20  2  0
M  END
$$$$
