CSQ.pdb
     RDKit          3D

 22 21  0  0  1  0  0  0  0  0999 V2000
    7.3833  -14.7100   18.8062 N   0  0  0  0  0  0  0  0  0  0  0  0
    8.2563  -14.3434   19.9079 C   0  0  1  0  0  0  0  0  0  0  0  0
    7.9299  -12.9388   20.4105 C   0  0  0  0  0  0  0  0  0  0  0  0
    8.4230  -11.7754   19.1291 S   0  0  0  0  0  0  0  0  0  0  0  0
    8.0899  -15.3121   21.0189 C   0  0  0  0  0  0  0  0  0  0  0  0
    6.9726  -15.8052   21.3248 O   0  0  0  0  0  0  0  0  0  0  0  0
   10.8695  -17.7764   21.5293 O   0  0  0  0  0  0  0  0  0  0  0  0
    9.6909  -18.0033   22.2013 C   0  0  0  0  0  0  0  0  0  0  0  0
    9.1442  -16.7087   22.8187 C   0  0  2  0  0  0  0  0  0  0  0  0
    9.2170  -15.7099   21.7757 N   0  0  0  0  0  0  0  0  0  0  0  0
   10.1111  -16.3308   23.8840 C   0  0  0  0  0  0  0  0  0  0  0  0
   11.1958  -15.8012   23.5416 O   0  0  0  0  0  0  0  0  0  0  0  0
    9.3737  -14.1157   29.3670 N   0  0  0  0  0  0  0  0  0  0  0  0
    8.9948  -13.6111   28.0982 C   0  0  0  0  0  0  0  0  0  0  0  0
    8.2242  -12.6548   27.9395 O   0  0  0  0  0  0  0  0  0  0  0  0
    9.5763  -14.2946   26.8950 C   0  0  0  0  0  0  0  0  0  0  0  0
   10.4170  -15.4453   27.3592 C   0  0  0  0  0  0  0  0  0  0  0  0
   10.9601  -16.2091   26.2001 C   0  0  2  0  0  0  0  0  0  0  0  0
    9.8806  -16.5322   25.2485 N   0  0  0  0  0  0  0  0  0  0  0  0
   11.6265  -17.4734   26.5127 C   0  0  0  0  0  0  0  0  0  0  0  0
   11.1382  -18.5661   26.1465 O   0  0  0  0  0  0  0  0  0  0  0  0
   12.8083  -17.5030   27.2141 O   0  0  0  0  0  0  0  0  0  0  0  0
  2  1  1  6
  2  3  1  0
  3  4  1  0
  5  2  1  0
  5 10  1  0
  6  5  2  0
  8  7  1  0
  9  8  1  6
  9 10  1  0
  9 11  1  0
 11 19  1  0
 12 11  2  0
 13 14  1  0
 14 15  2  0
 16 17  1  0
 16 14  1  0
 18 17  1  1
 18 20  1  0
 19 18  1  0
 20 22  1  0
 21 20  2  0
M  END
$$$$
