CSQ.pdb
     RDKit          3D

 22 21  0  0  1  0  0  0  0  0999 V2000
   12.4956  -14.7023   17.9538 N   0  0  0  0  0  0  0  0  0  0  0  0
   12.8615  -15.2106   19.2646 C   0  0  1  0  0  0  0  0  0  0  0  0
   13.9229  -14.3227   19.9103 C   0  0  0  0  0  0  0  0  0  0  0  0
   15.5296  -14.8840   19.3250 S   0  0  0  0  0  0  0  0  0  0  0  0
   11.6615  -15.2518   20.1356 C   0  0  0  0  0  0  0  0  0  0  0  0
   10.7934  -14.3399   20.1347 O   0  0  0  0  0  0  0  0  0  0  0  0
   10.7678  -18.7857   21.9957 O   0  0  0  0  0  0  0  0  0  0  0  0
    9.7914  -17.8335   21.8166 C   0  0  0  0  0  0  0  0  0  0  0  0
   10.3665  -16.4160   21.9436 C   0  0  2  0  0  0  0  0  0  0  0  0
   11.4665  -16.3486   21.0075 N   0  0  0  0  0  0  0  0  0  0  0  0
   10.9283  -16.3309   23.3183 C   0  0  0  0  0  0  0  0  0  0  0  0
   12.1621  -16.5026   23.4680 O   0  0  0  0  0  0  0  0  0  0  0  0
   10.1768  -14.3505   30.3464 N   0  0  0  0  0  0  0  0  0  0  0  0
    9.9220  -14.2364   28.9570 C   0  0  0  0  0  0  0  0  0  0  0  0
    9.0640  -13.4855   28.4737 O   0  0  0  0  0  0  0  0  0  0  0  0
   10.7549  -15.0865   28.0424 C   0  0  0  0  0  0  0  0  0  0  0  0
   10.1184  -15.0936   26.6855 C   0  0  0  0  0  0  0  0  0  0  0  0
   10.8333  -16.0249   25.7672 C   0  0  2  0  0  0  0  0  0  0  0  0
   10.1588  -16.0700   24.4564 N   0  0  0  0  0  0  0  0  0  0  0  0
   10.9543  -17.4118   26.2168 C   0  0  0  0  0  0  0  0  0  0  0  0
   10.1087  -18.2725   25.8838 O   0  0  0  0  0  0  0  0  0  0  0  0
   11.9984  -17.8150   27.0147 O   0  0  0  0  0  0  0  0  0  0  0  0
  2  1  1  6
  2  3  1  0
  3  4  1  0
  5  2  1  0
  5 10  1  0
  6  5  2  0
  8  7  1  0
  9  8  1  1
  9 10  1  0
  9 11  1  0
 11 19  1  0
 12 11  2  0
 13 14  1  0
 14 15  2  0
 16 17  1  0
 16 14  1  0
 18 17  1  1
 18 20  1  0
 19 18  1  0
 20 22  1  0
 21 20  2  0
M  END
$$$$
