CSQ.pdb
     RDKit          3D

 22 21  0  0  1  0  0  0  0  0999 V2000
    7.8833  -13.9764   14.5316 N   0  0  0  0  0  0  0  0  0  0  0  0
    7.6354  -14.7681   15.7242 C   0  0  1  0  0  0  0  0  0  0  0  0
    7.9623  -16.2385   15.4730 C   0  0  0  0  0  0  0  0  0  0  0  0
    7.5842  -17.1442   16.9815 S   0  0  0  0  0  0  0  0  0  0  0  0
    8.4730  -14.2638   16.8397 C   0  0  0  0  0  0  0  0  0  0  0  0
    9.6988  -14.0106   16.7044 O   0  0  0  0  0  0  0  0  0  0  0  0
    6.9669  -14.5773   20.6373 O   0  0  0  0  0  0  0  0  0  0  0  0
    7.6346  -13.4011   20.3868 C   0  0  0  0  0  0  0  0  0  0  0  0
    8.6472  -13.5681   19.2454 C   0  0  2  0  0  0  0  0  0  0  0  0
    7.8913  -14.0527   18.1120 N   0  0  0  0  0  0  0  0  0  0  0  0
    9.5684  -14.6522   19.6797 C   0  0  0  0  0  0  0  0  0  0  0  0
    9.3417  -15.8202   19.2813 O   0  0  0  0  0  0  0  0  0  0  0  0
   15.1989  -15.4653   17.7894 N   0  0  0  0  0  0  0  0  0  0  0  0
   14.5208  -14.6575   18.7359 C   0  0  0  0  0  0  0  0  0  0  0  0
   15.0426  -13.7009   19.3243 O   0  0  0  0  0  0  0  0  0  0  0  0
   13.0887  -15.0045   19.0219 C   0  0  0  0  0  0  0  0  0  0  0  0
   12.9527  -15.3033   20.4843 C   0  0  0  0  0  0  0  0  0  0  0  0
   11.5347  -15.5971   20.8377 C   0  0  2  0  0  0  0  0  0  0  0  0
   10.6755  -14.4444   20.5084 N   0  0  0  0  0  0  0  0  0  0  0  0
   11.2705  -15.9214   22.2395 C   0  0  0  0  0  0  0  0  0  0  0  0
   11.8657  -16.8661   22.8049 O   0  0  0  0  0  0  0  0  0  0  0  0
   10.3649  -15.2001   22.9805 O   0  0  0  0  0  0  0  0  0  0  0  0
  2  1  1  6
  2  3  1  0
  3  4  1  0
  5  2  1  0
  5 10  1  0
  6  5  2  0
  8  7  1  0
  9  8  1  1
  9 10  1  0
  9 11  1  0
 11 19  1  0
 12 11  2  0
 13 14  1  0
 14 15  2  0
 16 17  1  0
 16 14  1  0
 18 17  1  1
 18 20  1  0
 19 18  1  0
 20 22  1  0
 21 20  2  0
M  END
$$$$
