GYN.pdb
     RDKit          3D

 25 25  0  0  1  0  0  0  0  0999 V2000
   11.1805  -17.7438   19.9320 N   0  0  0  0  0  0  0  0  0  0  0  0
    9.8813  -17.6527   20.5724 C   0  0  0  0  0  0  0  0  0  0  0  0
    9.8417  -16.5415   21.5643 C   0  0  0  0  0  0  0  0  0  0  0  0
   10.8765  -15.9296   21.8957 O   0  0  0  0  0  0  0  0  0  0  0  0
    6.3982  -10.8593   27.5382 O   0  0  0  0  0  0  0  0  0  0  0  0
    6.5968  -11.7553   26.4965 C   0  0  0  0  0  0  0  0  0  0  0  0
    7.2802  -11.4113   25.3492 C   0  0  0  0  0  0  0  0  0  0  0  0
    7.4662  -12.3154   24.3275 C   0  0  0  0  0  0  0  0  0  0  0  0
    6.9858  -13.6054   24.3883 C   0  0  0  0  0  0  0  0  0  0  0  0
    7.1948  -14.5537   23.2840 C   0  0  0  0  0  0  0  0  0  0  0  0
    8.5401  -15.1278   23.2257 C   0  0  2  0  0  0  0  0  0  0  0  0
    8.6445  -16.1447   22.1590 N   0  0  0  0  0  0  0  0  0  0  0  0
    8.9971  -15.7947   24.4276 C   0  0  0  0  0  0  0  0  0  0  0  0
    9.2784  -15.0502   25.4422 O   0  0  0  0  0  0  0  0  0  0  0  0
    6.2997  -13.9470   25.5428 C   0  0  0  0  0  0  0  0  0  0  0  0
    6.1215  -13.0489   26.5445 C   0  0  0  0  0  0  0  0  0  0  0  0
   10.0821  -20.8297   27.5633 N   0  0  0  0  0  0  0  0  0  0  0  0
    9.4137  -19.5829   27.5732 C   0  0  0  0  0  0  0  0  0  0  0  0
    9.2213  -19.0074   28.6616 O   0  0  0  0  0  0  0  0  0  0  0  0
    8.9610  -18.9902   26.3171 C   0  0  0  0  0  0  0  0  0  0  0  0
    9.6496  -17.6841   25.9611 C   0  0  2  0  0  0  0  0  0  0  0  0
    9.1822  -17.1784   24.6867 N   0  0  0  0  0  0  0  0  0  0  0  0
   11.0925  -17.8428   25.9897 C   0  0  0  0  0  0  0  0  0  0  0  0
   11.7381  -18.0781   27.0700 O   0  0  0  0  0  0  0  0  0  0  0  0
   11.8611  -17.7513   24.8592 O   0  0  0  0  0  0  0  0  0  0  0  0
  1  2  1  0
  3 12  1  0
  3  2  1  0
  4  3  2  0
  6  5  1  0
  7  6  2  0
  8  7  1  0
  9  8  2  0
  9 15  1  0
 10  9  1  0
 11 10  1  1
 11 12  1  0
 13 11  1  0
 13 14  2  0
 15 16  2  0
 16  6  1  0
 18 19  2  0
 18 17  1  0
 20 18  1  0
 21 22  1  0
 21 20  1  6
 22 13  1  0
 23 21  1  0
 24 23  2  0
 25 23  1  0
M  END
$$$$
