GYN.pdb
     RDKit          3D

 25 25  0  0  1  0  0  0  0  0999 V2000
   10.6280  -18.3253   19.6071 N   0  0  0  0  0  0  0  0  0  0  0  0
    9.6401  -18.2635   20.6685 C   0  0  0  0  0  0  0  0  0  0  0  0
    9.9047  -17.1235   21.5907 C   0  0  0  0  0  0  0  0  0  0  0  0
   10.9908  -16.5111   21.5713 O   0  0  0  0  0  0  0  0  0  0  0  0
    7.0829  -12.8206   18.0797 O   0  0  0  0  0  0  0  0  0  0  0  0
    7.3292  -13.2570   19.3745 C   0  0  0  0  0  0  0  0  0  0  0  0
    6.4631  -14.0931   20.0473 C   0  0  0  0  0  0  0  0  0  0  0  0
    6.7262  -14.5142   21.3315 C   0  0  0  0  0  0  0  0  0  0  0  0
    7.8589  -14.1301   22.0156 C   0  0  0  0  0  0  0  0  0  0  0  0
    8.1185  -14.5911   23.3877 C   0  0  0  0  0  0  0  0  0  0  0  0
    9.1564  -15.6178   23.4950 C   0  0  2  0  0  0  0  0  0  0  0  0
    8.9462  -16.6991   22.5103 N   0  0  0  0  0  0  0  0  0  0  0  0
    9.2546  -16.2884   24.7751 C   0  0  0  0  0  0  0  0  0  0  0  0
    9.3960  -15.5447   25.8190 O   0  0  0  0  0  0  0  0  0  0  0  0
    8.7265  -13.2902   21.3360 C   0  0  0  0  0  0  0  0  0  0  0  0
    8.4585  -12.8804   20.0703 C   0  0  0  0  0  0  0  0  0  0  0  0
    6.4100  -19.5825   25.3531 N   0  0  0  0  0  0  0  0  0  0  0  0
    7.0808  -19.1317   26.5141 C   0  0  0  0  0  0  0  0  0  0  0  0
    6.4371  -18.5140   27.3842 O   0  0  0  0  0  0  0  0  0  0  0  0
    8.5087  -19.3939   26.6774 C   0  0  0  0  0  0  0  0  0  0  0  0
    9.3961  -18.1875   26.4245 C   0  0  2  0  0  0  0  0  0  0  0  0
    9.2080  -17.6736   25.0833 N   0  0  0  0  0  0  0  0  0  0  0  0
   10.7856  -18.5093   26.6961 C   0  0  0  0  0  0  0  0  0  0  0  0
   11.6989  -18.4267   25.8024 O   0  0  0  0  0  0  0  0  0  0  0  0
   11.2130  -18.9235   27.9301 O   0  0  0  0  0  0  0  0  0  0  0  0
  1  2  1  0
  3 12  1  0
  3  2  1  0
  4  3  2  0
  6  5  1  0
  7  6  2  0
  8  7  1  0
  9  8  2  0
  9 15  1  0
 10  9  1  0
 11 10  1  1
 11 12  1  0
 13 11  1  0
 13 14  2  0
 15 16  2  0
 16  6  1  0
 18 19  2  0
 18 17  1  0
 20 18  1  0
 21 22  1  0
 21 20  1  6
 22 13  1  0
 23 21  1  0
 24 23  2  0
 25 23  1  0
M  END
$$$$
