GYN.pdb
     RDKit          3D

 25 25  0  0  1  0  0  0  0  0999 V2000
   10.3403  -18.5793   17.7380 N   0  0  0  0  0  0  0  0  0  0  0  0
    9.4339  -18.3921   18.8559 C   0  0  0  0  0  0  0  0  0  0  0  0
   10.0533  -17.5570   19.9232 C   0  0  0  0  0  0  0  0  0  0  0  0
   11.2445  -17.1941   19.8545 O   0  0  0  0  0  0  0  0  0  0  0  0
    6.9574  -12.0798   18.0957 O   0  0  0  0  0  0  0  0  0  0  0  0
    7.4085  -12.8529   19.1570 C   0  0  0  0  0  0  0  0  0  0  0  0
    6.6260  -13.8237   19.7460 C   0  0  0  0  0  0  0  0  0  0  0  0
    7.0927  -14.5797   20.7979 C   0  0  0  0  0  0  0  0  0  0  0  0
    8.3567  -14.4141   21.3209 C   0  0  0  0  0  0  0  0  0  0  0  0
    8.8335  -15.2320   22.4461 C   0  0  0  0  0  0  0  0  0  0  0  0
    9.8335  -16.2373   22.0826 C   0  0  2  0  0  0  0  0  0  0  0  0
    9.3229  -17.1501   21.0391 N   0  0  0  0  0  0  0  0  0  0  0  0
   10.2803  -17.1032   23.1543 C   0  0  0  0  0  0  0  0  0  0  0  0
    9.4743  -18.0369   23.5303 O   0  0  0  0  0  0  0  0  0  0  0  0
    9.1397  -13.4377   20.7262 C   0  0  0  0  0  0  0  0  0  0  0  0
    8.6709  -12.6976   19.6898 C   0  0  0  0  0  0  0  0  0  0  0  0
   13.4627  -20.2144   22.9015 N   0  0  0  0  0  0  0  0  0  0  0  0
   13.7034  -18.9027   23.3735 C   0  0  0  0  0  0  0  0  0  0  0  0
   14.2608  -18.0808   22.6206 O   0  0  0  0  0  0  0  0  0  0  0  0
   13.2987  -18.5309   24.7271 C   0  0  0  0  0  0  0  0  0  0  0  0
   11.8419  -18.1191   24.8503 C   0  0  2  0  0  0  0  0  0  0  0  0
   11.5031  -17.1022   23.8759 N   0  0  0  0  0  0  0  0  0  0  0  0
   11.5433  -17.6966   26.2069 C   0  0  0  0  0  0  0  0  0  0  0  0
   11.6606  -18.4792   27.2134 O   0  0  0  0  0  0  0  0  0  0  0  0
   11.1155  -16.4286   26.5009 O   0  0  0  0  0  0  0  0  0  0  0  0
  1  2  1  0
  3 12  1  0
  3  2  1  0
  4  3  2  0
  6  5  1  0
  7  6  2  0
  8  7  1  0
  9  8  2  0
  9 15  1  0
 10  9  1  0
 11 10  1  1
 11 12  1  0
 13 11  1  0
 13 14  2  0
 15 16  2  0
 16  6  1  0
 18 19  2  0
 18 17  1  0
 20 18  1  0
 21 22  1  0
 21 20  1  1
 22 13  1  0
 23 21  1  0
 24 23  2  0
 25 23  1  0
M  END
$$$$
