GYN.pdb
     RDKit          3D

 25 25  0  0  1  0  0  0  0  0999 V2000
    8.6866  -16.2042   17.6529 N   0  0  0  0  0  0  0  0  0  0  0  0
    7.5960  -16.0532   18.5985 C   0  0  0  0  0  0  0  0  0  0  0  0
    8.0849  -15.5602   19.9169 C   0  0  0  0  0  0  0  0  0  0  0  0
    9.3035  -15.4862   20.1712 O   0  0  0  0  0  0  0  0  0  0  0  0
    7.5673  -12.0729   28.1382 O   0  0  0  0  0  0  0  0  0  0  0  0
    7.3088  -12.5039   26.8440 C   0  0  0  0  0  0  0  0  0  0  0  0
    7.5964  -11.7307   25.7389 C   0  0  0  0  0  0  0  0  0  0  0  0
    7.3320  -12.1771   24.4635 C   0  0  0  0  0  0  0  0  0  0  0  0
    6.7699  -13.4106   24.2161 C   0  0  0  0  0  0  0  0  0  0  0  0
    6.4946  -13.8660   22.8452 C   0  0  0  0  0  0  0  0  0  0  0  0
    7.6041  -14.5792   22.2102 C   0  0  2  0  0  0  0  0  0  0  0  0
    7.1966  -15.1632   20.9157 N   0  0  0  0  0  0  0  0  0  0  0  0
    8.1607  -15.6844   22.9631 C   0  0  0  0  0  0  0  0  0  0  0  0
    7.5509  -16.8176   22.8813 O   0  0  0  0  0  0  0  0  0  0  0  0
    6.4825  -14.1842   25.3292 C   0  0  0  0  0  0  0  0  0  0  0  0
    6.7468  -13.7356   26.5824 C   0  0  0  0  0  0  0  0  0  0  0  0
   12.9436  -18.2321   25.4596 N   0  0  0  0  0  0  0  0  0  0  0  0
   11.9032  -18.3647   24.5103 C   0  0  0  0  0  0  0  0  0  0  0  0
   11.5294  -19.5057   24.1767 O   0  0  0  0  0  0  0  0  0  0  0  0
   11.2848  -17.1716   23.9373 C   0  0  0  0  0  0  0  0  0  0  0  0
    9.8350  -16.9669   24.3412 C   0  0  2  0  0  0  0  0  0  0  0  0
    9.3107  -15.7321   23.7945 N   0  0  0  0  0  0  0  0  0  0  0  0
    9.6931  -17.0286   25.7848 C   0  0  0  0  0  0  0  0  0  0  0  0
    9.5807  -15.9802   26.5111 O   0  0  0  0  0  0  0  0  0  0  0  0
    9.6695  -18.2163   26.4675 O   0  0  0  0  0  0  0  0  0  0  0  0
  1  2  1  0
  3 12  1  0
  3  2  1  0
  4  3  2  0
  6  5  1  0
  7  6  2  0
  8  7  1  0
  9  8  2  0
  9 15  1  0
 10  9  1  0
 11 10  1  1
 11 12  1  0
 13 11  1  0
 13 14  2  0
 15 16  2  0
 16  6  1  0
 18 19  2  0
 18 17  1  0
 20 18  1  0
 21 22  1  0
 21 20  1  1
 22 13  1  0
 23 21  1  0
 24 23  2  0
 25 23  1  0
M  END
$$$$
