GYN.pdb
     RDKit          3D

 25 25  0  0  1  0  0  0  0  0999 V2000
   11.2665  -18.0739   20.0104 N   0  0  0  0  0  0  0  0  0  0  0  0
   10.0573  -17.9991   20.8095 C   0  0  0  0  0  0  0  0  0  0  0  0
   10.0501  -16.7834   21.6709 C   0  0  0  0  0  0  0  0  0  0  0  0
   11.0676  -16.0743   21.8019 O   0  0  0  0  0  0  0  0  0  0  0  0
    7.3730  -12.8482   17.5836 O   0  0  0  0  0  0  0  0  0  0  0  0
    7.4736  -13.2120   18.9197 C   0  0  0  0  0  0  0  0  0  0  0  0
    8.3298  -12.5759   19.7939 C   0  0  0  0  0  0  0  0  0  0  0  0
    8.4144  -12.9524   21.1155 C   0  0  0  0  0  0  0  0  0  0  0  0
    7.6568  -13.9770   21.6400 C   0  0  0  0  0  0  0  0  0  0  0  0
    7.7650  -14.3632   23.0547 C   0  0  0  0  0  0  0  0  0  0  0  0
    8.8580  -15.2922   23.3466 C   0  0  2  0  0  0  0  0  0  0  0  0
    8.9041  -16.3936   22.3629 N   0  0  0  0  0  0  0  0  0  0  0  0
    8.8076  -15.9439   24.6392 C   0  0  0  0  0  0  0  0  0  0  0  0
    8.6342  -15.1903   25.6711 O   0  0  0  0  0  0  0  0  0  0  0  0
    6.7979  -14.6134   20.7583 C   0  0  0  0  0  0  0  0  0  0  0  0
    6.7215  -14.2351   19.4573 C   0  0  0  0  0  0  0  0  0  0  0  0
    5.8911  -18.2205   25.5651 N   0  0  0  0  0  0  0  0  0  0  0  0
    6.9002  -19.2084   25.4810 C   0  0  0  0  0  0  0  0  0  0  0  0
    6.7817  -20.1258   24.6460 O   0  0  0  0  0  0  0  0  0  0  0  0
    8.0597  -19.1412   26.3672 C   0  0  0  0  0  0  0  0  0  0  0  0
    8.7985  -17.8149   26.3263 C   0  0  2  0  0  0  0  0  0  0  0  0
    8.9094  -17.3211   24.9690 N   0  0  0  0  0  0  0  0  0  0  0  0
   10.0935  -17.9312   26.9726 C   0  0  0  0  0  0  0  0  0  0  0  0
   11.1943  -17.7334   26.3493 O   0  0  0  0  0  0  0  0  0  0  0  0
   10.2238  -18.2608   28.2960 O   0  0  0  0  0  0  0  0  0  0  0  0
  1  2  1  0
  3 12  1  0
  3  2  1  0
  4  3  2  0
  6  5  1  0
  7  6  2  0
  8  7  1  0
  9  8  2  0
  9 15  1  0
 10  9  1  0
 11 10  1  6
 11 12  1  0
 13 11  1  0
 13 14  2  0
 15 16  2  0
 16  6  1  0
 18 19  2  0
 18 17  1  0
 20 18  1  0
 21 22  1  0
 21 20  1  6
 22 13  1  0
 23 21  1  0
 24 23  2  0
 25 23  1  0
M  END
$$$$
