GYN.pdb
     RDKit          3D

 25 25  0  0  1  0  0  0  0  0999 V2000
    9.2011  -19.3905   19.6518 N   0  0  0  0  0  0  0  0  0  0  0  0
    8.2911  -18.6772   20.5290 C   0  0  0  0  0  0  0  0  0  0  0  0
    9.0004  -17.6201   21.3033 C   0  0  0  0  0  0  0  0  0  0  0  0
   10.2400  -17.4954   21.2473 O   0  0  0  0  0  0  0  0  0  0  0  0
    7.1629  -12.6153   17.6358 O   0  0  0  0  0  0  0  0  0  0  0  0
    7.4305  -13.0570   18.9245 C   0  0  0  0  0  0  0  0  0  0  0  0
    8.6610  -12.8826   19.5223 C   0  0  0  0  0  0  0  0  0  0  0  0
    8.9057  -13.3283   20.8019 C   0  0  0  0  0  0  0  0  0  0  0  0
    7.9463  -13.9691   21.5552 C   0  0  0  0  0  0  0  0  0  0  0  0
    8.2306  -14.4384   22.9196 C   0  0  0  0  0  0  0  0  0  0  0  0
    8.9416  -15.7163   22.9841 C   0  0  2  0  0  0  0  0  0  0  0  0
    8.3032  -16.7305   22.1199 N   0  0  0  0  0  0  0  0  0  0  0  0
    9.0200  -16.3325   24.2927 C   0  0  0  0  0  0  0  0  0  0  0  0
    9.6711  -15.6945   25.2048 O   0  0  0  0  0  0  0  0  0  0  0  0
    6.7114  -14.1423   20.9509 C   0  0  0  0  0  0  0  0  0  0  0  0
    6.4797  -13.6994   19.6892 C   0  0  0  0  0  0  0  0  0  0  0  0
    8.8392  -19.2367   28.6267 N   0  0  0  0  0  0  0  0  0  0  0  0
    7.6328  -19.4283   27.9132 C   0  0  0  0  0  0  0  0  0  0  0  0
    6.7121  -20.0794   28.4437 O   0  0  0  0  0  0  0  0  0  0  0  0
    7.4824  -18.8648   26.5738 C   0  0  0  0  0  0  0  0  0  0  0  0
    8.6743  -18.0491   26.1040 C   0  0  2  0  0  0  0  0  0  0  0  0
    8.4714  -17.5571   24.7568 N   0  0  0  0  0  0  0  0  0  0  0  0
    9.8998  -18.8183   26.2256 C   0  0  0  0  0  0  0  0  0  0  0  0
   10.3872  -19.1623   27.3585 O   0  0  0  0  0  0  0  0  0  0  0  0
   10.6176  -19.2284   25.1331 O   0  0  0  0  0  0  0  0  0  0  0  0
  1  2  1  0
  3 12  1  0
  3  2  1  0
  4  3  2  0
  6  5  1  0
  7  6  2  0
  8  7  1  0
  9  8  2  0
  9 15  1  0
 10  9  1  0
 11 10  1  1
 11 12  1  0
 13 11  1  0
 13 14  2  0
 15 16  2  0
 16  6  1  0
 18 19  2  0
 18 17  1  0
 20 18  1  0
 21 22  1  0
 21 20  1  6
 22 13  1  0
 23 21  1  0
 24 23  2  0
 25 23  1  0
M  END
$$$$
