GYN.pdb
     RDKit          3D

 25 25  0  0  1  0  0  0  0  0999 V2000
    8.8569  -19.1943   19.1660 N   0  0  0  0  0  0  0  0  0  0  0  0
    8.1511  -18.8993   20.3994 C   0  0  0  0  0  0  0  0  0  0  0  0
    8.8894  -17.8999   21.2217 C   0  0  0  0  0  0  0  0  0  0  0  0
   10.0586  -17.5667   20.9437 O   0  0  0  0  0  0  0  0  0  0  0  0
    7.1443  -12.2181   18.5820 O   0  0  0  0  0  0  0  0  0  0  0  0
    7.3829  -12.9275   19.7514 C   0  0  0  0  0  0  0  0  0  0  0  0
    6.4336  -13.7501   20.3207 C   0  0  0  0  0  0  0  0  0  0  0  0
    6.6906  -14.4450   21.4812 C   0  0  0  0  0  0  0  0  0  0  0  0
    7.8991  -14.3618   22.1378 C   0  0  0  0  0  0  0  0  0  0  0  0
    8.1508  -15.1119   23.3773 C   0  0  0  0  0  0  0  0  0  0  0  0
    8.9710  -16.3117   23.2026 C   0  0  2  0  0  0  0  0  0  0  0  0
    8.2993  -17.2998   22.3335 N   0  0  0  0  0  0  0  0  0  0  0  0
    9.2992  -17.0368   24.4129 C   0  0  0  0  0  0  0  0  0  0  0  0
    8.3386  -17.6652   25.0005 O   0  0  0  0  0  0  0  0  0  0  0  0
    8.8501  -13.5343   21.5625 C   0  0  0  0  0  0  0  0  0  0  0  0
    8.5875  -12.8534   20.4184 C   0  0  0  0  0  0  0  0  0  0  0  0
   11.6098  -20.6940   24.4745 N   0  0  0  0  0  0  0  0  0  0  0  0
   12.2137  -19.4543   24.7901 C   0  0  0  0  0  0  0  0  0  0  0  0
   12.9188  -18.8882   23.9325 O   0  0  0  0  0  0  0  0  0  0  0  0
   12.0048  -18.8577   26.1071 C   0  0  0  0  0  0  0  0  0  0  0  0
   10.7272  -18.0452   26.2270 C   0  0  2  0  0  0  0  0  0  0  0  0
   10.5461  -17.1850   25.0757 N   0  0  0  0  0  0  0  0  0  0  0  0
   10.7103  -17.3003   27.4732 C   0  0  0  0  0  0  0  0  0  0  0  0
   10.6825  -16.0207   27.5102 O   0  0  0  0  0  0  0  0  0  0  0  0
   10.7227  -17.9189   28.6956 O   0  0  0  0  0  0  0  0  0  0  0  0
  1  2  1  0
  3 12  1  0
  3  2  1  0
  4  3  2  0
  6  5  1  0
  7  6  2  0
  8  7  1  0
  9  8  2  0
  9 15  1  0
 10  9  1  0
 11 10  1  1
 11 12  1  0
 13 11  1  0
 13 14  2  0
 15 16  2  0
 16  6  1  0
 18 19  2  0
 18 17  1  0
 20 18  1  0
 21 22  1  0
 21 20  1  6
 22 13  1  0
 23 21  1  0
 24 23  2  0
 25 23  1  0
M  END
$$$$
