GYN.pdb
     RDKit          3D

 25 25  0  0  1  0  0  0  0  0999 V2000
   10.3610  -17.2729   18.9937 N   0  0  0  0  0  0  0  0  0  0  0  0
    9.5686  -17.5281   20.1825 C   0  0  0  0  0  0  0  0  0  0  0  0
    9.5549  -16.3464   21.0899 C   0  0  0  0  0  0  0  0  0  0  0  0
   10.5485  -15.6009   21.2003 O   0  0  0  0  0  0  0  0  0  0  0  0
    6.5955  -10.9600   27.5834 O   0  0  0  0  0  0  0  0  0  0  0  0
    6.6976  -11.8594   26.5307 C   0  0  0  0  0  0  0  0  0  0  0  0
    6.2156  -13.1489   26.6142 C   0  0  0  0  0  0  0  0  0  0  0  0
    6.3271  -14.0254   25.5583 C   0  0  0  0  0  0  0  0  0  0  0  0
    6.9208  -13.6715   24.3662 C   0  0  0  0  0  0  0  0  0  0  0  0
    7.0303  -14.6251   23.2521 C   0  0  0  0  0  0  0  0  0  0  0  0
    8.4026  -15.0073   22.9153 C   0  0  2  0  0  0  0  0  0  0  0  0
    8.4292  -16.0304   21.8498 N   0  0  0  0  0  0  0  0  0  0  0  0
    9.1874  -15.5685   23.9957 C   0  0  0  0  0  0  0  0  0  0  0  0
    9.5653  -14.7621   24.9282 O   0  0  0  0  0  0  0  0  0  0  0  0
    7.4036  -12.3752   24.2865 C   0  0  0  0  0  0  0  0  0  0  0  0
    7.2891  -11.5184   25.3327 C   0  0  0  0  0  0  0  0  0  0  0  0
   10.4254  -18.5186   28.4285 N   0  0  0  0  0  0  0  0  0  0  0  0
   10.5266  -19.0869   27.1370 C   0  0  0  0  0  0  0  0  0  0  0  0
   11.2877  -20.0577   26.9603 O   0  0  0  0  0  0  0  0  0  0  0  0
    9.7437  -18.5329   26.0349 C   0  0  0  0  0  0  0  0  0  0  0  0
   10.3661  -17.3113   25.3816 C   0  0  2  0  0  0  0  0  0  0  0  0
    9.6143  -16.9053   24.2118 N   0  0  0  0  0  0  0  0  0  0  0  0
   11.7648  -17.5524   25.0752 C   0  0  0  0  0  0  0  0  0  0  0  0
   12.1755  -17.8110   23.8904 O   0  0  0  0  0  0  0  0  0  0  0  0
   12.7406  -17.5186   26.0363 O   0  0  0  0  0  0  0  0  0  0  0  0
  1  2  1  0
  3 12  1  0
  3  2  1  0
  4  3  2  0
  6  5  1  0
  7  6  2  0
  8  7  1  0
  9  8  2  0
  9 15  1  0
 10  9  1  0
 11 10  1  1
 11 12  1  0
 13 11  1  0
 13 14  2  0
 15 16  2  0
 16  6  1  0
 18 19  2  0
 18 17  1  0
 20 18  1  0
 21 22  1  0
 21 20  1  6
 22 13  1  0
 23 21  1  0
 24 23  2  0
 25 23  1  0
M  END
$$$$
