GYN.pdb
     RDKit          3D

 25 25  0  0  1  0  0  0  0  0999 V2000
    9.1160  -18.6968   18.8985 N   0  0  0  0  0  0  0  0  0  0  0  0
    8.0592  -18.5050   19.8746 C   0  0  0  0  0  0  0  0  0  0  0  0
    8.4678  -17.5411   20.9348 C   0  0  0  0  0  0  0  0  0  0  0  0
    9.6435  -17.1354   21.0255 O   0  0  0  0  0  0  0  0  0  0  0  0
    7.5294  -11.5648   27.4990 O   0  0  0  0  0  0  0  0  0  0  0  0
    7.3435  -12.4394   26.4369 C   0  0  0  0  0  0  0  0  0  0  0  0
    7.9018  -12.2195   25.1951 C   0  0  0  0  0  0  0  0  0  0  0  0
    7.7049  -13.0996   24.1548 C   0  0  0  0  0  0  0  0  0  0  0  0
    6.9461  -14.2419   24.2893 C   0  0  0  0  0  0  0  0  0  0  0  0
    6.7479  -15.1670   23.1636 C   0  0  0  0  0  0  0  0  0  0  0  0
    7.8708  -16.0742   22.9210 C   0  0  2  0  0  0  0  0  0  0  0  0
    7.5493  -17.0568   21.8654 N   0  0  0  0  0  0  0  0  0  0  0  0
    8.3016  -16.8668   24.0543 C   0  0  0  0  0  0  0  0  0  0  0  0
    7.5192  -17.8172   24.4383 O   0  0  0  0  0  0  0  0  0  0  0  0
    6.3870  -14.4591   25.5385 C   0  0  0  0  0  0  0  0  0  0  0  0
    6.5867  -13.5858   26.5578 C   0  0  0  0  0  0  0  0  0  0  0  0
   12.0474  -16.5457   24.7286 N   0  0  0  0  0  0  0  0  0  0  0  0
   12.0498  -17.9528   24.8742 C   0  0  0  0  0  0  0  0  0  0  0  0
   13.0117  -18.6064   24.4265 O   0  0  0  0  0  0  0  0  0  0  0  0
   10.9333  -18.6170   25.5424 C   0  0  0  0  0  0  0  0  0  0  0  0
    9.7892  -17.6897   25.9136 C   0  0  2  0  0  0  0  0  0  0  0  0
    9.4864  -16.7757   24.8314 N   0  0  0  0  0  0  0  0  0  0  0  0
   10.0789  -16.9913   27.1532 C   0  0  0  0  0  0  0  0  0  0  0  0
   10.2996  -17.6061   28.2544 O   0  0  0  0  0  0  0  0  0  0  0  0
   10.1360  -15.6244   27.2268 O   0  0  0  0  0  0  0  0  0  0  0  0
  1  2  1  0
  3 12  1  0
  3  2  1  0
  4  3  2  0
  6  5  1  0
  7  6  2  0
  8  7  1  0
  9  8  2  0
  9 15  1  0
 10  9  1  0
 11 10  1  1
 11 12  1  0
 13 11  1  0
 13 14  2  0
 15 16  2  0
 16  6  1  0
 18 19  2  0
 18 17  1  0
 20 18  1  0
 21 22  1  0
 21 20  1  6
 22 13  1  0
 23 21  1  0
 24 23  2  0
 25 23  1  0
M  END
$$$$
