GYN.pdb
     RDKit          3D

 25 25  0  0  1  0  0  0  0  0999 V2000
    9.6227  -18.1102   18.0958 N   0  0  0  0  0  0  0  0  0  0  0  0
    9.5313  -18.6789   19.4279 C   0  0  0  0  0  0  0  0  0  0  0  0
    9.9722  -17.7048   20.4656 C   0  0  0  0  0  0  0  0  0  0  0  0
   11.0794  -17.1355   20.3932 O   0  0  0  0  0  0  0  0  0  0  0  0
    6.7652  -12.1001   18.8296 O   0  0  0  0  0  0  0  0  0  0  0  0
    7.1794  -12.9458   19.8498 C   0  0  0  0  0  0  0  0  0  0  0  0
    8.3713  -12.7637   20.5193 C   0  0  0  0  0  0  0  0  0  0  0  0
    8.7636  -13.6142   21.5285 C   0  0  0  0  0  0  0  0  0  0  0  0
    7.9975  -14.6880   21.9269 C   0  0  0  0  0  0  0  0  0  0  0  0
    8.4374  -15.5845   23.0063 C   0  0  0  0  0  0  0  0  0  0  0  0
    9.5457  -16.4696   22.6440 C   0  0  2  0  0  0  0  0  0  0  0  0
    9.1619  -17.3936   21.5569 N   0  0  0  0  0  0  0  0  0  0  0  0
   10.0484  -17.3214   23.7021 C   0  0  0  0  0  0  0  0  0  0  0  0
    9.3584  -18.3725   23.9884 O   0  0  0  0  0  0  0  0  0  0  0  0
    6.8008  -14.8674   21.2517 C   0  0  0  0  0  0  0  0  0  0  0  0
    6.4226  -14.0237   20.2583 C   0  0  0  0  0  0  0  0  0  0  0  0
   14.6730  -17.3345   23.7684 N   0  0  0  0  0  0  0  0  0  0  0  0
   13.8459  -18.3837   24.2335 C   0  0  0  0  0  0  0  0  0  0  0  0
   13.7086  -19.4036   23.5308 O   0  0  0  0  0  0  0  0  0  0  0  0
   13.1684  -18.2595   25.5218 C   0  0  0  0  0  0  0  0  0  0  0  0
   11.6533  -18.2145   25.4267 C   0  0  2  0  0  0  0  0  0  0  0  0
   11.2192  -17.1936   24.4952 N   0  0  0  0  0  0  0  0  0  0  0  0
   11.0636  -18.0399   26.7419 C   0  0  0  0  0  0  0  0  0  0  0  0
   10.2806  -17.0663   27.0218 O   0  0  0  0  0  0  0  0  0  0  0  0
   11.3063  -18.9081   27.7736 O   0  0  0  0  0  0  0  0  0  0  0  0
  1  2  1  0
  3 12  1  0
  3  2  1  0
  4  3  2  0
  6  5  1  0
  7  6  2  0
  8  7  1  0
  9  8  2  0
  9 15  1  0
 10  9  1  0
 11 10  1  1
 11 12  1  0
 13 11  1  0
 13 14  2  0
 15 16  2  0
 16  6  1  0
 18 19  2  0
 18 17  1  0
 20 18  1  0
 21 22  1  0
 21 20  1  1
 22 13  1  0
 23 21  1  0
 24 23  2  0
 25 23  1  0
M  END
$$$$
