GYN.pdb
     RDKit          3D

 25 25  0  0  1  0  0  0  0  0999 V2000
    9.7649  -17.5588   18.7740 N   0  0  0  0  0  0  0  0  0  0  0  0
    8.5610  -17.1289   19.4611 C   0  0  0  0  0  0  0  0  0  0  0  0
    8.8854  -16.3348   20.6794 C   0  0  0  0  0  0  0  0  0  0  0  0
   10.0488  -16.2740   21.1242 O   0  0  0  0  0  0  0  0  0  0  0  0
    7.1249  -11.8206   28.1987 O   0  0  0  0  0  0  0  0  0  0  0  0
    7.0933  -12.3578   26.9189 C   0  0  0  0  0  0  0  0  0  0  0  0
    6.1773  -13.3188   26.5458 C   0  0  0  0  0  0  0  0  0  0  0  0
    6.1630  -13.8387   25.2709 C   0  0  0  0  0  0  0  0  0  0  0  0
    7.0537  -13.4347   24.3002 C   0  0  0  0  0  0  0  0  0  0  0  0
    7.0210  -14.0052   22.9453 C   0  0  0  0  0  0  0  0  0  0  0  0
    8.1137  -14.9346   22.6534 C   0  0  2  0  0  0  0  0  0  0  0  0
    7.8986  -15.6297   21.3676 N   0  0  0  0  0  0  0  0  0  0  0  0
    8.3228  -15.9910   23.6221 C   0  0  0  0  0  0  0  0  0  0  0  0
    7.4463  -16.9360   23.6597 O   0  0  0  0  0  0  0  0  0  0  0  0
    7.9723  -12.4690   24.6792 C   0  0  0  0  0  0  0  0  0  0  0  0
    7.9785  -11.9625   25.9383 C   0  0  0  0  0  0  0  0  0  0  0  0
    9.9395  -19.6950   26.8408 N   0  0  0  0  0  0  0  0  0  0  0  0
   10.6295  -19.5592   25.6133 C   0  0  0  0  0  0  0  0  0  0  0  0
   11.4086  -20.4626   25.2532 O   0  0  0  0  0  0  0  0  0  0  0  0
   10.4216  -18.3707   24.7895 C   0  0  0  0  0  0  0  0  0  0  0  0
    9.4832  -17.3453   25.4016 C   0  0  2  0  0  0  0  0  0  0  0  0
    9.3732  -16.1712   24.5603 N   0  0  0  0  0  0  0  0  0  0  0  0
    9.9006  -17.0123   26.7518 C   0  0  0  0  0  0  0  0  0  0  0  0
   10.0403  -17.8967   27.6671 O   0  0  0  0  0  0  0  0  0  0  0  0
   10.1736  -15.7262   27.1370 O   0  0  0  0  0  0  0  0  0  0  0  0
  1  2  1  0
  3 12  1  0
  3  2  1  0
  4  3  2  0
  6  5  1  0
  7  6  2  0
  8  7  1  0
  9  8  2  0
  9 15  1  0
 10  9  1  0
 11 10  1  1
 11 12  1  0
 13 11  1  0
 13 14  2  0
 15 16  2  0
 16  6  1  0
 18 19  2  0
 18 17  1  0
 20 18  1  0
 21 22  1  0
 21 20  1  6
 22 13  1  0
 23 21  1  0
 24 23  2  0
 25 23  1  0
M  END
$$$$
