GYN.pdb
     RDKit          3D

 25 25  0  0  1  0  0  0  0  0999 V2000
    7.6765  -19.3014   20.7883 N   0  0  0  0  0  0  0  0  0  0  0  0
    8.0125  -17.9931   21.3191 C   0  0  0  0  0  0  0  0  0  0  0  0
    9.0873  -17.3420   20.5185 C   0  0  0  0  0  0  0  0  0  0  0  0
    9.5185  -17.8587   19.4686 O   0  0  0  0  0  0  0  0  0  0  0  0
    6.2850  -12.8033   16.2865 O   0  0  0  0  0  0  0  0  0  0  0  0
    7.2843  -13.0911   17.2063 C   0  0  0  0  0  0  0  0  0  0  0  0
    7.1689  -12.7728   18.5432 C   0  0  0  0  0  0  0  0  0  0  0  0
    8.1720  -13.0670   19.4392 C   0  0  0  0  0  0  0  0  0  0  0  0
    9.3403  -13.6908   19.0589 C   0  0  0  0  0  0  0  0  0  0  0  0
   10.3993  -13.9938   20.0331 C   0  0  0  0  0  0  0  0  0  0  0  0
   10.7087  -15.4183   20.1673 C   0  0  2  0  0  0  0  0  0  0  0  0
    9.6510  -16.1297   20.9144 N   0  0  0  0  0  0  0  0  0  0  0  0
   11.9393  -15.7369   20.8617 C   0  0  0  0  0  0  0  0  0  0  0  0
   13.0414  -15.5598   20.2161 O   0  0  0  0  0  0  0  0  0  0  0  0
    9.4523  -14.0089   17.7148 C   0  0  0  0  0  0  0  0  0  0  0  0
    8.4580  -13.7149   16.8393 C   0  0  0  0  0  0  0  0  0  0  0  0
   14.5552  -14.2701   20.3904 N   0  0  0  0  0  0  0  0  0  0  0  0
   15.0556  -15.1852   21.3462 C   0  0  0  0  0  0  0  0  0  0  0  0
   16.0720  -15.8521   21.0722 O   0  0  0  0  0  0  0  0  0  0  0  0
   14.3797  -15.3357   22.6327 C   0  0  0  0  0  0  0  0  0  0  0  0
   13.4516  -16.5353   22.7117 C   0  0  2  0  0  0  0  0  0  0  0  0
   12.1413  -16.2168   22.1827 N   0  0  0  0  0  0  0  0  0  0  0  0
   13.3836  -17.0400   24.0714 C   0  0  0  0  0  0  0  0  0  0  0  0
   14.4251  -17.3886   24.7294 O   0  0  0  0  0  0  0  0  0  0  0  0
   12.1970  -17.1768   24.7426 O   0  0  0  0  0  0  0  0  0  0  0  0
  1  2  1  0
  3 12  1  0
  3  2  1  0
  4  3  2  0
  6  5  1  0
  7  6  2  0
  8  7  1  0
  9  8  2  0
  9 15  1  0
 10  9  1  0
 11 10  1  1
 11 12  1  0
 13 11  1  0
 13 14  2  0
 15 16  2  0
 16  6  1  0
 18 19  2  0
 18 17  1  0
 20 18  1  0
 21 22  1  0
 21 20  1  1
 22 13  1  0
 23 21  1  0
 24 23  2  0
 25 23  1  0
M  END
$$$$
