GYN.pdb
     RDKit          3D

 25 25  0  0  1  0  0  0  0  0999 V2000
    7.8976  -12.9703   17.9075 N   0  0  0  0  0  0  0  0  0  0  0  0
    7.1261  -13.7804   18.8320 C   0  0  0  0  0  0  0  0  0  0  0  0
    7.7717  -13.8367   20.1737 C   0  0  0  0  0  0  0  0  0  0  0  0
    8.9934  -13.6305   20.3157 O   0  0  0  0  0  0  0  0  0  0  0  0
    8.1732  -13.8013   29.1005 O   0  0  0  0  0  0  0  0  0  0  0  0
    7.7565  -13.8206   27.7763 C   0  0  0  0  0  0  0  0  0  0  0  0
    7.2101  -14.9441   27.1923 C   0  0  0  0  0  0  0  0  0  0  0  0
    6.8030  -14.9422   25.8771 C   0  0  0  0  0  0  0  0  0  0  0  0
    6.9155  -13.8293   25.0724 C   0  0  0  0  0  0  0  0  0  0  0  0
    6.4755  -13.8506   23.6694 C   0  0  0  0  0  0  0  0  0  0  0  0
    7.5577  -14.0203   22.6983 C   0  0  2  0  0  0  0  0  0  0  0  0
    7.0325  -14.1223   21.3211 N   0  0  0  0  0  0  0  0  0  0  0  0
    8.3873  -15.1948   22.8727 C   0  0  0  0  0  0  0  0  0  0  0  0
    7.9193  -16.3149   22.4375 O   0  0  0  0  0  0  0  0  0  0  0  0
    7.4649  -12.7026   25.6630 C   0  0  0  0  0  0  0  0  0  0  0  0
    7.8632  -12.7142   26.9603 C   0  0  0  0  0  0  0  0  0  0  0  0
   13.8910  -17.6389   23.4367 N   0  0  0  0  0  0  0  0  0  0  0  0
   12.5811  -17.6520   22.9026 C   0  0  0  0  0  0  0  0  0  0  0  0
   12.1230  -18.7180   22.4480 O   0  0  0  0  0  0  0  0  0  0  0  0
   11.7880  -16.4252   22.8907 C   0  0  0  0  0  0  0  0  0  0  0  0
   10.4020  -16.5740   23.4938 C   0  0  2  0  0  0  0  0  0  0  0  0
    9.6775  -15.3204   23.4519 N   0  0  0  0  0  0  0  0  0  0  0  0
   10.4854  -17.1118   24.8399 C   0  0  0  0  0  0  0  0  0  0  0  0
   10.3035  -16.3905   25.8820 O   0  0  0  0  0  0  0  0  0  0  0  0
   10.7648  -18.4305   25.0850 O   0  0  0  0  0  0  0  0  0  0  0  0
  1  2  1  0
  3 12  1  0
  3  2  1  0
  4  3  2  0
  6  5  1  0
  7  6  2  0
  8  7  1  0
  9  8  2  0
  9 15  1  0
 10  9  1  0
 11 10  1  1
 11 12  1  0
 13 11  1  0
 13 14  2  0
 15 16  2  0
 16  6  1  0
 18 19  2  0
 18 17  1  0
 20 18  1  0
 21 22  1  0
 21 20  1  1
 22 13  1  0
 23 21  1  0
 24 23  2  0
 25 23  1  0
M  END
$$$$
