GYN.pdb
     RDKit          3D

 25 25  0  0  1  0  0  0  0  0999 V2000
   15.7163  -25.9071   31.9671 N   0  0  0  0  0  0  0  0  0  0  0  0
   16.4027  -24.6285   31.9855 C   0  0  0  0  0  0  0  0  0  0  0  0
   15.9223  -23.7387   30.8911 C   0  0  0  0  0  0  0  0  0  0  0  0
   15.2963  -24.1925   29.9127 O   0  0  0  0  0  0  0  0  0  0  0  0
   10.1491  -22.4638   33.0572 O   0  0  0  0  0  0  0  0  0  0  0  0
   11.2795  -21.9588   32.4290 C   0  0  0  0  0  0  0  0  0  0  0  0
   11.3485  -21.7885   31.0622 C   0  0  0  0  0  0  0  0  0  0  0  0
   12.4794  -21.2859   30.4588 C   0  0  0  0  0  0  0  0  0  0  0  0
   13.5996  -20.9263   31.1761 C   0  0  0  0  0  0  0  0  0  0  0  0
   14.7974  -20.3932   30.5101 C   0  0  0  0  0  0  0  0  0  0  0  0
   15.6583  -21.4118   29.9068 C   0  0  2  0  0  0  0  0  0  0  0  0
   16.1555  -22.3642   30.9210 N   0  0  0  0  0  0  0  0  0  0  0  0
   16.8454  -20.9221   29.2365 C   0  0  0  0  0  0  0  0  0  0  0  0
   16.6693  -20.1644   28.2081 O   0  0  0  0  0  0  0  0  0  0  0  0
   13.5261  -21.0990   32.5490 C   0  0  0  0  0  0  0  0  0  0  0  0
   12.4069  -21.5951   33.1347 C   0  0  0  0  0  0  0  0  0  0  0  0
   19.3895  -17.8618   28.2076 N   0  0  0  0  0  0  0  0  0  0  0  0
   20.2153  -18.3376   29.2530 C   0  0  0  0  0  0  0  0  0  0  0  0
   20.9103  -17.5254   29.8934 O   0  0  0  0  0  0  0  0  0  0  0  0
   20.2429  -19.7643   29.5663 C   0  0  0  0  0  0  0  0  0  0  0  0
   19.2927  -20.6038   28.7301 C   0  0  2  0  0  0  0  0  0  0  0  0
   18.2159  -21.1354   29.5402 N   0  0  0  0  0  0  0  0  0  0  0  0
   20.0163  -21.6495   28.0294 C   0  0  0  0  0  0  0  0  0  0  0  0
   19.9988  -22.8721   28.4090 O   0  0  0  0  0  0  0  0  0  0  0  0
   20.7677  -21.3965   26.9119 O   0  0  0  0  0  0  0  0  0  0  0  0
  1  2  1  0
  3 12  1  0
  3  2  1  0
  4  3  2  0
  6  5  1  0
  7  6  2  0
  8  7  1  0
  9  8  2  0
  9 15  1  0
 10  9  1  0
 11 10  1  1
 11 12  1  0
 13 11  1  0
 13 14  2  0
 15 16  2  0
 16  6  1  0
 18 19  2  0
 18 17  1  0
 20 18  1  0
 21 22  1  0
 21 20  1  1
 22 13  1  0
 23 21  1  0
 24 23  2  0
 25 23  1  0
M  END
$$$$
