CKC.pdb
     RDKit          3D

 22 21  0  0  1  0  0  0  0  0999 V2000
    7.0084  -15.5168   18.8714 N   0  0  0  0  0  0  0  0  0  0  0  0
    7.8803  -14.7769   19.8004 C   0  0  1  0  0  0  0  0  0  0  0  0
    7.7163  -13.3019   19.4835 C   0  0  0  0  0  0  0  0  0  0  0  0
    8.8232  -12.8152   18.1475 S   0  0  0  0  0  0  0  0  0  0  0  0
    7.4885  -15.1389   21.1658 C   0  0  0  0  0  0  0  0  0  0  0  0
    6.2545  -15.1342   21.4664 O   0  0  0  0  0  0  0  0  0  0  0  0
    8.3770  -15.5040   22.2101 N   0  0  0  0  0  0  0  0  0  0  0  0
    7.8386  -15.8926   23.5220 C   0  0  1  0  0  0  0  0  0  0  0  0
    8.2486  -17.3202   23.8598 C   0  0  0  0  0  0  0  0  0  0  0  0
    7.7885  -17.6750   25.2486 C   0  0  0  0  0  0  0  0  0  0  0  0
    8.1378  -19.1317   25.4798 C   0  0  0  0  0  0  0  0  0  0  0  0
    7.7169  -19.5547   26.8741 C   0  0  0  0  0  0  0  0  0  0  0  0
    8.0288  -20.9661   27.0540 N   0  0  0  0  0  0  0  0  0  0  0  0
    8.4291  -14.9985   24.5395 C   0  0  0  0  0  0  0  0  0  0  0  0
    9.6748  -14.7289   24.5501 O   0  0  0  0  0  0  0  0  0  0  0  0
    7.6494  -14.3954   25.5527 N   0  0  0  0  0  0  0  0  0  0  0  0
    8.2332  -13.5074   26.5591 C   0  0  1  0  0  0  0  0  0  0  0  0
    7.1664  -12.4421   26.8380 C   0  0  0  0  0  0  0  0  0  0  0  0
    5.6720  -13.3310   27.3669 S   0  0  0  0  0  0  0  0  0  0  0  0
    8.4936  -14.3229   27.7676 C   0  0  0  0  0  0  0  0  0  0  0  0
    8.0314  -15.5050   27.7746 O   0  0  0  0  0  0  0  0  0  0  0  0
    9.2007  -13.8650   28.8620 O   0  0  0  0  0  0  0  0  0  0  0  0
  2  1  1  6
  2  3  1  0
  2  5  1  0
  4  3  1  0
  5  6  2  0
  7  8  1  0
  7  5  1  0
  8  9  1  1
 10  9  1  0
 11 12  1  0
 11 10  1  0
 13 12  1  0
 14 15  2  0
 14  8  1  0
 16 14  1  0
 17 16  1  0
 17 20  1  0
 17 18  1  1
 19 18  1  0
 20 22  1  0
 21 20  2  0
M  END
$$$$
