CKC.pdb
     RDKit          3D

 22 21  0  0  1  0  0  0  0  0999 V2000
    7.3760  -19.9135   23.3158 N   0  0  0  0  0  0  0  0  0  0  0  0
    6.5505  -18.7331   23.6253 C   0  0  1  0  0  0  0  0  0  0  0  0
    6.2806  -18.7593   25.1183 C   0  0  0  0  0  0  0  0  0  0  0  0
    7.8277  -18.8241   26.0398 S   0  0  0  0  0  0  0  0  0  0  0  0
    7.2814  -17.5453   23.1739 C   0  0  0  0  0  0  0  0  0  0  0  0
    8.4942  -17.6751   22.8197 O   0  0  0  0  0  0  0  0  0  0  0  0
    6.7513  -16.2318   23.0914 N   0  0  0  0  0  0  0  0  0  0  0  0
    7.5356  -15.1689   22.4457 C   0  0  1  0  0  0  0  0  0  0  0  0
    6.6107  -14.0982   21.8812 C   0  0  0  0  0  0  0  0  0  0  0  0
    7.4091  -13.0771   21.1155 C   0  0  0  0  0  0  0  0  0  0  0  0
    7.5967  -13.6142   19.7106 C   0  0  0  0  0  0  0  0  0  0  0  0
    8.2625  -12.5687   18.8365 C   0  0  0  0  0  0  0  0  0  0  0  0
    8.5112  -13.1418   17.5207 N   0  0  0  0  0  0  0  0  0  0  0  0
    8.3834  -14.5373   23.4779 C   0  0  0  0  0  0  0  0  0  0  0  0
    8.7508  -13.3201   23.3880 O   0  0  0  0  0  0  0  0  0  0  0  0
    8.8321  -15.2441   24.6169 N   0  0  0  0  0  0  0  0  0  0  0  0
    8.9540  -14.6080   25.9295 C   0  0  1  0  0  0  0  0  0  0  0  0
    7.5434  -14.1250   26.2865 C   0  0  0  0  0  0  0  0  0  0  0  0
    7.6408  -12.3178   26.4534 S   0  0  0  0  0  0  0  0  0  0  0  0
    9.4131  -15.6463   26.8807 C   0  0  0  0  0  0  0  0  0  0  0  0
    9.3519  -16.8522   26.4897 O   0  0  0  0  0  0  0  0  0  0  0  0
    9.8938  -15.3670   28.1449 O   0  0  0  0  0  0  0  0  0  0  0  0
  2  1  1  1
  2  3  1  0
  2  5  1  0
  4  3  1  0
  5  6  2  0
  7  8  1  0
  7  5  1  0
  8  9  1  1
 10  9  1  0
 11 12  1  0
 11 10  1  0
 13 12  1  0
 14 15  2  0
 14  8  1  0
 16 14  1  0
 17 16  1  0
 17 20  1  0
 17 18  1  1
 19 18  1  0
 20 22  1  0
 21 20  2  0
M  END
$$$$
