CKC.pdb
     RDKit          3D

 22 21  0  0  1  0  0  0  0  0999 V2000
    6.4938  -15.4988   19.3575 N   0  0  0  0  0  0  0  0  0  0  0  0
    7.5531  -14.9231   20.2042 C   0  0  1  0  0  0  0  0  0  0  0  0
    7.6155  -13.4398   19.8899 C   0  0  0  0  0  0  0  0  0  0  0  0
    8.6143  -13.1463   18.4191 S   0  0  0  0  0  0  0  0  0  0  0  0
    7.2215  -15.2216   21.6004 C   0  0  0  0  0  0  0  0  0  0  0  0
    6.1061  -14.8236   22.0596 O   0  0  0  0  0  0  0  0  0  0  0  0
    8.0464  -15.9309   22.5113 N   0  0  0  0  0  0  0  0  0  0  0  0
    7.5888  -16.1478   23.8916 C   0  0  1  0  0  0  0  0  0  0  0  0
    7.8935  -17.5740   24.3316 C   0  0  0  0  0  0  0  0  0  0  0  0
    7.5645  -17.7462   25.7905 C   0  0  0  0  0  0  0  0  0  0  0  0
    7.9596  -19.1575   26.1772 C   0  0  0  0  0  0  0  0  0  0  0  0
    7.6151  -19.4163   27.6314 C   0  0  0  0  0  0  0  0  0  0  0  0
    8.0015  -20.7785   27.9733 N   0  0  0  0  0  0  0  0  0  0  0  0
    8.3435  -15.2311   24.7710 C   0  0  0  0  0  0  0  0  0  0  0  0
    9.5884  -15.0165   24.6017 O   0  0  0  0  0  0  0  0  0  0  0  0
    7.7301  -14.5445   25.8437 N   0  0  0  0  0  0  0  0  0  0  0  0
    8.4721  -13.6192   26.7013 C   0  0  1  0  0  0  0  0  0  0  0  0
    7.5580  -12.4019   26.8829 C   0  0  0  0  0  0  0  0  0  0  0  0
    5.9089  -13.0481   27.2907 S   0  0  0  0  0  0  0  0  0  0  0  0
    8.7013  -14.3050   27.9938 C   0  0  0  0  0  0  0  0  0  0  0  0
    8.1523  -15.4389   28.1489 O   0  0  0  0  0  0  0  0  0  0  0  0
    9.4680  -13.7778   29.0144 O   0  0  0  0  0  0  0  0  0  0  0  0
  2  1  1  6
  2  3  1  0
  2  5  1  0
  4  3  1  0
  5  6  2  0
  7  8  1  0
  7  5  1  0
  8  9  1  1
 10  9  1  0
 11 12  1  0
 11 10  1  0
 13 12  1  0
 14 15  2  0
 14  8  1  0
 16 14  1  0
 17 16  1  0
 17 20  1  0
 17 18  1  1
 19 18  1  0
 20 22  1  0
 21 20  2  0
M  END
$$$$
