CKC.pdb
     RDKit          3D

 22 21  0  0  1  0  0  0  0  0999 V2000
    8.2559  -15.5059   20.0773 N   0  0  0  0  0  0  0  0  0  0  0  0
    8.2411  -14.3290   20.9635 C   0  0  1  0  0  0  0  0  0  0  0  0
    7.1651  -13.3944   20.4423 C   0  0  0  0  0  0  0  0  0  0  0  0
    7.5617  -12.8412   18.7738 S   0  0  0  0  0  0  0  0  0  0  0  0
    8.0066  -14.8017   22.3311 C   0  0  0  0  0  0  0  0  0  0  0  0
    7.5763  -13.9761   23.1950 O   0  0  0  0  0  0  0  0  0  0  0  0
    8.2184  -16.1260   22.7944 N   0  0  0  0  0  0  0  0  0  0  0  0
    7.8330  -16.4881   24.1664 C   0  0  1  0  0  0  0  0  0  0  0  0
    7.6904  -17.9993   24.2939 C   0  0  0  0  0  0  0  0  0  0  0  0
    6.4919  -18.4728   23.5156 C   0  0  0  0  0  0  0  0  0  0  0  0
    6.4211  -19.9789   23.6709 C   0  0  0  0  0  0  0  0  0  0  0  0
    5.2005  -20.5211   22.9522 C   0  0  0  0  0  0  0  0  0  0  0  0
    5.1762  -21.9709   23.0902 N   0  0  0  0  0  0  0  0  0  0  0  0
    8.9174  -16.0570   25.0728 C   0  0  0  0  0  0  0  0  0  0  0  0
   10.1328  -16.0207   24.6908 O   0  0  0  0  0  0  0  0  0  0  0  0
    8.6686  -15.6629   26.4074 N   0  0  0  0  0  0  0  0  0  0  0  0
    9.7434  -15.2448   27.3086 C   0  0  1  0  0  0  0  0  0  0  0  0
    9.1934  -14.0353   28.0735 C   0  0  0  0  0  0  0  0  0  0  0  0
   10.4775  -13.5466   29.2633 S   0  0  0  0  0  0  0  0  0  0  0  0
   10.0106  -16.3744   28.2285 C   0  0  0  0  0  0  0  0  0  0  0  0
    9.0643  -17.1990   28.4171 O   0  0  0  0  0  0  0  0  0  0  0  0
   11.2157  -16.5659   28.8752 O   0  0  0  0  0  0  0  0  0  0  0  0
  2  1  1  6
  2  3  1  0
  2  5  1  0
  4  3  1  0
  5  6  2  0
  7  8  1  0
  7  5  1  0
  8  9  1  6
 10  9  1  0
 11 12  1  0
 11 10  1  0
 13 12  1  0
 14 15  2  0
 14  8  1  0
 16 14  1  0
 17 16  1  0
 17 20  1  0
 17 18  1  1
 19 18  1  0
 20 22  1  0
 21 20  2  0
M  END
$$$$
