CKC.pdb
     RDKit          3D

 22 21  0  0  1  0  0  0  0  0999 V2000
    9.6877  -12.0167    6.7473 N   0  0  0  0  0  0  0  0  0  0  0  0
   10.7594  -12.9611    7.1079 C   0  0  1  0  0  0  0  0  0  0  0  0
   11.8993  -12.1406    7.6827 C   0  0  0  0  0  0  0  0  0  0  0  0
   11.3653  -11.2681    9.1660 S   0  0  0  0  0  0  0  0  0  0  0  0
   10.1981  -13.9380    8.0456 C   0  0  0  0  0  0  0  0  0  0  0  0
    9.1287  -13.6429    8.6642 O   0  0  0  0  0  0  0  0  0  0  0  0
   10.7472  -15.2137    8.3358 N   0  0  0  0  0  0  0  0  0  0  0  0
    9.9919  -16.1591    9.1710 C   0  0  1  0  0  0  0  0  0  0  0  0
   10.2997  -17.5925    8.7575 C   0  0  0  0  0  0  0  0  0  0  0  0
    9.2947  -18.5332    9.3668 C   0  0  0  0  0  0  0  0  0  0  0  0
    9.5959  -19.9199    8.8339 C   0  0  0  0  0  0  0  0  0  0  0  0
    8.5952  -20.9189    9.3825 C   0  0  0  0  0  0  0  0  0  0  0  0
    8.8884  -22.2339    8.8289 N   0  0  0  0  0  0  0  0  0  0  0  0
   10.4352  -15.9857   10.5698 C   0  0  0  0  0  0  0  0  0  0  0  0
   10.9582  -14.8963   10.9749 O   0  0  0  0  0  0  0  0  0  0  0  0
   10.3046  -17.0132   11.5319 N   0  0  0  0  0  0  0  0  0  0  0  0
   10.6895  -16.8226   12.9311 C   0  0  1  0  0  0  0  0  0  0  0  0
    9.7952  -15.6928   13.4548 C   0  0  0  0  0  0  0  0  0  0  0  0
   10.0735  -15.6004   15.2485 S   0  0  0  0  0  0  0  0  0  0  0  0
   10.4080  -18.0913   13.6416 C   0  0  0  0  0  0  0  0  0  0  0  0
   11.3057  -18.5210   14.4293 O   0  0  0  0  0  0  0  0  0  0  0  0
    9.2393  -18.8109   13.4886 O   0  0  0  0  0  0  0  0  0  0  0  0
  2  1  1  1
  2  3  1  0
  2  5  1  0
  4  3  1  0
  5  6  2  0
  7  8  1  0
  7  5  1  0
  8  9  1  6
 10  9  1  0
 11 12  1  0
 11 10  1  0
 13 12  1  0
 14 15  2  0
 14  8  1  0
 16 14  1  0
 17 16  1  0
 17 20  1  0
 17 18  1  1
 19 18  1  0
 20 22  1  0
 21 20  2  0
M  END
$$$$
