CKC.pdb
     RDKit          3D

 22 21  0  0  1  0  0  0  0  0999 V2000
    7.3358  -15.5844   18.1246 N   0  0  0  0  0  0  0  0  0  0  0  0
    8.0741  -14.6394   18.9803 C   0  0  1  0  0  0  0  0  0  0  0  0
    7.3801  -13.2954   18.8591 C   0  0  0  0  0  0  0  0  0  0  0  0
    8.1386  -12.0900   19.9631 S   0  0  0  0  0  0  0  0  0  0  0  0
    8.0843  -15.1828   20.3417 C   0  0  0  0  0  0  0  0  0  0  0  0
    7.0235  -15.7173   20.7916 O   0  0  0  0  0  0  0  0  0  0  0  0
    9.1927  -15.1699   21.2274 N   0  0  0  0  0  0  0  0  0  0  0  0
    9.0744  -15.7980   22.5515 C   0  0  1  0  0  0  0  0  0  0  0  0
   10.2875  -16.6761   22.8303 C   0  0  0  0  0  0  0  0  0  0  0  0
   10.2847  -17.8683   21.9111 C   0  0  0  0  0  0  0  0  0  0  0  0
   11.4910  -18.7140   22.2675 C   0  0  0  0  0  0  0  0  0  0  0  0
   11.5919  -19.9013   21.3293 C   0  0  0  0  0  0  0  0  0  0  0  0
   12.7214  -20.7278   21.7330 N   0  0  0  0  0  0  0  0  0  0  0  0
    9.0505  -14.7229   23.5650 C   0  0  0  0  0  0  0  0  0  0  0  0
    9.1871  -13.4974   23.2425 O   0  0  0  0  0  0  0  0  0  0  0  0
    8.8757  -14.9923   24.9416 N   0  0  0  0  0  0  0  0  0  0  0  0
    8.4276  -13.9664   25.8845 C   0  0  1  0  0  0  0  0  0  0  0  0
    7.0457  -13.5253   25.3882 C   0  0  0  0  0  0  0  0  0  0  0  0
    6.3688  -12.4151   26.6581 S   0  0  0  0  0  0  0  0  0  0  0  0
    8.3307  -14.6057   27.2170 C   0  0  0  0  0  0  0  0  0  0  0  0
    7.9673  -15.8215   27.2468 O   0  0  0  0  0  0  0  0  0  0  0  0
    8.6117  -13.9529   28.4011 O   0  0  0  0  0  0  0  0  0  0  0  0
  2  1  1  6
  2  3  1  0
  2  5  1  0
  4  3  1  0
  5  6  2  0
  7  8  1  0
  7  5  1  0
  8  9  1  1
 10  9  1  0
 11 12  1  0
 11 10  1  0
 13 12  1  0
 14 15  2  0
 14  8  1  0
 16 14  1  0
 17 16  1  0
 17 20  1  0
 17 18  1  6
 19 18  1  0
 20 22  1  0
 21 20  2  0
M  END
$$$$
