CKC.pdb
     RDKit          3D

 22 21  0  0  1  0  0  0  0  0999 V2000
    8.2247  -13.2130   18.5036 N   0  0  0  0  0  0  0  0  0  0  0  0
    8.8334  -14.3941   19.1398 C   0  0  1  0  0  0  0  0  0  0  0  0
   10.2955  -14.0656   19.3789 C   0  0  0  0  0  0  0  0  0  0  0  0
   10.4569  -12.7517   20.6013 S   0  0  0  0  0  0  0  0  0  0  0  0
    8.0804  -14.6805   20.3644 C   0  0  0  0  0  0  0  0  0  0  0  0
    7.3176  -13.7802   20.8344 O   0  0  0  0  0  0  0  0  0  0  0  0
    8.1215  -15.8971   21.0933 N   0  0  0  0  0  0  0  0  0  0  0  0
    7.3229  -16.0390   22.3197 C   0  0  1  0  0  0  0  0  0  0  0  0
    7.1355  -17.5116   22.6610 C   0  0  0  0  0  0  0  0  0  0  0  0
    6.0548  -18.1083   21.7994 C   0  0  0  0  0  0  0  0  0  0  0  0
    5.9299  -19.5696   22.1822 C   0  0  0  0  0  0  0  0  0  0  0  0
    4.8645  -20.2415   21.3373 C   0  0  0  0  0  0  0  0  0  0  0  0
    4.7855  -21.6481   21.7073 N   0  0  0  0  0  0  0  0  0  0  0  0
    8.0722  -15.4089   23.4265 C   0  0  0  0  0  0  0  0  0  0  0  0
    9.3464  -15.3813   23.4403 O   0  0  0  0  0  0  0  0  0  0  0  0
    7.4210  -14.8048   24.5261 N   0  0  0  0  0  0  0  0  0  0  0  0
    8.1511  -14.0429   25.5404 C   0  0  1  0  0  0  0  0  0  0  0  0
    7.1475  -13.0242   26.0930 C   0  0  0  0  0  0  0  0  0  0  0  0
    8.0208  -12.0801   27.3773 S   0  0  0  0  0  0  0  0  0  0  0  0
    8.5678  -14.9981   26.5928 C   0  0  0  0  0  0  0  0  0  0  0  0
    7.7949  -15.9794   26.8179 O   0  0  0  0  0  0  0  0  0  0  0  0
    9.7329  -14.8714   27.3233 O   0  0  0  0  0  0  0  0  0  0  0  0
  2  1  1  1
  2  3  1  0
  2  5  1  0
  4  3  1  0
  5  6  2  0
  7  8  1  0
  7  5  1  0
  8  9  1  1
 10  9  1  0
 11 12  1  0
 11 10  1  0
 13 12  1  0
 14 15  2  0
 14  8  1  0
 16 14  1  0
 17 16  1  0
 17 20  1  0
 17 18  1  1
 19 18  1  0
 20 22  1  0
 21 20  2  0
M  END
$$$$
