CKC.pdb
     RDKit          3D

 22 21  0  0  1  0  0  0  0  0999 V2000
    8.5448  -13.0933   18.1321 N   0  0  0  0  0  0  0  0  0  0  0  0
    7.7953  -14.0900   18.9164 C   0  0  1  0  0  0  0  0  0  0  0  0
    8.0533  -15.4424   18.2783 C   0  0  0  0  0  0  0  0  0  0  0  0
    6.9647  -15.6927   16.8644 S   0  0  0  0  0  0  0  0  0  0  0  0
    8.2447  -13.9938   20.3084 C   0  0  0  0  0  0  0  0  0  0  0  0
    9.4917  -13.9358   20.5426 O   0  0  0  0  0  0  0  0  0  0  0  0
    7.4001  -13.9574   21.4479 N   0  0  0  0  0  0  0  0  0  0  0  0
    7.9872  -13.7830   22.7846 C   0  0  1  0  0  0  0  0  0  0  0  0
    6.9471  -13.2308   23.7508 C   0  0  0  0  0  0  0  0  0  0  0  0
    7.5296  -13.1310   25.1354 C   0  0  0  0  0  0  0  0  0  0  0  0
    6.4521  -12.5615   26.0367 C   0  0  0  0  0  0  0  0  0  0  0  0
    6.9713  -12.4360   27.4562 C   0  0  0  0  0  0  0  0  0  0  0  0
    5.9136  -11.8967   28.3001 N   0  0  0  0  0  0  0  0  0  0  0  0
    8.4021  -15.1131   23.2767 C   0  0  0  0  0  0  0  0  0  0  0  0
    7.6554  -16.1375   23.1442 O   0  0  0  0  0  0  0  0  0  0  0  0
    9.6440  -15.3224   23.9187 N   0  0  0  0  0  0  0  0  0  0  0  0
   10.0927  -16.6535   24.3302 C   0  0  1  0  0  0  0  0  0  0  0  0
   11.4688  -16.8437   23.6816 C   0  0  0  0  0  0  0  0  0  0  0  0
   12.1772  -18.3545   24.4020 S   0  0  0  0  0  0  0  0  0  0  0  0
   10.2019  -16.6440   25.8072 C   0  0  0  0  0  0  0  0  0  0  0  0
   10.3936  -15.5189   26.3627 O   0  0  0  0  0  0  0  0  0  0  0  0
   10.1065  -17.7785   26.5888 O   0  0  0  0  0  0  0  0  0  0  0  0
  2  1  1  6
  2  3  1  0
  2  5  1  0
  4  3  1  0
  5  6  2  0
  7  8  1  0
  7  5  1  0
  8  9  1  1
 10  9  1  0
 11 12  1  0
 11 10  1  0
 13 12  1  0
 14 15  2  0
 14  8  1  0
 16 14  1  0
 17 16  1  0
 17 20  1  0
 17 18  1  6
 19 18  1  0
 20 22  1  0
 21 20  2  0
M  END
$$$$
