CKC.pdb
     RDKit          3D

 22 21  0  0  1  0  0  0  0  0999 V2000
    5.0664  -13.5759   26.2340 N   0  0  0  0  0  0  0  0  0  0  0  0
    6.2517  -13.0359   25.5455 C   0  0  1  0  0  0  0  0  0  0  0  0
    6.9841  -12.1591   26.5443 C   0  0  0  0  0  0  0  0  0  0  0  0
    6.1649  -10.5622   26.7042 S   0  0  0  0  0  0  0  0  0  0  0  0
    7.0418  -14.1706   25.0586 C   0  0  0  0  0  0  0  0  0  0  0  0
    7.1268  -15.2093   25.7848 O   0  0  0  0  0  0  0  0  0  0  0  0
    7.7377  -14.2224   23.8232 N   0  0  0  0  0  0  0  0  0  0  0  0
    8.5592  -15.3977   23.4985 C   0  0  1  0  0  0  0  0  0  0  0  0
    9.0036  -15.3462   22.0424 C   0  0  0  0  0  0  0  0  0  0  0  0
    8.3463  -16.4531   21.2621 C   0  0  0  0  0  0  0  0  0  0  0  0
    8.8376  -16.3485   19.8320 C   0  0  0  0  0  0  0  0  0  0  0  0
    8.1304  -17.3689   18.9609 C   0  0  0  0  0  0  0  0  0  0  0  0
    8.7156  -17.3383   17.6274 N   0  0  0  0  0  0  0  0  0  0  0  0
    9.7704  -15.3544   24.3439 C   0  0  0  0  0  0  0  0  0  0  0  0
   10.5240  -14.3271   24.3794 O   0  0  0  0  0  0  0  0  0  0  0  0
   10.1588  -16.4442   25.1561 N   0  0  0  0  0  0  0  0  0  0  0  0
   10.9973  -16.2702   26.3430 C   0  0  1  0  0  0  0  0  0  0  0  0
   10.1813  -15.3930   27.2997 C   0  0  0  0  0  0  0  0  0  0  0  0
   11.1408  -15.2724   28.8385 S   0  0  0  0  0  0  0  0  0  0  0  0
   11.2241  -17.6142   26.9224 C   0  0  0  0  0  0  0  0  0  0  0  0
   12.1733  -17.7281   27.7573 O   0  0  0  0  0  0  0  0  0  0  0  0
   10.4662  -18.7233   26.6021 O   0  0  0  0  0  0  0  0  0  0  0  0
  2  1  1  1
  2  3  1  0
  2  5  1  0
  4  3  1  0
  5  6  2  0
  7  8  1  0
  7  5  1  0
  8  9  1  6
 10  9  1  0
 11 12  1  0
 11 10  1  0
 13 12  1  0
 14 15  2  0
 14  8  1  0
 16 14  1  0
 17 16  1  0
 17 20  1  0
 17 18  1  1
 19 18  1  0
 20 22  1  0
 21 20  2  0
M  END
$$$$
