CKC.pdb
     RDKit          3D

 22 21  0  0  1  0  0  0  0  0999 V2000
    7.1890  -15.1152   19.1877 N   0  0  0  0  0  0  0  0  0  0  0  0
    8.2951  -14.8970   20.1361 C   0  0  1  0  0  0  0  0  0  0  0  0
    8.7470  -13.4582   19.9676 C   0  0  0  0  0  0  0  0  0  0  0  0
    7.8718  -12.6762   18.6004 S   0  0  0  0  0  0  0  0  0  0  0  0
    7.8009  -15.2116   21.4797 C   0  0  0  0  0  0  0  0  0  0  0  0
    6.5759  -15.0024   21.7421 O   0  0  0  0  0  0  0  0  0  0  0  0
    8.5780  -15.7416   22.5420 N   0  0  0  0  0  0  0  0  0  0  0  0
    7.9335  -16.0727   23.8214 C   0  0  1  0  0  0  0  0  0  0  0  0
    8.2620  -17.5046   24.2238 C   0  0  0  0  0  0  0  0  0  0  0  0
    7.5901  -17.8420   25.5280 C   0  0  0  0  0  0  0  0  0  0  0  0
    7.8585  -19.3076   25.8064 C   0  0  0  0  0  0  0  0  0  0  0  0
    7.1024  -19.7510   27.0441 C   0  0  0  0  0  0  0  0  0  0  0  0
    7.3487  -21.1695   27.2654 N   0  0  0  0  0  0  0  0  0  0  0  0
    8.4854  -15.1732   24.8557 C   0  0  0  0  0  0  0  0  0  0  0  0
    9.7345  -14.9321   24.9341 O   0  0  0  0  0  0  0  0  0  0  0  0
    7.6631  -14.5333   25.8110 N   0  0  0  0  0  0  0  0  0  0  0  0
    8.1950  -13.5668   26.7729 C   0  0  1  0  0  0  0  0  0  0  0  0
    6.9738  -12.8309   27.3364 C   0  0  0  0  0  0  0  0  0  0  0  0
    6.2397  -11.9092   25.9526 S   0  0  0  0  0  0  0  0  0  0  0  0
    8.8840  -14.3362   27.8344 C   0  0  0  0  0  0  0  0  0  0  0  0
    8.8075  -15.6015   27.7697 O   0  0  0  0  0  0  0  0  0  0  0  0
    9.5897  -13.7517   28.8676 O   0  0  0  0  0  0  0  0  0  0  0  0
  2  1  1  6
  2  3  1  0
  2  5  1  0
  4  3  1  0
  5  6  2  0
  7  8  1  0
  7  5  1  0
  8  9  1  1
 10  9  1  0
 11 12  1  0
 11 10  1  0
 13 12  1  0
 14 15  2  0
 14  8  1  0
 16 14  1  0
 17 16  1  0
 17 20  1  0
 17 18  1  1
 19 18  1  0
 20 22  1  0
 21 20  2  0
M  END
$$$$
