CKC.pdb
     RDKit          3D

 22 21  0  0  1  0  0  0  0  0999 V2000
    6.8750  -15.0146   19.4607 N   0  0  0  0  0  0  0  0  0  0  0  0
    8.0655  -15.0908   20.3251 C   0  0  1  0  0  0  0  0  0  0  0  0
    8.8708  -13.8273   20.0840 C   0  0  0  0  0  0  0  0  0  0  0  0
    8.0618  -12.7865   18.8555 S   0  0  0  0  0  0  0  0  0  0  0  0
    7.6051  -15.2475   21.7079 C   0  0  0  0  0  0  0  0  0  0  0  0
    6.5323  -14.6668   22.0617 O   0  0  0  0  0  0  0  0  0  0  0  0
    8.2578  -16.0052   22.7145 N   0  0  0  0  0  0  0  0  0  0  0  0
    7.6158  -16.1809   24.0255 C   0  0  1  0  0  0  0  0  0  0  0  0
    7.8300  -17.6010   24.5329 C   0  0  0  0  0  0  0  0  0  0  0  0
    6.7853  -18.5189   23.9563 C   0  0  0  0  0  0  0  0  0  0  0  0
    7.0320  -19.8992   24.5322 C   0  0  0  0  0  0  0  0  0  0  0  0
    6.0172  -20.8832   23.9826 C   0  0  0  0  0  0  0  0  0  0  0  0
    6.3663  -22.2234   24.4339 N   0  0  0  0  0  0  0  0  0  0  0  0
    8.2649  -15.2564   24.9781 C   0  0  0  0  0  0  0  0  0  0  0  0
    9.5127  -15.0031   24.9185 O   0  0  0  0  0  0  0  0  0  0  0  0
    7.5421  -14.6048   26.0033 N   0  0  0  0  0  0  0  0  0  0  0  0
    8.1784  -13.6655   26.9279 C   0  0  1  0  0  0  0  0  0  0  0  0
    7.0385  -12.8172   27.5038 C   0  0  0  0  0  0  0  0  0  0  0  0
    6.3535  -11.8603   26.1187 S   0  0  0  0  0  0  0  0  0  0  0  0
    8.8291  -14.4665   27.9903 C   0  0  0  0  0  0  0  0  0  0  0  0
    8.6054  -15.7159   27.9874 O   0  0  0  0  0  0  0  0  0  0  0  0
    9.6495  -13.9269   28.9614 O   0  0  0  0  0  0  0  0  0  0  0  0
  2  1  1  6
  2  3  1  0
  2  5  1  0
  4  3  1  0
  5  6  2  0
  7  8  1  0
  7  5  1  0
  8  9  1  1
 10  9  1  0
 11 12  1  0
 11 10  1  0
 13 12  1  0
 14 15  2  0
 14  8  1  0
 16 14  1  0
 17 16  1  0
 17 20  1  0
 17 18  1  1
 19 18  1  0
 20 22  1  0
 21 20  2  0
M  END
$$$$
