YMH.pdb
     RDKit          3D

 31 32  0  0  1  0  0  0  0  0999 V2000
   22.1797    1.4934  -17.3212 O   0  0  0  0  0  0  0  0  0  0  0  0
   22.1791    0.1017  -17.4770 C   0  0  0  0  0  0  0  0  0  0  0  0
   21.8134   -0.4179  -18.7102 C   0  0  0  0  0  0  0  0  0  0  0  0
   21.8037   -1.7868  -18.8931 C   0  0  0  0  0  0  0  0  0  0  0  0
   22.1446   -2.6719  -17.8952 C   0  0  0  0  0  0  0  0  0  0  0  0
   22.1280   -4.1427  -18.1127 C   0  0  0  0  0  0  0  0  0  0  0  0
   23.5063   -4.6926  -18.3444 C   0  0  2  0  0  0  0  0  0  0  0  0
   24.0607   -4.1962  -19.5892 N   0  0  0  0  0  0  0  0  0  0  0  0
   23.5805   -6.1473  -18.3344 C   0  0  0  0  0  0  0  0  0  0  0  0
   23.5468   -6.7413  -19.4632 O   0  0  0  0  0  0  0  0  0  0  0  0
   22.5059   -2.1177  -16.6723 C   0  0  0  0  0  0  0  0  0  0  0  0
   22.5225   -0.7567  -16.4682 C   0  0  0  0  0  0  0  0  0  0  0  0
   27.3102  -12.1964  -15.1769 C   0  0  0  0  0  0  0  0  0  0  0  0
   26.9658  -10.4349  -15.3302 S   0  0  0  0  0  0  0  0  0  0  0  0
   25.3598  -10.1723  -16.1819 C   0  0  0  0  0  0  0  0  0  0  0  0
   25.0972   -8.7292  -16.3944 C   0  0  0  0  0  0  0  0  0  0  0  0
   23.8479   -8.3871  -17.1684 C   0  0  2  0  0  0  0  0  0  0  0  0
   23.6855   -6.9160  -17.1599 N   0  0  0  0  0  0  0  0  0  0  0  0
   22.6218   -8.9967  -16.6557 C   0  0  0  0  0  0  0  0  0  0  0  0
   22.1453   -8.5479  -15.5702 O   0  0  0  0  0  0  0  0  0  0  0  0
   21.8990  -10.0443  -17.2545 N   0  0  0  0  0  0  0  0  0  0  0  0
   20.6988  -10.5751  -16.5725 C   0  0  1  0  0  0  0  0  0  0  0  0
   20.1925  -11.7742  -17.3744 C   0  0  0  0  0  0  0  0  0  0  0  0
   18.9389  -12.2622  -16.7738 C   0  0  0  0  0  0  0  0  0  0  0  0
   18.6143  -12.1709  -15.4079 C   0  0  0  0  0  0  0  0  0  0  0  0
   17.4030  -12.7127  -15.2135 N   0  0  0  0  0  0  0  0  0  0  0  0
   16.9505  -13.1408  -16.3952 C   0  0  0  0  0  0  0  0  0  0  0  0
   17.8791  -12.8634  -17.3105 N   0  0  0  0  0  0  0  0  0  0  0  0
   21.1986  -11.0952  -15.2827 C   0  0  0  0  0  0  0  0  0  0  0  0
   20.5562  -10.8566  -14.2315 O   0  0  0  0  0  0  0  0  0  0  0  0
   22.3354  -11.8324  -15.1678 O   0  0  0  0  0  0  0  0  0  0  0  0
  2  1  1  0
  3  2  2  0
  4  3  1  0
  5 11  1  0
  5  4  2  0
  6  5  1  0
  7  9  1  0
  7  6  1  0
  7  8  1  6
  9 10  2  0
 11 12  2  0
 12  2  1  0
 13 14  1  0
 14 15  1  0
 16 15  1  0
 17 16  1  1
 18  9  1  0
 18 17  1  0
 19 21  1  0
 19 17  1  0
 20 19  2  0
 22 29  1  0
 22 21  1  0
 22 23  1  6
 23 24  1  0
 24 25  2  0
 24 28  1  0
 25 26  1  0
 26 27  1  0
 28 27  2  0
 29 31  1  0
 30 29  2  0
M  END
$$$$
