YMH.pdb
     RDKit          3D

 31 32  0  0  1  0  0  0  0  0999 V2000
   33.8966   -6.5893  -18.8229 O   0  0  0  0  0  0  0  0  0  0  0  0
   32.5691   -7.0255  -18.7299 C   0  0  0  0  0  0  0  0  0  0  0  0
   32.1552   -7.6116  -17.5425 C   0  0  0  0  0  0  0  0  0  0  0  0
   30.8515   -8.0512  -17.4219 C   0  0  0  0  0  0  0  0  0  0  0  0
   29.9309   -7.9333  -18.4388 C   0  0  0  0  0  0  0  0  0  0  0  0
   28.5315   -8.4129  -18.2887 C   0  0  0  0  0  0  0  0  0  0  0  0
   28.4464   -9.9123  -18.3029 C   0  0  2  0  0  0  0  0  0  0  0  0
   28.8770  -10.4446  -19.5814 N   0  0  0  0  0  0  0  0  0  0  0  0
   27.1265  -10.4405  -17.9852 C   0  0  0  0  0  0  0  0  0  0  0  0
   26.3362  -10.6631  -18.9619 O   0  0  0  0  0  0  0  0  0  0  0  0
   30.3788   -7.3415  -19.6146 C   0  0  0  0  0  0  0  0  0  0  0  0
   31.6735   -6.8964  -19.7562 C   0  0  0  0  0  0  0  0  0  0  0  0
   27.5802  -16.1938  -15.2730 C   0  0  0  0  0  0  0  0  0  0  0  0
   26.3753  -14.9595  -14.7537 S   0  0  0  0  0  0  0  0  0  0  0  0
   26.3175  -13.5785  -15.9634 C   0  0  0  0  0  0  0  0  0  0  0  0
   25.5271  -12.4403  -15.4376 C   0  0  0  0  0  0  0  0  0  0  0  0
   25.3507  -11.2662  -16.3689 C   0  0  2  0  0  0  0  0  0  0  0  0
   26.6885  -10.7123  -16.6753 N   0  0  0  0  0  0  0  0  0  0  0  0
   24.5067  -10.1914  -15.8489 C   0  0  0  0  0  0  0  0  0  0  0  0
   25.0342   -9.3529  -15.0580 O   0  0  0  0  0  0  0  0  0  0  0  0
   23.1474   -9.9831  -16.1439 N   0  0  0  0  0  0  0  0  0  0  0  0
   22.4508   -8.8194  -15.5538 C   0  0  1  0  0  0  0  0  0  0  0  0
   21.9574   -7.9348  -16.6988 C   0  0  0  0  0  0  0  0  0  0  0  0
   23.0978   -7.1885  -17.2584 C   0  0  0  0  0  0  0  0  0  0  0  0
   23.9079   -7.6360  -18.3180 C   0  0  0  0  0  0  0  0  0  0  0  0
   24.8461   -6.7105  -18.5665 N   0  0  0  0  0  0  0  0  0  0  0  0
   24.6632   -5.7008  -17.7113 C   0  0  0  0  0  0  0  0  0  0  0  0
   23.6181   -6.0046  -16.9415 N   0  0  0  0  0  0  0  0  0  0  0  0
   21.2549   -9.3895  -14.8993 C   0  0  0  0  0  0  0  0  0  0  0  0
   21.0194  -10.6174  -15.0076 O   0  0  0  0  0  0  0  0  0  0  0  0
   20.3791   -8.6462  -14.1716 O   0  0  0  0  0  0  0  0  0  0  0  0
  2  1  1  0
  3  2  2  0
  4  3  1  0
  5 11  1  0
  5  4  2  0
  6  5  1  0
  7  9  1  0
  7  6  1  0
  7  8  1  6
  9 10  2  0
 11 12  2  0
 12  2  1  0
 13 14  1  0
 14 15  1  0
 16 15  1  0
 17 16  1  1
 18  9  1  0
 18 17  1  0
 19 21  1  0
 19 17  1  0
 20 19  2  0
 22 29  1  0
 22 21  1  0
 22 23  1  6
 23 24  1  0
 24 25  2  0
 24 28  1  0
 25 26  1  0
 26 27  1  0
 28 27  2  0
 29 31  1  0
 30 29  2  0
M  END
$$$$
