YMH.pdb
     RDKit          3D

 31 32  0  0  1  0  0  0  0  0999 V2000
   18.4966  -15.4397  -25.4910 O   0  0  0  0  0  0  0  0  0  0  0  0
   18.6630  -14.8008  -24.2559 C   0  0  0  0  0  0  0  0  0  0  0  0
   17.6885  -14.9882  -23.2865 C   0  0  0  0  0  0  0  0  0  0  0  0
   17.8260  -14.3706  -22.0588 C   0  0  0  0  0  0  0  0  0  0  0  0
   18.8997  -13.5667  -21.7480 C   0  0  0  0  0  0  0  0  0  0  0  0
   19.0291  -12.9109  -20.4198 C   0  0  0  0  0  0  0  0  0  0  0  0
   20.1096  -13.5379  -19.5860 C   0  0  2  0  0  0  0  0  0  0  0  0
   19.7777  -14.9097  -19.2525 N   0  0  0  0  0  0  0  0  0  0  0  0
   20.4207  -12.8104  -18.3629 C   0  0  0  0  0  0  0  0  0  0  0  0
   19.8012  -13.1583  -17.3031 O   0  0  0  0  0  0  0  0  0  0  0  0
   19.8575  -13.4003  -22.7420 C   0  0  0  0  0  0  0  0  0  0  0  0
   19.7403  -14.0064  -23.9722 C   0  0  0  0  0  0  0  0  0  0  0  0
   26.1381  -12.4868  -18.0082 C   0  0  0  0  0  0  0  0  0  0  0  0
   25.5023  -12.5119  -16.3230 S   0  0  0  0  0  0  0  0  0  0  0  0
   23.6662  -12.4645  -16.3349 C   0  0  0  0  0  0  0  0  0  0  0  0
   23.1685  -11.1514  -16.8088 C   0  0  0  0  0  0  0  0  0  0  0  0
   21.6809  -11.0474  -17.0395 C   0  0  2  0  0  0  0  0  0  0  0  0
   21.3556  -11.7602  -18.2951 N   0  0  0  0  0  0  0  0  0  0  0  0
   21.1676   -9.6813  -17.1299 C   0  0  0  0  0  0  0  0  0  0  0  0
   21.3462   -9.0512  -18.2152 O   0  0  0  0  0  0  0  0  0  0  0  0
   20.4787   -8.9821  -16.1225 N   0  0  0  0  0  0  0  0  0  0  0  0
   20.0812   -7.5776  -16.3615 C   0  0  1  0  0  0  0  0  0  0  0  0
   19.0656   -7.1860  -15.2880 C   0  0  0  0  0  0  0  0  0  0  0  0
   18.6117   -5.8060  -15.5332 C   0  0  0  0  0  0  0  0  0  0  0  0
   19.4363   -4.7570  -15.9795 C   0  0  0  0  0  0  0  0  0  0  0  0
   18.6972   -3.6438  -16.0937 N   0  0  0  0  0  0  0  0  0  0  0  0
   17.4448   -3.9446  -15.7394 C   0  0  0  0  0  0  0  0  0  0  0  0
   17.4149   -5.2359  -15.4094 N   0  0  0  0  0  0  0  0  0  0  0  0
   21.3065   -6.7918  -16.1072 C   0  0  0  0  0  0  0  0  0  0  0  0
   22.1593   -7.2253  -15.2950 O   0  0  0  0  0  0  0  0  0  0  0  0
   21.5686   -5.6041  -16.7153 O   0  0  0  0  0  0  0  0  0  0  0  0
  2  1  1  0
  3  2  2  0
  4  3  1  0
  5 11  1  0
  5  4  2  0
  6  5  1  0
  7  9  1  0
  7  6  1  0
  7  8  1  1
  9 10  2  0
 11 12  2  0
 12  2  1  0
 13 14  1  0
 14 15  1  0
 16 15  1  0
 17 16  1  6
 18  9  1  0
 18 17  1  0
 19 21  1  0
 19 17  1  0
 20 19  2  0
 22 29  1  0
 22 21  1  0
 22 23  1  1
 23 24  1  0
 24 25  2  0
 24 28  1  0
 25 26  1  0
 26 27  1  0
 28 27  2  0
 29 31  1  0
 30 29  2  0
M  END
$$$$
