YMH.pdb
     RDKit          3D

 31 32  0  0  1  0  0  0  0  0999 V2000
   17.1072  -25.4649   -7.2860 O   0  0  0  0  0  0  0  0  0  0  0  0
   18.0696  -24.5609   -7.7526 C   0  0  0  0  0  0  0  0  0  0  0  0
   17.8630  -23.9664   -8.9889 C   0  0  0  0  0  0  0  0  0  0  0  0
   18.7953  -23.0707   -9.4747 C   0  0  0  0  0  0  0  0  0  0  0  0
   19.9357  -22.7357   -8.7799 C   0  0  0  0  0  0  0  0  0  0  0  0
   20.9272  -21.7686   -9.3207 C   0  0  0  0  0  0  0  0  0  0  0  0
   22.0999  -21.5911   -8.3992 C   0  0  2  0  0  0  0  0  0  0  0  0
   21.6876  -20.9939   -7.1435 N   0  0  0  0  0  0  0  0  0  0  0  0
   23.1927  -20.8107   -8.9637 C   0  0  0  0  0  0  0  0  0  0  0  0
   22.9486  -19.5940   -9.2608 O   0  0  0  0  0  0  0  0  0  0  0  0
   20.1116  -23.3496   -7.5449 C   0  0  0  0  0  0  0  0  0  0  0  0
   19.1953  -24.2450   -7.0418 C   0  0  0  0  0  0  0  0  0  0  0  0
   28.3815  -18.8698   -5.5722 C   0  0  0  0  0  0  0  0  0  0  0  0
   28.3999  -19.8996   -7.0500 S   0  0  0  0  0  0  0  0  0  0  0  0
   26.7879  -19.7881   -7.9234 C   0  0  0  0  0  0  0  0  0  0  0  0
   26.7939  -20.6016   -9.1623 C   0  0  0  0  0  0  0  0  0  0  0  0
   25.5165  -20.6002   -9.9654 C   0  0  2  0  0  0  0  0  0  0  0  0
   24.4826  -21.3252   -9.1935 N   0  0  0  0  0  0  0  0  0  0  0  0
   25.6238  -21.2082  -11.2908 C   0  0  0  0  0  0  0  0  0  0  0  0
   25.3288  -22.4356  -11.4059 O   0  0  0  0  0  0  0  0  0  0  0  0
   26.0220  -20.5609  -12.4744 N   0  0  0  0  0  0  0  0  0  0  0  0
   25.0995  -20.5386  -13.6302 C   0  0  1  0  0  0  0  0  0  0  0  0
   23.8313  -19.7973  -13.2070 C   0  0  0  0  0  0  0  0  0  0  0  0
   22.8746  -19.7984  -14.3274 C   0  0  0  0  0  0  0  0  0  0  0  0
   22.9360  -20.6642  -15.4346 C   0  0  0  0  0  0  0  0  0  0  0  0
   21.9132  -20.3887  -16.2570 N   0  0  0  0  0  0  0  0  0  0  0  0
   21.2107  -19.3887  -15.7175 C   0  0  0  0  0  0  0  0  0  0  0  0
   21.7991  -19.0519  -14.5697 N   0  0  0  0  0  0  0  0  0  0  0  0
   25.7788  -19.6969  -14.6371 C   0  0  0  0  0  0  0  0  0  0  0  0
   26.6367  -18.8606  -14.2637 O   0  0  0  0  0  0  0  0  0  0  0  0
   25.5238  -19.7791  -15.9702 O   0  0  0  0  0  0  0  0  0  0  0  0
  2  1  1  0
  3  2  2  0
  4  3  1  0
  5 11  1  0
  5  4  2  0
  6  5  1  0
  7  9  1  0
  7  6  1  0
  7  8  1  1
  9 10  2  0
 11 12  2  0
 12  2  1  0
 13 14  1  0
 14 15  1  0
 16 15  1  0
 17 16  1  1
 18  9  1  0
 18 17  1  0
 19 21  1  0
 19 17  1  0
 20 19  2  0
 22 29  1  0
 22 21  1  0
 22 23  1  1
 23 24  1  0
 24 25  2  0
 24 28  1  0
 25 26  1  0
 26 27  1  0
 28 27  2  0
 29 31  1  0
 30 29  2  0
M  END
$$$$
