YMH.pdb
     RDKit          3D

 31 32  0  0  1  0  0  0  0  0999 V2000
   29.1521  -14.1446  -17.5505 O   0  0  0  0  0  0  0  0  0  0  0  0
   28.4910  -15.1918  -16.8966 C   0  0  0  0  0  0  0  0  0  0  0  0
   28.1322  -16.3052  -17.6424 C   0  0  0  0  0  0  0  0  0  0  0  0
   27.4791  -17.3534  -17.0241 C   0  0  0  0  0  0  0  0  0  0  0  0
   27.1633  -17.3449  -15.6841 C   0  0  0  0  0  0  0  0  0  0  0  0
   26.4598  -18.4841  -15.0374 C   0  0  0  0  0  0  0  0  0  0  0  0
   27.4010  -19.3558  -14.2563 C   0  0  2  0  0  0  0  0  0  0  0  0
   28.3006  -20.0712  -15.1407 N   0  0  0  0  0  0  0  0  0  0  0  0
   26.7418  -20.3080  -13.3727 C   0  0  0  0  0  0  0  0  0  0  0  0
   26.5243  -21.4779  -13.8331 O   0  0  0  0  0  0  0  0  0  0  0  0
   27.5371  -16.2141  -14.9666 C   0  0  0  0  0  0  0  0  0  0  0  0
   28.1886  -15.1583  -15.5626 C   0  0  0  0  0  0  0  0  0  0  0  0
   28.1719  -20.3720   -6.4559 C   0  0  0  0  0  0  0  0  0  0  0  0
   26.6480  -20.0279   -7.3526 S   0  0  0  0  0  0  0  0  0  0  0  0
   26.7376  -20.7236   -9.0501 C   0  0  0  0  0  0  0  0  0  0  0  0
   25.5095  -20.4143   -9.8200 C   0  0  0  0  0  0  0  0  0  0  0  0
   25.4807  -20.8977  -11.2491 C   0  0  2  0  0  0  0  0  0  0  0  0
   26.3400  -20.0047  -12.0581 N   0  0  0  0  0  0  0  0  0  0  0  0
   24.1508  -20.9433  -11.8552 C   0  0  0  0  0  0  0  0  0  0  0  0
   23.6426  -19.8522  -12.2529 O   0  0  0  0  0  0  0  0  0  0  0  0
   23.3641  -22.0924  -12.0520 N   0  0  0  0  0  0  0  0  0  0  0  0
   22.0713  -21.9696  -12.7600 C   0  0  1  0  0  0  0  0  0  0  0  0
   21.6456  -23.3672  -13.2100 C   0  0  0  0  0  0  0  0  0  0  0  0
   20.3359  -23.2811  -13.8792 C   0  0  0  0  0  0  0  0  0  0  0  0
   19.4587  -22.1849  -13.7886 C   0  0  0  0  0  0  0  0  0  0  0  0
   18.3643  -22.4445  -14.5190 N   0  0  0  0  0  0  0  0  0  0  0  0
   18.5131  -23.6545  -15.0652 C   0  0  0  0  0  0  0  0  0  0  0  0
   19.6927  -24.1354  -14.6723 N   0  0  0  0  0  0  0  0  0  0  0  0
   21.1134  -21.5375  -11.7211 C   0  0  0  0  0  0  0  0  0  0  0  0
   21.4043  -21.6953  -10.5106 O   0  0  0  0  0  0  0  0  0  0  0  0
   19.9127  -20.9667  -12.0069 O   0  0  0  0  0  0  0  0  0  0  0  0
  2  1  1  0
  3  2  2  0
  4  3  1  0
  5 11  1  0
  5  4  2  0
  6  5  1  0
  7  9  1  0
  7  6  1  0
  7  8  1  6
  9 10  2  0
 11 12  2  0
 12  2  1  0
 13 14  1  0
 14 15  1  0
 16 15  1  0
 17 16  1  1
 18  9  1  0
 18 17  1  0
 19 21  1  0
 19 17  1  0
 20 19  2  0
 22 29  1  0
 22 21  1  0
 22 23  1  1
 23 24  1  0
 24 25  2  0
 24 28  1  0
 25 26  1  0
 26 27  1  0
 28 27  2  0
 29 31  1  0
 30 29  2  0
M  END
$$$$
