YMH.pdb
     RDKit          3D

 31 32  0  0  1  0  0  0  0  0999 V2000
   36.0662   -5.6613  -14.2952 O   0  0  0  0  0  0  0  0  0  0  0  0
   34.9015   -6.1882  -14.8670 C   0  0  0  0  0  0  0  0  0  0  0  0
   34.7762   -7.5679  -14.9415 C   0  0  0  0  0  0  0  0  0  0  0  0
   33.6384   -8.1160  -15.5004 C   0  0  0  0  0  0  0  0  0  0  0  0
   32.6087   -7.3468  -15.9937 C   0  0  0  0  0  0  0  0  0  0  0  0
   31.3915   -7.9568  -16.5915 C   0  0  0  0  0  0  0  0  0  0  0  0
   31.6886   -9.2719  -17.2532 C   0  0  2  0  0  0  0  0  0  0  0  0
   32.4490   -9.0792  -18.4731 N   0  0  0  0  0  0  0  0  0  0  0  0
   30.5092  -10.0749  -17.5468 C   0  0  0  0  0  0  0  0  0  0  0  0
   30.3091  -10.3944  -18.7658 O   0  0  0  0  0  0  0  0  0  0  0  0
   32.7667   -5.9683  -15.9034 C   0  0  0  0  0  0  0  0  0  0  0  0
   33.8921   -5.4010  -15.3503 C   0  0  0  0  0  0  0  0  0  0  0  0
   25.5641  -15.2123  -17.1954 C   0  0  0  0  0  0  0  0  0  0  0  0
   27.0064  -14.1398  -17.0752 S   0  0  0  0  0  0  0  0  0  0  0  0
   26.7632  -12.8927  -15.7489 C   0  0  0  0  0  0  0  0  0  0  0  0
   27.9465  -12.0092  -15.6225 C   0  0  0  0  0  0  0  0  0  0  0  0
   28.3918  -11.3090  -16.8828 C   0  0  2  0  0  0  0  0  0  0  0  0
   29.5954  -10.5077  -16.5674 N   0  0  0  0  0  0  0  0  0  0  0  0
   27.3891  -10.4312  -17.4845 C   0  0  0  0  0  0  0  0  0  0  0  0
   26.4541  -10.9682  -18.1510 O   0  0  0  0  0  0  0  0  0  0  0  0
   27.3492   -9.0281  -17.3951 N   0  0  0  0  0  0  0  0  0  0  0  0
   26.2166   -8.2980  -18.0047 C   0  0  1  0  0  0  0  0  0  0  0  0
   25.8472   -9.0048  -19.3089 C   0  0  0  0  0  0  0  0  0  0  0  0
   24.7861   -8.2413  -19.9883 C   0  0  0  0  0  0  0  0  0  0  0  0
   24.2157   -7.0511  -19.5007 C   0  0  0  0  0  0  0  0  0  0  0  0
   23.2840   -6.6302  -20.3686 N   0  0  0  0  0  0  0  0  0  0  0  0
   23.2422   -7.5014  -21.3804 C   0  0  0  0  0  0  0  0  0  0  0  0
   24.1436   -8.4525  -21.1351 N   0  0  0  0  0  0  0  0  0  0  0  0
   25.0917   -8.4996  -17.0679 C   0  0  0  0  0  0  0  0  0  0  0  0
   25.0991   -9.4924  -16.3005 O   0  0  0  0  0  0  0  0  0  0  0  0
   24.0295   -7.6544  -16.9874 O   0  0  0  0  0  0  0  0  0  0  0  0
  2  1  1  0
  3  2  2  0
  4  3  1  0
  5 11  1  0
  5  4  2  0
  6  5  1  0
  7  9  1  0
  7  6  1  0
  7  8  1  6
  9 10  2  0
 11 12  2  0
 12  2  1  0
 13 14  1  0
 14 15  1  0
 16 15  1  0
 17 16  1  1
 18  9  1  0
 18 17  1  0
 19 21  1  0
 19 17  1  0
 20 19  2  0
 22 29  1  0
 22 21  1  0
 22 23  1  6
 23 24  1  0
 24 25  2  0
 24 28  1  0
 25 26  1  0
 26 27  1  0
 28 27  2  0
 29 31  1  0
 30 29  2  0
M  END
$$$$
