YMH.pdb
     RDKit          3D

 31 32  0  0  1  0  0  0  0  0999 V2000
   19.8072  -11.4407  -27.0821 O   0  0  0  0  0  0  0  0  0  0  0  0
   20.1108  -11.0915  -25.7604 C   0  0  0  0  0  0  0  0  0  0  0  0
   19.1236  -11.2515  -24.7988 C   0  0  0  0  0  0  0  0  0  0  0  0
   19.3944  -10.9153  -23.4869 C   0  0  0  0  0  0  0  0  0  0  0  0
   20.6148  -10.4222  -23.0833 C   0  0  0  0  0  0  0  0  0  0  0  0
   20.8863  -10.0664  -21.6654 C   0  0  0  0  0  0  0  0  0  0  0  0
   21.8942  -10.9862  -21.0378 C   0  0  2  0  0  0  0  0  0  0  0  0
   21.3542  -12.3239  -20.8890 N   0  0  0  0  0  0  0  0  0  0  0  0
   22.4024  -10.5298  -19.7512 C   0  0  0  0  0  0  0  0  0  0  0  0
   21.9889  -11.1408  -18.7102 O   0  0  0  0  0  0  0  0  0  0  0  0
   21.5811  -10.2743  -24.0720 C   0  0  0  0  0  0  0  0  0  0  0  0
   21.3326  -10.6031  -25.3853 C   0  0  0  0  0  0  0  0  0  0  0  0
   26.7163   -9.8461  -14.3045 C   0  0  0  0  0  0  0  0  0  0  0  0
   25.7166  -10.2172  -15.7563 S   0  0  0  0  0  0  0  0  0  0  0  0
   26.1789   -9.1101  -17.1471 C   0  0  0  0  0  0  0  0  0  0  0  0
   25.3920   -9.4228  -18.3634 C   0  0  0  0  0  0  0  0  0  0  0  0
   23.9200   -9.0960  -18.3059 C   0  0  2  0  0  0  0  0  0  0  0  0
   23.3119   -9.4656  -19.6036 N   0  0  0  0  0  0  0  0  0  0  0  0
   23.6128   -7.6940  -18.0271 C   0  0  0  0  0  0  0  0  0  0  0  0
   23.9543   -6.8293  -18.8887 O   0  0  0  0  0  0  0  0  0  0  0  0
   22.9611   -7.1953  -16.8847 N   0  0  0  0  0  0  0  0  0  0  0  0
   22.7164   -5.7412  -16.7703 C   0  0  1  0  0  0  0  0  0  0  0  0
   21.5197   -5.5361  -15.8414 C   0  0  0  0  0  0  0  0  0  0  0  0
   21.2320   -4.0951  -15.7355 C   0  0  0  0  0  0  0  0  0  0  0  0
   21.7371   -3.1096  -16.6034 C   0  0  0  0  0  0  0  0  0  0  0  0
   21.2746   -1.9123  -16.2150 N   0  0  0  0  0  0  0  0  0  0  0  0
   20.5012   -2.0994  -15.1420 C   0  0  0  0  0  0  0  0  0  0  0  0
   20.4888   -3.4050  -14.8728 N   0  0  0  0  0  0  0  0  0  0  0  0
   23.9056   -5.2140  -16.0692 C   0  0  0  0  0  0  0  0  0  0  0  0
   24.3780   -5.8480  -15.0947 O   0  0  0  0  0  0  0  0  0  0  0  0
   24.5300   -4.0602  -16.4270 O   0  0  0  0  0  0  0  0  0  0  0  0
  2  1  1  0
  3  2  2  0
  4  3  1  0
  5 11  1  0
  5  4  2  0
  6  5  1  0
  7  9  1  0
  7  6  1  0
  7  8  1  1
  9 10  2  0
 11 12  2  0
 12  2  1  0
 13 14  1  0
 14 15  1  0
 16 15  1  0
 17 16  1  6
 18  9  1  0
 18 17  1  0
 19 21  1  0
 19 17  1  0
 20 19  2  0
 22 29  1  0
 22 21  1  0
 22 23  1  1
 23 24  1  0
 24 25  2  0
 24 28  1  0
 25 26  1  0
 26 27  1  0
 28 27  2  0
 29 31  1  0
 30 29  2  0
M  END
$$$$
