YMH.pdb
     RDKit          3D

 31 32  0  0  1  0  0  0  0  0999 V2000
   17.5695  -13.4891  -20.8147 O   0  0  0  0  0  0  0  0  0  0  0  0
   17.8454  -12.8367  -19.6066 C   0  0  0  0  0  0  0  0  0  0  0  0
   17.9133  -11.4510  -19.6126 C   0  0  0  0  0  0  0  0  0  0  0  0
   18.1837  -10.7805  -18.4358 C   0  0  0  0  0  0  0  0  0  0  0  0
   18.3918  -11.4318  -17.2409 C   0  0  0  0  0  0  0  0  0  0  0  0
   18.6814  -10.6910  -15.9846 C   0  0  0  0  0  0  0  0  0  0  0  0
   20.1035  -10.2107  -15.9301 C   0  0  2  0  0  0  0  0  0  0  0  0
   21.0274  -11.3279  -15.8904 N   0  0  0  0  0  0  0  0  0  0  0  0
   20.3905   -9.3132  -14.8193 C   0  0  0  0  0  0  0  0  0  0  0  0
   20.6917   -9.8470  -13.7001 O   0  0  0  0  0  0  0  0  0  0  0  0
   18.3167  -12.8198  -17.2704 C   0  0  0  0  0  0  0  0  0  0  0  0
   18.0485  -13.5081  -18.4318 C   0  0  0  0  0  0  0  0  0  0  0  0
   20.4984   -2.1709  -14.7041 C   0  0  0  0  0  0  0  0  0  0  0  0
   21.8924   -3.0904  -14.0289 S   0  0  0  0  0  0  0  0  0  0  0  0
   21.3092   -4.6464  -13.2462 C   0  0  0  0  0  0  0  0  0  0  0  0
   21.1597   -5.7263  -14.2502 C   0  0  0  0  0  0  0  0  0  0  0  0
   20.5399   -7.0111  -13.7583 C   0  0  2  0  0  0  0  0  0  0  0  0
   20.3522   -7.9096  -14.9192 N   0  0  0  0  0  0  0  0  0  0  0  0
   19.2562   -6.8520  -13.0766 C   0  0  0  0  0  0  0  0  0  0  0  0
   18.2379   -6.5883  -13.7839 O   0  0  0  0  0  0  0  0  0  0  0  0
   19.0274   -6.9686  -11.6937 N   0  0  0  0  0  0  0  0  0  0  0  0
   17.6560   -6.7854  -11.1711 C   0  0  1  0  0  0  0  0  0  0  0  0
   17.6469   -7.2244   -9.7068 C   0  0  0  0  0  0  0  0  0  0  0  0
   16.2718   -7.1377   -9.1851 C   0  0  0  0  0  0  0  0  0  0  0  0
   15.1453   -6.7774   -9.9471 C   0  0  0  0  0  0  0  0  0  0  0  0
   14.0623   -6.8008   -9.1566 N   0  0  0  0  0  0  0  0  0  0  0  0
   14.4560   -7.1596   -7.9316 C   0  0  0  0  0  0  0  0  0  0  0  0
   15.7741   -7.3555   -7.9696 N   0  0  0  0  0  0  0  0  0  0  0  0
   17.4397   -5.3237  -11.1875 C   0  0  0  0  0  0  0  0  0  0  0  0
   18.4126   -4.5545  -10.9963 O   0  0  0  0  0  0  0  0  0  0  0  0
   16.2242   -4.7535  -11.4032 O   0  0  0  0  0  0  0  0  0  0  0  0
  2  1  1  0
  3  2  2  0
  4  3  1  0
  5 11  1  0
  5  4  2  0
  6  5  1  0
  7  9  1  0
  7  6  1  0
  7  8  1  1
  9 10  2  0
 11 12  2  0
 12  2  1  0
 13 14  1  0
 14 15  1  0
 16 15  1  0
 17 16  1  6
 18  9  1  0
 18 17  1  0
 19 21  1  0
 19 17  1  0
 20 19  2  0
 22 29  1  0
 22 21  1  0
 22 23  1  1
 23 24  1  0
 24 25  2  0
 24 28  1  0
 25 26  1  0
 26 27  1  0
 28 27  2  0
 29 31  1  0
 30 29  2  0
M  END
$$$$
