YMH.pdb
     RDKit          3D

 31 32  0  0  1  0  0  0  0  0999 V2000
   16.3743  -25.0487  -15.0526 O   0  0  0  0  0  0  0  0  0  0  0  0
   17.4355  -24.1568  -14.8533 C   0  0  0  0  0  0  0  0  0  0  0  0
   18.7175  -24.6777  -14.7552 C   0  0  0  0  0  0  0  0  0  0  0  0
   19.7837  -23.8219  -14.5587 C   0  0  0  0  0  0  0  0  0  0  0  0
   19.6315  -22.4576  -14.4542 C   0  0  0  0  0  0  0  0  0  0  0  0
   20.7927  -21.5534  -14.2429 C   0  0  0  0  0  0  0  0  0  0  0  0
   21.2494  -21.5494  -12.8121 C   0  0  2  0  0  0  0  0  0  0  0  0
   20.1941  -21.0859  -11.9318 N   0  0  0  0  0  0  0  0  0  0  0  0
   22.4531  -20.7657  -12.5695 C   0  0  0  0  0  0  0  0  0  0  0  0
   22.2967  -19.5498  -12.2159 O   0  0  0  0  0  0  0  0  0  0  0  0
   18.3337  -21.9692  -14.5569 C   0  0  0  0  0  0  0  0  0  0  0  0
   17.2570  -22.8039  -14.7528 C   0  0  0  0  0  0  0  0  0  0  0  0
   25.7340  -20.8047   -7.0005 C   0  0  0  0  0  0  0  0  0  0  0  0
   26.3121  -21.3396   -8.6205 S   0  0  0  0  0  0  0  0  0  0  0  0
   25.2875  -20.5825   -9.9436 C   0  0  0  0  0  0  0  0  0  0  0  0
   25.7070  -21.0588  -11.2830 C   0  0  0  0  0  0  0  0  0  0  0  0
   24.9722  -20.4663  -12.4602 C   0  0  2  0  0  0  0  0  0  0  0  0
   23.7579  -21.2764  -12.7042 N   0  0  0  0  0  0  0  0  0  0  0  0
   25.7477  -20.4001  -13.6979 C   0  0  0  0  0  0  0  0  0  0  0  0
   26.5142  -21.3723  -13.9703 O   0  0  0  0  0  0  0  0  0  0  0  0
   25.7280  -19.3543  -14.6383 N   0  0  0  0  0  0  0  0  0  0  0  0
   26.4088  -19.5394  -15.9381 C   0  0  1  0  0  0  0  0  0  0  0  0
   25.6981  -20.6674  -16.6862 C   0  0  0  0  0  0  0  0  0  0  0  0
   26.5371  -21.8777  -16.6454 C   0  0  0  0  0  0  0  0  0  0  0  0
   27.8043  -21.9560  -16.0392 C   0  0  0  0  0  0  0  0  0  0  0  0
   28.2805  -23.2006  -16.1904 N   0  0  0  0  0  0  0  0  0  0  0  0
   27.3704  -23.9091  -16.8644 C   0  0  0  0  0  0  0  0  0  0  0  0
   26.3406  -23.1038  -17.1257 N   0  0  0  0  0  0  0  0  0  0  0  0
   26.1441  -18.2906  -16.6824 C   0  0  0  0  0  0  0  0  0  0  0  0
   25.0849  -17.6546  -16.4621 O   0  0  0  0  0  0  0  0  0  0  0  0
   26.9990  -17.7806  -17.6087 O   0  0  0  0  0  0  0  0  0  0  0  0
  2  1  1  0
  3  2  2  0
  4  3  1  0
  5 11  1  0
  5  4  2  0
  6  5  1  0
  7  9  1  0
  7  6  1  0
  7  8  1  1
  9 10  2  0
 11 12  2  0
 12  2  1  0
 13 14  1  0
 14 15  1  0
 16 15  1  0
 17 16  1  1
 18  9  1  0
 18 17  1  0
 19 21  1  0
 19 17  1  0
 20 19  2  0
 22 29  1  0
 22 21  1  0
 22 23  1  6
 23 24  1  0
 24 25  2  0
 24 28  1  0
 25 26  1  0
 26 27  1  0
 28 27  2  0
 29 31  1  0
 30 29  2  0
M  END
$$$$
