YMH.pdb
     RDKit          3D

 31 32  0  0  1  0  0  0  0  0999 V2000
   20.5497  -19.8621  -10.2036 O   0  0  0  0  0  0  0  0  0  0  0  0
   21.8224  -20.3990  -10.4345 C   0  0  0  0  0  0  0  0  0  0  0  0
   22.1176  -20.8555  -11.7109 C   0  0  0  0  0  0  0  0  0  0  0  0
   23.3649  -21.3901  -11.9680 C   0  0  0  0  0  0  0  0  0  0  0  0
   24.3422  -21.4924  -11.0037 C   0  0  0  0  0  0  0  0  0  0  0  0
   25.6791  -22.0710  -11.3012 C   0  0  0  0  0  0  0  0  0  0  0  0
   26.7443  -21.0150  -11.3790 C   0  0  2  0  0  0  0  0  0  0  0  0
   26.9056  -20.3456  -10.1025 N   0  0  0  0  0  0  0  0  0  0  0  0
   26.5244  -20.0174  -12.4175 C   0  0  0  0  0  0  0  0  0  0  0  0
   26.0364  -18.8955  -12.0553 O   0  0  0  0  0  0  0  0  0  0  0  0
   24.0131  -21.0257   -9.7360 C   0  0  0  0  0  0  0  0  0  0  0  0
   22.7764  -20.4894   -9.4579 C   0  0  0  0  0  0  0  0  0  0  0  0
   28.7298  -17.6137  -19.6445 C   0  0  0  0  0  0  0  0  0  0  0  0
   28.9553  -18.6309  -18.1751 S   0  0  0  0  0  0  0  0  0  0  0  0
   27.5305  -18.4255  -17.0342 C   0  0  0  0  0  0  0  0  0  0  0  0
   27.6848  -19.2735  -15.8285 C   0  0  0  0  0  0  0  0  0  0  0  0
   26.5572  -19.2181  -14.8274 C   0  0  2  0  0  0  0  0  0  0  0  0
   26.8190  -20.2281  -13.7777 N   0  0  0  0  0  0  0  0  0  0  0  0
   25.2274  -19.4573  -15.3864 C   0  0  0  0  0  0  0  0  0  0  0  0
   24.8818  -20.6577  -15.6016 O   0  0  0  0  0  0  0  0  0  0  0  0
   24.2718  -18.4777  -15.7110 N   0  0  0  0  0  0  0  0  0  0  0  0
   22.9473  -18.9006  -16.2152 C   0  0  1  0  0  0  0  0  0  0  0  0
   21.9724  -17.7411  -16.0100 C   0  0  0  0  0  0  0  0  0  0  0  0
   20.6219  -18.1679  -16.4155 C   0  0  0  0  0  0  0  0  0  0  0  0
   20.1405  -19.4877  -16.3396 C   0  0  0  0  0  0  0  0  0  0  0  0
   18.8776  -19.5145  -16.7899 N   0  0  0  0  0  0  0  0  0  0  0  0
   18.5422  -18.2713  -17.1456 C   0  0  0  0  0  0  0  0  0  0  0  0
   19.5938  -17.4851  -16.9151 N   0  0  0  0  0  0  0  0  0  0  0  0
   23.1329  -19.0589  -17.6727 C   0  0  0  0  0  0  0  0  0  0  0  0
   22.5922  -20.0263  -18.2614 O   0  0  0  0  0  0  0  0  0  0  0  0
   23.8689  -18.1995  -18.4269 O   0  0  0  0  0  0  0  0  0  0  0  0
  2  1  1  0
  3  2  2  0
  4  3  1  0
  5 11  1  0
  5  4  2  0
  6  5  1  0
  7  9  1  0
  7  6  1  0
  7  8  1  1
  9 10  2  0
 11 12  2  0
 12  2  1  0
 13 14  1  0
 14 15  1  0
 16 15  1  0
 17 16  1  6
 18  9  1  0
 18 17  1  0
 19 21  1  0
 19 17  1  0
 20 19  2  0
 22 29  1  0
 22 21  1  0
 22 23  1  6
 23 24  1  0
 24 25  2  0
 24 28  1  0
 25 26  1  0
 26 27  1  0
 28 27  2  0
 29 31  1  0
 30 29  2  0
M  END
$$$$
