YMH.pdb
     RDKit          3D

 31 32  0  0  1  0  0  0  0  0999 V2000
   32.1609  -36.7138  -20.4181 O   0  0  0  0  0  0  0  0  0  0  0  0
   31.2895  -35.8111  -19.7960 C   0  0  0  0  0  0  0  0  0  0  0  0
   31.3138  -34.4875  -20.2109 C   0  0  0  0  0  0  0  0  0  0  0  0
   30.4654  -33.5748  -19.6154 C   0  0  0  0  0  0  0  0  0  0  0  0
   29.5848  -33.9218  -18.6156 C   0  0  0  0  0  0  0  0  0  0  0  0
   28.6793  -32.9236  -17.9875 C   0  0  0  0  0  0  0  0  0  0  0  0
   29.4113  -32.0200  -17.0370 C   0  0  2  0  0  0  0  0  0  0  0  0
   29.8782  -32.7554  -15.8774 N   0  0  0  0  0  0  0  0  0  0  0  0
   28.6404  -30.8665  -16.5931 C   0  0  0  0  0  0  0  0  0  0  0  0
   28.2239  -30.8717  -15.3870 O   0  0  0  0  0  0  0  0  0  0  0  0
   29.5864  -35.2559  -18.2239 C   0  0  0  0  0  0  0  0  0  0  0  0
   30.4233  -36.1820  -18.8039 C   0  0  0  0  0  0  0  0  0  0  0  0
   30.7962  -25.2915  -17.3956 C   0  0  0  0  0  0  0  0  0  0  0  0
   29.0973  -24.7556  -17.1286 S   0  0  0  0  0  0  0  0  0  0  0  0
   28.1066  -26.1203  -16.4006 C   0  0  0  0  0  0  0  0  0  0  0  0
   28.6424  -27.4426  -16.8017 C   0  0  0  0  0  0  0  0  0  0  0  0
   27.6348  -28.5589  -16.9265 C   0  0  2  0  0  0  0  0  0  0  0  0
   28.3379  -29.7655  -17.4164 N   0  0  0  0  0  0  0  0  0  0  0  0
   26.5123  -28.2758  -17.8197 C   0  0  0  0  0  0  0  0  0  0  0  0
   26.6992  -28.4058  -19.0667 O   0  0  0  0  0  0  0  0  0  0  0  0
   25.2215  -27.8724  -17.4331 N   0  0  0  0  0  0  0  0  0  0  0  0
   24.2163  -27.5729  -18.4759 C   0  0  1  0  0  0  0  0  0  0  0  0
   24.8968  -27.7050  -19.8384 C   0  0  0  0  0  0  0  0  0  0  0  0
   25.1439  -26.3603  -20.3873 C   0  0  0  0  0  0  0  0  0  0  0  0
   24.9155  -25.1566  -19.6957 C   0  0  0  0  0  0  0  0  0  0  0  0
   25.2470  -24.1299  -20.4923 N   0  0  0  0  0  0  0  0  0  0  0  0
   25.6737  -24.6330  -21.6539 C   0  0  0  0  0  0  0  0  0  0  0  0
   25.6046  -25.9617  -21.5711 N   0  0  0  0  0  0  0  0  0  0  0  0
   23.2312  -28.6697  -18.3744 C   0  0  0  0  0  0  0  0  0  0  0  0
   23.5900  -29.7795  -17.9112 O   0  0  0  0  0  0  0  0  0  0  0  0
   21.9335  -28.5427  -18.7602 O   0  0  0  0  0  0  0  0  0  0  0  0
  2  1  1  0
  3  2  2  0
  4  3  1  0
  5 11  1  0
  5  4  2  0
  6  5  1  0
  7  9  1  0
  7  6  1  0
  7  8  1  1
  9 10  2  0
 11 12  2  0
 12  2  1  0
 13 14  1  0
 14 15  1  0
 16 15  1  0
 17 16  1  6
 18  9  1  0
 18 17  1  0
 19 21  1  0
 19 17  1  0
 20 19  2  0
 22 29  1  0
 22 21  1  0
 22 23  1  6
 23 24  1  0
 24 25  2  0
 24 28  1  0
 25 26  1  0
 26 27  1  0
 28 27  2  0
 29 31  1  0
 30 29  2  0
M  END
$$$$
