VMM.pdb
     RDKit          3D

 24 23  0  0  1  0  0  0  0  0999 V2000
    8.2825  -18.3917   18.6757 C   0  0  0  0  0  0  0  0  0  0  0  0
    8.5954  -17.7599   19.9980 C   0  0  2  0  0  0  0  0  0  0  0  0
    7.7918  -18.4590   21.0638 C   0  0  0  0  0  0  0  0  0  0  0  0
    8.2901  -16.2894   20.0152 C   0  0  2  0  0  0  0  0  0  0  0  0
    9.0902  -15.6278   19.0096 N   0  0  0  0  0  0  0  0  0  0  0  0
    8.5401  -15.6721   21.3388 C   0  0  0  0  0  0  0  0  0  0  0  0
    9.7227  -15.4686   21.7177 O   0  0  0  0  0  0  0  0  0  0  0  0
    8.2443  -11.7787   26.8283 C   0  0  0  0  0  0  0  0  0  0  0  0
    7.0109  -12.0963   25.5189 S   0  0  0  0  0  0  0  0  0  0  0  0
    6.5762  -13.8584   25.6195 C   0  0  0  0  0  0  0  0  0  0  0  0
    6.3837  -14.3553   24.2161 C   0  0  0  0  0  0  0  0  0  0  0  0
    7.6658  -14.8218   23.5674 C   0  0  2  0  0  0  0  0  0  0  0  0
    7.4946  -15.2889   22.2230 N   0  0  0  0  0  0  0  0  0  0  0  0
    8.2387  -15.8719   24.4598 C   0  0  0  0  0  0  0  0  0  0  0  0
    7.7842  -17.0436   24.3942 O   0  0  0  0  0  0  0  0  0  0  0  0
   11.5497  -13.9921   30.5114 C   0  0  0  0  0  0  0  0  0  0  0  0
   12.1594  -14.8282   29.0335 S   0  0  0  0  0  0  0  0  0  0  0  0
   10.8522  -15.5241   28.0502 C   0  0  0  0  0  0  0  0  0  0  0  0
   11.2045  -16.1224   26.7430 C   0  0  0  0  0  0  0  0  0  0  0  0
   10.0949  -16.7065   25.9817 C   0  0  2  0  0  0  0  0  0  0  0  0
    9.2744  -15.6143   25.3825 N   0  0  0  0  0  0  0  0  0  0  0  0
    9.1868  -17.5426   26.7505 C   0  0  0  0  0  0  0  0  0  0  0  0
    8.1029  -16.9924   27.1973 O   0  0  0  0  0  0  0  0  0  0  0  0
    9.3095  -18.8727   27.0766 O   0  0  0  0  0  0  0  0  0  0  0  0
  2  1  1  6
  2  4  1  0
  3  2  1  0
  4  5  1  6
  4  6  1  0
  6  7  2  0
  9  8  1  0
 10  9  1  0
 12 11  1  1
 11 10  1  0
 12 14  1  0
 13  6  1  0
 13 12  1  0
 14 15  2  0
 16 17  1  0
 17 18  1  0
 18 19  1  0
 20 19  1  1
 20 22  1  0
 21 20  1  0
 21 14  1  0
 22 23  2  0
 22 24  1  0
M  END
$$$$
