VMM.pdb
     RDKit          3D

 24 23  0  0  1  0  0  0  0  0999 V2000
    5.6853  -20.8968   24.6951 C   0  0  0  0  0  0  0  0  0  0  0  0
    6.6190  -19.8044   24.2703 C   0  0  2  0  0  0  0  0  0  0  0  0
    6.4576  -18.6428   25.2165 C   0  0  0  0  0  0  0  0  0  0  0  0
    6.3640  -19.3504   22.8615 C   0  0  2  0  0  0  0  0  0  0  0  0
    6.2927  -20.5064   21.9969 N   0  0  0  0  0  0  0  0  0  0  0  0
    7.4053  -18.4195   22.3668 C   0  0  0  0  0  0  0  0  0  0  0  0
    8.6011  -18.8045   22.2941 O   0  0  0  0  0  0  0  0  0  0  0  0
    7.1163  -11.3683   21.0747 C   0  0  0  0  0  0  0  0  0  0  0  0
    7.6070  -12.4935   19.7219 S   0  0  0  0  0  0  0  0  0  0  0  0
    8.5070  -13.8760   20.4855 C   0  0  0  0  0  0  0  0  0  0  0  0
    7.4856  -14.8368   21.0210 C   0  0  0  0  0  0  0  0  0  0  0  0
    8.0918  -16.1067   21.5709 C   0  0  2  0  0  0  0  0  0  0  0  0
    7.1212  -17.0868   21.9609 N   0  0  0  0  0  0  0  0  0  0  0  0
    8.9722  -15.7031   22.7063 C   0  0  0  0  0  0  0  0  0  0  0  0
   10.0448  -15.0924   22.4602 O   0  0  0  0  0  0  0  0  0  0  0  0
    5.7588  -11.9963   26.2969 C   0  0  0  0  0  0  0  0  0  0  0  0
    7.4267  -12.3565   26.8825 S   0  0  0  0  0  0  0  0  0  0  0  0
    8.3560  -13.3503   25.7384 C   0  0  0  0  0  0  0  0  0  0  0  0
    8.6892  -14.7383   26.1298 C   0  0  0  0  0  0  0  0  0  0  0  0
    9.5128  -15.4953   25.1807 C   0  0  2  0  0  0  0  0  0  0  0  0
    8.6596  -15.9747   24.0549 N   0  0  0  0  0  0  0  0  0  0  0  0
   10.1791  -16.6645   25.7320 C   0  0  0  0  0  0  0  0  0  0  0  0
   11.0174  -16.4726   26.7002 O   0  0  0  0  0  0  0  0  0  0  0  0
   10.0406  -17.9840   25.3707 O   0  0  0  0  0  0  0  0  0  0  0  0
  2  1  1  1
  2  4  1  0
  3  2  1  0
  4  5  1  6
  4  6  1  0
  6  7  2  0
  9  8  1  0
 10  9  1  0
 12 11  1  1
 11 10  1  0
 12 14  1  0
 13  6  1  0
 13 12  1  0
 14 15  2  0
 16 17  1  0
 17 18  1  0
 18 19  1  0
 20 19  1  1
 20 22  1  0
 21 20  1  0
 21 14  1  0
 22 23  2  0
 22 24  1  0
M  END
$$$$
