VMM.pdb
     RDKit          3D

 24 23  0  0  1  0  0  0  0  0999 V2000
    8.6228  -13.4620   17.6690 C   0  0  0  0  0  0  0  0  0  0  0  0
    8.1075  -13.8684   19.0163 C   0  0  2  0  0  0  0  0  0  0  0  0
    8.9143  -13.1565   20.0712 C   0  0  0  0  0  0  0  0  0  0  0  0
    8.1848  -15.3524   19.2339 C   0  0  2  0  0  0  0  0  0  0  0  0
    7.5160  -16.0264   18.1442 N   0  0  0  0  0  0  0  0  0  0  0  0
    7.5857  -15.7701   20.5231 C   0  0  0  0  0  0  0  0  0  0  0  0
    6.3368  -15.7289   20.6718 O   0  0  0  0  0  0  0  0  0  0  0  0
    6.4218  -21.0157   23.2277 C   0  0  0  0  0  0  0  0  0  0  0  0
    7.5413  -20.3875   24.5272 S   0  0  0  0  0  0  0  0  0  0  0  0
    7.4524  -18.5728   24.4683 C   0  0  0  0  0  0  0  0  0  0  0  0
    7.9650  -18.1404   23.1253 C   0  0  0  0  0  0  0  0  0  0  0  0
    7.8438  -16.6529   22.8912 C   0  0  2  0  0  0  0  0  0  0  0  0
    8.3611  -16.2248   21.6247 N   0  0  0  0  0  0  0  0  0  0  0  0
    8.5295  -15.9831   24.0351 C   0  0  0  0  0  0  0  0  0  0  0  0
    9.7872  -15.9820   24.0773 O   0  0  0  0  0  0  0  0  0  0  0  0
    6.1903  -11.0962   28.3341 C   0  0  0  0  0  0  0  0  0  0  0  0
    5.6918  -11.6618   26.6951 S   0  0  0  0  0  0  0  0  0  0  0  0
    6.8785  -12.7614   25.9583 C   0  0  0  0  0  0  0  0  0  0  0  0
    7.5966  -13.7072   26.8418 C   0  0  0  0  0  0  0  0  0  0  0  0
    8.5345  -14.6211   26.1806 C   0  0  2  0  0  0  0  0  0  0  0  0
    7.8315  -15.3451   25.0820 N   0  0  0  0  0  0  0  0  0  0  0  0
    9.1260  -15.6331   27.0412 C   0  0  0  0  0  0  0  0  0  0  0  0
    8.5953  -16.8143   27.0255 O   0  0  0  0  0  0  0  0  0  0  0  0
   10.2025  -15.5193   27.8891 O   0  0  0  0  0  0  0  0  0  0  0  0
  2  1  1  6
  2  4  1  0
  3  2  1  0
  4  5  1  6
  4  6  1  0
  6  7  2  0
  9  8  1  0
 10  9  1  0
 12 11  1  1
 11 10  1  0
 12 14  1  0
 13  6  1  0
 13 12  1  0
 14 15  2  0
 16 17  1  0
 17 18  1  0
 18 19  1  0
 20 19  1  1
 20 22  1  0
 21 20  1  0
 21 14  1  0
 22 23  2  0
 22 24  1  0
M  END
$$$$
