VMM.pdb
     RDKit          3D

 24 23  0  0  1  0  0  0  0  0999 V2000
    9.2502  -19.1411   18.8424 C   0  0  0  0  0  0  0  0  0  0  0  0
    9.5412  -18.3969   20.1102 C   0  0  2  0  0  0  0  0  0  0  0  0
    9.1536  -19.2691   21.2761 C   0  0  0  0  0  0  0  0  0  0  0  0
    8.8051  -17.0900   20.1873 C   0  0  2  0  0  0  0  0  0  0  0  0
    9.0836  -16.3184   18.9973 N   0  0  0  0  0  0  0  0  0  0  0  0
    9.1676  -16.3033   21.3895 C   0  0  0  0  0  0  0  0  0  0  0  0
   10.2682  -15.6944   21.4267 O   0  0  0  0  0  0  0  0  0  0  0  0
    6.7109  -13.1693   26.8563 C   0  0  0  0  0  0  0  0  0  0  0  0
    6.0797  -12.6903   25.2104 S   0  0  0  0  0  0  0  0  0  0  0  0
    7.1882  -13.4414   23.9810 C   0  0  0  0  0  0  0  0  0  0  0  0
    7.4244  -14.8640   24.3977 C   0  0  0  0  0  0  0  0  0  0  0  0
    8.6302  -15.4874   23.7346 C   0  0  2  0  0  0  0  0  0  0  0  0
    8.3218  -16.1963   22.5275 N   0  0  0  0  0  0  0  0  0  0  0  0
    9.2725  -16.3664   24.7555 C   0  0  0  0  0  0  0  0  0  0  0  0
    8.5423  -17.0519   25.5175 O   0  0  0  0  0  0  0  0  0  0  0  0
   10.5539  -12.4290   28.3197 C   0  0  0  0  0  0  0  0  0  0  0  0
   11.2315  -13.7641   29.3262 S   0  0  0  0  0  0  0  0  0  0  0  0
   11.4909  -15.2586   28.3991 C   0  0  0  0  0  0  0  0  0  0  0  0
   11.0193  -15.3011   26.9968 C   0  0  0  0  0  0  0  0  0  0  0  0
   11.3192  -16.5294   26.2530 C   0  0  2  0  0  0  0  0  0  0  0  0
   10.6710  -16.4681   24.9108 N   0  0  0  0  0  0  0  0  0  0  0  0
   10.8703  -17.7613   26.8820 C   0  0  0  0  0  0  0  0  0  0  0  0
    9.6886  -17.7648   27.4117 O   0  0  0  0  0  0  0  0  0  0  0  0
   11.5327  -18.9611   26.9943 O   0  0  0  0  0  0  0  0  0  0  0  0
  2  1  1  6
  2  4  1  0
  3  2  1  0
  4  5  1  6
  4  6  1  0
  6  7  2  0
  9  8  1  0
 10  9  1  0
 12 11  1  1
 11 10  1  0
 12 14  1  0
 13  6  1  0
 13 12  1  0
 14 15  2  0
 16 17  1  0
 17 18  1  0
 18 19  1  0
 20 19  1  1
 20 22  1  0
 21 20  1  0
 21 14  1  0
 22 23  2  0
 22 24  1  0
M  END
$$$$
