VMM.pdb
     RDKit          3D

 24 23  0  0  1  0  0  0  0  0999 V2000
    8.2600  -18.0114   19.1119 C   0  0  0  0  0  0  0  0  0  0  0  0
    8.6923  -17.4448   20.4302 C   0  0  2  0  0  0  0  0  0  0  0  0
    8.0110  -18.2182   21.5294 C   0  0  0  0  0  0  0  0  0  0  0  0
    8.3651  -15.9846   20.5593 C   0  0  2  0  0  0  0  0  0  0  0  0
    9.0080  -15.2585   19.4876 N   0  0  0  0  0  0  0  0  0  0  0  0
    8.7821  -15.4217   21.8650 C   0  0  0  0  0  0  0  0  0  0  0  0
   10.0058  -15.2664   22.1140 O   0  0  0  0  0  0  0  0  0  0  0  0
    6.1246  -10.8413   26.3424 C   0  0  0  0  0  0  0  0  0  0  0  0
    5.9464  -12.5559   26.9467 S   0  0  0  0  0  0  0  0  0  0  0  0
    7.3672  -13.4915   26.3063 C   0  0  0  0  0  0  0  0  0  0  0  0
    7.0202  -13.9420   24.9171 C   0  0  0  0  0  0  0  0  0  0  0  0
    8.1939  -14.5314   24.1705 C   0  0  2  0  0  0  0  0  0  0  0  0
    7.8556  -15.0392   22.8734 N   0  0  0  0  0  0  0  0  0  0  0  0
    8.7766  -15.5843   25.0531 C   0  0  0  0  0  0  0  0  0  0  0  0
    8.1217  -16.6387   25.2603 O   0  0  0  0  0  0  0  0  0  0  0  0
   14.8333  -18.7136   24.9286 C   0  0  0  0  0  0  0  0  0  0  0  0
   14.5251  -17.9519   26.5348 S   0  0  0  0  0  0  0  0  0  0  0  0
   12.7924  -17.7517   26.8781 C   0  0  0  0  0  0  0  0  0  0  0  0
   12.0639  -16.6665   26.1838 C   0  0  0  0  0  0  0  0  0  0  0  0
   10.6349  -16.5487   26.4937 C   0  0  2  0  0  0  0  0  0  0  0  0
   10.0372  -15.4554   25.6733 N   0  0  0  0  0  0  0  0  0  0  0  0
   10.3234  -16.2517   27.8828 C   0  0  0  0  0  0  0  0  0  0  0  0
   10.6654  -17.1289   28.7719 O   0  0  0  0  0  0  0  0  0  0  0  0
    9.7072  -15.1401   28.4078 O   0  0  0  0  0  0  0  0  0  0  0  0
  2  1  1  6
  2  4  1  0
  3  2  1  0
  4  5  1  6
  4  6  1  0
  6  7  2  0
  9  8  1  0
 10  9  1  0
 12 11  1  1
 11 10  1  0
 12 14  1  0
 13  6  1  0
 13 12  1  0
 14 15  2  0
 16 17  1  0
 17 18  1  0
 18 19  1  0
 20 19  1  1
 20 22  1  0
 21 20  1  0
 21 14  1  0
 22 23  2  0
 22 24  1  0
M  END
$$$$
