VMM.pdb
     RDKit          3D

 24 23  0  0  1  0  0  0  0  0999 V2000
    8.6840  -19.9800   26.9901 C   0  0  0  0  0  0  0  0  0  0  0  0
    7.1969  -19.8362   26.8727 C   0  0  2  0  0  0  0  0  0  0  0  0
    6.5460  -20.9405   27.6648 C   0  0  0  0  0  0  0  0  0  0  0  0
    6.7284  -19.8904   25.4468 C   0  0  2  0  0  0  0  0  0  0  0  0
    6.9990  -21.2043   24.9089 N   0  0  0  0  0  0  0  0  0  0  0  0
    7.3711  -18.8603   24.5975 C   0  0  0  0  0  0  0  0  0  0  0  0
    8.3652  -19.1682   23.8900 O   0  0  0  0  0  0  0  0  0  0  0  0
    6.0864  -12.0188   24.8430 C   0  0  0  0  0  0  0  0  0  0  0  0
    6.4849  -12.5875   23.1534 S   0  0  0  0  0  0  0  0  0  0  0  0
    7.6310  -13.9880   23.3246 C   0  0  0  0  0  0  0  0  0  0  0  0
    6.8665  -15.1222   23.9431 C   0  0  0  0  0  0  0  0  0  0  0  0
    7.6663  -16.4005   24.0354 C   0  0  2  0  0  0  0  0  0  0  0  0
    6.9164  -17.5145   24.5368 N   0  0  0  0  0  0  0  0  0  0  0  0
    8.8589  -16.0984   24.8801 C   0  0  0  0  0  0  0  0  0  0  0  0
    8.6887  -15.5773   26.0129 O   0  0  0  0  0  0  0  0  0  0  0  0
   10.3481  -13.1656   28.4959 C   0  0  0  0  0  0  0  0  0  0  0  0
   10.7815  -14.8877   28.8140 S   0  0  0  0  0  0  0  0  0  0  0  0
   10.2839  -15.9748   27.4985 C   0  0  0  0  0  0  0  0  0  0  0  0
   11.3296  -16.4951   26.5894 C   0  0  0  0  0  0  0  0  0  0  0  0
   11.3664  -15.9069   25.2460 C   0  0  2  0  0  0  0  0  0  0  0  0
   10.1806  -16.3700   24.4683 N   0  0  0  0  0  0  0  0  0  0  0  0
   12.5426  -16.2355   24.4564 C   0  0  0  0  0  0  0  0  0  0  0  0
   12.4265  -17.1786   23.5766 O   0  0  0  0  0  0  0  0  0  0  0  0
   13.7954  -15.6706   24.5027 O   0  0  0  0  0  0  0  0  0  0  0  0
  2  1  1  6
  2  4  1  0
  3  2  1  0
  4  5  1  6
  4  6  1  0
  6  7  2  0
  9  8  1  0
 10  9  1  0
 12 11  1  1
 11 10  1  0
 12 14  1  0
 13  6  1  0
 13 12  1  0
 14 15  2  0
 16 17  1  0
 17 18  1  0
 18 19  1  0
 20 19  1  1
 20 22  1  0
 21 20  1  0
 21 14  1  0
 22 23  2  0
 22 24  1  0
M  END
$$$$
