VMM.pdb
     RDKit          3D

 24 23  0  0  1  0  0  0  0  0999 V2000
   10.9468  -18.8907   25.1164 C   0  0  0  0  0  0  0  0  0  0  0  0
   11.2042  -17.6972   25.9855 C   0  0  2  0  0  0  0  0  0  0  0  0
   12.4884  -17.9238   26.7405 C   0  0  0  0  0  0  0  0  0  0  0  0
   10.0845  -17.4434   26.9537 C   0  0  2  0  0  0  0  0  0  0  0  0
    9.9199  -18.6020   27.8020 N   0  0  0  0  0  0  0  0  0  0  0  0
    8.8042  -17.1351   26.2744 C   0  0  0  0  0  0  0  0  0  0  0  0
    8.0112  -18.0689   25.9869 O   0  0  0  0  0  0  0  0  0  0  0  0
    8.7773  -12.8768   28.5834 C   0  0  0  0  0  0  0  0  0  0  0  0
    7.9721  -12.3703   27.0240 S   0  0  0  0  0  0  0  0  0  0  0  0
    6.6897  -13.6079   26.6660 C   0  0  0  0  0  0  0  0  0  0  0  0
    6.8581  -14.0295   25.2352 C   0  0  0  0  0  0  0  0  0  0  0  0
    7.3045  -15.4649   25.0849 C   0  0  2  0  0  0  0  0  0  0  0  0
    8.4144  -15.8139   25.9222 N   0  0  0  0  0  0  0  0  0  0  0  0
    7.6047  -15.6697   23.6374 C   0  0  0  0  0  0  0  0  0  0  0  0
    6.6542  -15.6841   22.8127 O   0  0  0  0  0  0  0  0  0  0  0  0
    6.4254  -12.5934   18.7862 C   0  0  0  0  0  0  0  0  0  0  0  0
    7.8678  -12.8495   19.8392 S   0  0  0  0  0  0  0  0  0  0  0  0
    8.2947  -14.5665   20.0124 C   0  0  0  0  0  0  0  0  0  0  0  0
    9.3744  -14.9253   20.9590 C   0  0  0  0  0  0  0  0  0  0  0  0
    9.1846  -16.1705   21.7110 C   0  0  2  0  0  0  0  0  0  0  0  0
    8.9134  -15.8500   23.1424 N   0  0  0  0  0  0  0  0  0  0  0  0
   10.3142  -17.0862   21.6910 C   0  0  0  0  0  0  0  0  0  0  0  0
   10.7192  -17.5092   20.5359 O   0  0  0  0  0  0  0  0  0  0  0  0
   11.0420  -17.5781   22.7488 O   0  0  0  0  0  0  0  0  0  0  0  0
  2  1  1  1
  2  4  1  0
  3  2  1  0
  4  5  1  6
  4  6  1  0
  6  7  2  0
  9  8  1  0
 10  9  1  0
 12 11  1  6
 11 10  1  0
 12 14  1  0
 13  6  1  0
 13 12  1  0
 14 15  2  0
 16 17  1  0
 17 18  1  0
 18 19  1  0
 20 19  1  6
 20 22  1  0
 21 20  1  0
 21 14  1  0
 22 23  2  0
 22 24  1  0
M  END
$$$$
