VMM.pdb
     RDKit          3D

 24 23  0  0  1  0  0  0  0  0999 V2000
   10.0507  -19.1441   18.6130 C   0  0  0  0  0  0  0  0  0  0  0  0
   10.2038  -18.3732   19.8890 C   0  0  2  0  0  0  0  0  0  0  0  0
    9.7056  -19.2272   21.0260 C   0  0  0  0  0  0  0  0  0  0  0  0
    9.4529  -17.0727   19.8644 C   0  0  2  0  0  0  0  0  0  0  0  0
    9.8840  -16.2983   18.7227 N   0  0  0  0  0  0  0  0  0  0  0  0
    9.6420  -16.2834   21.1040 C   0  0  0  0  0  0  0  0  0  0  0  0
   10.7735  -15.8002   21.3682 O   0  0  0  0  0  0  0  0  0  0  0  0
    5.8701  -11.5657   25.1153 C   0  0  0  0  0  0  0  0  0  0  0  0
    5.8495  -13.3601   25.4568 S   0  0  0  0  0  0  0  0  0  0  0  0
    7.5015  -13.9952   25.0423 C   0  0  0  0  0  0  0  0  0  0  0  0
    7.3773  -14.7717   23.7636 C   0  0  0  0  0  0  0  0  0  0  0  0
    8.7036  -15.2637   23.2333 C   0  0  2  0  0  0  0  0  0  0  0  0
    8.5926  -16.0366   22.0312 N   0  0  0  0  0  0  0  0  0  0  0  0
    9.3477  -16.0314   24.3391 C   0  0  0  0  0  0  0  0  0  0  0  0
    9.1832  -17.2779   24.3937 O   0  0  0  0  0  0  0  0  0  0  0  0
   10.6140  -13.6010   30.3096 C   0  0  0  0  0  0  0  0  0  0  0  0
   11.7811  -14.9757   30.2539 S   0  0  0  0  0  0  0  0  0  0  0  0
   11.6192  -15.9539   28.7784 C   0  0  0  0  0  0  0  0  0  0  0  0
   11.0266  -15.3178   27.5806 C   0  0  0  0  0  0  0  0  0  0  0  0
   10.7610  -16.2064   26.4439 C   0  0  2  0  0  0  0  0  0  0  0  0
   10.1393  -15.4240   25.3364 N   0  0  0  0  0  0  0  0  0  0  0  0
    9.8710  -17.3222   26.7229 C   0  0  0  0  0  0  0  0  0  0  0  0
    8.6002  -17.0761   26.7641 O   0  0  0  0  0  0  0  0  0  0  0  0
   10.1889  -18.6407   26.9490 O   0  0  0  0  0  0  0  0  0  0  0  0
  2  1  1  6
  2  4  1  0
  3  2  1  0
  4  5  1  6
  4  6  1  0
  6  7  2  0
  9  8  1  0
 10  9  1  0
 12 11  1  1
 11 10  1  0
 12 14  1  0
 13  6  1  0
 13 12  1  0
 14 15  2  0
 16 17  1  0
 17 18  1  0
 18 19  1  0
 20 19  1  1
 20 22  1  0
 21 20  1  0
 21 14  1  0
 22 23  2  0
 22 24  1  0
M  END
$$$$
