VMM.pdb
     RDKit          3D

 24 23  0  0  1  0  0  0  0  0999 V2000
    8.9302  -18.4097   19.0442 C   0  0  0  0  0  0  0  0  0  0  0  0
    9.2692  -17.9017   20.4128 C   0  0  2  0  0  0  0  0  0  0  0  0
    8.4240  -18.6389   21.4191 C   0  0  0  0  0  0  0  0  0  0  0  0
    9.0423  -16.4230   20.5458 C   0  0  2  0  0  0  0  0  0  0  0  0
    9.8454  -15.7303   19.5639 N   0  0  0  0  0  0  0  0  0  0  0  0
    9.3639  -15.9180   21.9011 C   0  0  0  0  0  0  0  0  0  0  0  0
   10.5535  -15.9473   22.3105 O   0  0  0  0  0  0  0  0  0  0  0  0
    6.7493  -11.0532   26.7019 C   0  0  0  0  0  0  0  0  0  0  0  0
    6.2426  -12.8081   26.6774 S   0  0  0  0  0  0  0  0  0  0  0  0
    7.6922  -13.7685   26.1476 C   0  0  0  0  0  0  0  0  0  0  0  0
    7.4342  -14.2356   24.7445 C   0  0  0  0  0  0  0  0  0  0  0  0
    8.6153  -14.9456   24.1255 C   0  0  2  0  0  0  0  0  0  0  0  0
    8.3813  -15.3907   22.7831 N   0  0  0  0  0  0  0  0  0  0  0  0
    8.9636  -16.0725   25.0399 C   0  0  0  0  0  0  0  0  0  0  0  0
    8.1647  -17.0385   25.1506 O   0  0  0  0  0  0  0  0  0  0  0  0
   14.0609  -20.3297   25.0771 C   0  0  0  0  0  0  0  0  0  0  0  0
   13.7465  -18.6394   24.5306 S   0  0  0  0  0  0  0  0  0  0  0  0
   12.1193  -18.0696   24.9638 C   0  0  0  0  0  0  0  0  0  0  0  0
   11.8540  -17.7242   26.3783 C   0  0  0  0  0  0  0  0  0  0  0  0
   10.4975  -17.2566   26.6840 C   0  0  2  0  0  0  0  0  0  0  0  0
   10.1553  -16.1094   25.7940 N   0  0  0  0  0  0  0  0  0  0  0  0
   10.2894  -16.8063   28.0510 C   0  0  0  0  0  0  0  0  0  0  0  0
   10.0570  -15.5457   28.2352 O   0  0  0  0  0  0  0  0  0  0  0  0
   10.2962  -17.5449   29.2108 O   0  0  0  0  0  0  0  0  0  0  0  0
  2  1  1  6
  2  4  1  0
  3  2  1  0
  4  5  1  6
  4  6  1  0
  6  7  2  0
  9  8  1  0
 10  9  1  0
 12 11  1  1
 11 10  1  0
 12 14  1  0
 13  6  1  0
 13 12  1  0
 14 15  2  0
 16 17  1  0
 17 18  1  0
 18 19  1  0
 20 19  1  1
 20 22  1  0
 21 20  1  0
 21 14  1  0
 22 23  2  0
 22 24  1  0
M  END
$$$$
