VMM.pdb
     RDKit          3D

 24 23  0  0  1  0  0  0  0  0999 V2000
    9.4082  -18.8170   18.6786 C   0  0  0  0  0  0  0  0  0  0  0  0
    9.6592  -18.2019   20.0218 C   0  0  2  0  0  0  0  0  0  0  0  0
    9.1027  -19.1197   21.0794 C   0  0  0  0  0  0  0  0  0  0  0  0
    9.0369  -16.8412   20.1524 C   0  0  2  0  0  0  0  0  0  0  0  0
    9.4985  -16.0032   19.0690 N   0  0  0  0  0  0  0  0  0  0  0  0
    9.3465  -16.1964   21.4500 C   0  0  0  0  0  0  0  0  0  0  0  0
   10.5284  -15.8485   21.7062 O   0  0  0  0  0  0  0  0  0  0  0  0
    6.2924  -11.5084   25.6146 C   0  0  0  0  0  0  0  0  0  0  0  0
    6.0745  -13.2375   26.1620 S   0  0  0  0  0  0  0  0  0  0  0  0
    7.5834  -14.1346   25.6901 C   0  0  0  0  0  0  0  0  0  0  0  0
    7.3408  -14.7444   24.3401 C   0  0  0  0  0  0  0  0  0  0  0  0
    8.5907  -15.3102   23.7077 C   0  0  2  0  0  0  0  0  0  0  0  0
    8.3604  -15.9438   22.4427 N   0  0  0  0  0  0  0  0  0  0  0  0
    9.1885  -16.2453   24.7054 C   0  0  0  0  0  0  0  0  0  0  0  0
    8.8731  -17.4630   24.6667 O   0  0  0  0  0  0  0  0  0  0  0  0
    9.7697  -13.2202   28.6279 C   0  0  0  0  0  0  0  0  0  0  0  0
   11.2478  -14.0651   29.2247 S   0  0  0  0  0  0  0  0  0  0  0  0
   11.3229  -15.7642   28.7075 C   0  0  0  0  0  0  0  0  0  0  0  0
   11.8435  -16.0596   27.3538 C   0  0  0  0  0  0  0  0  0  0  0  0
   10.9402  -16.7955   26.4625 C   0  0  2  0  0  0  0  0  0  0  0  0
   10.0984  -15.8286   25.6998 N   0  0  0  0  0  0  0  0  0  0  0  0
   10.0298  -17.7166   27.1239 C   0  0  0  0  0  0  0  0  0  0  0  0
    8.7987  -17.3404   27.2654 O   0  0  0  0  0  0  0  0  0  0  0  0
   10.2895  -18.9685   27.6299 O   0  0  0  0  0  0  0  0  0  0  0  0
  2  1  1  6
  2  4  1  0
  3  2  1  0
  4  5  1  6
  4  6  1  0
  6  7  2  0
  9  8  1  0
 10  9  1  0
 12 11  1  1
 11 10  1  0
 12 14  1  0
 13  6  1  0
 13 12  1  0
 14 15  2  0
 16 17  1  0
 17 18  1  0
 18 19  1  0
 20 19  1  1
 20 22  1  0
 21 20  1  0
 21 14  1  0
 22 23  2  0
 22 24  1  0
M  END
$$$$
