VMM.pdb
     RDKit          3D

 24 23  0  0  1  0  0  0  0  0999 V2000
    7.8932  -12.6015   18.3695 C   0  0  0  0  0  0  0  0  0  0  0  0
    7.8029  -13.4720   19.5861 C   0  0  2  0  0  0  0  0  0  0  0  0
    8.4704  -12.7597   20.7340 C   0  0  0  0  0  0  0  0  0  0  0  0
    8.4462  -14.8131   19.3781 C   0  0  2  0  0  0  0  0  0  0  0  0
    7.8157  -15.4722   18.2569 N   0  0  0  0  0  0  0  0  0  0  0  0
    8.3606  -15.6772   20.5787 C   0  0  0  0  0  0  0  0  0  0  0  0
    7.2612  -16.2051   20.8889 O   0  0  0  0  0  0  0  0  0  0  0  0
   11.2133  -21.0565   22.3981 C   0  0  0  0  0  0  0  0  0  0  0  0
   11.7340  -19.9378   23.7451 S   0  0  0  0  0  0  0  0  0  0  0  0
   10.4517  -18.6580   23.8937 C   0  0  0  0  0  0  0  0  0  0  0  0
   10.4700  -17.8534   22.6265 C   0  0  0  0  0  0  0  0  0  0  0  0
    9.4509  -16.7382   22.6133 C   0  0  2  0  0  0  0  0  0  0  0  0
    9.4764  -15.9485   21.4173 N   0  0  0  0  0  0  0  0  0  0  0  0
    9.6990  -15.9181   23.8351 C   0  0  0  0  0  0  0  0  0  0  0  0
   10.7276  -15.1947   23.8867 O   0  0  0  0  0  0  0  0  0  0  0  0
    5.6765  -11.5172   25.5943 C   0  0  0  0  0  0  0  0  0  0  0  0
    6.6374  -11.9476   27.0593 S   0  0  0  0  0  0  0  0  0  0  0  0
    8.0781  -12.9156   26.6751 C   0  0  0  0  0  0  0  0  0  0  0  0
    7.9282  -14.3854   26.5859 C   0  0  0  0  0  0  0  0  0  0  0  0
    9.1249  -15.1318   26.1826 C   0  0  2  0  0  0  0  0  0  0  0  0
    8.8300  -15.9131   24.9464 N   0  0  0  0  0  0  0  0  0  0  0  0
    9.6290  -16.0757   27.1674 C   0  0  0  0  0  0  0  0  0  0  0  0
    9.2255  -17.3031   27.0788 O   0  0  0  0  0  0  0  0  0  0  0  0
   10.5026  -15.8520   28.2054 O   0  0  0  0  0  0  0  0  0  0  0  0
  2  1  1  6
  2  4  1  0
  3  2  1  0
  4  5  1  6
  4  6  1  0
  6  7  2  0
  9  8  1  0
 10  9  1  0
 12 11  1  6
 11 10  1  0
 12 14  1  0
 13  6  1  0
 13 12  1  0
 14 15  2  0
 16 17  1  0
 17 18  1  0
 18 19  1  0
 20 19  1  1
 20 22  1  0
 21 20  1  0
 21 14  1  0
 22 23  2  0
 22 24  1  0
M  END
$$$$
