VMM.pdb
     RDKit          3D

 24 23  0  0  1  0  0  0  0  0999 V2000
    9.5750  -19.1456   18.9657 C   0  0  0  0  0  0  0  0  0  0  0  0
    9.7856  -18.4211   20.2605 C   0  0  2  0  0  0  0  0  0  0  0  0
    9.1665  -19.2329   21.3687 C   0  0  0  0  0  0  0  0  0  0  0  0
    9.1895  -17.0426   20.2474 C   0  0  2  0  0  0  0  0  0  0  0  0
    9.7482  -16.2953   19.1436 N   0  0  0  0  0  0  0  0  0  0  0  0
    9.4213  -16.3108   21.5148 C   0  0  0  0  0  0  0  0  0  0  0  0
   10.5832  -15.9270   21.8088 O   0  0  0  0  0  0  0  0  0  0  0  0
    6.1209  -11.5449   25.9915 C   0  0  0  0  0  0  0  0  0  0  0  0
    5.8458  -13.3504   26.0287 S   0  0  0  0  0  0  0  0  0  0  0  0
    7.4281  -14.1343   25.5973 C   0  0  0  0  0  0  0  0  0  0  0  0
    7.2549  -14.7908   24.2585 C   0  0  0  0  0  0  0  0  0  0  0  0
    8.5435  -15.3392   23.6918 C   0  0  2  0  0  0  0  0  0  0  0  0
    8.3808  -16.0119   22.4365 N   0  0  0  0  0  0  0  0  0  0  0  0
    9.1247  -16.2312   24.7376 C   0  0  0  0  0  0  0  0  0  0  0  0
    8.8113  -17.4501   24.7437 O   0  0  0  0  0  0  0  0  0  0  0  0
   10.4386  -14.4858   30.5604 C   0  0  0  0  0  0  0  0  0  0  0  0
   10.4917  -13.5971   28.9912 S   0  0  0  0  0  0  0  0  0  0  0  0
   11.2915  -14.5256   27.7035 C   0  0  0  0  0  0  0  0  0  0  0  0
   11.2619  -16.0031   27.7865 C   0  0  0  0  0  0  0  0  0  0  0  0
   10.8061  -16.7070   26.5829 C   0  0  2  0  0  0  0  0  0  0  0  0
   10.0165  -15.7721   25.7297 N   0  0  0  0  0  0  0  0  0  0  0  0
    9.9656  -17.8690   26.8242 C   0  0  0  0  0  0  0  0  0  0  0  0
   10.5585  -19.0005   27.0371 O   0  0  0  0  0  0  0  0  0  0  0  0
    8.5934  -17.9443   26.8681 O   0  0  0  0  0  0  0  0  0  0  0  0
  2  1  1  6
  2  4  1  0
  3  2  1  0
  4  5  1  6
  4  6  1  0
  6  7  2  0
  9  8  1  0
 10  9  1  0
 12 11  1  1
 11 10  1  0
 12 14  1  0
 13  6  1  0
 13 12  1  0
 14 15  2  0
 16 17  1  0
 17 18  1  0
 18 19  1  0
 20 19  1  1
 20 22  1  0
 21 20  1  0
 21 14  1  0
 22 23  2  0
 22 24  1  0
M  END
$$$$
