VMM.pdb
     RDKit          3D

 24 23  0  0  1  0  0  0  0  0999 V2000
    9.0372  -19.4876   19.1767 C   0  0  0  0  0  0  0  0  0  0  0  0
    9.3922  -18.6001   20.3309 C   0  0  2  0  0  0  0  0  0  0  0  0
    8.9057  -19.2496   21.6005 C   0  0  0  0  0  0  0  0  0  0  0  0
    8.7946  -17.2282   20.2016 C   0  0  2  0  0  0  0  0  0  0  0  0
    9.2544  -16.6253   18.9711 N   0  0  0  0  0  0  0  0  0  0  0  0
    9.1338  -16.3501   21.3458 C   0  0  0  0  0  0  0  0  0  0  0  0
   10.2875  -15.8547   21.4301 O   0  0  0  0  0  0  0  0  0  0  0  0
    6.4691  -11.2969   26.2523 C   0  0  0  0  0  0  0  0  0  0  0  0
    6.0525  -13.0532   25.9714 S   0  0  0  0  0  0  0  0  0  0  0  0
    7.5826  -13.8806   25.4436 C   0  0  0  0  0  0  0  0  0  0  0  0
    7.2803  -14.6160   24.1703 C   0  0  0  0  0  0  0  0  0  0  0  0
    8.4971  -15.2640   23.5524 C   0  0  2  0  0  0  0  0  0  0  0  0
    8.2074  -16.0296   22.3757 N   0  0  0  0  0  0  0  0  0  0  0  0
    9.1297  -16.0915   24.6212 C   0  0  0  0  0  0  0  0  0  0  0  0
    8.5026  -17.0825   25.0777 O   0  0  0  0  0  0  0  0  0  0  0  0
    9.0362  -13.5624   29.4222 C   0  0  0  0  0  0  0  0  0  0  0  0
   10.8015  -13.7874   29.1259 S   0  0  0  0  0  0  0  0  0  0  0  0
   11.1394  -14.6162   27.5900 C   0  0  0  0  0  0  0  0  0  0  0  0
   10.8725  -16.0697   27.5075 C   0  0  0  0  0  0  0  0  0  0  0  0
   11.0434  -16.6822   26.1855 C   0  0  2  0  0  0  0  0  0  0  0  0
   10.4078  -15.8157   25.1508 N   0  0  0  0  0  0  0  0  0  0  0  0
   10.4663  -18.0087   26.0367 C   0  0  0  0  0  0  0  0  0  0  0  0
   11.0053  -18.9732   26.7122 O   0  0  0  0  0  0  0  0  0  0  0  0
    9.3963  -18.4002   25.2669 O   0  0  0  0  0  0  0  0  0  0  0  0
  2  1  1  6
  2  4  1  0
  3  2  1  0
  4  5  1  6
  4  6  1  0
  6  7  2  0
  9  8  1  0
 10  9  1  0
 12 11  1  1
 11 10  1  0
 12 14  1  0
 13  6  1  0
 13 12  1  0
 14 15  2  0
 16 17  1  0
 17 18  1  0
 18 19  1  0
 20 19  1  1
 20 22  1  0
 21 20  1  0
 21 14  1  0
 22 23  2  0
 22 24  1  0
M  END
$$$$
