VMM.pdb
     RDKit          3D

 24 23  0  0  1  0  0  0  0  0999 V2000
    8.3953  -20.0304   24.3691 C   0  0  0  0  0  0  0  0  0  0  0  0
    7.1042  -19.7591   25.0798 C   0  0  2  0  0  0  0  0  0  0  0  0
    6.4498  -21.0776   25.4021 C   0  0  0  0  0  0  0  0  0  0  0  0
    6.1686  -18.9147   24.2628 C   0  0  2  0  0  0  0  0  0  0  0  0
    5.7978  -19.6387   23.0682 N   0  0  0  0  0  0  0  0  0  0  0  0
    6.7595  -17.6074   23.8920 C   0  0  0  0  0  0  0  0  0  0  0  0
    7.4062  -17.4985   22.8180 O   0  0  0  0  0  0  0  0  0  0  0  0
    5.0026  -11.7170   26.1481 C   0  0  0  0  0  0  0  0  0  0  0  0
    6.8200  -11.5373   26.1859 S   0  0  0  0  0  0  0  0  0  0  0  0
    7.4956  -12.7597   25.0225 C   0  0  0  0  0  0  0  0  0  0  0  0
    6.7265  -14.0348   25.2126 C   0  0  0  0  0  0  0  0  0  0  0  0
    7.3601  -15.2216   24.5254 C   0  0  2  0  0  0  0  0  0  0  0  0
    6.6331  -16.4446   24.7003 N   0  0  0  0  0  0  0  0  0  0  0  0
    8.7572  -15.3183   25.0411 C   0  0  0  0  0  0  0  0  0  0  0  0
    8.9666  -15.1564   26.2714 O   0  0  0  0  0  0  0  0  0  0  0  0
   10.4856  -13.6222   29.7551 C   0  0  0  0  0  0  0  0  0  0  0  0
   10.9548  -15.0971   28.8282 S   0  0  0  0  0  0  0  0  0  0  0  0
   11.0793  -14.7984   27.0802 C   0  0  0  0  0  0  0  0  0  0  0  0
   11.2113  -15.9658   26.1801 C   0  0  0  0  0  0  0  0  0  0  0  0
   11.2565  -15.6702   24.7439 C   0  0  2  0  0  0  0  0  0  0  0  0
    9.8660  -15.5845   24.2104 N   0  0  0  0  0  0  0  0  0  0  0  0
   11.9602  -16.6489   23.9305 C   0  0  0  0  0  0  0  0  0  0  0  0
   11.2470  -17.5392   23.3175 O   0  0  0  0  0  0  0  0  0  0  0  0
   13.3113  -16.7675   23.7038 O   0  0  0  0  0  0  0  0  0  0  0  0
  2  1  1  6
  2  4  1  0
  3  2  1  0
  4  5  1  6
  4  6  1  0
  6  7  2  0
  9  8  1  0
 10  9  1  0
 12 11  1  1
 11 10  1  0
 12 14  1  0
 13  6  1  0
 13 12  1  0
 14 15  2  0
 16 17  1  0
 17 18  1  0
 18 19  1  0
 20 19  1  1
 20 22  1  0
 21 20  1  0
 21 14  1  0
 22 23  2  0
 22 24  1  0
M  END
$$$$
