IMR.pdb
     RDKit          3D

 28 27  0  0  1  0  0  0  0  0999 V2000
    7.5286  -11.8689   18.1110 C   0  0  0  0  0  0  0  0  0  0  0  0
    7.6222  -13.2153   18.7495 C   0  0  0  0  0  0  0  0  0  0  0  0
    8.3639  -13.2111   20.0720 C   0  0  2  0  0  0  0  0  0  0  0  0
    9.6439  -12.4677   19.9187 C   0  0  0  0  0  0  0  0  0  0  0  0
    8.4965  -14.6359   20.5302 C   0  0  2  0  0  0  0  0  0  0  0  0
    7.1316  -15.1886   20.4643 N   0  0  0  0  0  0  0  0  0  0  0  0
    8.9129  -14.7334   21.9542 C   0  0  0  0  0  0  0  0  0  0  0  0
   10.1147  -14.5373   22.3157 O   0  0  0  0  0  0  0  0  0  0  0  0
    6.4034  -12.0644   27.5765 C   0  0  0  0  0  0  0  0  0  0  0  0
    5.4711  -13.0254   26.3727 S   0  0  0  0  0  0  0  0  0  0  0  0
    6.4916  -13.5024   24.9417 C   0  0  0  0  0  0  0  0  0  0  0  0
    7.2369  -14.7372   25.3235 C   0  0  0  0  0  0  0  0  0  0  0  0
    8.4085  -15.0462   24.4046 C   0  0  2  0  0  0  0  0  0  0  0  0
    8.0212  -15.0488   23.0232 N   0  0  0  0  0  0  0  0  0  0  0  0
    9.1383  -16.2540   24.8103 C   0  0  0  0  0  0  0  0  0  0  0  0
    8.4897  -17.3467   24.8016 O   0  0  0  0  0  0  0  0  0  0  0  0
   15.1397  -16.1747   20.8586 N   0  0  0  0  0  0  0  0  0  0  0  0
   13.7798  -15.7665   20.8971 C   0  0  0  0  0  0  0  0  0  0  0  0
   13.2812  -14.9418   20.0507 N   0  0  0  0  0  0  0  0  0  0  0  0
   12.9478  -16.3009   21.9215 N   0  0  0  0  0  0  0  0  0  0  0  0
   13.0225  -17.6936   22.3323 C   0  0  0  0  0  0  0  0  0  0  0  0
   11.9555  -18.0364   23.3239 C   0  0  0  0  0  0  0  0  0  0  0  0
   12.2568  -17.8601   24.7492 C   0  0  0  0  0  0  0  0  0  0  0  0
   11.1750  -17.5285   25.6696 C   0  0  2  0  0  0  0  0  0  0  0  0
   10.4846  -16.2942   25.2027 N   0  0  0  0  0  0  0  0  0  0  0  0
   11.3999  -17.4883   27.0858 C   0  0  0  0  0  0  0  0  0  0  0  0
   11.0780  -16.5349   27.8251 O   0  0  0  0  0  0  0  0  0  0  0  0
   12.0209  -18.5709   27.7310 O   0  0  0  0  0  0  0  0  0  0  0  0
  2  1  1  0
  3  4  1  6
  3  2  1  0
  5  3  1  0
  5  6  1  1
  7  5  1  0
  7  8  2  0
  9 10  1  0
 10 11  1  0
 11 12  1  0
 13 12  1  1
 13 14  1  0
 14  7  1  0
 15 25  1  0
 15 13  1  0
 16 15  2  0
 17 18  1  0
 18 20  1  0
 19 18  2  0
 20 21  1  0
 21 22  1  0
 22 23  1  0
 24 23  1  6
 24 25  1  0
 24 26  1  0
 26 27  2  0
 26 28  1  0
M  END
$$$$
