IMR.pdb
     RDKit          3D

 28 27  0  0  1  0  0  0  0  0999 V2000
    7.4570  -11.8115   19.6206 C   0  0  0  0  0  0  0  0  0  0  0  0
    7.5936  -13.1195   20.3276 C   0  0  0  0  0  0  0  0  0  0  0  0
    8.5295  -14.0907   19.6348 C   0  0  2  0  0  0  0  0  0  0  0  0
    8.0411  -14.3473   18.2527 C   0  0  0  0  0  0  0  0  0  0  0  0
    8.6610  -15.3060   20.5083 C   0  0  2  0  0  0  0  0  0  0  0  0
    7.3029  -15.8740   20.5825 N   0  0  0  0  0  0  0  0  0  0  0  0
    9.0398  -14.9587   21.9036 C   0  0  0  0  0  0  0  0  0  0  0  0
   10.2161  -14.5862   22.2054 O   0  0  0  0  0  0  0  0  0  0  0  0
    6.0106  -11.4714   26.4721 C   0  0  0  0  0  0  0  0  0  0  0  0
    6.4556  -12.9602   27.3817 S   0  0  0  0  0  0  0  0  0  0  0  0
    7.8364  -13.8523   26.5980 C   0  0  0  0  0  0  0  0  0  0  0  0
    7.4582  -14.0870   25.1740 C   0  0  0  0  0  0  0  0  0  0  0  0
    8.5378  -14.7931   24.3688 C   0  0  2  0  0  0  0  0  0  0  0  0
    8.1374  -15.0099   23.0083 N   0  0  0  0  0  0  0  0  0  0  0  0
    9.0334  -16.0049   25.0334 C   0  0  0  0  0  0  0  0  0  0  0  0
    8.2301  -16.9864   25.1111 O   0  0  0  0  0  0  0  0  0  0  0  0
   16.1974  -20.1738   24.2258 N   0  0  0  0  0  0  0  0  0  0  0  0
   15.1786  -20.5242   23.3001 C   0  0  0  0  0  0  0  0  0  0  0  0
   15.2839  -21.5219   22.5010 N   0  0  0  0  0  0  0  0  0  0  0  0
   13.9987  -19.7278   23.2678 N   0  0  0  0  0  0  0  0  0  0  0  0
   13.8128  -18.5828   24.1442 C   0  0  0  0  0  0  0  0  0  0  0  0
   12.6116  -18.7463   25.0215 C   0  0  0  0  0  0  0  0  0  0  0  0
   12.2147  -17.6131   25.8651 C   0  0  0  0  0  0  0  0  0  0  0  0
   10.8055  -17.4288   26.1926 C   0  0  2  0  0  0  0  0  0  0  0  0
   10.3143  -16.1613   25.5840 N   0  0  0  0  0  0  0  0  0  0  0  0
   10.3393  -17.5665   27.5422 C   0  0  0  0  0  0  0  0  0  0  0  0
   10.0892  -16.6093   28.3040 O   0  0  0  0  0  0  0  0  0  0  0  0
   10.1348  -18.8443   28.0895 O   0  0  0  0  0  0  0  0  0  0  0  0
  2  1  1  0
  3  4  1  6
  3  2  1  0
  5  3  1  0
  5  6  1  1
  7  5  1  0
  7  8  2  0
  9 10  1  0
 10 11  1  0
 11 12  1  0
 13 12  1  1
 13 14  1  0
 14  7  1  0
 15 25  1  0
 15 13  1  0
 16 15  2  0
 17 18  1  0
 18 20  1  0
 19 18  2  0
 20 21  1  0
 21 22  1  0
 22 23  1  0
 24 23  1  1
 24 25  1  0
 24 26  1  0
 26 27  2  0
 26 28  1  0
M  END
$$$$
