IMR.pdb
     RDKit          3D

 28 27  0  0  1  0  0  0  0  0999 V2000
    7.1212  -12.7521   18.4365 C   0  0  0  0  0  0  0  0  0  0  0  0
    7.8410  -13.8329   19.1735 C   0  0  0  0  0  0  0  0  0  0  0  0
    8.0101  -13.5513   20.6538 C   0  0  2  0  0  0  0  0  0  0  0  0
    8.7506  -12.2730   20.8324 C   0  0  0  0  0  0  0  0  0  0  0  0
    8.6463  -14.7585   21.2824 C   0  0  2  0  0  0  0  0  0  0  0  0
    7.6932  -15.8588   21.0507 N   0  0  0  0  0  0  0  0  0  0  0  0
    8.7719  -14.6251   22.7580 C   0  0  0  0  0  0  0  0  0  0  0  0
    9.6508  -13.8789   23.2908 O   0  0  0  0  0  0  0  0  0  0  0  0
    7.3477  -11.3897   27.3904 C   0  0  0  0  0  0  0  0  0  0  0  0
    5.9568  -12.2979   26.6959 S   0  0  0  0  0  0  0  0  0  0  0  0
    6.4489  -13.3111   25.2649 C   0  0  0  0  0  0  0  0  0  0  0  0
    6.8544  -14.6477   25.7894 C   0  0  0  0  0  0  0  0  0  0  0  0
    8.0944  -15.2127   25.1144 C   0  0  2  0  0  0  0  0  0  0  0  0
    7.9352  -15.3074   23.6917 N   0  0  0  0  0  0  0  0  0  0  0  0
    8.5543  -16.4607   25.7364 C   0  0  0  0  0  0  0  0  0  0  0  0
    8.5576  -16.5019   27.0064 O   0  0  0  0  0  0  0  0  0  0  0  0
   16.2827  -16.3398   23.0760 N   0  0  0  0  0  0  0  0  0  0  0  0
   15.8019  -17.4737   22.3686 C   0  0  0  0  0  0  0  0  0  0  0  0
   16.5776  -18.2669   21.7248 N   0  0  0  0  0  0  0  0  0  0  0  0
   14.4012  -17.7286   22.3821 N   0  0  0  0  0  0  0  0  0  0  0  0
   13.4657  -16.8768   23.0984 C   0  0  0  0  0  0  0  0  0  0  0  0
   12.6452  -17.6563   24.0774 C   0  0  0  0  0  0  0  0  0  0  0  0
   11.1978  -17.4167   24.1086 C   0  0  0  0  0  0  0  0  0  0  0  0
   10.3808  -18.1212   25.0901 C   0  0  2  0  0  0  0  0  0  0  0  0
    8.9860  -17.6011   25.0426 N   0  0  0  0  0  0  0  0  0  0  0  0
   10.8271  -18.2755   26.4446 C   0  0  0  0  0  0  0  0  0  0  0  0
   11.1552  -17.3305   27.1919 O   0  0  0  0  0  0  0  0  0  0  0  0
   10.9180  -19.5565   27.0144 O   0  0  0  0  0  0  0  0  0  0  0  0
  2  1  1  0
  3  4  1  6
  3  2  1  0
  5  3  1  0
  5  6  1  1
  7  5  1  0
  7  8  2  0
  9 10  1  0
 10 11  1  0
 11 12  1  0
 13 12  1  1
 13 14  1  0
 14  7  1  0
 15 25  1  0
 15 13  1  0
 16 15  2  0
 17 18  1  0
 18 20  1  0
 19 18  2  0
 20 21  1  0
 21 22  1  0
 22 23  1  0
 24 23  1  6
 24 25  1  0
 24 26  1  0
 26 27  2  0
 26 28  1  0
M  END
$$$$
