IMR.pdb
     RDKit          3D

 28 27  0  0  1  0  0  0  0  0999 V2000
   11.5147  -15.8081   30.9911 C   0  0  0  0  0  0  0  0  0  0  0  0
   10.5438  -16.7974   30.4360 C   0  0  0  0  0  0  0  0  0  0  0  0
    9.6292  -16.2212   29.3727 C   0  0  2  0  0  0  0  0  0  0  0  0
    8.9649  -14.9991   29.9013 C   0  0  0  0  0  0  0  0  0  0  0  0
    8.7030  -17.3143   28.9204 C   0  0  2  0  0  0  0  0  0  0  0  0
    9.5708  -18.4848   28.6978 N   0  0  0  0  0  0  0  0  0  0  0  0
    8.0730  -17.0120   27.6080 C   0  0  0  0  0  0  0  0  0  0  0  0
    6.9176  -17.4433   27.3043 O   0  0  0  0  0  0  0  0  0  0  0  0
    6.3122  -11.8337   24.6758 C   0  0  0  0  0  0  0  0  0  0  0  0
    5.8759  -12.6492   26.2206 S   0  0  0  0  0  0  0  0  0  0  0  0
    6.3119  -14.4173   26.2064 C   0  0  0  0  0  0  0  0  0  0  0  0
    7.4550  -14.5822   25.2620 C   0  0  0  0  0  0  0  0  0  0  0  0
    8.0912  -15.9624   25.3157 C   0  0  2  0  0  0  0  0  0  0  0  0
    8.6937  -16.2265   26.5906 N   0  0  0  0  0  0  0  0  0  0  0  0
    8.9886  -16.2127   24.1809 C   0  0  0  0  0  0  0  0  0  0  0  0
   10.1286  -15.6524   24.2160 O   0  0  0  0  0  0  0  0  0  0  0  0
    7.6515  -13.7760   16.3814 N   0  0  0  0  0  0  0  0  0  0  0  0
    7.8917  -13.1483   17.6328 C   0  0  0  0  0  0  0  0  0  0  0  0
    8.1996  -11.9074   17.7360 N   0  0  0  0  0  0  0  0  0  0  0  0
    7.7836  -13.9392   18.8118 N   0  0  0  0  0  0  0  0  0  0  0  0
    7.7686  -15.3924   18.7709 C   0  0  0  0  0  0  0  0  0  0  0  0
    7.7349  -15.9845   20.1448 C   0  0  0  0  0  0  0  0  0  0  0  0
    8.9129  -15.8058   21.0015 C   0  0  0  0  0  0  0  0  0  0  0  0
    9.4113  -16.9397   21.7717 C   0  0  2  0  0  0  0  0  0  0  0  0
    8.6872  -17.0161   23.0709 N   0  0  0  0  0  0  0  0  0  0  0  0
   10.8195  -17.1435   21.9542 C   0  0  0  0  0  0  0  0  0  0  0  0
   11.4030  -18.2341   21.7837 O   0  0  0  0  0  0  0  0  0  0  0  0
   11.6400  -16.0742   22.3509 O   0  0  0  0  0  0  0  0  0  0  0  0
  2  1  1  0
  3  4  1  1
  3  2  1  0
  5  3  1  0
  5  6  1  6
  7  5  1  0
  7  8  2  0
  9 10  1  0
 10 11  1  0
 11 12  1  0
 13 12  1  1
 13 14  1  0
 14  7  1  0
 15 25  1  0
 15 13  1  0
 16 15  2  0
 17 18  1  0
 18 20  1  0
 19 18  2  0
 20 21  1  0
 21 22  1  0
 22 23  1  0
 24 23  1  1
 24 25  1  0
 24 26  1  0
 26 27  2  0
 26 28  1  0
M  END
$$$$
