IMR.pdb
     RDKit          3D

 28 27  0  0  1  0  0  0  0  0999 V2000
    7.6829  -15.7648   16.7382 C   0  0  0  0  0  0  0  0  0  0  0  0
    7.4444  -14.6646   17.7190 C   0  0  0  0  0  0  0  0  0  0  0  0
    7.8655  -15.0094   19.1342 C   0  0  2  0  0  0  0  0  0  0  0  0
    7.2403  -16.2986   19.5359 C   0  0  0  0  0  0  0  0  0  0  0  0
    7.5394  -13.8337   20.0111 C   0  0  2  0  0  0  0  0  0  0  0  0
    8.2001  -12.6823   19.3702 N   0  0  0  0  0  0  0  0  0  0  0  0
    8.1434  -13.9554   21.3643 C   0  0  0  0  0  0  0  0  0  0  0  0
    9.4003  -13.9170   21.5429 O   0  0  0  0  0  0  0  0  0  0  0  0
    6.2645  -10.4371   27.1468 C   0  0  0  0  0  0  0  0  0  0  0  0
    6.5151  -12.1964   26.8569 S   0  0  0  0  0  0  0  0  0  0  0  0
    6.7952  -12.5651   25.0956 C   0  0  0  0  0  0  0  0  0  0  0  0
    7.0458  -14.0318   24.9864 C   0  0  0  0  0  0  0  0  0  0  0  0
    7.9719  -14.4046   23.8393 C   0  0  2  0  0  0  0  0  0  0  0  0
    7.3841  -14.1225   22.5614 N   0  0  0  0  0  0  0  0  0  0  0  0
    8.4894  -15.7737   23.9562 C   0  0  0  0  0  0  0  0  0  0  0  0
    8.0257  -16.6340   23.1441 O   0  0  0  0  0  0  0  0  0  0  0  0
   15.1602  -19.1422   22.6851 N   0  0  0  0  0  0  0  0  0  0  0  0
   14.5384  -19.8441   21.6181 C   0  0  0  0  0  0  0  0  0  0  0  0
   15.2028  -20.3592   20.6495 N   0  0  0  0  0  0  0  0  0  0  0  0
   13.1206  -19.9733   21.6363 N   0  0  0  0  0  0  0  0  0  0  0  0
   12.2398  -18.8247   21.7726 C   0  0  0  0  0  0  0  0  0  0  0  0
   11.6527  -18.7372   23.1463 C   0  0  0  0  0  0  0  0  0  0  0  0
   10.7451  -17.6216   23.4382 C   0  0  0  0  0  0  0  0  0  0  0  0
   10.1902  -17.4881   24.7804 C   0  0  2  0  0  0  0  0  0  0  0  0
    9.4482  -16.2012   24.8869 N   0  0  0  0  0  0  0  0  0  0  0  0
   11.0057  -17.7098   25.9395 C   0  0  0  0  0  0  0  0  0  0  0  0
   11.2281  -16.8536   26.8207 O   0  0  0  0  0  0  0  0  0  0  0  0
   11.6174  -18.9584   26.1417 O   0  0  0  0  0  0  0  0  0  0  0  0
  2  1  1  0
  3  4  1  1
  3  2  1  0
  5  3  1  0
  5  6  1  6
  7  5  1  0
  7  8  2  0
  9 10  1  0
 10 11  1  0
 11 12  1  0
 13 12  1  1
 13 14  1  0
 14  7  1  0
 15 25  1  0
 15 13  1  0
 16 15  2  0
 17 18  1  0
 18 20  1  0
 19 18  2  0
 20 21  1  0
 21 22  1  0
 22 23  1  0
 24 23  1  6
 24 25  1  0
 24 26  1  0
 26 27  2  0
 26 28  1  0
M  END
$$$$
