IMR.pdb
     RDKit          3D

 28 27  0  0  1  0  0  0  0  0999 V2000
    7.3761  -11.8223   19.7306 C   0  0  0  0  0  0  0  0  0  0  0  0
    7.5452  -13.1758   20.3377 C   0  0  0  0  0  0  0  0  0  0  0  0
    8.6240  -14.0096   19.6743 C   0  0  2  0  0  0  0  0  0  0  0  0
    8.2985  -14.1827   18.2326 C   0  0  0  0  0  0  0  0  0  0  0  0
    8.7707  -15.2821   20.4596 C   0  0  2  0  0  0  0  0  0  0  0  0
    7.4790  -15.9763   20.3100 N   0  0  0  0  0  0  0  0  0  0  0  0
    8.9373  -15.0296   21.9154 C   0  0  0  0  0  0  0  0  0  0  0  0
   10.0614  -14.7155   22.4165 O   0  0  0  0  0  0  0  0  0  0  0  0
    6.2740  -11.1798   27.2300 C   0  0  0  0  0  0  0  0  0  0  0  0
    5.7797  -12.8896   26.9573 S   0  0  0  0  0  0  0  0  0  0  0  0
    7.1674  -13.9179   26.3798 C   0  0  0  0  0  0  0  0  0  0  0  0
    6.9324  -14.2044   24.9347 C   0  0  0  0  0  0  0  0  0  0  0  0
    8.0627  -14.9829   24.2797 C   0  0  2  0  0  0  0  0  0  0  0  0
    7.8738  -15.1145   22.8636 N   0  0  0  0  0  0  0  0  0  0  0  0
    8.3328  -16.2583   24.9552 C   0  0  0  0  0  0  0  0  0  0  0  0
    7.7238  -17.2822   24.5133 O   0  0  0  0  0  0  0  0  0  0  0  0
   10.6147  -19.1106   20.5770 N   0  0  0  0  0  0  0  0  0  0  0  0
   11.6399  -19.9689   21.0563 C   0  0  0  0  0  0  0  0  0  0  0  0
   11.8356  -21.1444   20.5818 N   0  0  0  0  0  0  0  0  0  0  0  0
   12.4765  -19.4937   22.1059 N   0  0  0  0  0  0  0  0  0  0  0  0
   12.2237  -18.2351   22.7883 C   0  0  0  0  0  0  0  0  0  0  0  0
   11.3570  -18.4231   23.9936 C   0  0  0  0  0  0  0  0  0  0  0  0
   11.1351  -17.2673   24.8701 C   0  0  0  0  0  0  0  0  0  0  0  0
   10.3120  -17.4268   26.0636 C   0  0  2  0  0  0  0  0  0  0  0  0
    9.2040  -16.4318   26.0411 N   0  0  0  0  0  0  0  0  0  0  0  0
   10.9099  -17.5024   27.3653 C   0  0  0  0  0  0  0  0  0  0  0  0
   11.3133  -16.5157   28.0155 O   0  0  0  0  0  0  0  0  0  0  0  0
   11.0744  -18.7485   27.9932 O   0  0  0  0  0  0  0  0  0  0  0  0
  2  1  1  0
  3  4  1  6
  3  2  1  0
  5  3  1  0
  5  6  1  1
  7  5  1  0
  7  8  2  0
  9 10  1  0
 10 11  1  0
 11 12  1  0
 13 12  1  1
 13 14  1  0
 14  7  1  0
 15 25  1  0
 15 13  1  0
 16 15  2  0
 17 18  1  0
 18 20  1  0
 19 18  2  0
 20 21  1  0
 21 22  1  0
 22 23  1  0
 24 23  1  6
 24 25  1  0
 24 26  1  0
 26 27  2  0
 26 28  1  0
M  END
$$$$
