IMR.pdb
     RDKit          3D

 28 27  0  0  1  0  0  0  0  0999 V2000
    6.5722  -12.7891   17.7031 C   0  0  0  0  0  0  0  0  0  0  0  0
    7.0847  -14.0084   18.3959 C   0  0  0  0  0  0  0  0  0  0  0  0
    7.8311  -13.7092   19.6814 C   0  0  2  0  0  0  0  0  0  0  0  0
    8.9351  -12.7518   19.4006 C   0  0  0  0  0  0  0  0  0  0  0  0
    8.2513  -15.0191   20.2854 C   0  0  2  0  0  0  0  0  0  0  0  0
    7.0238  -15.8342   20.3261 N   0  0  0  0  0  0  0  0  0  0  0  0
    8.6960  -14.8720   21.6966 C   0  0  0  0  0  0  0  0  0  0  0  0
    9.9215  -14.9403   22.0234 O   0  0  0  0  0  0  0  0  0  0  0  0
    8.0015  -11.1266   27.3827 C   0  0  0  0  0  0  0  0  0  0  0  0
    6.7756  -12.4109   27.0833 S   0  0  0  0  0  0  0  0  0  0  0  0
    7.5369  -13.9591   26.5001 C   0  0  0  0  0  0  0  0  0  0  0  0
    7.1040  -14.1582   25.0863 C   0  0  0  0  0  0  0  0  0  0  0  0
    8.2382  -14.5593   24.1561 C   0  0  2  0  0  0  0  0  0  0  0  0
    7.8075  -14.6450   22.7903 N   0  0  0  0  0  0  0  0  0  0  0  0
    8.9510  -15.7557   24.6213 C   0  0  0  0  0  0  0  0  0  0  0  0
    8.2914  -16.8414   24.6519 O   0  0  0  0  0  0  0  0  0  0  0  0
   16.8918  -16.0792   23.4055 N   0  0  0  0  0  0  0  0  0  0  0  0
   15.5637  -15.8537   22.9550 C   0  0  0  0  0  0  0  0  0  0  0  0
   15.1717  -14.7213   22.4976 N   0  0  0  0  0  0  0  0  0  0  0  0
   14.6406  -16.9358   23.0194 N   0  0  0  0  0  0  0  0  0  0  0  0
   14.6602  -17.9074   24.1008 C   0  0  0  0  0  0  0  0  0  0  0  0
   13.3125  -18.0593   24.7331 C   0  0  0  0  0  0  0  0  0  0  0  0
   12.3695  -16.9403   24.6231 C   0  0  0  0  0  0  0  0  0  0  0  0
   11.0575  -17.0509   25.2507 C   0  0  2  0  0  0  0  0  0  0  0  0
   10.2924  -15.7923   25.0305 N   0  0  0  0  0  0  0  0  0  0  0  0
   10.9254  -17.5037   26.6054 C   0  0  0  0  0  0  0  0  0  0  0  0
   11.3021  -18.6210   27.0164 O   0  0  0  0  0  0  0  0  0  0  0  0
   10.3392  -16.6699   27.5724 O   0  0  0  0  0  0  0  0  0  0  0  0
  2  1  1  0
  3  4  1  6
  3  2  1  0
  5  3  1  0
  5  6  1  1
  7  5  1  0
  7  8  2  0
  9 10  1  0
 10 11  1  0
 11 12  1  0
 13 12  1  1
 13 14  1  0
 14  7  1  0
 15 25  1  0
 15 13  1  0
 16 15  2  0
 17 18  1  0
 18 20  1  0
 19 18  2  0
 20 21  1  0
 21 22  1  0
 22 23  1  0
 24 23  1  1
 24 25  1  0
 24 26  1  0
 26 27  2  0
 26 28  1  0
M  END
$$$$
