IMR.pdb
     RDKit          3D

 28 27  0  0  1  0  0  0  0  0999 V2000
    7.2373  -12.0396   19.6764 C   0  0  0  0  0  0  0  0  0  0  0  0
    7.4099  -13.3309   20.4057 C   0  0  0  0  0  0  0  0  0  0  0  0
    8.3328  -14.3076   19.7032 C   0  0  2  0  0  0  0  0  0  0  0  0
    7.8053  -14.5943   18.3416 C   0  0  0  0  0  0  0  0  0  0  0  0
    8.5009  -15.5050   20.5951 C   0  0  2  0  0  0  0  0  0  0  0  0
    7.1667  -16.1287   20.6555 N   0  0  0  0  0  0  0  0  0  0  0  0
    8.8421  -15.1242   21.9913 C   0  0  0  0  0  0  0  0  0  0  0  0
    9.9574  -14.5935   22.2873 O   0  0  0  0  0  0  0  0  0  0  0  0
    5.1854  -11.4674   26.3145 C   0  0  0  0  0  0  0  0  0  0  0  0
    6.9568  -11.7827   26.3805 S   0  0  0  0  0  0  0  0  0  0  0  0
    7.3331  -13.5645   26.3973 C   0  0  0  0  0  0  0  0  0  0  0  0
    7.0725  -14.0833   25.0229 C   0  0  0  0  0  0  0  0  0  0  0  0
    8.2516  -14.8351   24.4253 C   0  0  2  0  0  0  0  0  0  0  0  0
    7.9678  -15.3149   23.1033 N   0  0  0  0  0  0  0  0  0  0  0  0
    8.7723  -15.8718   25.3251 C   0  0  0  0  0  0  0  0  0  0  0  0
    9.1698  -15.4911   26.4704 O   0  0  0  0  0  0  0  0  0  0  0  0
   13.7129  -14.9149   21.6385 N   0  0  0  0  0  0  0  0  0  0  0  0
   14.6524  -15.7604   22.2867 C   0  0  0  0  0  0  0  0  0  0  0  0
   15.8224  -15.3604   22.6276 N   0  0  0  0  0  0  0  0  0  0  0  0
   14.2677  -17.1031   22.5628 N   0  0  0  0  0  0  0  0  0  0  0  0
   12.8885  -17.5510   22.4578 C   0  0  0  0  0  0  0  0  0  0  0  0
   12.2125  -17.5793   23.7925 C   0  0  0  0  0  0  0  0  0  0  0  0
   10.8148  -18.0229   23.8479 C   0  0  0  0  0  0  0  0  0  0  0  0
   10.1206  -18.0295   25.1306 C   0  0  2  0  0  0  0  0  0  0  0  0
    8.8636  -17.2383   25.0207 N   0  0  0  0  0  0  0  0  0  0  0  0
   10.8175  -17.7228   26.3463 C   0  0  0  0  0  0  0  0  0  0  0  0
   10.9704  -18.5220   27.2934 O   0  0  0  0  0  0  0  0  0  0  0  0
   11.3840  -16.4505   26.5313 O   0  0  0  0  0  0  0  0  0  0  0  0
  2  1  1  0
  3  4  1  6
  3  2  1  0
  5  3  1  0
  5  6  1  1
  7  5  1  0
  7  8  2  0
  9 10  1  0
 10 11  1  0
 11 12  1  0
 13 12  1  1
 13 14  1  0
 14  7  1  0
 15 25  1  0
 15 13  1  0
 16 15  2  0
 17 18  1  0
 18 20  1  0
 19 18  2  0
 20 21  1  0
 21 22  1  0
 22 23  1  0
 24 23  1  6
 24 25  1  0
 24 26  1  0
 26 27  2  0
 26 28  1  0
M  END
$$$$
