IMR.pdb
     RDKit          3D

 28 27  0  0  1  0  0  0  0  0999 V2000
    6.8009  -18.9185   18.5741 C   0  0  0  0  0  0  0  0  0  0  0  0
    6.9010  -17.4571   18.8634 C   0  0  0  0  0  0  0  0  0  0  0  0
    7.4664  -17.1460   20.2355 C   0  0  2  0  0  0  0  0  0  0  0  0
    6.7832  -17.9882   21.2544 C   0  0  0  0  0  0  0  0  0  0  0  0
    7.3632  -15.6626   20.4505 C   0  0  2  0  0  0  0  0  0  0  0  0
    8.1571  -15.0612   19.3639 N   0  0  0  0  0  0  0  0  0  0  0  0
    8.0068  -15.2310   21.7195 C   0  0  0  0  0  0  0  0  0  0  0  0
    9.2692  -15.2168   21.8592 O   0  0  0  0  0  0  0  0  0  0  0  0
    6.6674  -10.5358   26.6037 C   0  0  0  0  0  0  0  0  0  0  0  0
    6.4421  -12.2181   27.2043 S   0  0  0  0  0  0  0  0  0  0  0  0
    7.5517  -13.3960   26.3687 C   0  0  0  0  0  0  0  0  0  0  0  0
    7.0385  -13.5758   24.9794 C   0  0  0  0  0  0  0  0  0  0  0  0
    7.9037  -14.4914   24.1276 C   0  0  2  0  0  0  0  0  0  0  0  0
    7.2826  -14.8020   22.8722 N   0  0  0  0  0  0  0  0  0  0  0  0
    8.3624  -15.6766   24.8629 C   0  0  0  0  0  0  0  0  0  0  0  0
    7.4840  -16.5481   25.1524 O   0  0  0  0  0  0  0  0  0  0  0  0
   15.0857  -17.0025   21.6514 N   0  0  0  0  0  0  0  0  0  0  0  0
   15.4811  -16.4961   22.9182 C   0  0  0  0  0  0  0  0  0  0  0  0
   16.5918  -15.8812   23.1008 N   0  0  0  0  0  0  0  0  0  0  0  0
   14.6007  -16.6855   24.0209 N   0  0  0  0  0  0  0  0  0  0  0  0
   13.3330  -17.3852   23.8888 C   0  0  0  0  0  0  0  0  0  0  0  0
   12.5252  -17.3094   25.1462 C   0  0  0  0  0  0  0  0  0  0  0  0
   11.1508  -17.8226   25.1144 C   0  0  0  0  0  0  0  0  0  0  0  0
   10.1303  -17.1751   25.9308 C   0  0  2  0  0  0  0  0  0  0  0  0
    9.6839  -15.9190   25.2665 N   0  0  0  0  0  0  0  0  0  0  0  0
   10.3324  -16.9707   27.3362 C   0  0  0  0  0  0  0  0  0  0  0  0
   10.3788  -15.8512   27.8874 O   0  0  0  0  0  0  0  0  0  0  0  0
   10.4941  -18.0732   28.1919 O   0  0  0  0  0  0  0  0  0  0  0  0
  2  1  1  0
  3  4  1  1
  3  2  1  0
  5  3  1  0
  5  6  1  6
  7  5  1  0
  7  8  2  0
  9 10  1  0
 10 11  1  0
 11 12  1  0
 13 12  1  1
 13 14  1  0
 14  7  1  0
 15 25  1  0
 15 13  1  0
 16 15  2  0
 17 18  1  0
 18 20  1  0
 19 18  2  0
 20 21  1  0
 21 22  1  0
 22 23  1  0
 24 23  1  6
 24 25  1  0
 24 26  1  0
 26 27  2  0
 26 28  1  0
M  END
$$$$
