IMR.pdb
     RDKit          3D

 28 27  0  0  1  0  0  0  0  0999 V2000
    6.3274  -22.9195   24.8420 C   0  0  0  0  0  0  0  0  0  0  0  0
    5.5877  -21.6832   24.4497 C   0  0  0  0  0  0  0  0  0  0  0  0
    6.4680  -20.4524   24.3534 C   0  0  2  0  0  0  0  0  0  0  0  0
    7.3134  -20.3525   25.5740 C   0  0  0  0  0  0  0  0  0  0  0  0
    5.5796  -19.2707   24.0858 C   0  0  2  0  0  0  0  0  0  0  0  0
    4.9504  -19.5511   22.7827 N   0  0  0  0  0  0  0  0  0  0  0  0
    6.3529  -18.0131   23.9086 C   0  0  0  0  0  0  0  0  0  0  0  0
    7.0865  -17.8156   22.8907 O   0  0  0  0  0  0  0  0  0  0  0  0
    6.8982  -12.4111   28.2665 C   0  0  0  0  0  0  0  0  0  0  0  0
    6.7174  -12.1111   26.5004 S   0  0  0  0  0  0  0  0  0  0  0  0
    7.5248  -13.4027   25.5021 C   0  0  0  0  0  0  0  0  0  0  0  0
    6.6398  -14.6034   25.5352 C   0  0  0  0  0  0  0  0  0  0  0  0
    7.1736  -15.7721   24.7218 C   0  0  2  0  0  0  0  0  0  0  0  0
    6.3427  -16.9353   24.8443 N   0  0  0  0  0  0  0  0  0  0  0  0
    8.5939  -16.0372   24.9829 C   0  0  0  0  0  0  0  0  0  0  0  0
    8.8790  -16.6066   26.0826 O   0  0  0  0  0  0  0  0  0  0  0  0
   16.0469  -14.6090   21.8220 N   0  0  0  0  0  0  0  0  0  0  0  0
   16.3203  -16.0021   21.8684 C   0  0  0  0  0  0  0  0  0  0  0  0
   17.5019  -16.4693   22.0437 N   0  0  0  0  0  0  0  0  0  0  0  0
   15.2307  -16.9052   21.7122 N   0  0  0  0  0  0  0  0  0  0  0  0
   13.8529  -16.4491   21.6260 C   0  0  0  0  0  0  0  0  0  0  0  0
   13.1731  -16.4858   22.9586 C   0  0  0  0  0  0  0  0  0  0  0  0
   11.7660  -16.0750   23.0262 C   0  0  0  0  0  0  0  0  0  0  0  0
   11.0405  -16.2244   24.2826 C   0  0  2  0  0  0  0  0  0  0  0  0
    9.6511  -15.7136   24.1193 N   0  0  0  0  0  0  0  0  0  0  0  0
   11.6116  -15.7767   25.5200 C   0  0  0  0  0  0  0  0  0  0  0  0
   11.3332  -14.6935   26.0752 O   0  0  0  0  0  0  0  0  0  0  0  0
   12.5524  -16.5758   26.1911 O   0  0  0  0  0  0  0  0  0  0  0  0
  2  1  1  0
  3  4  1  1
  3  2  1  0
  5  3  1  0
  5  6  1  6
  7  5  1  0
  7  8  2  0
  9 10  1  0
 10 11  1  0
 11 12  1  0
 13 12  1  1
 13 14  1  0
 14  7  1  0
 15 25  1  0
 15 13  1  0
 16 15  2  0
 17 18  1  0
 18 20  1  0
 19 18  2  0
 20 21  1  0
 21 22  1  0
 22 23  1  0
 24 23  1  6
 24 25  1  0
 24 26  1  0
 26 27  2  0
 26 28  1  0
M  END
$$$$
