IMR.pdb
     RDKit          3D

 28 27  0  0  1  0  0  0  0  0999 V2000
    8.0833  -15.0276   16.8134 C   0  0  0  0  0  0  0  0  0  0  0  0
    7.8561  -13.9865   17.8592 C   0  0  0  0  0  0  0  0  0  0  0  0
    8.2490  -14.4303   19.2548 C   0  0  2  0  0  0  0  0  0  0  0  0
    7.7241  -15.8003   19.5041 C   0  0  0  0  0  0  0  0  0  0  0  0
    7.7859  -13.3766   20.2206 C   0  0  2  0  0  0  0  0  0  0  0  0
    8.4221  -12.1289   19.7611 N   0  0  0  0  0  0  0  0  0  0  0  0
    8.2910  -13.6143   21.5987 C   0  0  0  0  0  0  0  0  0  0  0  0
    9.5171  -13.4698   21.8970 O   0  0  0  0  0  0  0  0  0  0  0  0
    6.6434  -12.1228   27.9742 C   0  0  0  0  0  0  0  0  0  0  0  0
    5.5127  -12.2600   26.5797 S   0  0  0  0  0  0  0  0  0  0  0  0
    6.3919  -12.5728   25.0158 C   0  0  0  0  0  0  0  0  0  0  0  0
    6.9218  -13.9660   25.0788 C   0  0  0  0  0  0  0  0  0  0  0  0
    7.9625  -14.2673   24.0116 C   0  0  2  0  0  0  0  0  0  0  0  0
    7.4638  -14.0173   22.6898 N   0  0  0  0  0  0  0  0  0  0  0  0
    8.5610  -15.5987   24.1694 C   0  0  0  0  0  0  0  0  0  0  0  0
    7.7686  -16.5917   24.1384 O   0  0  0  0  0  0  0  0  0  0  0  0
   14.1909  -14.5947   21.1880 N   0  0  0  0  0  0  0  0  0  0  0  0
   13.3068  -14.8782   20.1130 C   0  0  0  0  0  0  0  0  0  0  0  0
   13.1868  -14.1074   19.0949 N   0  0  0  0  0  0  0  0  0  0  0  0
   12.5281  -16.0683   20.1809 N   0  0  0  0  0  0  0  0  0  0  0  0
   12.5988  -16.9767   21.3138 C   0  0  0  0  0  0  0  0  0  0  0  0
   11.5402  -16.6792   22.3288 C   0  0  0  0  0  0  0  0  0  0  0  0
   11.5174  -17.4825   23.5566 C   0  0  0  0  0  0  0  0  0  0  0  0
   10.4935  -17.2183   24.5611 C   0  0  2  0  0  0  0  0  0  0  0  0
    9.9281  -15.8568   24.3498 N   0  0  0  0  0  0  0  0  0  0  0  0
   10.7472  -17.4603   25.9521 C   0  0  0  0  0  0  0  0  0  0  0  0
   11.2033  -18.5281   26.4113 O   0  0  0  0  0  0  0  0  0  0  0  0
   10.4807  -16.4591   26.9010 O   0  0  0  0  0  0  0  0  0  0  0  0
  2  1  1  0
  3  4  1  1
  3  2  1  0
  5  3  1  0
  5  6  1  6
  7  5  1  0
  7  8  2  0
  9 10  1  0
 10 11  1  0
 11 12  1  0
 13 12  1  1
 13 14  1  0
 14  7  1  0
 15 25  1  0
 15 13  1  0
 16 15  2  0
 17 18  1  0
 18 20  1  0
 19 18  2  0
 20 21  1  0
 21 22  1  0
 22 23  1  0
 24 23  1  6
 24 25  1  0
 24 26  1  0
 26 27  2  0
 26 28  1  0
M  END
$$$$
