IMR.pdb
     RDKit          3D

 28 27  0  0  1  0  0  0  0  0999 V2000
    6.6621  -12.4159   17.5907 C   0  0  0  0  0  0  0  0  0  0  0  0
    6.6191  -13.6256   18.4649 C   0  0  0  0  0  0  0  0  0  0  0  0
    7.2125  -13.4021   19.8422 C   0  0  2  0  0  0  0  0  0  0  0  0
    8.5982  -12.8775   19.7044 C   0  0  0  0  0  0  0  0  0  0  0  0
    7.0823  -14.6849   20.6134 C   0  0  2  0  0  0  0  0  0  0  0  0
    5.6595  -15.0548   20.5053 N   0  0  0  0  0  0  0  0  0  0  0  0
    7.3516  -14.5002   22.0639 C   0  0  0  0  0  0  0  0  0  0  0  0
    6.7459  -13.6203   22.7510 O   0  0  0  0  0  0  0  0  0  0  0  0
    9.1180  -12.3555   27.5630 C   0  0  0  0  0  0  0  0  0  0  0  0
    7.6963  -12.8226   26.5618 S   0  0  0  0  0  0  0  0  0  0  0  0
    7.5078  -14.6301   26.4445 C   0  0  0  0  0  0  0  0  0  0  0  0
    7.2749  -14.9570   25.0076 C   0  0  0  0  0  0  0  0  0  0  0  0
    8.5570  -15.0851   24.1998 C   0  0  2  0  0  0  0  0  0  0  0  0
    8.2942  -15.2771   22.8025 N   0  0  0  0  0  0  0  0  0  0  0  0
    9.4804  -16.0777   24.7636 C   0  0  0  0  0  0  0  0  0  0  0  0
    9.1207  -16.6504   25.8394 O   0  0  0  0  0  0  0  0  0  0  0  0
   14.5179  -15.3497   20.9194 N   0  0  0  0  0  0  0  0  0  0  0  0
   15.6638  -15.0809   21.7145 C   0  0  0  0  0  0  0  0  0  0  0  0
   16.5269  -14.1847   21.4027 N   0  0  0  0  0  0  0  0  0  0  0  0
   15.8504  -15.8438   22.9020 N   0  0  0  0  0  0  0  0  0  0  0  0
   15.0731  -17.0396   23.1846 C   0  0  0  0  0  0  0  0  0  0  0  0
   14.3594  -16.9389   24.4961 C   0  0  0  0  0  0  0  0  0  0  0  0
   13.0917  -16.2008   24.5361 C   0  0  0  0  0  0  0  0  0  0  0  0
   11.8912  -16.8740   25.0185 C   0  0  2  0  0  0  0  0  0  0  0  0
   10.7178  -16.4397   24.2106 N   0  0  0  0  0  0  0  0  0  0  0  0
   11.5728  -16.8986   26.4170 C   0  0  0  0  0  0  0  0  0  0  0  0
   11.1505  -15.9167   27.0624 O   0  0  0  0  0  0  0  0  0  0  0  0
   11.7300  -18.0844   27.1541 O   0  0  0  0  0  0  0  0  0  0  0  0
  2  1  1  0
  3  4  1  6
  3  2  1  0
  5  3  1  0
  5  6  1  1
  7  5  1  0
  7  8  2  0
  9 10  1  0
 10 11  1  0
 11 12  1  0
 13 12  1  1
 13 14  1  0
 14  7  1  0
 15 25  1  0
 15 13  1  0
 16 15  2  0
 17 18  1  0
 18 20  1  0
 19 18  2  0
 20 21  1  0
 21 22  1  0
 22 23  1  0
 24 23  1  1
 24 25  1  0
 24 26  1  0
 26 27  2  0
 26 28  1  0
M  END
$$$$
