QIA.pdb
     RDKit          3D

 23 22  0  0  1  0  0  0  0  0999 V2000
   19.9972  -11.2337  -20.0163 N   0  0  0  0  0  0  0  0  0  0  0  0
   18.7477  -11.5598  -20.5970 C   0  0  0  0  0  0  0  0  0  0  0  0
   18.7174  -12.1892  -21.6708 O   0  0  0  0  0  0  0  0  0  0  0  0
   17.5128  -11.1462  -19.9252 C   0  0  0  0  0  0  0  0  0  0  0  0
   17.7791  -10.3561  -18.6966 C   0  0  0  0  0  0  0  0  0  0  0  0
   18.1538  -11.1774  -17.5216 C   0  0  2  0  0  0  0  0  0  0  0  0
   17.2286  -12.1273  -17.0344 N   0  0  0  0  0  0  0  0  0  0  0  0
   18.6759  -10.2619  -16.4686 C   0  0  0  0  0  0  0  0  0  0  0  0
   17.8972  -10.0123  -15.5039 O   0  0  0  0  0  0  0  0  0  0  0  0
   23.3877  -10.8188  -14.2287 C   0  0  0  0  0  0  0  0  0  0  0  0
   21.9294  -10.5866  -14.5686 C   0  0  0  0  0  0  0  0  0  0  0  0
   21.7804   -9.1278  -14.9205 C   0  0  2  0  0  0  0  0  0  0  0  0
   22.1805   -8.2261  -13.7659 C   0  0  0  0  0  0  0  0  0  0  0  0
   20.3977   -8.7808  -15.3984 C   0  0  2  0  0  0  0  0  0  0  0  0
   19.9480   -9.6623  -16.4638 N   0  0  0  0  0  0  0  0  0  0  0  0
   20.4464   -7.3577  -15.8887 C   0  0  0  0  0  0  0  0  0  0  0  0
   21.2382   -7.0383  -16.8114 O   0  0  0  0  0  0  0  0  0  0  0  0
   18.2293   -4.3373  -15.5730 C   0  0  0  0  0  0  0  0  0  0  0  0
   19.5590   -5.0004  -15.8617 C   0  0  2  0  0  0  0  0  0  0  0  0
   19.6236   -6.3432  -15.3460 N   0  0  0  0  0  0  0  0  0  0  0  0
   20.7077   -4.1723  -15.4643 C   0  0  0  0  0  0  0  0  0  0  0  0
   21.2844   -4.4057  -14.3819 O   0  0  0  0  0  0  0  0  0  0  0  0
   21.1735   -3.1401  -16.2504 O   0  0  0  0  0  0  0  0  0  0  0  0
  2  1  1  0
  2  3  2  0
  4  5  1  0
  4  2  1  0
  5  6  1  0
  6  7  1  1
  8  6  1  0
  8  9  2  0
 10 11  1  0
 11 12  1  0
 12 13  1  1
 12 14  1  0
 14 15  1  6
 14 16  1  0
 15  8  1  0
 16 20  1  0
 17 16  2  0
 19 18  1  1
 19 21  1  0
 20 19  1  0
 21 22  2  0
 21 23  1  0
M  END
$$$$
