QIA.pdb
     RDKit          3D

 23 22  0  0  1  0  0  0  0  0999 V2000
   21.1180  -14.2943  -16.6228 N   0  0  0  0  0  0  0  0  0  0  0  0
   20.1210  -14.6634  -17.5580 C   0  0  0  0  0  0  0  0  0  0  0  0
   20.1615  -15.7919  -18.0824 O   0  0  0  0  0  0  0  0  0  0  0  0
   19.0621  -13.7081  -17.8948 C   0  0  0  0  0  0  0  0  0  0  0  0
   19.1953  -12.4340  -17.1441 C   0  0  0  0  0  0  0  0  0  0  0  0
   20.0926  -11.4464  -17.7880 C   0  0  2  0  0  0  0  0  0  0  0  0
   20.8882  -11.8619  -18.8790 N   0  0  0  0  0  0  0  0  0  0  0  0
   20.8664  -10.7605  -16.7154 C   0  0  0  0  0  0  0  0  0  0  0  0
   20.2278  -10.4596  -15.6661 O   0  0  0  0  0  0  0  0  0  0  0  0
   26.1430  -11.6175  -15.5019 C   0  0  0  0  0  0  0  0  0  0  0  0
   24.6443  -11.4197  -15.3975 C   0  0  0  0  0  0  0  0  0  0  0  0
   24.3676   -9.9612  -15.6626 C   0  0  2  0  0  0  0  0  0  0  0  0
   25.0389   -9.0649  -14.6368 C   0  0  0  0  0  0  0  0  0  0  0  0
   22.8987   -9.6512  -15.7444 C   0  0  2  0  0  0  0  0  0  0  0  0
   22.2310  -10.4263  -16.7778 N   0  0  0  0  0  0  0  0  0  0  0  0
   22.7758   -8.1795  -16.0392 C   0  0  0  0  0  0  0  0  0  0  0  0
   23.2267   -7.7153  -17.1170 O   0  0  0  0  0  0  0  0  0  0  0  0
   20.5602   -5.4741  -15.5850 C   0  0  0  0  0  0  0  0  0  0  0  0
   22.0089   -5.8686  -15.3937 C   0  0  2  0  0  0  0  0  0  0  0  0
   22.1628   -7.2773  -15.1386 N   0  0  0  0  0  0  0  0  0  0  0  0
   22.7055   -5.0235  -14.4119 C   0  0  0  0  0  0  0  0  0  0  0  0
   22.8919   -5.4562  -13.2557 O   0  0  0  0  0  0  0  0  0  0  0  0
   23.1632   -3.7615  -14.7255 O   0  0  0  0  0  0  0  0  0  0  0  0
  2  1  1  0
  2  3  2  0
  4  5  1  0
  4  2  1  0
  5  6  1  0
  6  7  1  6
  8  6  1  0
  8  9  2  0
 10 11  1  0
 11 12  1  0
 12 13  1  1
 12 14  1  0
 14 15  1  6
 14 16  1  0
 15  8  1  0
 16 20  1  0
 17 16  2  0
 19 18  1  1
 19 21  1  0
 20 19  1  0
 21 22  2  0
 21 23  1  0
M  END
$$$$
