QIA.pdb
     RDKit          3D

 23 22  0  0  1  0  0  0  0  0999 V2000
   19.0499  -14.2730  -17.0606 N   0  0  0  0  0  0  0  0  0  0  0  0
   17.8937  -14.3102  -16.2441 C   0  0  0  0  0  0  0  0  0  0  0  0
   17.3044  -15.3924  -16.0665 O   0  0  0  0  0  0  0  0  0  0  0  0
   17.4093  -13.0726  -15.6266 C   0  0  0  0  0  0  0  0  0  0  0  0
   18.2624  -11.9051  -15.9642 C   0  0  0  0  0  0  0  0  0  0  0  0
   17.7673  -10.6195  -15.4189 C   0  0  2  0  0  0  0  0  0  0  0  0
   16.4194  -10.2608  -15.6436 N   0  0  0  0  0  0  0  0  0  0  0  0
   18.7372   -9.5547  -15.7998 C   0  0  0  0  0  0  0  0  0  0  0  0
   19.9627   -9.8569  -15.7235 O   0  0  0  0  0  0  0  0  0  0  0  0
   17.1770   -6.6556  -19.3471 C   0  0  0  0  0  0  0  0  0  0  0  0
   18.5866   -7.0533  -18.9584 C   0  0  0  0  0  0  0  0  0  0  0  0
   18.9127   -6.3383  -17.6714 C   0  0  2  0  0  0  0  0  0  0  0  0
   19.9099   -5.2138  -17.8886 C   0  0  0  0  0  0  0  0  0  0  0  0
   19.4008   -7.2675  -16.5948 C   0  0  2  0  0  0  0  0  0  0  0  0
   18.4012   -8.2589  -16.2310 N   0  0  0  0  0  0  0  0  0  0  0  0
   19.7446   -6.4156  -15.4015 C   0  0  0  0  0  0  0  0  0  0  0  0
   18.8527   -5.7278  -14.8433 O   0  0  0  0  0  0  0  0  0  0  0  0
   22.3449   -6.4392  -12.7851 C   0  0  0  0  0  0  0  0  0  0  0  0
   21.3971   -5.6491  -13.6618 C   0  0  2  0  0  0  0  0  0  0  0  0
   21.0537   -6.3538  -14.8696 N   0  0  0  0  0  0  0  0  0  0  0  0
   21.8578   -4.2738  -13.9055 C   0  0  0  0  0  0  0  0  0  0  0  0
   22.2731   -3.9602  -15.0404 O   0  0  0  0  0  0  0  0  0  0  0  0
   21.8472   -3.3118  -12.9182 O   0  0  0  0  0  0  0  0  0  0  0  0
  2  1  1  0
  2  3  2  0
  4  5  1  0
  4  2  1  0
  5  6  1  0
  6  7  1  6
  8  6  1  0
  8  9  2  0
 10 11  1  0
 11 12  1  0
 12 13  1  6
 12 14  1  0
 14 15  1  1
 14 16  1  0
 15  8  1  0
 16 20  1  0
 17 16  2  0
 19 18  1  6
 19 21  1  0
 20 19  1  0
 21 22  2  0
 21 23  1  0
M  END
$$$$
