QIA.pdb
     RDKit          3D

 23 22  0  0  1  0  0  0  0  0999 V2000
   20.5929   -9.2149  -21.2751 N   0  0  0  0  0  0  0  0  0  0  0  0
   19.2234   -9.5713  -21.3234 C   0  0  0  0  0  0  0  0  0  0  0  0
   18.7019   -9.8502  -22.4190 O   0  0  0  0  0  0  0  0  0  0  0  0
   18.4439   -9.6008  -20.0829 C   0  0  0  0  0  0  0  0  0  0  0  0
   19.2568   -9.2222  -18.8995 C   0  0  0  0  0  0  0  0  0  0  0  0
   19.3444  -10.2798  -17.8654 C   0  0  2  0  0  0  0  0  0  0  0  0
   18.1478  -10.8087  -17.3322 N   0  0  0  0  0  0  0  0  0  0  0  0
   20.3094   -9.8265  -16.8249 C   0  0  0  0  0  0  0  0  0  0  0  0
   19.8295   -9.5840  -15.6803 O   0  0  0  0  0  0  0  0  0  0  0  0
   23.2142  -11.7496  -14.5570 C   0  0  0  0  0  0  0  0  0  0  0  0
   23.7829  -11.4159  -15.9213 C   0  0  0  0  0  0  0  0  0  0  0  0
   23.9100   -9.9152  -15.9964 C   0  0  2  0  0  0  0  0  0  0  0  0
   24.8309   -9.3731  -14.9173 C   0  0  0  0  0  0  0  0  0  0  0  0
   22.5810   -9.2136  -15.9486 C   0  0  2  0  0  0  0  0  0  0  0  0
   21.6918   -9.6497  -17.0134 N   0  0  0  0  0  0  0  0  0  0  0  0
   22.8578   -7.7388  -16.0757 C   0  0  0  0  0  0  0  0  0  0  0  0
   23.4453   -7.2957  -17.0949 O   0  0  0  0  0  0  0  0  0  0  0  0
   21.9283   -4.6236  -14.1116 C   0  0  0  0  0  0  0  0  0  0  0  0
   22.6559   -5.3865  -15.1976 C   0  0  2  0  0  0  0  0  0  0  0  0
   22.4780   -6.8103  -15.0784 N   0  0  0  0  0  0  0  0  0  0  0  0
   24.0658   -4.9885  -15.3278 C   0  0  0  0  0  0  0  0  0  0  0  0
   24.9435   -5.6418  -14.7265 O   0  0  0  0  0  0  0  0  0  0  0  0
   24.4553   -3.9120  -16.0958 O   0  0  0  0  0  0  0  0  0  0  0  0
  2  1  1  0
  2  3  2  0
  4  5  1  0
  4  2  1  0
  5  6  1  0
  6  7  1  1
  8  6  1  0
  8  9  2  0
 10 11  1  0
 11 12  1  0
 12 13  1  1
 12 14  1  0
 14 15  1  6
 14 16  1  0
 15  8  1  0
 16 20  1  0
 17 16  2  0
 19 18  1  1
 19 21  1  0
 20 19  1  0
 21 22  2  0
 21 23  1  0
M  END
$$$$
