QIA.pdb
     RDKit          3D

 23 22  0  0  1  0  0  0  0  0999 V2000
   22.6622  -18.9777  -15.3153 N   0  0  0  0  0  0  0  0  0  0  0  0
   21.8135  -18.3524  -16.2606 C   0  0  0  0  0  0  0  0  0  0  0  0
   20.8730  -18.9977  -16.7597 O   0  0  0  0  0  0  0  0  0  0  0  0
   22.0608  -16.9580  -16.6373 C   0  0  0  0  0  0  0  0  0  0  0  0
   23.2449  -16.3904  -15.9442 C   0  0  0  0  0  0  0  0  0  0  0  0
   24.1228  -15.5781  -16.8188 C   0  0  2  0  0  0  0  0  0  0  0  0
   25.2306  -16.2010  -17.4357 N   0  0  0  0  0  0  0  0  0  0  0  0
   24.4752  -14.3304  -16.0848 C   0  0  0  0  0  0  0  0  0  0  0  0
   24.9687  -14.4777  -14.9298 O   0  0  0  0  0  0  0  0  0  0  0  0
   27.9629   -9.8697  -15.8189 C   0  0  0  0  0  0  0  0  0  0  0  0
   26.5490  -10.1935  -15.3808 C   0  0  0  0  0  0  0  0  0  0  0  0
   26.1094  -11.4097  -16.1566 C   0  0  2  0  0  0  0  0  0  0  0  0
   26.2466  -11.2023  -17.6547 C   0  0  0  0  0  0  0  0  0  0  0  0
   24.7112  -11.8453  -15.8162 C   0  0  2  0  0  0  0  0  0  0  0  0
   24.3043  -13.0211  -16.5688 N   0  0  0  0  0  0  0  0  0  0  0  0
   23.8012  -10.6874  -16.1314 C   0  0  0  0  0  0  0  0  0  0  0  0
   23.5509  -10.3930  -17.3276 O   0  0  0  0  0  0  0  0  0  0  0  0
   21.4304   -8.4965  -14.1673 C   0  0  0  0  0  0  0  0  0  0  0  0
   22.2731   -8.8316  -15.3792 C   0  0  2  0  0  0  0  0  0  0  0  0
   23.2029   -9.8999  -15.1201 N   0  0  0  0  0  0  0  0  0  0  0  0
   22.9054   -7.6472  -15.9797 C   0  0  0  0  0  0  0  0  0  0  0  0
   24.1322   -7.4681  -15.8320 O   0  0  0  0  0  0  0  0  0  0  0  0
   22.1864   -6.7212  -16.7048 O   0  0  0  0  0  0  0  0  0  0  0  0
  2  1  1  0
  2  3  2  0
  4  5  1  0
  4  2  1  0
  5  6  1  0
  6  7  1  1
  8  6  1  0
  8  9  2  0
 10 11  1  0
 11 12  1  0
 12 13  1  6
 12 14  1  0
 14 15  1  6
 14 16  1  0
 15  8  1  0
 16 20  1  0
 17 16  2  0
 19 18  1  1
 19 21  1  0
 20 19  1  0
 21 22  2  0
 21 23  1  0
M  END
$$$$
