QIA.pdb
     RDKit          3D

 23 22  0  0  1  0  0  0  0  0999 V2000
   21.5073  -15.2926  -16.3917 N   0  0  0  0  0  0  0  0  0  0  0  0
   20.3868  -16.0207  -15.9235 C   0  0  0  0  0  0  0  0  0  0  0  0
   20.5523  -17.1586  -15.4462 O   0  0  0  0  0  0  0  0  0  0  0  0
   19.0519  -15.4228  -16.0137 C   0  0  0  0  0  0  0  0  0  0  0  0
   19.0794  -14.0799  -16.6465 C   0  0  0  0  0  0  0  0  0  0  0  0
   17.7437  -13.4558  -16.7937 C   0  0  2  0  0  0  0  0  0  0  0  0
   16.7394  -14.1590  -17.4956 N   0  0  0  0  0  0  0  0  0  0  0  0
   17.9393  -12.0598  -17.2757 C   0  0  0  0  0  0  0  0  0  0  0  0
   18.0692  -11.9091  -18.5245 O   0  0  0  0  0  0  0  0  0  0  0  0
   16.4881   -7.3399  -18.7490 C   0  0  0  0  0  0  0  0  0  0  0  0
   17.0039   -7.3459  -17.3242 C   0  0  0  0  0  0  0  0  0  0  0  0
   16.8708   -8.7564  -16.8077 C   0  0  2  0  0  0  0  0  0  0  0  0
   16.4474   -8.7848  -15.3496 C   0  0  0  0  0  0  0  0  0  0  0  0
   18.1196   -9.5703  -17.0041 C   0  0  2  0  0  0  0  0  0  0  0  0
   17.9900  -10.9136  -16.4624 N   0  0  0  0  0  0  0  0  0  0  0  0
   19.2363   -8.8366  -16.3093 C   0  0  0  0  0  0  0  0  0  0  0  0
   19.2655   -8.7813  -15.0538 O   0  0  0  0  0  0  0  0  0  0  0  0
   22.4117   -7.0508  -17.4088 C   0  0  0  0  0  0  0  0  0  0  0  0
   21.4298   -7.6014  -16.3969 C   0  0  2  0  0  0  0  0  0  0  0  0
   20.2754   -8.1934  -17.0215 N   0  0  0  0  0  0  0  0  0  0  0  0
   21.0855   -6.6292  -15.3484 C   0  0  0  0  0  0  0  0  0  0  0  0
   20.1505   -5.8250  -15.5435 O   0  0  0  0  0  0  0  0  0  0  0  0
   21.7633   -6.5739  -14.1493 O   0  0  0  0  0  0  0  0  0  0  0  0
  2  1  1  0
  2  3  2  0
  4  5  1  0
  4  2  1  0
  5  6  1  0
  6  7  1  6
  8  6  1  0
  8  9  2  0
 10 11  1  0
 11 12  1  0
 12 13  1  1
 12 14  1  0
 14 15  1  1
 14 16  1  0
 15  8  1  0
 16 20  1  0
 17 16  2  0
 19 18  1  6
 19 21  1  0
 20 19  1  0
 21 22  2  0
 21 23  1  0
M  END
$$$$
