QIA.pdb
     RDKit          3D

 23 22  0  0  1  0  0  0  0  0999 V2000
   18.6619  -10.0852  -22.0206 N   0  0  0  0  0  0  0  0  0  0  0  0
   19.0209  -11.4418  -22.2091 C   0  0  0  0  0  0  0  0  0  0  0  0
   18.8629  -11.9671  -23.3268 O   0  0  0  0  0  0  0  0  0  0  0  0
   19.5678  -12.2041  -21.0834 C   0  0  0  0  0  0  0  0  0  0  0  0
   19.6570  -11.3904  -19.8445 C   0  0  0  0  0  0  0  0  0  0  0  0
   20.2896  -12.0953  -18.7051 C   0  0  2  0  0  0  0  0  0  0  0  0
   19.8378  -13.3921  -18.3736 N   0  0  0  0  0  0  0  0  0  0  0  0
   20.3177  -11.1610  -17.5450 C   0  0  0  0  0  0  0  0  0  0  0  0
   19.3530  -11.2453  -16.7316 O   0  0  0  0  0  0  0  0  0  0  0  0
   22.1458  -11.0783  -13.7540 C   0  0  0  0  0  0  0  0  0  0  0  0
   23.0033  -10.6985  -14.9442 C   0  0  0  0  0  0  0  0  0  0  0  0
   22.5781   -9.3182  -15.3777 C   0  0  2  0  0  0  0  0  0  0  0  0
   22.5015   -8.3577  -14.2040 C   0  0  0  0  0  0  0  0  0  0  0  0
   21.2802   -9.3187  -16.1368 C   0  0  2  0  0  0  0  0  0  0  0  0
   21.3181  -10.2067  -17.2878 N   0  0  0  0  0  0  0  0  0  0  0  0
   21.0315   -7.9020  -16.5830 C   0  0  0  0  0  0  0  0  0  0  0  0
   21.8665   -7.3203  -17.3210 O   0  0  0  0  0  0  0  0  0  0  0  0
   18.1474   -5.4482  -16.3661 C   0  0  0  0  0  0  0  0  0  0  0  0
   19.5832   -5.8418  -16.6395 C   0  0  2  0  0  0  0  0  0  0  0  0
   19.8758   -7.1816  -16.2006 N   0  0  0  0  0  0  0  0  0  0  0  0
   20.5504   -4.8482  -16.1492 C   0  0  0  0  0  0  0  0  0  0  0  0
   20.7643   -3.8190  -16.8228 O   0  0  0  0  0  0  0  0  0  0  0  0
   21.2342   -5.0142  -14.9637 O   0  0  0  0  0  0  0  0  0  0  0  0
  2  1  1  0
  2  3  2  0
  4  5  1  0
  4  2  1  0
  5  6  1  0
  6  7  1  1
  8  6  1  0
  8  9  2  0
 10 11  1  0
 11 12  1  0
 12 13  1  1
 12 14  1  0
 14 15  1  6
 14 16  1  0
 15  8  1  0
 16 20  1  0
 17 16  2  0
 19 18  1  1
 19 21  1  0
 20 19  1  0
 21 22  2  0
 21 23  1  0
M  END
$$$$
