QIA.pdb
     RDKit          3D

 23 22  0  0  1  0  0  0  0  0999 V2000
   19.2683  -10.2148  -20.1814 N   0  0  0  0  0  0  0  0  0  0  0  0
   17.8796  -10.3358  -20.4299 C   0  0  0  0  0  0  0  0  0  0  0  0
   17.4893  -10.7294  -21.5446 O   0  0  0  0  0  0  0  0  0  0  0  0
   16.9270   -9.9907  -19.3711 C   0  0  0  0  0  0  0  0  0  0  0  0
   17.6052   -9.5235  -18.1357 C   0  0  0  0  0  0  0  0  0  0  0  0
   18.0576  -10.6185  -17.2458 C   0  0  2  0  0  0  0  0  0  0  0  0
   17.1109  -11.5698  -16.8047 N   0  0  0  0  0  0  0  0  0  0  0  0
   18.8521  -10.0137  -16.1402 C   0  0  0  0  0  0  0  0  0  0  0  0
   18.2670   -9.8986  -15.0250 O   0  0  0  0  0  0  0  0  0  0  0  0
   23.6036  -11.7394  -14.8154 C   0  0  0  0  0  0  0  0  0  0  0  0
   22.1857  -11.2139  -14.9118 C   0  0  0  0  0  0  0  0  0  0  0  0
   22.2700   -9.7089  -14.9556 C   0  0  2  0  0  0  0  0  0  0  0  0
   23.0026   -9.1503  -13.7484 C   0  0  0  0  0  0  0  0  0  0  0  0
   20.9248   -9.0528  -15.0990 C   0  0  2  0  0  0  0  0  0  0  0  0
   20.1820   -9.5672  -16.2384 N   0  0  0  0  0  0  0  0  0  0  0  0
   21.1713   -7.5764  -15.2646 C   0  0  0  0  0  0  0  0  0  0  0  0
   21.9193   -7.1643  -16.1871 O   0  0  0  0  0  0  0  0  0  0  0  0
   19.6051   -4.3798  -14.1433 C   0  0  0  0  0  0  0  0  0  0  0  0
   20.8238   -5.1963  -14.5166 C   0  0  2  0  0  0  0  0  0  0  0  0
   20.5865   -6.6125  -14.4104 N   0  0  0  0  0  0  0  0  0  0  0  0
   22.0402   -4.7593  -13.8147 C   0  0  0  0  0  0  0  0  0  0  0  0
   22.3951   -5.3560  -12.7771 O   0  0  0  0  0  0  0  0  0  0  0  0
   22.8079   -3.7067  -14.2653 O   0  0  0  0  0  0  0  0  0  0  0  0
  2  1  1  0
  2  3  2  0
  4  5  1  0
  4  2  1  0
  5  6  1  0
  6  7  1  1
  8  6  1  0
  8  9  2  0
 10 11  1  0
 11 12  1  0
 12 13  1  1
 12 14  1  0
 14 15  1  6
 14 16  1  0
 15  8  1  0
 16 20  1  0
 17 16  2  0
 19 18  1  1
 19 21  1  0
 20 19  1  0
 21 22  2  0
 21 23  1  0
M  END
$$$$
