QIA.pdb
     RDKit          3D

 23 22  0  0  1  0  0  0  0  0999 V2000
   18.8147  -14.1114  -20.0923 N   0  0  0  0  0  0  0  0  0  0  0  0
   19.3196  -13.5140  -21.2726 C   0  0  0  0  0  0  0  0  0  0  0  0
   19.0284  -14.0041  -22.3794 O   0  0  0  0  0  0  0  0  0  0  0  0
   20.1798  -12.3322  -21.1691 C   0  0  0  0  0  0  0  0  0  0  0  0
   20.3948  -11.9155  -19.7603 C   0  0  0  0  0  0  0  0  0  0  0  0
   21.6743  -12.3875  -19.1810 C   0  0  2  0  0  0  0  0  0  0  0  0
   21.9316  -13.7762  -19.1442 N   0  0  0  0  0  0  0  0  0  0  0  0
   21.8596  -11.7136  -17.8654 C   0  0  0  0  0  0  0  0  0  0  0  0
   21.2523  -12.2251  -16.8811 O   0  0  0  0  0  0  0  0  0  0  0  0
   26.4281  -10.8142  -15.6020 C   0  0  0  0  0  0  0  0  0  0  0  0
   24.9782  -11.1260  -15.9128 C   0  0  0  0  0  0  0  0  0  0  0  0
   24.2326   -9.8153  -15.9225 C   0  0  2  0  0  0  0  0  0  0  0  0
   24.3379   -9.0972  -14.5885 C   0  0  0  0  0  0  0  0  0  0  0  0
   22.7907   -9.9669  -16.3208 C   0  0  2  0  0  0  0  0  0  0  0  0
   22.6452  -10.5699  -17.6360 N   0  0  0  0  0  0  0  0  0  0  0  0
   22.1852   -8.5880  -16.3129 C   0  0  0  0  0  0  0  0  0  0  0  0
   22.6585   -7.6901  -17.0545 O   0  0  0  0  0  0  0  0  0  0  0  0
   19.0618   -6.9750  -14.9437 C   0  0  0  0  0  0  0  0  0  0  0  0
   20.4907   -6.9403  -15.4417 C   0  0  2  0  0  0  0  0  0  0  0  0
   21.0845   -8.2511  -15.4909 N   0  0  0  0  0  0  0  0  0  0  0  0
   21.3196   -5.9562  -14.7291 C   0  0  0  0  0  0  0  0  0  0  0  0
   22.0287   -6.3321  -13.7727 O   0  0  0  0  0  0  0  0  0  0  0  0
   21.3413   -4.6238  -15.0823 O   0  0  0  0  0  0  0  0  0  0  0  0
  2  1  1  0
  2  3  2  0
  4  5  1  0
  4  2  1  0
  5  6  1  0
  6  7  1  1
  8  6  1  0
  8  9  2  0
 10 11  1  0
 11 12  1  0
 12 13  1  1
 12 14  1  0
 14 15  1  6
 14 16  1  0
 15  8  1  0
 16 20  1  0
 17 16  2  0
 19 18  1  1
 19 21  1  0
 20 19  1  0
 21 22  2  0
 21 23  1  0
M  END
$$$$
