QIA.pdb
     RDKit          3D

 23 22  0  0  1  0  0  0  0  0999 V2000
   21.0855  -23.5716  -15.0552 N   0  0  0  0  0  0  0  0  0  0  0  0
   19.7822  -23.1961  -14.6486 C   0  0  0  0  0  0  0  0  0  0  0  0
   18.8932  -24.0637  -14.5658 O   0  0  0  0  0  0  0  0  0  0  0  0
   19.5028  -21.7918  -14.3369 C   0  0  0  0  0  0  0  0  0  0  0  0
   20.7449  -20.9947  -14.1739 C   0  0  0  0  0  0  0  0  0  0  0  0
   21.3498  -21.0909  -12.8248 C   0  0  2  0  0  0  0  0  0  0  0  0
   20.5584  -20.7643  -11.7010 N   0  0  0  0  0  0  0  0  0  0  0  0
   22.6591  -20.3807  -12.8564 C   0  0  0  0  0  0  0  0  0  0  0  0
   22.6589  -19.1827  -12.4515 O   0  0  0  0  0  0  0  0  0  0  0  0
   25.5206  -22.0023  -10.5532 C   0  0  0  0  0  0  0  0  0  0  0  0
   26.2856  -20.8328  -11.1391 C   0  0  0  0  0  0  0  0  0  0  0  0
   26.2419  -20.9782  -12.6394 C   0  0  2  0  0  0  0  0  0  0  0  0
   27.5710  -20.6171  -13.2793 C   0  0  0  0  0  0  0  0  0  0  0  0
   25.1280  -20.1896  -13.2702 C   0  0  2  0  0  0  0  0  0  0  0  0
   23.8770  -20.9304  -13.2950 N   0  0  0  0  0  0  0  0  0  0  0  0
   25.5631  -19.8597  -14.6737 C   0  0  0  0  0  0  0  0  0  0  0  0
   25.5196  -20.7418  -15.5683 O   0  0  0  0  0  0  0  0  0  0  0  0
   26.9321  -16.7935  -16.4628 C   0  0  0  0  0  0  0  0  0  0  0  0
   26.3635  -18.1941  -16.3855 C   0  0  2  0  0  0  0  0  0  0  0  0
   26.0284  -18.5745  -15.0379 N   0  0  0  0  0  0  0  0  0  0  0  0
   27.1990  -19.1880  -17.0764 C   0  0  0  0  0  0  0  0  0  0  0  0
   28.1256  -19.7467  -16.4536 O   0  0  0  0  0  0  0  0  0  0  0  0
   26.9936  -19.5269  -18.3968 O   0  0  0  0  0  0  0  0  0  0  0  0
  2  1  1  0
  2  3  2  0
  4  5  1  0
  4  2  1  0
  5  6  1  0
  6  7  1  1
  8  6  1  0
  8  9  2  0
 10 11  1  0
 11 12  1  0
 12 13  1  6
 12 14  1  0
 14 15  1  6
 14 16  1  0
 15  8  1  0
 16 20  1  0
 17 16  2  0
 19 18  1  1
 19 21  1  0
 20 19  1  0
 21 22  2  0
 21 23  1  0
M  END
$$$$
