QIA.pdb
     RDKit          3D

 23 22  0  0  1  0  0  0  0  0999 V2000
   19.1931   -9.6999  -20.3244 N   0  0  0  0  0  0  0  0  0  0  0  0
   18.2367  -10.7432  -20.3678 C   0  0  0  0  0  0  0  0  0  0  0  0
   17.6696  -11.0092  -21.4437 O   0  0  0  0  0  0  0  0  0  0  0  0
   17.9289  -11.4877  -19.1437 C   0  0  0  0  0  0  0  0  0  0  0  0
   18.7461  -11.0345  -17.9899 C   0  0  0  0  0  0  0  0  0  0  0  0
   20.0100  -11.7875  -17.8141 C   0  0  2  0  0  0  0  0  0  0  0  0
   19.9500  -13.1924  -17.6779 N   0  0  0  0  0  0  0  0  0  0  0  0
   20.7975  -11.1194  -16.7403 C   0  0  0  0  0  0  0  0  0  0  0  0
   20.3545  -11.2376  -15.5617 O   0  0  0  0  0  0  0  0  0  0  0  0
   26.4421   -9.6532  -15.0834 C   0  0  0  0  0  0  0  0  0  0  0  0
   24.9799   -9.3308  -14.8509 C   0  0  0  0  0  0  0  0  0  0  0  0
   24.1989   -9.9690  -15.9720 C   0  0  2  0  0  0  0  0  0  0  0  0
   24.6685   -9.4848  -17.3326 C   0  0  0  0  0  0  0  0  0  0  0  0
   22.7143   -9.7753  -15.8333 C   0  0  2  0  0  0  0  0  0  0  0  0
   21.9773  -10.3784  -16.9321 N   0  0  0  0  0  0  0  0  0  0  0  0
   22.4665   -8.2903  -15.7959 C   0  0  0  0  0  0  0  0  0  0  0  0
   22.6056   -7.6041  -16.8399 O   0  0  0  0  0  0  0  0  0  0  0  0
   20.7603   -5.9243  -13.4237 C   0  0  0  0  0  0  0  0  0  0  0  0
   21.7078   -6.2281  -14.5643 C   0  0  2  0  0  0  0  0  0  0  0  0
   22.0758   -7.6192  -14.6136 N   0  0  0  0  0  0  0  0  0  0  0  0
   22.8657   -5.3218  -14.6011 C   0  0  0  0  0  0  0  0  0  0  0  0
   22.6780   -4.0956  -14.7427 O   0  0  0  0  0  0  0  0  0  0  0  0
   24.1600   -5.7816  -14.4838 O   0  0  0  0  0  0  0  0  0  0  0  0
  2  1  1  0
  2  3  2  0
  4  5  1  0
  4  2  1  0
  5  6  1  0
  6  7  1  1
  8  6  1  0
  8  9  2  0
 10 11  1  0
 11 12  1  0
 12 13  1  6
 12 14  1  0
 14 15  1  6
 14 16  1  0
 15  8  1  0
 16 20  1  0
 17 16  2  0
 19 18  1  1
 19 21  1  0
 20 19  1  0
 21 22  2  0
 21 23  1  0
M  END
$$$$
