QIA.pdb
     RDKit          3D

 23 22  0  0  1  0  0  0  0  0999 V2000
   27.9020  -16.4112  -16.1557 N   0  0  0  0  0  0  0  0  0  0  0  0
   28.3393  -17.5665  -16.8476 C   0  0  0  0  0  0  0  0  0  0  0  0
   29.5594  -17.7869  -16.9608 O   0  0  0  0  0  0  0  0  0  0  0  0
   27.3472  -18.4795  -17.4217 C   0  0  0  0  0  0  0  0  0  0  0  0
   26.5319  -19.1514  -16.3784 C   0  0  0  0  0  0  0  0  0  0  0  0
   27.3158  -20.0155  -15.4651 C   0  0  2  0  0  0  0  0  0  0  0  0
   28.3377  -20.8261  -16.0077 N   0  0  0  0  0  0  0  0  0  0  0  0
   26.3571  -20.7641  -14.6048 C   0  0  0  0  0  0  0  0  0  0  0  0
   26.0234  -21.9163  -15.0054 O   0  0  0  0  0  0  0  0  0  0  0  0
   26.4270  -20.2635   -9.3138 C   0  0  0  0  0  0  0  0  0  0  0  0
   26.2427  -21.1268  -10.5454 C   0  0  0  0  0  0  0  0  0  0  0  0
   24.9160  -20.7533  -11.1572 C   0  0  2  0  0  0  0  0  0  0  0  0
   23.7547  -21.3989  -10.4217 C   0  0  0  0  0  0  0  0  0  0  0  0
   24.8417  -21.0661  -12.6260 C   0  0  2  0  0  0  0  0  0  0  0  0
   25.8022  -20.2964  -13.4002 N   0  0  0  0  0  0  0  0  0  0  0  0
   23.4397  -20.7459  -13.0732 C   0  0  0  0  0  0  0  0  0  0  0  0
   23.0297  -19.5578  -13.0513 O   0  0  0  0  0  0  0  0  0  0  0  0
   20.8315  -22.5766  -15.0718 C   0  0  0  0  0  0  0  0  0  0  0  0
   21.2782  -21.4621  -14.1501 C   0  0  2  0  0  0  0  0  0  0  0  0
   22.5450  -21.7434  -13.5262 N   0  0  0  0  0  0  0  0  0  0  0  0
   20.2369  -21.0631  -13.1910 C   0  0  0  0  0  0  0  0  0  0  0  0
   20.2920  -21.4861  -12.0176 O   0  0  0  0  0  0  0  0  0  0  0  0
   19.1949  -20.2326  -13.5443 O   0  0  0  0  0  0  0  0  0  0  0  0
  2  1  1  0
  2  3  2  0
  4  5  1  0
  4  2  1  0
  5  6  1  0
  6  7  1  6
  8  6  1  0
  8  9  2  0
 10 11  1  0
 11 12  1  0
 12 13  1  1
 12 14  1  0
 14 15  1  6
 14 16  1  0
 15  8  1  0
 16 20  1  0
 17 16  2  0
 19 18  1  1
 19 21  1  0
 20 19  1  0
 21 22  2  0
 21 23  1  0
M  END
$$$$
