QIA.pdb
     RDKit          3D

 23 22  0  0  1  0  0  0  0  0999 V2000
   19.6574  -22.7019  -12.7203 N   0  0  0  0  0  0  0  0  0  0  0  0
   19.9468  -21.5581  -11.9374 C   0  0  0  0  0  0  0  0  0  0  0  0
   19.1613  -20.5923  -11.9513 O   0  0  0  0  0  0  0  0  0  0  0  0
   21.1684  -21.5307  -11.1285 C   0  0  0  0  0  0  0  0  0  0  0  0
   22.2149  -20.6596  -11.7206 C   0  0  0  0  0  0  0  0  0  0  0  0
   22.7718  -21.1687  -12.9958 C   0  0  2  0  0  0  0  0  0  0  0  0
   23.2795  -22.4864  -13.0369 N   0  0  0  0  0  0  0  0  0  0  0  0
   23.7220  -20.1489  -13.5219 C   0  0  0  0  0  0  0  0  0  0  0  0
   23.4206  -18.9387  -13.3129 O   0  0  0  0  0  0  0  0  0  0  0  0
   28.6820  -20.3548  -12.4094 C   0  0  0  0  0  0  0  0  0  0  0  0
   27.3526  -19.6949  -12.7150 C   0  0  0  0  0  0  0  0  0  0  0  0
   27.2285  -19.6163  -14.2158 C   0  0  2  0  0  0  0  0  0  0  0  0
   28.1561  -18.5674  -14.8036 C   0  0  0  0  0  0  0  0  0  0  0  0
   25.8160  -19.3785  -14.6731 C   0  0  2  0  0  0  0  0  0  0  0  0
   24.9102  -20.4230  -14.2225 N   0  0  0  0  0  0  0  0  0  0  0  0
   25.8436  -19.3297  -16.1780 C   0  0  0  0  0  0  0  0  0  0  0  0
   26.3419  -20.2833  -16.8281 O   0  0  0  0  0  0  0  0  0  0  0  0
   24.3183  -17.1602  -18.8709 C   0  0  0  0  0  0  0  0  0  0  0  0
   25.3343  -18.1514  -18.3453 C   0  0  2  0  0  0  0  0  0  0  0  0
   25.3227  -18.2358  -16.9080 N   0  0  0  0  0  0  0  0  0  0  0  0
   26.6792  -17.9390  -18.9015 C   0  0  0  0  0  0  0  0  0  0  0  0
   27.5002  -17.2441  -18.2677 O   0  0  0  0  0  0  0  0  0  0  0  0
   27.0681  -18.4840  -20.1066 O   0  0  0  0  0  0  0  0  0  0  0  0
  2  1  1  0
  2  3  2  0
  4  5  1  0
  4  2  1  0
  5  6  1  0
  6  7  1  1
  8  6  1  0
  8  9  2  0
 10 11  1  0
 11 12  1  0
 12 13  1  1
 12 14  1  0
 14 15  1  6
 14 16  1  0
 15  8  1  0
 16 20  1  0
 17 16  2  0
 19 18  1  1
 19 21  1  0
 20 19  1  0
 21 22  2  0
 21 23  1  0
M  END
$$$$
