LVY.pdb
     RDKit          3D

 28 28  0  0  1  0  0  0  0  0999 V2000
    8.1679  -11.6036   20.8852 C   0  0  0  0  0  0  0  0  0  0  0  0
    8.1696  -12.9962   20.3413 C   0  0  2  0  0  0  0  0  0  0  0  0
    7.1678  -13.0741   19.2048 C   0  0  0  0  0  0  0  0  0  0  0  0
    7.9165  -14.0178   21.3971 C   0  0  0  0  0  0  0  0  0  0  0  0
    8.0539  -15.4410   20.9338 C   0  0  2  0  0  0  0  0  0  0  0  0
    6.7913  -15.9634   20.4497 N   0  0  0  0  0  0  0  0  0  0  0  0
    8.5503  -16.2417   22.0859 C   0  0  0  0  0  0  0  0  0  0  0  0
    7.7247  -16.7418   22.9010 O   0  0  0  0  0  0  0  0  0  0  0  0
   11.9624  -18.9967   24.2829 C   0  0  0  0  0  0  0  0  0  0  0  0
   11.6263  -18.0701   23.1404 C   0  0  1  0  0  0  0  0  0  0  0  0
   11.5359  -18.8897   21.8802 C   0  0  0  0  0  0  0  0  0  0  0  0
   10.3349  -17.3352   23.4299 C   0  0  2  0  0  0  0  0  0  0  0  0
    9.9248  -16.4951   22.3477 N   0  0  0  0  0  0  0  0  0  0  0  0
   10.4514  -16.6303   24.7229 C   0  0  0  0  0  0  0  0  0  0  0  0
   11.2611  -15.6623   24.7683 O   0  0  0  0  0  0  0  0  0  0  0  0
    5.9485  -11.7933   24.8935 O   0  0  0  0  0  0  0  0  0  0  0  0
    6.5990  -12.7933   25.5853 C   0  0  0  0  0  0  0  0  0  0  0  0
    7.7524  -12.4799   26.2610 C   0  0  0  0  0  0  0  0  0  0  0  0
    8.4263  -13.4632   26.9640 C   0  0  0  0  0  0  0  0  0  0  0  0
    7.9886  -14.7731   27.0224 C   0  0  0  0  0  0  0  0  0  0  0  0
    8.6671  -15.8459   27.7456 C   0  0  0  0  0  0  0  0  0  0  0  0
    9.9973  -16.2521   27.1597 C   0  0  2  0  0  0  0  0  0  0  0  0
    9.7433  -16.9451   25.8930 N   0  0  0  0  0  0  0  0  0  0  0  0
   10.8199  -17.0866   28.0355 C   0  0  0  0  0  0  0  0  0  0  0  0
   11.1639  -18.4205   27.7527 O   0  0  0  0  0  0  0  0  0  0  0  0
    6.8179  -15.0603   26.3285 C   0  0  0  0  0  0  0  0  0  0  0  0
    6.1374  -14.0908   25.6247 C   0  0  0  0  0  0  0  0  0  0  0  0
   11.2504  -16.5780   29.1168 O   0  0  0  0  0  0  0  0  0  0  0  0
  2  1  1  1
  2  3  1  0
  4  5  1  0
  4  2  1  0
  5  6  1  1
  7 13  1  0
  7  5  1  0
  8  7  2  0
 10  9  1  1
 11 10  1  0
 12 14  1  0
 12 10  1  0
 12 13  1  6
 14 15  2  0
 16 17  1  0
 17 27  2  0
 17 18  1  0
 18 19  2  0
 19 20  1  0
 20 21  1  0
 22 21  1  1
 22 24  1  0
 23 22  1  0
 23 14  1  0
 24 25  1  0
 26 20  2  0
 27 26  1  0
 28 24  2  0
M  END
$$$$
