LVY.pdb
     RDKit          3D

 28 28  0  0  1  0  0  0  0  0999 V2000
    8.6614  -13.1205   17.6651 C   0  0  0  0  0  0  0  0  0  0  0  0
    7.6098  -13.3983   18.6908 C   0  0  2  0  0  0  0  0  0  0  0  0
    7.2741  -12.1024   19.4045 C   0  0  0  0  0  0  0  0  0  0  0  0
    8.0089  -14.4826   19.6330 C   0  0  0  0  0  0  0  0  0  0  0  0
    8.3049  -15.8018   18.9764 C   0  0  2  0  0  0  0  0  0  0  0  0
    7.1087  -16.3878   18.4045 N   0  0  0  0  0  0  0  0  0  0  0  0
    8.8888  -16.6971   20.0120 C   0  0  0  0  0  0  0  0  0  0  0  0
    8.1276  -17.2813   20.8338 O   0  0  0  0  0  0  0  0  0  0  0  0
   12.4981  -19.4253   21.9219 C   0  0  0  0  0  0  0  0  0  0  0  0
   12.0243  -18.5545   20.7843 C   0  0  1  0  0  0  0  0  0  0  0  0
   11.7723  -19.4361   19.5897 C   0  0  0  0  0  0  0  0  0  0  0  0
   10.7827  -17.7923   21.1955 C   0  0  2  0  0  0  0  0  0  0  0  0
   10.2804  -16.9535   20.1519 N   0  0  0  0  0  0  0  0  0  0  0  0
   11.0428  -17.0789   22.4627 C   0  0  0  0  0  0  0  0  0  0  0  0
   11.9092  -16.1610   22.4273 O   0  0  0  0  0  0  0  0  0  0  0  0
   10.4000  -14.2366   30.8707 O   0  0  0  0  0  0  0  0  0  0  0  0
   10.1817  -14.7609   29.6141 C   0  0  0  0  0  0  0  0  0  0  0  0
   10.2728  -16.1205   29.4458 C   0  0  0  0  0  0  0  0  0  0  0  0
   10.0584  -16.6746   28.1959 C   0  0  0  0  0  0  0  0  0  0  0  0
    9.7507  -15.9133   27.0838 C   0  0  0  0  0  0  0  0  0  0  0  0
    9.5214  -16.4506   25.7449 C   0  0  0  0  0  0  0  0  0  0  0  0
   10.7689  -16.6034   24.9094 C   0  0  2  0  0  0  0  0  0  0  0  0
   10.4124  -17.3353   23.6902 N   0  0  0  0  0  0  0  0  0  0  0  0
   11.8808  -17.2674   25.5898 C   0  0  0  0  0  0  0  0  0  0  0  0
   13.0031  -16.5926   26.1022 O   0  0  0  0  0  0  0  0  0  0  0  0
    9.6653  -14.5397   27.2851 C   0  0  0  0  0  0  0  0  0  0  0  0
    9.8764  -13.9753   28.5242 C   0  0  0  0  0  0  0  0  0  0  0  0
   11.8318  -18.5291   25.7271 O   0  0  0  0  0  0  0  0  0  0  0  0
  2  1  1  6
  2  3  1  0
  4  5  1  0
  4  2  1  0
  5  6  1  1
  7 13  1  0
  7  5  1  0
  8  7  2  0
 10  9  1  1
 11 10  1  0
 12 14  1  0
 12 10  1  0
 12 13  1  6
 14 15  2  0
 16 17  1  0
 17 27  2  0
 17 18  1  0
 18 19  2  0
 19 20  1  0
 20 21  1  0
 22 21  1  1
 22 24  1  0
 23 22  1  0
 23 14  1  0
 24 25  1  0
 26 20  2  0
 27 26  1  0
 28 24  2  0
M  END
$$$$
