LVY.pdb
     RDKit          3D

 28 28  0  0  1  0  0  0  0  0999 V2000
    7.7807  -12.9648   26.8152 C   0  0  0  0  0  0  0  0  0  0  0  0
    6.8044  -13.5499   25.8458 C   0  0  2  0  0  0  0  0  0  0  0  0
    5.6054  -12.6257   25.7477 C   0  0  0  0  0  0  0  0  0  0  0  0
    6.4218  -14.9467   26.1996 C   0  0  0  0  0  0  0  0  0  0  0  0
    5.9948  -15.7912   25.0319 C   0  0  2  0  0  0  0  0  0  0  0  0
    5.5762  -17.1115   25.4596 N   0  0  0  0  0  0  0  0  0  0  0  0
    7.1491  -15.8798   24.0967 C   0  0  0  0  0  0  0  0  0  0  0  0
    8.0211  -16.7785   24.2641 O   0  0  0  0  0  0  0  0  0  0  0  0
    6.8773  -14.6800   20.1758 C   0  0  0  0  0  0  0  0  0  0  0  0
    8.2308  -14.4106   20.7860 C   0  0  1  0  0  0  0  0  0  0  0  0
    8.3422  -12.9324   21.0510 C   0  0  0  0  0  0  0  0  0  0  0  0
    8.4024  -15.2254   22.0502 C   0  0  2  0  0  0  0  0  0  0  0  0
    7.3522  -15.0037   22.9952 N   0  0  0  0  0  0  0  0  0  0  0  0
    9.7561  -15.0014   22.5977 C   0  0  0  0  0  0  0  0  0  0  0  0
   10.1268  -13.8000   22.7153 O   0  0  0  0  0  0  0  0  0  0  0  0
   11.9085  -15.2346   30.6801 O   0  0  0  0  0  0  0  0  0  0  0  0
   11.4800  -15.4047   29.3804 C   0  0  0  0  0  0  0  0  0  0  0  0
   11.3590  -14.2962   28.5794 C   0  0  0  0  0  0  0  0  0  0  0  0
   10.9313  -14.4369   27.2707 C   0  0  0  0  0  0  0  0  0  0  0  0
   10.6127  -15.6624   26.7164 C   0  0  0  0  0  0  0  0  0  0  0  0
   10.1525  -15.8608   25.3441 C   0  0  0  0  0  0  0  0  0  0  0  0
   11.2587  -16.0169   24.3293 C   0  0  2  0  0  0  0  0  0  0  0  0
   10.6548  -16.0041   22.9935 N   0  0  0  0  0  0  0  0  0  0  0  0
   12.0789  -17.2161   24.5010 C   0  0  0  0  0  0  0  0  0  0  0  0
   13.2726  -17.2509   25.2435 O   0  0  0  0  0  0  0  0  0  0  0  0
   10.7449  -16.7666   27.5516 C   0  0  0  0  0  0  0  0  0  0  0  0
   11.1696  -16.6405   28.8563 C   0  0  0  0  0  0  0  0  0  0  0  0
   11.6915  -18.2914   23.9472 O   0  0  0  0  0  0  0  0  0  0  0  0
  2  1  1  1
  2  3  1  0
  4  5  1  0
  4  2  1  0
  5  6  1  1
  7 13  1  0
  7  5  1  0
  8  7  2  0
 10  9  1  1
 11 10  1  0
 12 14  1  0
 12 10  1  0
 12 13  1  1
 14 15  2  0
 16 17  1  0
 17 27  2  0
 17 18  1  0
 18 19  2  0
 19 20  1  0
 20 21  1  0
 22 21  1  1
 22 24  1  0
 23 22  1  0
 23 14  1  0
 24 25  1  0
 26 20  2  0
 27 26  1  0
 28 24  2  0
M  END
$$$$
