LVY.pdb
     RDKit          3D

 28 28  0  0  1  0  0  0  0  0999 V2000
    4.9468  -19.7081   21.5143 C   0  0  0  0  0  0  0  0  0  0  0  0
    4.2857  -18.3678   21.4748 C   0  0  2  0  0  0  0  0  0  0  0  0
    3.7231  -18.1454   20.0836 C   0  0  0  0  0  0  0  0  0  0  0  0
    5.2005  -17.2714   21.9032 C   0  0  0  0  0  0  0  0  0  0  0  0
    5.8685  -17.4990   23.2302 C   0  0  2  0  0  0  0  0  0  0  0  0
    4.8966  -17.7627   24.2728 N   0  0  0  0  0  0  0  0  0  0  0  0
    6.6651  -16.2821   23.5458 C   0  0  0  0  0  0  0  0  0  0  0  0
    7.5226  -15.8645   22.7173 O   0  0  0  0  0  0  0  0  0  0  0  0
    7.9930  -12.4805   26.3876 C   0  0  0  0  0  0  0  0  0  0  0  0
    6.9799  -13.5733   26.1501 C   0  0  1  0  0  0  0  0  0  0  0  0
    5.6930  -12.9330   25.7010 C   0  0  0  0  0  0  0  0  0  0  0  0
    7.5074  -14.5579   25.1284 C   0  0  2  0  0  0  0  0  0  0  0  0
    6.5312  -15.5302   24.7452 N   0  0  0  0  0  0  0  0  0  0  0  0
    8.7726  -15.1422   25.6185 C   0  0  0  0  0  0  0  0  0  0  0  0
    8.6870  -15.9381   26.5951 O   0  0  0  0  0  0  0  0  0  0  0  0
   12.2858  -17.0905   31.6532 O   0  0  0  0  0  0  0  0  0  0  0  0
   11.9006  -17.0286   30.3305 C   0  0  0  0  0  0  0  0  0  0  0  0
   12.1225  -18.1224   29.5309 C   0  0  0  0  0  0  0  0  0  0  0  0
   11.7460  -18.0887   28.1996 C   0  0  0  0  0  0  0  0  0  0  0  0
   11.1452  -16.9866   27.6206 C   0  0  0  0  0  0  0  0  0  0  0  0
   10.7353  -16.9014   26.2210 C   0  0  0  0  0  0  0  0  0  0  0  0
   11.2215  -15.6677   25.5003 C   0  0  2  0  0  0  0  0  0  0  0  0
   10.0490  -14.8876   25.0932 N   0  0  0  0  0  0  0  0  0  0  0  0
   12.0766  -15.9346   24.3436 C   0  0  0  0  0  0  0  0  0  0  0  0
   13.4253  -16.3218   24.4371 O   0  0  0  0  0  0  0  0  0  0  0  0
   10.9333  -15.8942   28.4550 C   0  0  0  0  0  0  0  0  0  0  0  0
   11.3033  -15.9147   29.7821 C   0  0  0  0  0  0  0  0  0  0  0  0
   11.5729  -15.8097   23.1845 O   0  0  0  0  0  0  0  0  0  0  0  0
  2  1  1  6
  2  3  1  0
  4  5  1  0
  4  2  1  0
  5  6  1  1
  7 13  1  0
  7  5  1  0
  8  7  2  0
 10  9  1  6
 11 10  1  0
 12 14  1  0
 12 10  1  0
 12 13  1  1
 14 15  2  0
 16 17  1  0
 17 27  2  0
 17 18  1  0
 18 19  2  0
 19 20  1  0
 20 21  1  0
 22 21  1  6
 22 24  1  0
 23 22  1  0
 23 14  1  0
 24 25  1  0
 26 20  2  0
 27 26  1  0
 28 24  2  0
M  END
$$$$
