LVY.pdb
     RDKit          3D

 28 28  0  0  1  0  0  0  0  0999 V2000
    8.7703  -20.2058   17.7522 C   0  0  0  0  0  0  0  0  0  0  0  0
    9.9393  -20.2563   18.6827 C   0  0  2  0  0  0  0  0  0  0  0  0
    9.7901  -21.4678   19.5835 C   0  0  0  0  0  0  0  0  0  0  0  0
   10.1075  -18.9901   19.4514 C   0  0  0  0  0  0  0  0  0  0  0  0
   10.0574  -17.7418   18.6157 C   0  0  2  0  0  0  0  0  0  0  0  0
   11.2689  -17.5783   17.8366 N   0  0  0  0  0  0  0  0  0  0  0  0
    9.8640  -16.5911   19.5397 C   0  0  0  0  0  0  0  0  0  0  0  0
   10.8602  -16.0970   20.1391 O   0  0  0  0  0  0  0  0  0  0  0  0
    7.1022  -13.0365   21.5938 C   0  0  0  0  0  0  0  0  0  0  0  0
    7.2306  -14.0862   20.5175 C   0  0  1  0  0  0  0  0  0  0  0  0
    7.2525  -13.3911   19.1817 C   0  0  0  0  0  0  0  0  0  0  0  0
    8.4782  -14.9131   20.7441 C   0  0  2  0  0  0  0  0  0  0  0  0
    8.6052  -15.9865   19.8078 N   0  0  0  0  0  0  0  0  0  0  0  0
    8.5315  -15.3426   22.1566 C   0  0  0  0  0  0  0  0  0  0  0  0
    8.0277  -16.4691   22.4245 O   0  0  0  0  0  0  0  0  0  0  0  0
   10.8955  -15.9726   30.6892 O   0  0  0  0  0  0  0  0  0  0  0  0
   10.6555  -15.5377   29.4027 C   0  0  0  0  0  0  0  0  0  0  0  0
    9.9418  -14.3784   29.2248 C   0  0  0  0  0  0  0  0  0  0  0  0
    9.6860  -13.9179   27.9450 C   0  0  0  0  0  0  0  0  0  0  0  0
   10.1215  -14.5793   26.8120 C   0  0  0  0  0  0  0  0  0  0  0  0
    9.8723  -14.1364   25.4423 C   0  0  0  0  0  0  0  0  0  0  0  0
    9.1712  -15.1521   24.5736 C   0  0  2  0  0  0  0  0  0  0  0  0
    9.0904  -14.6088   23.2143 N   0  0  0  0  0  0  0  0  0  0  0  0
    7.8408  -15.5403   25.0420 C   0  0  0  0  0  0  0  0  0  0  0  0
    7.5779  -16.7091   25.7784 O   0  0  0  0  0  0  0  0  0  0  0  0
   10.8416  -15.7502   27.0236 C   0  0  0  0  0  0  0  0  0  0  0  0
   11.1031  -16.2196   28.2923 C   0  0  0  0  0  0  0  0  0  0  0  0
    6.8629  -14.7775   24.7682 O   0  0  0  0  0  0  0  0  0  0  0  0
  2  1  1  1
  2  3  1  0
  4  5  1  0
  4  2  1  0
  5  6  1  1
  7 13  1  0
  7  5  1  0
  8  7  2  0
 10  9  1  1
 11 10  1  0
 12 14  1  0
 12 10  1  0
 12 13  1  6
 14 15  2  0
 16 17  1  0
 17 27  2  0
 17 18  1  0
 18 19  2  0
 19 20  1  0
 20 21  1  0
 22 21  1  1
 22 24  1  0
 23 22  1  0
 23 14  1  0
 24 25  1  0
 26 20  2  0
 27 26  1  0
 28 24  2  0
M  END
$$$$
