LVY.pdb
     RDKit          3D

 28 28  0  0  1  0  0  0  0  0999 V2000
    8.8889  -12.9408   18.6637 C   0  0  0  0  0  0  0  0  0  0  0  0
    7.4125  -13.0589   18.4599 C   0  0  2  0  0  0  0  0  0  0  0  0
    6.8263  -11.6647   18.3413 C   0  0  0  0  0  0  0  0  0  0  0  0
    6.7555  -13.8661   19.5273 C   0  0  0  0  0  0  0  0  0  0  0  0
    7.5908  -14.9977   20.0570 C   0  0  2  0  0  0  0  0  0  0  0  0
    6.8659  -16.2525   20.0189 N   0  0  0  0  0  0  0  0  0  0  0  0
    7.9791  -14.6538   21.4519 C   0  0  0  0  0  0  0  0  0  0  0  0
    7.5248  -13.6027   21.9857 O   0  0  0  0  0  0  0  0  0  0  0  0
    7.9960  -14.8155   25.8629 C   0  0  0  0  0  0  0  0  0  0  0  0
    7.7371  -14.9495   24.3824 C   0  0  1  0  0  0  0  0  0  0  0  0
    7.0198  -13.7103   23.9157 C   0  0  0  0  0  0  0  0  0  0  0  0
    9.0416  -15.1589   23.6435 C   0  0  2  0  0  0  0  0  0  0  0  0
    8.8489  -15.4415   22.2549 N   0  0  0  0  0  0  0  0  0  0  0  0
    9.8496  -16.1717   24.3531 C   0  0  0  0  0  0  0  0  0  0  0  0
    9.2139  -17.0796   24.9583 O   0  0  0  0  0  0  0  0  0  0  0  0
   10.3679  -16.0241   31.8555 O   0  0  0  0  0  0  0  0  0  0  0  0
   10.7413  -15.8215   30.5435 C   0  0  0  0  0  0  0  0  0  0  0  0
   10.3381  -14.6680   29.9175 C   0  0  0  0  0  0  0  0  0  0  0  0
   10.6983  -14.4380   28.6012 C   0  0  0  0  0  0  0  0  0  0  0  0
   11.4596  -15.3291   27.8682 C   0  0  0  0  0  0  0  0  0  0  0  0
   11.8600  -15.1335   26.4769 C   0  0  0  0  0  0  0  0  0  0  0  0
   11.9692  -16.4056   25.6721 C   0  0  2  0  0  0  0  0  0  0  0  0
   11.2515  -16.2073   24.4093 N   0  0  0  0  0  0  0  0  0  0  0  0
   11.4728  -17.6019   26.3524 C   0  0  0  0  0  0  0  0  0  0  0  0
   10.1229  -17.8124   26.6855 O   0  0  0  0  0  0  0  0  0  0  0  0
   11.8530  -16.4881   28.5287 C   0  0  0  0  0  0  0  0  0  0  0  0
   11.5013  -16.7293   29.8388 C   0  0  0  0  0  0  0  0  0  0  0  0
   12.3095  -18.5060   26.6616 O   0  0  0  0  0  0  0  0  0  0  0  0
  2  1  1  1
  2  3  1  0
  4  5  1  0
  4  2  1  0
  5  6  1  1
  7 13  1  0
  7  5  1  0
  8  7  2  0
 10  9  1  1
 11 10  1  0
 12 14  1  0
 12 10  1  0
 12 13  1  6
 14 15  2  0
 16 17  1  0
 17 27  2  0
 17 18  1  0
 18 19  2  0
 19 20  1  0
 20 21  1  0
 22 21  1  1
 22 24  1  0
 23 22  1  0
 23 14  1  0
 24 25  1  0
 26 20  2  0
 27 26  1  0
 28 24  2  0
M  END
$$$$
