LVY.pdb
     RDKit          3D

 28 28  0  0  1  0  0  0  0  0999 V2000
    9.0392  -12.9430   19.7584 C   0  0  0  0  0  0  0  0  0  0  0  0
    7.5685  -13.2078   19.8052 C   0  0  2  0  0  0  0  0  0  0  0  0
    6.8350  -11.8809   19.7546 C   0  0  0  0  0  0  0  0  0  0  0  0
    7.1779  -14.0319   20.9846 C   0  0  0  0  0  0  0  0  0  0  0  0
    7.9601  -15.3057   21.1421 C   0  0  2  0  0  0  0  0  0  0  0  0
    7.6923  -16.2281   20.0564 N   0  0  0  0  0  0  0  0  0  0  0  0
    7.5817  -15.9054   22.4506 C   0  0  0  0  0  0  0  0  0  0  0  0
    6.7762  -15.2944   23.2081 O   0  0  0  0  0  0  0  0  0  0  0  0
    7.2692  -19.5982   25.6725 C   0  0  0  0  0  0  0  0  0  0  0  0
    7.6127  -19.1471   24.2741 C   0  0  1  0  0  0  0  0  0  0  0  0
    6.5470  -19.6564   23.3399 C   0  0  0  0  0  0  0  0  0  0  0  0
    7.7295  -17.6385   24.2286 C   0  0  2  0  0  0  0  0  0  0  0  0
    8.0722  -17.1516   22.9284 N   0  0  0  0  0  0  0  0  0  0  0  0
    8.6439  -17.1854   25.2967 C   0  0  0  0  0  0  0  0  0  0  0  0
    9.8801  -17.2461   25.0462 O   0  0  0  0  0  0  0  0  0  0  0  0
    6.9046  -10.9468   24.7075 O   0  0  0  0  0  0  0  0  0  0  0  0
    7.3446  -11.9383   25.5590 C   0  0  0  0  0  0  0  0  0  0  0  0
    6.4479  -12.4932   26.4383 C   0  0  0  0  0  0  0  0  0  0  0  0
    6.8613  -13.4902   27.3045 C   0  0  0  0  0  0  0  0  0  0  0  0
    8.1588  -13.9665   27.3308 C   0  0  0  0  0  0  0  0  0  0  0  0
    8.6435  -15.0119   28.2288 C   0  0  0  0  0  0  0  0  0  0  0  0
    9.2348  -16.2123   27.5308 C   0  0  2  0  0  0  0  0  0  0  0  0
    8.2553  -16.6981   26.5542 N   0  0  0  0  0  0  0  0  0  0  0  0
    9.6392  -17.2986   28.4233 C   0  0  0  0  0  0  0  0  0  0  0  0
   10.7716  -17.2502   29.2558 O   0  0  0  0  0  0  0  0  0  0  0  0
    9.0441  -13.3855   26.4291 C   0  0  0  0  0  0  0  0  0  0  0  0
    8.6454  -12.3922   25.5614 C   0  0  0  0  0  0  0  0  0  0  0  0
    8.9264  -18.3494   28.4496 O   0  0  0  0  0  0  0  0  0  0  0  0
  2  1  1  1
  2  3  1  0
  4  5  1  0
  4  2  1  0
  5  6  1  6
  7 13  1  0
  7  5  1  0
  8  7  2  0
 10  9  1  1
 11 10  1  0
 12 14  1  0
 12 10  1  0
 12 13  1  6
 14 15  2  0
 16 17  1  0
 17 27  2  0
 17 18  1  0
 18 19  2  0
 19 20  1  0
 20 21  1  0
 22 21  1  1
 22 24  1  0
 23 22  1  0
 23 14  1  0
 24 25  1  0
 26 20  2  0
 27 26  1  0
 28 24  2  0
M  END
$$$$
