LVY.pdb
     RDKit          3D

 28 28  0  0  1  0  0  0  0  0999 V2000
    9.0956  -12.6226   18.7550 C   0  0  0  0  0  0  0  0  0  0  0  0
    7.7263  -13.1884   18.9556 C   0  0  2  0  0  0  0  0  0  0  0  0
    6.8969  -12.1859   19.7357 C   0  0  0  0  0  0  0  0  0  0  0  0
    7.7567  -14.5312   19.6025 C   0  0  0  0  0  0  0  0  0  0  0  0
    8.5179  -15.5760   18.8356 C   0  0  2  0  0  0  0  0  0  0  0  0
    7.6663  -16.2540   17.8782 N   0  0  0  0  0  0  0  0  0  0  0  0
    9.0750  -16.5400   19.8230 C   0  0  0  0  0  0  0  0  0  0  0  0
    8.3018  -17.3446   20.4153 O   0  0  0  0  0  0  0  0  0  0  0  0
   12.5804  -19.2470   21.8279 C   0  0  0  0  0  0  0  0  0  0  0  0
   12.1289  -18.3259   20.7212 C   0  0  1  0  0  0  0  0  0  0  0  0
   11.8373  -19.1614   19.5027 C   0  0  0  0  0  0  0  0  0  0  0  0
   10.9180  -17.5338   21.1658 C   0  0  2  0  0  0  0  0  0  0  0  0
   10.4533  -16.6279   20.1616 N   0  0  0  0  0  0  0  0  0  0  0  0
   11.2027  -16.8911   22.4650 C   0  0  0  0  0  0  0  0  0  0  0  0
   12.1217  -16.0251   22.4781 O   0  0  0  0  0  0  0  0  0  0  0  0
   10.5944  -14.2094   30.9220 O   0  0  0  0  0  0  0  0  0  0  0  0
   10.3662  -14.7131   29.6587 C   0  0  0  0  0  0  0  0  0  0  0  0
   10.5449  -16.0577   29.4466 C   0  0  0  0  0  0  0  0  0  0  0  0
   10.3230  -16.5910   28.1890 C   0  0  0  0  0  0  0  0  0  0  0  0
    9.9223  -15.8229   27.1118 C   0  0  0  0  0  0  0  0  0  0  0  0
    9.6810  -16.3381   25.7662 C   0  0  0  0  0  0  0  0  0  0  0  0
   10.9243  -16.5026   24.9265 C   0  0  2  0  0  0  0  0  0  0  0  0
   10.5426  -17.1613   23.6737 N   0  0  0  0  0  0  0  0  0  0  0  0
   12.0057  -17.2427   25.5769 C   0  0  0  0  0  0  0  0  0  0  0  0
   11.9826  -18.6307   25.8017 O   0  0  0  0  0  0  0  0  0  0  0  0
    9.7497  -14.4648   27.3570 C   0  0  0  0  0  0  0  0  0  0  0  0
    9.9671  -13.9212   28.6042 C   0  0  0  0  0  0  0  0  0  0  0  0
   13.0278  -16.5950   25.9625 O   0  0  0  0  0  0  0  0  0  0  0  0
  2  1  1  1
  2  3  1  0
  4  5  1  0
  4  2  1  0
  5  6  1  6
  7 13  1  0
  7  5  1  0
  8  7  2  0
 10  9  1  1
 11 10  1  0
 12 14  1  0
 12 10  1  0
 12 13  1  6
 14 15  2  0
 16 17  1  0
 17 27  2  0
 17 18  1  0
 18 19  2  0
 19 20  1  0
 20 21  1  0
 22 21  1  1
 22 24  1  0
 23 22  1  0
 23 14  1  0
 24 25  1  0
 26 20  2  0
 27 26  1  0
 28 24  2  0
M  END
$$$$
