LVY.pdb
     RDKit          3D

 28 28  0  0  1  0  0  0  0  0999 V2000
    8.4261  -13.2311   18.5186 C   0  0  0  0  0  0  0  0  0  0  0  0
    7.7545  -13.9820   19.6233 C   0  0  2  0  0  0  0  0  0  0  0  0
    6.2882  -13.5937   19.6521 C   0  0  0  0  0  0  0  0  0  0  0  0
    8.4258  -13.7767   20.9385 C   0  0  0  0  0  0  0  0  0  0  0  0
    8.2683  -14.9178   21.9040 C   0  0  2  0  0  0  0  0  0  0  0  0
    6.9072  -15.4165   21.9154 N   0  0  0  0  0  0  0  0  0  0  0  0
    8.6610  -14.4226   23.2514 C   0  0  0  0  0  0  0  0  0  0  0  0
    9.8235  -13.9628   23.4336 O   0  0  0  0  0  0  0  0  0  0  0  0
    7.7631  -12.4959   27.6077 C   0  0  0  0  0  0  0  0  0  0  0  0
    7.1784  -13.1457   26.3777 C   0  0  1  0  0  0  0  0  0  0  0  0
    6.5991  -12.0644   25.5041 C   0  0  0  0  0  0  0  0  0  0  0  0
    8.2428  -13.9447   25.6564 C   0  0  2  0  0  0  0  0  0  0  0  0
    7.8018  -14.4273   24.3844 N   0  0  0  0  0  0  0  0  0  0  0  0
    8.7534  -15.0022   26.5526 C   0  0  0  0  0  0  0  0  0  0  0  0
    7.9511  -15.9329   26.8436 O   0  0  0  0  0  0  0  0  0  0  0  0
   11.8615  -17.8387   21.8221 O   0  0  0  0  0  0  0  0  0  0  0  0
   11.8637  -17.5315   23.1664 C   0  0  0  0  0  0  0  0  0  0  0  0
   11.4077  -18.4735   24.0551 C   0  0  0  0  0  0  0  0  0  0  0  0
   11.3987  -18.1929   25.4103 C   0  0  0  0  0  0  0  0  0  0  0  0
   11.8344  -16.9869   25.9266 C   0  0  0  0  0  0  0  0  0  0  0  0
   11.8393  -16.6425   27.3463 C   0  0  0  0  0  0  0  0  0  0  0  0
   10.5004  -16.2058   27.8892 C   0  0  2  0  0  0  0  0  0  0  0  0
   10.0438  -15.0566   27.1017 N   0  0  0  0  0  0  0  0  0  0  0  0
   10.4992  -15.8740   29.3140 C   0  0  0  0  0  0  0  0  0  0  0  0
   10.2047  -14.5962   29.8222 O   0  0  0  0  0  0  0  0  0  0  0  0
   12.2904  -16.0528   25.0025 C   0  0  0  0  0  0  0  0  0  0  0  0
   12.3047  -16.3195   23.6508 C   0  0  0  0  0  0  0  0  0  0  0  0
   10.7806  -16.7935   30.1436 O   0  0  0  0  0  0  0  0  0  0  0  0
  2  1  1  6
  2  3  1  0
  4  5  1  0
  4  2  1  0
  5  6  1  1
  7 13  1  0
  7  5  1  0
  8  7  2  0
 10  9  1  1
 11 10  1  0
 12 14  1  0
 12 10  1  0
 12 13  1  6
 14 15  2  0
 16 17  1  0
 17 27  2  0
 17 18  1  0
 18 19  2  0
 19 20  1  0
 20 21  1  0
 22 21  1  6
 22 24  1  0
 23 22  1  0
 23 14  1  0
 24 25  1  0
 26 20  2  0
 27 26  1  0
 28 24  2  0
M  END
$$$$
