LVY.pdb
     RDKit          3D

 28 28  0  0  1  0  0  0  0  0999 V2000
    7.2551  -12.1976   21.6110 C   0  0  0  0  0  0  0  0  0  0  0  0
    7.9706  -13.3627   21.0062 C   0  0  2  0  0  0  0  0  0  0  0  0
    8.2549  -13.0536   19.5485 C   0  0  0  0  0  0  0  0  0  0  0  0
    7.2244  -14.6411   21.1842 C   0  0  0  0  0  0  0  0  0  0  0  0
    7.9659  -15.8652   20.7252 C   0  0  2  0  0  0  0  0  0  0  0  0
    7.1033  -16.7546   19.9728 N   0  0  0  0  0  0  0  0  0  0  0  0
    8.5001  -16.5462   21.9360 C   0  0  0  0  0  0  0  0  0  0  0  0
    7.7231  -17.2258   22.6643 O   0  0  0  0  0  0  0  0  0  0  0  0
   12.1140  -18.7285   24.3643 C   0  0  0  0  0  0  0  0  0  0  0  0
   11.6542  -17.9484   23.1573 C   0  0  1  0  0  0  0  0  0  0  0  0
   11.5447  -18.9000   21.9952 C   0  0  0  0  0  0  0  0  0  0  0  0
   10.3368  -17.2634   23.4522 C   0  0  2  0  0  0  0  0  0  0  0  0
    9.8596  -16.4890   22.3487 N   0  0  0  0  0  0  0  0  0  0  0  0
   10.4522  -16.5008   24.7121 C   0  0  0  0  0  0  0  0  0  0  0  0
   11.2439  -15.5170   24.7071 O   0  0  0  0  0  0  0  0  0  0  0  0
    6.5452  -11.1443   24.9389 O   0  0  0  0  0  0  0  0  0  0  0  0
    7.0700  -12.2299   25.6081 C   0  0  0  0  0  0  0  0  0  0  0  0
    8.1299  -12.0272   26.4570 C   0  0  0  0  0  0  0  0  0  0  0  0
    8.6768  -13.0981   27.1421 C   0  0  0  0  0  0  0  0  0  0  0  0
    8.2007  -14.3894   27.0129 C   0  0  0  0  0  0  0  0  0  0  0  0
    8.7471  -15.5515   27.7096 C   0  0  0  0  0  0  0  0  0  0  0  0
   10.0519  -16.0617   27.1481 C   0  0  2  0  0  0  0  0  0  0  0  0
    9.7613  -16.7773   25.9020 N   0  0  0  0  0  0  0  0  0  0  0  0
   10.8129  -16.9191   28.0569 C   0  0  0  0  0  0  0  0  0  0  0  0
   11.6010  -16.4358   29.1166 O   0  0  0  0  0  0  0  0  0  0  0  0
    7.1270  -14.5637   26.1462 C   0  0  0  0  0  0  0  0  0  0  0  0
    6.5732  -13.5062   25.4583 C   0  0  0  0  0  0  0  0  0  0  0  0
   10.7602  -18.1757   27.8802 O   0  0  0  0  0  0  0  0  0  0  0  0
  2  1  1  6
  2  3  1  0
  4  5  1  0
  4  2  1  0
  5  6  1  1
  7 13  1  0
  7  5  1  0
  8  7  2  0
 10  9  1  1
 11 10  1  0
 12 14  1  0
 12 10  1  0
 12 13  1  6
 14 15  2  0
 16 17  1  0
 17 27  2  0
 17 18  1  0
 18 19  2  0
 19 20  1  0
 20 21  1  0
 22 21  1  1
 22 24  1  0
 23 22  1  0
 23 14  1  0
 24 25  1  0
 26 20  2  0
 27 26  1  0
 28 24  2  0
M  END
$$$$
