LVY.pdb
     RDKit          3D

 28 28  0  0  1  0  0  0  0  0999 V2000
    4.6358  -12.0163   25.4731 C   0  0  0  0  0  0  0  0  0  0  0  0
    5.7541  -12.4611   26.3601 C   0  0  2  0  0  0  0  0  0  0  0  0
    6.4258  -11.2335   26.9461 C   0  0  0  0  0  0  0  0  0  0  0  0
    6.7152  -13.3565   25.6552 C   0  0  0  0  0  0  0  0  0  0  0  0
    6.0935  -14.5804   25.0430 C   0  0  2  0  0  0  0  0  0  0  0  0
    5.6534  -15.5147   26.0602 N   0  0  0  0  0  0  0  0  0  0  0  0
    7.1126  -15.2055   24.1566 C   0  0  0  0  0  0  0  0  0  0  0  0
    7.8141  -16.1629   24.5895 O   0  0  0  0  0  0  0  0  0  0  0  0
    9.3245  -15.7949   19.7724 C   0  0  0  0  0  0  0  0  0  0  0  0
    8.3579  -14.9692   20.5852 C   0  0  1  0  0  0  0  0  0  0  0  0
    6.9845  -15.1288   19.9884 C   0  0  0  0  0  0  0  0  0  0  0  0
    8.3970  -15.4012   22.0355 C   0  0  2  0  0  0  0  0  0  0  0  0
    7.3653  -14.7952   22.8188 N   0  0  0  0  0  0  0  0  0  0  0  0
    9.7569  -15.1912   22.5730 C   0  0  0  0  0  0  0  0  0  0  0  0
   10.1376  -13.9934   22.6958 O   0  0  0  0  0  0  0  0  0  0  0  0
   11.7643  -15.7119   30.6766 O   0  0  0  0  0  0  0  0  0  0  0  0
   11.3575  -15.8183   29.3633 C   0  0  0  0  0  0  0  0  0  0  0  0
   11.1611  -17.0710   28.8369 C   0  0  0  0  0  0  0  0  0  0  0  0
   10.7526  -17.2080   27.5217 C   0  0  0  0  0  0  0  0  0  0  0  0
   10.5273  -16.1251   26.6926 C   0  0  0  0  0  0  0  0  0  0  0  0
   10.1012  -16.2189   25.2984 C   0  0  0  0  0  0  0  0  0  0  0  0
   11.2319  -16.2549   24.2993 C   0  0  2  0  0  0  0  0  0  0  0  0
   10.6513  -16.2033   22.9541 N   0  0  0  0  0  0  0  0  0  0  0  0
   12.1179  -17.4125   24.4227 C   0  0  0  0  0  0  0  0  0  0  0  0
   11.9121  -18.6332   23.7555 O   0  0  0  0  0  0  0  0  0  0  0  0
   10.7344  -14.8694   27.2535 C   0  0  0  0  0  0  0  0  0  0  0  0
   11.1409  -14.7190   28.5613 C   0  0  0  0  0  0  0  0  0  0  0  0
   13.1345  -17.3112   25.1771 O   0  0  0  0  0  0  0  0  0  0  0  0
  2  1  1  6
  2  3  1  0
  4  5  1  0
  4  2  1  0
  5  6  1  1
  7 13  1  0
  7  5  1  0
  8  7  2  0
 10  9  1  6
 11 10  1  0
 12 14  1  0
 12 10  1  0
 12 13  1  1
 14 15  2  0
 16 17  1  0
 17 27  2  0
 17 18  1  0
 18 19  2  0
 19 20  1  0
 20 21  1  0
 22 21  1  1
 22 24  1  0
 23 22  1  0
 23 14  1  0
 24 25  1  0
 26 20  2  0
 27 26  1  0
 28 24  2  0
M  END
$$$$
