DRL.pdb
     RDKit          3D

 28 27  0  0  1  0  0  0  0  0999 V2000
    9.5600  -13.3137   19.3479 N   0  0  0  0  0  0  0  0  0  0  0  0
    8.1694  -13.5206   19.6984 C   0  0  1  0  0  0  0  0  0  0  0  0
    7.3498  -13.9558   18.5033 C   0  0  0  0  0  0  0  0  0  0  0  0
    8.0523  -13.7290   17.2318 C   0  0  0  0  0  0  0  0  0  0  0  0
    9.2093  -14.1970   17.0830 O   0  0  0  0  0  0  0  0  0  0  0  0
    8.0162  -14.5171   20.7910 C   0  0  0  0  0  0  0  0  0  0  0  0
    6.8607  -14.7362   21.2057 O   0  0  0  0  0  0  0  0  0  0  0  0
    7.4260  -13.0109   16.2379 O   0  0  0  0  0  0  0  0  0  0  0  0
    9.5472  -20.7507   19.3450 N   0  0  0  0  0  0  0  0  0  0  0  0
   10.8001  -20.1500   19.0341 C   0  0  0  0  0  0  0  0  0  0  0  0
   11.3937  -20.2991   17.8964 N   0  0  0  0  0  0  0  0  0  0  0  0
   11.4631  -19.3359   20.0032 N   0  0  0  0  0  0  0  0  0  0  0  0
   10.9095  -19.2993   21.3713 C   0  0  0  0  0  0  0  0  0  0  0  0
    9.9350  -18.1295   21.3982 C   0  0  0  0  0  0  0  0  0  0  0  0
   10.2302  -17.1057   22.4245 C   0  0  0  0  0  0  0  0  0  0  0  0
    9.1960  -16.0145   22.4494 C   0  0  2  0  0  0  0  0  0  0  0  0
    9.1551  -15.1609   21.3042 N   0  0  0  0  0  0  0  0  0  0  0  0
    9.1424  -15.2823   23.7351 C   0  0  0  0  0  0  0  0  0  0  0  0
    9.2008  -14.0189   23.6850 O   0  0  0  0  0  0  0  0  0  0  0  0
   12.3401  -19.8468   17.8050 C   0  0  0  0  0  0  0  0  0  0  0  0
    6.1504  -12.2954   25.8215 C   0  0  1  0  0  0  0  0  0  0  0  0
    7.5992  -12.8673   25.8752 C   0  0  0  0  0  0  0  0  0  0  0  0
    8.2840  -12.1274   27.0236 C   0  0  0  0  0  0  0  0  0  0  0  0
    7.5232  -14.3352   26.0287 C   0  0  2  0  0  0  0  0  0  0  0  0
    8.7361  -15.1427   26.2207 N   0  0  0  0  0  0  0  0  0  0  0  0
    9.0322  -15.8978   24.9883 C   0  0  0  0  0  0  0  0  0  0  0  0
    8.8491  -16.0722   27.3281 O   0  0  0  0  0  0  0  0  0  0  0  0
    8.5437  -17.2894   27.3100 O   0  0  0  0  0  0  0  0  0  0  0  0
  2  1  1  6
  2  3  1  0
  3  4  1  0
  4  5  2  0
  4  8  1  0
  6  7  2  0
  6  2  1  0
  9 10  1  0
 10 12  1  0
 11 10  2  0
 12 13  1  0
 14 13  1  0
 14 15  1  0
 16 15  1  1
 16 17  1  0
 17  6  1  0
 18 16  1  0
 19 18  2  0
 21 20  1  6
 21 22  1  0
 23 21  1  0
 24 23  1  6
 24 25  1  0
 25 18  1  0
 26 28  1  0
 26 24  1  0
 27 26  2  0
M  END
$$$$
