DRL.pdb
     RDKit          3D

 28 27  0  0  1  0  0  0  0  0999 V2000
    9.6363  -15.1565   19.1241 N   0  0  0  0  0  0  0  0  0  0  0  0
    8.8687  -14.0721   19.7021 C   0  0  1  0  0  0  0  0  0  0  0  0
    7.8083  -13.5667   18.7485 C   0  0  0  0  0  0  0  0  0  0  0  0
    8.0587  -13.9858   17.3618 C   0  0  0  0  0  0  0  0  0  0  0  0
    9.0268  -14.7506   17.1217 O   0  0  0  0  0  0  0  0  0  0  0  0
    8.2302  -14.4680   20.9850 C   0  0  0  0  0  0  0  0  0  0  0  0
    7.5474  -13.6058   21.5727 O   0  0  0  0  0  0  0  0  0  0  0  0
    7.2278  -13.5306   16.3626 O   0  0  0  0  0  0  0  0  0  0  0  0
    6.6640  -20.8400   27.7981 N   0  0  0  0  0  0  0  0  0  0  0  0
    7.1842  -20.5500   26.5050 C   0  0  0  0  0  0  0  0  0  0  0  0
    8.3983  -20.8178   26.1538 N   0  0  0  0  0  0  0  0  0  0  0  0
    6.3520  -19.9327   25.5211 N   0  0  0  0  0  0  0  0  0  0  0  0
    6.9157  -19.7191   24.1735 C   0  0  0  0  0  0  0  0  0  0  0  0
    7.2631  -18.2388   24.0940 C   0  0  0  0  0  0  0  0  0  0  0  0
    7.7386  -17.7883   22.7675 C   0  0  0  0  0  0  0  0  0  0  0  0
    7.8914  -16.2940   22.6985 C   0  0  2  0  0  0  0  0  0  0  0  0
    8.4163  -15.7714   21.4765 N   0  0  0  0  0  0  0  0  0  0  0  0
    8.5137  -15.7087   23.9076 C   0  0  0  0  0  0  0  0  0  0  0  0
    9.7761  -15.7530   23.9887 O   0  0  0  0  0  0  0  0  0  0  0  0
    8.6750  -20.5231   25.1817 C   0  0  0  0  0  0  0  0  0  0  0  0
    5.8095  -11.7329   26.7978 C   0  0  2  0  0  0  0  0  0  0  0  0
    6.8444  -12.4727   25.8973 C   0  0  0  0  0  0  0  0  0  0  0  0
    7.7400  -11.3750   25.3243 C   0  0  0  0  0  0  0  0  0  0  0  0
    7.5394  -13.4903   26.7131 C   0  0  2  0  0  0  0  0  0  0  0  0
    8.4578  -14.4591   26.0982 N   0  0  0  0  0  0  0  0  0  0  0  0
    7.7966  -15.1158   24.9545 C   0  0  0  0  0  0  0  0  0  0  0  0
    9.0824  -15.5034   26.8870 O   0  0  0  0  0  0  0  0  0  0  0  0
   10.1392  -15.3975   27.5556 O   0  0  0  0  0  0  0  0  0  0  0  0
  2  1  1  6
  2  3  1  0
  3  4  1  0
  4  5  2  0
  4  8  1  0
  6  7  2  0
  6  2  1  0
  9 10  1  0
 10 12  1  0
 11 10  2  0
 12 13  1  0
 14 13  1  0
 14 15  1  0
 16 15  1  6
 16 17  1  0
 17  6  1  0
 18 16  1  0
 19 18  2  0
 21 20  1  6
 21 22  1  0
 23 21  1  0
 24 23  1  6
 24 25  1  0
 25 18  1  0
 26 28  1  0
 26 24  1  0
 27 26  2  0
M  END
$$$$
