DRL.pdb
     RDKit          3D

 28 27  0  0  1  0  0  0  0  0999 V2000
    9.7787  -18.4559   21.0759 N   0  0  0  0  0  0  0  0  0  0  0  0
   10.9383  -17.5885   21.0287 C   0  0  1  0  0  0  0  0  0  0  0  0
   11.6475  -17.6742   19.6949 C   0  0  0  0  0  0  0  0  0  0  0  0
   12.2967  -18.9774   19.4903 C   0  0  0  0  0  0  0  0  0  0  0  0
   12.1469  -19.8756   20.3567 O   0  0  0  0  0  0  0  0  0  0  0  0
   10.5822  -16.1723   21.3079 C   0  0  0  0  0  0  0  0  0  0  0  0
   11.5217  -15.3723   21.4877 O   0  0  0  0  0  0  0  0  0  0  0  0
   13.0512  -19.1807   18.3567 O   0  0  0  0  0  0  0  0  0  0  0  0
    8.4283  -15.6869   16.8168 N   0  0  0  0  0  0  0  0  0  0  0  0
    8.1915  -14.4003   16.2549 C   0  0  0  0  0  0  0  0  0  0  0  0
    8.2751  -14.1542   14.9894 N   0  0  0  0  0  0  0  0  0  0  0  0
    7.8420  -13.3034   17.1013 N   0  0  0  0  0  0  0  0  0  0  0  0
    8.4877  -13.2187   18.4261 C   0  0  0  0  0  0  0  0  0  0  0  0
    7.9077  -14.3609   19.2493 C   0  0  0  0  0  0  0  0  0  0  0  0
    7.6288  -14.0220   20.6621 C   0  0  0  0  0  0  0  0  0  0  0  0
    8.7285  -14.4771   21.5810 C   0  0  2  0  0  0  0  0  0  0  0  0
    9.2289  -15.7967   21.3575 N   0  0  0  0  0  0  0  0  0  0  0  0
    8.4667  -14.1775   23.0071 C   0  0  0  0  0  0  0  0  0  0  0  0
    7.6207  -13.2714   23.2628 O   0  0  0  0  0  0  0  0  0  0  0  0
    8.1041  -13.1567   14.6994 C   0  0  0  0  0  0  0  0  0  0  0  0
    7.9861  -11.9071   27.1862 C   0  0  2  0  0  0  0  0  0  0  0  0
    7.1570  -13.2003   26.9226 C   0  0  0  0  0  0  0  0  0  0  0  0
    5.6941  -12.7642   26.9915 C   0  0  0  0  0  0  0  0  0  0  0  0
    7.5812  -13.7792   25.6307 C   0  0  1  0  0  0  0  0  0  0  0  0
    8.8943  -14.4221   25.4810 N   0  0  0  0  0  0  0  0  0  0  0  0
    9.0924  -14.8297   24.0771 C   0  0  0  0  0  0  0  0  0  0  0  0
    9.2749  -15.5494   26.3102 O   0  0  0  0  0  0  0  0  0  0  0  0
    9.9518  -15.4996   27.3659 O   0  0  0  0  0  0  0  0  0  0  0  0
  2  1  1  6
  2  3  1  0
  3  4  1  0
  4  5  2  0
  4  8  1  0
  6  7  2  0
  6  2  1  0
  9 10  1  0
 10 12  1  0
 11 10  2  0
 12 13  1  0
 14 13  1  0
 14 15  1  0
 16 15  1  6
 16 17  1  0
 17  6  1  0
 18 16  1  0
 19 18  2  0
 21 20  1  1
 21 22  1  0
 23 21  1  0
 24 23  1  6
 24 25  1  0
 25 18  1  0
 26 28  1  0
 26 24  1  0
 27 26  2  0
M  END
$$$$
