DRL.pdb
     RDKit          3D

 28 27  0  0  1  0  0  0  0  0999 V2000
   12.4787  -19.2028   22.0777 N   0  0  0  0  0  0  0  0  0  0  0  0
   12.9777  -17.8429   22.1094 C   0  0  1  0  0  0  0  0  0  0  0  0
   13.8657  -17.5447   20.9212 C   0  0  0  0  0  0  0  0  0  0  0  0
   15.1527  -18.2518   20.9946 C   0  0  0  0  0  0  0  0  0  0  0  0
   15.5930  -18.8243   19.9658 O   0  0  0  0  0  0  0  0  0  0  0  0
   11.8732  -16.8490   22.1615 C   0  0  0  0  0  0  0  0  0  0  0  0
   12.1885  -15.6430   22.1252 O   0  0  0  0  0  0  0  0  0  0  0  0
   15.8421  -18.2689   22.1863 O   0  0  0  0  0  0  0  0  0  0  0  0
    9.2031  -13.6708   17.3509 N   0  0  0  0  0  0  0  0  0  0  0  0
    7.8760  -13.4961   17.8362 C   0  0  0  0  0  0  0  0  0  0  0  0
    6.9868  -12.7849   17.2258 N   0  0  0  0  0  0  0  0  0  0  0  0
    7.4718  -14.1231   19.0549 N   0  0  0  0  0  0  0  0  0  0  0  0
    8.2029  -15.3304   19.4874 C   0  0  0  0  0  0  0  0  0  0  0  0
    7.5488  -15.7729   20.7893 C   0  0  0  0  0  0  0  0  0  0  0  0
    8.2156  -16.9121   21.4573 C   0  0  0  0  0  0  0  0  0  0  0  0
    9.3788  -16.4711   22.3020 C   0  0  2  0  0  0  0  0  0  0  0  0
   10.5439  -17.2966   22.2478 N   0  0  0  0  0  0  0  0  0  0  0  0
    8.9941  -16.0806   23.6772 C   0  0  0  0  0  0  0  0  0  0  0  0
    9.3107  -16.8710   24.6138 O   0  0  0  0  0  0  0  0  0  0  0  0
    6.0432  -12.7258   17.6891 C   0  0  0  0  0  0  0  0  0  0  0  0
    7.1067  -10.9547   26.5335 C   0  0  2  0  0  0  0  0  0  0  0  0
    7.1922  -12.4981   26.7337 C   0  0  0  0  0  0  0  0  0  0  0  0
    5.8111  -12.9183   27.2349 C   0  0  0  0  0  0  0  0  0  0  0  0
    7.6151  -13.1177   25.4604 C   0  0  1  0  0  0  0  0  0  0  0  0
    7.9465  -14.5475   25.3847 N   0  0  0  0  0  0  0  0  0  0  0  0
    8.3088  -14.9023   23.9993 C   0  0  0  0  0  0  0  0  0  0  0  0
    7.0178  -15.5572   25.8547 O   0  0  0  0  0  0  0  0  0  0  0  0
    6.0366  -16.0163   25.2208 O   0  0  0  0  0  0  0  0  0  0  0  0
  2  1  1  6
  2  3  1  0
  3  4  1  0
  4  5  2  0
  4  8  1  0
  6  7  2  0
  6  2  1  0
  9 10  1  0
 10 12  1  0
 11 10  2  0
 12 13  1  0
 14 13  1  0
 14 15  1  0
 16 15  1  1
 16 17  1  0
 17  6  1  0
 18 16  1  0
 19 18  2  0
 21 20  1  1
 21 22  1  0
 23 21  1  0
 24 23  1  1
 24 25  1  0
 25 18  1  0
 26 28  1  0
 26 24  1  0
 27 26  2  0
M  END
$$$$
