DRL.pdb
     RDKit          3D

 28 27  0  0  1  0  0  0  0  0999 V2000
   12.4948  -18.5433   20.7859 N   0  0  0  0  0  0  0  0  0  0  0  0
   13.3467  -17.7543   21.6527 C   0  0  1  0  0  0  0  0  0  0  0  0
   14.3045  -16.8911   20.8611 C   0  0  0  0  0  0  0  0  0  0  0  0
   15.4176  -17.6668   20.2945 C   0  0  0  0  0  0  0  0  0  0  0  0
   15.4771  -18.9018   20.5209 O   0  0  0  0  0  0  0  0  0  0  0  0
   12.5561  -16.8965   22.5743 C   0  0  0  0  0  0  0  0  0  0  0  0
   13.1909  -16.1335   23.3293 O   0  0  0  0  0  0  0  0  0  0  0  0
   16.3651  -17.0220   19.5314 O   0  0  0  0  0  0  0  0  0  0  0  0
    7.0955  -12.9926   20.6409 N   0  0  0  0  0  0  0  0  0  0  0  0
    7.6605  -13.5339   19.4515 C   0  0  0  0  0  0  0  0  0  0  0  0
    7.9024  -12.8273   18.3973 N   0  0  0  0  0  0  0  0  0  0  0  0
    7.9890  -14.9228   19.3834 N   0  0  0  0  0  0  0  0  0  0  0  0
    7.7896  -15.7411   20.5959 C   0  0  0  0  0  0  0  0  0  0  0  0
    8.8602  -15.2960   21.5830 C   0  0  0  0  0  0  0  0  0  0  0  0
    8.8668  -16.0405   22.8615 C   0  0  0  0  0  0  0  0  0  0  0  0
   10.2588  -16.2374   23.3947 C   0  0  2  0  0  0  0  0  0  0  0  0
   11.1531  -16.9761   22.5602 N   0  0  0  0  0  0  0  0  0  0  0  0
   10.2925  -16.6563   24.8143 C   0  0  0  0  0  0  0  0  0  0  0  0
    9.8731  -17.8194   25.0852 O   0  0  0  0  0  0  0  0  0  0  0  0
    8.3696  -13.3308   17.5994 C   0  0  0  0  0  0  0  0  0  0  0  0
    8.2000  -12.5907   27.1894 C   0  0  1  0  0  0  0  0  0  0  0  0
    9.4965  -13.4429   27.0406 C   0  0  0  0  0  0  0  0  0  0  0  0
   10.5304  -12.7673   27.9406 C   0  0  0  0  0  0  0  0  0  0  0  0
    9.1830  -14.8455   27.3846 C   0  0  2  0  0  0  0  0  0  0  0  0
   10.1836  -15.9096   27.2213 N   0  0  0  0  0  0  0  0  0  0  0  0
   10.7556  -15.8512   25.8626 C   0  0  0  0  0  0  0  0  0  0  0  0
    9.8516  -17.2963   27.4852 O   0  0  0  0  0  0  0  0  0  0  0  0
    9.2578  -18.0793   26.7045 O   0  0  0  0  0  0  0  0  0  0  0  0
  2  1  1  6
  2  3  1  0
  3  4  1  0
  4  5  2  0
  4  8  1  0
  6  7  2  0
  6  2  1  0
  9 10  1  0
 10 12  1  0
 11 10  2  0
 12 13  1  0
 14 13  1  0
 14 15  1  0
 16 15  1  6
 16 17  1  0
 17  6  1  0
 18 16  1  0
 19 18  2  0
 21 20  1  6
 21 22  1  0
 23 21  1  0
 24 23  1  1
 24 25  1  0
 25 18  1  0
 26 28  1  0
 26 24  1  0
 27 26  2  0
M  END
$$$$
