DRL.pdb
     RDKit          3D

 28 27  0  0  1  0  0  0  0  0999 V2000
   13.6369  -17.3677   21.4729 N   0  0  0  0  0  0  0  0  0  0  0  0
   13.6077  -16.8289   22.8175 C   0  0  1  0  0  0  0  0  0  0  0  0
   14.8235  -15.9755   23.1050 C   0  0  0  0  0  0  0  0  0  0  0  0
   16.0618  -16.7665   23.1554 C   0  0  0  0  0  0  0  0  0  0  0  0
   16.0072  -17.9997   22.9186 O   0  0  0  0  0  0  0  0  0  0  0  0
   12.3766  -16.0343   23.0689 C   0  0  0  0  0  0  0  0  0  0  0  0
   12.4757  -14.7928   23.0054 O   0  0  0  0  0  0  0  0  0  0  0  0
   17.2481  -16.1375   23.4602 O   0  0  0  0  0  0  0  0  0  0  0  0
    8.1468  -14.8729   17.1642 N   0  0  0  0  0  0  0  0  0  0  0  0
    7.7859  -13.8481   18.0842 C   0  0  0  0  0  0  0  0  0  0  0  0
    7.4056  -12.6691   17.7174 N   0  0  0  0  0  0  0  0  0  0  0  0
    7.8344  -14.0993   19.4900 N   0  0  0  0  0  0  0  0  0  0  0  0
    8.4412  -15.3655   19.9459 C   0  0  0  0  0  0  0  0  0  0  0  0
    8.4418  -15.3063   21.4675 C   0  0  0  0  0  0  0  0  0  0  0  0
    9.0207  -16.4959   22.1298 C   0  0  0  0  0  0  0  0  0  0  0  0
    9.8639  -16.1274   23.3189 C   0  0  2  0  0  0  0  0  0  0  0  0
   11.1731  -16.6981   23.3624 N   0  0  0  0  0  0  0  0  0  0  0  0
    9.1377  -16.2145   24.6062 C   0  0  0  0  0  0  0  0  0  0  0  0
    9.4241  -17.1836   25.3684 O   0  0  0  0  0  0  0  0  0  0  0  0
    7.1724  -11.9957   18.4924 C   0  0  0  0  0  0  0  0  0  0  0  0
    6.5600  -11.8080   26.9340 C   0  0  1  0  0  0  0  0  0  0  0  0
    7.5234  -13.0152   26.7245 C   0  0  0  0  0  0  0  0  0  0  0  0
    8.5097  -12.9528   27.8901 C   0  0  0  0  0  0  0  0  0  0  0  0
    6.7204  -14.2532   26.6449 C   0  0  2  0  0  0  0  0  0  0  0  0
    7.3232  -15.5233   26.2164 N   0  0  0  0  0  0  0  0  0  0  0  0
    8.1643  -15.2989   25.0253 C   0  0  0  0  0  0  0  0  0  0  0  0
    6.5025  -16.6879   25.9459 O   0  0  0  0  0  0  0  0  0  0  0  0
    6.1414  -17.0954   24.8151 O   0  0  0  0  0  0  0  0  0  0  0  0
  2  1  1  6
  2  3  1  0
  3  4  1  0
  4  5  2  0
  4  8  1  0
  6  7  2  0
  6  2  1  0
  9 10  1  0
 10 12  1  0
 11 10  2  0
 12 13  1  0
 14 13  1  0
 14 15  1  0
 16 15  1  6
 16 17  1  0
 17  6  1  0
 18 16  1  0
 19 18  2  0
 21 20  1  6
 21 22  1  0
 23 21  1  0
 24 23  1  1
 24 25  1  0
 25 18  1  0
 26 28  1  0
 26 24  1  0
 27 26  2  0
M  END
$$$$
