DRL.pdb
     RDKit          3D

 28 27  0  0  1  0  0  0  0  0999 V2000
    7.9679  -20.4192   23.9307 N   0  0  0  0  0  0  0  0  0  0  0  0
    9.3932  -20.1686   23.8591 C   0  0  1  0  0  0  0  0  0  0  0  0
   10.0816  -21.1205   22.9055 C   0  0  0  0  0  0  0  0  0  0  0  0
   10.0156  -22.5157   23.3645 C   0  0  0  0  0  0  0  0  0  0  0  0
    9.3501  -22.7872   24.3956 O   0  0  0  0  0  0  0  0  0  0  0  0
    9.6896  -18.7681   23.4579 C   0  0  0  0  0  0  0  0  0  0  0  0
   10.8825  -18.4773   23.2397 O   0  0  0  0  0  0  0  0  0  0  0  0
   10.6836  -23.4880   22.6544 O   0  0  0  0  0  0  0  0  0  0  0  0
    8.5450  -13.5277   17.4619 N   0  0  0  0  0  0  0  0  0  0  0  0
    8.5600  -12.5750   18.5198 C   0  0  0  0  0  0  0  0  0  0  0  0
    8.7405  -11.3098   18.3306 N   0  0  0  0  0  0  0  0  0  0  0  0
    8.3696  -13.0021   19.8699 N   0  0  0  0  0  0  0  0  0  0  0  0
    8.0169  -14.4163   20.1049 C   0  0  0  0  0  0  0  0  0  0  0  0
    7.8863  -14.5708   21.6141 C   0  0  0  0  0  0  0  0  0  0  0  0
    7.6327  -15.9546   22.0718 C   0  0  0  0  0  0  0  0  0  0  0  0
    8.7526  -16.4828   22.9249 C   0  0  2  0  0  0  0  0  0  0  0  0
    8.6367  -17.8445   23.3421 N   0  0  0  0  0  0  0  0  0  0  0  0
    9.1482  -15.5620   24.0147 C   0  0  0  0  0  0  0  0  0  0  0  0
    9.8055  -14.5298   23.6909 O   0  0  0  0  0  0  0  0  0  0  0  0
    8.8032  -10.7161   19.1978 C   0  0  0  0  0  0  0  0  0  0  0  0
    6.0155  -13.1570   26.5764 C   0  0  1  0  0  0  0  0  0  0  0  0
    7.3320  -13.4626   25.8001 C   0  0  0  0  0  0  0  0  0  0  0  0
    7.6378  -12.1930   25.0064 C   0  0  0  0  0  0  0  0  0  0  0  0
    8.3715  -13.8638   26.7709 C   0  0  2  0  0  0  0  0  0  0  0  0
    9.3653  -14.8939   26.4374 N   0  0  0  0  0  0  0  0  0  0  0  0
    8.8417  -15.7631   25.3664 C   0  0  0  0  0  0  0  0  0  0  0  0
    9.9160  -15.7620   27.4602 O   0  0  0  0  0  0  0  0  0  0  0  0
   10.4513  -15.3966   28.5350 O   0  0  0  0  0  0  0  0  0  0  0  0
  2  1  1  6
  2  3  1  0
  3  4  1  0
  4  5  2  0
  4  8  1  0
  6  7  2  0
  6  2  1  0
  9 10  1  0
 10 12  1  0
 11 10  2  0
 12 13  1  0
 14 13  1  0
 14 15  1  0
 16 15  1  1
 16 17  1  0
 17  6  1  0
 18 16  1  0
 19 18  2  0
 21 20  1  6
 21 22  1  0
 23 21  1  0
 24 23  1  6
 24 25  1  0
 25 18  1  0
 26 28  1  0
 26 24  1  0
 27 26  2  0
M  END
$$$$
