DRL.pdb
     RDKit          3D

 28 27  0  0  1  0  0  0  0  0999 V2000
    9.7101  -15.0536   18.5828 N   0  0  0  0  0  0  0  0  0  0  0  0
    8.8731  -14.0404   19.1929 C   0  0  1  0  0  0  0  0  0  0  0  0
    7.7523  -13.6112   18.2716 C   0  0  0  0  0  0  0  0  0  0  0  0
    8.0836  -13.8192   16.8544 C   0  0  0  0  0  0  0  0  0  0  0  0
    9.1778  -14.3620   16.5577 O   0  0  0  0  0  0  0  0  0  0  0  0
    8.3004  -14.5002   20.4856 C   0  0  0  0  0  0  0  0  0  0  0  0
    7.6183  -13.6801   21.1315 O   0  0  0  0  0  0  0  0  0  0  0  0
    7.1885  -13.4148   15.8895 O   0  0  0  0  0  0  0  0  0  0  0  0
    8.1073  -19.5585   26.9075 N   0  0  0  0  0  0  0  0  0  0  0  0
    7.1853  -20.1904   26.0257 C   0  0  0  0  0  0  0  0  0  0  0  0
    6.0995  -20.7631   26.4283 N   0  0  0  0  0  0  0  0  0  0  0  0
    7.4402  -20.2123   24.6199 N   0  0  0  0  0  0  0  0  0  0  0  0
    8.7187  -19.6516   24.1398 C   0  0  0  0  0  0  0  0  0  0  0  0
    8.4538  -18.1773   23.8664 C   0  0  0  0  0  0  0  0  0  0  0  0
    8.6969  -17.7568   22.4690 C   0  0  0  0  0  0  0  0  0  0  0  0
    8.4170  -16.2941   22.2612 C   0  0  2  0  0  0  0  0  0  0  0  0
    8.5442  -15.8138   20.9215 N   0  0  0  0  0  0  0  0  0  0  0  0
    9.0649  -15.4214   23.2665 C   0  0  0  0  0  0  0  0  0  0  0  0
    9.8837  -14.5554   22.8400 O   0  0  0  0  0  0  0  0  0  0  0  0
    5.4931  -21.1855   25.6784 C   0  0  0  0  0  0  0  0  0  0  0  0
    5.8397  -12.3704   26.1143 C   0  0  2  0  0  0  0  0  0  0  0  0
    7.2010  -12.1352   25.3928 C   0  0  0  0  0  0  0  0  0  0  0  0
    8.1354  -11.5745   26.4641 C   0  0  0  0  0  0  0  0  0  0  0  0
    7.6376  -13.4070   24.7797 C   0  0  2  0  0  0  0  0  0  0  0  0
    8.5742  -14.3025   25.4733 N   0  0  0  0  0  0  0  0  0  0  0  0
    8.8281  -15.4965   24.6448 C   0  0  0  0  0  0  0  0  0  0  0  0
    8.3070  -14.7672   26.8208 O   0  0  0  0  0  0  0  0  0  0  0  0
    8.7580  -14.2696   27.8810 O   0  0  0  0  0  0  0  0  0  0  0  0
  2  1  1  6
  2  3  1  0
  3  4  1  0
  4  5  2  0
  4  8  1  0
  6  7  2  0
  6  2  1  0
  9 10  1  0
 10 12  1  0
 11 10  2  0
 12 13  1  0
 14 13  1  0
 14 15  1  0
 16 15  1  6
 16 17  1  0
 17  6  1  0
 18 16  1  0
 19 18  2  0
 21 20  1  6
 21 22  1  0
 23 21  1  0
 24 23  1  6
 24 25  1  0
 25 18  1  0
 26 28  1  0
 26 24  1  0
 27 26  2  0
M  END
$$$$
