DRL.pdb
     RDKit          3D

 28 27  0  0  1  0  0  0  0  0999 V2000
   10.3694  -17.5352   19.1406 N   0  0  0  0  0  0  0  0  0  0  0  0
   10.8357  -17.2673   20.4860 C   0  0  1  0  0  0  0  0  0  0  0  0
   11.9558  -16.2502   20.4980 C   0  0  0  0  0  0  0  0  0  0  0  0
   13.2125  -16.7971   19.9659 C   0  0  0  0  0  0  0  0  0  0  0  0
   13.7483  -16.2399   18.9748 O   0  0  0  0  0  0  0  0  0  0  0  0
    9.7357  -16.8003   21.3705 C   0  0  0  0  0  0  0  0  0  0  0  0
    9.0040  -15.8879   20.9380 O   0  0  0  0  0  0  0  0  0  0  0  0
   13.7699  -17.9040   20.5658 O   0  0  0  0  0  0  0  0  0  0  0  0
    4.6338  -22.2503   23.6377 N   0  0  0  0  0  0  0  0  0  0  0  0
    5.9926  -22.0371   24.0054 C   0  0  0  0  0  0  0  0  0  0  0  0
    6.6974  -22.9088   24.6476 N   0  0  0  0  0  0  0  0  0  0  0  0
    6.6420  -20.8108   23.6644 N   0  0  0  0  0  0  0  0  0  0  0  0
    5.8667  -19.8026   22.9149 C   0  0  0  0  0  0  0  0  0  0  0  0
    6.8139  -18.6334   22.6819 C   0  0  0  0  0  0  0  0  0  0  0  0
    7.5707  -18.2061   23.8791 C   0  0  0  0  0  0  0  0  0  0  0  0
    8.5319  -17.0911   23.5730 C   0  0  2  0  0  0  0  0  0  0  0  0
    9.5657  -17.3923   22.6337 N   0  0  0  0  0  0  0  0  0  0  0  0
    9.0169  -16.3830   24.7794 C   0  0  0  0  0  0  0  0  0  0  0  0
   10.2072  -16.6103   25.1451 O   0  0  0  0  0  0  0  0  0  0  0  0
    7.7069  -22.6585   24.8111 C   0  0  0  0  0  0  0  0  0  0  0  0
    6.1103  -12.0377   26.7848 C   0  0  1  0  0  0  0  0  0  0  0  0
    7.2264  -12.8902   26.1090 C   0  0  0  0  0  0  0  0  0  0  0  0
    8.1510  -11.8809   25.4295 C   0  0  0  0  0  0  0  0  0  0  0  0
    7.8656  -13.7353   27.1392 C   0  0  2  0  0  0  0  0  0  0  0  0
    8.7432  -14.8538   26.7667 N   0  0  0  0  0  0  0  0  0  0  0  0
    8.2457  -15.4873   25.5308 C   0  0  0  0  0  0  0  0  0  0  0  0
    9.0358  -15.9203   27.7048 O   0  0  0  0  0  0  0  0  0  0  0  0
    8.5435  -17.0747   27.6938 O   0  0  0  0  0  0  0  0  0  0  0  0
  2  1  1  6
  2  3  1  0
  3  4  1  0
  4  5  2  0
  4  8  1  0
  6  7  2  0
  6  2  1  0
  9 10  1  0
 10 12  1  0
 11 10  2  0
 12 13  1  0
 14 13  1  0
 14 15  1  0
 16 15  1  1
 16 17  1  0
 17  6  1  0
 18 16  1  0
 19 18  2  0
 21 20  1  6
 21 22  1  0
 23 21  1  0
 24 23  1  6
 24 25  1  0
 25 18  1  0
 26 28  1  0
 26 24  1  0
 27 26  2  0
M  END
$$$$
