DRL.pdb
     RDKit          3D

 28 27  0  0  1  0  0  0  0  0999 V2000
   12.7568  -18.4244   22.1678 N   0  0  0  0  0  0  0  0  0  0  0  0
   13.1897  -17.2043   22.8185 C   0  0  1  0  0  0  0  0  0  0  0  0
   14.3054  -16.5273   22.0531 C   0  0  0  0  0  0  0  0  0  0  0  0
   15.5723  -17.2681   22.1406 C   0  0  0  0  0  0  0  0  0  0  0  0
   15.8412  -18.1219   21.2582 O   0  0  0  0  0  0  0  0  0  0  0  0
   12.0671  -16.2474   23.0039 C   0  0  0  0  0  0  0  0  0  0  0  0
   12.3384  -15.1405   23.5100 O   0  0  0  0  0  0  0  0  0  0  0  0
   16.4309  -17.0082   23.1852 O   0  0  0  0  0  0  0  0  0  0  0  0
    8.5683  -12.7145   17.8817 N   0  0  0  0  0  0  0  0  0  0  0  0
    8.0195  -13.8223   18.5878 C   0  0  0  0  0  0  0  0  0  0  0  0
    8.3185  -15.0505   18.3208 N   0  0  0  0  0  0  0  0  0  0  0  0
    7.0891  -13.6037   19.6500 N   0  0  0  0  0  0  0  0  0  0  0  0
    6.6483  -14.7734   20.4353 C   0  0  0  0  0  0  0  0  0  0  0  0
    7.5790  -14.8458   21.6383 C   0  0  0  0  0  0  0  0  0  0  0  0
    8.7269  -15.7646   21.4744 C   0  0  0  0  0  0  0  0  0  0  0  0
    9.5977  -15.8065   22.6994 C   0  0  2  0  0  0  0  0  0  0  0  0
   10.7701  -16.6185   22.6099 N   0  0  0  0  0  0  0  0  0  0  0  0
    8.8388  -16.0001   23.9558 C   0  0  0  0  0  0  0  0  0  0  0  0
    8.9050  -17.1397   24.5028 O   0  0  0  0  0  0  0  0  0  0  0  0
    7.9649  -15.7717   19.0014 C   0  0  0  0  0  0  0  0  0  0  0  0
    6.5892  -11.5307   26.5746 C   0  0  1  0  0  0  0  0  0  0  0  0
    7.5468  -12.7429   26.3675 C   0  0  0  0  0  0  0  0  0  0  0  0
    8.5373  -12.6793   27.5294 C   0  0  0  0  0  0  0  0  0  0  0  0
    6.7384  -13.9779   26.2962 C   0  0  2  0  0  0  0  0  0  0  0  0
    7.3213  -15.2411   25.8224 N   0  0  0  0  0  0  0  0  0  0  0  0
    8.0614  -15.0086   24.5675 C   0  0  0  0  0  0  0  0  0  0  0  0
    6.4968  -16.4167   25.6198 O   0  0  0  0  0  0  0  0  0  0  0  0
    6.0268  -16.8146   24.5262 O   0  0  0  0  0  0  0  0  0  0  0  0
  2  1  1  6
  2  3  1  0
  3  4  1  0
  4  5  2  0
  4  8  1  0
  6  7  2  0
  6  2  1  0
  9 10  1  0
 10 12  1  0
 11 10  2  0
 12 13  1  0
 14 13  1  0
 14 15  1  0
 16 15  1  6
 16 17  1  0
 17  6  1  0
 18 16  1  0
 19 18  2  0
 21 20  1  6
 21 22  1  0
 23 21  1  0
 24 23  1  1
 24 25  1  0
 25 18  1  0
 26 28  1  0
 26 24  1  0
 27 26  2  0
M  END
$$$$
