DRL.pdb
     RDKit          3D

 28 27  0  0  1  0  0  0  0  0999 V2000
   10.5712  -19.4541   21.9972 N   0  0  0  0  0  0  0  0  0  0  0  0
   11.6478  -18.5307   22.2927 C   0  0  1  0  0  0  0  0  0  0  0  0
   12.7371  -18.5870   21.2441 C   0  0  0  0  0  0  0  0  0  0  0  0
   13.3041  -19.9359   21.0997 C   0  0  0  0  0  0  0  0  0  0  0  0
   13.3136  -20.4745   19.9641 O   0  0  0  0  0  0  0  0  0  0  0  0
   11.1586  -17.1327   22.4212 C   0  0  0  0  0  0  0  0  0  0  0  0
   11.9973  -16.2598   22.7207 O   0  0  0  0  0  0  0  0  0  0  0  0
   13.8095  -20.5739   22.2102 O   0  0  0  0  0  0  0  0  0  0  0  0
    8.0809  -12.1510   17.7389 N   0  0  0  0  0  0  0  0  0  0  0  0
    8.1816  -13.5565   17.9423 C   0  0  0  0  0  0  0  0  0  0  0  0
    8.5619  -14.3796   17.0220 N   0  0  0  0  0  0  0  0  0  0  0  0
    7.8541  -14.1206   19.2136 N   0  0  0  0  0  0  0  0  0  0  0  0
    7.4115  -13.2047   20.2835 C   0  0  0  0  0  0  0  0  0  0  0  0
    7.3630  -14.0390   21.5563 C   0  0  0  0  0  0  0  0  0  0  0  0
    7.9380  -15.3958   21.4255 C   0  0  0  0  0  0  0  0  0  0  0  0
    9.1858  -15.5634   22.2477 C   0  0  2  0  0  0  0  0  0  0  0  0
    9.7983  -16.8537   22.2049 N   0  0  0  0  0  0  0  0  0  0  0  0
    9.0693  -15.0091   23.6156 C   0  0  0  0  0  0  0  0  0  0  0  0
    8.9529  -13.7533   23.7237 O   0  0  0  0  0  0  0  0  0  0  0  0
    8.6664  -15.3855   17.3147 C   0  0  0  0  0  0  0  0  0  0  0  0
    5.8871  -12.8152   25.8768 C   0  0  1  0  0  0  0  0  0  0  0  0
    7.3971  -13.1711   25.7277 C   0  0  0  0  0  0  0  0  0  0  0  0
    8.1479  -12.0733   26.4804 C   0  0  0  0  0  0  0  0  0  0  0  0
    7.6124  -14.5423   26.2350 C   0  0  2  0  0  0  0  0  0  0  0  0
    8.9249  -15.1948   26.1271 N   0  0  0  0  0  0  0  0  0  0  0  0
    9.0800  -15.7829   24.7829 C   0  0  0  0  0  0  0  0  0  0  0  0
    9.3413  -16.2019   27.0839 O   0  0  0  0  0  0  0  0  0  0  0  0
    9.3245  -16.0905   28.3338 O   0  0  0  0  0  0  0  0  0  0  0  0
  2  1  1  6
  2  3  1  0
  3  4  1  0
  4  5  2  0
  4  8  1  0
  6  7  2  0
  6  2  1  0
  9 10  1  0
 10 12  1  0
 11 10  2  0
 12 13  1  0
 14 13  1  0
 14 15  1  0
 16 15  1  1
 16 17  1  0
 17  6  1  0
 18 16  1  0
 19 18  2  0
 21 20  1  6
 21 22  1  0
 23 21  1  0
 24 23  1  6
 24 25  1  0
 25 18  1  0
 26 28  1  0
 26 24  1  0
 27 26  2  0
M  END
$$$$
