DRL.pdb
     RDKit          3D

 28 27  0  0  1  0  0  0  0  0999 V2000
   11.6622  -17.6214   19.9683 N   0  0  0  0  0  0  0  0  0  0  0  0
   10.6675  -16.6279   19.6179 C   0  0  1  0  0  0  0  0  0  0  0  0
   10.0102  -16.9378   18.2908 C   0  0  0  0  0  0  0  0  0  0  0  0
   10.9809  -17.0028   17.1884 C   0  0  0  0  0  0  0  0  0  0  0  0
   11.6983  -15.9990   16.9482 O   0  0  0  0  0  0  0  0  0  0  0  0
    9.6225  -16.4966   20.6672 C   0  0  0  0  0  0  0  0  0  0  0  0
    8.6313  -15.7886   20.4001 O   0  0  0  0  0  0  0  0  0  0  0  0
   11.0794  -18.1596   16.4482 O   0  0  0  0  0  0  0  0  0  0  0  0
    8.9102  -22.0162   20.5480 N   0  0  0  0  0  0  0  0  0  0  0  0
    7.5047  -21.8872   20.3609 C   0  0  0  0  0  0  0  0  0  0  0  0
    6.8927  -22.2866   19.2955 N   0  0  0  0  0  0  0  0  0  0  0  0
    6.6991  -21.2919   21.3798 N   0  0  0  0  0  0  0  0  0  0  0  0
    7.3787  -20.7674   22.5808 C   0  0  0  0  0  0  0  0  0  0  0  0
    7.7359  -19.3217   22.2629 C   0  0  0  0  0  0  0  0  0  0  0  0
    8.3846  -18.5894   23.3726 C   0  0  0  0  0  0  0  0  0  0  0  0
    8.8349  -17.2161   22.9578 C   0  0  2  0  0  0  0  0  0  0  0  0
    9.7877  -17.1613   21.8943 N   0  0  0  0  0  0  0  0  0  0  0  0
    9.1719  -16.3362   24.0998 C   0  0  0  0  0  0  0  0  0  0  0  0
   10.3982  -16.1942   24.3794 O   0  0  0  0  0  0  0  0  0  0  0  0
    5.8527  -22.1248   19.2706 C   0  0  0  0  0  0  0  0  0  0  0  0
    5.7279  -12.3403   26.1589 C   0  0  1  0  0  0  0  0  0  0  0  0
    6.9544  -13.0567   25.5174 C   0  0  0  0  0  0  0  0  0  0  0  0
    7.9092  -11.9360   25.1080 C   0  0  0  0  0  0  0  0  0  0  0  0
    7.5004  -14.0241   26.4921 C   0  0  2  0  0  0  0  0  0  0  0  0
    8.5820  -14.9476   26.1213 N   0  0  0  0  0  0  0  0  0  0  0  0
    8.2253  -15.6597   24.8795 C   0  0  0  0  0  0  0  0  0  0  0  0
    9.0718  -15.9412   27.0572 O   0  0  0  0  0  0  0  0  0  0  0  0
    8.7720  -17.1598   27.0710 O   0  0  0  0  0  0  0  0  0  0  0  0
  2  1  1  1
  2  3  1  0
  3  4  1  0
  4  5  2  0
  4  8  1  0
  6  7  2  0
  6  2  1  0
  9 10  1  0
 10 12  1  0
 11 10  2  0
 12 13  1  0
 14 13  1  0
 14 15  1  0
 16 15  1  1
 16 17  1  0
 17  6  1  0
 18 16  1  0
 19 18  2  0
 21 20  1  6
 21 22  1  0
 23 21  1  0
 24 23  1  6
 24 25  1  0
 25 18  1  0
 26 28  1  0
 26 24  1  0
 27 26  2  0
M  END
$$$$
