KQM.pdb
     RDKit          3D

 27 26  0  0  1  0  0  0  0  0999 V2000
    8.0451  -16.1531   19.8240 N   0  0  0  0  0  0  0  0  0  0  0  0
    7.7091  -15.2255   20.8314 C   0  0  1  0  0  0  0  0  0  0  0  0
    6.9114  -14.0264   20.4437 C   0  0  0  0  0  0  0  0  0  0  0  0
    7.0286  -13.5410   19.0586 C   0  0  0  0  0  0  0  0  0  0  0  0
    8.3570  -13.5063   18.4154 C   0  0  0  0  0  0  0  0  0  0  0  0
    8.4232  -12.9022   17.0546 C   0  0  0  0  0  0  0  0  0  0  0  0
    9.7518  -12.9923   16.5242 N   0  0  0  0  0  0  0  0  0  0  0  0
    7.1713  -15.8590   22.0884 C   0  0  0  0  0  0  0  0  0  0  0  0
    6.3226  -15.1877   22.7429 O   0  0  0  0  0  0  0  0  0  0  0  0
    5.5557  -21.1635   23.6856 N   0  0  0  0  0  0  0  0  0  0  0  0
    6.0294  -20.8867   24.9869 C   0  0  0  0  0  0  0  0  0  0  0  0
    5.6565  -21.5315   25.9990 O   0  0  0  0  0  0  0  0  0  0  0  0
    7.0233  -19.7795   25.2071 C   0  0  0  0  0  0  0  0  0  0  0  0
    7.3807  -19.1115   23.9229 C   0  0  0  0  0  0  0  0  0  0  0  0
    7.0244  -17.6456   23.8561 C   0  0  2  0  0  0  0  0  0  0  0  0
    7.5371  -17.1119   22.5741 N   0  0  0  0  0  0  0  0  0  0  0  0
    7.6485  -16.9228   24.9775 C   0  0  0  0  0  0  0  0  0  0  0  0
    7.2424  -17.1712   26.1644 O   0  0  0  0  0  0  0  0  0  0  0  0
    6.1759  -10.8691   26.4772 C   0  0  0  0  0  0  0  0  0  0  0  0
    6.8384  -12.3234   27.3361 S   0  0  0  0  0  0  0  0  0  0  0  0
    7.6397  -13.4592   26.1477 C   0  0  0  0  0  0  0  0  0  0  0  0
    8.1286  -14.6830   26.8422 C   0  0  0  0  0  0  0  0  0  0  0  0
    9.2641  -15.3605   26.1066 C   0  0  2  0  0  0  0  0  0  0  0  0
    8.6792  -15.9635   24.8926 N   0  0  0  0  0  0  0  0  0  0  0  0
    9.8231  -16.4176   26.9654 C   0  0  0  0  0  0  0  0  0  0  0  0
    9.3634  -17.5843   26.8747 O   0  0  0  0  0  0  0  0  0  0  0  0
   10.8405  -16.2429   27.8912 O   0  0  0  0  0  0  0  0  0  0  0  0
  2  3  1  0
  2  1  1  6
  4  5  1  0
  4  3  1  0
  6  5  1  0
  7  6  1  0
  8  9  2  0
  8  2  1  0
 10 11  1  0
 11 12  2  0
 13 14  1  0
 13 11  1  0
 15 14  1  1
 15 16  1  0
 16  8  1  0
 17 24  1  0
 17 15  1  0
 18 17  2  0
 19 20  1  0
 20 21  1  0
 21 22  1  0
 23 22  1  1
 23 24  1  0
 23 25  1  0
 25 27  1  0
 26 25  2  0
M  END
$$$$
