KQM.pdb
     RDKit          3D

 27 26  0  0  1  0  0  0  0  0999 V2000
    7.5931  -17.0217   19.4939 N   0  0  0  0  0  0  0  0  0  0  0  0
    8.3432  -16.2545   20.4087 C   0  0  1  0  0  0  0  0  0  0  0  0
    7.8443  -14.8928   20.7575 C   0  0  0  0  0  0  0  0  0  0  0  0
    7.3851  -14.0264   19.6593 C   0  0  0  0  0  0  0  0  0  0  0  0
    8.3011  -13.7336   18.5391 C   0  0  0  0  0  0  0  0  0  0  0  0
    7.7734  -12.8524   17.4593 C   0  0  0  0  0  0  0  0  0  0  0  0
    8.7220  -12.7363   16.3910 N   0  0  0  0  0  0  0  0  0  0  0  0
    8.7669  -17.0151   21.6385 C   0  0  0  0  0  0  0  0  0  0  0  0
    8.5074  -18.2527   21.6568 O   0  0  0  0  0  0  0  0  0  0  0  0
    9.4266  -21.2306   23.0817 N   0  0  0  0  0  0  0  0  0  0  0  0
   10.6246  -20.4859   23.1497 C   0  0  0  0  0  0  0  0  0  0  0  0
   11.6143  -20.8487   23.8338 O   0  0  0  0  0  0  0  0  0  0  0  0
   10.7559  -19.1986   22.3829 C   0  0  0  0  0  0  0  0  0  0  0  0
   11.1331  -18.0706   23.2820 C   0  0  0  0  0  0  0  0  0  0  0  0
    9.9650  -17.2899   23.8356 C   0  0  2  0  0  0  0  0  0  0  0  0
    9.4135  -16.4608   22.7403 N   0  0  0  0  0  0  0  0  0  0  0  0
   10.4152  -16.4200   24.9356 C   0  0  0  0  0  0  0  0  0  0  0  0
   10.9610  -16.9621   25.9572 O   0  0  0  0  0  0  0  0  0  0  0  0
    6.0846  -10.5718   27.0277 C   0  0  0  0  0  0  0  0  0  0  0  0
    6.2427  -12.2909   26.4700 S   0  0  0  0  0  0  0  0  0  0  0  0
    7.8613  -12.9800   26.9696 C   0  0  0  0  0  0  0  0  0  0  0  0
    8.4740  -13.7432   25.8466 C   0  0  0  0  0  0  0  0  0  0  0  0
    9.8222  -14.3302   26.2033 C   0  0  2  0  0  0  0  0  0  0  0  0
   10.3176  -15.0139   24.9923 N   0  0  0  0  0  0  0  0  0  0  0  0
    9.6423  -15.3099   27.2873 C   0  0  0  0  0  0  0  0  0  0  0  0
    9.9072  -14.9692   28.4682 O   0  0  0  0  0  0  0  0  0  0  0  0
    9.1929  -16.6116   27.1240 O   0  0  0  0  0  0  0  0  0  0  0  0
  2  3  1  0
  2  1  1  1
  4  5  1  0
  4  3  1  0
  6  5  1  0
  7  6  1  0
  8  9  2  0
  8  2  1  0
 10 11  1  0
 11 12  2  0
 13 14  1  0
 13 11  1  0
 15 14  1  6
 15 16  1  0
 16  8  1  0
 17 24  1  0
 17 15  1  0
 18 17  2  0
 19 20  1  0
 20 21  1  0
 21 22  1  0
 23 22  1  6
 23 24  1  0
 23 25  1  0
 25 27  1  0
 26 25  2  0
M  END
$$$$
