KQM.pdb
     RDKit          3D

 27 26  0  0  1  0  0  0  0  0999 V2000
    7.1789  -17.5309   20.6129 N   0  0  0  0  0  0  0  0  0  0  0  0
    8.2468  -16.7858   21.1537 C   0  0  1  0  0  0  0  0  0  0  0  0
    8.2441  -15.3078   20.9527 C   0  0  0  0  0  0  0  0  0  0  0  0
    8.1223  -14.8014   19.5756 C   0  0  0  0  0  0  0  0  0  0  0  0
    8.5538  -13.4224   19.2724 C   0  0  0  0  0  0  0  0  0  0  0  0
    8.3839  -12.9652   17.8642 C   0  0  0  0  0  0  0  0  0  0  0  0
    8.9582  -11.6647   17.6808 N   0  0  0  0  0  0  0  0  0  0  0  0
    8.5805  -17.1448   22.5786 C   0  0  0  0  0  0  0  0  0  0  0  0
    7.6118  -17.2061   23.3893 O   0  0  0  0  0  0  0  0  0  0  0  0
   13.8489  -19.7371   24.7780 N   0  0  0  0  0  0  0  0  0  0  0  0
   13.1598  -19.5052   25.9886 C   0  0  0  0  0  0  0  0  0  0  0  0
   13.6033  -19.8716   27.1058 O   0  0  0  0  0  0  0  0  0  0  0  0
   11.8357  -18.7918   25.9769 C   0  0  0  0  0  0  0  0  0  0  0  0
   11.4291  -18.4308   24.5885 C   0  0  0  0  0  0  0  0  0  0  0  0
   10.1316  -17.6644   24.4923 C   0  0  2  0  0  0  0  0  0  0  0  0
    9.8603  -17.4093   23.0596 N   0  0  0  0  0  0  0  0  0  0  0  0
   10.2479  -16.3830   25.2093 C   0  0  0  0  0  0  0  0  0  0  0  0
   10.9092  -15.4356   24.6611 O   0  0  0  0  0  0  0  0  0  0  0  0
    5.5207  -13.3257   26.9446 C   0  0  0  0  0  0  0  0  0  0  0  0
    6.6847  -12.0682   27.5407 S   0  0  0  0  0  0  0  0  0  0  0  0
    8.3723  -12.7627   27.6595 C   0  0  0  0  0  0  0  0  0  0  0  0
    8.4115  -14.1412   27.0962 C   0  0  0  0  0  0  0  0  0  0  0  0
    9.8121  -14.7106   27.0366 C   0  0  2  0  0  0  0  0  0  0  0  0
    9.6914  -16.0669   26.4664 N   0  0  0  0  0  0  0  0  0  0  0  0
   10.3499  -14.7939   28.4046 C   0  0  0  0  0  0  0  0  0  0  0  0
   10.4292  -15.9181   28.9618 O   0  0  0  0  0  0  0  0  0  0  0  0
   10.7923  -13.7172   29.1581 O   0  0  0  0  0  0  0  0  0  0  0  0
  2  3  1  0
  2  1  1  1
  4  5  1  0
  4  3  1  0
  6  5  1  0
  7  6  1  0
  8  9  2  0
  8  2  1  0
 10 11  1  0
 11 12  2  0
 13 14  1  0
 13 11  1  0
 15 14  1  6
 15 16  1  0
 16  8  1  0
 17 24  1  0
 17 15  1  0
 18 17  2  0
 19 20  1  0
 20 21  1  0
 21 22  1  0
 23 22  1  1
 23 24  1  0
 23 25  1  0
 25 27  1  0
 26 25  2  0
M  END
$$$$
