KQM.pdb
     RDKit          3D

 27 26  0  0  1  0  0  0  0  0999 V2000
   10.7151  -18.3079   19.8991 N   0  0  0  0  0  0  0  0  0  0  0  0
   10.0417  -17.0762   19.7671 C   0  0  1  0  0  0  0  0  0  0  0  0
    8.7928  -17.0429   18.9523 C   0  0  0  0  0  0  0  0  0  0  0  0
    8.9113  -16.6973   17.5260 C   0  0  0  0  0  0  0  0  0  0  0  0
    8.3103  -17.5891   16.5145 C   0  0  0  0  0  0  0  0  0  0  0  0
    8.4298  -17.1600   15.0922 C   0  0  0  0  0  0  0  0  0  0  0  0
    7.7344  -18.0685   14.2287 N   0  0  0  0  0  0  0  0  0  0  0  0
    9.8685  -16.3338   21.0669 C   0  0  0  0  0  0  0  0  0  0  0  0
    9.2040  -15.2587   21.0212 O   0  0  0  0  0  0  0  0  0  0  0  0
    5.7755  -17.2981   23.9952 N   0  0  0  0  0  0  0  0  0  0  0  0
    6.2873  -16.3777   24.9361 C   0  0  0  0  0  0  0  0  0  0  0  0
    5.5737  -15.8374   25.8181 O   0  0  0  0  0  0  0  0  0  0  0  0
    7.7444  -16.0054   24.9100 C   0  0  0  0  0  0  0  0  0  0  0  0
    8.4122  -16.5238   23.6817 C   0  0  0  0  0  0  0  0  0  0  0  0
    9.8832  -16.1982   23.5807 C   0  0  2  0  0  0  0  0  0  0  0  0
   10.3809  -16.7404   22.2963 N   0  0  0  0  0  0  0  0  0  0  0  0
   10.6158  -16.8204   24.6969 C   0  0  0  0  0  0  0  0  0  0  0  0
   10.2801  -17.9981   25.0652 O   0  0  0  0  0  0  0  0  0  0  0  0
    8.8826  -12.5435   27.9851 C   0  0  0  0  0  0  0  0  0  0  0  0
   10.1641  -13.1237   29.1308 S   0  0  0  0  0  0  0  0  0  0  0  0
   10.6369  -14.8473   28.7434 C   0  0  0  0  0  0  0  0  0  0  0  0
   10.7537  -15.0392   27.2708 C   0  0  0  0  0  0  0  0  0  0  0  0
   11.6560  -16.1959   26.9001 C   0  0  2  0  0  0  0  0  0  0  0  0
   11.6826  -16.2534   25.4252 N   0  0  0  0  0  0  0  0  0  0  0  0
   11.0778  -17.4399   27.4345 C   0  0  0  0  0  0  0  0  0  0  0  0
    9.9615  -17.8278   27.0053 O   0  0  0  0  0  0  0  0  0  0  0  0
   11.6670  -18.2494   28.3939 O   0  0  0  0  0  0  0  0  0  0  0  0
  2  3  1  0
  2  1  1  1
  4  5  1  0
  4  3  1  0
  6  5  1  0
  7  6  1  0
  8  9  2  0
  8  2  1  0
 10 11  1  0
 11 12  2  0
 13 14  1  0
 13 11  1  0
 15 14  1  1
 15 16  1  0
 16  8  1  0
 17 24  1  0
 17 15  1  0
 18 17  2  0
 19 20  1  0
 20 21  1  0
 21 22  1  0
 23 22  1  6
 23 24  1  0
 23 25  1  0
 25 27  1  0
 26 25  2  0
M  END
$$$$
