KQM.pdb
     RDKit          3D

 27 26  0  0  1  0  0  0  0  0999 V2000
    6.1147  -17.7974   19.9324 N   0  0  0  0  0  0  0  0  0  0  0  0
    7.2826  -17.1548   20.3919 C   0  0  1  0  0  0  0  0  0  0  0  0
    7.4532  -15.7052   20.0846 C   0  0  0  0  0  0  0  0  0  0  0  0
    7.8794  -15.3361   18.7245 C   0  0  0  0  0  0  0  0  0  0  0  0
    8.0874  -13.9123   18.3943 C   0  0  0  0  0  0  0  0  0  0  0  0
    8.4110  -13.5977   16.9739 C   0  0  0  0  0  0  0  0  0  0  0  0
    8.7469  -12.2122   16.8255 N   0  0  0  0  0  0  0  0  0  0  0  0
    7.6169  -17.4535   21.8305 C   0  0  0  0  0  0  0  0  0  0  0  0
    6.6727  -17.3482   22.6653 O   0  0  0  0  0  0  0  0  0  0  0  0
   12.5583  -20.5944   24.0534 N   0  0  0  0  0  0  0  0  0  0  0  0
   11.9591  -20.1845   25.2647 C   0  0  0  0  0  0  0  0  0  0  0  0
   12.3656  -20.5688   26.3900 O   0  0  0  0  0  0  0  0  0  0  0  0
   10.7822  -19.2482   25.2439 C   0  0  0  0  0  0  0  0  0  0  0  0
   10.3557  -18.9479   23.8470 C   0  0  0  0  0  0  0  0  0  0  0  0
    9.1496  -18.0460   23.7378 C   0  0  2  0  0  0  0  0  0  0  0  0
    8.8726  -17.8309   22.2996 N   0  0  0  0  0  0  0  0  0  0  0  0
    9.4257  -16.7530   24.3869 C   0  0  0  0  0  0  0  0  0  0  0  0
   10.0750  -15.8679   23.7309 O   0  0  0  0  0  0  0  0  0  0  0  0
    6.1886  -10.8477   25.7986 C   0  0  0  0  0  0  0  0  0  0  0  0
    6.3656  -12.1983   26.9969 S   0  0  0  0  0  0  0  0  0  0  0  0
    8.0283  -12.9497   26.8741 C   0  0  0  0  0  0  0  0  0  0  0  0
    7.9369  -14.3376   26.3406 C   0  0  0  0  0  0  0  0  0  0  0  0
    9.2906  -14.9941   26.1797 C   0  0  2  0  0  0  0  0  0  0  0  0
    9.0391  -16.3625   25.6861 N   0  0  0  0  0  0  0  0  0  0  0  0
    9.9489  -15.0547   27.4952 C   0  0  0  0  0  0  0  0  0  0  0  0
   10.0176  -16.1586   28.0930 O   0  0  0  0  0  0  0  0  0  0  0  0
   10.5191  -13.9770   28.1558 O   0  0  0  0  0  0  0  0  0  0  0  0
  2  3  1  0
  2  1  1  1
  4  5  1  0
  4  3  1  0
  6  5  1  0
  7  6  1  0
  8  9  2  0
  8  2  1  0
 10 11  1  0
 11 12  2  0
 13 14  1  0
 13 11  1  0
 15 14  1  6
 15 16  1  0
 16  8  1  0
 17 24  1  0
 17 15  1  0
 18 17  2  0
 19 20  1  0
 20 21  1  0
 21 22  1  0
 23 22  1  1
 23 24  1  0
 23 25  1  0
 25 27  1  0
 26 25  2  0
M  END
$$$$
