KQM.pdb
     RDKit          3D

 27 26  0  0  1  0  0  0  0  0999 V2000
    8.3613  -19.1852   20.3938 N   0  0  0  0  0  0  0  0  0  0  0  0
    9.7388  -18.9126   20.2659 C   0  0  1  0  0  0  0  0  0  0  0  0
   10.4226  -19.3281   19.0072 C   0  0  0  0  0  0  0  0  0  0  0  0
    9.8212  -20.4222   18.2268 C   0  0  0  0  0  0  0  0  0  0  0  0
   10.4904  -20.8828   16.9941 C   0  0  0  0  0  0  0  0  0  0  0  0
    9.8438  -22.0110   16.2661 C   0  0  0  0  0  0  0  0  0  0  0  0
   10.5062  -22.2552   15.0187 N   0  0  0  0  0  0  0  0  0  0  0  0
   10.1217  -17.5097   20.6607 C   0  0  0  0  0  0  0  0  0  0  0  0
   11.3552  -17.2315   20.6386 O   0  0  0  0  0  0  0  0  0  0  0  0
    6.8933  -12.6874   19.1239 N   0  0  0  0  0  0  0  0  0  0  0  0
    7.6400  -13.6216   18.3728 C   0  0  0  0  0  0  0  0  0  0  0  0
    7.4654  -13.8006   17.1413 O   0  0  0  0  0  0  0  0  0  0  0  0
    8.6974  -14.4546   19.0437 C   0  0  0  0  0  0  0  0  0  0  0  0
    8.7267  -14.2082   20.5140 C   0  0  0  0  0  0  0  0  0  0  0  0
    9.6545  -15.1160   21.2854 C   0  0  2  0  0  0  0  0  0  0  0  0
    9.2279  -16.5127   21.0432 N   0  0  0  0  0  0  0  0  0  0  0  0
    9.5720  -14.8165   22.7252 C   0  0  0  0  0  0  0  0  0  0  0  0
   10.0218  -13.6940   23.1411 O   0  0  0  0  0  0  0  0  0  0  0  0
    7.3554  -11.0824   27.7506 C   0  0  0  0  0  0  0  0  0  0  0  0
    6.9691  -11.9418   26.2002 S   0  0  0  0  0  0  0  0  0  0  0  0
    7.1975  -13.7458   26.3938 C   0  0  0  0  0  0  0  0  0  0  0  0
    7.5148  -14.3766   25.0821 C   0  0  0  0  0  0  0  0  0  0  0  0
    8.8172  -15.1466   25.1016 C   0  0  2  0  0  0  0  0  0  0  0  0
    9.0312  -15.6468   23.7292 N   0  0  0  0  0  0  0  0  0  0  0  0
    8.6838  -16.2828   26.0283 C   0  0  0  0  0  0  0  0  0  0  0  0
    8.4176  -16.0572   27.2362 O   0  0  0  0  0  0  0  0  0  0  0  0
    8.8265  -17.6184   25.6837 O   0  0  0  0  0  0  0  0  0  0  0  0
  2  3  1  0
  2  1  1  6
  4  5  1  0
  4  3  1  0
  6  5  1  0
  7  6  1  0
  8  9  2  0
  8  2  1  0
 10 11  1  0
 11 12  2  0
 13 14  1  0
 13 11  1  0
 15 14  1  6
 15 16  1  0
 16  8  1  0
 17 24  1  0
 17 15  1  0
 18 17  2  0
 19 20  1  0
 20 21  1  0
 21 22  1  0
 23 22  1  6
 23 24  1  0
 23 25  1  0
 25 27  1  0
 26 25  2  0
M  END
$$$$
