KQM.pdb
     RDKit          3D

 27 26  0  0  1  0  0  0  0  0999 V2000
    5.7083  -17.5415   20.4368 N   0  0  0  0  0  0  0  0  0  0  0  0
    6.7872  -16.9601   21.1339 C   0  0  1  0  0  0  0  0  0  0  0  0
    7.2740  -15.6236   20.6853 C   0  0  0  0  0  0  0  0  0  0  0  0
    7.6608  -15.4711   19.2729 C   0  0  0  0  0  0  0  0  0  0  0  0
    8.1227  -14.1551   18.7886 C   0  0  0  0  0  0  0  0  0  0  0  0
    8.4452  -14.0546   17.3371 C   0  0  0  0  0  0  0  0  0  0  0  0
    8.7573  -12.7020   16.9797 N   0  0  0  0  0  0  0  0  0  0  0  0
    6.6461  -17.0176   22.6330 C   0  0  0  0  0  0  0  0  0  0  0  0
    5.5613  -16.5839   23.1171 O   0  0  0  0  0  0  0  0  0  0  0  0
    8.2366  -21.4159   26.4312 N   0  0  0  0  0  0  0  0  0  0  0  0
    7.9119  -20.4395   27.3985 C   0  0  0  0  0  0  0  0  0  0  0  0
    7.8832  -20.6846   28.6307 O   0  0  0  0  0  0  0  0  0  0  0  0
    7.5812  -19.0360   26.9706 C   0  0  0  0  0  0  0  0  0  0  0  0
    7.6341  -18.8972   25.4870 C   0  0  0  0  0  0  0  0  0  0  0  0
    7.4271  -17.4903   24.9792 C   0  0  2  0  0  0  0  0  0  0  0  0
    7.6108  -17.5063   23.5105 N   0  0  0  0  0  0  0  0  0  0  0  0
    8.4128  -16.5827   25.5909 C   0  0  0  0  0  0  0  0  0  0  0  0
    9.6066  -16.5808   25.1323 O   0  0  0  0  0  0  0  0  0  0  0  0
    5.8107  -10.5451   27.3589 C   0  0  0  0  0  0  0  0  0  0  0  0
    6.7477  -11.7632   28.3231 S   0  0  0  0  0  0  0  0  0  0  0  0
    7.7782  -12.7967   27.2211 C   0  0  0  0  0  0  0  0  0  0  0  0
    8.5957  -13.7550   28.0164 C   0  0  0  0  0  0  0  0  0  0  0  0
    9.2617  -14.8093   27.1594 C   0  0  2  0  0  0  0  0  0  0  0  0
    8.1844  -15.6819   26.6521 N   0  0  0  0  0  0  0  0  0  0  0  0
   10.1809  -15.5940   28.0001 C   0  0  0  0  0  0  0  0  0  0  0  0
    9.8418  -16.7495   28.3612 O   0  0  0  0  0  0  0  0  0  0  0  0
   11.4235  -15.1666   28.4429 O   0  0  0  0  0  0  0  0  0  0  0  0
  2  3  1  0
  2  1  1  6
  4  5  1  0
  4  3  1  0
  6  5  1  0
  7  6  1  0
  8  9  2  0
  8  2  1  0
 10 11  1  0
 11 12  2  0
 13 14  1  0
 13 11  1  0
 15 14  1  1
 15 16  1  0
 16  8  1  0
 17 24  1  0
 17 15  1  0
 18 17  2  0
 19 20  1  0
 20 21  1  0
 21 22  1  0
 23 22  1  1
 23 24  1  0
 23 25  1  0
 25 27  1  0
 26 25  2  0
M  END
$$$$
