KQM.pdb
     RDKit          3D

 27 26  0  0  1  0  0  0  0  0999 V2000
    9.3051  -15.1832   18.0694 N   0  0  0  0  0  0  0  0  0  0  0  0
    8.6251  -14.4642   19.0737 C   0  0  1  0  0  0  0  0  0  0  0  0
    7.3519  -13.7793   18.7067 C   0  0  0  0  0  0  0  0  0  0  0  0
    7.0612  -13.5890   17.2760 C   0  0  0  0  0  0  0  0  0  0  0  0
    8.1251  -13.8383   16.2833 C   0  0  0  0  0  0  0  0  0  0  0  0
    7.7577  -13.6517   14.8511 C   0  0  0  0  0  0  0  0  0  0  0  0
    8.8894  -13.8850   14.0030 N   0  0  0  0  0  0  0  0  0  0  0  0
    8.4896  -15.2135   20.3740 C   0  0  0  0  0  0  0  0  0  0  0  0
    7.6928  -14.7277   21.2276 O   0  0  0  0  0  0  0  0  0  0  0  0
   11.6964  -20.3658   22.1178 N   0  0  0  0  0  0  0  0  0  0  0  0
   10.9512  -20.1151   23.2910 C   0  0  0  0  0  0  0  0  0  0  0  0
   11.0945  -20.7843   24.3449 O   0  0  0  0  0  0  0  0  0  0  0  0
    9.9341  -19.0073   23.3150 C   0  0  0  0  0  0  0  0  0  0  0  0
    9.9116  -18.2668   22.0211 C   0  0  0  0  0  0  0  0  0  0  0  0
    8.9818  -17.0773   21.9933 C   0  0  2  0  0  0  0  0  0  0  0  0
    9.1696  -16.3847   20.6986 N   0  0  0  0  0  0  0  0  0  0  0  0
    9.3054  -16.1577   23.0974 C   0  0  0  0  0  0  0  0  0  0  0  0
   10.4241  -15.5388   23.0674 O   0  0  0  0  0  0  0  0  0  0  0  0
    6.5801  -10.9055   28.2525 C   0  0  0  0  0  0  0  0  0  0  0  0
    6.3360  -12.0846   26.8954 S   0  0  0  0  0  0  0  0  0  0  0  0
    7.8555  -13.0631   26.6161 C   0  0  0  0  0  0  0  0  0  0  0  0
    7.6725  -13.9978   25.4707 C   0  0  0  0  0  0  0  0  0  0  0  0
    8.8977  -14.8444   25.2034 C   0  0  2  0  0  0  0  0  0  0  0  0
    8.4966  -15.8657   24.2157 N   0  0  0  0  0  0  0  0  0  0  0  0
    9.3051  -15.5002   26.4570 C   0  0  0  0  0  0  0  0  0  0  0  0
    9.0476  -16.7200   26.6194 O   0  0  0  0  0  0  0  0  0  0  0  0
    9.9675  -14.8810   27.5062 O   0  0  0  0  0  0  0  0  0  0  0  0
  2  3  1  0
  2  1  1  6
  4  5  1  0
  4  3  1  0
  6  5  1  0
  7  6  1  0
  8  9  2  0
  8  2  1  0
 10 11  1  0
 11 12  2  0
 13 14  1  0
 13 11  1  0
 15 14  1  6
 15 16  1  0
 16  8  1  0
 17 24  1  0
 17 15  1  0
 18 17  2  0
 19 20  1  0
 20 21  1  0
 21 22  1  0
 23 22  1  1
 23 24  1  0
 23 25  1  0
 25 27  1  0
 26 25  2  0
M  END
$$$$
