KQM.pdb
     RDKit          3D

 27 26  0  0  1  0  0  0  0  0999 V2000
    7.3240  -17.5009   18.8105 N   0  0  0  0  0  0  0  0  0  0  0  0
    8.2685  -16.7249   19.5131 C   0  0  1  0  0  0  0  0  0  0  0  0
    8.1625  -15.2398   19.4238 C   0  0  0  0  0  0  0  0  0  0  0  0
    8.0905  -14.6348   18.0835 C   0  0  0  0  0  0  0  0  0  0  0  0
    8.1312  -13.1650   17.9514 C   0  0  0  0  0  0  0  0  0  0  0  0
    7.8947  -12.6114   16.5880 C   0  0  0  0  0  0  0  0  0  0  0  0
    8.4896  -13.4507   15.5900 N   0  0  0  0  0  0  0  0  0  0  0  0
    8.4906  -17.1744   20.9341 C   0  0  0  0  0  0  0  0  0  0  0  0
    7.4579  -17.3296   21.6474 O   0  0  0  0  0  0  0  0  0  0  0  0
   13.5061  -19.9585   23.4357 N   0  0  0  0  0  0  0  0  0  0  0  0
   12.8794  -19.5029   24.6164 C   0  0  0  0  0  0  0  0  0  0  0  0
   13.3496  -19.7146   25.7624 O   0  0  0  0  0  0  0  0  0  0  0  0
   11.5928  -18.7281   24.5355 C   0  0  0  0  0  0  0  0  0  0  0  0
   11.2201  -18.4468   23.1194 C   0  0  0  0  0  0  0  0  0  0  0  0
    9.8905  -17.7523   22.9451 C   0  0  2  0  0  0  0  0  0  0  0  0
    9.7334  -17.4268   21.5097 N   0  0  0  0  0  0  0  0  0  0  0  0
    9.8607  -16.5123   23.7395 C   0  0  0  0  0  0  0  0  0  0  0  0
   10.5943  -15.5328   23.3683 O   0  0  0  0  0  0  0  0  0  0  0  0
    5.9812  -10.6118   26.6154 C   0  0  0  0  0  0  0  0  0  0  0  0
    6.0390  -12.2879   25.9233 S   0  0  0  0  0  0  0  0  0  0  0  0
    7.6982  -13.0205   26.1573 C   0  0  0  0  0  0  0  0  0  0  0  0
    7.7902  -14.3379   25.4679 C   0  0  0  0  0  0  0  0  0  0  0  0
    9.1559  -14.9754   25.6015 C   0  0  2  0  0  0  0  0  0  0  0  0
    9.0877  -16.2694   24.8942 N   0  0  0  0  0  0  0  0  0  0  0  0
    9.4360  -15.2045   27.0286 C   0  0  0  0  0  0  0  0  0  0  0  0
    9.3807  -16.3762   27.4809 O   0  0  0  0  0  0  0  0  0  0  0  0
    9.7667  -14.2204   27.9479 O   0  0  0  0  0  0  0  0  0  0  0  0
  2  3  1  0
  2  1  1  1
  4  5  1  0
  4  3  1  0
  6  5  1  0
  7  6  1  0
  8  9  2  0
  8  2  1  0
 10 11  1  0
 11 12  2  0
 13 14  1  0
 13 11  1  0
 15 14  1  6
 15 16  1  0
 16  8  1  0
 17 24  1  0
 17 15  1  0
 18 17  2  0
 19 20  1  0
 20 21  1  0
 21 22  1  0
 23 22  1  1
 23 24  1  0
 23 25  1  0
 25 27  1  0
 26 25  2  0
M  END
$$$$
