KQM.pdb
     RDKit          3D

 27 26  0  0  1  0  0  0  0  0999 V2000
    7.8417  -17.7047   19.3583 N   0  0  0  0  0  0  0  0  0  0  0  0
    8.6739  -16.8243   20.0796 C   0  0  1  0  0  0  0  0  0  0  0  0
    8.5344  -15.3610   19.8266 C   0  0  0  0  0  0  0  0  0  0  0  0
    8.7109  -14.8820   18.4456 C   0  0  0  0  0  0  0  0  0  0  0  0
    8.5892  -13.4386   18.1607 C   0  0  0  0  0  0  0  0  0  0  0  0
    8.8580  -13.0108   16.7586 C   0  0  0  0  0  0  0  0  0  0  0  0
    7.8334  -13.4888   15.8776 N   0  0  0  0  0  0  0  0  0  0  0  0
    8.7422  -17.1216   21.5553 C   0  0  0  0  0  0  0  0  0  0  0  0
    7.6404  -17.1782   22.1735 O   0  0  0  0  0  0  0  0  0  0  0  0
   13.3099  -20.0210   24.6245 N   0  0  0  0  0  0  0  0  0  0  0  0
   12.5819  -19.5208   25.7264 C   0  0  0  0  0  0  0  0  0  0  0  0
   12.9203  -19.7309   26.9183 O   0  0  0  0  0  0  0  0  0  0  0  0
   11.3437  -18.6975   25.5000 C   0  0  0  0  0  0  0  0  0  0  0  0
   11.0999  -18.4776   24.0456 C   0  0  0  0  0  0  0  0  0  0  0  0
    9.9120  -17.5994   23.7327 C   0  0  2  0  0  0  0  0  0  0  0  0
    9.9144  -17.3347   22.2763 N   0  0  0  0  0  0  0  0  0  0  0  0
   10.0178  -16.3268   24.4667 C   0  0  0  0  0  0  0  0  0  0  0  0
   10.7939  -15.4204   24.0067 O   0  0  0  0  0  0  0  0  0  0  0  0
    5.3848  -12.5929   27.4226 C   0  0  0  0  0  0  0  0  0  0  0  0
    6.8058  -11.6707   26.7733 S   0  0  0  0  0  0  0  0  0  0  0  0
    8.3490  -12.6235   27.0076 C   0  0  0  0  0  0  0  0  0  0  0  0
    8.2913  -13.9064   26.2526 C   0  0  0  0  0  0  0  0  0  0  0  0
    9.5850  -14.6878   26.3248 C   0  0  2  0  0  0  0  0  0  0  0  0
    9.3361  -15.9777   25.6513 N   0  0  0  0  0  0  0  0  0  0  0  0
    9.9197  -14.9233   27.7390 C   0  0  0  0  0  0  0  0  0  0  0  0
    9.7817  -16.0789   28.2146 O   0  0  0  0  0  0  0  0  0  0  0  0
   10.3886  -13.9623   28.6218 O   0  0  0  0  0  0  0  0  0  0  0  0
  2  3  1  0
  2  1  1  1
  4  5  1  0
  4  3  1  0
  6  5  1  0
  7  6  1  0
  8  9  2  0
  8  2  1  0
 10 11  1  0
 11 12  2  0
 13 14  1  0
 13 11  1  0
 15 14  1  6
 15 16  1  0
 16  8  1  0
 17 24  1  0
 17 15  1  0
 18 17  2  0
 19 20  1  0
 20 21  1  0
 21 22  1  0
 23 22  1  1
 23 24  1  0
 23 25  1  0
 25 27  1  0
 26 25  2  0
M  END
$$$$
