KQM.pdb
     RDKit          3D

 27 26  0  0  1  0  0  0  0  0999 V2000
    8.2430  -15.8303   18.6215 N   0  0  0  0  0  0  0  0  0  0  0  0
    7.7771  -16.9592   19.3260 C   0  0  1  0  0  0  0  0  0  0  0  0
    7.4606  -18.1913   18.5472 C   0  0  0  0  0  0  0  0  0  0  0  0
    7.1563  -18.0401   17.1146 C   0  0  0  0  0  0  0  0  0  0  0  0
    6.2208  -18.9838   16.4715 C   0  0  0  0  0  0  0  0  0  0  0  0
    5.9737  -18.7890   15.0147 C   0  0  0  0  0  0  0  0  0  0  0  0
    4.9920  -19.7185   14.5385 N   0  0  0  0  0  0  0  0  0  0  0  0
    8.5795  -17.2815   20.5601 C   0  0  0  0  0  0  0  0  0  0  0  0
    8.2354  -18.3125   21.2065 O   0  0  0  0  0  0  0  0  0  0  0  0
   14.0443  -18.2190   22.7962 N   0  0  0  0  0  0  0  0  0  0  0  0
   13.5831  -18.4560   21.4827 C   0  0  0  0  0  0  0  0  0  0  0  0
   14.0937  -19.3208   20.7272 O   0  0  0  0  0  0  0  0  0  0  0  0
   12.4335  -17.6575   20.9324 C   0  0  0  0  0  0  0  0  0  0  0  0
   11.8803  -16.7290   21.9596 C   0  0  0  0  0  0  0  0  0  0  0  0
   10.4101  -16.9153   22.2491 C   0  0  2  0  0  0  0  0  0  0  0  0
    9.6564  -16.5358   21.0330 N   0  0  0  0  0  0  0  0  0  0  0  0
   10.0035  -16.0532   23.3720 C   0  0  0  0  0  0  0  0  0  0  0  0
   10.4534  -14.8569   23.4161 O   0  0  0  0  0  0  0  0  0  0  0  0
    6.8038  -10.7991   26.1867 C   0  0  0  0  0  0  0  0  0  0  0  0
    6.5382  -12.5922   26.1119 S   0  0  0  0  0  0  0  0  0  0  0  0
    8.1226  -13.4635   25.8381 C   0  0  0  0  0  0  0  0  0  0  0  0
    7.9237  -14.9389   25.8887 C   0  0  0  0  0  0  0  0  0  0  0  0
    9.2164  -15.7104   25.7361 C   0  0  2  0  0  0  0  0  0  0  0  0
    9.1430  -16.4020   24.4339 N   0  0  0  0  0  0  0  0  0  0  0  0
    9.3086  -16.7025   26.8200 C   0  0  0  0  0  0  0  0  0  0  0  0
    9.0125  -17.9001   26.5779 O   0  0  0  0  0  0  0  0  0  0  0  0
    9.7048  -16.4326   28.1211 O   0  0  0  0  0  0  0  0  0  0  0  0
  2  3  1  0
  2  1  1  6
  4  5  1  0
  4  3  1  0
  6  5  1  0
  7  6  1  0
  8  9  2  0
  8  2  1  0
 10 11  1  0
 11 12  2  0
 13 14  1  0
 13 11  1  0
 15 14  1  6
 15 16  1  0
 16  8  1  0
 17 24  1  0
 17 15  1  0
 18 17  2  0
 19 20  1  0
 20 21  1  0
 21 22  1  0
 23 22  1  1
 23 24  1  0
 23 25  1  0
 25 27  1  0
 26 25  2  0
M  END
$$$$
