KQM.pdb
     RDKit          3D

 27 26  0  0  1  0  0  0  0  0999 V2000
    7.0177  -20.6036   21.7657 N   0  0  0  0  0  0  0  0  0  0  0  0
    6.7013  -19.4125   22.4507 C   0  0  1  0  0  0  0  0  0  0  0  0
    6.2982  -19.5126   23.8832 C   0  0  0  0  0  0  0  0  0  0  0  0
    5.2846  -20.5177   24.2437 C   0  0  0  0  0  0  0  0  0  0  0  0
    5.7055  -21.9106   24.4934 C   0  0  0  0  0  0  0  0  0  0  0  0
    4.6275  -22.8823   24.8323 C   0  0  0  0  0  0  0  0  0  0  0  0
    5.1431  -24.2192   24.8679 N   0  0  0  0  0  0  0  0  0  0  0  0
    7.6992  -18.3036   22.2380 C   0  0  0  0  0  0  0  0  0  0  0  0
    8.9211  -18.6286   22.2620 O   0  0  0  0  0  0  0  0  0  0  0  0
    6.5194  -12.7615   19.5965 N   0  0  0  0  0  0  0  0  0  0  0  0
    7.9009  -12.6206   19.8535 C   0  0  0  0  0  0  0  0  0  0  0  0
    8.5718  -11.6374   19.4507 O   0  0  0  0  0  0  0  0  0  0  0  0
    8.6320  -13.6737   20.6401 C   0  0  0  0  0  0  0  0  0  0  0  0
    7.7319  -14.8107   20.9870 C   0  0  0  0  0  0  0  0  0  0  0  0
    8.4038  -15.9407   21.7297 C   0  0  2  0  0  0  0  0  0  0  0  0
    7.3769  -16.9664   22.0208 N   0  0  0  0  0  0  0  0  0  0  0  0
    8.9783  -15.4442   22.9917 C   0  0  0  0  0  0  0  0  0  0  0  0
    9.5066  -14.2796   23.0045 O   0  0  0  0  0  0  0  0  0  0  0  0
    7.4761  -10.9344   25.6034 C   0  0  0  0  0  0  0  0  0  0  0  0
    6.6450  -12.2407   26.5490 S   0  0  0  0  0  0  0  0  0  0  0  0
    7.7601  -13.6714   26.7813 C   0  0  0  0  0  0  0  0  0  0  0  0
    7.8589  -14.4669   25.5258 C   0  0  0  0  0  0  0  0  0  0  0  0
    9.0638  -15.3819   25.5047 C   0  0  2  0  0  0  0  0  0  0  0  0
    9.0084  -16.1220   24.2285 N   0  0  0  0  0  0  0  0  0  0  0  0
    8.9636  -16.3259   26.6300 C   0  0  0  0  0  0  0  0  0  0  0  0
    9.0649  -15.8885   27.8044 O   0  0  0  0  0  0  0  0  0  0  0  0
    8.7601  -17.6925   26.5133 O   0  0  0  0  0  0  0  0  0  0  0  0
  2  3  1  0
  2  1  1  1
  4  5  1  0
  4  3  1  0
  6  5  1  0
  7  6  1  0
  8  9  2  0
  8  2  1  0
 10 11  1  0
 11 12  2  0
 13 14  1  0
 13 11  1  0
 15 14  1  1
 15 16  1  0
 16  8  1  0
 17 24  1  0
 17 15  1  0
 18 17  2  0
 19 20  1  0
 20 21  1  0
 21 22  1  0
 23 22  1  6
 23 24  1  0
 23 25  1  0
 25 27  1  0
 26 25  2  0
M  END
$$$$
