KQM.pdb
     RDKit          3D

 27 26  0  0  1  0  0  0  0  0999 V2000
    9.4587  -16.1755   17.1678 N   0  0  0  0  0  0  0  0  0  0  0  0
    9.4500  -15.3008   18.2735 C   0  0  1  0  0  0  0  0  0  0  0  0
    8.7924  -13.9718   18.1121 C   0  0  0  0  0  0  0  0  0  0  0  0
    7.7385  -13.8455   17.0918 C   0  0  0  0  0  0  0  0  0  0  0  0
    8.1199  -13.7226   15.6709 C   0  0  0  0  0  0  0  0  0  0  0  0
    7.0048  -13.6688   14.6835 C   0  0  0  0  0  0  0  0  0  0  0  0
    7.5148  -13.6363   13.3444 N   0  0  0  0  0  0  0  0  0  0  0  0
    9.0470  -15.9585   19.5679 C   0  0  0  0  0  0  0  0  0  0  0  0
    7.9184  -16.5289   19.5863 O   0  0  0  0  0  0  0  0  0  0  0  0
   12.8300  -19.7718   20.7523 N   0  0  0  0  0  0  0  0  0  0  0  0
   12.3681  -19.1332   21.9242 C   0  0  0  0  0  0  0  0  0  0  0  0
   12.5266  -19.6191   23.0723 O   0  0  0  0  0  0  0  0  0  0  0  0
   11.6516  -17.8141   21.8308 C   0  0  0  0  0  0  0  0  0  0  0  0
   10.1844  -17.9807   22.0371 C   0  0  0  0  0  0  0  0  0  0  0  0
    9.3876  -16.7010   21.9493 C   0  0  2  0  0  0  0  0  0  0  0  0
    9.8165  -15.9822   20.7283 N   0  0  0  0  0  0  0  0  0  0  0  0
    9.6462  -15.8631   23.1327 C   0  0  0  0  0  0  0  0  0  0  0  0
   10.5796  -14.9911   23.0702 O   0  0  0  0  0  0  0  0  0  0  0  0
    5.6101  -12.1042   27.5084 C   0  0  0  0  0  0  0  0  0  0  0  0
    7.1258  -11.6849   26.6038 S   0  0  0  0  0  0  0  0  0  0  0  0
    8.3328  -13.0549   26.7067 C   0  0  0  0  0  0  0  0  0  0  0  0
    8.2554  -13.9126   25.4912 C   0  0  0  0  0  0  0  0  0  0  0  0
    9.3115  -14.9960   25.4699 C   0  0  2  0  0  0  0  0  0  0  0  0
    8.9580  -15.9070   24.3633 N   0  0  0  0  0  0  0  0  0  0  0  0
    9.2683  -15.7270   26.7470 C   0  0  0  0  0  0  0  0  0  0  0  0
    9.5776  -15.1242   27.8061 O   0  0  0  0  0  0  0  0  0  0  0  0
    8.9060  -17.0572   26.8966 O   0  0  0  0  0  0  0  0  0  0  0  0
  2  3  1  0
  2  1  1  6
  4  5  1  0
  4  3  1  0
  6  5  1  0
  7  6  1  0
  8  9  2  0
  8  2  1  0
 10 11  1  0
 11 12  2  0
 13 14  1  0
 13 11  1  0
 15 14  1  1
 15 16  1  0
 16  8  1  0
 17 24  1  0
 17 15  1  0
 18 17  2  0
 19 20  1  0
 20 21  1  0
 21 22  1  0
 23 22  1  1
 23 24  1  0
 23 25  1  0
 25 27  1  0
 26 25  2  0
M  END
$$$$
