KQM.pdb
     RDKit          3D

 27 26  0  0  1  0  0  0  0  0999 V2000
    9.7498  -20.6582   20.0969 N   0  0  0  0  0  0  0  0  0  0  0  0
    8.6422  -19.9399   20.5920 C   0  0  1  0  0  0  0  0  0  0  0  0
    7.6596  -20.6666   21.4470 C   0  0  0  0  0  0  0  0  0  0  0  0
    6.8889  -21.7598   20.8317 C   0  0  0  0  0  0  0  0  0  0  0  0
    7.2243  -22.1983   19.4625 C   0  0  0  0  0  0  0  0  0  0  0  0
    6.4600  -23.3611   18.9288 C   0  0  0  0  0  0  0  0  0  0  0  0
    5.4191  -22.9217   18.0468 N   0  0  0  0  0  0  0  0  0  0  0  0
    8.9993  -18.6008   21.1838 C   0  0  0  0  0  0  0  0  0  0  0  0
   10.0275  -18.5623   21.9190 O   0  0  0  0  0  0  0  0  0  0  0  0
    7.1335  -12.9937   19.1522 N   0  0  0  0  0  0  0  0  0  0  0  0
    7.8974  -12.6036   20.2740 C   0  0  0  0  0  0  0  0  0  0  0  0
    8.1260  -11.4009   20.5576 O   0  0  0  0  0  0  0  0  0  0  0  0
    8.4774  -13.6462   21.1899 C   0  0  0  0  0  0  0  0  0  0  0  0
    8.1451  -15.0220   20.7208 C   0  0  0  0  0  0  0  0  0  0  0  0
    8.7075  -16.1314   21.5771 C   0  0  2  0  0  0  0  0  0  0  0  0
    8.2881  -17.4205   20.9825 N   0  0  0  0  0  0  0  0  0  0  0  0
    8.1823  -16.0256   22.9491 C   0  0  0  0  0  0  0  0  0  0  0  0
    7.0554  -16.5690   23.2141 O   0  0  0  0  0  0  0  0  0  0  0  0
    9.8948  -12.1322   28.6886 C   0  0  0  0  0  0  0  0  0  0  0  0
    9.9711  -13.9408   28.8094 S   0  0  0  0  0  0  0  0  0  0  0  0
    8.7095  -14.7086   27.7310 C   0  0  0  0  0  0  0  0  0  0  0  0
    9.2155  -14.8248   26.3348 C   0  0  0  0  0  0  0  0  0  0  0  0
    8.1838  -15.3882   25.3822 C   0  0  2  0  0  0  0  0  0  0  0  0
    8.8004  -15.3807   24.0408 N   0  0  0  0  0  0  0  0  0  0  0  0
    7.0013  -14.5112   25.3892 C   0  0  0  0  0  0  0  0  0  0  0  0
    6.8793  -13.6438   24.4873 O   0  0  0  0  0  0  0  0  0  0  0  0
    5.9778  -14.5542   26.3238 O   0  0  0  0  0  0  0  0  0  0  0  0
  2  3  1  0
  2  1  1  1
  4  5  1  0
  4  3  1  0
  6  5  1  0
  7  6  1  0
  8  9  2  0
  8  2  1  0
 10 11  1  0
 11 12  2  0
 13 14  1  0
 13 11  1  0
 15 14  1  6
 15 16  1  0
 16  8  1  0
 17 24  1  0
 17 15  1  0
 18 17  2  0
 19 20  1  0
 20 21  1  0
 21 22  1  0
 23 22  1  1
 23 24  1  0
 23 25  1  0
 25 27  1  0
 26 25  2  0
M  END
$$$$
