KQM.pdb
     RDKit          3D

 27 26  0  0  1  0  0  0  0  0999 V2000
    9.0554  -15.5416   19.1239 N   0  0  0  0  0  0  0  0  0  0  0  0
    8.7152  -14.4683   19.9727 C   0  0  1  0  0  0  0  0  0  0  0  0
    7.9356  -13.3359   19.3943 C   0  0  0  0  0  0  0  0  0  0  0  0
    7.4668  -13.4627   18.0044 C   0  0  0  0  0  0  0  0  0  0  0  0
    8.2439  -14.2803   17.0519 C   0  0  0  0  0  0  0  0  0  0  0  0
    7.7682  -14.2908   15.6395 C   0  0  0  0  0  0  0  0  0  0  0  0
    8.5140  -15.2350   14.8606 N   0  0  0  0  0  0  0  0  0  0  0  0
    8.1533  -14.8980   21.3032 C   0  0  0  0  0  0  0  0  0  0  0  0
    7.7475  -13.9783   22.0706 O   0  0  0  0  0  0  0  0  0  0  0  0
    7.1802  -20.8249   23.2607 N   0  0  0  0  0  0  0  0  0  0  0  0
    6.8540  -20.1104   24.4344 C   0  0  0  0  0  0  0  0  0  0  0  0
    6.4852  -20.6747   25.4949 O   0  0  0  0  0  0  0  0  0  0  0  0
    6.9408  -18.6089   24.4509 C   0  0  0  0  0  0  0  0  0  0  0  0
    7.3863  -18.0793   23.1302 C   0  0  0  0  0  0  0  0  0  0  0  0
    7.4421  -16.5728   23.0431 C   0  0  2  0  0  0  0  0  0  0  0  0
    8.0512  -16.2157   21.7421 N   0  0  0  0  0  0  0  0  0  0  0  0
    8.2655  -16.0339   24.1391 C   0  0  0  0  0  0  0  0  0  0  0  0
    9.5366  -16.1505   24.0607 O   0  0  0  0  0  0  0  0  0  0  0  0
    5.8491  -10.3428   25.6700 C   0  0  0  0  0  0  0  0  0  0  0  0
    6.6636  -11.3944   26.9039 S   0  0  0  0  0  0  0  0  0  0  0  0
    7.7350  -12.6299   26.0854 C   0  0  0  0  0  0  0  0  0  0  0  0
    8.0685  -13.7370   27.0246 C   0  0  0  0  0  0  0  0  0  0  0  0
    8.7380  -14.9071   26.3374 C   0  0  2  0  0  0  0  0  0  0  0  0
    7.8012  -15.3774   25.2980 N   0  0  0  0  0  0  0  0  0  0  0  0
    8.9593  -15.9756   27.3258 C   0  0  0  0  0  0  0  0  0  0  0  0
    8.1850  -16.9661   27.3374 O   0  0  0  0  0  0  0  0  0  0  0  0
    9.9725  -15.9938   28.2723 O   0  0  0  0  0  0  0  0  0  0  0  0
  2  3  1  0
  2  1  1  6
  4  5  1  0
  4  3  1  0
  6  5  1  0
  7  6  1  0
  8  9  2  0
  8  2  1  0
 10 11  1  0
 11 12  2  0
 13 14  1  0
 13 11  1  0
 15 14  1  1
 15 16  1  0
 16  8  1  0
 17 24  1  0
 17 15  1  0
 18 17  2  0
 19 20  1  0
 20 21  1  0
 21 22  1  0
 23 22  1  1
 23 24  1  0
 23 25  1  0
 25 27  1  0
 26 25  2  0
M  END
$$$$
