KQM.pdb
     RDKit          3D

 27 26  0  0  1  0  0  0  0  0999 V2000
    7.9468  -19.1673   20.6631 N   0  0  0  0  0  0  0  0  0  0  0  0
    9.2122  -18.7128   20.2389 C   0  0  1  0  0  0  0  0  0  0  0  0
    9.6620  -19.0722   18.8629 C   0  0  0  0  0  0  0  0  0  0  0  0
    8.8338  -20.0150   18.0930 C   0  0  0  0  0  0  0  0  0  0  0  0
    9.4414  -21.2601   17.5830 C   0  0  0  0  0  0  0  0  0  0  0  0
    8.5789  -22.1194   16.7235 C   0  0  0  0  0  0  0  0  0  0  0  0
    9.2640  -23.3258   16.3633 N   0  0  0  0  0  0  0  0  0  0  0  0
    9.4691  -17.2583   20.5374 C   0  0  0  0  0  0  0  0  0  0  0  0
   10.6311  -16.8255   20.2892 O   0  0  0  0  0  0  0  0  0  0  0  0
    8.5019  -12.0785   19.0213 N   0  0  0  0  0  0  0  0  0  0  0  0
    7.9013  -13.2242   18.4548 C   0  0  0  0  0  0  0  0  0  0  0  0
    7.6842  -13.3406   17.2225 O   0  0  0  0  0  0  0  0  0  0  0  0
    7.4917  -14.3731   19.3348 C   0  0  0  0  0  0  0  0  0  0  0  0
    7.7899  -14.0886   20.7678 C   0  0  0  0  0  0  0  0  0  0  0  0
    8.8639  -14.9615   21.3719 C   0  0  2  0  0  0  0  0  0  0  0  0
    8.5325  -16.3701   21.0601 N   0  0  0  0  0  0  0  0  0  0  0  0
    8.9040  -14.7746   22.8324 C   0  0  0  0  0  0  0  0  0  0  0  0
    9.0237  -13.5872   23.2920 O   0  0  0  0  0  0  0  0  0  0  0  0
    6.6609  -10.8463   27.2133 C   0  0  0  0  0  0  0  0  0  0  0  0
    6.3365  -12.5200   26.5930 S   0  0  0  0  0  0  0  0  0  0  0  0
    7.8965  -13.3289   26.0866 C   0  0  0  0  0  0  0  0  0  0  0  0
    7.6349  -14.7137   25.6040 C   0  0  0  0  0  0  0  0  0  0  0  0
    8.9026  -15.4612   25.2520 C   0  0  2  0  0  0  0  0  0  0  0  0
    8.8158  -15.7838   23.8140 N   0  0  0  0  0  0  0  0  0  0  0  0
    8.9541  -16.7055   26.0371 C   0  0  0  0  0  0  0  0  0  0  0  0
    8.7568  -17.8027   25.4557 O   0  0  0  0  0  0  0  0  0  0  0  0
    9.2093  -16.7840   27.3978 O   0  0  0  0  0  0  0  0  0  0  0  0
  2  3  1  0
  2  1  1  6
  4  5  1  0
  4  3  1  0
  6  5  1  0
  7  6  1  0
  8  9  2  0
  8  2  1  0
 10 11  1  0
 11 12  2  0
 13 14  1  0
 13 11  1  0
 15 14  1  6
 15 16  1  0
 16  8  1  0
 17 24  1  0
 17 15  1  0
 18 17  2  0
 19 20  1  0
 20 21  1  0
 21 22  1  0
 23 22  1  1
 23 24  1  0
 23 25  1  0
 25 27  1  0
 26 25  2  0
M  END
$$$$
