WRM.pdb
     RDKit          3D

 34 35  0  0  1  0  0  0  0  0999 V2000
   28.6983  -20.3739   -9.2409 N   0  0  0  0  0  0  0  0  0  0  0  0
   27.2602  -20.5399   -9.3062 C   0  0  1  0  0  0  0  0  0  0  0  0
   26.5533  -19.6682   -8.2912 C   0  0  0  0  0  0  0  0  0  0  0  0
   27.4405  -19.2925   -7.1696 C   0  0  0  0  0  0  0  0  0  0  0  0
   28.2140  -18.1759   -7.0759 C   0  0  0  0  0  0  0  0  0  0  0  0
   28.8623  -18.2188   -5.9027 N   0  0  0  0  0  0  0  0  0  0  0  0
   28.5161  -19.3407   -5.2491 C   0  0  0  0  0  0  0  0  0  0  0  0
   28.9085  -19.8430   -4.0100 C   0  0  0  0  0  0  0  0  0  0  0  0
   28.3796  -21.0424   -3.5902 C   0  0  0  0  0  0  0  0  0  0  0  0
   27.4800  -21.7535   -4.3559 C   0  0  0  0  0  0  0  0  0  0  0  0
   27.1028  -21.2468   -5.5737 C   0  0  0  0  0  0  0  0  0  0  0  0
   27.6151  -20.0469   -6.0232 C   0  0  0  0  0  0  0  0  0  0  0  0
   26.7265  -20.1999  -10.6443 C   0  0  0  0  0  0  0  0  0  0  0  0
   27.0913  -19.1286  -11.1760 O   0  0  0  0  0  0  0  0  0  0  0  0
   28.7366  -24.1448  -16.9380 N   0  0  0  0  0  0  0  0  0  0  0  0
   28.8206  -22.7352  -17.2108 C   0  0  0  0  0  0  0  0  0  0  0  0
   29.3004  -22.3125  -18.3287 N   0  0  0  0  0  0  0  0  0  0  0  0
   28.3826  -21.7688  -16.2711 N   0  0  0  0  0  0  0  0  0  0  0  0
   28.0047  -22.0924  -14.9313 C   0  0  0  0  0  0  0  0  0  0  0  0
   26.5375  -21.8081  -14.6345 C   0  0  0  0  0  0  0  0  0  0  0  0
   26.5297  -20.7204  -13.5807 C   0  0  0  0  0  0  0  0  0  0  0  0
   25.3305  -20.8198  -12.6688 C   0  0  2  0  0  0  0  0  0  0  0  0
   25.8289  -21.0510  -11.3173 N   0  0  0  0  0  0  0  0  0  0  0  0
   24.4015  -21.9250  -13.0674 C   0  0  0  0  0  0  0  0  0  0  0  0
   24.6342  -23.0635  -12.6406 O   0  0  0  0  0  0  0  0  0  0  0  0
   29.3456  -21.3116  -18.5622 C   0  0  0  0  0  0  0  0  0  0  0  0
   21.8375  -19.4721   -9.6324 S   0  0  0  0  0  0  0  0  0  0  0  0
   20.1703  -19.7449  -10.2935 C   0  0  0  0  0  0  0  0  0  0  0  0
   20.3287  -20.8703  -11.7115 C   0  0  0  0  0  0  0  0  0  0  0  0
   21.7154  -20.8855  -12.2600 C   0  0  2  0  0  0  0  0  0  0  0  0
   21.9102  -21.7650  -13.4486 N   0  0  0  0  0  0  0  0  0  0  0  0
   23.2841  -21.7237  -13.9001 C   0  0  0  0  0  0  0  0  0  0  0  0
   20.9607  -21.4735  -14.5501 O   0  0  0  0  0  0  0  0  0  0  0  0
   19.6837  -22.0677  -14.6076 O   0  0  0  0  0  0  0  0  0  0  0  0
  2  1  1  6
  2  3  1  0
  3  4  1  0
  4  5  2  0
  5  6  1  0
  7  6  1  0
  8  7  2  0
  9  8  1  0
 10 11  1  0
 10  9  2  0
 11 12  2  0
 12  4  1  0
 12  7  1  0
 13  2  1  0
 13 23  1  0
 14 13  2  0
 16 15  1  0
 17 16  2  0
 18 16  1  0
 19 18  1  0
 20 19  1  0
 20 21  1  0
 22 21  1  6
 22 24  1  0
 22 23  1  0
 24 31  1  0
 25 24  2  0
 27 28  1  0
 27 26  1  0
 29 28  1  0
 30 29  1  1
 31 30  1  0
 32 33  1  0
 32 30  1  0
 34 32  2  0
M  END
$$$$
