WRM.pdb
     RDKit          3D

 34 35  0  0  1  0  0  0  0  0999 V2000
   26.6730  -19.4009  -11.3469 N   0  0  0  0  0  0  0  0  0  0  0  0
   26.3482  -20.8132  -11.3393 C   0  0  1  0  0  0  0  0  0  0  0  0
   25.7469  -21.2382  -10.0173 C   0  0  0  0  0  0  0  0  0  0  0  0
   26.5881  -20.8343   -8.8704 C   0  0  0  0  0  0  0  0  0  0  0  0
   26.1888  -20.1513   -7.7623 C   0  0  0  0  0  0  0  0  0  0  0  0
   27.2576  -19.9884   -6.9689 N   0  0  0  0  0  0  0  0  0  0  0  0
   28.3284  -20.5546   -7.5510 C   0  0  0  0  0  0  0  0  0  0  0  0
   29.6557  -20.6541   -7.1388 C   0  0  0  0  0  0  0  0  0  0  0  0
   30.5512  -21.3023   -7.9588 C   0  0  0  0  0  0  0  0  0  0  0  0
   30.1734  -21.8508   -9.1661 C   0  0  0  0  0  0  0  0  0  0  0  0
   28.8632  -21.7452   -9.5590 C   0  0  0  0  0  0  0  0  0  0  0  0
   27.9410  -21.1013   -8.7597 C   0  0  0  0  0  0  0  0  0  0  0  0
   25.3852  -21.1629  -12.4075 C   0  0  0  0  0  0  0  0  0  0  0  0
   24.3753  -20.4412  -12.5582 O   0  0  0  0  0  0  0  0  0  0  0  0
   27.6561  -26.0418  -18.7019 N   0  0  0  0  0  0  0  0  0  0  0  0
   27.0877  -26.2970  -17.4056 C   0  0  0  0  0  0  0  0  0  0  0  0
   26.6447  -27.4682  -17.1044 N   0  0  0  0  0  0  0  0  0  0  0  0
   26.9955  -25.2813  -16.4214 N   0  0  0  0  0  0  0  0  0  0  0  0
   27.5024  -23.9583  -16.6096 C   0  0  0  0  0  0  0  0  0  0  0  0
   26.5464  -22.8735  -16.1293 C   0  0  0  0  0  0  0  0  0  0  0  0
   25.5284  -23.5743  -15.2539 C   0  0  0  0  0  0  0  0  0  0  0  0
   24.7520  -22.6046  -14.3957 C   0  0  2  0  0  0  0  0  0  0  0  0
   25.5859  -22.2779  -13.2440 N   0  0  0  0  0  0  0  0  0  0  0  0
   23.4442  -23.1714  -13.9358 C   0  0  0  0  0  0  0  0  0  0  0  0
   23.4678  -24.1083  -13.1270 O   0  0  0  0  0  0  0  0  0  0  0  0
   26.2698  -27.6892  -16.1722 C   0  0  0  0  0  0  0  0  0  0  0  0
   17.4120  -20.2138  -14.4396 S   0  0  0  0  0  0  0  0  0  0  0  0
   17.5405  -21.0882  -12.8554 C   0  0  0  0  0  0  0  0  0  0  0  0
   18.6503  -22.5048  -13.1084 C   0  0  0  0  0  0  0  0  0  0  0  0
   20.0020  -22.0790  -13.5729 C   0  0  1  0  0  0  0  0  0  0  0  0
   20.9189  -23.1957  -13.9423 N   0  0  0  0  0  0  0  0  0  0  0  0
   22.1998  -22.6864  -14.3817 C   0  0  0  0  0  0  0  0  0  0  0  0
   20.3295  -24.1291  -14.9327 O   0  0  0  0  0  0  0  0  0  0  0  0
   19.4867  -25.1903  -14.5445 O   0  0  0  0  0  0  0  0  0  0  0  0
  2  1  1  1
  2  3  1  0
  3  4  1  0
  4  5  2  0
  5  6  1  0
  7  6  1  0
  8  7  2  0
  9  8  1  0
 10 11  1  0
 10  9  2  0
 11 12  2  0
 12  4  1  0
 12  7  1  0
 13  2  1  0
 13 23  1  0
 14 13  2  0
 16 15  1  0
 17 16  2  0
 18 16  1  0
 19 18  1  0
 20 19  1  0
 20 21  1  0
 22 21  1  6
 22 24  1  0
 22 23  1  0
 24 31  1  0
 25 24  2  0
 27 28  1  0
 27 26  1  0
 29 28  1  0
 30 29  1  1
 31 30  1  0
 32 33  1  0
 32 30  1  0
 34 32  2  0
M  END
$$$$
