WRM.pdb
     RDKit          3D

 34 35  0  0  1  0  0  0  0  0999 V2000
   22.4621  -22.8488  -15.5030 N   0  0  0  0  0  0  0  0  0  0  0  0
   22.8277  -21.6950  -14.7060 C   0  0  1  0  0  0  0  0  0  0  0  0
   21.7323  -21.3237  -13.7303 C   0  0  0  0  0  0  0  0  0  0  0  0
   20.5221  -20.8258  -14.4186 C   0  0  0  0  0  0  0  0  0  0  0  0
   19.3169  -21.4521  -14.5118 C   0  0  0  0  0  0  0  0  0  0  0  0
   18.4940  -20.6633  -15.2184 N   0  0  0  0  0  0  0  0  0  0  0  0
   19.1528  -19.5480  -15.5762 C   0  0  0  0  0  0  0  0  0  0  0  0
   18.7480  -18.4344  -16.3093 C   0  0  0  0  0  0  0  0  0  0  0  0
   19.6575  -17.4241  -16.5251 C   0  0  0  0  0  0  0  0  0  0  0  0
   20.9466  -17.4839  -16.0395 C   0  0  0  0  0  0  0  0  0  0  0  0
   21.3312  -18.5865  -15.3194 C   0  0  0  0  0  0  0  0  0  0  0  0
   20.4431  -19.6165  -15.0859 C   0  0  0  0  0  0  0  0  0  0  0  0
   24.0648  -21.9318  -13.9287 C   0  0  0  0  0  0  0  0  0  0  0  0
   24.2286  -23.0515  -13.3969 O   0  0  0  0  0  0  0  0  0  0  0  0
   28.0730  -21.5230  -17.8529 N   0  0  0  0  0  0  0  0  0  0  0  0
   29.1246  -22.1765  -17.1212 C   0  0  0  0  0  0  0  0  0  0  0  0
   29.8509  -23.0786  -17.6846 N   0  0  0  0  0  0  0  0  0  0  0  0
   29.3992  -21.8555  -15.7683 N   0  0  0  0  0  0  0  0  0  0  0  0
   28.3798  -21.6622  -14.7854 C   0  0  0  0  0  0  0  0  0  0  0  0
   27.7565  -20.2726  -14.8301 C   0  0  0  0  0  0  0  0  0  0  0  0
   27.2257  -20.0100  -13.4361 C   0  0  0  0  0  0  0  0  0  0  0  0
   26.2584  -21.0778  -12.9848 C   0  0  2  0  0  0  0  0  0  0  0  0
   25.0450  -20.9314  -13.7816 N   0  0  0  0  0  0  0  0  0  0  0  0
   25.9295  -20.9697  -11.5277 C   0  0  0  0  0  0  0  0  0  0  0  0
   24.7856  -20.6153  -11.2137 O   0  0  0  0  0  0  0  0  0  0  0  0
   30.6003  -23.5718  -17.1811 C   0  0  0  0  0  0  0  0  0  0  0  0
   29.0162  -20.0262   -4.3311 S   0  0  0  0  0  0  0  0  0  0  0  0
   29.3155  -20.1158   -6.1181 C   0  0  0  0  0  0  0  0  0  0  0  0
   27.7269  -20.4980   -6.9137 C   0  0  0  0  0  0  0  0  0  0  0  0
   27.8854  -20.7811   -8.3693 C   0  0  1  0  0  0  0  0  0  0  0  0
   26.6126  -21.0521   -9.0979 N   0  0  0  0  0  0  0  0  0  0  0  0
   26.8597  -21.2524  -10.5092 C   0  0  0  0  0  0  0  0  0  0  0  0
   25.5760  -20.0178   -8.8626 O   0  0  0  0  0  0  0  0  0  0  0  0
   24.4851  -20.2416   -7.9983 O   0  0  0  0  0  0  0  0  0  0  0  0
  2  1  1  1
  2  3  1  0
  3  4  1  0
  4  5  2  0
  5  6  1  0
  7  6  1  0
  8  7  2  0
  9  8  1  0
 10 11  1  0
 10  9  2  0
 11 12  2  0
 12  4  1  0
 12  7  1  0
 13  2  1  0
 13 23  1  0
 14 13  2  0
 16 15  1  0
 17 16  2  0
 18 16  1  0
 19 18  1  0
 20 19  1  0
 20 21  1  0
 22 21  1  6
 22 24  1  0
 22 23  1  0
 24 31  1  0
 25 24  2  0
 27 28  1  0
 27 26  1  0
 29 28  1  0
 30 29  1  1
 31 30  1  0
 32 33  1  0
 32 30  1  0
 34 32  2  0
M  END
$$$$
