WRM.pdb
     RDKit          3D

 34 35  0  0  1  0  0  0  0  0999 V2000
   23.4026  -16.8545  -18.2305 N   0  0  0  0  0  0  0  0  0  0  0  0
   23.1487  -17.2867  -16.8708 C   0  0  1  0  0  0  0  0  0  0  0  0
   21.6946  -17.1066  -16.4927 C   0  0  0  0  0  0  0  0  0  0  0  0
   21.3360  -15.6812  -16.3323 C   0  0  0  0  0  0  0  0  0  0  0  0
   21.7394  -14.6422  -17.1142 C   0  0  0  0  0  0  0  0  0  0  0  0
   21.1909  -13.5198  -16.6266 N   0  0  0  0  0  0  0  0  0  0  0  0
   20.4469  -13.8251  -15.5500 C   0  0  0  0  0  0  0  0  0  0  0  0
   19.6864  -13.0254  -14.6992 C   0  0  0  0  0  0  0  0  0  0  0  0
   19.0185  -13.6258  -13.6562 C   0  0  0  0  0  0  0  0  0  0  0  0
   19.0813  -14.9850  -13.4328 C   0  0  0  0  0  0  0  0  0  0  0  0
   19.8340  -15.7598  -14.2785 C   0  0  0  0  0  0  0  0  0  0  0  0
   20.5156  -15.1882  -15.3333 C   0  0  0  0  0  0  0  0  0  0  0  0
   23.4946  -18.7121  -16.6719 C   0  0  0  0  0  0  0  0  0  0  0  0
   22.9633  -19.5633  -17.4180 O   0  0  0  0  0  0  0  0  0  0  0  0
   28.4544  -22.6197  -17.9254 N   0  0  0  0  0  0  0  0  0  0  0  0
   29.2247  -22.6549  -16.7114 C   0  0  0  0  0  0  0  0  0  0  0  0
   29.8510  -23.7254  -16.3646 N   0  0  0  0  0  0  0  0  0  0  0  0
   29.3235  -21.5254  -15.8608 N   0  0  0  0  0  0  0  0  0  0  0  0
   28.2700  -21.1029  -14.9924 C   0  0  0  0  0  0  0  0  0  0  0  0
   26.9370  -20.9210  -15.7075 C   0  0  0  0  0  0  0  0  0  0  0  0
   25.9182  -20.6395  -14.6228 C   0  0  0  0  0  0  0  0  0  0  0  0
   24.5229  -20.4853  -15.1785 C   0  0  2  0  0  0  0  0  0  0  0  0
   24.3990  -19.1178  -15.6716 N   0  0  0  0  0  0  0  0  0  0  0  0
   23.4672  -20.7561  -14.1512 C   0  0  0  0  0  0  0  0  0  0  0  0
   23.5524  -20.1749  -13.0615 O   0  0  0  0  0  0  0  0  0  0  0  0
   30.3898  -23.7861  -15.4903 C   0  0  0  0  0  0  0  0  0  0  0  0
   20.5361  -18.5492  -10.4193 S   0  0  0  0  0  0  0  0  0  0  0  0
   19.9837  -20.2641  -10.2071 C   0  0  0  0  0  0  0  0  0  0  0  0
   19.6612  -20.9370  -11.8642 C   0  0  0  0  0  0  0  0  0  0  0  0
   20.8097  -20.7162  -12.7896 C   0  0  1  0  0  0  0  0  0  0  0  0
   21.3815  -21.9574  -13.3869 N   0  0  0  0  0  0  0  0  0  0  0  0
   22.3910  -21.6368  -14.3722 C   0  0  0  0  0  0  0  0  0  0  0  0
   20.3479  -22.8688  -13.9353 O   0  0  0  0  0  0  0  0  0  0  0  0
   20.3377  -23.2506  -15.2922 O   0  0  0  0  0  0  0  0  0  0  0  0
  2  1  1  6
  2  3  1  0
  3  4  1  0
  4  5  2  0
  5  6  1  0
  7  6  1  0
  8  7  2  0
  9  8  1  0
 10 11  1  0
 10  9  2  0
 11 12  2  0
 12  4  1  0
 12  7  1  0
 13  2  1  0
 13 23  1  0
 14 13  2  0
 16 15  1  0
 17 16  2  0
 18 16  1  0
 19 18  1  0
 20 19  1  0
 20 21  1  0
 22 21  1  1
 22 24  1  0
 22 23  1  0
 24 31  1  0
 25 24  2  0
 27 28  1  0
 27 26  1  0
 29 28  1  0
 30 29  1  1
 31 30  1  0
 32 33  1  0
 32 30  1  0
 34 32  2  0
M  END
$$$$
