WRM.pdb
     RDKit          3D

 34 35  0  0  1  0  0  0  0  0999 V2000
   27.6341  -20.8682  -15.6933 N   0  0  0  0  0  0  0  0  0  0  0  0
   28.0090  -21.0570  -14.3063 C   0  0  1  0  0  0  0  0  0  0  0  0
   29.3402  -20.4074  -13.9970 C   0  0  0  0  0  0  0  0  0  0  0  0
   30.4128  -21.4064  -13.8030 C   0  0  0  0  0  0  0  0  0  0  0  0
   30.9370  -22.2385  -14.7446 C   0  0  0  0  0  0  0  0  0  0  0  0
   31.8843  -22.9840  -14.1570 N   0  0  0  0  0  0  0  0  0  0  0  0
   31.9724  -22.6420  -12.8604 C   0  0  0  0  0  0  0  0  0  0  0  0
   32.7897  -23.1163  -11.8364 C   0  0  0  0  0  0  0  0  0  0  0  0
   32.6544  -22.5683  -10.5810 C   0  0  0  0  0  0  0  0  0  0  0  0
   31.7401  -21.5718  -10.3122 C   0  0  0  0  0  0  0  0  0  0  0  0
   30.9421  -21.1148  -11.3302 C   0  0  0  0  0  0  0  0  0  0  0  0
   31.0532  -21.6436  -12.5998 C   0  0  0  0  0  0  0  0  0  0  0  0
   27.0027  -20.4893  -13.3813 C   0  0  0  0  0  0  0  0  0  0  0  0
   26.7939  -19.2569  -13.4123 O   0  0  0  0  0  0  0  0  0  0  0  0
   22.2006  -17.9622  -15.4602 N   0  0  0  0  0  0  0  0  0  0  0  0
   21.3483  -18.8860  -14.7610 C   0  0  0  0  0  0  0  0  0  0  0  0
   20.2815  -19.3430  -15.3193 N   0  0  0  0  0  0  0  0  0  0  0  0
   21.6471  -19.3242  -13.4466 N   0  0  0  0  0  0  0  0  0  0  0  0
   22.9803  -19.4967  -12.9614 C   0  0  0  0  0  0  0  0  0  0  0  0
   23.5078  -20.9146  -13.1421 C   0  0  0  0  0  0  0  0  0  0  0  0
   24.0014  -21.3516  -11.7786 C   0  0  0  0  0  0  0  0  0  0  0  0
   25.3707  -20.7986  -11.4647 C   0  0  2  0  0  0  0  0  0  0  0  0
   26.2877  -21.3030  -12.4813 N   0  0  0  0  0  0  0  0  0  0  0  0
   25.8480  -21.1977  -10.1023 C   0  0  0  0  0  0  0  0  0  0  0  0
   26.1411  -22.3854   -9.9128 O   0  0  0  0  0  0  0  0  0  0  0  0
   19.6512  -20.0003  -14.8407 C   0  0  0  0  0  0  0  0  0  0  0  0
   29.9531  -19.3947   -4.6136 S   0  0  0  0  0  0  0  0  0  0  0  0
   28.2807  -18.6978   -4.7031 C   0  0  0  0  0  0  0  0  0  0  0  0
   27.2170  -19.9444   -5.4886 C   0  0  0  0  0  0  0  0  0  0  0  0
   26.9943  -19.6568   -6.9350 C   0  0  1  0  0  0  0  0  0  0  0  0
   26.1626  -20.6645   -7.6541 N   0  0  0  0  0  0  0  0  0  0  0  0
   25.9760  -20.2852   -9.0376 C   0  0  0  0  0  0  0  0  0  0  0  0
   24.8703  -20.9398   -6.9804 O   0  0  0  0  0  0  0  0  0  0  0  0
   24.8024  -21.6464   -5.7626 O   0  0  0  0  0  0  0  0  0  0  0  0
  2  1  1  6
  2  3  1  0
  3  4  1  0
  4  5  2  0
  5  6  1  0
  7  6  1  0
  8  7  2  0
  9  8  1  0
 10 11  1  0
 10  9  2  0
 11 12  2  0
 12  4  1  0
 12  7  1  0
 13  2  1  0
 13 23  1  0
 14 13  2  0
 16 15  1  0
 17 16  2  0
 18 16  1  0
 19 18  1  0
 20 19  1  0
 20 21  1  0
 22 21  1  6
 22 24  1  0
 22 23  1  0
 24 31  1  0
 25 24  2  0
 27 28  1  0
 27 26  1  0
 29 28  1  0
 30 29  1  6
 31 30  1  0
 32 33  1  0
 32 30  1  0
 34 32  2  0
M  END
$$$$
