WRM.pdb
     RDKit          3D

 34 35  0  0  1  0  0  0  0  0999 V2000
   21.8142  -19.9243  -17.9004 N   0  0  0  0  0  0  0  0  0  0  0  0
   22.5706  -19.0362  -17.0406 C   0  0  1  0  0  0  0  0  0  0  0  0
   21.6637  -18.2422  -16.1260 C   0  0  0  0  0  0  0  0  0  0  0  0
   20.8409  -17.2661  -16.8721 C   0  0  0  0  0  0  0  0  0  0  0  0
   19.7008  -17.5209  -17.5712 C   0  0  0  0  0  0  0  0  0  0  0  0
   19.2705  -16.3648  -18.0970 N   0  0  0  0  0  0  0  0  0  0  0  0
   20.1148  -15.3801  -17.7458 C   0  0  0  0  0  0  0  0  0  0  0  0
   20.1114  -14.0171  -18.0351 C   0  0  0  0  0  0  0  0  0  0  0  0
   21.1262  -13.2360  -17.5305 C   0  0  0  0  0  0  0  0  0  0  0  0
   22.1368  -13.7615  -16.7535 C   0  0  0  0  0  0  0  0  0  0  0  0
   22.1273  -15.1053  -16.4769 C   0  0  0  0  0  0  0  0  0  0  0  0
   21.1240  -15.9153  -16.9679 C   0  0  0  0  0  0  0  0  0  0  0  0
   23.5321  -19.7765  -16.1930 C   0  0  0  0  0  0  0  0  0  0  0  0
   23.1372  -20.8076  -15.6062 O   0  0  0  0  0  0  0  0  0  0  0  0
   29.9527  -23.5202  -16.0078 N   0  0  0  0  0  0  0  0  0  0  0  0
   28.7594  -23.8263  -16.7498 C   0  0  0  0  0  0  0  0  0  0  0  0
   28.3341  -25.0390  -16.8338 N   0  0  0  0  0  0  0  0  0  0  0  0
   28.0140  -22.8165  -17.4083 N   0  0  0  0  0  0  0  0  0  0  0  0
   28.2360  -21.4193  -17.2054 C   0  0  0  0  0  0  0  0  0  0  0  0
   28.0748  -20.9890  -15.7527 C   0  0  0  0  0  0  0  0  0  0  0  0
   27.2075  -19.7478  -15.7804 C   0  0  0  0  0  0  0  0  0  0  0  0
   25.8455  -19.9913  -15.1762 C   0  0  2  0  0  0  0  0  0  0  0  0
   24.8637  -19.3446  -16.0402 N   0  0  0  0  0  0  0  0  0  0  0  0
   25.7352  -19.4519  -13.7834 C   0  0  0  0  0  0  0  0  0  0  0  0
   25.0243  -18.4552  -13.5997 O   0  0  0  0  0  0  0  0  0  0  0  0
   27.4402  -25.2762  -17.2844 C   0  0  0  0  0  0  0  0  0  0  0  0
   21.9361  -20.0936   -8.7026 S   0  0  0  0  0  0  0  0  0  0  0  0
   22.1735  -20.6781  -10.4034 C   0  0  0  0  0  0  0  0  0  0  0  0
   23.7647  -21.5545  -10.4565 C   0  0  0  0  0  0  0  0  0  0  0  0
   24.5483  -21.2153  -11.6792 C   0  0  2  0  0  0  0  0  0  0  0  0
   25.7613  -20.3826  -11.4359 N   0  0  0  0  0  0  0  0  0  0  0  0
   26.4008  -20.0271  -12.6840 C   0  0  0  0  0  0  0  0  0  0  0  0
   26.7155  -21.0074  -10.4879 O   0  0  0  0  0  0  0  0  0  0  0  0
   27.2063  -22.3147  -10.6804 O   0  0  0  0  0  0  0  0  0  0  0  0
  2  1  1  1
  2  3  1  0
  3  4  1  0
  4  5  2  0
  5  6  1  0
  7  6  1  0
  8  7  2  0
  9  8  1  0
 10 11  1  0
 10  9  2  0
 11 12  2  0
 12  4  1  0
 12  7  1  0
 13  2  1  0
 13 23  1  0
 14 13  2  0
 16 15  1  0
 17 16  2  0
 18 16  1  0
 19 18  1  0
 20 19  1  0
 20 21  1  0
 22 21  1  6
 22 24  1  0
 22 23  1  0
 24 31  1  0
 25 24  2  0
 27 28  1  0
 27 26  1  0
 29 28  1  0
 30 29  1  6
 31 30  1  0
 32 33  1  0
 32 30  1  0
 34 32  2  0
M  END
$$$$
