WRM.pdb
     RDKit          3D

 34 35  0  0  1  0  0  0  0  0999 V2000
   26.5169  -19.0751  -13.0119 N   0  0  0  0  0  0  0  0  0  0  0  0
   27.1293  -20.3721  -13.2185 C   0  0  1  0  0  0  0  0  0  0  0  0
   26.4026  -21.4579  -12.4550 C   0  0  0  0  0  0  0  0  0  0  0  0
   26.1542  -21.0753  -11.0486 C   0  0  0  0  0  0  0  0  0  0  0  0
   24.9502  -20.8022  -10.4745 C   0  0  0  0  0  0  0  0  0  0  0  0
   25.1653  -20.4978   -9.1863 N   0  0  0  0  0  0  0  0  0  0  0  0
   26.4825  -20.5720   -8.9304 C   0  0  0  0  0  0  0  0  0  0  0  0
   27.2075  -20.3501   -7.7613 C   0  0  0  0  0  0  0  0  0  0  0  0
   28.5750  -20.5024   -7.7977 C   0  0  0  0  0  0  0  0  0  0  0  0
   29.2405  -20.8654   -8.9494 C   0  0  0  0  0  0  0  0  0  0  0  0
   28.5137  -21.0805  -10.0929 C   0  0  0  0  0  0  0  0  0  0  0  0
   27.1414  -20.9360  -10.0894 C   0  0  0  0  0  0  0  0  0  0  0  0
   27.1408  -20.7546  -14.6483 C   0  0  0  0  0  0  0  0  0  0  0  0
   26.2205  -20.3359  -15.3839 O   0  0  0  0  0  0  0  0  0  0  0  0
   32.4665  -24.3191  -17.9045 N   0  0  0  0  0  0  0  0  0  0  0  0
   32.3678  -25.3103  -16.8672 C   0  0  0  0  0  0  0  0  0  0  0  0
   32.7494  -26.5216  -17.0811 N   0  0  0  0  0  0  0  0  0  0  0  0
   31.8536  -24.9953  -15.5844 N   0  0  0  0  0  0  0  0  0  0  0  0
   30.9282  -23.9317  -15.3499 C   0  0  0  0  0  0  0  0  0  0  0  0
   29.7928  -23.8870  -16.3649 C   0  0  0  0  0  0  0  0  0  0  0  0
   29.6851  -22.4419  -16.8049 C   0  0  0  0  0  0  0  0  0  0  0  0
   28.2958  -21.8869  -16.6017 C   0  0  2  0  0  0  0  0  0  0  0  0
   28.1564  -21.5695  -15.1845 N   0  0  0  0  0  0  0  0  0  0  0  0
   27.2296  -22.8536  -17.0165 C   0  0  0  0  0  0  0  0  0  0  0  0
   27.4063  -24.0546  -16.7738 O   0  0  0  0  0  0  0  0  0  0  0  0
   32.6952  -27.2494  -16.3560 C   0  0  0  0  0  0  0  0  0  0  0  0
   24.4069  -24.1743  -13.1924 S   0  0  0  0  0  0  0  0  0  0  0  0
   22.8211  -24.2677  -14.0683 C   0  0  0  0  0  0  0  0  0  0  0  0
   23.1722  -24.0896  -15.8424 C   0  0  0  0  0  0  0  0  0  0  0  0
   24.4273  -23.3226  -16.0889 C   0  0  2  0  0  0  0  0  0  0  0  0
   24.7717  -23.1287  -17.5269 N   0  0  0  0  0  0  0  0  0  0  0  0
   26.0449  -22.4558  -17.6652 C   0  0  0  0  0  0  0  0  0  0  0  0
   23.7025  -22.4449  -18.2943 O   0  0  0  0  0  0  0  0  0  0  0  0
   22.7524  -23.1637  -19.0478 O   0  0  0  0  0  0  0  0  0  0  0  0
  2  1  1  6
  2  3  1  0
  3  4  1  0
  4  5  2  0
  5  6  1  0
  7  6  1  0
  8  7  2  0
  9  8  1  0
 10 11  1  0
 10  9  2  0
 11 12  2  0
 12  4  1  0
 12  7  1  0
 13  2  1  0
 13 23  1  0
 14 13  2  0
 16 15  1  0
 17 16  2  0
 18 16  1  0
 19 18  1  0
 20 19  1  0
 20 21  1  0
 22 21  1  1
 22 24  1  0
 22 23  1  0
 24 31  1  0
 25 24  2  0
 27 28  1  0
 27 26  1  0
 29 28  1  0
 30 29  1  6
 31 30  1  0
 32 33  1  0
 32 30  1  0
 34 32  2  0
M  END
$$$$
