WRM.pdb
     RDKit          3D

 34 35  0  0  1  0  0  0  0  0999 V2000
   27.8185  -19.5545  -11.4815 N   0  0  0  0  0  0  0  0  0  0  0  0
   27.0969  -20.8007  -11.6434 C   0  0  1  0  0  0  0  0  0  0  0  0
   26.5427  -21.2973  -10.3259 C   0  0  0  0  0  0  0  0  0  0  0  0
   27.4629  -21.0277   -9.2004 C   0  0  0  0  0  0  0  0  0  0  0  0
   27.1385  -20.5126   -7.9826 C   0  0  0  0  0  0  0  0  0  0  0  0
   28.2626  -20.4274   -7.2564 N   0  0  0  0  0  0  0  0  0  0  0  0
   29.2952  -20.8783   -7.9888 C   0  0  0  0  0  0  0  0  0  0  0  0
   30.6522  -20.9938   -7.6943 C   0  0  0  0  0  0  0  0  0  0  0  0
   31.4931  -21.4990   -8.6599 C   0  0  0  0  0  0  0  0  0  0  0  0
   31.0327  -21.8902   -9.8993 C   0  0  0  0  0  0  0  0  0  0  0  0
   29.6941  -21.7706  -10.1752 C   0  0  0  0  0  0  0  0  0  0  0  0
   28.8251  -21.2678   -9.2286 C   0  0  0  0  0  0  0  0  0  0  0  0
   25.9652  -20.6636  -12.5874 C   0  0  0  0  0  0  0  0  0  0  0  0
   25.2268  -19.6593  -12.4896 O   0  0  0  0  0  0  0  0  0  0  0  0
   25.2145  -27.2968  -15.5560 N   0  0  0  0  0  0  0  0  0  0  0  0
   26.2377  -26.4270  -16.0706 C   0  0  0  0  0  0  0  0  0  0  0  0
   27.4721  -26.7941  -16.0656 N   0  0  0  0  0  0  0  0  0  0  0  0
   25.9299  -25.1477  -16.5976 N   0  0  0  0  0  0  0  0  0  0  0  0
   24.5949  -24.6556  -16.7331 C   0  0  0  0  0  0  0  0  0  0  0  0
   24.1718  -23.7411  -15.5903 C   0  0  0  0  0  0  0  0  0  0  0  0
   25.0414  -22.5062  -15.7020 C   0  0  0  0  0  0  0  0  0  0  0  0
   24.7191  -21.4848  -14.6380 C   0  0  2  0  0  0  0  0  0  0  0  0
   25.7115  -21.6312  -13.5787 N   0  0  0  0  0  0  0  0  0  0  0  0
   23.3419  -21.6617  -14.0766 C   0  0  0  0  0  0  0  0  0  0  0  0
   23.1658  -22.5537  -13.2364 O   0  0  0  0  0  0  0  0  0  0  0  0
   28.2318  -26.1658  -16.3596 C   0  0  0  0  0  0  0  0  0  0  0  0
   19.7883  -16.6562  -12.4967 S   0  0  0  0  0  0  0  0  0  0  0  0
   18.4182  -17.7022  -13.0620 C   0  0  0  0  0  0  0  0  0  0  0  0
   19.0318  -19.4118  -13.1202 C   0  0  0  0  0  0  0  0  0  0  0  0
   20.3718  -19.5022  -13.7686 C   0  0  1  0  0  0  0  0  0  0  0  0
   20.9579  -20.8730  -13.8090 N   0  0  0  0  0  0  0  0  0  0  0  0
   22.2489  -20.8620  -14.4617 C   0  0  0  0  0  0  0  0  0  0  0  0
   20.0470  -21.8779  -14.4092 O   0  0  0  0  0  0  0  0  0  0  0  0
   18.9920  -22.4572  -13.6753 O   0  0  0  0  0  0  0  0  0  0  0  0
  2  1  1  1
  2  3  1  0
  3  4  1  0
  4  5  2  0
  5  6  1  0
  7  6  1  0
  8  7  2  0
  9  8  1  0
 10 11  1  0
 10  9  2  0
 11 12  2  0
 12  4  1  0
 12  7  1  0
 13  2  1  0
 13 23  1  0
 14 13  2  0
 16 15  1  0
 17 16  2  0
 18 16  1  0
 19 18  1  0
 20 19  1  0
 20 21  1  0
 22 21  1  6
 22 24  1  0
 22 23  1  0
 24 31  1  0
 25 24  2  0
 27 28  1  0
 27 26  1  0
 29 28  1  0
 30 29  1  1
 31 30  1  0
 32 33  1  0
 32 30  1  0
 34 32  2  0
M  END
$$$$
