WRM.pdb
     RDKit          3D

 34 35  0  0  1  0  0  0  0  0999 V2000
   28.7532  -30.5342  -17.6474 N   0  0  0  0  0  0  0  0  0  0  0  0
   29.5140  -30.3001  -18.8583 C   0  0  1  0  0  0  0  0  0  0  0  0
   28.6432  -30.4072  -20.0913 C   0  0  0  0  0  0  0  0  0  0  0  0
   28.2890  -31.8093  -20.3996 C   0  0  0  0  0  0  0  0  0  0  0  0
   27.2695  -32.5337  -19.8616 C   0  0  0  0  0  0  0  0  0  0  0  0
   27.2967  -33.7572  -20.4099 N   0  0  0  0  0  0  0  0  0  0  0  0
   28.3136  -33.8246  -21.2858 C   0  0  0  0  0  0  0  0  0  0  0  0
   28.7596  -34.8629  -22.1011 C   0  0  0  0  0  0  0  0  0  0  0  0
   29.8498  -34.6398  -22.9112 C   0  0  0  0  0  0  0  0  0  0  0  0
   30.5062  -33.4276  -22.9374 C   0  0  0  0  0  0  0  0  0  0  0  0
   30.0560  -32.4145  -22.1293 C   0  0  0  0  0  0  0  0  0  0  0  0
   28.9657  -32.6063  -21.3055 C   0  0  0  0  0  0  0  0  0  0  0  0
   30.1428  -28.9602  -18.8637 C   0  0  0  0  0  0  0  0  0  0  0  0
   29.7101  -28.0963  -18.0700 O   0  0  0  0  0  0  0  0  0  0  0  0
   38.0832  -28.7786  -19.0805 N   0  0  0  0  0  0  0  0  0  0  0  0
   36.9616  -29.6282  -19.3782 C   0  0  0  0  0  0  0  0  0  0  0  0
   37.1438  -30.8021  -19.8756 N   0  0  0  0  0  0  0  0  0  0  0  0
   35.6286  -29.2111  -19.1373 N   0  0  0  0  0  0  0  0  0  0  0  0
   35.2964  -27.9787  -18.4942 C   0  0  0  0  0  0  0  0  0  0  0  0
   33.7951  -27.7435  -18.3831 C   0  0  0  0  0  0  0  0  0  0  0  0
   33.3057  -27.5061  -19.7966 C   0  0  0  0  0  0  0  0  0  0  0  0
   31.8080  -27.3258  -19.8577 C   0  0  2  0  0  0  0  0  0  0  0  0
   31.2046  -28.6484  -19.7347 N   0  0  0  0  0  0  0  0  0  0  0  0
   31.3636  -26.6775  -21.1326 C   0  0  0  0  0  0  0  0  0  0  0  0
   31.0581  -27.4100  -22.0826 O   0  0  0  0  0  0  0  0  0  0  0  0
   36.3597  -31.4045  -20.1597 C   0  0  0  0  0  0  0  0  0  0  0  0
   25.6798  -24.2326  -24.1134 S   0  0  0  0  0  0  0  0  0  0  0  0
   26.8744  -23.8050  -22.8168 C   0  0  0  0  0  0  0  0  0  0  0  0
   27.8238  -25.3080  -22.4397 C   0  0  0  0  0  0  0  0  0  0  0  0
   28.8730  -25.0616  -21.4088 C   0  0  2  0  0  0  0  0  0  0  0  0
   30.1844  -24.5981  -21.9468 N   0  0  0  0  0  0  0  0  0  0  0  0
   31.2795  -25.2812  -21.2934 C   0  0  0  0  0  0  0  0  0  0  0  0
   30.3465  -23.1247  -21.8952 O   0  0  0  0  0  0  0  0  0  0  0  0
   29.5453  -22.2610  -22.6692 O   0  0  0  0  0  0  0  0  0  0  0  0
  2  1  1  1
  2  3  1  0
  3  4  1  0
  4  5  2  0
  5  6  1  0
  7  6  1  0
  8  7  2  0
  9  8  1  0
 10 11  1  0
 10  9  2  0
 11 12  2  0
 12  4  1  0
 12  7  1  0
 13  2  1  0
 13 23  1  0
 14 13  2  0
 16 15  1  0
 17 16  2  0
 18 16  1  0
 19 18  1  0
 20 19  1  0
 20 21  1  0
 22 21  1  6
 22 24  1  0
 22 23  1  0
 24 31  1  0
 25 24  2  0
 27 28  1  0
 27 26  1  0
 29 28  1  0
 30 29  1  6
 31 30  1  0
 32 33  1  0
 32 30  1  0
 34 32  2  0
M  END
$$$$
