WRM.pdb
     RDKit          3D

 34 35  0  0  1  0  0  0  0  0999 V2000
   27.1666  -19.9626  -18.0146 N   0  0  0  0  0  0  0  0  0  0  0  0
   27.0372  -19.4277  -16.6740 C   0  0  1  0  0  0  0  0  0  0  0  0
   26.4101  -18.0507  -16.6830 C   0  0  0  0  0  0  0  0  0  0  0  0
   27.1961  -17.0888  -17.4850 C   0  0  0  0  0  0  0  0  0  0  0  0
   26.7102  -16.1196  -18.3086 C   0  0  0  0  0  0  0  0  0  0  0  0
   27.7540  -15.4705  -18.8448 N   0  0  0  0  0  0  0  0  0  0  0  0
   28.8937  -16.0082  -18.3782 C   0  0  0  0  0  0  0  0  0  0  0  0
   30.2287  -15.6969  -18.6281 C   0  0  0  0  0  0  0  0  0  0  0  0
   31.2043  -16.4345  -17.9966 C   0  0  0  0  0  0  0  0  0  0  0  0
   30.8987  -17.4635  -17.1313 C   0  0  0  0  0  0  0  0  0  0  0  0
   29.5800  -17.7587  -16.8949 C   0  0  0  0  0  0  0  0  0  0  0  0
   28.5783  -17.0381  -17.5125 C   0  0  0  0  0  0  0  0  0  0  0  0
   26.2064  -20.2976  -15.8115 C   0  0  0  0  0  0  0  0  0  0  0  0
   25.3307  -21.0088  -16.3507 O   0  0  0  0  0  0  0  0  0  0  0  0
   22.9059  -20.1071   -9.0373 N   0  0  0  0  0  0  0  0  0  0  0  0
   23.6373  -21.0632   -8.2503 C   0  0  0  0  0  0  0  0  0  0  0  0
   23.0892  -21.6276   -7.2307 N   0  0  0  0  0  0  0  0  0  0  0  0
   24.9735  -21.4173   -8.5639 N   0  0  0  0  0  0  0  0  0  0  0  0
   25.6832  -20.8863   -9.6851 C   0  0  0  0  0  0  0  0  0  0  0  0
   25.0054  -21.1760  -11.0185 C   0  0  0  0  0  0  0  0  0  0  0  0
   25.9415  -20.6460  -12.0846 C   0  0  0  0  0  0  0  0  0  0  0  0
   25.4291  -20.9180  -13.4785 C   0  0  2  0  0  0  0  0  0  0  0  0
   26.3847  -20.3364  -14.4151 N   0  0  0  0  0  0  0  0  0  0  0  0
   24.0683  -20.3366  -13.7091 C   0  0  0  0  0  0  0  0  0  0  0  0
   23.9232  -19.1165  -13.5578 O   0  0  0  0  0  0  0  0  0  0  0  0
   23.5788  -22.3357   -6.6674 C   0  0  0  0  0  0  0  0  0  0  0  0
   21.3649  -22.6182  -18.5176 S   0  0  0  0  0  0  0  0  0  0  0  0
   20.2890  -23.2549  -17.2030 C   0  0  0  0  0  0  0  0  0  0  0  0
   20.9426  -22.6380  -15.6236 C   0  0  0  0  0  0  0  0  0  0  0  0
   21.0851  -21.1535  -15.6199 C   0  0  1  0  0  0  0  0  0  0  0  0
   21.6405  -20.5797  -14.3604 N   0  0  0  0  0  0  0  0  0  0  0  0
   22.9571  -21.1139  -14.0879 C   0  0  0  0  0  0  0  0  0  0  0  0
   20.7320  -20.7376  -13.1988 O   0  0  0  0  0  0  0  0  0  0  0  0
   19.4713  -20.1087  -13.1501 O   0  0  0  0  0  0  0  0  0  0  0  0
  2  1  1  6
  2  3  1  0
  3  4  1  0
  4  5  2  0
  5  6  1  0
  7  6  1  0
  8  7  2  0
  9  8  1  0
 10 11  1  0
 10  9  2  0
 11 12  2  0
 12  4  1  0
 12  7  1  0
 13  2  1  0
 13 23  1  0
 14 13  2  0
 16 15  1  0
 17 16  2  0
 18 16  1  0
 19 18  1  0
 20 19  1  0
 20 21  1  0
 22 21  1  1
 22 24  1  0
 22 23  1  0
 24 31  1  0
 25 24  2  0
 27 28  1  0
 27 26  1  0
 29 28  1  0
 30 29  1  6
 31 30  1  0
 32 33  1  0
 32 30  1  0
 34 32  2  0
M  END
$$$$
