WRM.pdb
     RDKit          3D

 34 35  0  0  1  0  0  0  0  0999 V2000
   28.1694  -19.4460  -11.3921 N   0  0  0  0  0  0  0  0  0  0  0  0
   27.4262  -20.6898  -11.3666 C   0  0  1  0  0  0  0  0  0  0  0  0
   26.7986  -20.9347  -10.0117 C   0  0  0  0  0  0  0  0  0  0  0  0
   27.7953  -20.8795   -8.9209 C   0  0  0  0  0  0  0  0  0  0  0  0
   27.6297  -20.3275   -7.6874 C   0  0  0  0  0  0  0  0  0  0  0  0
   28.7729  -20.4886   -7.0049 N   0  0  0  0  0  0  0  0  0  0  0  0
   29.6617  -21.1322   -7.7806 C   0  0  0  0  0  0  0  0  0  0  0  0
   30.9749  -21.5312   -7.5402 C   0  0  0  0  0  0  0  0  0  0  0  0
   31.6566  -22.1844   -8.5417 C   0  0  0  0  0  0  0  0  0  0  0  0
   31.0800  -22.4522   -9.7652 C   0  0  0  0  0  0  0  0  0  0  0  0
   29.7863  -22.0534   -9.9877 C   0  0  0  0  0  0  0  0  0  0  0  0
   29.0760  -21.3963   -9.0041 C   0  0  0  0  0  0  0  0  0  0  0  0
   26.3439  -20.7059  -12.3761 C   0  0  0  0  0  0  0  0  0  0  0  0
   25.5493  -19.7411  -12.4122 O   0  0  0  0  0  0  0  0  0  0  0  0
   23.9426  -27.1239  -15.6538 N   0  0  0  0  0  0  0  0  0  0  0  0
   23.5192  -26.5819  -16.9169 C   0  0  0  0  0  0  0  0  0  0  0  0
   22.4987  -27.0726  -17.5303 N   0  0  0  0  0  0  0  0  0  0  0  0
   24.2004  -25.4991  -17.5270 N   0  0  0  0  0  0  0  0  0  0  0  0
   25.1549  -24.6862  -16.8408 C   0  0  0  0  0  0  0  0  0  0  0  0
   24.5186  -23.7073  -15.8619 C   0  0  0  0  0  0  0  0  0  0  0  0
   25.6469  -22.8330  -15.3556 C   0  0  0  0  0  0  0  0  0  0  0  0
   25.1764  -21.8380  -14.3221 C   0  0  2  0  0  0  0  0  0  0  0  0
   26.1978  -21.7737  -13.2824 N   0  0  0  0  0  0  0  0  0  0  0  0
   23.8586  -22.2202  -13.7216 C   0  0  0  0  0  0  0  0  0  0  0  0
   23.8116  -23.2404  -13.0220 O   0  0  0  0  0  0  0  0  0  0  0  0
   22.1773  -26.7085  -18.4373 C   0  0  0  0  0  0  0  0  0  0  0  0
   18.5585  -18.2043  -13.6333 S   0  0  0  0  0  0  0  0  0  0  0  0
   18.5124  -19.1043  -12.0589 C   0  0  0  0  0  0  0  0  0  0  0  0
   19.3553  -20.6930  -12.3197 C   0  0  0  0  0  0  0  0  0  0  0  0
   20.7408  -20.5110  -12.8404 C   0  0  1  0  0  0  0  0  0  0  0  0
   21.4129  -21.7652  -13.2870 N   0  0  0  0  0  0  0  0  0  0  0  0
   22.6815  -21.4730  -13.9181 C   0  0  0  0  0  0  0  0  0  0  0  0
   20.5522  -22.6115  -14.1488 O   0  0  0  0  0  0  0  0  0  0  0  0
   19.6372  -23.5364  -13.6063 O   0  0  0  0  0  0  0  0  0  0  0  0
  2  1  1  1
  2  3  1  0
  3  4  1  0
  4  5  2  0
  5  6  1  0
  7  6  1  0
  8  7  2  0
  9  8  1  0
 10 11  1  0
 10  9  2  0
 11 12  2  0
 12  4  1  0
 12  7  1  0
 13  2  1  0
 13 23  1  0
 14 13  2  0
 16 15  1  0
 17 16  2  0
 18 16  1  0
 19 18  1  0
 20 19  1  0
 20 21  1  0
 22 21  1  6
 22 24  1  0
 22 23  1  0
 24 31  1  0
 25 24  2  0
 27 28  1  0
 27 26  1  0
 29 28  1  0
 30 29  1  1
 31 30  1  0
 32 33  1  0
 32 30  1  0
 34 32  2  0
M  END
$$$$
