WRM.pdb
     RDKit          3D

 34 35  0  0  1  0  0  0  0  0999 V2000
   27.7259  -20.2067  -10.4752 N   0  0  0  0  0  0  0  0  0  0  0  0
   26.5024  -20.9057  -10.1368 C   0  0  1  0  0  0  0  0  0  0  0  0
   25.7268  -20.1791   -9.0596 C   0  0  0  0  0  0  0  0  0  0  0  0
   26.6150  -19.6231   -8.0164 C   0  0  0  0  0  0  0  0  0  0  0  0
   26.9842  -18.3215   -7.8638 C   0  0  0  0  0  0  0  0  0  0  0  0
   27.7958  -18.2436   -6.7991 N   0  0  0  0  0  0  0  0  0  0  0  0
   27.9497  -19.4702   -6.2721 C   0  0  0  0  0  0  0  0  0  0  0  0
   28.6848  -19.9158   -5.1754 C   0  0  0  0  0  0  0  0  0  0  0  0
   28.6554  -21.2567   -4.8661 C   0  0  0  0  0  0  0  0  0  0  0  0
   27.9247  -22.1624   -5.6056 C   0  0  0  0  0  0  0  0  0  0  0  0
   27.2058  -21.7093   -6.6827 C   0  0  0  0  0  0  0  0  0  0  0  0
   27.2146  -20.3711   -7.0190 C   0  0  0  0  0  0  0  0  0  0  0  0
   25.6127  -21.0587  -11.3097 C   0  0  0  0  0  0  0  0  0  0  0  0
   25.4476  -20.0752  -12.0640 O   0  0  0  0  0  0  0  0  0  0  0  0
   28.2933  -23.4602  -16.1191 N   0  0  0  0  0  0  0  0  0  0  0  0
   27.2762  -24.4734  -16.2039 C   0  0  0  0  0  0  0  0  0  0  0  0
   27.5793  -25.7178  -16.0690 N   0  0  0  0  0  0  0  0  0  0  0  0
   25.9170  -24.1448  -16.4354 N   0  0  0  0  0  0  0  0  0  0  0  0
   25.0103  -23.7775  -15.3935 C   0  0  0  0  0  0  0  0  0  0  0  0
   25.4298  -24.2914  -14.0218 C   0  0  0  0  0  0  0  0  0  0  0  0
   24.2686  -23.9981  -13.0949 C   0  0  0  0  0  0  0  0  0  0  0  0
   24.1533  -22.5272  -12.7746 C   0  0  2  0  0  0  0  0  0  0  0  0
   24.9599  -22.2758  -11.5852 N   0  0  0  0  0  0  0  0  0  0  0  0
   22.7368  -22.1064  -12.5303 C   0  0  0  0  0  0  0  0  0  0  0  0
   22.1271  -22.6326  -11.5902 O   0  0  0  0  0  0  0  0  0  0  0  0
   26.8865  -26.4676  -16.1969 C   0  0  0  0  0  0  0  0  0  0  0  0
   16.8291  -17.3489  -14.8737 S   0  0  0  0  0  0  0  0  0  0  0  0
   18.5562  -17.8391  -15.1337 C   0  0  0  0  0  0  0  0  0  0  0  0
   18.9008  -19.2228  -14.0073 C   0  0  0  0  0  0  0  0  0  0  0  0
   20.3322  -19.6387  -14.0553 C   0  0  1  0  0  0  0  0  0  0  0  0
   20.6770  -20.8016  -13.1877 N   0  0  0  0  0  0  0  0  0  0  0  0
   22.0762  -21.1450  -13.3189 C   0  0  0  0  0  0  0  0  0  0  0  0
   19.7994  -21.9759  -13.4126 O   0  0  0  0  0  0  0  0  0  0  0  0
   18.6481  -22.2040  -12.6319 O   0  0  0  0  0  0  0  0  0  0  0  0
  2  1  1  6
  2  3  1  0
  3  4  1  0
  4  5  2  0
  5  6  1  0
  7  6  1  0
  8  7  2  0
  9  8  1  0
 10 11  1  0
 10  9  2  0
 11 12  2  0
 12  4  1  0
 12  7  1  0
 13  2  1  0
 13 23  1  0
 14 13  2  0
 16 15  1  0
 17 16  2  0
 18 16  1  0
 19 18  1  0
 20 19  1  0
 20 21  1  0
 22 21  1  1
 22 24  1  0
 22 23  1  0
 24 31  1  0
 25 24  2  0
 27 28  1  0
 27 26  1  0
 29 28  1  0
 30 29  1  1
 31 30  1  0
 32 33  1  0
 32 30  1  0
 34 32  2  0
M  END
$$$$
