WRM.pdb
     RDKit          3D

 34 35  0  0  1  0  0  0  0  0999 V2000
   27.9121  -19.7443  -10.3270 N   0  0  0  0  0  0  0  0  0  0  0  0
   26.8999  -20.7780  -10.2437 C   0  0  1  0  0  0  0  0  0  0  0  0
   26.6854  -21.2322   -8.8163 C   0  0  0  0  0  0  0  0  0  0  0  0
   27.1709  -20.2352   -7.8384 C   0  0  0  0  0  0  0  0  0  0  0  0
   27.0794  -18.8803   -7.9362 C   0  0  0  0  0  0  0  0  0  0  0  0
   27.6413  -18.3474   -6.8413 N   0  0  0  0  0  0  0  0  0  0  0  0
   28.0881  -19.3371   -6.0496 C   0  0  0  0  0  0  0  0  0  0  0  0
   28.7388  -19.3085   -4.8178 C   0  0  0  0  0  0  0  0  0  0  0  0
   29.0856  -20.5039   -4.2303 C   0  0  0  0  0  0  0  0  0  0  0  0
   28.8088  -21.7179   -4.8227 C   0  0  0  0  0  0  0  0  0  0  0  0
   28.1677  -21.7306   -6.0356 C   0  0  0  0  0  0  0  0  0  0  0  0
   27.8069  -20.5493   -6.6506 C   0  0  0  0  0  0  0  0  0  0  0  0
   25.5966  -20.3170  -10.7725 C   0  0  0  0  0  0  0  0  0  0  0  0
   25.4108  -19.0881  -10.9093 O   0  0  0  0  0  0  0  0  0  0  0  0
   24.8114  -24.9468  -16.3338 N   0  0  0  0  0  0  0  0  0  0  0  0
   25.7681  -24.2302  -17.1336 C   0  0  0  0  0  0  0  0  0  0  0  0
   26.1836  -24.7183  -18.2507 N   0  0  0  0  0  0  0  0  0  0  0  0
   26.2834  -22.9736  -16.7281 N   0  0  0  0  0  0  0  0  0  0  0  0
   26.4095  -22.5823  -15.3594 C   0  0  0  0  0  0  0  0  0  0  0  0
   25.0699  -22.3177  -14.6832 C   0  0  0  0  0  0  0  0  0  0  0  0
   25.3956  -21.9020  -13.2637 C   0  0  0  0  0  0  0  0  0  0  0  0
   24.1607  -21.5132  -12.4869 C   0  0  2  0  0  0  0  0  0  0  0  0
   24.5790  -21.2266  -11.1189 N   0  0  0  0  0  0  0  0  0  0  0  0
   23.1227  -22.5929  -12.4889 C   0  0  0  0  0  0  0  0  0  0  0  0
   22.8097  -23.0976  -13.5750 O   0  0  0  0  0  0  0  0  0  0  0  0
   26.9581  -24.2951  -18.7793 C   0  0  0  0  0  0  0  0  0  0  0  0
   21.6828  -21.0925   -6.6938 S   0  0  0  0  0  0  0  0  0  0  0  0
   19.9850  -21.6308   -7.0382 C   0  0  0  0  0  0  0  0  0  0  0  0
   19.8772  -21.9719   -8.8199 C   0  0  0  0  0  0  0  0  0  0  0  0
   21.1951  -22.3708   -9.3928 C   0  0  2  0  0  0  0  0  0  0  0  0
   21.1904  -22.6199  -10.8632 N   0  0  0  0  0  0  0  0  0  0  0  0
   22.4942  -23.0535  -11.3162 C   0  0  0  0  0  0  0  0  0  0  0  0
   20.6924  -21.4639  -11.6477 O   0  0  0  0  0  0  0  0  0  0  0  0
   19.5108  -21.5383  -12.4127 O   0  0  0  0  0  0  0  0  0  0  0  0
  2  1  1  1
  2  3  1  0
  3  4  1  0
  4  5  2  0
  5  6  1  0
  7  6  1  0
  8  7  2  0
  9  8  1  0
 10 11  1  0
 10  9  2  0
 11 12  2  0
 12  4  1  0
 12  7  1  0
 13  2  1  0
 13 23  1  0
 14 13  2  0
 16 15  1  0
 17 16  2  0
 18 16  1  0
 19 18  1  0
 20 19  1  0
 20 21  1  0
 22 21  1  6
 22 24  1  0
 22 23  1  0
 24 31  1  0
 25 24  2  0
 27 28  1  0
 27 26  1  0
 29 28  1  0
 30 29  1  1
 31 30  1  0
 32 33  1  0
 32 30  1  0
 34 32  2  0
M  END
$$$$
