IEA.pdb
     RDKit          3D

 23 22  0  0  1  0  0  0  0  0999 V2000
   13.4506   -7.9686  -14.7949 C   0  0  0  0  0  0  0  0  0  0  0  0
   14.3483   -9.0128  -15.4236 C   0  0  0  0  0  0  0  0  0  0  0  0
   15.7529   -8.8140  -14.9132 C   0  0  2  0  0  0  0  0  0  0  0  0
   16.2398   -7.4654  -15.3945 C   0  0  0  0  0  0  0  0  0  0  0  0
   16.6814   -9.9228  -15.3588 C   0  0  2  0  0  0  0  0  0  0  0  0
   16.3169  -11.1979  -14.8168 N   0  0  0  0  0  0  0  0  0  0  0  0
   18.0988   -9.6192  -14.9439 C   0  0  0  0  0  0  0  0  0  0  0  0
   18.4400   -9.9833  -13.8046 O   0  0  0  0  0  0  0  0  0  0  0  0
   18.9938   -8.9578  -15.7987 N   0  0  0  0  0  0  0  0  0  0  0  0
   20.3711   -8.6243  -15.5860 C   0  0  1  0  0  0  0  0  0  0  0  0
   21.2929   -9.2779  -16.6120 C   0  0  0  0  0  0  0  0  0  0  0  0
   22.7125   -9.0581  -16.2143 C   0  0  0  0  0  0  0  0  0  0  0  0
   23.6345   -9.6258  -17.2442 C   0  0  0  0  0  0  0  0  0  0  0  0
   24.7927   -9.1887  -17.3573 O   0  0  0  0  0  0  0  0  0  0  0  0
   20.5919   -7.2051  -15.3923 C   0  0  0  0  0  0  0  0  0  0  0  0
   20.1959   -6.3447  -16.2437 O   0  0  0  0  0  0  0  0  0  0  0  0
   23.1966  -10.6445  -18.0776 O   0  0  0  0  0  0  0  0  0  0  0  0
   22.6534   -4.9698  -15.1305 C   0  0  0  0  0  0  0  0  0  0  0  0
   21.5814   -5.2900  -14.0907 C   0  0  2  0  0  0  0  0  0  0  0  0
   21.2587   -6.6927  -14.2487 N   0  0  0  0  0  0  0  0  0  0  0  0
   20.3824   -4.4315  -14.2705 C   0  0  0  0  0  0  0  0  0  0  0  0
   20.2596   -3.2175  -13.6064 O   0  0  0  0  0  0  0  0  0  0  0  0
   19.4730   -4.8288  -15.0424 O   0  0  0  0  0  0  0  0  0  0  0  0
  2  3  1  0
  2  1  1  0
  3  4  1  6
  5  7  1  0
  5  3  1  0
  5  6  1  1
  7  8  2  0
  9 10  1  0
  9  7  1  0
 10 11  1  6
 12 11  1  0
 12 13  1  0
 13 17  1  0
 14 13  2  0
 15 20  1  0
 15 10  1  0
 16 15  2  0
 19 18  1  6
 19 21  1  0
 19 20  1  0
 21 22  1  0
 23 21  2  0
M  END
$$$$
