IEA.pdb
     RDKit          3D

 23 22  0  0  1  0  0  0  0  0999 V2000
   27.4506  -14.7413  -16.5602 C   0  0  0  0  0  0  0  0  0  0  0  0
   27.1092  -15.8086  -17.5779 C   0  0  0  0  0  0  0  0  0  0  0  0
   26.4094  -16.9429  -16.8733 C   0  0  2  0  0  0  0  0  0  0  0  0
   25.2830  -16.3592  -16.0499 C   0  0  0  0  0  0  0  0  0  0  0  0
   27.3579  -17.7478  -16.0115 C   0  0  2  0  0  0  0  0  0  0  0  0
   28.3944  -18.3782  -16.7737 N   0  0  0  0  0  0  0  0  0  0  0  0
   26.6057  -18.8165  -15.2596 C   0  0  0  0  0  0  0  0  0  0  0  0
   26.3248  -19.8523  -15.8882 O   0  0  0  0  0  0  0  0  0  0  0  0
   26.2381  -18.6549  -13.9151 N   0  0  0  0  0  0  0  0  0  0  0  0
   25.5366  -19.5589  -13.0526 C   0  0  1  0  0  0  0  0  0  0  0  0
   25.9219  -19.3810  -11.5865 C   0  0  0  0  0  0  0  0  0  0  0  0
   25.1473  -20.3412  -10.7501 C   0  0  0  0  0  0  0  0  0  0  0  0
   25.9963  -21.5160  -10.3865 C   0  0  0  0  0  0  0  0  0  0  0  0
   27.1880  -21.5602  -10.7372 O   0  0  0  0  0  0  0  0  0  0  0  0
   24.1095  -19.5956  -13.3025 C   0  0  0  0  0  0  0  0  0  0  0  0
   23.3753  -18.5681  -13.1369 O   0  0  0  0  0  0  0  0  0  0  0  0
   25.4527  -22.5615   -9.6546 O   0  0  0  0  0  0  0  0  0  0  0  0
   21.7165  -22.2438  -14.4672 C   0  0  0  0  0  0  0  0  0  0  0  0
   22.0177  -20.8376  -13.9524 C   0  0  2  0  0  0  0  0  0  0  0  0
   23.4491  -20.7718  -13.7442 N   0  0  0  0  0  0  0  0  0  0  0  0
   21.2712  -20.5505  -12.7003 C   0  0  0  0  0  0  0  0  0  0  0  0
   21.7916  -20.8894  -11.4577 O   0  0  0  0  0  0  0  0  0  0  0  0
   20.1493  -19.9899  -12.7885 O   0  0  0  0  0  0  0  0  0  0  0  0
  2  3  1  0
  2  1  1  0
  3  4  1  1
  5  7  1  0
  5  3  1  0
  5  6  1  6
  7  8  2  0
  9 10  1  0
  9  7  1  0
 10 11  1  1
 12 11  1  0
 12 13  1  0
 13 17  1  0
 14 13  2  0
 15 20  1  0
 15 10  1  0
 16 15  2  0
 19 18  1  1
 19 21  1  0
 19 20  1  0
 21 22  1  0
 23 21  2  0
M  END
$$$$
