IEA.pdb
     RDKit          3D

 23 22  0  0  1  0  0  0  0  0999 V2000
   17.1697  -13.6740  -18.8284 C   0  0  0  0  0  0  0  0  0  0  0  0
   17.7477  -13.3802  -17.4605 C   0  0  0  0  0  0  0  0  0  0  0  0
   17.8330  -11.8857  -17.2820 C   0  0  2  0  0  0  0  0  0  0  0  0
   18.7431  -11.3366  -18.3579 C   0  0  0  0  0  0  0  0  0  0  0  0
   18.3245  -11.5055  -15.9021 C   0  0  2  0  0  0  0  0  0  0  0  0
   17.4924  -12.0257  -14.8582 N   0  0  0  0  0  0  0  0  0  0  0  0
   18.3815  -10.0056  -15.7597 C   0  0  0  0  0  0  0  0  0  0  0  0
   17.3072   -9.4228  -15.5291 O   0  0  0  0  0  0  0  0  0  0  0  0
   19.5865   -9.2968  -15.8807 N   0  0  0  0  0  0  0  0  0  0  0  0
   19.8195   -7.8853  -15.7987 C   0  0  1  0  0  0  0  0  0  0  0  0
   20.8228   -7.5239  -14.7067 C   0  0  0  0  0  0  0  0  0  0  0  0
   20.9644   -6.0419  -14.6341 C   0  0  0  0  0  0  0  0  0  0  0  0
   21.9753   -5.6666  -13.5996 C   0  0  0  0  0  0  0  0  0  0  0  0
   22.5226   -6.5448  -12.9107 O   0  0  0  0  0  0  0  0  0  0  0  0
   20.0810   -7.2736  -17.0864 C   0  0  0  0  0  0  0  0  0  0  0  0
   20.9654   -7.7350  -17.8782 O   0  0  0  0  0  0  0  0  0  0  0  0
   22.3047   -4.3330  -13.4069 O   0  0  0  0  0  0  0  0  0  0  0  0
   18.4441   -4.6114  -19.1274 C   0  0  0  0  0  0  0  0  0  0  0  0
   19.6610   -5.4729  -18.7957 C   0  0  2  0  0  0  0  0  0  0  0  0
   19.3710   -6.1308  -17.5388 N   0  0  0  0  0  0  0  0  0  0  0  0
   20.8956   -4.6511  -18.7084 C   0  0  0  0  0  0  0  0  0  0  0  0
   21.5727   -4.4939  -17.5056 O   0  0  0  0  0  0  0  0  0  0  0  0
   21.3192   -4.0958  -19.7539 O   0  0  0  0  0  0  0  0  0  0  0  0
  2  3  1  0
  2  1  1  0
  3  4  1  6
  5  7  1  0
  5  3  1  0
  5  6  1  1
  7  8  2  0
  9 10  1  0
  9  7  1  0
 10 11  1  1
 12 11  1  0
 12 13  1  0
 13 17  1  0
 14 13  2  0
 15 20  1  0
 15 10  1  0
 16 15  2  0
 19 18  1  1
 19 21  1  0
 19 20  1  0
 21 22  1  0
 23 21  2  0
M  END
$$$$
