IEA.pdb
     RDKit          3D

 23 22  0  0  1  0  0  0  0  0999 V2000
   16.6452  -12.8037  -19.2282 C   0  0  0  0  0  0  0  0  0  0  0  0
   17.8654  -12.7001  -18.3382 C   0  0  0  0  0  0  0  0  0  0  0  0
   17.7511  -11.4495  -17.5040 C   0  0  2  0  0  0  0  0  0  0  0  0
   17.6861  -10.2650  -18.4421 C   0  0  0  0  0  0  0  0  0  0  0  0
   18.8980  -11.3120  -16.5264 C   0  0  2  0  0  0  0  0  0  0  0  0
   18.9964  -12.4270  -15.6321 N   0  0  0  0  0  0  0  0  0  0  0  0
   18.7401  -10.0578  -15.7046 C   0  0  0  0  0  0  0  0  0  0  0  0
   17.8688  -10.0747  -14.8172 O   0  0  0  0  0  0  0  0  0  0  0  0
   19.5356   -8.9234  -15.9266 N   0  0  0  0  0  0  0  0  0  0  0  0
   19.4964   -7.6477  -15.2753 C   0  0  1  0  0  0  0  0  0  0  0  0
   20.8669   -7.2143  -14.7621 C   0  0  0  0  0  0  0  0  0  0  0  0
   20.7558   -5.8718  -14.1241 C   0  0  0  0  0  0  0  0  0  0  0  0
   22.0921   -5.4175  -13.6333 C   0  0  0  0  0  0  0  0  0  0  0  0
   22.1730   -4.6293  -12.6755 O   0  0  0  0  0  0  0  0  0  0  0  0
   18.7895   -6.6382  -16.0381 C   0  0  0  0  0  0  0  0  0  0  0  0
   19.1498   -6.3169  -17.2166 O   0  0  0  0  0  0  0  0  0  0  0  0
   23.2473   -5.8769  -14.2488 O   0  0  0  0  0  0  0  0  0  0  0  0
   15.7281   -4.5538  -15.4623 C   0  0  0  0  0  0  0  0  0  0  0  0
   17.0251   -4.8502  -16.2126 C   0  0  2  0  0  0  0  0  0  0  0  0
   17.6603   -5.9518  -15.5200 N   0  0  0  0  0  0  0  0  0  0  0  0
   17.9063   -3.6550  -16.2589 C   0  0  0  0  0  0  0  0  0  0  0  0
   17.8976   -2.7955  -17.3502 O   0  0  0  0  0  0  0  0  0  0  0  0
   18.6668   -3.4349  -15.2822 O   0  0  0  0  0  0  0  0  0  0  0  0
  2  3  1  0
  2  1  1  0
  3  4  1  6
  5  7  1  0
  5  3  1  0
  5  6  1  1
  7  8  2  0
  9 10  1  0
  9  7  1  0
 10 11  1  6
 12 11  1  0
 12 13  1  0
 13 17  1  0
 14 13  2  0
 15 20  1  0
 15 10  1  0
 16 15  2  0
 19 18  1  1
 19 21  1  0
 19 20  1  0
 21 22  1  0
 23 21  2  0
M  END
$$$$
