IEA.pdb
     RDKit          3D

 23 22  0  0  1  0  0  0  0  0999 V2000
   29.2021  -20.7366  -11.8097 C   0  0  0  0  0  0  0  0  0  0  0  0
   28.3553  -19.9102  -12.7539 C   0  0  0  0  0  0  0  0  0  0  0  0
   28.0345  -20.7418  -13.9698 C   0  0  2  0  0  0  0  0  0  0  0  0
   29.3331  -21.2882  -14.5197 C   0  0  0  0  0  0  0  0  0  0  0  0
   27.2857  -19.9489  -15.0189 C   0  0  2  0  0  0  0  0  0  0  0  0
   28.0146  -18.7988  -15.4646 N   0  0  0  0  0  0  0  0  0  0  0  0
   25.9561  -19.4872  -14.4785 C   0  0  0  0  0  0  0  0  0  0  0  0
   25.9225  -18.3561  -13.9625 O   0  0  0  0  0  0  0  0  0  0  0  0
   24.8086  -20.2916  -14.5519 N   0  0  0  0  0  0  0  0  0  0  0  0
   23.4924  -20.0410  -14.0437 C   0  0  1  0  0  0  0  0  0  0  0  0
   22.4292  -20.0798  -15.1381 C   0  0  0  0  0  0  0  0  0  0  0  0
   21.1115  -19.6860  -14.5636 C   0  0  0  0  0  0  0  0  0  0  0  0
   20.0445  -19.7680  -15.6065 C   0  0  0  0  0  0  0  0  0  0  0  0
   19.8292  -18.8029  -16.3598 O   0  0  0  0  0  0  0  0  0  0  0  0
   23.1763  -20.8237  -12.8656 C   0  0  0  0  0  0  0  0  0  0  0  0
   23.1763  -22.0971  -12.8894 O   0  0  0  0  0  0  0  0  0  0  0  0
   19.2910  -20.9255  -15.7349 O   0  0  0  0  0  0  0  0  0  0  0  0
   22.9399  -20.2541   -9.2389 C   0  0  0  0  0  0  0  0  0  0  0  0
   22.4100  -20.9827  -10.4723 C   0  0  2  0  0  0  0  0  0  0  0  0
   22.8498  -20.2212  -11.6226 N   0  0  0  0  0  0  0  0  0  0  0  0
   20.9297  -21.1037  -10.4324 C   0  0  0  0  0  0  0  0  0  0  0  0
   20.3051  -22.0376   -9.6154 O   0  0  0  0  0  0  0  0  0  0  0  0
   20.2476  -20.3374  -11.1591 O   0  0  0  0  0  0  0  0  0  0  0  0
  2  3  1  0
  2  1  1  0
  3  4  1  6
  5  7  1  0
  5  3  1  0
  5  6  1  1
  7  8  2  0
  9 10  1  0
  9  7  1  0
 10 11  1  6
 12 11  1  0
 12 13  1  0
 13 17  1  0
 14 13  2  0
 15 20  1  0
 15 10  1  0
 16 15  2  0
 19 18  1  1
 19 21  1  0
 19 20  1  0
 21 22  1  0
 23 21  2  0
M  END
$$$$
