IEA.pdb
     RDKit          3D

 23 22  0  0  1  0  0  0  0  0999 V2000
   24.8477  -13.8071  -19.6016 C   0  0  0  0  0  0  0  0  0  0  0  0
   24.9485  -13.3477  -18.1627 C   0  0  0  0  0  0  0  0  0  0  0  0
   24.3204  -11.9822  -18.0456 C   0  0  2  0  0  0  0  0  0  0  0  0
   25.0729  -11.0404  -18.9589 C   0  0  0  0  0  0  0  0  0  0  0  0
   24.3196  -11.4778  -16.6189 C   0  0  2  0  0  0  0  0  0  0  0  0
   23.8276  -12.4518  -15.6904 N   0  0  0  0  0  0  0  0  0  0  0  0
   23.4693  -10.2383  -16.5005 C   0  0  0  0  0  0  0  0  0  0  0  0
   23.8311   -9.2452  -17.1561 O   0  0  0  0  0  0  0  0  0  0  0  0
   22.3239  -10.2021  -15.6907 N   0  0  0  0  0  0  0  0  0  0  0  0
   21.3976   -9.1295  -15.4788 C   0  0  1  0  0  0  0  0  0  0  0  0
   20.0437   -9.6213  -14.9744 C   0  0  0  0  0  0  0  0  0  0  0  0
   19.3553  -10.3773  -16.0589 C   0  0  0  0  0  0  0  0  0  0  0  0
   18.0594  -10.9324  -15.5634 C   0  0  0  0  0  0  0  0  0  0  0  0
   17.7065  -10.7448  -14.3864 O   0  0  0  0  0  0  0  0  0  0  0  0
   21.9612   -8.0290  -14.7226 C   0  0  0  0  0  0  0  0  0  0  0  0
   22.6431   -8.2248  -13.6649 O   0  0  0  0  0  0  0  0  0  0  0  0
   17.2466  -11.6602  -16.4201 O   0  0  0  0  0  0  0  0  0  0  0  0
   23.3968   -4.9148  -15.0769 C   0  0  0  0  0  0  0  0  0  0  0  0
   22.2449   -5.5613  -14.3099 C   0  0  2  0  0  0  0  0  0  0  0  0
   21.7876   -6.6756  -15.1135 N   0  0  0  0  0  0  0  0  0  0  0  0
   21.1521   -4.5872  -14.0567 C   0  0  0  0  0  0  0  0  0  0  0  0
   21.2703   -3.6109  -13.0755 O   0  0  0  0  0  0  0  0  0  0  0  0
   20.1088   -4.6647  -14.7541 O   0  0  0  0  0  0  0  0  0  0  0  0
  2  3  1  0
  2  1  1  0
  3  4  1  6
  5  7  1  0
  5  3  1  0
  5  6  1  1
  7  8  2  0
  9 10  1  0
  9  7  1  0
 10 11  1  1
 12 11  1  0
 12 13  1  0
 13 17  1  0
 14 13  2  0
 15 20  1  0
 15 10  1  0
 16 15  2  0
 19 18  1  6
 19 21  1  0
 19 20  1  0
 21 22  1  0
 23 21  2  0
M  END
$$$$
