IEA.pdb
     RDKit          3D

 23 22  0  0  1  0  0  0  0  0999 V2000
   26.0813  -14.0409  -15.7900 C   0  0  0  0  0  0  0  0  0  0  0  0
   25.0240  -13.4442  -16.6943 C   0  0  0  0  0  0  0  0  0  0  0  0
   24.0830  -12.6155  -15.8573 C   0  0  2  0  0  0  0  0  0  0  0  0
   23.4426  -13.5253  -14.8327 C   0  0  0  0  0  0  0  0  0  0  0  0
   23.0375  -11.9180  -16.7001 C   0  0  2  0  0  0  0  0  0  0  0  0
   23.6122  -11.1247  -17.7457 N   0  0  0  0  0  0  0  0  0  0  0  0
   22.1825  -11.0216  -15.8406 C   0  0  0  0  0  0  0  0  0  0  0  0
   21.4680  -11.5775  -14.9877 O   0  0  0  0  0  0  0  0  0  0  0  0
   22.1891   -9.6266  -15.9919 N   0  0  0  0  0  0  0  0  0  0  0  0
   21.4287   -8.6354  -15.2900 C   0  0  1  0  0  0  0  0  0  0  0  0
   22.2799   -7.4415  -14.8665 C   0  0  0  0  0  0  0  0  0  0  0  0
   21.4405   -6.4837  -14.0922 C   0  0  0  0  0  0  0  0  0  0  0  0
   22.2130   -5.2401  -13.7926 C   0  0  0  0  0  0  0  0  0  0  0  0
   21.8699   -4.5001  -12.8546 O   0  0  0  0  0  0  0  0  0  0  0  0
   20.1893   -8.2884  -15.9564 C   0  0  0  0  0  0  0  0  0  0  0  0
   20.1720   -7.8649  -17.1574 O   0  0  0  0  0  0  0  0  0  0  0  0
   23.3175   -4.9098  -14.5641 O   0  0  0  0  0  0  0  0  0  0  0  0
   16.5730   -8.7515  -15.1764 C   0  0  0  0  0  0  0  0  0  0  0  0
   17.6817   -8.0595  -15.9670 C   0  0  2  0  0  0  0  0  0  0  0  0
   18.9285   -8.3993  -15.3138 N   0  0  0  0  0  0  0  0  0  0  0  0
   17.4737   -6.5892  -16.0134 C   0  0  0  0  0  0  0  0  0  0  0  0
   16.8092   -5.9889  -17.0753 O   0  0  0  0  0  0  0  0  0  0  0  0
   17.9150   -5.8929  -15.0641 O   0  0  0  0  0  0  0  0  0  0  0  0
  2  3  1  0
  2  1  1  0
  3  4  1  1
  5  7  1  0
  5  3  1  0
  5  6  1  6
  7  8  2  0
  9 10  1  0
  9  7  1  0
 10 11  1  6
 12 11  1  0
 12 13  1  0
 13 17  1  0
 14 13  2  0
 15 20  1  0
 15 10  1  0
 16 15  2  0
 19 18  1  1
 19 21  1  0
 19 20  1  0
 21 22  1  0
 23 21  2  0
M  END
$$$$
