IEA.pdb
     RDKit          3D

 23 22  0  0  1  0  0  0  0  0999 V2000
   20.2924  -17.2791  -16.8691 C   0  0  0  0  0  0  0  0  0  0  0  0
   19.4666  -16.0450  -17.1633 C   0  0  0  0  0  0  0  0  0  0  0  0
   20.3117  -14.8239  -16.9033 C   0  0  2  0  0  0  0  0  0  0  0  0
   20.7299  -14.8444  -15.4500 C   0  0  0  0  0  0  0  0  0  0  0  0
   19.5806  -13.5438  -17.2451 C   0  0  2  0  0  0  0  0  0  0  0  0
   19.2580  -13.4485  -18.6378 N   0  0  0  0  0  0  0  0  0  0  0  0
   20.4153  -12.3458  -16.8690 C   0  0  0  0  0  0  0  0  0  0  0  0
   20.8760  -12.3235  -15.7140 O   0  0  0  0  0  0  0  0  0  0  0  0
   20.6632  -11.3036  -17.7753 N   0  0  0  0  0  0  0  0  0  0  0  0
   21.3641  -10.0709  -17.5688 C   0  0  1  0  0  0  0  0  0  0  0  0
   21.9157   -9.4907  -18.8683 C   0  0  0  0  0  0  0  0  0  0  0  0
   22.7178   -8.2714  -18.5660 C   0  0  0  0  0  0  0  0  0  0  0  0
   23.2498   -7.6733  -19.8278 C   0  0  0  0  0  0  0  0  0  0  0  0
   22.6145   -6.7802  -20.4144 O   0  0  0  0  0  0  0  0  0  0  0  0
   20.6310   -9.1273  -16.7486 C   0  0  0  0  0  0  0  0  0  0  0  0
   19.4629   -8.7317  -17.0668 O   0  0  0  0  0  0  0  0  0  0  0  0
   24.4575   -8.1162  -20.3471 O   0  0  0  0  0  0  0  0  0  0  0  0
   21.0982   -7.6990  -13.3376 C   0  0  0  0  0  0  0  0  0  0  0  0
   20.4481   -7.6483  -14.7189 C   0  0  2  0  0  0  0  0  0  0  0  0
   21.1681   -8.5912  -15.5491 N   0  0  0  0  0  0  0  0  0  0  0  0
   20.4947   -6.2761  -15.2866 C   0  0  0  0  0  0  0  0  0  0  0  0
   19.6427   -5.2784  -14.8301 O   0  0  0  0  0  0  0  0  0  0  0  0
   21.3279   -6.0336  -16.1964 O   0  0  0  0  0  0  0  0  0  0  0  0
  2  3  1  0
  2  1  1  0
  3  4  1  1
  5  7  1  0
  5  3  1  0
  5  6  1  6
  7  8  2  0
  9 10  1  0
  9  7  1  0
 10 11  1  6
 12 11  1  0
 12 13  1  0
 13 17  1  0
 14 13  2  0
 15 20  1  0
 15 10  1  0
 16 15  2  0
 19 18  1  1
 19 21  1  0
 19 20  1  0
 21 22  1  0
 23 21  2  0
M  END
$$$$
