GPS.pdb
     RDKit          3D

 18 18  0  0  1  0  0  0  0  0999 V2000
   26.1166  -22.7745  -12.4302 N   0  0  0  0  0  0  0  0  0  0  0  0
   26.4705  -21.9562  -13.5382 C   0  0  0  0  0  0  0  0  0  0  0  0
   25.7281  -20.7121  -13.7103 C   0  0  0  0  0  0  0  0  0  0  0  0
   24.5928  -20.6317  -13.1439 O   0  0  0  0  0  0  0  0  0  0  0  0
   26.1477  -19.5782  -14.4506 N   0  0  0  0  0  0  0  0  0  0  0  0
   27.4689  -19.4699  -15.0388 C   0  0  0  0  0  0  0  0  0  0  0  0
   27.5850  -17.9461  -15.2142 C   0  0  0  0  0  0  0  0  0  0  0  0
   26.2248  -17.6795  -15.8017 C   0  0  0  0  0  0  0  0  0  0  0  0
   25.3533  -18.3797  -14.7467 C   0  0  1  0  0  0  0  0  0  0  0  0
   24.0477  -18.6978  -15.3221 C   0  0  0  0  0  0  0  0  0  0  0  0
   23.8895  -19.7173  -16.0333 O   0  0  0  0  0  0  0  0  0  0  0  0
   19.3380  -18.5220  -15.1241 O   0  0  0  0  0  0  0  0  0  0  0  0
   20.5757  -18.2325  -14.5921 C   0  0  0  0  0  0  0  0  0  0  0  0
   21.6188  -18.1433  -15.6941 C   0  0  2  0  0  0  0  0  0  0  0  0
   22.9178  -17.8754  -15.1021 N   0  0  0  0  0  0  0  0  0  0  0  0
   21.2733  -17.0643  -16.6763 C   0  0  0  0  0  0  0  0  0  0  0  0
   20.4012  -17.2750  -17.7187 O   0  0  0  0  0  0  0  0  0  0  0  0
   21.7928  -15.9206  -16.5541 O   0  0  0  0  0  0  0  0  0  0  0  0
  1  2  1  0
  3  2  1  0
  3  4  2  0
  5  6  1  0
  5  3  1  0
  7  6  1  0
  8  7  1  0
  8  9  1  0
  9  5  1  0
  9 10  1  6
 10 11  2  0
 12 13  1  0
 14 13  1  1
 14 15  1  0
 15 10  1  0
 16 17  1  0
 16 14  1  0
 18 16  2  0
M  END
$$$$
