GPS.pdb
     RDKit          3D

 18 18  0  0  1  0  0  0  0  0999 V2000
   14.0598  -15.0514    4.2943 N   0  0  0  0  0  0  0  0  0  0  0  0
   15.0696  -14.0717    4.5023 C   0  0  0  0  0  0  0  0  0  0  0  0
   16.3525  -14.5378    5.0176 C   0  0  0  0  0  0  0  0  0  0  0  0
   16.4437  -15.7701    5.3165 O   0  0  0  0  0  0  0  0  0  0  0  0
   17.5134  -13.7499    5.2205 N   0  0  0  0  0  0  0  0  0  0  0  0
   17.6143  -12.3725    4.7779 C   0  0  0  0  0  0  0  0  0  0  0  0
   19.1412  -12.1919    4.7352 C   0  0  0  0  0  0  0  0  0  0  0  0
   19.4831  -12.8248    6.0577 C   0  0  0  0  0  0  0  0  0  0  0  0
   18.7509  -14.1661    5.8916 C   0  0  1  0  0  0  0  0  0  0  0  0
   18.5070  -14.7575    7.2060 C   0  0  0  0  0  0  0  0  0  0  0  0
   17.4927  -14.4465    7.8729 O   0  0  0  0  0  0  0  0  0  0  0  0
   18.6348  -18.4353   10.0431 O   0  0  0  0  0  0  0  0  0  0  0  0
   18.9778  -17.8258    8.8557 C   0  0  0  0  0  0  0  0  0  0  0  0
   19.1617  -16.3310    9.0610 C   0  0  2  0  0  0  0  0  0  0  0  0
   19.3978  -15.6976    7.7754 N   0  0  0  0  0  0  0  0  0  0  0  0
   20.3085  -16.0515    9.9857 C   0  0  0  0  0  0  0  0  0  0  0  0
   20.1621  -16.0476   11.3533 O   0  0  0  0  0  0  0  0  0  0  0  0
   21.4510  -15.8105    9.5067 O   0  0  0  0  0  0  0  0  0  0  0  0
  1  2  1  0
  3  2  1  0
  3  4  2  0
  5  6  1  0
  5  3  1  0
  7  6  1  0
  8  7  1  0
  8  9  1  0
  9  5  1  0
  9 10  1  1
 10 11  2  0
 12 13  1  0
 14 13  1  6
 14 15  1  0
 15 10  1  0
 16 17  1  0
 16 14  1  0
 18 16  2  0
M  END
$$$$
