GPS.pdb
     RDKit          3D

 18 18  0  0  1  0  0  0  0  0999 V2000
   16.6323  -11.7771  -15.0539 N   0  0  0  0  0  0  0  0  0  0  0  0
   17.0521  -10.7303  -15.9202 C   0  0  0  0  0  0  0  0  0  0  0  0
   18.3199  -10.0784  -15.6101 C   0  0  0  0  0  0  0  0  0  0  0  0
   18.4624   -9.6184  -14.4335 O   0  0  0  0  0  0  0  0  0  0  0  0
   19.4144   -9.9048  -16.4942 N   0  0  0  0  0  0  0  0  0  0  0  0
   19.4330  -10.4523  -17.8371 C   0  0  0  0  0  0  0  0  0  0  0  0
   20.9440  -10.4644  -18.1252 C   0  0  0  0  0  0  0  0  0  0  0  0
   21.2833   -9.0863  -17.6229 C   0  0  0  0  0  0  0  0  0  0  0  0
   20.6540   -9.1667  -16.2228 C   0  0  1  0  0  0  0  0  0  0  0  0
   20.4067   -7.8173  -15.7183 C   0  0  0  0  0  0  0  0  0  0  0  0
   19.3894   -7.1756  -16.0700 O   0  0  0  0  0  0  0  0  0  0  0  0
   21.9951   -6.4633  -12.2038 O   0  0  0  0  0  0  0  0  0  0  0  0
   20.8943   -5.8952  -12.8077 C   0  0  0  0  0  0  0  0  0  0  0  0
   21.0862   -5.8392  -14.3144 C   0  0  2  0  0  0  0  0  0  0  0  0
   21.2975   -7.1844  -14.8197 N   0  0  0  0  0  0  0  0  0  0  0  0
   22.2525   -4.9690  -14.6767 C   0  0  0  0  0  0  0  0  0  0  0  0
   23.3781   -5.4704  -15.2876 O   0  0  0  0  0  0  0  0  0  0  0  0
   22.2131   -3.7344  -14.4180 O   0  0  0  0  0  0  0  0  0  0  0  0
  1  2  1  0
  3  2  1  0
  3  4  2  0
  5  6  1  0
  5  3  1  0
  7  6  1  0
  8  7  1  0
  8  9  1  0
  9  5  1  0
  9 10  1  6
 10 11  2  0
 12 13  1  0
 14 13  1  1
 14 15  1  0
 15 10  1  0
 16 17  1  0
 16 14  1  0
 18 16  2  0
M  END
$$$$
