GPS.pdb
     RDKit          3D

 18 18  0  0  1  0  0  0  0  0999 V2000
   28.2207  -18.4535  -16.8836 N   0  0  0  0  0  0  0  0  0  0  0  0
   28.6451  -18.4468  -15.5263 C   0  0  0  0  0  0  0  0  0  0  0  0
   28.0973  -19.4790  -14.6529 C   0  0  0  0  0  0  0  0  0  0  0  0
   26.8962  -19.8386  -14.8633 O   0  0  0  0  0  0  0  0  0  0  0  0
   28.7734  -20.1242  -13.5869 N   0  0  0  0  0  0  0  0  0  0  0  0
   30.2094  -20.0391  -13.4024 C   0  0  0  0  0  0  0  0  0  0  0  0
   30.4634  -21.2759  -12.5237 C   0  0  0  0  0  0  0  0  0  0  0  0
   29.3360  -21.0944  -11.5427 C   0  0  0  0  0  0  0  0  0  0  0  0
   28.1667  -20.9409  -12.5286 C   0  0  1  0  0  0  0  0  0  0  0  0
   27.0521  -20.2661  -11.8659 C   0  0  0  0  0  0  0  0  0  0  0  0
   27.0843  -19.0322  -11.6496 O   0  0  0  0  0  0  0  0  0  0  0  0
   23.2441  -21.7063  -11.8796 O   0  0  0  0  0  0  0  0  0  0  0  0
   23.5477  -20.4012  -11.5580 C   0  0  0  0  0  0  0  0  0  0  0  0
   24.8120  -20.3430  -10.7163 C   0  0  2  0  0  0  0  0  0  0  0  0
   25.9003  -20.9714  -11.4447 N   0  0  0  0  0  0  0  0  0  0  0  0
   24.6143  -21.0323   -9.3994 C   0  0  0  0  0  0  0  0  0  0  0  0
   25.3522  -22.1330   -9.0312 O   0  0  0  0  0  0  0  0  0  0  0  0
   23.7457  -20.5985   -8.5931 O   0  0  0  0  0  0  0  0  0  0  0  0
  1  2  1  0
  3  2  1  0
  3  4  2  0
  5  6  1  0
  5  3  1  0
  7  6  1  0
  8  7  1  0
  8  9  1  0
  9  5  1  0
  9 10  1  1
 10 11  2  0
 12 13  1  0
 14 13  1  6
 14 15  1  0
 15 10  1  0
 16 17  1  0
 16 14  1  0
 18 16  2  0
M  END
$$$$
