GPS.pdb
     RDKit          3D

 18 18  0  0  1  0  0  0  0  0999 V2000
   27.5017  -18.3519  -17.7985 N   0  0  0  0  0  0  0  0  0  0  0  0
   27.8730  -18.1781  -16.4367 C   0  0  0  0  0  0  0  0  0  0  0  0
   27.5205  -19.2478  -15.5094 C   0  0  0  0  0  0  0  0  0  0  0  0
   26.3630  -19.7599  -15.6285 O   0  0  0  0  0  0  0  0  0  0  0  0
   28.3434  -19.7756  -14.4828 N   0  0  0  0  0  0  0  0  0  0  0  0
   29.7577  -19.4724  -14.3767 C   0  0  0  0  0  0  0  0  0  0  0  0
   30.2437  -20.6503  -13.5150 C   0  0  0  0  0  0  0  0  0  0  0  0
   29.1565  -20.6355  -12.4737 C   0  0  0  0  0  0  0  0  0  0  0  0
   27.9259  -20.6679  -13.3943 C   0  0  1  0  0  0  0  0  0  0  0  0
   26.7592  -20.1656  -12.6709 C   0  0  0  0  0  0  0  0  0  0  0  0
   26.5699  -18.9348  -12.5313 O   0  0  0  0  0  0  0  0  0  0  0  0
   22.2791  -20.6208  -11.3034 O   0  0  0  0  0  0  0  0  0  0  0  0
   23.3812  -21.0340  -12.0200 C   0  0  0  0  0  0  0  0  0  0  0  0
   24.6595  -20.5719  -11.3398 C   0  0  2  0  0  0  0  0  0  0  0  0
   25.8032  -21.0403  -12.1029 N   0  0  0  0  0  0  0  0  0  0  0  0
   24.7382  -21.0878   -9.9340 C   0  0  0  0  0  0  0  0  0  0  0  0
   24.1452  -20.4333   -8.8797 O   0  0  0  0  0  0  0  0  0  0  0  0
   25.3660  -22.1566   -9.6966 O   0  0  0  0  0  0  0  0  0  0  0  0
  1  2  1  0
  3  2  1  0
  3  4  2  0
  5  6  1  0
  5  3  1  0
  7  6  1  0
  8  7  1  0
  8  9  1  0
  9  5  1  0
  9 10  1  1
 10 11  2  0
 12 13  1  0
 14 13  1  6
 14 15  1  0
 15 10  1  0
 16 17  1  0
 16 14  1  0
 18 16  2  0
M  END
$$$$
