GPS.pdb
     RDKit          3D

 18 18  0  0  1  0  0  0  0  0999 V2000
   24.2238  -25.3474  -14.7679 N   0  0  0  0  0  0  0  0  0  0  0  0
   24.2390  -23.9847  -15.1747 C   0  0  0  0  0  0  0  0  0  0  0  0
   23.2008  -23.1164  -14.6301 C   0  0  0  0  0  0  0  0  0  0  0  0
   22.1373  -23.6753  -14.2142 O   0  0  0  0  0  0  0  0  0  0  0  0
   23.2589  -21.7044  -14.5183 N   0  0  0  0  0  0  0  0  0  0  0  0
   24.4270  -20.9343  -14.9002 C   0  0  0  0  0  0  0  0  0  0  0  0
   24.1922  -19.6373  -14.1072 C   0  0  0  0  0  0  0  0  0  0  0  0
   22.7354  -19.4340  -14.4280 C   0  0  0  0  0  0  0  0  0  0  0  0
   22.1950  -20.8175  -14.0319 C   0  0  1  0  0  0  0  0  0  0  0  0
   20.9162  -21.0537  -14.6993 C   0  0  0  0  0  0  0  0  0  0  0  0
   20.8719  -21.3708  -15.9108 O   0  0  0  0  0  0  0  0  0  0  0  0
   17.4767  -22.1740  -12.7748 O   0  0  0  0  0  0  0  0  0  0  0  0
   17.6817  -22.2931  -14.1323 C   0  0  0  0  0  0  0  0  0  0  0  0
   18.3973  -21.0647  -14.6702 C   0  0  2  0  0  0  0  0  0  0  0  0
   19.6854  -20.9354  -14.0116 N   0  0  0  0  0  0  0  0  0  0  0  0
   17.5829  -19.8258  -14.4458 C   0  0  0  0  0  0  0  0  0  0  0  0
   16.3427  -19.6521  -15.0143 O   0  0  0  0  0  0  0  0  0  0  0  0
   18.0386  -18.9046  -13.7134 O   0  0  0  0  0  0  0  0  0  0  0  0
  1  2  1  0
  3  2  1  0
  3  4  2  0
  5  6  1  0
  5  3  1  0
  7  6  1  0
  8  7  1  0
  8  9  1  0
  9  5  1  0
  9 10  1  6
 10 11  2  0
 12 13  1  0
 14 13  1  1
 14 15  1  0
 15 10  1  0
 16 17  1  0
 16 14  1  0
 18 16  2  0
M  END
$$$$
