GPS.pdb
     RDKit          3D

 18 18  0  0  1  0  0  0  0  0999 V2000
   36.8785  -29.0437    4.2516 N   0  0  0  0  0  0  0  0  0  0  0  0
   36.8963  -27.6549    3.9459 C   0  0  0  0  0  0  0  0  0  0  0  0
   36.8997  -26.7261    5.0709 C   0  0  0  0  0  0  0  0  0  0  0  0
   36.2650  -27.0781    6.1148 O   0  0  0  0  0  0  0  0  0  0  0  0
   37.5424  -25.4634    5.1168 N   0  0  0  0  0  0  0  0  0  0  0  0
   38.4021  -24.9812    4.0529 C   0  0  0  0  0  0  0  0  0  0  0  0
   39.2208  -23.9154    4.8013 C   0  0  0  0  0  0  0  0  0  0  0  0
   38.0954  -23.2374    5.5363 C   0  0  0  0  0  0  0  0  0  0  0  0
   37.4453  -24.4671    6.1906 C   0  0  1  0  0  0  0  0  0  0  0  0
   36.0621  -24.1581    6.5485 C   0  0  0  0  0  0  0  0  0  0  0  0
   35.1783  -24.0507    5.6666 O   0  0  0  0  0  0  0  0  0  0  0  0
   34.8527  -24.3178   10.5084 O   0  0  0  0  0  0  0  0  0  0  0  0
   33.9374  -24.5226    9.4989 C   0  0  0  0  0  0  0  0  0  0  0  0
   34.2954  -23.6865    8.2811 C   0  0  2  0  0  0  0  0  0  0  0  0
   35.6664  -23.9692    7.8936 N   0  0  0  0  0  0  0  0  0  0  0  0
   34.1376  -22.2230    8.5674 C   0  0  0  0  0  0  0  0  0  0  0  0
   32.9132  -21.6579    8.8376 O   0  0  0  0  0  0  0  0  0  0  0  0
   35.1533  -21.4741    8.5634 O   0  0  0  0  0  0  0  0  0  0  0  0
  1  2  1  0
  3  2  1  0
  3  4  2  0
  5  6  1  0
  5  3  1  0
  7  6  1  0
  8  7  1  0
  8  9  1  0
  9  5  1  0
  9 10  1  6
 10 11  2  0
 12 13  1  0
 14 13  1  1
 14 15  1  0
 15 10  1  0
 16 17  1  0
 16 14  1  0
 18 16  2  0
M  END
$$$$
