GPS.pdb
     RDKit          3D

 18 18  0  0  1  0  0  0  0  0999 V2000
   19.9699  -12.5811  -18.2874 N   0  0  0  0  0  0  0  0  0  0  0  0
   21.0606  -11.6706  -18.2244 C   0  0  0  0  0  0  0  0  0  0  0  0
   21.1090  -10.7688  -17.0787 C   0  0  0  0  0  0  0  0  0  0  0  0
   20.1182   -9.9898  -16.9122 O   0  0  0  0  0  0  0  0  0  0  0  0
   22.1561  -10.6728  -16.1279 N   0  0  0  0  0  0  0  0  0  0  0  0
   23.2898  -11.5772  -16.1150 C   0  0  0  0  0  0  0  0  0  0  0  0
   23.7798  -11.4085  -14.6666 C   0  0  0  0  0  0  0  0  0  0  0  0
   23.7220   -9.9067  -14.5794 C   0  0  0  0  0  0  0  0  0  0  0  0
   22.2761   -9.6826  -15.0507 C   0  0  1  0  0  0  0  0  0  0  0  0
   22.1235   -8.3097  -15.5286 C   0  0  0  0  0  0  0  0  0  0  0  0
   22.4793   -7.9885  -16.6864 O   0  0  0  0  0  0  0  0  0  0  0  0
   19.3724   -5.7150  -14.1527 O   0  0  0  0  0  0  0  0  0  0  0  0
   20.1093   -5.4507  -15.2868 C   0  0  0  0  0  0  0  0  0  0  0  0
   21.5507   -5.8948  -15.0978 C   0  0  2  0  0  0  0  0  0  0  0  0
   21.5726   -7.2947  -14.7113 N   0  0  0  0  0  0  0  0  0  0  0  0
   22.2368   -5.0662  -14.0532 C   0  0  0  0  0  0  0  0  0  0  0  0
   22.5144   -3.7326  -14.2425 O   0  0  0  0  0  0  0  0  0  0  0  0
   22.5761   -5.5976  -12.9599 O   0  0  0  0  0  0  0  0  0  0  0  0
  1  2  1  0
  3  2  1  0
  3  4  2  0
  5  6  1  0
  5  3  1  0
  7  6  1  0
  8  7  1  0
  8  9  1  0
  9  5  1  0
  9 10  1  6
 10 11  2  0
 12 13  1  0
 14 13  1  1
 14 15  1  0
 15 10  1  0
 16 17  1  0
 16 14  1  0
 18 16  2  0
M  END
$$$$
