GPS.pdb
     RDKit          3D

 18 18  0  0  1  0  0  0  0  0999 V2000
   23.4633  -20.8630  -10.4736 N   0  0  0  0  0  0  0  0  0  0  0  0
   24.7151  -21.1906  -11.0636 C   0  0  0  0  0  0  0  0  0  0  0  0
   25.2428  -20.2657  -12.0609 C   0  0  0  0  0  0  0  0  0  0  0  0
   24.4409  -19.3956  -12.5259 O   0  0  0  0  0  0  0  0  0  0  0  0
   26.5669  -20.2403  -12.5667 N   0  0  0  0  0  0  0  0  0  0  0  0
   27.6429  -21.0226  -11.9890 C   0  0  0  0  0  0  0  0  0  0  0  0
   28.8710  -20.2529  -12.5043 C   0  0  0  0  0  0  0  0  0  0  0  0
   28.4458  -20.0777  -13.9378 C   0  0  0  0  0  0  0  0  0  0  0  0
   27.0538  -19.4652  -13.7144 C   0  0  1  0  0  0  0  0  0  0  0  0
   26.2361  -19.6569  -14.9108 C   0  0  0  0  0  0  0  0  0  0  0  0
   25.8076  -20.7927  -15.2216 O   0  0  0  0  0  0  0  0  0  0  0  0
   23.8933  -16.7838  -16.3625 O   0  0  0  0  0  0  0  0  0  0  0  0
   23.7461  -18.0931  -16.7663 C   0  0  0  0  0  0  0  0  0  0  0  0
   25.1059  -18.7417  -16.9676 C   0  0  2  0  0  0  0  0  0  0  0  0
   25.8970  -18.5778  -15.7606 N   0  0  0  0  0  0  0  0  0  0  0  0
   25.8247  -18.1343  -18.1351 C   0  0  0  0  0  0  0  0  0  0  0  0
   25.3631  -18.2594  -19.4246 O   0  0  0  0  0  0  0  0  0  0  0  0
   26.8892  -17.4844  -17.9422 O   0  0  0  0  0  0  0  0  0  0  0  0
  1  2  1  0
  3  2  1  0
  3  4  2  0
  5  6  1  0
  5  3  1  0
  7  6  1  0
  8  7  1  0
  8  9  1  0
  9  5  1  0
  9 10  1  6
 10 11  2  0
 12 13  1  0
 14 13  1  1
 14 15  1  0
 15 10  1  0
 16 17  1  0
 16 14  1  0
 18 16  2  0
M  END
$$$$
