GPS.pdb
     RDKit          3D

 18 18  0  0  1  0  0  0  0  0999 V2000
   22.4431  -13.9232  -16.8715 N   0  0  0  0  0  0  0  0  0  0  0  0
   23.1941  -12.8096  -17.3389 C   0  0  0  0  0  0  0  0  0  0  0  0
   23.3563  -11.6853  -16.4235 C   0  0  0  0  0  0  0  0  0  0  0  0
   22.3201  -11.2899  -15.8020 O   0  0  0  0  0  0  0  0  0  0  0  0
   24.5597  -10.9851  -16.1569 N   0  0  0  0  0  0  0  0  0  0  0  0
   25.8533  -11.4391  -16.6302 C   0  0  0  0  0  0  0  0  0  0  0  0
   26.7929  -10.7001  -15.6621 C   0  0  0  0  0  0  0  0  0  0  0  0
   26.1513   -9.3392  -15.7152 C   0  0  0  0  0  0  0  0  0  0  0  0
   24.6988   -9.7334  -15.4025 C   0  0  1  0  0  0  0  0  0  0  0  0
   23.7942   -8.6873  -15.8760 C   0  0  0  0  0  0  0  0  0  0  0  0
   23.4762   -8.6112  -17.0857 O   0  0  0  0  0  0  0  0  0  0  0  0
   21.1030   -6.7594  -13.4415 O   0  0  0  0  0  0  0  0  0  0  0  0
   21.0099   -6.8050  -14.8156 C   0  0  0  0  0  0  0  0  0  0  0  0
   22.3839   -6.6449  -15.4456 C   0  0  2  0  0  0  0  0  0  0  0  0
   23.2445   -7.7253  -14.9963 N   0  0  0  0  0  0  0  0  0  0  0  0
   22.9922   -5.3234  -15.0822 C   0  0  0  0  0  0  0  0  0  0  0  0
   22.4490   -4.1292  -15.4951 O   0  0  0  0  0  0  0  0  0  0  0  0
   24.0370   -5.2915  -14.3749 O   0  0  0  0  0  0  0  0  0  0  0  0
  1  2  1  0
  3  2  1  0
  3  4  2  0
  5  6  1  0
  5  3  1  0
  7  6  1  0
  8  7  1  0
  8  9  1  0
  9  5  1  0
  9 10  1  6
 10 11  2  0
 12 13  1  0
 14 13  1  1
 14 15  1  0
 15 10  1  0
 16 17  1  0
 16 14  1  0
 18 16  2  0
M  END
$$$$
