GPS.pdb
     RDKit          3D

 18 18  0  0  1  0  0  0  0  0999 V2000
   20.2578  -12.2950  -19.0801 N   0  0  0  0  0  0  0  0  0  0  0  0
   21.4106  -11.5033  -18.8217 C   0  0  0  0  0  0  0  0  0  0  0  0
   21.4529  -10.7840  -17.5531 C   0  0  0  0  0  0  0  0  0  0  0  0
   20.4770  -10.0124  -17.2917 O   0  0  0  0  0  0  0  0  0  0  0  0
   22.4791  -10.8590  -16.5780 N   0  0  0  0  0  0  0  0  0  0  0  0
   23.5528  -11.8319  -16.6417 C   0  0  0  0  0  0  0  0  0  0  0  0
   24.0149  -11.8514  -15.1746 C   0  0  0  0  0  0  0  0  0  0  0  0
   24.0497  -10.3669  -14.9264 C   0  0  0  0  0  0  0  0  0  0  0  0
   22.6335   -9.9996  -15.3978 C   0  0  1  0  0  0  0  0  0  0  0  0
   22.5801   -8.5764  -15.7270 C   0  0  0  0  0  0  0  0  0  0  0  0
   22.9757   -8.1585  -16.8401 O   0  0  0  0  0  0  0  0  0  0  0  0
   20.4534   -4.5338  -15.8325 O   0  0  0  0  0  0  0  0  0  0  0  0
   20.5981   -5.8892  -15.6303 C   0  0  0  0  0  0  0  0  0  0  0  0
   21.9949   -6.2028  -15.1194 C   0  0  2  0  0  0  0  0  0  0  0  0
   22.0840   -7.6193  -14.8107 N   0  0  0  0  0  0  0  0  0  0  0  0
   22.3160   -5.3934  -13.8986 C   0  0  0  0  0  0  0  0  0  0  0  0
   22.8812   -4.1421  -13.9777 O   0  0  0  0  0  0  0  0  0  0  0  0
   22.0645   -5.8640  -12.7549 O   0  0  0  0  0  0  0  0  0  0  0  0
  1  2  1  0
  3  2  1  0
  3  4  2  0
  5  6  1  0
  5  3  1  0
  7  6  1  0
  8  7  1  0
  8  9  1  0
  9  5  1  0
  9 10  1  6
 10 11  2  0
 12 13  1  0
 14 13  1  1
 14 15  1  0
 15 10  1  0
 16 17  1  0
 16 14  1  0
 18 16  2  0
M  END
$$$$
