GPS.pdb
     RDKit          3D

 18 18  0  0  1  0  0  0  0  0999 V2000
   19.2584  -12.1721  -17.9359 N   0  0  0  0  0  0  0  0  0  0  0  0
   20.4721  -11.4368  -17.8424 C   0  0  0  0  0  0  0  0  0  0  0  0
   20.6601  -10.6116  -16.6540 C   0  0  0  0  0  0  0  0  0  0  0  0
   19.6957   -9.8558  -16.3150 O   0  0  0  0  0  0  0  0  0  0  0  0
   21.8168  -10.5672  -15.8356 N   0  0  0  0  0  0  0  0  0  0  0  0
   22.9226  -11.4931  -15.9888 C   0  0  0  0  0  0  0  0  0  0  0  0
   23.5884  -11.3819  -14.6066 C   0  0  0  0  0  0  0  0  0  0  0  0
   23.5763   -9.8829  -14.4671 C   0  0  0  0  0  0  0  0  0  0  0  0
   22.0894   -9.6158  -14.7514 C   0  0  1  0  0  0  0  0  0  0  0  0
   21.9116   -8.2251  -15.1650 C   0  0  0  0  0  0  0  0  0  0  0  0
   22.1587   -7.8670  -16.3401 O   0  0  0  0  0  0  0  0  0  0  0  0
   19.7290   -4.0720  -14.7504 O   0  0  0  0  0  0  0  0  0  0  0  0
   19.8656   -5.4253  -14.5292 C   0  0  0  0  0  0  0  0  0  0  0  0
   21.3260   -5.8342  -14.6300 C   0  0  2  0  0  0  0  0  0  0  0  0
   21.4569   -7.2337  -14.2639 N   0  0  0  0  0  0  0  0  0  0  0  0
   22.1843   -4.9904  -13.7356 C   0  0  0  0  0  0  0  0  0  0  0  0
   22.5500   -5.3985  -12.4741 O   0  0  0  0  0  0  0  0  0  0  0  0
   22.5913   -3.8668  -14.1413 O   0  0  0  0  0  0  0  0  0  0  0  0
  1  2  1  0
  3  2  1  0
  3  4  2  0
  5  6  1  0
  5  3  1  0
  7  6  1  0
  8  7  1  0
  8  9  1  0
  9  5  1  0
  9 10  1  6
 10 11  2  0
 12 13  1  0
 14 13  1  1
 14 15  1  0
 15 10  1  0
 16 17  1  0
 16 14  1  0
 18 16  2  0
M  END
$$$$
