GPS.pdb
     RDKit          3D

 18 18  0  0  1  0  0  0  0  0999 V2000
   28.3993  -21.8954  -16.2928 N   0  0  0  0  0  0  0  0  0  0  0  0
   27.8570  -21.0967  -15.2485 C   0  0  0  0  0  0  0  0  0  0  0  0
   26.6184  -21.5594  -14.6319 C   0  0  0  0  0  0  0  0  0  0  0  0
   25.7832  -22.1532  -15.3843 O   0  0  0  0  0  0  0  0  0  0  0  0
   26.2505  -21.4117  -13.2708 N   0  0  0  0  0  0  0  0  0  0  0  0
   27.1604  -20.9030  -12.2626 C   0  0  0  0  0  0  0  0  0  0  0  0
   26.5056  -21.4442  -10.9803 C   0  0  0  0  0  0  0  0  0  0  0  0
   25.0760  -21.0825  -11.2836 C   0  0  0  0  0  0  0  0  0  0  0  0
   24.9447  -21.7213  -12.6756 C   0  0  1  0  0  0  0  0  0  0  0  0
   23.8356  -21.1002  -13.3973 C   0  0  0  0  0  0  0  0  0  0  0  0
   23.9553  -19.9595  -13.9020 O   0  0  0  0  0  0  0  0  0  0  0  0
   20.2512  -23.1916  -13.9571 O   0  0  0  0  0  0  0  0  0  0  0  0
   20.6944  -22.3393  -14.9451 C   0  0  0  0  0  0  0  0  0  0  0  0
   21.5023  -21.2023  -14.3411 C   0  0  2  0  0  0  0  0  0  0  0  0
   22.5915  -21.7550  -13.5550 N   0  0  0  0  0  0  0  0  0  0  0  0
   20.6415  -20.3295  -13.4776 C   0  0  0  0  0  0  0  0  0  0  0  0
   19.6631  -19.5177  -14.0023 O   0  0  0  0  0  0  0  0  0  0  0  0
   20.8098  -20.3302  -12.2268 O   0  0  0  0  0  0  0  0  0  0  0  0
  1  2  1  0
  3  2  1  0
  3  4  2  0
  5  6  1  0
  5  3  1  0
  7  6  1  0
  8  7  1  0
  8  9  1  0
  9  5  1  0
  9 10  1  6
 10 11  2  0
 12 13  1  0
 14 13  1  1
 14 15  1  0
 15 10  1  0
 16 17  1  0
 16 14  1  0
 18 16  2  0
M  END
$$$$
