GPS.pdb
     RDKit          3D

 18 18  0  0  1  0  0  0  0  0999 V2000
   21.5722  -20.5921  -13.3687 N   0  0  0  0  0  0  0  0  0  0  0  0
   21.1336  -20.2489  -12.0602 C   0  0  0  0  0  0  0  0  0  0  0  0
   20.9511  -21.3423  -11.1116 C   0  0  0  0  0  0  0  0  0  0  0  0
   20.4471  -22.4200  -11.5597 O   0  0  0  0  0  0  0  0  0  0  0  0
   21.2804  -21.3230   -9.7329 N   0  0  0  0  0  0  0  0  0  0  0  0
   21.9351  -20.1952   -9.0980 C   0  0  0  0  0  0  0  0  0  0  0  0
   22.5249  -20.8681   -7.8469 C   0  0  0  0  0  0  0  0  0  0  0  0
   21.3194  -21.6663   -7.4270 C   0  0  0  0  0  0  0  0  0  0  0  0
   21.0186  -22.3839   -8.7526 C   0  0  1  0  0  0  0  0  0  0  0  0
   19.6264  -22.8295   -8.7638 C   0  0  0  0  0  0  0  0  0  0  0  0
   18.7017  -22.0424   -9.0732 O   0  0  0  0  0  0  0  0  0  0  0  0
   18.7968  -26.7055   -7.6989 O   0  0  0  0  0  0  0  0  0  0  0  0
   17.8812  -26.1397   -8.5594 C   0  0  0  0  0  0  0  0  0  0  0  0
   17.8930  -24.6257   -8.4254 C   0  0  2  0  0  0  0  0  0  0  0  0
   19.2676  -24.1564   -8.4289 N   0  0  0  0  0  0  0  0  0  0  0  0
   17.2088  -24.1915   -7.1637 C   0  0  0  0  0  0  0  0  0  0  0  0
   17.9068  -23.7109   -6.0805 O   0  0  0  0  0  0  0  0  0  0  0  0
   15.9516  -24.2642   -7.0797 O   0  0  0  0  0  0  0  0  0  0  0  0
  1  2  1  0
  3  2  1  0
  3  4  2  0
  5  6  1  0
  5  3  1  0
  7  6  1  0
  8  7  1  0
  8  9  1  0
  9  5  1  0
  9 10  1  1
 10 11  2  0
 12 13  1  0
 14 13  1  1
 14 15  1  0
 15 10  1  0
 16 17  1  0
 16 14  1  0
 18 16  2  0
M  END
$$$$
