WCL.pdb
     RDKit          3D

 29 30  0  0  1  0  0  0  0  0999 V2000
   23.7124  -19.8710  -18.7336 N   0  0  0  0  0  0  0  0  0  0  0  0
   23.4492  -20.1087  -17.3409 C   0  0  1  0  0  0  0  0  0  0  0  0
   22.8828  -21.4645  -17.1335 C   0  0  0  0  0  0  0  0  0  0  0  0
   21.4064  -21.5448  -17.2234 C   0  0  0  0  0  0  0  0  0  0  0  0
   20.6449  -22.2834  -18.0976 C   0  0  0  0  0  0  0  0  0  0  0  0
   19.3657  -22.0764  -17.7836 N   0  0  0  0  0  0  0  0  0  0  0  0
   19.2392  -21.2319  -16.7394 C   0  0  0  0  0  0  0  0  0  0  0  0
   18.1893  -20.7000  -16.0507 C   0  0  0  0  0  0  0  0  0  0  0  0
   18.3897  -19.8352  -15.0133 C   0  0  0  0  0  0  0  0  0  0  0  0
   19.6632  -19.4873  -14.6479 C   0  0  0  0  0  0  0  0  0  0  0  0
   20.7328  -20.0050  -15.3195 C   0  0  0  0  0  0  0  0  0  0  0  0
   20.5371  -20.8941  -16.3845 C   0  0  0  0  0  0  0  0  0  0  0  0
   24.7097  -19.8808  -16.5922 C   0  0  0  0  0  0  0  0  0  0  0  0
   25.8327  -20.0196  -17.1334 O   0  0  0  0  0  0  0  0  0  0  0  0
   24.6834  -19.4985  -15.2389 N   0  0  0  0  0  0  0  0  0  0  0  0
   25.8930  -19.1404  -14.5033 C   0  0  1  0  0  0  0  0  0  0  0  0
   25.9351  -17.6583  -14.2503 C   0  0  0  0  0  0  0  0  0  0  0  0
   27.3881  -17.2061  -13.2838 S   0  0  0  0  0  0  0  0  0  0  0  0
   25.9485  -19.9848  -13.3040 C   0  0  0  0  0  0  0  0  0  0  0  0
   24.9056  -20.6148  -12.9728 O   0  0  0  0  0  0  0  0  0  0  0  0
   29.7759  -21.9077  -12.2812 C   0  0  0  0  0  0  0  0  0  0  0  0
   29.4911  -20.7831  -11.3592 C   0  0  2  0  0  0  0  0  0  0  0  0
   30.7158  -20.5513  -10.4311 C   0  0  0  0  0  0  0  0  0  0  0  0
   28.2749  -20.8660  -10.5395 C   0  0  0  0  0  0  0  0  0  0  0  0
   26.9817  -21.0016  -11.2303 C   0  0  2  0  0  0  0  0  0  0  0  0
   27.0717  -20.1570  -12.4853 N   0  0  0  0  0  0  0  0  0  0  0  0
   25.7955  -20.5309  -10.5483 C   0  0  0  0  0  0  0  0  0  0  0  0
   25.0795  -21.2494   -9.6232 O   0  0  0  0  0  0  0  0  0  0  0  0
   25.3272  -19.3518  -10.8022 O   0  0  0  0  0  0  0  0  0  0  0  0
  2  1  1  6
  2  3  1  0
  2 13  1  0
  3  4  1  0
  4  5  2  0
  5  6  1  0
  7  8  2  0
  7  6  1  0
  9  8  1  0
 10  9  2  0
 11 10  1  0
 11 12  2  0
 12  4  1  0
 12  7  1  0
 13 15  1  0
 13 14  2  0
 15 16  1  0
 16 17  1  1
 18 17  1  0
 19 16  1  0
 19 20  2  0
 22 21  1  1
 23 22  1  0
 24 22  1  0
 25 24  1  1
 25 26  1  0
 26 19  1  0
 27 28  1  0
 27 25  1  0
 29 27  2  0
M  END
$$$$
