WCL.pdb
     RDKit          3D

 29 30  0  0  1  0  0  0  0  0999 V2000
   24.9391  -36.7522  -13.0590 N   0  0  0  0  0  0  0  0  0  0  0  0
   25.3887  -35.7178  -12.1683 C   0  0  1  0  0  0  0  0  0  0  0  0
   24.4726  -34.5512  -12.2072 C   0  0  0  0  0  0  0  0  0  0  0  0
   24.4676  -33.8037  -13.4861 C   0  0  0  0  0  0  0  0  0  0  0  0
   25.0961  -34.1278  -14.6649 C   0  0  0  0  0  0  0  0  0  0  0  0
   24.7800  -33.1876  -15.5558 N   0  0  0  0  0  0  0  0  0  0  0  0
   23.9692  -32.2498  -15.0241 C   0  0  0  0  0  0  0  0  0  0  0  0
   23.3809  -31.1093  -15.4856 C   0  0  0  0  0  0  0  0  0  0  0  0
   22.5977  -30.3397  -14.6742 C   0  0  0  0  0  0  0  0  0  0  0  0
   22.3913  -30.7083  -13.3712 C   0  0  0  0  0  0  0  0  0  0  0  0
   22.9675  -31.8454  -12.8828 C   0  0  0  0  0  0  0  0  0  0  0  0
   23.7717  -32.6422  -13.7083 C   0  0  0  0  0  0  0  0  0  0  0  0
   25.5259  -36.3086  -10.8142 C   0  0  0  0  0  0  0  0  0  0  0  0
   24.6690  -37.0974  -10.3487 O   0  0  0  0  0  0  0  0  0  0  0  0
   26.6323  -35.9987  -10.0030 N   0  0  0  0  0  0  0  0  0  0  0  0
   26.8429  -36.6174   -8.6971 C   0  0  1  0  0  0  0  0  0  0  0  0
   28.0354  -37.5334   -8.7355 C   0  0  0  0  0  0  0  0  0  0  0  0
   27.6980  -38.9960   -9.7340 S   0  0  0  0  0  0  0  0  0  0  0  0
   26.9093  -35.5404   -7.7021 C   0  0  0  0  0  0  0  0  0  0  0  0
   27.7345  -34.6043   -7.8946 O   0  0  0  0  0  0  0  0  0  0  0  0
   25.4703  -31.4443   -4.5440 C   0  0  0  0  0  0  0  0  0  0  0  0
   24.6471  -32.6743   -4.4713 C   0  0  2  0  0  0  0  0  0  0  0  0
   24.7892  -33.3099   -3.0604 C   0  0  0  0  0  0  0  0  0  0  0  0
   24.8755  -33.7077   -5.4900 C   0  0  0  0  0  0  0  0  0  0  0  0
   26.2357  -34.2534   -5.6304 C   0  0  2  0  0  0  0  0  0  0  0  0
   26.1259  -35.4575   -6.5440 N   0  0  0  0  0  0  0  0  0  0  0  0
   26.8950  -34.7470   -4.4406 C   0  0  0  0  0  0  0  0  0  0  0  0
   26.9852  -36.0682   -4.0788 O   0  0  0  0  0  0  0  0  0  0  0  0
   27.4496  -33.9182   -3.6163 O   0  0  0  0  0  0  0  0  0  0  0  0
  2  1  1  6
  2  3  1  0
  2 13  1  0
  3  4  1  0
  4  5  2  0
  5  6  1  0
  7  8  2  0
  7  6  1  0
  9  8  1  0
 10  9  2  0
 11 10  1  0
 11 12  2  0
 12  4  1  0
 12  7  1  0
 13 15  1  0
 13 14  2  0
 15 16  1  0
 16 17  1  6
 18 17  1  0
 19 16  1  0
 19 20  2  0
 22 21  1  6
 23 22  1  0
 24 22  1  0
 25 24  1  1
 25 26  1  0
 26 19  1  0
 27 28  1  0
 27 25  1  0
 29 27  2  0
M  END
$$$$
