WCL.pdb
     RDKit          3D

 29 30  0  0  1  0  0  0  0  0999 V2000
   20.3871  -18.0551  -16.8416 N   0  0  0  0  0  0  0  0  0  0  0  0
   21.7039  -18.5127  -16.4924 C   0  0  1  0  0  0  0  0  0  0  0  0
   22.7437  -17.6524  -17.1092 C   0  0  0  0  0  0  0  0  0  0  0  0
   22.4981  -17.2939  -18.5252 C   0  0  0  0  0  0  0  0  0  0  0  0
   22.4539  -16.0422  -19.0920 C   0  0  0  0  0  0  0  0  0  0  0  0
   22.2448  -16.2045  -20.3988 N   0  0  0  0  0  0  0  0  0  0  0  0
   22.1465  -17.5085  -20.7296 C   0  0  0  0  0  0  0  0  0  0  0  0
   21.9326  -18.1964  -21.8875 C   0  0  0  0  0  0  0  0  0  0  0  0
   21.8714  -19.5604  -21.8983 C   0  0  0  0  0  0  0  0  0  0  0  0
   22.0257  -20.2623  -20.7323 C   0  0  0  0  0  0  0  0  0  0  0  0
   22.2414  -19.5994  -19.5586 C   0  0  0  0  0  0  0  0  0  0  0  0
   22.3071  -18.2000  -19.5378 C   0  0  0  0  0  0  0  0  0  0  0  0
   21.7916  -18.5662  -15.0123 C   0  0  0  0  0  0  0  0  0  0  0  0
   21.5188  -17.5713  -14.2989 O   0  0  0  0  0  0  0  0  0  0  0  0
   22.1877  -19.7462  -14.3574 N   0  0  0  0  0  0  0  0  0  0  0  0
   22.2760  -19.8421  -12.9029 C   0  0  1  0  0  0  0  0  0  0  0  0
   21.1493  -20.6788  -12.3618 C   0  0  0  0  0  0  0  0  0  0  0  0
   21.3010  -22.3943  -12.8949 S   0  0  0  0  0  0  0  0  0  0  0  0
   23.6255  -20.3147  -12.5713 C   0  0  0  0  0  0  0  0  0  0  0  0
   24.4471  -20.4756  -13.5164 O   0  0  0  0  0  0  0  0  0  0  0  0
   28.1082  -21.8950  -11.9609 C   0  0  0  0  0  0  0  0  0  0  0  0
   27.6478  -20.5274  -12.2977 C   0  0  2  0  0  0  0  0  0  0  0  0
   28.7689  -19.5056  -11.9602 C   0  0  0  0  0  0  0  0  0  0  0  0
   26.3844  -20.0690  -11.7046 C   0  0  0  0  0  0  0  0  0  0  0  0
   25.5143  -21.0712  -11.0673 C   0  0  2  0  0  0  0  0  0  0  0  0
   24.0886  -20.6043  -11.2816 N   0  0  0  0  0  0  0  0  0  0  0  0
   25.6333  -21.2623   -9.6379 C   0  0  0  0  0  0  0  0  0  0  0  0
   26.5171  -22.1167   -9.0267 O   0  0  0  0  0  0  0  0  0  0  0  0
   24.8627  -20.6077   -8.8305 O   0  0  0  0  0  0  0  0  0  0  0  0
  2  1  1  1
  2  3  1  0
  2 13  1  0
  3  4  1  0
  4  5  2  0
  5  6  1  0
  7  8  2  0
  7  6  1  0
  9  8  1  0
 10  9  2  0
 11 10  1  0
 11 12  2  0
 12  4  1  0
 12  7  1  0
 13 15  1  0
 13 14  2  0
 15 16  1  0
 16 17  1  6
 18 17  1  0
 19 16  1  0
 19 20  2  0
 22 21  1  1
 23 22  1  0
 24 22  1  0
 25 24  1  1
 25 26  1  0
 26 19  1  0
 27 28  1  0
 27 25  1  0
 29 27  2  0
M  END
$$$$
