WCL.pdb
     RDKit          3D

 29 30  0  0  1  0  0  0  0  0999 V2000
   25.5530  -23.9028  -18.9770 N   0  0  0  0  0  0  0  0  0  0  0  0
   26.0460  -24.4920  -17.7623 C   0  0  1  0  0  0  0  0  0  0  0  0
   25.0141  -25.3555  -17.1366 C   0  0  0  0  0  0  0  0  0  0  0  0
   23.7675  -24.6565  -16.7472 C   0  0  0  0  0  0  0  0  0  0  0  0
   22.5232  -24.7486  -17.3242 C   0  0  0  0  0  0  0  0  0  0  0  0
   21.6991  -23.9739  -16.6182 N   0  0  0  0  0  0  0  0  0  0  0  0
   22.3379  -23.3681  -15.5962 C   0  0  0  0  0  0  0  0  0  0  0  0
   21.9739  -22.4973  -14.6118 C   0  0  0  0  0  0  0  0  0  0  0  0
   22.8827  -22.0398  -13.7014 C   0  0  0  0  0  0  0  0  0  0  0  0
   24.1865  -22.4547  -13.7670 C   0  0  0  0  0  0  0  0  0  0  0  0
   24.5784  -23.3262  -14.7417 C   0  0  0  0  0  0  0  0  0  0  0  0
   23.6527  -23.8022  -15.6796 C   0  0  0  0  0  0  0  0  0  0  0  0
   27.2999  -25.2176  -18.0825 C   0  0  0  0  0  0  0  0  0  0  0  0
   27.4608  -25.8046  -19.1792 O   0  0  0  0  0  0  0  0  0  0  0  0
   28.3571  -25.2701  -17.1563 N   0  0  0  0  0  0  0  0  0  0  0  0
   29.6749  -25.7956  -17.5020 C   0  0  1  0  0  0  0  0  0  0  0  0
   30.7557  -24.8856  -16.9860 C   0  0  0  0  0  0  0  0  0  0  0  0
   30.6639  -23.2625  -17.7651 S   0  0  0  0  0  0  0  0  0  0  0  0
   29.7386  -27.1818  -17.0235 C   0  0  0  0  0  0  0  0  0  0  0  0
   29.2652  -27.4378  -15.8813 O   0  0  0  0  0  0  0  0  0  0  0  0
   26.6421  -31.4872  -17.4612 C   0  0  0  0  0  0  0  0  0  0  0  0
   28.0178  -31.1920  -16.9964 C   0  0  2  0  0  0  0  0  0  0  0  0
   28.1239  -31.4838  -15.4737 C   0  0  0  0  0  0  0  0  0  0  0  0
   28.5556  -29.8523  -17.2683 C   0  0  0  0  0  0  0  0  0  0  0  0
   30.0180  -29.6829  -17.2844 C   0  0  2  0  0  0  0  0  0  0  0  0
   30.2832  -28.2598  -17.7326 N   0  0  0  0  0  0  0  0  0  0  0  0
   30.7868  -30.5087  -18.1904 C   0  0  0  0  0  0  0  0  0  0  0  0
   31.4429  -31.6632  -17.8421 O   0  0  0  0  0  0  0  0  0  0  0  0
   30.9035  -30.1707  -19.4339 O   0  0  0  0  0  0  0  0  0  0  0  0
  2  1  1  6
  2  3  1  0
  2 13  1  0
  3  4  1  0
  4  5  2  0
  5  6  1  0
  7  8  2  0
  7  6  1  0
  9  8  1  0
 10  9  2  0
 11 10  1  0
 11 12  2  0
 12  4  1  0
 12  7  1  0
 13 15  1  0
 13 14  2  0
 15 16  1  0
 16 17  1  1
 18 17  1  0
 19 16  1  0
 19 20  2  0
 22 21  1  1
 23 22  1  0
 24 22  1  0
 25 24  1  6
 25 26  1  0
 26 19  1  0
 27 28  1  0
 27 25  1  0
 29 27  2  0
M  END
$$$$
