WCL.pdb
     RDKit          3D

 29 30  0  0  1  0  0  0  0  0999 V2000
   26.6679  -19.7288  -11.7561 N   0  0  0  0  0  0  0  0  0  0  0  0
   26.3082  -21.1176  -11.6710 C   0  0  1  0  0  0  0  0  0  0  0  0
   25.7428  -21.4368  -10.3367 C   0  0  0  0  0  0  0  0  0  0  0  0
   26.4481  -20.8115   -9.1940 C   0  0  0  0  0  0  0  0  0  0  0  0
   25.9157  -20.0674   -8.1681 C   0  0  0  0  0  0  0  0  0  0  0  0
   26.9172  -19.7459   -7.3487 N   0  0  0  0  0  0  0  0  0  0  0  0
   28.0945  -20.2414   -7.7822 C   0  0  0  0  0  0  0  0  0  0  0  0
   29.3824  -20.1974   -7.3362 C   0  0  0  0  0  0  0  0  0  0  0  0
   30.3904  -20.8081   -8.0255 C   0  0  0  0  0  0  0  0  0  0  0  0
   30.1167  -21.4801   -9.1873 C   0  0  0  0  0  0  0  0  0  0  0  0
   28.8363  -21.5406   -9.6567 C   0  0  0  0  0  0  0  0  0  0  0  0
   27.7952  -20.9181   -8.9556 C   0  0  0  0  0  0  0  0  0  0  0  0
   25.3781  -21.4180  -12.7873 C   0  0  0  0  0  0  0  0  0  0  0  0
   24.6274  -20.5395  -13.2750 O   0  0  0  0  0  0  0  0  0  0  0  0
   25.3091  -22.7103  -13.3381 N   0  0  0  0  0  0  0  0  0  0  0  0
   24.4522  -23.0312  -14.4761 C   0  0  1  0  0  0  0  0  0  0  0  0
   24.8961  -24.3144  -15.1233 C   0  0  0  0  0  0  0  0  0  0  0  0
   26.4979  -24.1157  -15.9264 S   0  0  0  0  0  0  0  0  0  0  0  0
   23.0627  -23.0134  -14.0033 C   0  0  0  0  0  0  0  0  0  0  0  0
   22.8591  -22.8885  -12.7635 O   0  0  0  0  0  0  0  0  0  0  0  0
   19.9725  -18.7343  -15.2174 C   0  0  0  0  0  0  0  0  0  0  0  0
   20.0788  -19.8701  -14.2717 C   0  0  2  0  0  0  0  0  0  0  0  0
   20.2787  -19.3264  -12.8297 C   0  0  0  0  0  0  0  0  0  0  0  0
   21.0979  -20.8918  -14.5464 C   0  0  0  0  0  0  0  0  0  0  0  0
   20.6879  -22.3055  -14.5143 C   0  0  2  0  0  0  0  0  0  0  0  0
   21.9282  -23.1219  -14.8173 N   0  0  0  0  0  0  0  0  0  0  0  0
   19.7047  -22.7489  -15.4789 C   0  0  0  0  0  0  0  0  0  0  0  0
   18.3602  -22.8775  -15.2333 O   0  0  0  0  0  0  0  0  0  0  0  0
   20.0720  -23.0705  -16.6772 O   0  0  0  0  0  0  0  0  0  0  0  0
  2  1  1  1
  2  3  1  0
  2 13  1  0
  3  4  1  0
  4  5  2  0
  5  6  1  0
  7  8  2  0
  7  6  1  0
  9  8  1  0
 10  9  2  0
 11 10  1  0
 11 12  2  0
 12  4  1  0
 12  7  1  0
 13 15  1  0
 13 14  2  0
 15 16  1  0
 16 17  1  1
 18 17  1  0
 19 16  1  0
 19 20  2  0
 22 21  1  6
 23 22  1  0
 24 22  1  0
 25 24  1  6
 25 26  1  0
 26 19  1  0
 27 28  1  0
 27 25  1  0
 29 27  2  0
M  END
$$$$
