WCL.pdb
     RDKit          3D

 29 30  0  0  1  0  0  0  0  0999 V2000
   26.2066  -19.1329  -11.3280 N   0  0  0  0  0  0  0  0  0  0  0  0
   26.3535  -20.5544  -11.4799 C   0  0  1  0  0  0  0  0  0  0  0  0
   25.9130  -21.2656  -10.2543 C   0  0  0  0  0  0  0  0  0  0  0  0
   26.5549  -20.8059   -9.0009 C   0  0  0  0  0  0  0  0  0  0  0  0
   25.9573  -20.2760   -7.8821 C   0  0  0  0  0  0  0  0  0  0  0  0
   26.9197  -20.0445   -6.9890 N   0  0  0  0  0  0  0  0  0  0  0  0
   28.1333  -20.3954   -7.4618 C   0  0  0  0  0  0  0  0  0  0  0  0
   29.4062  -20.3584   -6.9740 C   0  0  0  0  0  0  0  0  0  0  0  0
   30.4633  -20.7885   -7.7235 C   0  0  0  0  0  0  0  0  0  0  0  0
   30.2552  -21.2678   -8.9897 C   0  0  0  0  0  0  0  0  0  0  0  0
   28.9914  -21.3166   -9.5032 C   0  0  0  0  0  0  0  0  0  0  0  0
   27.9003  -20.8788   -8.7410 C   0  0  0  0  0  0  0  0  0  0  0  0
   25.6058  -20.9640  -12.6942 C   0  0  0  0  0  0  0  0  0  0  0  0
   24.4847  -20.4765  -12.9743 O   0  0  0  0  0  0  0  0  0  0  0  0
   26.1370  -21.9214  -13.5771 N   0  0  0  0  0  0  0  0  0  0  0  0
   25.5524  -22.1854  -14.8890 C   0  0  1  0  0  0  0  0  0  0  0  0
   26.5658  -22.8272  -15.7966 C   0  0  0  0  0  0  0  0  0  0  0  0
   28.0227  -21.7822  -15.9841 S   0  0  0  0  0  0  0  0  0  0  0  0
   24.3205  -22.9551  -14.6783 C   0  0  0  0  0  0  0  0  0  0  0  0
   24.4001  -24.0385  -14.0348 O   0  0  0  0  0  0  0  0  0  0  0  0
   18.3684  -22.2414  -13.7541 C   0  0  0  0  0  0  0  0  0  0  0  0
   19.5645  -23.1162  -13.7616 C   0  0  2  0  0  0  0  0  0  0  0  0
   19.7728  -23.7210  -12.3454 C   0  0  0  0  0  0  0  0  0  0  0  0
   20.8304  -22.5346  -14.2276 C   0  0  0  0  0  0  0  0  0  0  0  0
   21.8403  -23.4408  -14.7992 C   0  0  2  0  0  0  0  0  0  0  0  0
   23.0475  -22.5873  -15.1321 N   0  0  0  0  0  0  0  0  0  0  0  0
   21.5168  -24.1261  -16.0319 C   0  0  0  0  0  0  0  0  0  0  0  0
   20.9281  -25.3635  -16.1159 O   0  0  0  0  0  0  0  0  0  0  0  0
   21.7926  -23.5765  -17.1703 O   0  0  0  0  0  0  0  0  0  0  0  0
  2  1  1  1
  2  3  1  0
  2 13  1  0
  3  4  1  0
  4  5  2  0
  5  6  1  0
  7  8  2  0
  7  6  1  0
  9  8  1  0
 10  9  2  0
 11 10  1  0
 11 12  2  0
 12  4  1  0
 12  7  1  0
 13 15  1  0
 13 14  2  0
 15 16  1  0
 16 17  1  6
 18 17  1  0
 19 16  1  0
 19 20  2  0
 22 21  1  1
 23 22  1  0
 24 22  1  0
 25 24  1  6
 25 26  1  0
 26 19  1  0
 27 28  1  0
 27 25  1  0
 29 27  2  0
M  END
$$$$
