WCL.pdb
     RDKit          3D

 29 30  0  0  1  0  0  0  0  0999 V2000
   22.2862  -20.5033  -15.9352 N   0  0  0  0  0  0  0  0  0  0  0  0
   22.3667  -21.5564  -14.9605 C   0  0  1  0  0  0  0  0  0  0  0  0
   23.6158  -21.4481  -14.1668 C   0  0  0  0  0  0  0  0  0  0  0  0
   24.8535  -21.8031  -14.8991 C   0  0  0  0  0  0  0  0  0  0  0  0
   25.8815  -20.9764  -15.2860 C   0  0  0  0  0  0  0  0  0  0  0  0
   26.8010  -21.7368  -15.8809 N   0  0  0  0  0  0  0  0  0  0  0  0
   26.4324  -23.0341  -15.9093 C   0  0  0  0  0  0  0  0  0  0  0  0
   26.9850  -24.1835  -16.3922 C   0  0  0  0  0  0  0  0  0  0  0  0
   26.3402  -25.3813  -16.2751 C   0  0  0  0  0  0  0  0  0  0  0  0
   25.1159  -25.4433  -15.6641 C   0  0  0  0  0  0  0  0  0  0  0  0
   24.5395  -24.3084  -15.1711 C   0  0  0  0  0  0  0  0  0  0  0  0
   25.1941  -23.0749  -15.2854 C   0  0  0  0  0  0  0  0  0  0  0  0
   21.1391  -21.5041  -14.1289 C   0  0  0  0  0  0  0  0  0  0  0  0
   20.7022  -20.4239  -13.6649 O   0  0  0  0  0  0  0  0  0  0  0  0
   20.4208  -22.6764  -13.8323 N   0  0  0  0  0  0  0  0  0  0  0  0
   19.1329  -22.6521  -13.1444 C   0  0  1  0  0  0  0  0  0  0  0  0
   18.0052  -22.7306  -14.1367 C   0  0  0  0  0  0  0  0  0  0  0  0
   16.8982  -24.1009  -13.7536 S   0  0  0  0  0  0  0  0  0  0  0  0
   19.1526  -23.7125  -12.1298 C   0  0  0  0  0  0  0  0  0  0  0  0
   19.8637  -24.7323  -12.3506 O   0  0  0  0  0  0  0  0  0  0  0  0
   17.3257  -24.8040   -6.3428 C   0  0  0  0  0  0  0  0  0  0  0  0
   18.2277  -25.1784   -7.4572 C   0  0  2  0  0  0  0  0  0  0  0  0
   19.6543  -25.4451   -6.9016 C   0  0  0  0  0  0  0  0  0  0  0  0
   18.3198  -24.2570   -8.5976 C   0  0  0  0  0  0  0  0  0  0  0  0
   18.5926  -24.8260   -9.9278 C   0  0  2  0  0  0  0  0  0  0  0  0
   18.4445  -23.6915  -10.9215 N   0  0  0  0  0  0  0  0  0  0  0  0
   17.7118  -25.8656  -10.4148 C   0  0  0  0  0  0  0  0  0  0  0  0
   18.0306  -27.1987  -10.4908 O   0  0  0  0  0  0  0  0  0  0  0  0
   16.5241  -25.5657  -10.8316 O   0  0  0  0  0  0  0  0  0  0  0  0
  2  1  1  6
  2  3  1  0
  2 13  1  0
  3  4  1  0
  4  5  2  0
  5  6  1  0
  7  8  2  0
  7  6  1  0
  9  8  1  0
 10  9  2  0
 11 10  1  0
 11 12  2  0
 12  4  1  0
 12  7  1  0
 13 15  1  0
 13 14  2  0
 15 16  1  0
 16 17  1  6
 18 17  1  0
 19 16  1  0
 19 20  2  0
 22 21  1  1
 23 22  1  0
 24 22  1  0
 25 24  1  1
 25 26  1  0
 26 19  1  0
 27 28  1  0
 27 25  1  0
 29 27  2  0
M  END
$$$$
