WCL.pdb
     RDKit          3D

 29 30  0  0  1  0  0  0  0  0999 V2000
   27.4752  -21.1355  -13.0232 N   0  0  0  0  0  0  0  0  0  0  0  0
   26.2411  -21.4268  -12.3467 C   0  0  1  0  0  0  0  0  0  0  0  0
   25.8803  -20.3336  -11.4105 C   0  0  0  0  0  0  0  0  0  0  0  0
   26.5527  -20.3934  -10.0920 C   0  0  0  0  0  0  0  0  0  0  0  0
   25.9903  -20.2803   -8.8428 C   0  0  0  0  0  0  0  0  0  0  0  0
   26.9687  -20.4362   -7.9505 N   0  0  0  0  0  0  0  0  0  0  0  0
   28.1593  -20.6474   -8.5482 C   0  0  0  0  0  0  0  0  0  0  0  0
   29.4351  -20.8509   -8.1118 C   0  0  0  0  0  0  0  0  0  0  0  0
   30.4637  -21.0274   -8.9921 C   0  0  0  0  0  0  0  0  0  0  0  0
   30.2234  -21.0016  -10.3404 C   0  0  0  0  0  0  0  0  0  0  0  0
   28.9558  -20.8002  -10.8053 C   0  0  0  0  0  0  0  0  0  0  0  0
   27.8938  -20.6194   -9.9095 C   0  0  0  0  0  0  0  0  0  0  0  0
   25.2040  -21.6804  -13.3770 C   0  0  0  0  0  0  0  0  0  0  0  0
   25.0169  -20.8905  -14.3331 O   0  0  0  0  0  0  0  0  0  0  0  0
   24.3907  -22.8260  -13.3121 N   0  0  0  0  0  0  0  0  0  0  0  0
   23.3952  -23.1379  -14.3339 C   0  0  1  0  0  0  0  0  0  0  0  0
   23.2842  -24.6260  -14.5230 C   0  0  0  0  0  0  0  0  0  0  0  0
   24.7841  -25.2998  -15.2620 S   0  0  0  0  0  0  0  0  0  0  0  0
   22.1495  -22.4568  -13.9613 C   0  0  0  0  0  0  0  0  0  0  0  0
   21.9329  -22.2443  -12.7357 O   0  0  0  0  0  0  0  0  0  0  0  0
   20.1273  -17.3229  -14.3710 C   0  0  0  0  0  0  0  0  0  0  0  0
   19.9079  -18.6363  -13.7206 C   0  0  2  0  0  0  0  0  0  0  0  0
   20.0386  -18.4796  -12.1801 C   0  0  0  0  0  0  0  0  0  0  0  0
   20.7413  -19.7624  -14.1623 C   0  0  0  0  0  0  0  0  0  0  0  0
   20.0855  -21.0596  -14.3967 C   0  0  2  0  0  0  0  0  0  0  0  0
   21.1685  -22.0142  -14.8576 N   0  0  0  0  0  0  0  0  0  0  0  0
   19.0662  -21.1293  -15.4213 C   0  0  0  0  0  0  0  0  0  0  0  0
   17.7150  -21.0332  -15.1983 O   0  0  0  0  0  0  0  0  0  0  0  0
   19.4022  -21.3047  -16.6584 O   0  0  0  0  0  0  0  0  0  0  0  0
  2  1  1  6
  2  3  1  0
  2 13  1  0
  3  4  1  0
  4  5  2  0
  5  6  1  0
  7  8  2  0
  7  6  1  0
  9  8  1  0
 10  9  2  0
 11 10  1  0
 11 12  2  0
 12  4  1  0
 12  7  1  0
 13 15  1  0
 13 14  2  0
 15 16  1  0
 16 17  1  1
 18 17  1  0
 19 16  1  0
 19 20  2  0
 22 21  1  6
 23 22  1  0
 24 22  1  0
 25 24  1  6
 25 26  1  0
 26 19  1  0
 27 28  1  0
 27 25  1  0
 29 27  2  0
M  END
$$$$
