WCL.pdb
     RDKit          3D

 29 30  0  0  1  0  0  0  0  0999 V2000
   28.5117  -20.4519   -9.5511 N   0  0  0  0  0  0  0  0  0  0  0  0
   27.1093  -20.7400   -9.4264 C   0  0  1  0  0  0  0  0  0  0  0  0
   26.4769  -19.8611   -8.4118 C   0  0  0  0  0  0  0  0  0  0  0  0
   27.3827  -19.3989   -7.3347 C   0  0  0  0  0  0  0  0  0  0  0  0
   27.9003  -18.1407   -7.1380 C   0  0  0  0  0  0  0  0  0  0  0  0
   28.6304  -18.1808   -6.0231 N   0  0  0  0  0  0  0  0  0  0  0  0
   28.6241  -19.4098   -5.4672 C   0  0  0  0  0  0  0  0  0  0  0  0
   29.1967  -19.9729   -4.3650 C   0  0  0  0  0  0  0  0  0  0  0  0
   29.0057  -21.2910   -4.0646 C   0  0  0  0  0  0  0  0  0  0  0  0
   28.2277  -22.0729   -4.8768 C   0  0  0  0  0  0  0  0  0  0  0  0
   27.6420  -21.5353   -5.9864 C   0  0  0  0  0  0  0  0  0  0  0  0
   27.8311  -20.1834   -6.3020 C   0  0  0  0  0  0  0  0  0  0  0  0
   26.4958  -20.6156  -10.7717 C   0  0  0  0  0  0  0  0  0  0  0  0
   26.8588  -19.7306  -11.5829 O   0  0  0  0  0  0  0  0  0  0  0  0
   25.4780  -21.4952  -11.1822 N   0  0  0  0  0  0  0  0  0  0  0  0
   24.8517  -21.4075  -12.4984 C   0  0  1  0  0  0  0  0  0  0  0  0
   25.0164  -22.7021  -13.2464 C   0  0  0  0  0  0  0  0  0  0  0  0
   24.5609  -24.1093  -12.2157 S   0  0  0  0  0  0  0  0  0  0  0  0
   23.4654  -20.9675  -12.3009 C   0  0  0  0  0  0  0  0  0  0  0  0
   22.9258  -21.1899  -11.1813 O   0  0  0  0  0  0  0  0  0  0  0  0
   18.7330  -18.5886  -12.6124 C   0  0  0  0  0  0  0  0  0  0  0  0
   19.9092  -17.7571  -12.9600 C   0  0  2  0  0  0  0  0  0  0  0  0
   19.5543  -16.8329  -14.1579 C   0  0  0  0  0  0  0  0  0  0  0  0
   21.1728  -18.4501  -13.2446 C   0  0  0  0  0  0  0  0  0  0  0  0
   21.2649  -19.8835  -12.9212 C   0  0  2  0  0  0  0  0  0  0  0  0
   22.6792  -20.3120  -13.2569 N   0  0  0  0  0  0  0  0  0  0  0  0
   20.4147  -20.7996  -13.6502 C   0  0  0  0  0  0  0  0  0  0  0  0
   20.6228  -21.2102  -14.9436 O   0  0  0  0  0  0  0  0  0  0  0  0
   19.3583  -21.2906  -13.0869 O   0  0  0  0  0  0  0  0  0  0  0  0
  2  1  1  6
  2  3  1  0
  2 13  1  0
  3  4  1  0
  4  5  2  0
  5  6  1  0
  7  8  2  0
  7  6  1  0
  9  8  1  0
 10  9  2  0
 11 10  1  0
 11 12  2  0
 12  4  1  0
 12  7  1  0
 13 15  1  0
 13 14  2  0
 15 16  1  0
 16 17  1  1
 18 17  1  0
 19 16  1  0
 19 20  2  0
 22 21  1  6
 23 22  1  0
 24 22  1  0
 25 24  1  6
 25 26  1  0
 26 19  1  0
 27 28  1  0
 27 25  1  0
 29 27  2  0
M  END
$$$$
