WCL.pdb
     RDKit          3D

 29 30  0  0  1  0  0  0  0  0999 V2000
   27.8574  -22.1005  -10.5984 N   0  0  0  0  0  0  0  0  0  0  0  0
   26.8676  -21.1501  -10.1711 C   0  0  1  0  0  0  0  0  0  0  0  0
   27.5003  -20.0089   -9.4645 C   0  0  0  0  0  0  0  0  0  0  0  0
   28.4691  -20.3872   -8.4098 C   0  0  0  0  0  0  0  0  0  0  0  0
   29.6400  -21.0951   -8.5425 C   0  0  0  0  0  0  0  0  0  0  0  0
   30.2035  -21.1616   -7.3359 N   0  0  0  0  0  0  0  0  0  0  0  0
   29.4606  -20.5306   -6.4035 C   0  0  0  0  0  0  0  0  0  0  0  0
   29.5744  -20.3181   -5.0613 C   0  0  0  0  0  0  0  0  0  0  0  0
   28.6191  -19.6285   -4.3713 C   0  0  0  0  0  0  0  0  0  0  0  0
   27.5217  -19.1364   -5.0270 C   0  0  0  0  0  0  0  0  0  0  0  0
   27.3823  -19.3340   -6.3704 C   0  0  0  0  0  0  0  0  0  0  0  0
   28.3580  -20.0393   -7.0871 C   0  0  0  0  0  0  0  0  0  0  0  0
   26.0846  -20.7388  -11.3624 C   0  0  0  0  0  0  0  0  0  0  0  0
   26.5604  -19.9692  -12.2310 O   0  0  0  0  0  0  0  0  0  0  0  0
   24.7714  -21.2040  -11.5557 N   0  0  0  0  0  0  0  0  0  0  0  0
   24.0456  -21.0012  -12.8065 C   0  0  1  0  0  0  0  0  0  0  0  0
   24.0621  -22.2575  -13.6335 C   0  0  0  0  0  0  0  0  0  0  0  0
   25.4199  -23.3381  -13.1449 S   0  0  0  0  0  0  0  0  0  0  0  0
   22.7125  -20.4894  -12.4671 C   0  0  0  0  0  0  0  0  0  0  0  0
   22.1827  -20.8811  -11.3900 O   0  0  0  0  0  0  0  0  0  0  0  0
   18.7640  -16.8574  -11.7021 C   0  0  0  0  0  0  0  0  0  0  0  0
   19.1807  -17.0419  -13.1122 C   0  0  2  0  0  0  0  0  0  0  0  0
   18.0417  -17.7459  -13.9009 C   0  0  0  0  0  0  0  0  0  0  0  0
   20.4455  -17.7461  -13.3618 C   0  0  0  0  0  0  0  0  0  0  0  0
   20.6383  -19.0660  -12.7387 C   0  0  2  0  0  0  0  0  0  0  0  0
   21.9677  -19.5912  -13.2419 N   0  0  0  0  0  0  0  0  0  0  0  0
   19.6840  -20.1086  -13.0487 C   0  0  0  0  0  0  0  0  0  0  0  0
   18.5793  -20.4171  -12.2943 O   0  0  0  0  0  0  0  0  0  0  0  0
   19.8450  -20.8417  -14.1027 O   0  0  0  0  0  0  0  0  0  0  0  0
  2  1  1  6
  2  3  1  0
  2 13  1  0
  3  4  1  0
  4  5  2  0
  5  6  1  0
  7  8  2  0
  7  6  1  0
  9  8  1  0
 10  9  2  0
 11 10  1  0
 11 12  2  0
 12  4  1  0
 12  7  1  0
 13 15  1  0
 13 14  2  0
 15 16  1  0
 16 17  1  1
 18 17  1  0
 19 16  1  0
 19 20  2  0
 22 21  1  1
 23 22  1  0
 24 22  1  0
 25 24  1  6
 25 26  1  0
 26 19  1  0
 27 28  1  0
 27 25  1  0
 29 27  2  0
M  END
$$$$
