WCL.pdb
     RDKit          3D

 29 30  0  0  1  0  0  0  0  0999 V2000
   26.0387  -22.4042  -12.5144 N   0  0  0  0  0  0  0  0  0  0  0  0
   25.4811  -21.4433  -11.6027 C   0  0  1  0  0  0  0  0  0  0  0  0
   26.3515  -20.2460  -11.4985 C   0  0  0  0  0  0  0  0  0  0  0  0
   27.6106  -20.4530  -10.7463 C   0  0  0  0  0  0  0  0  0  0  0  0
   28.8962  -20.4932  -11.2315 C   0  0  0  0  0  0  0  0  0  0  0  0
   29.7098  -20.6616  -10.1887 N   0  0  0  0  0  0  0  0  0  0  0  0
   29.0247  -20.7364   -9.0291 C   0  0  0  0  0  0  0  0  0  0  0  0
   29.3618  -20.9085   -7.7190 C   0  0  0  0  0  0  0  0  0  0  0  0
   28.4074  -20.9552   -6.7438 C   0  0  0  0  0  0  0  0  0  0  0  0
   27.0840  -20.8285   -7.0739 C   0  0  0  0  0  0  0  0  0  0  0  0
   26.7180  -20.6548   -8.3774 C   0  0  0  0  0  0  0  0  0  0  0  0
   27.6904  -20.6043   -9.3849 C   0  0  0  0  0  0  0  0  0  0  0  0
   24.1043  -21.1278  -12.0569 C   0  0  0  0  0  0  0  0  0  0  0  0
   23.7230  -21.3734  -13.2263 O   0  0  0  0  0  0  0  0  0  0  0  0
   23.1756  -20.5373  -11.1811 N   0  0  0  0  0  0  0  0  0  0  0  0
   21.7531  -20.4423  -11.4970 C   0  0  1  0  0  0  0  0  0  0  0  0
   20.9737  -20.0060  -10.2867 C   0  0  0  0  0  0  0  0  0  0  0  0
   19.2157  -19.8696  -10.6617 S   0  0  0  0  0  0  0  0  0  0  0  0
   21.6179  -19.5793  -12.6765 C   0  0  0  0  0  0  0  0  0  0  0  0
   22.3426  -18.5475  -12.7434 O   0  0  0  0  0  0  0  0  0  0  0  0
   20.7598  -19.0802  -18.3385 C   0  0  0  0  0  0  0  0  0  0  0  0
   21.6202  -18.6097  -17.2275 C   0  0  2  0  0  0  0  0  0  0  0  0
   23.0978  -18.5523  -17.7054 C   0  0  0  0  0  0  0  0  0  0  0  0
   21.5535  -19.3438  -15.9568 C   0  0  0  0  0  0  0  0  0  0  0  0
   20.6761  -18.8177  -14.8980 C   0  0  2  0  0  0  0  0  0  0  0  0
   20.7460  -19.8038  -13.7494 N   0  0  0  0  0  0  0  0  0  0  0  0
   19.2651  -18.6846  -15.1899 C   0  0  0  0  0  0  0  0  0  0  0  0
   18.6860  -17.6061  -15.8114 O   0  0  0  0  0  0  0  0  0  0  0  0
   18.4420  -19.6233  -14.8502 O   0  0  0  0  0  0  0  0  0  0  0  0
  2  1  1  6
  2  3  1  0
  2 13  1  0
  3  4  1  0
  4  5  2  0
  5  6  1  0
  7  8  2  0
  7  6  1  0
  9  8  1  0
 10  9  2  0
 11 10  1  0
 11 12  2  0
 12  4  1  0
 12  7  1  0
 13 15  1  0
 13 14  2  0
 15 16  1  0
 16 17  1  1
 18 17  1  0
 19 16  1  0
 19 20  2  0
 22 21  1  6
 23 22  1  0
 24 22  1  0
 25 24  1  6
 25 26  1  0
 26 19  1  0
 27 28  1  0
 27 25  1  0
 29 27  2  0
M  END
$$$$
