WCL.pdb
     RDKit          3D

 29 30  0  0  1  0  0  0  0  0999 V2000
   27.1336  -19.0999  -12.1887 N   0  0  0  0  0  0  0  0  0  0  0  0
   27.1780  -20.5181  -12.4171 C   0  0  1  0  0  0  0  0  0  0  0  0
   26.5100  -21.2526  -11.3143 C   0  0  0  0  0  0  0  0  0  0  0  0
   27.0102  -20.9316   -9.9575 C   0  0  0  0  0  0  0  0  0  0  0  0
   26.2992  -20.4748   -8.8733 C   0  0  0  0  0  0  0  0  0  0  0  0
   27.1534  -20.3638   -7.8556 N   0  0  0  0  0  0  0  0  0  0  0  0
   28.4031  -20.7253   -8.2122 C   0  0  0  0  0  0  0  0  0  0  0  0
   29.6080  -20.7864   -7.5766 C   0  0  0  0  0  0  0  0  0  0  0  0
   30.7333  -21.1958   -8.2325 C   0  0  0  0  0  0  0  0  0  0  0  0
   30.6645  -21.5542   -9.5527 C   0  0  0  0  0  0  0  0  0  0  0  0
   29.4712  -21.5031  -10.2138 C   0  0  0  0  0  0  0  0  0  0  0  0
   28.3110  -21.0855   -9.5487 C   0  0  0  0  0  0  0  0  0  0  0  0
   26.5765  -20.7859  -13.7467 C   0  0  0  0  0  0  0  0  0  0  0  0
   25.5557  -20.1750  -14.1440 O   0  0  0  0  0  0  0  0  0  0  0  0
   27.1383  -21.7429  -14.6108 N   0  0  0  0  0  0  0  0  0  0  0  0
   26.5558  -22.0604  -15.9116 C   0  0  1  0  0  0  0  0  0  0  0  0
   27.5665  -22.7506  -16.7860 C   0  0  0  0  0  0  0  0  0  0  0  0
   29.1154  -23.0156  -15.9024 S   0  0  0  0  0  0  0  0  0  0  0  0
   25.3167  -22.8095  -15.6711 C   0  0  0  0  0  0  0  0  0  0  0  0
   25.3394  -23.7346  -14.8120 O   0  0  0  0  0  0  0  0  0  0  0  0
   20.0831  -21.0881  -14.1959 C   0  0  0  0  0  0  0  0  0  0  0  0
   21.1494  -22.0978  -13.9979 C   0  0  2  0  0  0  0  0  0  0  0  0
   21.4920  -22.1997  -12.4856 C   0  0  0  0  0  0  0  0  0  0  0  0
   22.3927  -21.9341  -14.7631 C   0  0  0  0  0  0  0  0  0  0  0  0
   22.7952  -23.0204  -15.6716 C   0  0  2  0  0  0  0  0  0  0  0  0
   24.0948  -22.5840  -16.3176 N   0  0  0  0  0  0  0  0  0  0  0  0
   21.9183  -23.3404  -16.7772 C   0  0  0  0  0  0  0  0  0  0  0  0
   21.8727  -22.6626  -17.9702 O   0  0  0  0  0  0  0  0  0  0  0  0
   21.0868  -24.3270  -16.6800 O   0  0  0  0  0  0  0  0  0  0  0  0
  2  1  1  1
  2  3  1  0
  2 13  1  0
  3  4  1  0
  4  5  2  0
  5  6  1  0
  7  8  2  0
  7  6  1  0
  9  8  1  0
 10  9  2  0
 11 10  1  0
 11 12  2  0
 12  4  1  0
 12  7  1  0
 13 15  1  0
 13 14  2  0
 15 16  1  0
 16 17  1  6
 18 17  1  0
 19 16  1  0
 19 20  2  0
 22 21  1  1
 23 22  1  0
 24 22  1  0
 25 24  1  6
 25 26  1  0
 26 19  1  0
 27 28  1  0
 27 25  1  0
 29 27  2  0
M  END
$$$$
