DMH.pdb
     RDKit          3D

 27 27  0  0  1  0  0  0  0  0999 V2000
   10.0805  -16.4367   19.6931 N   0  0  0  0  0  0  0  0  0  0  0  0
    9.0096  -16.8687   20.6314 C   0  0  1  0  0  0  0  0  0  0  0  0
    9.1844  -18.3537   20.7554 C   0  0  0  0  0  0  0  0  0  0  0  0
    8.7910  -19.0850   19.5454 C   0  0  0  0  0  0  0  0  0  0  0  0
    7.9920  -18.5112   18.7536 O   0  0  0  0  0  0  0  0  0  0  0  0
    9.2934  -16.1690   21.9127 C   0  0  0  0  0  0  0  0  0  0  0  0
   10.4821  -16.1520   22.2794 O   0  0  0  0  0  0  0  0  0  0  0  0
    9.2674  -20.3485   19.2720 O   0  0  0  0  0  0  0  0  0  0  0  0
    6.6082  -11.6494   27.9031 C   0  0  0  0  0  0  0  0  0  0  0  0
    6.2412  -12.2273   26.2196 S   0  0  0  0  0  0  0  0  0  0  0  0
    7.5060  -13.3949   25.7438 C   0  0  0  0  0  0  0  0  0  0  0  0
    7.4173  -13.9214   24.3386 C   0  0  0  0  0  0  0  0  0  0  0  0
    8.3877  -14.9488   23.9728 C   0  0  2  0  0  0  0  0  0  0  0  0
    8.2737  -15.5455   22.6783 N   0  0  0  0  0  0  0  0  0  0  0  0
    8.8621  -15.8813   24.9907 C   0  0  0  0  0  0  0  0  0  0  0  0
    8.2101  -16.9251   25.2272 O   0  0  0  0  0  0  0  0  0  0  0  0
   10.0610  -15.6309   25.7283 N   0  0  0  0  0  0  0  0  0  0  0  0
   10.4752  -16.6250   26.6926 C   0  0  1  0  0  0  0  0  0  0  0  0
   11.9772  -16.7831   26.5745 C   0  0  0  0  0  0  0  0  0  0  0  0
   12.5559  -17.6886   27.5682 C   0  0  0  0  0  0  0  0  0  0  0  0
   11.9036  -18.4053   28.5385 C   0  0  0  0  0  0  0  0  0  0  0  0
   12.8097  -19.1222   29.2723 N   0  0  0  0  0  0  0  0  0  0  0  0
   14.0073  -18.8507   28.7618 C   0  0  0  0  0  0  0  0  0  0  0  0
   13.8797  -17.9913   27.7364 N   0  0  0  0  0  0  0  0  0  0  0  0
   10.1452  -16.1305   28.0408 C   0  0  0  0  0  0  0  0  0  0  0  0
    9.7178  -14.9651   28.1929 O   0  0  0  0  0  0  0  0  0  0  0  0
   10.3068  -16.9531   29.1391 O   0  0  0  0  0  0  0  0  0  0  0  0
  2  1  1  6
  2  3  1  0
  3  4  1  0
  4  5  2  0
  6  7  2  0
  6  2  1  0
  8  4  1  0
  9 10  1  0
 10 11  1  0
 11 12  1  0
 13 12  1  1
 13 14  1  0
 14  6  1  0
 15 16  2  0
 15 13  1  0
 17 15  1  0
 18 19  1  1
 18 17  1  0
 20 24  1  0
 20 19  1  0
 21 20  2  0
 22 21  1  0
 22 23  1  0
 23 24  2  0
 25 18  1  0
 26 25  2  0
 27 25  1  0
M  END
$$$$
