DMH.pdb
     RDKit          3D

 27 27  0  0  1  0  0  0  0  0999 V2000
    9.8119  -17.5425   16.5492 N   0  0  0  0  0  0  0  0  0  0  0  0
   11.1383  -16.8684   16.5628 C   0  0  1  0  0  0  0  0  0  0  0  0
   11.0266  -15.7814   15.5347 C   0  0  0  0  0  0  0  0  0  0  0  0
   10.8521  -16.2923   14.1701 C   0  0  0  0  0  0  0  0  0  0  0  0
    9.7319  -16.1045   13.6182 O   0  0  0  0  0  0  0  0  0  0  0  0
   11.2940  -16.3180   17.9357 C   0  0  0  0  0  0  0  0  0  0  0  0
   12.4239  -15.8907   18.2329 O   0  0  0  0  0  0  0  0  0  0  0  0
   11.8624  -16.9526   13.5057 O   0  0  0  0  0  0  0  0  0  0  0  0
    7.1773  -11.3898   19.2737 C   0  0  0  0  0  0  0  0  0  0  0  0
    7.2918  -12.8849   20.3003 S   0  0  0  0  0  0  0  0  0  0  0  0
    8.8266  -13.7110   19.9115 C   0  0  0  0  0  0  0  0  0  0  0  0
    9.0883  -14.9919   20.6535 C   0  0  0  0  0  0  0  0  0  0  0  0
   10.2339  -15.7760   20.2018 C   0  0  2  0  0  0  0  0  0  0  0  0
   10.2182  -16.2708   18.8603 N   0  0  0  0  0  0  0  0  0  0  0  0
   10.8954  -16.6818   21.1360 C   0  0  0  0  0  0  0  0  0  0  0  0
   10.7016  -17.9166   21.0444 O   0  0  0  0  0  0  0  0  0  0  0  0
   11.7654  -16.1906   22.1587 N   0  0  0  0  0  0  0  0  0  0  0  0
   12.6042  -17.1487   22.8428 C   0  0  1  0  0  0  0  0  0  0  0  0
   13.5018  -17.7960   21.8082 C   0  0  0  0  0  0  0  0  0  0  0  0
   13.0885  -19.1485   21.4308 C   0  0  0  0  0  0  0  0  0  0  0  0
   12.0446  -19.8831   21.9323 C   0  0  0  0  0  0  0  0  0  0  0  0
   12.0049  -21.1074   21.3217 N   0  0  0  0  0  0  0  0  0  0  0  0
   13.0128  -21.1290   20.4544 C   0  0  0  0  0  0  0  0  0  0  0  0
   13.6782  -19.9623   20.5023 N   0  0  0  0  0  0  0  0  0  0  0  0
   13.4361  -16.4241   23.8197 C   0  0  0  0  0  0  0  0  0  0  0  0
   13.8483  -15.2726   23.5587 O   0  0  0  0  0  0  0  0  0  0  0  0
   13.7619  -17.0150   25.0254 O   0  0  0  0  0  0  0  0  0  0  0  0
  2  1  1  1
  2  3  1  0
  3  4  1  0
  4  5  2  0
  6  7  2  0
  6  2  1  0
  8  4  1  0
  9 10  1  0
 10 11  1  0
 11 12  1  0
 13 12  1  1
 13 14  1  0
 14  6  1  0
 15 16  2  0
 15 13  1  0
 17 15  1  0
 18 19  1  6
 18 17  1  0
 20 24  1  0
 20 19  1  0
 21 20  2  0
 22 21  1  0
 22 23  1  0
 23 24  2  0
 25 18  1  0
 26 25  2  0
 27 25  1  0
M  END
$$$$
