DMH.pdb
     RDKit          3D

 27 27  0  0  1  0  0  0  0  0999 V2000
   13.0530  -14.4607   15.9657 N   0  0  0  0  0  0  0  0  0  0  0  0
   13.2423  -15.6225   16.8757 C   0  0  1  0  0  0  0  0  0  0  0  0
   14.7074  -15.9364   16.7972 C   0  0  0  0  0  0  0  0  0  0  0  0
   15.1281  -16.4040   15.4713 C   0  0  0  0  0  0  0  0  0  0  0  0
   14.3198  -17.1299   14.8277 O   0  0  0  0  0  0  0  0  0  0  0  0
   12.8510  -15.1409   18.2273 C   0  0  0  0  0  0  0  0  0  0  0  0
   13.6969  -14.4615   18.8361 O   0  0  0  0  0  0  0  0  0  0  0  0
   16.3541  -16.0714   14.9379 O   0  0  0  0  0  0  0  0  0  0  0  0
    7.6613  -11.7304   20.5750 C   0  0  0  0  0  0  0  0  0  0  0  0
    7.9284  -12.5146   18.9575 S   0  0  0  0  0  0  0  0  0  0  0  0
    9.5370  -13.2902   18.9737 C   0  0  0  0  0  0  0  0  0  0  0  0
    9.7590  -14.3174   20.0486 C   0  0  0  0  0  0  0  0  0  0  0  0
   11.0607  -14.9781   20.0497 C   0  0  2  0  0  0  0  0  0  0  0  0
   11.5831  -15.4280   18.7970 N   0  0  0  0  0  0  0  0  0  0  0  0
   11.4210  -15.8496   21.1639 C   0  0  0  0  0  0  0  0  0  0  0  0
   11.2686  -17.0889   21.0558 O   0  0  0  0  0  0  0  0  0  0  0  0
   11.9477  -15.3197   22.3828 N   0  0  0  0  0  0  0  0  0  0  0  0
   12.3856  -16.2605   23.3892 C   0  0  1  0  0  0  0  0  0  0  0  0
   13.5568  -15.6388   24.1219 C   0  0  0  0  0  0  0  0  0  0  0  0
   14.7768  -15.5502   23.3180 C   0  0  0  0  0  0  0  0  0  0  0  0
   15.0874  -16.2429   22.1758 C   0  0  0  0  0  0  0  0  0  0  0  0
   16.3323  -15.8793   21.7382 N   0  0  0  0  0  0  0  0  0  0  0  0
   16.7854  -14.9739   22.6005 C   0  0  0  0  0  0  0  0  0  0  0  0
   15.8676  -14.7599   23.5586 N   0  0  0  0  0  0  0  0  0  0  0  0
   11.2792  -16.4741   24.3386 C   0  0  0  0  0  0  0  0  0  0  0  0
   10.1985  -15.8629   24.1882 O   0  0  0  0  0  0  0  0  0  0  0  0
   11.4332  -17.3499   25.3960 O   0  0  0  0  0  0  0  0  0  0  0  0
  2  1  1  6
  2  3  1  0
  3  4  1  0
  4  5  2  0
  6  7  2  0
  6  2  1  0
  8  4  1  0
  9 10  1  0
 10 11  1  0
 11 12  1  0
 13 12  1  6
 13 14  1  0
 14  6  1  0
 15 16  2  0
 15 13  1  0
 17 15  1  0
 18 19  1  1
 18 17  1  0
 20 24  1  0
 20 19  1  0
 21 20  2  0
 22 21  1  0
 22 23  1  0
 23 24  2  0
 25 18  1  0
 26 25  2  0
 27 25  1  0
M  END
$$$$
