DMH.pdb
     RDKit          3D

 27 27  0  0  1  0  0  0  0  0999 V2000
   10.3768  -17.4797   16.9416 N   0  0  0  0  0  0  0  0  0  0  0  0
    9.5728  -18.1253   18.0144 C   0  0  1  0  0  0  0  0  0  0  0  0
   10.0271  -19.5551   18.0264 C   0  0  0  0  0  0  0  0  0  0  0  0
    9.7414  -20.2629   16.7730 C   0  0  0  0  0  0  0  0  0  0  0  0
    8.7576  -19.8618   16.0904 O   0  0  0  0  0  0  0  0  0  0  0  0
    9.9388  -17.4176   19.2703 C   0  0  0  0  0  0  0  0  0  0  0  0
   11.1554  -17.2742   19.4871 O   0  0  0  0  0  0  0  0  0  0  0  0
   10.5083  -21.3250   16.3462 O   0  0  0  0  0  0  0  0  0  0  0  0
    7.5023  -11.3640   19.6965 C   0  0  0  0  0  0  0  0  0  0  0  0
    7.2856  -12.5850   21.0250 S   0  0  0  0  0  0  0  0  0  0  0  0
    8.3671  -13.9668   20.6930 C   0  0  0  0  0  0  0  0  0  0  0  0
    8.3391  -15.0792   21.7037 C   0  0  0  0  0  0  0  0  0  0  0  0
    9.1775  -16.2377   21.4106 C   0  0  2  0  0  0  0  0  0  0  0  0
    8.9627  -16.9227   20.1739 N   0  0  0  0  0  0  0  0  0  0  0  0
    9.5709  -17.1307   22.4962 C   0  0  0  0  0  0  0  0  0  0  0  0
    8.9052  -18.1695   22.7163 O   0  0  0  0  0  0  0  0  0  0  0  0
   10.7052  -16.8470   23.3190 N   0  0  0  0  0  0  0  0  0  0  0  0
   11.0572  -17.8153   24.3330 C   0  0  1  0  0  0  0  0  0  0  0  0
   12.5566  -18.0226   24.2707 C   0  0  0  0  0  0  0  0  0  0  0  0
   12.9931  -18.8428   23.1398 C   0  0  0  0  0  0  0  0  0  0  0  0
   12.2151  -19.5560   22.2641 C   0  0  0  0  0  0  0  0  0  0  0  0
   13.0116  -20.2002   21.3564 N   0  0  0  0  0  0  0  0  0  0  0  0
   14.2664  -19.8894   21.6684 C   0  0  0  0  0  0  0  0  0  0  0  0
   14.2801  -19.0745   22.7371 N   0  0  0  0  0  0  0  0  0  0  0  0
   10.6997  -17.2598   25.6501 C   0  0  0  0  0  0  0  0  0  0  0  0
   10.1984  -16.1170   25.7324 O   0  0  0  0  0  0  0  0  0  0  0  0
   10.9172  -18.0001   26.7963 O   0  0  0  0  0  0  0  0  0  0  0  0
  2  1  1  6
  2  3  1  0
  3  4  1  0
  4  5  2  0
  6  7  2  0
  6  2  1  0
  8  4  1  0
  9 10  1  0
 10 11  1  0
 11 12  1  0
 13 12  1  1
 13 14  1  0
 14  6  1  0
 15 16  2  0
 15 13  1  0
 17 15  1  0
 18 19  1  1
 18 17  1  0
 20 24  1  0
 20 19  1  0
 21 20  2  0
 22 21  1  0
 22 23  1  0
 23 24  2  0
 25 18  1  0
 26 25  2  0
 27 25  1  0
M  END
$$$$
