DMH.pdb
     RDKit          3D

 27 27  0  0  1  0  0  0  0  0999 V2000
    9.7618  -16.3326   19.3332 N   0  0  0  0  0  0  0  0  0  0  0  0
    8.5963  -16.5842   20.2231 C   0  0  1  0  0  0  0  0  0  0  0  0
    8.4327  -18.0756   20.2285 C   0  0  0  0  0  0  0  0  0  0  0  0
    7.8821  -18.6012   18.9738 C   0  0  0  0  0  0  0  0  0  0  0  0
    6.6371  -18.4910   18.7944 O   0  0  0  0  0  0  0  0  0  0  0  0
    8.9932  -16.0659   21.5594 C   0  0  0  0  0  0  0  0  0  0  0  0
   10.1664  -16.2868   21.9095 O   0  0  0  0  0  0  0  0  0  0  0  0
    8.6812  -19.1941   18.0207 O   0  0  0  0  0  0  0  0  0  0  0  0
    7.3753  -11.5049   27.8514 C   0  0  0  0  0  0  0  0  0  0  0  0
    6.6742  -12.0992   26.2836 S   0  0  0  0  0  0  0  0  0  0  0  0
    7.7256  -13.4020   25.6620 C   0  0  0  0  0  0  0  0  0  0  0  0
    7.4433  -13.8590   24.2580 C   0  0  0  0  0  0  0  0  0  0  0  0
    8.2985  -14.9238   23.7425 C   0  0  2  0  0  0  0  0  0  0  0  0
    8.0941  -15.3513   22.3933 N   0  0  0  0  0  0  0  0  0  0  0  0
    8.7041  -16.0098   24.6295 C   0  0  0  0  0  0  0  0  0  0  0  0
    7.9004  -16.9381   24.8805 O   0  0  0  0  0  0  0  0  0  0  0  0
   10.0050  -16.0403   25.2218 N   0  0  0  0  0  0  0  0  0  0  0  0
   10.3699  -17.2162   25.9791 C   0  0  1  0  0  0  0  0  0  0  0  0
   11.8344  -17.4986   25.7137 C   0  0  0  0  0  0  0  0  0  0  0  0
   12.0891  -18.1285   24.4173 C   0  0  0  0  0  0  0  0  0  0  0  0
   11.1839  -18.7201   23.5737 C   0  0  0  0  0  0  0  0  0  0  0  0
   11.8290  -19.2010   22.4664 N   0  0  0  0  0  0  0  0  0  0  0  0
   13.1171  -18.9107   22.6248 C   0  0  0  0  0  0  0  0  0  0  0  0
   13.2974  -18.2660   23.7901 N   0  0  0  0  0  0  0  0  0  0  0  0
   10.1855  -16.9225   27.4112 C   0  0  0  0  0  0  0  0  0  0  0  0
   10.4812  -17.7825   28.2697 O   0  0  0  0  0  0  0  0  0  0  0  0
    9.6863  -15.6969   27.8082 O   0  0  0  0  0  0  0  0  0  0  0  0
  2  1  1  6
  2  3  1  0
  3  4  1  0
  4  5  2  0
  6  7  2  0
  6  2  1  0
  8  4  1  0
  9 10  1  0
 10 11  1  0
 11 12  1  0
 13 12  1  1
 13 14  1  0
 14  6  1  0
 15 16  2  0
 15 13  1  0
 17 15  1  0
 18 19  1  1
 18 17  1  0
 20 24  1  0
 20 19  1  0
 21 20  2  0
 22 21  1  0
 22 23  1  0
 23 24  2  0
 25 18  1  0
 26 25  2  0
 27 25  1  0
M  END
$$$$
