DMH.pdb
     RDKit          3D

 27 27  0  0  1  0  0  0  0  0999 V2000
    9.3452  -15.8082   19.7358 N   0  0  0  0  0  0  0  0  0  0  0  0
    9.1014  -16.7725   20.8424 C   0  0  1  0  0  0  0  0  0  0  0  0
   10.0920  -17.8761   20.6146 C   0  0  0  0  0  0  0  0  0  0  0  0
    9.8053  -18.6717   19.4153 C   0  0  0  0  0  0  0  0  0  0  0  0
    8.6193  -19.0745   19.2550 O   0  0  0  0  0  0  0  0  0  0  0  0
    9.3850  -16.0240   22.0959 C   0  0  0  0  0  0  0  0  0  0  0  0
   10.5541  -15.6267   22.2476 O   0  0  0  0  0  0  0  0  0  0  0  0
   10.7826  -18.9745   18.4924 O   0  0  0  0  0  0  0  0  0  0  0  0
    6.6579  -11.7433   28.1661 C   0  0  0  0  0  0  0  0  0  0  0  0
    6.1493  -12.6788   26.6935 S   0  0  0  0  0  0  0  0  0  0  0  0
    7.5532  -13.6226   26.1212 C   0  0  0  0  0  0  0  0  0  0  0  0
    7.4268  -14.2185   24.7469 C   0  0  0  0  0  0  0  0  0  0  0  0
    8.5248  -15.0769   24.3131 C   0  0  2  0  0  0  0  0  0  0  0  0
    8.3834  -15.7652   23.0676 N   0  0  0  0  0  0  0  0  0  0  0  0
    9.2709  -15.8432   25.3065 C   0  0  0  0  0  0  0  0  0  0  0  0
    8.8532  -16.9703   25.6615 O   0  0  0  0  0  0  0  0  0  0  0  0
   10.4748  -15.3357   25.8872 N   0  0  0  0  0  0  0  0  0  0  0  0
   11.1836  -16.1886   26.8144 C   0  0  1  0  0  0  0  0  0  0  0  0
   12.6509  -15.8169   26.7521 C   0  0  0  0  0  0  0  0  0  0  0  0
   13.3320  -16.2993   25.5497 C   0  0  0  0  0  0  0  0  0  0  0  0
   12.8253  -17.0950   24.5542 C   0  0  0  0  0  0  0  0  0  0  0  0
   13.7907  -17.3294   23.6127 N   0  0  0  0  0  0  0  0  0  0  0  0
   14.8807  -16.6869   24.0224 C   0  0  0  0  0  0  0  0  0  0  0  0
   14.6289  -16.0605   25.1844 N   0  0  0  0  0  0  0  0  0  0  0  0
   10.6746  -15.9239   28.1716 C   0  0  0  0  0  0  0  0  0  0  0  0
    9.7610  -15.0878   28.3455 O   0  0  0  0  0  0  0  0  0  0  0  0
   11.2050  -16.5989   29.2542 O   0  0  0  0  0  0  0  0  0  0  0  0
  2  1  1  6
  2  3  1  0
  3  4  1  0
  4  5  2  0
  6  7  2  0
  6  2  1  0
  8  4  1  0
  9 10  1  0
 10 11  1  0
 11 12  1  0
 13 12  1  1
 13 14  1  0
 14  6  1  0
 15 16  2  0
 15 13  1  0
 17 15  1  0
 18 19  1  1
 18 17  1  0
 20 24  1  0
 20 19  1  0
 21 20  2  0
 22 21  1  0
 22 23  1  0
 23 24  2  0
 25 18  1  0
 26 25  2  0
 27 25  1  0
M  END
$$$$
