DMH.pdb
     RDKit          3D

 27 27  0  0  1  0  0  0  0  0999 V2000
    8.7906  -16.9411   20.6735 N   0  0  0  0  0  0  0  0  0  0  0  0
   10.1667  -17.0518   21.2281 C   0  0  1  0  0  0  0  0  0  0  0  0
   11.0560  -16.4761   20.1656 C   0  0  0  0  0  0  0  0  0  0  0  0
   10.9409  -17.1694   18.8774 C   0  0  0  0  0  0  0  0  0  0  0  0
   10.6780  -18.4043   18.9036 O   0  0  0  0  0  0  0  0  0  0  0  0
   10.1695  -16.2215   22.4620 C   0  0  0  0  0  0  0  0  0  0  0  0
   11.2808  -16.0041   22.9771 O   0  0  0  0  0  0  0  0  0  0  0  0
   11.1106  -16.5109   17.6791 O   0  0  0  0  0  0  0  0  0  0  0  0
    6.5943  -11.3118   27.5348 C   0  0  0  0  0  0  0  0  0  0  0  0
    6.5905  -11.9322   25.8267 S   0  0  0  0  0  0  0  0  0  0  0  0
    7.6562  -13.3632   25.7518 C   0  0  0  0  0  0  0  0  0  0  0  0
    7.8236  -13.9861   24.3939 C   0  0  0  0  0  0  0  0  0  0  0  0
    8.8124  -15.0551   24.2925 C   0  0  2  0  0  0  0  0  0  0  0  0
    8.9774  -15.6951   23.0245 N   0  0  0  0  0  0  0  0  0  0  0  0
    9.0036  -15.9636   25.4190 C   0  0  0  0  0  0  0  0  0  0  0  0
    8.1161  -16.8046   25.6945 O   0  0  0  0  0  0  0  0  0  0  0  0
   10.1870  -15.9170   26.2199 N   0  0  0  0  0  0  0  0  0  0  0  0
   10.3445  -16.9259   27.2430 C   0  0  1  0  0  0  0  0  0  0  0  0
   11.7713  -17.4308   27.1757 C   0  0  0  0  0  0  0  0  0  0  0  0
   12.0044  -18.4021   26.1059 C   0  0  0  0  0  0  0  0  0  0  0  0
   11.0750  -19.0165   25.3061 C   0  0  0  0  0  0  0  0  0  0  0  0
   11.7025  -19.8679   24.4373 N   0  0  0  0  0  0  0  0  0  0  0  0
   13.0037  -19.7811   24.6982 C   0  0  0  0  0  0  0  0  0  0  0  0
   13.2092  -18.9061   25.6974 N   0  0  0  0  0  0  0  0  0  0  0  0
   10.1153  -16.2967   28.5555 C   0  0  0  0  0  0  0  0  0  0  0  0
   10.1932  -16.9806   29.5997 O   0  0  0  0  0  0  0  0  0  0  0  0
    9.8144  -14.9506   28.6353 O   0  0  0  0  0  0  0  0  0  0  0  0
  2  1  1  6
  2  3  1  0
  3  4  1  0
  4  5  2  0
  6  7  2  0
  6  2  1  0
  8  4  1  0
  9 10  1  0
 10 11  1  0
 11 12  1  0
 13 12  1  6
 13 14  1  0
 14  6  1  0
 15 16  2  0
 15 13  1  0
 17 15  1  0
 18 19  1  1
 18 17  1  0
 20 24  1  0
 20 19  1  0
 21 20  2  0
 22 21  1  0
 22 23  1  0
 23 24  2  0
 25 18  1  0
 26 25  2  0
 27 25  1  0
M  END
$$$$
