DMH.pdb
     RDKit          3D

 27 27  0  0  1  0  0  0  0  0999 V2000
    8.8467  -17.8184   21.0059 N   0  0  0  0  0  0  0  0  0  0  0  0
   10.0874  -17.0041   20.8991 C   0  0  1  0  0  0  0  0  0  0  0  0
    9.9332  -16.2363   19.6194 C   0  0  0  0  0  0  0  0  0  0  0  0
   10.0727  -17.0738   18.4224 C   0  0  0  0  0  0  0  0  0  0  0  0
   10.2289  -18.3148   18.5966 O   0  0  0  0  0  0  0  0  0  0  0  0
   10.0821  -16.1082   22.0863 C   0  0  0  0  0  0  0  0  0  0  0  0
   11.1401  -15.4968   22.3196 O   0  0  0  0  0  0  0  0  0  0  0  0
   10.0366  -16.5400   17.1528 O   0  0  0  0  0  0  0  0  0  0  0  0
    5.6654  -12.1536   27.1636 C   0  0  0  0  0  0  0  0  0  0  0  0
    6.4480  -12.1147   25.5239 S   0  0  0  0  0  0  0  0  0  0  0  0
    7.6924  -13.3946   25.4704 C   0  0  0  0  0  0  0  0  0  0  0  0
    7.7574  -14.1935   24.1987 C   0  0  0  0  0  0  0  0  0  0  0  0
    8.8226  -15.1882   24.1161 C   0  0  2  0  0  0  0  0  0  0  0  0
    8.9370  -15.9465   22.9092 N   0  0  0  0  0  0  0  0  0  0  0  0
    9.1830  -15.9526   25.3062 C   0  0  0  0  0  0  0  0  0  0  0  0
    9.1174  -15.4108   26.4344 O   0  0  0  0  0  0  0  0  0  0  0  0
    9.6110  -17.3137   25.2149 N   0  0  0  0  0  0  0  0  0  0  0  0
    9.8109  -18.0383   26.4496 C   0  0  1  0  0  0  0  0  0  0  0  0
    9.3239  -19.4567   26.2350 C   0  0  0  0  0  0  0  0  0  0  0  0
    7.9537  -19.5404   25.7275 C   0  0  0  0  0  0  0  0  0  0  0  0
    6.9243  -18.6561   25.9259 C   0  0  0  0  0  0  0  0  0  0  0  0
    5.7983  -19.1068   25.2916 N   0  0  0  0  0  0  0  0  0  0  0  0
    6.1280  -20.2561   24.7093 C   0  0  0  0  0  0  0  0  0  0  0  0
    7.4187  -20.5370   24.9574 N   0  0  0  0  0  0  0  0  0  0  0  0
   11.2540  -18.0618   26.7464 C   0  0  0  0  0  0  0  0  0  0  0  0
   11.6752  -18.6640   27.7583 O   0  0  0  0  0  0  0  0  0  0  0  0
   12.1442  -17.4193   25.9075 O   0  0  0  0  0  0  0  0  0  0  0  0
  2  1  1  1
  2  3  1  0
  3  4  1  0
  4  5  2  0
  6  7  2  0
  6  2  1  0
  8  4  1  0
  9 10  1  0
 10 11  1  0
 11 12  1  0
 13 12  1  1
 13 14  1  0
 14  6  1  0
 15 16  2  0
 15 13  1  0
 17 15  1  0
 18 19  1  6
 18 17  1  0
 20 24  1  0
 20 19  1  0
 21 20  2  0
 22 21  1  0
 22 23  1  0
 23 24  2  0
 25 18  1  0
 26 25  2  0
 27 25  1  0
M  END
$$$$
