DMH.pdb
     RDKit          3D

 27 27  0  0  1  0  0  0  0  0999 V2000
    8.0155  -16.8200   21.1447 N   0  0  0  0  0  0  0  0  0  0  0  0
    9.4599  -16.5193   21.3373 C   0  0  1  0  0  0  0  0  0  0  0  0
    9.7339  -15.3564   20.4297 C   0  0  0  0  0  0  0  0  0  0  0  0
    9.9366  -15.7503   19.0306 C   0  0  0  0  0  0  0  0  0  0  0  0
    9.8195  -16.9758   18.7492 O   0  0  0  0  0  0  0  0  0  0  0  0
    9.6045  -16.1491   22.7704 C   0  0  0  0  0  0  0  0  0  0  0  0
   10.7510  -15.8486   23.1487 O   0  0  0  0  0  0  0  0  0  0  0  0
   10.2429  -14.8294   18.0527 O   0  0  0  0  0  0  0  0  0  0  0  0
    6.6674  -10.8225   25.4839 C   0  0  0  0  0  0  0  0  0  0  0  0
    6.2658  -12.5408   25.9185 S   0  0  0  0  0  0  0  0  0  0  0  0
    7.4970  -13.6038   25.1813 C   0  0  0  0  0  0  0  0  0  0  0  0
    7.4858  -15.0358   25.6385 C   0  0  0  0  0  0  0  0  0  0  0  0
    8.5182  -15.9004   25.0750 C   0  0  2  0  0  0  0  0  0  0  0  0
    8.5016  -16.1289   23.6635 N   0  0  0  0  0  0  0  0  0  0  0  0
    8.9752  -17.0599   25.8349 C   0  0  0  0  0  0  0  0  0  0  0  0
    8.2254  -18.0568   25.9554 O   0  0  0  0  0  0  0  0  0  0  0  0
   10.2665  -17.0856   26.4482 N   0  0  0  0  0  0  0  0  0  0  0  0
   10.6113  -18.2468   27.2371 C   0  0  1  0  0  0  0  0  0  0  0  0
   12.0786  -18.5427   27.0036 C   0  0  0  0  0  0  0  0  0  0  0  0
   12.3811  -18.9953   25.6450 C   0  0  0  0  0  0  0  0  0  0  0  0
   11.4981  -19.3303   24.6505 C   0  0  0  0  0  0  0  0  0  0  0  0
   12.1858  -19.7159   23.5316 N   0  0  0  0  0  0  0  0  0  0  0  0
   13.4779  -19.6210   23.8319 C   0  0  0  0  0  0  0  0  0  0  0  0
   13.6197  -19.1898   25.0969 N   0  0  0  0  0  0  0  0  0  0  0  0
   10.4036  -17.9211   28.6590 C   0  0  0  0  0  0  0  0  0  0  0  0
   10.5884  -18.7946   29.5347 O   0  0  0  0  0  0  0  0  0  0  0  0
   10.0048  -16.6506   29.0275 O   0  0  0  0  0  0  0  0  0  0  0  0
  2  1  1  1
  2  3  1  0
  3  4  1  0
  4  5  2  0
  6  7  2  0
  6  2  1  0
  8  4  1  0
  9 10  1  0
 10 11  1  0
 11 12  1  0
 13 12  1  1
 13 14  1  0
 14  6  1  0
 15 16  2  0
 15 13  1  0
 17 15  1  0
 18 19  1  1
 18 17  1  0
 20 24  1  0
 20 19  1  0
 21 20  2  0
 22 21  1  0
 22 23  1  0
 23 24  2  0
 25 18  1  0
 26 25  2  0
 27 25  1  0
M  END
$$$$
