DMH.pdb
     RDKit          3D

 27 27  0  0  1  0  0  0  0  0999 V2000
    8.4143  -15.4762   20.6976 N   0  0  0  0  0  0  0  0  0  0  0  0
    9.2101  -16.5844   21.2915 C   0  0  1  0  0  0  0  0  0  0  0  0
   10.4914  -16.5974   20.5110 C   0  0  0  0  0  0  0  0  0  0  0  0
   10.2930  -16.8454   19.0782 C   0  0  0  0  0  0  0  0  0  0  0  0
    9.2367  -17.4454   18.7332 O   0  0  0  0  0  0  0  0  0  0  0  0
    9.4310  -16.2026   22.7118 C   0  0  0  0  0  0  0  0  0  0  0  0
   10.5990  -15.9155   23.0297 O   0  0  0  0  0  0  0  0  0  0  0  0
   11.2150  -16.4448   18.1361 O   0  0  0  0  0  0  0  0  0  0  0  0
    6.6483  -10.9729   25.6379 C   0  0  0  0  0  0  0  0  0  0  0  0
    6.7572  -12.5922   26.4557 S   0  0  0  0  0  0  0  0  0  0  0  0
    7.1287  -13.8196   25.2128 C   0  0  0  0  0  0  0  0  0  0  0  0
    7.3868  -15.2105   25.7211 C   0  0  0  0  0  0  0  0  0  0  0  0
    8.4668  -15.9450   25.0691 C   0  0  2  0  0  0  0  0  0  0  0  0
    8.3741  -16.1576   23.6581 N   0  0  0  0  0  0  0  0  0  0  0  0
    9.1060  -17.0532   25.7720 C   0  0  0  0  0  0  0  0  0  0  0  0
    8.6205  -18.2053   25.6841 O   0  0  0  0  0  0  0  0  0  0  0  0
   10.2806  -16.8545   26.5625 N   0  0  0  0  0  0  0  0  0  0  0  0
   10.8505  -18.0094   27.2191 C   0  0  1  0  0  0  0  0  0  0  0  0
   12.3457  -17.9855   26.9766 C   0  0  0  0  0  0  0  0  0  0  0  0
   13.0838  -18.9944   27.7379 C   0  0  0  0  0  0  0  0  0  0  0  0
   12.5864  -19.9111   28.6285 C   0  0  0  0  0  0  0  0  0  0  0  0
   13.6095  -20.6655   29.1360 N   0  0  0  0  0  0  0  0  0  0  0  0
   14.7254  -20.2194   28.5663 C   0  0  0  0  0  0  0  0  0  0  0  0
   14.4342  -19.2151   27.7221 N   0  0  0  0  0  0  0  0  0  0  0  0
   10.5930  -17.8959   28.6655 C   0  0  0  0  0  0  0  0  0  0  0  0
   10.9345  -18.8194   29.4364 O   0  0  0  0  0  0  0  0  0  0  0  0
    9.9745  -16.7693   29.1726 O   0  0  0  0  0  0  0  0  0  0  0  0
  2  1  1  6
  2  3  1  0
  3  4  1  0
  4  5  2  0
  6  7  2  0
  6  2  1  0
  8  4  1  0
  9 10  1  0
 10 11  1  0
 11 12  1  0
 13 12  1  1
 13 14  1  0
 14  6  1  0
 15 16  2  0
 15 13  1  0
 17 15  1  0
 18 19  1  1
 18 17  1  0
 20 24  1  0
 20 19  1  0
 21 20  2  0
 22 21  1  0
 22 23  1  0
 23 24  2  0
 25 18  1  0
 26 25  2  0
 27 25  1  0
M  END
$$$$
