DMH.pdb
     RDKit          3D

 27 27  0  0  1  0  0  0  0  0999 V2000
    9.1898  -17.6166   21.2230 N   0  0  0  0  0  0  0  0  0  0  0  0
   10.4527  -16.9195   21.5875 C   0  0  1  0  0  0  0  0  0  0  0  0
   10.7514  -16.0298   20.4169 C   0  0  0  0  0  0  0  0  0  0  0  0
   11.4589  -16.7199   19.3321 C   0  0  0  0  0  0  0  0  0  0  0  0
   10.7573  -17.2521   18.4271 O   0  0  0  0  0  0  0  0  0  0  0  0
   10.1390  -16.1363   22.8123 C   0  0  0  0  0  0  0  0  0  0  0  0
   11.0943  -15.5474   23.3492 O   0  0  0  0  0  0  0  0  0  0  0  0
   12.8342  -16.7917   19.2906 O   0  0  0  0  0  0  0  0  0  0  0  0
    6.5641  -11.8289   27.5834 C   0  0  0  0  0  0  0  0  0  0  0  0
    7.2388  -12.5268   26.0471 S   0  0  0  0  0  0  0  0  0  0  0  0
    6.6595  -14.2096   25.8987 C   0  0  0  0  0  0  0  0  0  0  0  0
    7.0379  -14.9241   24.6313 C   0  0  0  0  0  0  0  0  0  0  0  0
    8.4071  -15.4250   24.5579 C   0  0  2  0  0  0  0  0  0  0  0  0
    8.8252  -16.0522   23.3428 N   0  0  0  0  0  0  0  0  0  0  0  0
    9.0185  -16.0159   25.7444 C   0  0  0  0  0  0  0  0  0  0  0  0
    8.8822  -15.4547   26.8567 O   0  0  0  0  0  0  0  0  0  0  0  0
    9.7731  -17.2278   25.6674 N   0  0  0  0  0  0  0  0  0  0  0  0
   10.2895  -17.7759   26.9012 C   0  0  1  0  0  0  0  0  0  0  0  0
   10.0563  -19.2726   26.8732 C   0  0  0  0  0  0  0  0  0  0  0  0
    8.6638  -19.6580   27.1069 C   0  0  0  0  0  0  0  0  0  0  0  0
    7.9576  -19.6006   28.2812 C   0  0  0  0  0  0  0  0  0  0  0  0
    6.6865  -20.0664   28.0799 N   0  0  0  0  0  0  0  0  0  0  0  0
    6.6089  -20.4083   26.7971 C   0  0  0  0  0  0  0  0  0  0  0  0
    7.7854  -20.1717   26.1921 N   0  0  0  0  0  0  0  0  0  0  0  0
   11.7383  -17.5129   26.9563 C   0  0  0  0  0  0  0  0  0  0  0  0
   12.2942  -16.8758   26.0349 O   0  0  0  0  0  0  0  0  0  0  0  0
   12.4849  -17.9689   28.0256 O   0  0  0  0  0  0  0  0  0  0  0  0
  2  1  1  6
  2  3  1  0
  3  4  1  0
  4  5  2  0
  6  7  2  0
  6  2  1  0
  8  4  1  0
  9 10  1  0
 10 11  1  0
 11 12  1  0
 13 12  1  1
 13 14  1  0
 14  6  1  0
 15 16  2  0
 15 13  1  0
 17 15  1  0
 18 19  1  6
 18 17  1  0
 20 24  1  0
 20 19  1  0
 21 20  2  0
 22 21  1  0
 22 23  1  0
 23 24  2  0
 25 18  1  0
 26 25  2  0
 27 25  1  0
M  END
$$$$
