DMH.pdb
     RDKit          3D

 27 27  0  0  1  0  0  0  0  0999 V2000
   10.3336  -15.1436   20.1540 N   0  0  0  0  0  0  0  0  0  0  0  0
    9.8932  -16.3874   20.8416 C   0  0  1  0  0  0  0  0  0  0  0  0
   10.9415  -17.4055   20.5013 C   0  0  0  0  0  0  0  0  0  0  0  0
   10.5588  -18.2783   19.3854 C   0  0  0  0  0  0  0  0  0  0  0  0
   11.1331  -19.3997   19.3014 O   0  0  0  0  0  0  0  0  0  0  0  0
    9.8877  -16.0624   22.2929 C   0  0  0  0  0  0  0  0  0  0  0  0
   10.9982  -15.8619   22.8167 O   0  0  0  0  0  0  0  0  0  0  0  0
    9.6115  -17.9012   18.4586 O   0  0  0  0  0  0  0  0  0  0  0  0
    5.8966  -12.4433   26.5543 C   0  0  0  0  0  0  0  0  0  0  0  0
    5.6899  -12.7433   24.7739 S   0  0  0  0  0  0  0  0  0  0  0  0
    7.1082  -13.6616   24.1958 C   0  0  0  0  0  0  0  0  0  0  0  0
    7.3640  -14.9742   24.8824 C   0  0  0  0  0  0  0  0  0  0  0  0
    8.5452  -15.7115   24.4441 C   0  0  2  0  0  0  0  0  0  0  0  0
    8.6877  -15.9756   23.0460 N   0  0  0  0  0  0  0  0  0  0  0  0
    9.0740  -16.7823   25.2835 C   0  0  0  0  0  0  0  0  0  0  0  0
    9.2482  -17.9235   24.7957 O   0  0  0  0  0  0  0  0  0  0  0  0
    9.4006  -16.5584   26.6573 N   0  0  0  0  0  0  0  0  0  0  0  0
   10.1288  -17.5964   27.3513 C   0  0  1  0  0  0  0  0  0  0  0  0
   10.6015  -17.0231   28.6715 C   0  0  0  0  0  0  0  0  0  0  0  0
   10.9956  -15.6155   28.5970 C   0  0  0  0  0  0  0  0  0  0  0  0
   11.5385  -14.9461   27.5302 C   0  0  0  0  0  0  0  0  0  0  0  0
   11.7760  -13.6427   27.8739 N   0  0  0  0  0  0  0  0  0  0  0  0
   11.3853  -13.5090   29.1381 C   0  0  0  0  0  0  0  0  0  0  0  0
   10.9127  -14.6817   29.5938 N   0  0  0  0  0  0  0  0  0  0  0  0
    9.2070  -18.7160   27.6123 C   0  0  0  0  0  0  0  0  0  0  0  0
    8.0166  -18.6475   27.2352 O   0  0  0  0  0  0  0  0  0  0  0  0
    9.6559  -19.8431   28.2734 O   0  0  0  0  0  0  0  0  0  0  0  0
  2  1  1  6
  2  3  1  0
  3  4  1  0
  4  5  2  0
  6  7  2  0
  6  2  1  0
  8  4  1  0
  9 10  1  0
 10 11  1  0
 11 12  1  0
 13 12  1  6
 13 14  1  0
 14  6  1  0
 15 16  2  0
 15 13  1  0
 17 15  1  0
 18 19  1  1
 18 17  1  0
 20 24  1  0
 20 19  1  0
 21 20  2  0
 22 21  1  0
 22 23  1  0
 23 24  2  0
 25 18  1  0
 26 25  2  0
 27 25  1  0
M  END
$$$$
