DMH.pdb
     RDKit          3D

 27 27  0  0  1  0  0  0  0  0999 V2000
    8.1403  -17.9774   20.9200 N   0  0  0  0  0  0  0  0  0  0  0  0
    9.4916  -17.3933   20.7043 C   0  0  1  0  0  0  0  0  0  0  0  0
    9.5048  -16.9796   19.2621 C   0  0  0  0  0  0  0  0  0  0  0  0
    9.4746  -18.1163   18.3344 C   0  0  0  0  0  0  0  0  0  0  0  0
    8.3423  -18.5266   17.9549 O   0  0  0  0  0  0  0  0  0  0  0  0
    9.5721  -16.2218   21.6170 C   0  0  0  0  0  0  0  0  0  0  0  0
   10.6070  -15.5354   21.5421 O   0  0  0  0  0  0  0  0  0  0  0  0
   10.6290  -18.7212   17.8874 O   0  0  0  0  0  0  0  0  0  0  0  0
    6.2170  -11.8729   27.2028 C   0  0  0  0  0  0  0  0  0  0  0  0
    6.0796  -13.3109   26.1001 S   0  0  0  0  0  0  0  0  0  0  0  0
    7.1948  -13.0678   24.7266 C   0  0  0  0  0  0  0  0  0  0  0  0
    7.2062  -14.1567   23.6903 C   0  0  0  0  0  0  0  0  0  0  0  0
    8.4890  -14.8145   23.4607 C   0  0  2  0  0  0  0  0  0  0  0  0
    8.5291  -15.8918   22.5212 N   0  0  0  0  0  0  0  0  0  0  0  0
    9.4106  -14.9975   24.5778 C   0  0  0  0  0  0  0  0  0  0  0  0
    9.6982  -14.0220   25.3101 O   0  0  0  0  0  0  0  0  0  0  0  0
    9.9959  -16.2714   24.8585 N   0  0  0  0  0  0  0  0  0  0  0  0
   11.0559  -16.3208   25.8401 C   0  0  1  0  0  0  0  0  0  0  0  0
   10.4365  -16.7079   27.1673 C   0  0  0  0  0  0  0  0  0  0  0  0
   10.5933  -15.6935   28.2107 C   0  0  0  0  0  0  0  0  0  0  0  0
   10.9957  -14.3902   28.0675 C   0  0  0  0  0  0  0  0  0  0  0  0
   11.0242  -13.7776   29.2911 N   0  0  0  0  0  0  0  0  0  0  0  0
   10.6450  -14.6918   30.1794 C   0  0  0  0  0  0  0  0  0  0  0  0
   10.3807  -15.8512   29.5532 N   0  0  0  0  0  0  0  0  0  0  0  0
   12.0178  -17.3602   25.4335 C   0  0  0  0  0  0  0  0  0  0  0  0
   13.0793  -17.5166   26.0761 O   0  0  0  0  0  0  0  0  0  0  0  0
   11.7491  -18.1640   24.3423 O   0  0  0  0  0  0  0  0  0  0  0  0
  2  1  1  1
  2  3  1  0
  3  4  1  0
  4  5  2  0
  6  7  2  0
  6  2  1  0
  8  4  1  0
  9 10  1  0
 10 11  1  0
 11 12  1  0
 13 12  1  1
 13 14  1  0
 14  6  1  0
 15 16  2  0
 15 13  1  0
 17 15  1  0
 18 19  1  1
 18 17  1  0
 20 24  1  0
 20 19  1  0
 21 20  2  0
 22 21  1  0
 22 23  1  0
 23 24  2  0
 25 18  1  0
 26 25  2  0
 27 25  1  0
M  END
$$$$
