DMH.pdb
     RDKit          3D

 27 27  0  0  1  0  0  0  0  0999 V2000
    9.7097  -18.5390   16.8883 N   0  0  0  0  0  0  0  0  0  0  0  0
   11.0308  -17.9694   17.2676 C   0  0  1  0  0  0  0  0  0  0  0  0
   11.4658  -17.1785   16.0691 C   0  0  0  0  0  0  0  0  0  0  0  0
   11.9053  -18.0198   14.9499 C   0  0  0  0  0  0  0  0  0  0  0  0
   12.4145  -19.1408   15.2305 O   0  0  0  0  0  0  0  0  0  0  0  0
   10.7682  -17.0955   18.4420 C   0  0  0  0  0  0  0  0  0  0  0  0
   11.7384  -16.4480   18.8746 O   0  0  0  0  0  0  0  0  0  0  0  0
   11.7734  -17.6145   13.6397 O   0  0  0  0  0  0  0  0  0  0  0  0
    7.7551  -12.1662   20.0227 C   0  0  0  0  0  0  0  0  0  0  0  0
    8.2256  -13.0498   21.5394 S   0  0  0  0  0  0  0  0  0  0  0  0
    7.5758  -14.7103   21.4407 C   0  0  0  0  0  0  0  0  0  0  0  0
    7.9056  -15.4702   20.1862 C   0  0  0  0  0  0  0  0  0  0  0  0
    9.1209  -16.2781   20.2227 C   0  0  2  0  0  0  0  0  0  0  0  0
    9.4845  -16.9925   19.0386 N   0  0  0  0  0  0  0  0  0  0  0  0
    9.4722  -16.9891   21.4482 C   0  0  0  0  0  0  0  0  0  0  0  0
    9.0170  -18.1392   21.6496 O   0  0  0  0  0  0  0  0  0  0  0  0
   10.3293  -16.4011   22.4299 N   0  0  0  0  0  0  0  0  0  0  0  0
   10.6197  -17.1742   23.6163 C   0  0  1  0  0  0  0  0  0  0  0  0
   12.1169  -17.4000   23.6635 C   0  0  0  0  0  0  0  0  0  0  0  0
   12.5713  -18.5227   22.8418 C   0  0  0  0  0  0  0  0  0  0  0  0
   11.8086  -19.3959   22.1092 C   0  0  0  0  0  0  0  0  0  0  0  0
   12.6173  -20.3119   21.4926 N   0  0  0  0  0  0  0  0  0  0  0  0
   13.8645  -20.0087   21.8409 C   0  0  0  0  0  0  0  0  0  0  0  0
   13.8616  -18.9367   22.6515 N   0  0  0  0  0  0  0  0  0  0  0  0
   10.2113  -16.3890   24.7943 C   0  0  0  0  0  0  0  0  0  0  0  0
    9.7595  -15.2319   24.6493 O   0  0  0  0  0  0  0  0  0  0  0  0
   10.3262  -16.9294   26.0607 O   0  0  0  0  0  0  0  0  0  0  0  0
  2  1  1  6
  2  3  1  0
  3  4  1  0
  4  5  2  0
  6  7  2  0
  6  2  1  0
  8  4  1  0
  9 10  1  0
 10 11  1  0
 11 12  1  0
 13 12  1  6
 13 14  1  0
 14  6  1  0
 15 16  2  0
 15 13  1  0
 17 15  1  0
 18 19  1  1
 18 17  1  0
 20 24  1  0
 20 19  1  0
 21 20  2  0
 22 21  1  0
 22 23  1  0
 23 24  2  0
 25 18  1  0
 26 25  2  0
 27 25  1  0
M  END
$$$$
