DMH.pdb
     RDKit          3D

 27 27  0  0  1  0  0  0  0  0999 V2000
    9.0792  -16.2242   19.3467 N   0  0  0  0  0  0  0  0  0  0  0  0
    8.0075  -16.2184   20.3787 C   0  0  1  0  0  0  0  0  0  0  0  0
    7.4971  -17.6290   20.4096 C   0  0  0  0  0  0  0  0  0  0  0  0
    6.7133  -17.9862   19.2215 C   0  0  0  0  0  0  0  0  0  0  0  0
    7.3507  -18.2873   18.1738 O   0  0  0  0  0  0  0  0  0  0  0  0
    8.6792  -15.8448   21.6520 C   0  0  0  0  0  0  0  0  0  0  0  0
    9.8694  -16.1879   21.7680 O   0  0  0  0  0  0  0  0  0  0  0  0
    5.3356  -17.9966   19.2350 O   0  0  0  0  0  0  0  0  0  0  0  0
    7.2874  -11.4115   26.8436 C   0  0  0  0  0  0  0  0  0  0  0  0
    6.2864  -12.9225   26.7114 S   0  0  0  0  0  0  0  0  0  0  0  0
    6.5739  -13.6416   25.1023 C   0  0  0  0  0  0  0  0  0  0  0  0
    7.9820  -13.5483   24.5843 C   0  0  0  0  0  0  0  0  0  0  0  0
    8.5212  -14.7539   23.9623 C   0  0  2  0  0  0  0  0  0  0  0  0
    8.0114  -15.1301   22.6804 N   0  0  0  0  0  0  0  0  0  0  0  0
    8.8630  -15.9003   24.7989 C   0  0  0  0  0  0  0  0  0  0  0  0
    8.0795  -16.8763   24.8629 O   0  0  0  0  0  0  0  0  0  0  0  0
   10.0784  -15.9366   25.5509 N   0  0  0  0  0  0  0  0  0  0  0  0
   10.3685  -17.1389   26.2991 C   0  0  1  0  0  0  0  0  0  0  0  0
   11.6796  -17.6964   25.7841 C   0  0  0  0  0  0  0  0  0  0  0  0
   12.1356  -18.8896   26.4987 C   0  0  0  0  0  0  0  0  0  0  0  0
   11.3825  -19.7828   27.2171 C   0  0  0  0  0  0  0  0  0  0  0  0
   12.1919  -20.7539   27.7417 N   0  0  0  0  0  0  0  0  0  0  0  0
   13.4301  -20.4633   27.3528 C   0  0  0  0  0  0  0  0  0  0  0  0
   13.4209  -19.3469   26.6046 N   0  0  0  0  0  0  0  0  0  0  0  0
   10.5211  -16.7771   27.7193 C   0  0  0  0  0  0  0  0  0  0  0  0
   10.5342  -15.5741   28.0609 O   0  0  0  0  0  0  0  0  0  0  0  0
   10.6495  -17.7656   28.6760 O   0  0  0  0  0  0  0  0  0  0  0  0
  2  1  1  6
  2  3  1  0
  3  4  1  0
  4  5  2  0
  6  7  2  0
  6  2  1  0
  8  4  1  0
  9 10  1  0
 10 11  1  0
 11 12  1  0
 13 12  1  1
 13 14  1  0
 14  6  1  0
 15 16  2  0
 15 13  1  0
 17 15  1  0
 18 19  1  6
 18 17  1  0
 20 24  1  0
 20 19  1  0
 21 20  2  0
 22 21  1  0
 22 23  1  0
 23 24  2  0
 25 18  1  0
 26 25  2  0
 27 25  1  0
M  END
$$$$
