CKK.pdb
     RDKit          3D

 25 24  0  0  1  0  0  0  0  0999 V2000
    5.1511  -13.0516   26.4425 N   0  0  0  0  0  0  0  0  0  0  0  0
    6.2790  -12.6214   25.6624 C   0  0  1  0  0  0  0  0  0  0  0  0
    7.3434  -12.0619   26.5800 C   0  0  0  0  0  0  0  0  0  0  0  0
    6.7872  -10.4287   27.1406 S   0  0  0  0  0  0  0  0  0  0  0  0
    6.7786  -13.7626   24.8655 C   0  0  0  0  0  0  0  0  0  0  0  0
    6.7245  -14.9259   25.3266 O   0  0  0  0  0  0  0  0  0  0  0  0
    7.3156  -13.5387   23.5864 N   0  0  0  0  0  0  0  0  0  0  0  0
    7.7499  -14.6455   22.7868 C   0  0  1  0  0  0  0  0  0  0  0  0
    7.9642  -14.1697   21.3434 C   0  0  0  0  0  0  0  0  0  0  0  0
    8.4017  -15.3999   20.5618 C   0  0  0  0  0  0  0  0  0  0  0  0
    8.6500  -15.0831   19.1145 C   0  0  0  0  0  0  0  0  0  0  0  0
    9.0688  -16.3683   18.4327 C   0  0  0  0  0  0  0  0  0  0  0  0
    9.3480  -16.1758   17.0257 N   0  0  0  0  0  0  0  0  0  0  0  0
    9.0733  -15.0999   23.2879 C   0  0  0  0  0  0  0  0  0  0  0  0
    9.8984  -14.2219   23.6687 O   0  0  0  0  0  0  0  0  0  0  0  0
    9.4319  -16.4709   23.3502 N   0  0  0  0  0  0  0  0  0  0  0  0
   10.5936  -16.8322   24.1451 C   0  0  1  0  0  0  0  0  0  0  0  0
   10.2189  -17.8265   25.2200 C   0  0  0  0  0  0  0  0  0  0  0  0
   11.4016  -18.3416   25.9420 C   0  0  0  0  0  0  0  0  0  0  0  0
   11.0909  -19.4341   26.9358 C   0  0  0  0  0  0  0  0  0  0  0  0
   12.3522  -19.9341   27.6235 C   0  0  0  0  0  0  0  0  0  0  0  0
   12.0487  -21.0292   28.5268 N   0  0  0  0  0  0  0  0  0  0  0  0
   11.5949  -17.3503   23.1918 C   0  0  0  0  0  0  0  0  0  0  0  0
   11.2279  -17.9887   22.1975 O   0  0  0  0  0  0  0  0  0  0  0  0
   12.9532  -17.1479   23.3670 O   0  0  0  0  0  0  0  0  0  0  0  0
  2  3  1  0
  2  1  1  1
  4  3  1  0
  5  2  1  0
  6  5  2  0
  7  5  1  0
  8  7  1  0
  8  9  1  6
 10  9  1  0
 11 10  1  0
 12 11  1  0
 13 12  1  0
 14  8  1  0
 14 15  2  0
 16 14  1  0
 17 16  1  0
 17 18  1  1
 19 20  1  0
 19 18  1  0
 20 21  1  0
 21 22  1  0
 23 17  1  0
 24 23  2  0
 25 23  1  0
M  END
$$$$
