CKK.pdb
     RDKit          3D

 25 24  0  0  1  0  0  0  0  0999 V2000
    8.9300  -15.6670   18.7229 N   0  0  0  0  0  0  0  0  0  0  0  0
    7.8457  -15.6653   19.6663 C   0  0  1  0  0  0  0  0  0  0  0  0
    7.2244  -17.0432   19.7236 C   0  0  0  0  0  0  0  0  0  0  0  0
    8.5368  -18.2245   20.1398 S   0  0  0  0  0  0  0  0  0  0  0  0
    8.3541  -15.2316   20.9856 C   0  0  0  0  0  0  0  0  0  0  0  0
    9.5862  -15.2022   21.2084 O   0  0  0  0  0  0  0  0  0  0  0  0
    7.4495  -14.8515   21.9916 N   0  0  0  0  0  0  0  0  0  0  0  0
    7.9366  -14.3595   23.2459 C   0  0  1  0  0  0  0  0  0  0  0  0
    6.7921  -13.6576   23.9896 C   0  0  0  0  0  0  0  0  0  0  0  0
    7.3977  -13.1344   25.2839 C   0  0  0  0  0  0  0  0  0  0  0  0
    6.4228  -12.2920   26.0563 C   0  0  0  0  0  0  0  0  0  0  0  0
    7.1212  -11.8282   27.3170 C   0  0  0  0  0  0  0  0  0  0  0  0
    6.3137  -10.9013   28.0808 N   0  0  0  0  0  0  0  0  0  0  0  0
    8.3424  -15.5188   24.0828 C   0  0  0  0  0  0  0  0  0  0  0  0
    7.5593  -16.5083   24.1477 O   0  0  0  0  0  0  0  0  0  0  0  0
    9.5657  -15.5463   24.8005 N   0  0  0  0  0  0  0  0  0  0  0  0
    9.9651  -16.8030   25.4113 C   0  0  1  0  0  0  0  0  0  0  0  0
   11.3645  -17.1842   24.9862 C   0  0  0  0  0  0  0  0  0  0  0  0
   11.8127  -18.4486   25.6076 C   0  0  0  0  0  0  0  0  0  0  0  0
   13.2402  -18.8210   25.2893 C   0  0  0  0  0  0  0  0  0  0  0  0
   13.6263  -20.1428   25.9353 C   0  0  0  0  0  0  0  0  0  0  0  0
   15.0391  -20.4173   25.7460 N   0  0  0  0  0  0  0  0  0  0  0  0
    9.8281  -16.6097   26.8686 C   0  0  0  0  0  0  0  0  0  0  0  0
    9.7697  -17.5920   27.6185 O   0  0  0  0  0  0  0  0  0  0  0  0
    9.7611  -15.3515   27.4420 O   0  0  0  0  0  0  0  0  0  0  0  0
  2  3  1  0
  2  1  1  6
  4  3  1  0
  5  2  1  0
  6  5  2  0
  7  5  1  0
  8  7  1  0
  8  9  1  1
 10  9  1  0
 11 10  1  0
 12 11  1  0
 13 12  1  0
 14  8  1  0
 14 15  2  0
 16 14  1  0
 17 16  1  0
 17 18  1  1
 19 20  1  0
 19 18  1  0
 20 21  1  0
 21 22  1  0
 23 17  1  0
 24 23  2  0
 25 23  1  0
M  END
$$$$
