CKK.pdb
     RDKit          3D

 25 24  0  0  1  0  0  0  0  0999 V2000
    7.9977  -17.6395   20.1706 N   0  0  0  0  0  0  0  0  0  0  0  0
    9.1190  -16.7626   19.9720 C   0  0  1  0  0  0  0  0  0  0  0  0
    8.8553  -15.8676   18.7815 C   0  0  0  0  0  0  0  0  0  0  0  0
    7.4113  -14.8409   19.1709 S   0  0  0  0  0  0  0  0  0  0  0  0
    9.3495  -15.9855   21.2090 C   0  0  0  0  0  0  0  0  0  0  0  0
   10.4312  -15.3777   21.3799 O   0  0  0  0  0  0  0  0  0  0  0  0
    8.3497  -15.9302   22.1949 N   0  0  0  0  0  0  0  0  0  0  0  0
    8.5834  -15.2152   23.4143 C   0  0  1  0  0  0  0  0  0  0  0  0
    7.2463  -14.6870   23.9518 C   0  0  0  0  0  0  0  0  0  0  0  0
    7.5820  -13.9322   25.2297 C   0  0  0  0  0  0  0  0  0  0  0  0
    6.3563  -13.3465   25.8710 C   0  0  0  0  0  0  0  0  0  0  0  0
    6.8043  -12.5933   27.1055 C   0  0  0  0  0  0  0  0  0  0  0  0
    5.7139  -11.8838   27.7398 N   0  0  0  0  0  0  0  0  0  0  0  0
    9.1049  -16.1683   24.4284 C   0  0  0  0  0  0  0  0  0  0  0  0
    8.3968  -17.1736   24.7193 O   0  0  0  0  0  0  0  0  0  0  0  0
   10.3567  -15.9850   25.0701 N   0  0  0  0  0  0  0  0  0  0  0  0
   10.8053  -17.0180   25.9886 C   0  0  1  0  0  0  0  0  0  0  0  0
   12.2798  -17.2947   25.8046 C   0  0  0  0  0  0  0  0  0  0  0  0
   12.5497  -18.1108   24.6018 C   0  0  0  0  0  0  0  0  0  0  0  0
   14.0136  -18.3853   24.3577 C   0  0  0  0  0  0  0  0  0  0  0  0
   14.2210  -19.2079   23.0952 C   0  0  0  0  0  0  0  0  0  0  0  0
   15.6343  -19.3416   22.7919 N   0  0  0  0  0  0  0  0  0  0  0  0
   10.4644  -16.5363   27.3419 C   0  0  0  0  0  0  0  0  0  0  0  0
   10.1565  -15.3507   27.5156 O   0  0  0  0  0  0  0  0  0  0  0  0
   10.4750  -17.3716   28.4459 O   0  0  0  0  0  0  0  0  0  0  0  0
  2  3  1  0
  2  1  1  1
  4  3  1  0
  5  2  1  0
  6  5  2  0
  7  5  1  0
  8  7  1  0
  8  9  1  1
 10  9  1  0
 11 10  1  0
 12 11  1  0
 13 12  1  0
 14  8  1  0
 14 15  2  0
 16 14  1  0
 17 16  1  0
 17 18  1  1
 19 20  1  0
 19 18  1  0
 20 21  1  0
 21 22  1  0
 23 17  1  0
 24 23  2  0
 25 23  1  0
M  END
$$$$
