CKK.pdb
     RDKit          3D

 25 24  0  0  1  0  0  0  0  0999 V2000
   10.6793  -17.0116   20.3475 N   0  0  0  0  0  0  0  0  0  0  0  0
    9.5788  -17.2260   21.2467 C   0  0  1  0  0  0  0  0  0  0  0  0
    9.5664  -18.6711   21.6937 C   0  0  0  0  0  0  0  0  0  0  0  0
    8.6806  -19.6313   20.4349 S   0  0  0  0  0  0  0  0  0  0  0  0
    9.6995  -16.2941   22.3886 C   0  0  0  0  0  0  0  0  0  0  0  0
   10.8270  -15.8966   22.7622 O   0  0  0  0  0  0  0  0  0  0  0  0
    8.5436  -15.8541   23.0556 N   0  0  0  0  0  0  0  0  0  0  0  0
    8.6536  -14.9486   24.1606 C   0  0  1  0  0  0  0  0  0  0  0  0
    7.2834  -14.3101   24.4259 C   0  0  0  0  0  0  0  0  0  0  0  0
    7.4744  -13.4054   25.6345 C   0  0  0  0  0  0  0  0  0  0  0  0
    6.2128  -12.6698   25.9867 C   0  0  0  0  0  0  0  0  0  0  0  0
    6.5193  -11.7842   27.1757 C   0  0  0  0  0  0  0  0  0  0  0  0
    5.3544  -11.0552   27.6300 N   0  0  0  0  0  0  0  0  0  0  0  0
    9.0047  -15.7276   25.3766 C   0  0  0  0  0  0  0  0  0  0  0  0
    8.3132  -16.7497   25.6483 O   0  0  0  0  0  0  0  0  0  0  0  0
   10.0781  -15.3623   26.2290 N   0  0  0  0  0  0  0  0  0  0  0  0
   10.3702  -16.2270   27.3599 C   0  0  1  0  0  0  0  0  0  0  0  0
   11.8128  -16.6770   27.3315 C   0  0  0  0  0  0  0  0  0  0  0  0
   11.9382  -18.1480   27.2532 C   0  0  0  0  0  0  0  0  0  0  0  0
   13.1214  -18.6247   26.4466 C   0  0  0  0  0  0  0  0  0  0  0  0
   13.2584  -20.1386   26.5038 C   0  0  0  0  0  0  0  0  0  0  0  0
   14.3165  -20.5953   25.6212 N   0  0  0  0  0  0  0  0  0  0  0  0
   10.0226  -15.4511   28.5669 C   0  0  0  0  0  0  0  0  0  0  0  0
   10.1054  -15.9770   29.6837 O   0  0  0  0  0  0  0  0  0  0  0  0
    9.5997  -14.1345   28.5002 O   0  0  0  0  0  0  0  0  0  0  0  0
  2  3  1  0
  2  1  1  6
  4  3  1  0
  5  2  1  0
  6  5  2  0
  7  5  1  0
  8  7  1  0
  8  9  1  1
 10  9  1  0
 11 10  1  0
 12 11  1  0
 13 12  1  0
 14  8  1  0
 14 15  2  0
 16 14  1  0
 17 16  1  0
 17 18  1  1
 19 20  1  0
 19 18  1  0
 20 21  1  0
 21 22  1  0
 23 17  1  0
 24 23  2  0
 25 23  1  0
M  END
$$$$
