CKK.pdb
     RDKit          3D

 25 24  0  0  1  0  0  0  0  0999 V2000
   12.4984  -17.4469   17.2199 N   0  0  0  0  0  0  0  0  0  0  0  0
   11.8020  -18.1136   18.2859 C   0  0  1  0  0  0  0  0  0  0  0  0
   12.3895  -19.4928   18.4877 C   0  0  0  0  0  0  0  0  0  0  0  0
   11.5089  -20.2719   19.8691 S   0  0  0  0  0  0  0  0  0  0  0  0
   11.8906  -17.2892   19.5105 C   0  0  0  0  0  0  0  0  0  0  0  0
   13.0032  -16.8857   19.9203 O   0  0  0  0  0  0  0  0  0  0  0  0
   10.7207  -16.9586   20.2154 N   0  0  0  0  0  0  0  0  0  0  0  0
   10.8005  -16.1665   21.4066 C   0  0  1  0  0  0  0  0  0  0  0  0
    9.5164  -15.3376   21.5465 C   0  0  0  0  0  0  0  0  0  0  0  0
    9.2133  -14.8042   20.1539 C   0  0  0  0  0  0  0  0  0  0  0  0
    7.9068  -14.0640   20.1113 C   0  0  0  0  0  0  0  0  0  0  0  0
    7.7271  -13.5388   18.7028 C   0  0  0  0  0  0  0  0  0  0  0  0
    6.4672  -12.8470   18.5331 N   0  0  0  0  0  0  0  0  0  0  0  0
   10.8496  -17.0794   22.5785 C   0  0  0  0  0  0  0  0  0  0  0  0
   10.0593  -18.0652   22.5978 O   0  0  0  0  0  0  0  0  0  0  0  0
   11.7449  -16.8790   23.6604 N   0  0  0  0  0  0  0  0  0  0  0  0
   11.7090  -17.8337   24.7556 C   0  0  1  0  0  0  0  0  0  0  0  0
   13.1024  -18.1079   25.2728 C   0  0  0  0  0  0  0  0  0  0  0  0
   14.0148  -18.5684   24.2046 C   0  0  0  0  0  0  0  0  0  0  0  0
   15.3986  -18.9288   24.6873 C   0  0  0  0  0  0  0  0  0  0  0  0
   16.2890  -19.3745   23.5374 C   0  0  0  0  0  0  0  0  0  0  0  0
   16.9836  -18.2417   22.9528 N   0  0  0  0  0  0  0  0  0  0  0  0
   10.8105  -17.2532   25.7732 C   0  0  0  0  0  0  0  0  0  0  0  0
   10.3355  -16.1234   25.6046 O   0  0  0  0  0  0  0  0  0  0  0  0
   10.4707  -17.9331   26.9303 O   0  0  0  0  0  0  0  0  0  0  0  0
  2  3  1  0
  2  1  1  6
  4  3  1  0
  5  2  1  0
  6  5  2  0
  7  5  1  0
  8  7  1  0
  8  9  1  1
 10  9  1  0
 11 10  1  0
 12 11  1  0
 13 12  1  0
 14  8  1  0
 14 15  2  0
 16 14  1  0
 17 16  1  0
 17 18  1  1
 19 20  1  0
 19 18  1  0
 20 21  1  0
 21 22  1  0
 23 17  1  0
 24 23  2  0
 25 23  1  0
M  END
$$$$
