CKK.pdb
     RDKit          3D

 25 24  0  0  1  0  0  0  0  0999 V2000
    6.9564  -13.6769   18.3599 N   0  0  0  0  0  0  0  0  0  0  0  0
    8.3594  -13.8489   18.6200 C   0  0  1  0  0  0  0  0  0  0  0  0
    8.9546  -12.5326   19.0686 C   0  0  0  0  0  0  0  0  0  0  0  0
    8.0705  -12.0070   20.5630 S   0  0  0  0  0  0  0  0  0  0  0  0
    8.5361  -14.9109   19.6338 C   0  0  0  0  0  0  0  0  0  0  0  0
    7.5625  -15.2944   20.3221 O   0  0  0  0  0  0  0  0  0  0  0  0
    9.8020  -15.4907   19.8240 N   0  0  0  0  0  0  0  0  0  0  0  0
    9.9435  -16.6475   20.6574 C   0  0  1  0  0  0  0  0  0  0  0  0
   10.7909  -17.6957   19.9232 C   0  0  0  0  0  0  0  0  0  0  0  0
   10.8258  -18.9134   20.8351 C   0  0  0  0  0  0  0  0  0  0  0  0
   11.6165  -20.0398   20.2328 C   0  0  0  0  0  0  0  0  0  0  0  0
   11.5365  -21.2128   21.1866 C   0  0  0  0  0  0  0  0  0  0  0  0
   12.2982  -22.3513   20.7193 N   0  0  0  0  0  0  0  0  0  0  0  0
   10.7021  -16.2620   21.8759 C   0  0  0  0  0  0  0  0  0  0  0  0
   11.7138  -15.5179   21.7360 O   0  0  0  0  0  0  0  0  0  0  0  0
   10.3289  -16.6989   23.1729 N   0  0  0  0  0  0  0  0  0  0  0  0
   11.0840  -16.1869   24.3040 C   0  0  1  0  0  0  0  0  0  0  0  0
   10.2965  -16.3360   25.5854 C   0  0  0  0  0  0  0  0  0  0  0  0
   11.0601  -15.8817   26.7670 C   0  0  0  0  0  0  0  0  0  0  0  0
   10.2985  -15.9730   28.0668 C   0  0  0  0  0  0  0  0  0  0  0  0
   11.1315  -15.4678   29.2349 C   0  0  0  0  0  0  0  0  0  0  0  0
   10.3958  -15.5807   30.4813 N   0  0  0  0  0  0  0  0  0  0  0  0
   12.3604  -16.9289   24.3116 C   0  0  0  0  0  0  0  0  0  0  0  0
   12.3721  -18.1393   24.0558 O   0  0  0  0  0  0  0  0  0  0  0  0
   13.5679  -16.3154   24.5983 O   0  0  0  0  0  0  0  0  0  0  0  0
  2  3  1  0
  2  1  1  1
  4  3  1  0
  5  2  1  0
  6  5  2  0
  7  5  1  0
  8  7  1  0
  8  9  1  6
 10  9  1  0
 11 10  1  0
 12 11  1  0
 13 12  1  0
 14  8  1  0
 14 15  2  0
 16 14  1  0
 17 16  1  0
 17 18  1  1
 19 20  1  0
 19 18  1  0
 20 21  1  0
 21 22  1  0
 23 17  1  0
 24 23  2  0
 25 23  1  0
M  END
$$$$
