CKK.pdb
     RDKit          3D

 25 24  0  0  1  0  0  0  0  0999 V2000
    4.7183  -12.7572   26.3414 N   0  0  0  0  0  0  0  0  0  0  0  0
    6.0298  -12.4275   25.8547 C   0  0  1  0  0  0  0  0  0  0  0  0
    6.9490  -12.1563   27.0249 C   0  0  0  0  0  0  0  0  0  0  0  0
    8.6259  -11.9318   26.3702 S   0  0  0  0  0  0  0  0  0  0  0  0
    6.5232  -13.5350   25.0079 C   0  0  0  0  0  0  0  0  0  0  0  0
    6.3647  -14.7239   25.3685 O   0  0  0  0  0  0  0  0  0  0  0  0
    7.1720  -13.2500   23.7944 N   0  0  0  0  0  0  0  0  0  0  0  0
    7.6328  -14.3189   22.9589 C   0  0  1  0  0  0  0  0  0  0  0  0
    7.9361  -13.7681   21.5588 C   0  0  0  0  0  0  0  0  0  0  0  0
    8.4550  -14.9492   20.7518 C   0  0  0  0  0  0  0  0  0  0  0  0
    7.3417  -15.8551   20.3083 C   0  0  0  0  0  0  0  0  0  0  0  0
    7.9575  -16.9582   19.4741 C   0  0  0  0  0  0  0  0  0  0  0  0
    6.9644  -17.8821   18.9692 N   0  0  0  0  0  0  0  0  0  0  0  0
    8.9183  -14.8259   23.5063 C   0  0  0  0  0  0  0  0  0  0  0  0
    9.7965  -13.9812   23.8408 O   0  0  0  0  0  0  0  0  0  0  0  0
    9.1841  -16.2106   23.6618 N   0  0  0  0  0  0  0  0  0  0  0  0
   10.3827  -16.5931   24.3892 C   0  0  1  0  0  0  0  0  0  0  0  0
   10.1037  -17.7641   25.3031 C   0  0  0  0  0  0  0  0  0  0  0  0
   11.3259  -18.2502   25.9781 C   0  0  0  0  0  0  0  0  0  0  0  0
   11.1272  -19.5123   26.7814 C   0  0  0  0  0  0  0  0  0  0  0  0
   12.4101  -19.9314   27.4831 C   0  0  0  0  0  0  0  0  0  0  0  0
   12.2343  -21.1996   28.1672 N   0  0  0  0  0  0  0  0  0  0  0  0
   11.4067  -16.8808   23.3652 C   0  0  0  0  0  0  0  0  0  0  0  0
   11.0724  -17.3669   22.2777 O   0  0  0  0  0  0  0  0  0  0  0  0
   12.7509  -16.6244   23.5747 O   0  0  0  0  0  0  0  0  0  0  0  0
  2  3  1  0
  2  1  1  1
  4  3  1  0
  5  2  1  0
  6  5  2  0
  7  5  1  0
  8  7  1  0
  8  9  1  6
 10  9  1  0
 11 10  1  0
 12 11  1  0
 13 12  1  0
 14  8  1  0
 14 15  2  0
 16 14  1  0
 17 16  1  0
 17 18  1  6
 19 20  1  0
 19 18  1  0
 20 21  1  0
 21 22  1  0
 23 17  1  0
 24 23  2  0
 25 23  1  0
M  END
$$$$
