CKK.pdb
     RDKit          3D

 25 24  0  0  1  0  0  0  0  0999 V2000
    4.9976  -13.4564   26.5556 N   0  0  0  0  0  0  0  0  0  0  0  0
    6.1317  -12.8401   25.9234 C   0  0  1  0  0  0  0  0  0  0  0  0
    7.1327  -12.4233   26.9780 C   0  0  0  0  0  0  0  0  0  0  0  0
    6.4559  -10.9791   27.8425 S   0  0  0  0  0  0  0  0  0  0  0  0
    6.7154  -13.7872   24.9491 C   0  0  0  0  0  0  0  0  0  0  0  0
    6.5639  -15.0213   25.1003 O   0  0  0  0  0  0  0  0  0  0  0  0
    7.4425  -13.2987   23.8503 N   0  0  0  0  0  0  0  0  0  0  0  0
    7.8402  -14.1886   22.8002 C   0  0  1  0  0  0  0  0  0  0  0  0
    8.0597  -13.3817   21.5132 C   0  0  0  0  0  0  0  0  0  0  0  0
    8.4012  -14.4019   20.4371 C   0  0  0  0  0  0  0  0  0  0  0  0
    8.6709  -13.7474   19.1122 C   0  0  0  0  0  0  0  0  0  0  0  0
    8.8391  -14.8482   18.0866 C   0  0  0  0  0  0  0  0  0  0  0  0
    9.0006  -14.3275   16.7459 N   0  0  0  0  0  0  0  0  0  0  0  0
    9.1530  -14.7861   23.1590 C   0  0  0  0  0  0  0  0  0  0  0  0
   10.0330  -14.0306   23.6604 O   0  0  0  0  0  0  0  0  0  0  0  0
    9.4425  -16.1601   22.9579 N   0  0  0  0  0  0  0  0  0  0  0  0
   10.7152  -16.6633   23.4469 C   0  0  1  0  0  0  0  0  0  0  0  0
   10.5204  -17.9403   24.2316 C   0  0  0  0  0  0  0  0  0  0  0  0
   10.7678  -17.7516   25.6768 C   0  0  0  0  0  0  0  0  0  0  0  0
   10.6662  -19.0183   26.4912 C   0  0  0  0  0  0  0  0  0  0  0  0
   11.1015  -18.7893   27.9305 C   0  0  0  0  0  0  0  0  0  0  0  0
   11.0451  -20.0249   28.6903 N   0  0  0  0  0  0  0  0  0  0  0  0
   11.5713  -16.8327   22.2560 C   0  0  0  0  0  0  0  0  0  0  0  0
   11.1265  -17.4031   21.2523 O   0  0  0  0  0  0  0  0  0  0  0  0
   12.8759  -16.3713   22.2145 O   0  0  0  0  0  0  0  0  0  0  0  0
  2  3  1  0
  2  1  1  1
  4  3  1  0
  5  2  1  0
  6  5  2  0
  7  5  1  0
  8  7  1  0
  8  9  1  6
 10  9  1  0
 11 10  1  0
 12 11  1  0
 13 12  1  0
 14  8  1  0
 14 15  2  0
 16 14  1  0
 17 16  1  0
 17 18  1  6
 19 20  1  0
 19 18  1  0
 20 21  1  0
 21 22  1  0
 23 17  1  0
 24 23  2  0
 25 23  1  0
M  END
$$$$
