CKK.pdb
     RDKit          3D

 25 24  0  0  1  0  0  0  0  0999 V2000
    6.8376  -13.0564   18.7233 N   0  0  0  0  0  0  0  0  0  0  0  0
    7.7638  -14.1154   19.0174 C   0  0  1  0  0  0  0  0  0  0  0  0
    9.1645  -13.5512   19.1045 C   0  0  0  0  0  0  0  0  0  0  0  0
    9.1381  -12.1883   20.3015 S   0  0  0  0  0  0  0  0  0  0  0  0
    7.3549  -14.7794   20.2740 C   0  0  0  0  0  0  0  0  0  0  0  0
    6.5307  -14.2285   21.0395 O   0  0  0  0  0  0  0  0  0  0  0  0
    7.8945  -16.0330   20.6085 N   0  0  0  0  0  0  0  0  0  0  0  0
    7.5041  -16.6805   21.8256 C   0  0  1  0  0  0  0  0  0  0  0  0
    7.4771  -18.1986   21.6014 C   0  0  0  0  0  0  0  0  0  0  0  0
    6.4298  -18.7413   22.5628 C   0  0  0  0  0  0  0  0  0  0  0  0
    6.2106  -20.2157   22.3760 C   0  0  0  0  0  0  0  0  0  0  0  0
    5.0639  -20.6230   23.2767 C   0  0  0  0  0  0  0  0  0  0  0  0
    4.6946  -22.0110   23.0990 N   0  0  0  0  0  0  0  0  0  0  0  0
    8.5442  -16.4190   22.8545 C   0  0  0  0  0  0  0  0  0  0  0  0
    9.7449  -16.3175   22.4739 O   0  0  0  0  0  0  0  0  0  0  0  0
    8.2328  -16.2821   24.2317 N   0  0  0  0  0  0  0  0  0  0  0  0
    9.3109  -15.9243   25.1381 C   0  0  1  0  0  0  0  0  0  0  0  0
    8.7660  -15.2689   26.3862 C   0  0  0  0  0  0  0  0  0  0  0  0
    9.8201  -15.0189   27.3922 C   0  0  0  0  0  0  0  0  0  0  0  0
    9.3275  -14.3406   28.6472 C   0  0  0  0  0  0  0  0  0  0  0  0
   10.4528  -14.1483   29.6525 C   0  0  0  0  0  0  0  0  0  0  0  0
    9.9558  -13.5432   30.8749 N   0  0  0  0  0  0  0  0  0  0  0  0
   10.0487  -17.1744   25.4077 C   0  0  0  0  0  0  0  0  0  0  0  0
   11.2712  -17.1414   25.5950 O   0  0  0  0  0  0  0  0  0  0  0  0
    9.4178  -18.4056   25.4609 O   0  0  0  0  0  0  0  0  0  0  0  0
  2  3  1  0
  2  1  1  1
  4  3  1  0
  5  2  1  0
  6  5  2  0
  7  5  1  0
  8  7  1  0
  8  9  1  6
 10  9  1  0
 11 10  1  0
 12 11  1  0
 13 12  1  0
 14  8  1  0
 14 15  2  0
 16 14  1  0
 17 16  1  0
 17 18  1  1
 19 20  1  0
 19 18  1  0
 20 21  1  0
 21 22  1  0
 23 17  1  0
 24 23  2  0
 25 23  1  0
M  END
$$$$
