CKK.pdb
     RDKit          3D

 25 24  0  0  1  0  0  0  0  0999 V2000
    5.4815  -19.6722   22.7908 N   0  0  0  0  0  0  0  0  0  0  0  0
    5.7660  -18.4629   23.5135 C   0  0  1  0  0  0  0  0  0  0  0  0
    6.3457  -18.8083   24.8672 C   0  0  0  0  0  0  0  0  0  0  0  0
    6.5770  -17.2585   25.7813 S   0  0  0  0  0  0  0  0  0  0  0  0
    6.6872  -17.6274   22.7133 C   0  0  0  0  0  0  0  0  0  0  0  0
    7.6709  -18.1466   22.1376 O   0  0  0  0  0  0  0  0  0  0  0  0
    6.4561  -16.2459   22.5998 N   0  0  0  0  0  0  0  0  0  0  0  0
    7.4046  -15.4131   21.9217 C   0  0  1  0  0  0  0  0  0  0  0  0
    6.8196  -14.0019   21.7739 C   0  0  0  0  0  0  0  0  0  0  0  0
    7.8249  -13.2215   20.9396 C   0  0  0  0  0  0  0  0  0  0  0  0
    7.8446  -13.6850   19.5108 C   0  0  0  0  0  0  0  0  0  0  0  0
    8.7848  -12.7745   18.7499 C   0  0  0  0  0  0  0  0  0  0  0  0
    8.8977  -13.1459   17.3557 N   0  0  0  0  0  0  0  0  0  0  0  0
    8.6160  -15.2865   22.7735 C   0  0  0  0  0  0  0  0  0  0  0  0
    8.4729  -14.8456   23.9491 O   0  0  0  0  0  0  0  0  0  0  0  0
    9.9096  -15.6410   22.3118 N   0  0  0  0  0  0  0  0  0  0  0  0
   10.9711  -15.7626   23.2969 C   0  0  1  0  0  0  0  0  0  0  0  0
   10.7618  -16.9844   24.1616 C   0  0  0  0  0  0  0  0  0  0  0  0
   11.8863  -17.2080   25.0949 C   0  0  0  0  0  0  0  0  0  0  0  0
   11.7146  -18.4095   25.9921 C   0  0  0  0  0  0  0  0  0  0  0  0
   12.8517  -18.5194   26.9964 C   0  0  0  0  0  0  0  0  0  0  0  0
   12.7321  -19.7347   27.7814 N   0  0  0  0  0  0  0  0  0  0  0  0
   12.2342  -15.7952   22.5332 C   0  0  0  0  0  0  0  0  0  0  0  0
   13.3166  -15.8258   23.1317 O   0  0  0  0  0  0  0  0  0  0  0  0
   12.2588  -15.7931   21.1490 O   0  0  0  0  0  0  0  0  0  0  0  0
  2  3  1  0
  2  1  1  6
  4  3  1  0
  5  2  1  0
  6  5  2  0
  7  5  1  0
  8  7  1  0
  8  9  1  1
 10  9  1  0
 11 10  1  0
 12 11  1  0
 13 12  1  0
 14  8  1  0
 14 15  2  0
 16 14  1  0
 17 16  1  0
 17 18  1  6
 19 20  1  0
 19 18  1  0
 20 21  1  0
 21 22  1  0
 23 17  1  0
 24 23  2  0
 25 23  1  0
M  END
$$$$
