CKK.pdb
     RDKit          3D

 25 24  0  0  1  0  0  0  0  0999 V2000
    5.5380  -19.7447   22.4525 N   0  0  0  0  0  0  0  0  0  0  0  0
    5.5521  -18.3222   22.6580 C   0  0  1  0  0  0  0  0  0  0  0  0
    5.3280  -18.0218   24.1235 C   0  0  0  0  0  0  0  0  0  0  0  0
    6.6023  -18.9009   25.0691 S   0  0  0  0  0  0  0  0  0  0  0  0
    6.8374  -17.7765   22.1709 C   0  0  0  0  0  0  0  0  0  0  0  0
    7.7997  -18.5430   21.9359 O   0  0  0  0  0  0  0  0  0  0  0  0
    6.9773  -16.3926   21.9716 N   0  0  0  0  0  0  0  0  0  0  0  0
    8.2275  -15.8550   21.5235 C   0  0  1  0  0  0  0  0  0  0  0  0
    7.9970  -14.4444   20.9641 C   0  0  0  0  0  0  0  0  0  0  0  0
    8.3889  -14.5116   19.4953 C   0  0  0  0  0  0  0  0  0  0  0  0
    7.7695  -13.3975   18.7004 C   0  0  0  0  0  0  0  0  0  0  0  0
    8.1395  -13.6142   17.2484 C   0  0  0  0  0  0  0  0  0  0  0  0
    7.6190  -12.5721   16.3895 N   0  0  0  0  0  0  0  0  0  0  0  0
    9.1264  -15.7072   22.6979 C   0  0  0  0  0  0  0  0  0  0  0  0
    8.6099  -15.3846   23.8051 O   0  0  0  0  0  0  0  0  0  0  0  0
   10.5271  -15.9150   22.6133 N   0  0  0  0  0  0  0  0  0  0  0  0
   11.2519  -16.1598   23.8489 C   0  0  1  0  0  0  0  0  0  0  0  0
   10.9374  -17.5352   24.3908 C   0  0  0  0  0  0  0  0  0  0  0  0
   11.7570  -17.8705   25.5746 C   0  0  0  0  0  0  0  0  0  0  0  0
   11.5573  -19.2765   26.0857 C   0  0  0  0  0  0  0  0  0  0  0  0
   12.4923  -19.5835   27.2455 C   0  0  0  0  0  0  0  0  0  0  0  0
   12.2433  -20.9132   27.7720 N   0  0  0  0  0  0  0  0  0  0  0  0
   12.6804  -15.9695   23.5281 C   0  0  0  0  0  0  0  0  0  0  0  0
   13.4763  -15.6519   24.4205 O   0  0  0  0  0  0  0  0  0  0  0  0
   13.1763  -16.1348   22.2461 O   0  0  0  0  0  0  0  0  0  0  0  0
  2  3  1  0
  2  1  1  1
  4  3  1  0
  5  2  1  0
  6  5  2  0
  7  5  1  0
  8  7  1  0
  8  9  1  1
 10  9  1  0
 11 10  1  0
 12 11  1  0
 13 12  1  0
 14  8  1  0
 14 15  2  0
 16 14  1  0
 17 16  1  0
 17 18  1  6
 19 20  1  0
 19 18  1  0
 20 21  1  0
 21 22  1  0
 23 17  1  0
 24 23  2  0
 25 23  1  0
M  END
$$$$
