CKK.pdb
     RDKit          3D

 25 24  0  0  1  0  0  0  0  0999 V2000
    7.3887  -17.6298   17.7004 N   0  0  0  0  0  0  0  0  0  0  0  0
    7.8684  -18.7698   18.4325 C   0  0  1  0  0  0  0  0  0  0  0  0
    9.3602  -18.6410   18.6464 C   0  0  0  0  0  0  0  0  0  0  0  0
   10.1770  -18.9795   17.0623 S   0  0  0  0  0  0  0  0  0  0  0  0
    7.1319  -18.8675   19.7112 C   0  0  0  0  0  0  0  0  0  0  0  0
    6.9629  -17.8496   20.4213 O   0  0  0  0  0  0  0  0  0  0  0  0
    6.6206  -20.1078   20.1292 N   0  0  0  0  0  0  0  0  0  0  0  0
    5.8552  -20.1981   21.3371 C   0  0  1  0  0  0  0  0  0  0  0  0
    4.9455  -21.4322   21.2650 C   0  0  0  0  0  0  0  0  0  0  0  0
    4.1646  -21.4486   22.5710 C   0  0  0  0  0  0  0  0  0  0  0  0
    3.1896  -22.5902   22.6245 C   0  0  0  0  0  0  0  0  0  0  0  0
    2.4595  -22.5035   23.9480 C   0  0  0  0  0  0  0  0  0  0  0  0
    1.4873  -23.5636   24.1074 N   0  0  0  0  0  0  0  0  0  0  0  0
    6.7884  -20.4210   22.4722 C   0  0  0  0  0  0  0  0  0  0  0  0
    7.6810  -21.3061   22.3432 O   0  0  0  0  0  0  0  0  0  0  0  0
    6.7074  -19.6796   23.6789 N   0  0  0  0  0  0  0  0  0  0  0  0
    7.6761  -19.9738   24.7215 C   0  0  1  0  0  0  0  0  0  0  0  0
    7.7249  -18.8563   25.7380 C   0  0  0  0  0  0  0  0  0  0  0  0
    8.6912  -19.1293   26.8230 C   0  0  0  0  0  0  0  0  0  0  0  0
    8.7115  -18.0822   27.9097 C   0  0  0  0  0  0  0  0  0  0  0  0
    9.7378  -18.4148   28.9820 C   0  0  0  0  0  0  0  0  0  0  0  0
    9.7960  -17.3665   29.9845 N   0  0  0  0  0  0  0  0  0  0  0  0
    7.2733  -21.2721   25.2977 C   0  0  0  0  0  0  0  0  0  0  0  0
    6.0777  -21.5087   25.5103 O   0  0  0  0  0  0  0  0  0  0  0  0
    8.1950  -22.2548   25.6161 O   0  0  0  0  0  0  0  0  0  0  0  0
  2  3  1  0
  2  1  1  1
  4  3  1  0
  5  2  1  0
  6  5  2  0
  7  5  1  0
  8  7  1  0
  8  9  1  6
 10  9  1  0
 11 10  1  0
 12 11  1  0
 13 12  1  0
 14  8  1  0
 14 15  2  0
 16 14  1  0
 17 16  1  0
 17 18  1  1
 19 20  1  0
 19 18  1  0
 20 21  1  0
 21 22  1  0
 23 17  1  0
 24 23  2  0
 25 23  1  0
M  END
$$$$
