CKK.pdb
     RDKit          3D

 25 24  0  0  1  0  0  0  0  0999 V2000
    6.1131  -20.2600   18.6769 N   0  0  0  0  0  0  0  0  0  0  0  0
    5.6769  -19.4156   19.7551 C   0  0  1  0  0  0  0  0  0  0  0  0
    5.3802  -20.2637   20.9720 C   0  0  0  0  0  0  0  0  0  0  0  0
    6.9482  -20.9711   21.5484 S   0  0  0  0  0  0  0  0  0  0  0  0
    6.7191  -18.4022   20.0269 C   0  0  0  0  0  0  0  0  0  0  0  0
    7.8818  -18.5596   19.5885 O   0  0  0  0  0  0  0  0  0  0  0  0
    6.4016  -17.2592   20.7801 N   0  0  0  0  0  0  0  0  0  0  0  0
    7.3529  -16.1950   20.9048 C   0  0  1  0  0  0  0  0  0  0  0  0
    6.6221  -14.9144   21.3307 C   0  0  0  0  0  0  0  0  0  0  0  0
    7.6405  -13.7916   21.1972 C   0  0  0  0  0  0  0  0  0  0  0  0
    8.0404  -13.5674   19.7666 C   0  0  0  0  0  0  0  0  0  0  0  0
    9.0460  -12.4358   19.7472 C   0  0  0  0  0  0  0  0  0  0  0  0
    9.4639  -12.0978   18.4034 N   0  0  0  0  0  0  0  0  0  0  0  0
    8.2981  -16.5323   22.0010 C   0  0  0  0  0  0  0  0  0  0  0  0
    7.8524  -17.1742   22.9940 O   0  0  0  0  0  0  0  0  0  0  0  0
    9.6665  -16.1600   21.9655 N   0  0  0  0  0  0  0  0  0  0  0  0
   10.5774  -16.8388   22.8719 C   0  0  1  0  0  0  0  0  0  0  0  0
   11.9815  -16.8476   22.3128 C   0  0  0  0  0  0  0  0  0  0  0  0
   12.9539  -17.4444   23.2530 C   0  0  0  0  0  0  0  0  0  0  0  0
   14.3801  -17.4281   22.7593 C   0  0  0  0  0  0  0  0  0  0  0  0
   15.3393  -17.9543   23.8160 C   0  0  0  0  0  0  0  0  0  0  0  0
   16.7006  -17.9776   23.3125 N   0  0  0  0  0  0  0  0  0  0  0  0
   10.4664  -16.1344   24.1647 C   0  0  0  0  0  0  0  0  0  0  0  0
   10.0391  -14.9739   24.2004 O   0  0  0  0  0  0  0  0  0  0  0  0
   10.8273  -16.7293   25.3615 O   0  0  0  0  0  0  0  0  0  0  0  0
  2  3  1  0
  2  1  1  6
  4  3  1  0
  5  2  1  0
  6  5  2  0
  7  5  1  0
  8  7  1  0
  8  9  1  1
 10  9  1  0
 11 10  1  0
 12 11  1  0
 13 12  1  0
 14  8  1  0
 14 15  2  0
 16 14  1  0
 17 16  1  0
 17 18  1  6
 19 20  1  0
 19 18  1  0
 20 21  1  0
 21 22  1  0
 23 17  1  0
 24 23  2  0
 25 23  1  0
M  END
$$$$
