CKK.pdb
     RDKit          3D

 25 24  0  0  1  0  0  0  0  0999 V2000
    7.0549  -20.1094   19.8589 N   0  0  0  0  0  0  0  0  0  0  0  0
    6.9846  -19.0514   20.8293 C   0  0  1  0  0  0  0  0  0  0  0  0
    6.8336  -19.6445   22.2125 C   0  0  0  0  0  0  0  0  0  0  0  0
    8.4930  -20.0457   22.8261 S   0  0  0  0  0  0  0  0  0  0  0  0
    8.1961  -18.2110   20.7161 C   0  0  0  0  0  0  0  0  0  0  0  0
    9.2450  -18.6800   20.2175 O   0  0  0  0  0  0  0  0  0  0  0  0
    8.1682  -16.8815   21.1704 N   0  0  0  0  0  0  0  0  0  0  0  0
    9.3050  -16.0319   20.9733 C   0  0  1  0  0  0  0  0  0  0  0  0
    8.8251  -14.5879   20.7730 C   0  0  0  0  0  0  0  0  0  0  0  0
    8.3127  -14.5159   19.3419 C   0  0  0  0  0  0  0  0  0  0  0  0
    7.8089  -13.1432   18.9973 C   0  0  0  0  0  0  0  0  0  0  0  0
    7.2859  -13.1936   17.5775 C   0  0  0  0  0  0  0  0  0  0  0  0
    6.7924  -11.9087   17.1299 N   0  0  0  0  0  0  0  0  0  0  0  0
   10.1231  -16.0420   22.2141 C   0  0  0  0  0  0  0  0  0  0  0  0
    9.5553  -16.3567   23.2982 O   0  0  0  0  0  0  0  0  0  0  0  0
   11.5031  -15.7134   22.2167 N   0  0  0  0  0  0  0  0  0  0  0  0
   12.3477  -16.3421   23.2183 C   0  0  1  0  0  0  0  0  0  0  0  0
   12.2513  -17.8479   23.1315 C   0  0  0  0  0  0  0  0  0  0  0  0
   13.1991  -18.5224   24.0438 C   0  0  0  0  0  0  0  0  0  0  0  0
   13.2281  -20.0249   23.9035 C   0  0  0  0  0  0  0  0  0  0  0  0
   14.2339  -20.6520   24.8568 C   0  0  0  0  0  0  0  0  0  0  0  0
   14.2852  -22.0919   24.6798 N   0  0  0  0  0  0  0  0  0  0  0  0
   13.7115  -15.8282   22.9824 C   0  0  0  0  0  0  0  0  0  0  0  0
   14.0060  -15.3411   21.8839 O   0  0  0  0  0  0  0  0  0  0  0  0
   14.6935  -15.8693   23.9574 O   0  0  0  0  0  0  0  0  0  0  0  0
  2  3  1  0
  2  1  1  6
  4  3  1  0
  5  2  1  0
  6  5  2  0
  7  5  1  0
  8  7  1  0
  8  9  1  1
 10  9  1  0
 11 10  1  0
 12 11  1  0
 13 12  1  0
 14  8  1  0
 14 15  2  0
 16 14  1  0
 17 16  1  0
 17 18  1  6
 19 20  1  0
 19 18  1  0
 20 21  1  0
 21 22  1  0
 23 17  1  0
 24 23  2  0
 25 23  1  0
M  END
$$$$
