CKK.pdb
     RDKit          3D

 25 24  0  0  1  0  0  0  0  0999 V2000
    5.9912  -17.6793   25.7136 N   0  0  0  0  0  0  0  0  0  0  0  0
    6.3016  -16.3098   25.4074 C   0  0  1  0  0  0  0  0  0  0  0  0
    6.8914  -15.6407   26.6291 C   0  0  0  0  0  0  0  0  0  0  0  0
    6.7820  -13.8466   26.3837 S   0  0  0  0  0  0  0  0  0  0  0  0
    7.2259  -16.2703   24.2537 C   0  0  0  0  0  0  0  0  0  0  0  0
    8.1180  -17.1407   24.1298 O   0  0  0  0  0  0  0  0  0  0  0  0
    7.1010  -15.2515   23.2939 N   0  0  0  0  0  0  0  0  0  0  0  0
    7.9195  -15.2694   22.1180 C   0  0  1  0  0  0  0  0  0  0  0  0
    7.4653  -14.1494   21.1720 C   0  0  0  0  0  0  0  0  0  0  0  0
    8.2316  -14.3655   19.8752 C   0  0  0  0  0  0  0  0  0  0  0  0
    7.7779  -13.4255   18.7949 C   0  0  0  0  0  0  0  0  0  0  0  0
    8.5186  -13.7970   17.5278 C   0  0  0  0  0  0  0  0  0  0  0  0
    8.2686  -12.8606   16.4529 N   0  0  0  0  0  0  0  0  0  0  0  0
    9.3181  -14.9557   22.5111 C   0  0  0  0  0  0  0  0  0  0  0  0
    9.5009  -14.2202   23.5221 O   0  0  0  0  0  0  0  0  0  0  0  0
   10.4377  -15.4509   21.7944 N   0  0  0  0  0  0  0  0  0  0  0  0
   11.6032  -15.8631   22.5584 C   0  0  1  0  0  0  0  0  0  0  0  0
   11.2374  -16.9394   23.5545 C   0  0  0  0  0  0  0  0  0  0  0  0
   12.4214  -17.4735   24.2606 C   0  0  0  0  0  0  0  0  0  0  0  0
   12.1244  -18.6435   25.1666 C   0  0  0  0  0  0  0  0  0  0  0  0
   13.3787  -19.1265   25.8786 C   0  0  0  0  0  0  0  0  0  0  0  0
   13.0473  -20.0909   26.9119 N   0  0  0  0  0  0  0  0  0  0  0  0
   12.6069  -16.2993   21.5674 C   0  0  0  0  0  0  0  0  0  0  0  0
   12.2413  -16.7199   20.4628 O   0  0  0  0  0  0  0  0  0  0  0  0
   13.9661  -16.2566   21.8272 O   0  0  0  0  0  0  0  0  0  0  0  0
  2  3  1  0
  2  1  1  1
  4  3  1  0
  5  2  1  0
  6  5  2  0
  7  5  1  0
  8  7  1  0
  8  9  1  6
 10  9  1  0
 11 10  1  0
 12 11  1  0
 13 12  1  0
 14  8  1  0
 14 15  2  0
 16 14  1  0
 17 16  1  0
 17 18  1  1
 19 20  1  0
 19 18  1  0
 20 21  1  0
 21 22  1  0
 23 17  1  0
 24 23  2  0
 25 23  1  0
M  END
$$$$
