CKK.pdb
     RDKit          3D

 25 24  0  0  1  0  0  0  0  0999 V2000
    2.8239  -19.7290   20.7979 N   0  0  0  0  0  0  0  0  0  0  0  0
    3.0981  -18.6450   21.7009 C   0  0  1  0  0  0  0  0  0  0  0  0
    2.6825  -19.0373   23.1014 C   0  0  0  0  0  0  0  0  0  0  0  0
    0.9194  -19.4619   23.0563 S   0  0  0  0  0  0  0  0  0  0  0  0
    4.5351  -18.3044   21.6244 C   0  0  0  0  0  0  0  0  0  0  0  0
    5.3879  -19.2036   21.4433 O   0  0  0  0  0  0  0  0  0  0  0  0
    4.9432  -16.9661   21.7558 N   0  0  0  0  0  0  0  0  0  0  0  0
    6.2950  -16.5957   21.4587 C   0  0  1  0  0  0  0  0  0  0  0  0
    6.3338  -15.1155   21.0548 C   0  0  0  0  0  0  0  0  0  0  0  0
    7.7397  -14.8659   20.5287 C   0  0  0  0  0  0  0  0  0  0  0  0
    7.8940  -13.4737   19.9858 C   0  0  0  0  0  0  0  0  0  0  0  0
    9.2642  -13.3830   19.3485 C   0  0  0  0  0  0  0  0  0  0  0  0
    9.5138  -12.0801   18.7699 N   0  0  0  0  0  0  0  0  0  0  0  0
    7.1029  -16.7213   22.6998 C   0  0  0  0  0  0  0  0  0  0  0  0
    6.6248  -16.2508   23.7707 O   0  0  0  0  0  0  0  0  0  0  0  0
    8.3769  -17.3451   22.7170 N   0  0  0  0  0  0  0  0  0  0  0  0
    9.0993  -17.3763   23.9776 C   0  0  1  0  0  0  0  0  0  0  0  0
    9.8085  -18.6990   24.1558 C   0  0  0  0  0  0  0  0  0  0  0  0
    9.8909  -19.1024   25.5757 C   0  0  0  0  0  0  0  0  0  0  0  0
   10.7541  -20.3153   25.8240 C   0  0  0  0  0  0  0  0  0  0  0  0
   10.7558  -20.7037   27.2946 C   0  0  0  0  0  0  0  0  0  0  0  0
   11.7189  -21.7597   27.5491 N   0  0  0  0  0  0  0  0  0  0  0  0
   10.0162  -16.2194   23.9507 C   0  0  0  0  0  0  0  0  0  0  0  0
   10.4216  -15.7782   22.8683 O   0  0  0  0  0  0  0  0  0  0  0  0
   10.4497  -15.5956   25.1081 O   0  0  0  0  0  0  0  0  0  0  0  0
  2  3  1  0
  2  1  1  6
  4  3  1  0
  5  2  1  0
  6  5  2  0
  7  5  1  0
  8  7  1  0
  8  9  1  1
 10  9  1  0
 11 10  1  0
 12 11  1  0
 13 12  1  0
 14  8  1  0
 14 15  2  0
 16 14  1  0
 17 16  1  0
 17 18  1  6
 19 20  1  0
 19 18  1  0
 20 21  1  0
 21 22  1  0
 23 17  1  0
 24 23  2  0
 25 23  1  0
M  END
$$$$
