HGN.pdb
     RDKit          3D

 23 23  0  0  1  0  0  0  0  0999 V2000
   25.3426  -12.1854  -17.2043 N   0  0  0  0  0  0  0  0  0  0  0  0
   23.9845  -12.5871  -16.9436 C   0  0  1  0  0  0  0  0  0  0  0  0
   23.9404  -13.2367  -15.5774 C   0  0  0  0  0  0  0  0  0  0  0  0
   24.7892  -14.4711  -15.6234 C   0  0  0  0  0  0  0  0  0  0  0  0
   25.5393  -14.9534  -16.6777 C   0  0  0  0  0  0  0  0  0  0  0  0
   26.1496  -16.0869  -16.2997 N   0  0  0  0  0  0  0  0  0  0  0  0
   25.8073  -16.3439  -15.0231 C   0  0  0  0  0  0  0  0  0  0  0  0
   24.9829  -15.3614  -14.6189 N   0  0  0  0  0  0  0  0  0  0  0  0
   23.0978  -11.4210  -17.0434 C   0  0  0  0  0  0  0  0  0  0  0  0
   21.8321  -11.5289  -16.8920 O   0  0  0  0  0  0  0  0  0  0  0  0
   23.5579  -10.1017  -17.3105 N   0  0  0  0  0  0  0  0  0  0  0  0
   22.6921   -8.9736  -17.4464 C   0  0  0  0  0  0  0  0  0  0  0  0
   22.0644   -8.5500  -16.1898 C   0  0  0  0  0  0  0  0  0  0  0  0
   22.0526   -9.3334  -15.2096 O   0  0  0  0  0  0  0  0  0  0  0  0
   23.1133   -5.0479  -13.1999 N   0  0  0  0  0  0  0  0  0  0  0  0
   22.4988   -4.9865  -14.4750 C   0  0  0  0  0  0  0  0  0  0  0  0
   23.1926   -4.6306  -15.4547 O   0  0  0  0  0  0  0  0  0  0  0  0
   21.0748   -5.3239  -14.7004 C   0  0  0  0  0  0  0  0  0  0  0  0
   20.8377   -6.8047  -14.8485 C   0  0  2  0  0  0  0  0  0  0  0  0
   21.4737   -7.2625  -16.0817 N   0  0  0  0  0  0  0  0  0  0  0  0
   19.3964   -7.1352  -14.8105 C   0  0  0  0  0  0  0  0  0  0  0  0
   18.7450   -7.0691  -13.7671 O   0  0  0  0  0  0  0  0  0  0  0  0
   18.7793   -7.5265  -15.9841 O   0  0  0  0  0  0  0  0  0  0  0  0
  2  1  1  1
  2  9  1  0
  2  3  1  0
  4  3  1  0
  5  4  2  0
  6  5  1  0
  7  6  1  0
  7  8  2  0
  8  4  1  0
  9 11  1  0
 10  9  2  0
 11 12  1  0
 12 13  1  0
 13 14  2  0
 13 20  1  0
 16 15  1  0
 17 16  2  0
 18 16  1  0
 19 21  1  0
 19 18  1  6
 20 19  1  0
 21 23  1  0
 22 21  2  0
M  END
$$$$
