HGN.pdb
     RDKit          3D

 23 23  0  0  1  0  0  0  0  0999 V2000
   26.1496  -21.3745  -12.0161 N   0  0  0  0  0  0  0  0  0  0  0  0
   26.7326  -20.1564  -12.5161 C   0  0  1  0  0  0  0  0  0  0  0  0
   28.1376  -20.4657  -12.9857 C   0  0  0  0  0  0  0  0  0  0  0  0
   28.9247  -20.9498  -11.8056 C   0  0  0  0  0  0  0  0  0  0  0  0
   28.4895  -21.1432  -10.5096 C   0  0  0  0  0  0  0  0  0  0  0  0
   29.5134  -21.5865   -9.7643 N   0  0  0  0  0  0  0  0  0  0  0  0
   30.5991  -21.6822  -10.5549 C   0  0  0  0  0  0  0  0  0  0  0  0
   30.2361  -21.2950  -11.7906 N   0  0  0  0  0  0  0  0  0  0  0  0
   25.8879  -19.6081  -13.5847 C   0  0  0  0  0  0  0  0  0  0  0  0
   26.2163  -18.5462  -14.2178 O   0  0  0  0  0  0  0  0  0  0  0  0
   24.6604  -20.1959  -13.9989 N   0  0  0  0  0  0  0  0  0  0  0  0
   23.9863  -19.8508  -15.2102 C   0  0  0  0  0  0  0  0  0  0  0  0
   22.7907  -20.6580  -15.4770 C   0  0  0  0  0  0  0  0  0  0  0  0
   22.0685  -20.3851  -16.4663 O   0  0  0  0  0  0  0  0  0  0  0  0
   24.0180  -24.8769  -14.4238 N   0  0  0  0  0  0  0  0  0  0  0  0
   22.7865  -24.6157  -15.0737 C   0  0  0  0  0  0  0  0  0  0  0  0
   22.6737  -24.9217  -16.2827 O   0  0  0  0  0  0  0  0  0  0  0  0
   21.6286  -23.9980  -14.3881 C   0  0  0  0  0  0  0  0  0  0  0  0
   21.3131  -22.6152  -14.8971 C   0  0  2  0  0  0  0  0  0  0  0  0
   22.4513  -21.7411  -14.6226 N   0  0  0  0  0  0  0  0  0  0  0  0
   20.0572  -22.0912  -14.3171 C   0  0  0  0  0  0  0  0  0  0  0  0
   18.9696  -22.6243  -14.5411 O   0  0  0  0  0  0  0  0  0  0  0  0
   20.1225  -20.9742  -13.5052 O   0  0  0  0  0  0  0  0  0  0  0  0
  2  1  1  6
  2  9  1  0
  2  3  1  0
  4  3  1  0
  5  4  2  0
  6  5  1  0
  7  6  1  0
  7  8  2  0
  8  4  1  0
  9 11  1  0
 10  9  2  0
 11 12  1  0
 12 13  1  0
 13 14  2  0
 13 20  1  0
 16 15  1  0
 17 16  2  0
 18 16  1  0
 19 21  1  0
 19 18  1  1
 20 19  1  0
 21 23  1  0
 22 21  2  0
M  END
$$$$
