HGN.pdb
     RDKit          3D

 23 23  0  0  1  0  0  0  0  0999 V2000
   18.5540  -11.0320  -18.0587 N   0  0  0  0  0  0  0  0  0  0  0  0
   18.1438  -11.2643  -16.6980 C   0  0  1  0  0  0  0  0  0  0  0  0
   19.3605  -11.6937  -15.9070 C   0  0  0  0  0  0  0  0  0  0  0  0
   19.8710  -12.9723  -16.4994 C   0  0  0  0  0  0  0  0  0  0  0  0
   19.4660  -14.2632  -16.2236 C   0  0  0  0  0  0  0  0  0  0  0  0
   20.1797  -15.1167  -16.9736 N   0  0  0  0  0  0  0  0  0  0  0  0
   21.0361  -14.4009  -17.7267 C   0  0  0  0  0  0  0  0  0  0  0  0
   20.8443  -13.1022  -17.4349 N   0  0  0  0  0  0  0  0  0  0  0  0
   17.5184  -10.0507  -16.1577 C   0  0  0  0  0  0  0  0  0  0  0  0
   17.1109   -9.9913  -14.9465 O   0  0  0  0  0  0  0  0  0  0  0  0
   17.3161   -8.8640  -16.9157 N   0  0  0  0  0  0  0  0  0  0  0  0
   16.6631   -7.7004  -16.4056 C   0  0  0  0  0  0  0  0  0  0  0  0
   17.5811   -6.6895  -15.8690 C   0  0  0  0  0  0  0  0  0  0  0  0
   17.1272   -5.5856  -15.4816 O   0  0  0  0  0  0  0  0  0  0  0  0
   23.1795   -5.8457  -13.9760 N   0  0  0  0  0  0  0  0  0  0  0  0
   21.8075   -5.7821  -13.6282 C   0  0  0  0  0  0  0  0  0  0  0  0
   21.4450   -4.9305  -12.7848 O   0  0  0  0  0  0  0  0  0  0  0  0
   20.7847   -6.6764  -14.2168 C   0  0  0  0  0  0  0  0  0  0  0  0
   19.9168   -5.9858  -15.2370 C   0  0  2  0  0  0  0  0  0  0  0  0
   18.9740   -6.9567  -15.7880 N   0  0  0  0  0  0  0  0  0  0  0  0
   20.7238   -5.3343  -16.2917 C   0  0  0  0  0  0  0  0  0  0  0  0
   20.9122   -5.8693  -17.3851 O   0  0  0  0  0  0  0  0  0  0  0  0
   21.2738   -4.0936  -16.0280 O   0  0  0  0  0  0  0  0  0  0  0  0
  2  1  1  6
  2  9  1  0
  2  3  1  0
  4  3  1  0
  5  4  2  0
  6  5  1  0
  7  6  1  0
  7  8  2  0
  8  4  1  0
  9 11  1  0
 10  9  2  0
 11 12  1  0
 12 13  1  0
 13 14  2  0
 13 20  1  0
 16 15  1  0
 17 16  2  0
 18 16  1  0
 19 21  1  0
 19 18  1  1
 20 19  1  0
 21 23  1  0
 22 21  2  0
M  END
$$$$
