HGN.pdb
     RDKit          3D

 23 23  0  0  1  0  0  0  0  0999 V2000
   15.6807  -11.8398  -14.0097 N   0  0  0  0  0  0  0  0  0  0  0  0
   14.4211  -12.5019  -14.2303 C   0  0  1  0  0  0  0  0  0  0  0  0
   14.5482  -13.9288  -13.7422 C   0  0  0  0  0  0  0  0  0  0  0  0
   15.5399  -14.6320  -14.6188 C   0  0  0  0  0  0  0  0  0  0  0  0
   16.3933  -14.0825  -15.5550 C   0  0  0  0  0  0  0  0  0  0  0  0
   17.1155  -15.0625  -16.1191 N   0  0  0  0  0  0  0  0  0  0  0  0
   16.7441  -16.2319  -15.5647 C   0  0  0  0  0  0  0  0  0  0  0  0
   15.7891  -15.9646  -14.6563 N   0  0  0  0  0  0  0  0  0  0  0  0
   13.3505  -11.7647  -13.5474 C   0  0  0  0  0  0  0  0  0  0  0  0
   12.1962  -12.2834  -13.3602 O   0  0  0  0  0  0  0  0  0  0  0  0
   13.5001  -10.4416  -13.0468 N   0  0  0  0  0  0  0  0  0  0  0  0
   12.4600   -9.7255  -12.3789 C   0  0  0  0  0  0  0  0  0  0  0  0
   12.8159   -8.3455  -12.0306 C   0  0  0  0  0  0  0  0  0  0  0  0
   12.0503   -7.6763  -11.2953 O   0  0  0  0  0  0  0  0  0  0  0  0
   17.0566   -6.6777   -9.6828 N   0  0  0  0  0  0  0  0  0  0  0  0
   16.2877   -7.8585   -9.5354 C   0  0  0  0  0  0  0  0  0  0  0  0
   16.4893   -8.5800   -8.5320 O   0  0  0  0  0  0  0  0  0  0  0  0
   15.2578   -8.2769  -10.5135 C   0  0  0  0  0  0  0  0  0  0  0  0
   15.0624   -7.2783  -11.6250 C   0  0  2  0  0  0  0  0  0  0  0  0
   14.0182   -7.7694  -12.5213 N   0  0  0  0  0  0  0  0  0  0  0  0
   16.3264   -7.0026  -12.3422 C   0  0  0  0  0  0  0  0  0  0  0  0
   17.1890   -6.2605  -11.8707 O   0  0  0  0  0  0  0  0  0  0  0  0
   16.5296   -7.6006  -13.5720 O   0  0  0  0  0  0  0  0  0  0  0  0
  2  1  1  1
  2  9  1  0
  2  3  1  0
  4  3  1  0
  5  4  2  0
  6  5  1  0
  7  6  1  0
  7  8  2  0
  8  4  1  0
  9 11  1  0
 10  9  2  0
 11 12  1  0
 12 13  1  0
 13 14  2  0
 13 20  1  0
 16 15  1  0
 17 16  2  0
 18 16  1  0
 19 21  1  0
 19 18  1  1
 20 19  1  0
 21 23  1  0
 22 21  2  0
M  END
$$$$
