HGN.pdb
     RDKit          3D

 23 23  0  0  1  0  0  0  0  0999 V2000
   20.4983  -13.2466  -17.4531 N   0  0  0  0  0  0  0  0  0  0  0  0
   20.2655  -13.2409  -18.8742 C   0  0  1  0  0  0  0  0  0  0  0  0
   18.9723  -13.9800  -19.1417 C   0  0  0  0  0  0  0  0  0  0  0  0
   19.1721  -15.4162  -18.7623 C   0  0  0  0  0  0  0  0  0  0  0  0
   19.2572  -16.5155  -19.5934 C   0  0  0  0  0  0  0  0  0  0  0  0
   19.4382  -17.6163  -18.8480 N   0  0  0  0  0  0  0  0  0  0  0  0
   19.4714  -17.2475  -17.5535 C   0  0  0  0  0  0  0  0  0  0  0  0
   19.3096  -15.9132  -17.5080 N   0  0  0  0  0  0  0  0  0  0  0  0
   20.2364  -11.8568  -19.3633 C   0  0  0  0  0  0  0  0  0  0  0  0
   20.0322  -11.5881  -20.5973 O   0  0  0  0  0  0  0  0  0  0  0  0
   20.4281  -10.7215  -18.5278 N   0  0  0  0  0  0  0  0  0  0  0  0
   20.4594   -9.3781  -19.0124 C   0  0  0  0  0  0  0  0  0  0  0  0
   20.5914   -8.3673  -17.9573 C   0  0  0  0  0  0  0  0  0  0  0  0
   20.7249   -7.1597  -18.2710 O   0  0  0  0  0  0  0  0  0  0  0  0
   21.4756   -6.3214  -13.1640 N   0  0  0  0  0  0  0  0  0  0  0  0
   20.8966   -7.6077  -13.0322 C   0  0  0  0  0  0  0  0  0  0  0  0
   20.6411   -8.0316  -11.8820 O   0  0  0  0  0  0  0  0  0  0  0  0
   20.5807   -8.4720  -14.1923 C   0  0  0  0  0  0  0  0  0  0  0  0
   20.8467   -7.8010  -15.5151 C   0  0  2  0  0  0  0  0  0  0  0  0
   20.5685   -8.7512  -16.5896 N   0  0  0  0  0  0  0  0  0  0  0  0
   22.2231   -7.2643  -15.5901 C   0  0  0  0  0  0  0  0  0  0  0  0
   23.1786   -7.9758  -15.9030 O   0  0  0  0  0  0  0  0  0  0  0  0
   22.4256   -5.9281  -15.2986 O   0  0  0  0  0  0  0  0  0  0  0  0
  2  1  1  1
  2  9  1  0
  2  3  1  0
  4  3  1  0
  5  4  2  0
  6  5  1  0
  7  6  1  0
  7  8  2  0
  8  4  1  0
  9 11  1  0
 10  9  2  0
 11 12  1  0
 12 13  1  0
 13 14  2  0
 13 20  1  0
 16 15  1  0
 17 16  2  0
 18 16  1  0
 19 21  1  0
 19 18  1  1
 20 19  1  0
 21 23  1  0
 22 21  2  0
M  END
$$$$
