HGN.pdb
     RDKit          3D

 23 23  0  0  1  0  0  0  0  0999 V2000
   27.6464  -22.7668  -17.7681 N   0  0  0  0  0  0  0  0  0  0  0  0
   28.4117  -22.4167  -16.5995 C   0  0  1  0  0  0  0  0  0  0  0  0
   29.7375  -21.8494  -17.0582 C   0  0  0  0  0  0  0  0  0  0  0  0
   30.6119  -22.9933  -17.4748 C   0  0  0  0  0  0  0  0  0  0  0  0
   30.8615  -24.1693  -16.7957 C   0  0  0  0  0  0  0  0  0  0  0  0
   31.7016  -24.9244  -17.5199 N   0  0  0  0  0  0  0  0  0  0  0  0
   31.9976  -24.2579  -18.6516 C   0  0  0  0  0  0  0  0  0  0  0  0
   31.3344  -23.0885  -18.6186 N   0  0  0  0  0  0  0  0  0  0  0  0
   27.6479  -21.4716  -15.7752 C   0  0  0  0  0  0  0  0  0  0  0  0
   28.1381  -20.9705  -14.7050 O   0  0  0  0  0  0  0  0  0  0  0  0
   26.3284  -21.0414  -16.0872 N   0  0  0  0  0  0  0  0  0  0  0  0
   25.5644  -20.1648  -15.2574 C   0  0  0  0  0  0  0  0  0  0  0  0
   24.5872  -20.8521  -14.4059 C   0  0  0  0  0  0  0  0  0  0  0  0
   23.9155  -21.8013  -14.8776 O   0  0  0  0  0  0  0  0  0  0  0  0
   26.0623  -20.4736   -9.5757 N   0  0  0  0  0  0  0  0  0  0  0  0
   25.1947  -21.2447  -10.3880 C   0  0  0  0  0  0  0  0  0  0  0  0
   25.6072  -22.3429  -10.8260 O   0  0  0  0  0  0  0  0  0  0  0  0
   23.8239  -20.8106  -10.7417 C   0  0  0  0  0  0  0  0  0  0  0  0
   23.4581  -21.1239  -12.1696 C   0  0  2  0  0  0  0  0  0  0  0  0
   24.4014  -20.4474  -13.0569 N   0  0  0  0  0  0  0  0  0  0  0  0
   22.0556  -20.7605  -12.4681 C   0  0  0  0  0  0  0  0  0  0  0  0
   21.1093  -21.3471  -11.9412 O   0  0  0  0  0  0  0  0  0  0  0  0
   21.8175  -19.7342  -13.3632 O   0  0  0  0  0  0  0  0  0  0  0  0
  2  1  1  6
  2  9  1  0
  2  3  1  0
  4  3  1  0
  5  4  2  0
  6  5  1  0
  7  6  1  0
  7  8  2  0
  8  4  1  0
  9 11  1  0
 10  9  2  0
 11 12  1  0
 12 13  1  0
 13 14  2  0
 13 20  1  0
 16 15  1  0
 17 16  2  0
 18 16  1  0
 19 21  1  0
 19 18  1  1
 20 19  1  0
 21 23  1  0
 22 21  2  0
M  END
$$$$
