HGN.pdb
     RDKit          3D

 23 23  0  0  1  0  0  0  0  0999 V2000
   26.7640  -21.4090   -7.5042 N   0  0  0  0  0  0  0  0  0  0  0  0
   26.7172  -20.0439   -7.9603 C   0  0  1  0  0  0  0  0  0  0  0  0
   28.1150  -19.4707   -7.8728 C   0  0  0  0  0  0  0  0  0  0  0  0
   28.5183  -19.4506   -6.4294 C   0  0  0  0  0  0  0  0  0  0  0  0
   29.3904  -20.2972   -5.7742 C   0  0  0  0  0  0  0  0  0  0  0  0
   29.4715  -19.9322   -4.4856 N   0  0  0  0  0  0  0  0  0  0  0  0
   28.6689  -18.8674   -4.2983 C   0  0  0  0  0  0  0  0  0  0  0  0
   28.0941  -18.5804   -5.4797 N   0  0  0  0  0  0  0  0  0  0  0  0
   26.1722  -19.9979   -9.3230 C   0  0  0  0  0  0  0  0  0  0  0  0
   26.0277  -18.8911   -9.9480 O   0  0  0  0  0  0  0  0  0  0  0  0
   25.7675  -21.1522  -10.0492 N   0  0  0  0  0  0  0  0  0  0  0  0
   25.2355  -21.1077  -11.3743 C   0  0  0  0  0  0  0  0  0  0  0  0
   23.7846  -20.8969  -11.4267 C   0  0  0  0  0  0  0  0  0  0  0  0
   23.1166  -20.9270  -10.3648 O   0  0  0  0  0  0  0  0  0  0  0  0
   19.4096  -17.7708  -12.2887 N   0  0  0  0  0  0  0  0  0  0  0  0
   20.0559  -18.5996  -13.2388 C   0  0  0  0  0  0  0  0  0  0  0  0
   19.3846  -19.0419  -14.1989 O   0  0  0  0  0  0  0  0  0  0  0  0
   21.4877  -18.9657  -13.1472 C   0  0  0  0  0  0  0  0  0  0  0  0
   21.7027  -20.4058  -12.7588 C   0  0  2  0  0  0  0  0  0  0  0  0
   23.1387  -20.6603  -12.6697 N   0  0  0  0  0  0  0  0  0  0  0  0
   21.0311  -21.3321  -13.6964 C   0  0  0  0  0  0  0  0  0  0  0  0
   21.5878  -21.7332  -14.7194 O   0  0  0  0  0  0  0  0  0  0  0  0
   19.7461  -21.7491  -13.4028 O   0  0  0  0  0  0  0  0  0  0  0  0
  2  1  1  6
  2  9  1  0
  2  3  1  0
  4  3  1  0
  5  4  2  0
  6  5  1  0
  7  6  1  0
  7  8  2  0
  8  4  1  0
  9 11  1  0
 10  9  2  0
 11 12  1  0
 12 13  1  0
 13 14  2  0
 13 20  1  0
 16 15  1  0
 17 16  2  0
 18 16  1  0
 19 21  1  0
 19 18  1  6
 20 19  1  0
 21 23  1  0
 22 21  2  0
M  END
$$$$
