HGN.pdb
     RDKit          3D

 23 23  0  0  1  0  0  0  0  0999 V2000
   23.8343  -18.5352  -18.4327 N   0  0  0  0  0  0  0  0  0  0  0  0
   25.0879  -18.3453  -17.7500 C   0  0  1  0  0  0  0  0  0  0  0  0
   25.5507  -16.9267  -18.0025 C   0  0  0  0  0  0  0  0  0  0  0  0
   25.8011  -16.7756  -19.4725 C   0  0  0  0  0  0  0  0  0  0  0  0
   26.6624  -17.5010  -20.2715 C   0  0  0  0  0  0  0  0  0  0  0  0
   26.5826  -17.0444  -21.5306 N   0  0  0  0  0  0  0  0  0  0  0  0
   25.6870  -16.0394  -21.5581 C   0  0  0  0  0  0  0  0  0  0  0  0
   25.2169  -15.8812  -20.3081 N   0  0  0  0  0  0  0  0  0  0  0  0
   24.9203  -18.6386  -16.3211 C   0  0  0  0  0  0  0  0  0  0  0  0
   25.9053  -18.5809  -15.5069 O   0  0  0  0  0  0  0  0  0  0  0  0
   23.6780  -19.0038  -15.7320 N   0  0  0  0  0  0  0  0  0  0  0  0
   23.5115  -19.2750  -14.3394 C   0  0  0  0  0  0  0  0  0  0  0  0
   22.1131  -19.4420  -13.9283 C   0  0  0  0  0  0  0  0  0  0  0  0
   21.8468  -19.6859  -12.7265 O   0  0  0  0  0  0  0  0  0  0  0  0
   16.8880  -20.0264  -14.1583 N   0  0  0  0  0  0  0  0  0  0  0  0
   17.3438  -18.8698  -14.8379 C   0  0  0  0  0  0  0  0  0  0  0  0
   16.4946  -18.0471  -15.2501 O   0  0  0  0  0  0  0  0  0  0  0  0
   18.7773  -18.5910  -15.0820 C   0  0  0  0  0  0  0  0  0  0  0  0
   19.6845  -19.6747  -14.5589 C   0  0  2  0  0  0  0  0  0  0  0  0
   21.0667  -19.3288  -14.8825 N   0  0  0  0  0  0  0  0  0  0  0  0
   19.3071  -21.0054  -15.0831 C   0  0  0  0  0  0  0  0  0  0  0  0
   19.8626  -21.4939  -16.0680 O   0  0  0  0  0  0  0  0  0  0  0  0
   18.3036  -21.7061  -14.4402 O   0  0  0  0  0  0  0  0  0  0  0  0
  2  1  1  6
  2  9  1  0
  2  3  1  0
  4  3  1  0
  5  4  2  0
  6  5  1  0
  7  6  1  0
  7  8  2  0
  8  4  1  0
  9 11  1  0
 10  9  2  0
 11 12  1  0
 12 13  1  0
 13 14  2  0
 13 20  1  0
 16 15  1  0
 17 16  2  0
 18 16  1  0
 19 21  1  0
 19 18  1  6
 20 19  1  0
 21 23  1  0
 22 21  2  0
M  END
$$$$
