HGN.pdb
     RDKit          3D

 23 23  0  0  1  0  0  0  0  0999 V2000
   23.0626  -20.9147  -14.2961 N   0  0  0  0  0  0  0  0  0  0  0  0
   22.1966  -19.7720  -14.4302 C   0  0  1  0  0  0  0  0  0  0  0  0
   21.8384  -19.6225  -15.8930 C   0  0  0  0  0  0  0  0  0  0  0  0
   23.1003  -19.3469  -16.6533 C   0  0  0  0  0  0  0  0  0  0  0  0
   23.8849  -20.2381  -17.3583 C   0  0  0  0  0  0  0  0  0  0  0  0
   24.9255  -19.5800  -17.8916 N   0  0  0  0  0  0  0  0  0  0  0  0
   24.8263  -18.2830  -17.5441 C   0  0  0  0  0  0  0  0  0  0  0  0
   23.7185  -18.1480  -16.7938 N   0  0  0  0  0  0  0  0  0  0  0  0
   21.0159  -19.9453  -13.5746 C   0  0  0  0  0  0  0  0  0  0  0  0
   20.0656  -19.0889  -13.5655 O   0  0  0  0  0  0  0  0  0  0  0  0
   20.8305  -21.0537  -12.7025 N   0  0  0  0  0  0  0  0  0  0  0  0
   19.6757  -21.2297  -11.8802 C   0  0  0  0  0  0  0  0  0  0  0  0
   19.7000  -22.4550  -11.0738 C   0  0  0  0  0  0  0  0  0  0  0  0
   20.4296  -23.4131  -11.4266 O   0  0  0  0  0  0  0  0  0  0  0  0
   18.8737  -25.8518   -7.1478 N   0  0  0  0  0  0  0  0  0  0  0  0
   18.2954  -24.6013   -6.8174 C   0  0  0  0  0  0  0  0  0  0  0  0
   17.7881  -24.4606   -5.6812 O   0  0  0  0  0  0  0  0  0  0  0  0
   18.2641  -23.4552   -7.7543 C   0  0  0  0  0  0  0  0  0  0  0  0
   18.8650  -23.7777   -9.0981 C   0  0  2  0  0  0  0  0  0  0  0  0
   18.9040  -22.5579   -9.9016 N   0  0  0  0  0  0  0  0  0  0  0  0
   18.1325  -24.8682   -9.7782 C   0  0  0  0  0  0  0  0  0  0  0  0
   17.0936  -24.6566  -10.4053 O   0  0  0  0  0  0  0  0  0  0  0  0
   18.6398  -26.1518   -9.6985 O   0  0  0  0  0  0  0  0  0  0  0  0
  2  1  1  6
  2  9  1  0
  2  3  1  0
  4  3  1  0
  5  4  2  0
  6  5  1  0
  7  6  1  0
  7  8  2  0
  8  4  1  0
  9 11  1  0
 10  9  2  0
 11 12  1  0
 12 13  1  0
 13 14  2  0
 13 20  1  0
 16 15  1  0
 17 16  2  0
 18 16  1  0
 19 21  1  0
 19 18  1  1
 20 19  1  0
 21 23  1  0
 22 21  2  0
M  END
$$$$
