HGN.pdb
     RDKit          3D

 23 23  0  0  1  0  0  0  0  0999 V2000
   18.8056   -9.5958  -13.8459 N   0  0  0  0  0  0  0  0  0  0  0  0
   18.7179   -8.1632  -13.9636 C   0  0  1  0  0  0  0  0  0  0  0  0
   17.6560   -7.8400  -14.9922 C   0  0  0  0  0  0  0  0  0  0  0  0
   18.1094   -8.3838  -16.3132 C   0  0  0  0  0  0  0  0  0  0  0  0
   19.3322   -8.2153  -16.9321 C   0  0  0  0  0  0  0  0  0  0  0  0
   19.3250   -8.8695  -18.1036 N   0  0  0  0  0  0  0  0  0  0  0  0
   18.1219   -9.4557  -18.2511 C   0  0  0  0  0  0  0  0  0  0  0  0
   17.3898   -9.1578  -17.1631 N   0  0  0  0  0  0  0  0  0  0  0  0
   18.4273   -7.5776  -12.6488 C   0  0  0  0  0  0  0  0  0  0  0  0
   18.3378   -6.3119  -12.4859 O   0  0  0  0  0  0  0  0  0  0  0  0
   18.2249   -8.3481  -11.4702 N   0  0  0  0  0  0  0  0  0  0  0  0
   17.9607   -7.7781  -10.1873 C   0  0  0  0  0  0  0  0  0  0  0  0
   16.5577   -7.4025   -9.9801 C   0  0  0  0  0  0  0  0  0  0  0  0
   15.7856   -7.3269  -10.9664 O   0  0  0  0  0  0  0  0  0  0  0  0
   11.9482   -6.5553   -7.6236 N   0  0  0  0  0  0  0  0  0  0  0  0
   12.8725   -7.1388   -6.7223 C   0  0  0  0  0  0  0  0  0  0  0  0
   12.4524   -7.5370   -5.6119 O   0  0  0  0  0  0  0  0  0  0  0  0
   14.3111   -7.2987   -7.0344 C   0  0  0  0  0  0  0  0  0  0  0  0
   14.6699   -6.8176   -8.4167 C   0  0  2  0  0  0  0  0  0  0  0  0
   16.0749   -7.1260   -8.6729 N   0  0  0  0  0  0  0  0  0  0  0  0
   14.3763   -5.3781   -8.5891 C   0  0  0  0  0  0  0  0  0  0  0  0
   15.1212   -4.5074   -8.1370 O   0  0  0  0  0  0  0  0  0  0  0  0
   13.2330   -5.0170   -9.2775 O   0  0  0  0  0  0  0  0  0  0  0  0
  2  1  1  1
  2  9  1  0
  2  3  1  0
  4  3  1  0
  5  4  2  0
  6  5  1  0
  7  6  1  0
  7  8  2  0
  8  4  1  0
  9 11  1  0
 10  9  2  0
 11 12  1  0
 12 13  1  0
 13 14  2  0
 13 20  1  0
 16 15  1  0
 17 16  2  0
 18 16  1  0
 19 21  1  0
 19 18  1  1
 20 19  1  0
 21 23  1  0
 22 21  2  0
M  END
$$$$
