HGN.pdb
     RDKit          3D

 23 23  0  0  1  0  0  0  0  0999 V2000
   23.1901  -11.9098  -19.5339 N   0  0  0  0  0  0  0  0  0  0  0  0
   22.4354  -11.1509  -20.4973 C   0  0  1  0  0  0  0  0  0  0  0  0
   21.1075  -11.8458  -20.7072 C   0  0  0  0  0  0  0  0  0  0  0  0
   21.3760  -13.1771  -21.3411 C   0  0  0  0  0  0  0  0  0  0  0  0
   21.4580  -13.4824  -22.6852 C   0  0  0  0  0  0  0  0  0  0  0  0
   21.7143  -14.7922  -22.8229 N   0  0  0  0  0  0  0  0  0  0  0  0
   21.7990  -15.3362  -21.5942 C   0  0  0  0  0  0  0  0  0  0  0  0
   21.5931  -14.3526  -20.7005 N   0  0  0  0  0  0  0  0  0  0  0  0
   22.2812   -9.7692  -20.0249 C   0  0  0  0  0  0  0  0  0  0  0  0
   21.6316   -8.8998  -20.7022 O   0  0  0  0  0  0  0  0  0  0  0  0
   22.8276   -9.2887  -18.8025 N   0  0  0  0  0  0  0  0  0  0  0  0
   22.7391   -7.9281  -18.3764 C   0  0  0  0  0  0  0  0  0  0  0  0
   21.8399   -7.7185  -17.2363 C   0  0  0  0  0  0  0  0  0  0  0  0
   20.7109   -8.2663  -17.2303 O   0  0  0  0  0  0  0  0  0  0  0  0
   19.6943   -6.7211  -12.6958 N   0  0  0  0  0  0  0  0  0  0  0  0
   20.7976   -7.6077  -12.7591 C   0  0  0  0  0  0  0  0  0  0  0  0
   21.0106   -8.3651  -11.7849 O   0  0  0  0  0  0  0  0  0  0  0  0
   21.7087   -7.6784  -13.9241 C   0  0  0  0  0  0  0  0  0  0  0  0
   21.3763   -6.6691  -14.9926 C   0  0  2  0  0  0  0  0  0  0  0  0
   22.2426   -6.9016  -16.1460 N   0  0  0  0  0  0  0  0  0  0  0  0
   21.4821   -5.2825  -14.4883 C   0  0  0  0  0  0  0  0  0  0  0  0
   22.3970   -4.5353  -14.8376 O   0  0  0  0  0  0  0  0  0  0  0  0
   20.5221   -4.8287  -13.6031 O   0  0  0  0  0  0  0  0  0  0  0  0
  2  1  1  1
  2  9  1  0
  2  3  1  0
  4  3  1  0
  5  4  2  0
  6  5  1  0
  7  6  1  0
  7  8  2  0
  8  4  1  0
  9 11  1  0
 10  9  2  0
 11 12  1  0
 12 13  1  0
 13 14  2  0
 13 20  1  0
 16 15  1  0
 17 16  2  0
 18 16  1  0
 19 21  1  0
 19 18  1  1
 20 19  1  0
 21 23  1  0
 22 21  2  0
M  END
$$$$
