HGN.pdb
     RDKit          3D

 23 23  0  0  1  0  0  0  0  0999 V2000
   19.0272  -13.2951  -17.1646 N   0  0  0  0  0  0  0  0  0  0  0  0
   17.8195  -12.8023  -16.5545 C   0  0  1  0  0  0  0  0  0  0  0  0
   17.7309  -13.3758  -15.1568 C   0  0  0  0  0  0  0  0  0  0  0  0
   17.5672  -14.8609  -15.2747 C   0  0  0  0  0  0  0  0  0  0  0  0
   16.3957  -15.5877  -15.3541 C   0  0  0  0  0  0  0  0  0  0  0  0
   16.6943  -16.8923  -15.4492 N   0  0  0  0  0  0  0  0  0  0  0  0
   18.0345  -17.0199  -15.4326 C   0  0  0  0  0  0  0  0  0  0  0  0
   18.5579  -15.7856  -15.3267 N   0  0  0  0  0  0  0  0  0  0  0  0
   17.8268  -11.3340  -16.5630 C   0  0  0  0  0  0  0  0  0  0  0  0
   16.8427  -10.6581  -16.1033 O   0  0  0  0  0  0  0  0  0  0  0  0
   18.9027  -10.5541  -17.0708 N   0  0  0  0  0  0  0  0  0  0  0  0
   18.9154   -9.1257  -17.0681 C   0  0  0  0  0  0  0  0  0  0  0  0
   19.9710   -8.5411  -16.2336 C   0  0  0  0  0  0  0  0  0  0  0  0
   20.7614   -9.2963  -15.6173 O   0  0  0  0  0  0  0  0  0  0  0  0
   23.2577   -5.0109  -14.1275 N   0  0  0  0  0  0  0  0  0  0  0  0
   22.4004   -4.3699  -15.0556 C   0  0  0  0  0  0  0  0  0  0  0  0
   22.6122   -3.1668  -15.3306 O   0  0  0  0  0  0  0  0  0  0  0  0
   21.2666   -5.0582  -15.7138 C   0  0  0  0  0  0  0  0  0  0  0  0
   21.1554   -6.5103  -15.3265 C   0  0  2  0  0  0  0  0  0  0  0  0
   20.0990   -7.1306  -16.1227 N   0  0  0  0  0  0  0  0  0  0  0  0
   20.9259   -6.6739  -13.8744 C   0  0  0  0  0  0  0  0  0  0  0  0
   19.7946   -6.6287  -13.3892 O   0  0  0  0  0  0  0  0  0  0  0  0
   22.0192   -6.8821  -13.0542 O   0  0  0  0  0  0  0  0  0  0  0  0
  2  1  1  1
  2  9  1  0
  2  3  1  0
  4  3  1  0
  5  4  2  0
  6  5  1  0
  7  6  1  0
  7  8  2  0
  8  4  1  0
  9 11  1  0
 10  9  2  0
 11 12  1  0
 12 13  1  0
 13 14  2  0
 13 20  1  0
 16 15  1  0
 17 16  2  0
 18 16  1  0
 19 21  1  0
 19 18  1  1
 20 19  1  0
 21 23  1  0
 22 21  2  0
M  END
$$$$
