HGN.pdb
     RDKit          3D

 23 23  0  0  1  0  0  0  0  0999 V2000
   19.4548  -13.3692  -18.4838 N   0  0  0  0  0  0  0  0  0  0  0  0
   20.8115  -13.6684  -18.1049 C   0  0  1  0  0  0  0  0  0  0  0  0
   21.4176  -14.5444  -19.1798 C   0  0  0  0  0  0  0  0  0  0  0  0
   20.6513  -15.8320  -19.2153 C   0  0  0  0  0  0  0  0  0  0  0  0
   20.4721  -16.7479  -18.1976 C   0  0  0  0  0  0  0  0  0  0  0  0
   19.7192  -17.7630  -18.6483 N   0  0  0  0  0  0  0  0  0  0  0  0
   19.4102  -17.5188  -19.9358 C   0  0  0  0  0  0  0  0  0  0  0  0
   19.9779  -16.3474  -20.2737 N   0  0  0  0  0  0  0  0  0  0  0  0
   21.5557  -12.4179  -17.9092 C   0  0  0  0  0  0  0  0  0  0  0  0
   22.8015  -12.4201  -17.6184 O   0  0  0  0  0  0  0  0  0  0  0  0
   20.9704  -11.1264  -18.0233 N   0  0  0  0  0  0  0  0  0  0  0  0
   21.6947   -9.9095  -17.8352 C   0  0  0  0  0  0  0  0  0  0  0  0
   21.2179   -9.1010  -16.7077 C   0  0  0  0  0  0  0  0  0  0  0  0
   20.1223   -9.3825  -16.1645 O   0  0  0  0  0  0  0  0  0  0  0  0
   20.9292   -5.2034  -13.1495 N   0  0  0  0  0  0  0  0  0  0  0  0
   22.2429   -5.2741  -13.6752 C   0  0  0  0  0  0  0  0  0  0  0  0
   23.1206   -4.5246  -13.1896 O   0  0  0  0  0  0  0  0  0  0  0  0
   22.6238   -6.1935  -14.7717 C   0  0  0  0  0  0  0  0  0  0  0  0
   21.5072   -7.1215  -15.1753 C   0  0  2  0  0  0  0  0  0  0  0  0
   21.9897   -8.0069  -16.2328 N   0  0  0  0  0  0  0  0  0  0  0  0
   20.2962   -6.3765  -15.5834 C   0  0  0  0  0  0  0  0  0  0  0  0
   20.1499   -5.9602  -16.7335 O   0  0  0  0  0  0  0  0  0  0  0  0
   19.3128   -6.1500  -14.6385 O   0  0  0  0  0  0  0  0  0  0  0  0
  2  1  1  6
  2  9  1  0
  2  3  1  0
  4  3  1  0
  5  4  2  0
  6  5  1  0
  7  6  1  0
  7  8  2  0
  8  4  1  0
  9 11  1  0
 10  9  2  0
 11 12  1  0
 12 13  1  0
 13 14  2  0
 13 20  1  0
 16 15  1  0
 17 16  2  0
 18 16  1  0
 19 21  1  0
 19 18  1  6
 20 19  1  0
 21 23  1  0
 22 21  2  0
M  END
$$$$
