FKI.pdb
     RDKit          3D

 29 29  0  0  1  0  0  0  0  0999 V2000
   23.4749   -9.4144  -15.3850 N   0  0  0  0  0  0  0  0  0  0  0  0
   22.0545   -9.6910  -15.2783 C   0  0  1  0  0  0  0  0  0  0  0  0
   21.9028  -10.6821  -14.1214 C   0  0  0  0  0  0  0  0  0  0  0  0
   22.3696  -12.0080  -14.6219 C   0  0  0  0  0  0  0  0  0  0  0  0
   23.5580  -12.5802  -14.1912 C   0  0  0  0  0  0  0  0  0  0  0  0
   23.9843  -13.8107  -14.6602 C   0  0  0  0  0  0  0  0  0  0  0  0
   23.2289  -14.5141  -15.5831 C   0  0  0  0  0  0  0  0  0  0  0  0
   22.0503  -13.9350  -16.0032 C   0  0  0  0  0  0  0  0  0  0  0  0
   21.6220  -12.7090  -15.5382 C   0  0  0  0  0  0  0  0  0  0  0  0
   21.3024   -8.4563  -14.9652 C   0  0  0  0  0  0  0  0  0  0  0  0
   21.6509   -7.7120  -14.0368 O   0  0  0  0  0  0  0  0  0  0  0  0
   20.1696   -8.1099  -15.7274 N   0  0  0  0  0  0  0  0  0  0  0  0
   19.3957   -6.8738  -15.4604 C   0  0  1  0  0  0  0  0  0  0  0  0
   18.8841   -6.4562  -16.8106 C   0  0  0  0  0  0  0  0  0  0  0  0
   17.9832   -5.2699  -16.7210 C   0  0  0  0  0  0  0  0  0  0  0  0
   18.8119   -4.0336  -16.3475 C   0  0  0  0  0  0  0  0  0  0  0  0
   17.8357   -2.8776  -16.2917 C   0  0  0  0  0  0  0  0  0  0  0  0
   18.4964   -1.6431  -15.9082 N   0  0  0  0  0  0  0  0  0  0  0  0
   18.2327   -7.2130  -14.5825 C   0  0  0  0  0  0  0  0  0  0  0  0
   17.5397   -8.2218  -14.8611 O   0  0  0  0  0  0  0  0  0  0  0  0
   16.0647   -8.0957   -9.1229 C   0  0  0  0  0  0  0  0  0  0  0  0
   15.7599   -7.4230  -10.4393 C   0  0  0  0  0  0  0  0  0  0  0  0
   17.0285   -7.1795  -11.2380 C   0  0  2  0  0  0  0  0  0  0  0  0
   17.8230   -6.1491  -10.4568 C   0  0  0  0  0  0  0  0  0  0  0  0
   16.7606   -6.6175  -12.6071 C   0  0  2  0  0  0  0  0  0  0  0  0
   17.8814   -6.4503  -13.4582 N   0  0  0  0  0  0  0  0  0  0  0  0
   15.8848   -5.4451  -12.5284 C   0  0  0  0  0  0  0  0  0  0  0  0
   14.5631   -5.4129  -12.1632 O   0  0  0  0  0  0  0  0  0  0  0  0
   16.4646   -4.3312  -12.8503 O   0  0  0  0  0  0  0  0  0  0  0  0
  2  1  1  1
  3  4  1  0
  3  2  1  0
  4  5  2  0
  5  6  1  0
  7  6  2  0
  8  7  1  0
  9  4  1  0
  9  8  2  0
 10  2  1  0
 10 11  2  0
 12 10  1  0
 13 12  1  0
 13 14  1  6
 15 14  1  0
 15 16  1  0
 17 16  1  0
 17 18  1  0
 19 13  1  0
 20 19  2  0
 21 22  1  0
 22 23  1  0
 23 24  1  1
 25 23  1  0
 25 26  1  1
 26 19  1  0
 27 28  1  0
 27 25  1  0
 29 27  2  0
M  END
$$$$
