FKI.pdb
     RDKit          3D

 29 29  0  0  1  0  0  0  0  0999 V2000
   27.3154  -19.6207  -11.2050 N   0  0  0  0  0  0  0  0  0  0  0  0
   26.5749  -20.8664  -11.1331 C   0  0  1  0  0  0  0  0  0  0  0  0
   25.8544  -20.8522   -9.7823 C   0  0  0  0  0  0  0  0  0  0  0  0
   26.8961  -20.6312   -8.7372 C   0  0  0  0  0  0  0  0  0  0  0  0
   26.7712  -19.6431   -7.7712 C   0  0  0  0  0  0  0  0  0  0  0  0
   27.7420  -19.4442   -6.8049 C   0  0  0  0  0  0  0  0  0  0  0  0
   28.8786  -20.2343   -6.7739 C   0  0  0  0  0  0  0  0  0  0  0  0
   28.9911  -21.2125   -7.7390 C   0  0  0  0  0  0  0  0  0  0  0  0
   28.0259  -21.4138   -8.7036 C   0  0  0  0  0  0  0  0  0  0  0  0
   25.5740  -20.9444  -12.2195 C   0  0  0  0  0  0  0  0  0  0  0  0
   24.7592  -20.0287  -12.4068 O   0  0  0  0  0  0  0  0  0  0  0  0
   25.5360  -22.0728  -13.0618 N   0  0  0  0  0  0  0  0  0  0  0  0
   24.6092  -22.1560  -14.2160 C   0  0  1  0  0  0  0  0  0  0  0  0
   25.1265  -23.3117  -15.0259 C   0  0  0  0  0  0  0  0  0  0  0  0
   26.4230  -22.9885  -15.6904 C   0  0  0  0  0  0  0  0  0  0  0  0
   26.8675  -24.1864  -16.5402 C   0  0  0  0  0  0  0  0  0  0  0  0
   28.1915  -23.7913  -17.1593 C   0  0  0  0  0  0  0  0  0  0  0  0
   28.7241  -24.8521  -17.9951 N   0  0  0  0  0  0  0  0  0  0  0  0
   23.2402  -22.4886  -13.7123 C   0  0  0  0  0  0  0  0  0  0  0  0
   23.1266  -23.3079  -12.7682 O   0  0  0  0  0  0  0  0  0  0  0  0
   19.9309  -18.3531  -12.5099 C   0  0  0  0  0  0  0  0  0  0  0  0
   20.9284  -19.3287  -13.0857 C   0  0  0  0  0  0  0  0  0  0  0  0
   20.6856  -20.7343  -12.5639 C   0  0  2  0  0  0  0  0  0  0  0  0
   21.7687  -20.9898  -11.5321 C   0  0  0  0  0  0  0  0  0  0  0  0
   20.8065  -21.7854  -13.6328 C   0  0  2  0  0  0  0  0  0  0  0  0
   22.0742  -21.9232  -14.2510 N   0  0  0  0  0  0  0  0  0  0  0  0
   19.6844  -21.7068  -14.5723 C   0  0  0  0  0  0  0  0  0  0  0  0
   18.3454  -21.7670  -14.2811 O   0  0  0  0  0  0  0  0  0  0  0  0
   20.0422  -21.5657  -15.8103 O   0  0  0  0  0  0  0  0  0  0  0  0
  2  1  1  6
  3  4  1  0
  3  2  1  0
  4  5  2  0
  5  6  1  0
  7  6  2  0
  8  7  1  0
  9  4  1  0
  9  8  2  0
 10  2  1  0
 10 11  2  0
 12 10  1  0
 13 12  1  0
 13 14  1  6
 15 14  1  0
 15 16  1  0
 17 16  1  0
 17 18  1  0
 19 13  1  0
 20 19  2  0
 21 22  1  0
 22 23  1  0
 23 24  1  1
 25 23  1  0
 25 26  1  6
 26 19  1  0
 27 28  1  0
 27 25  1  0
 29 27  2  0
M  END
$$$$
