FKI.pdb
     RDKit          3D

 29 29  0  0  1  0  0  0  0  0999 V2000
   23.3908  -13.0783  -18.4768 N   0  0  0  0  0  0  0  0  0  0  0  0
   23.0407  -12.6217  -17.1448 C   0  0  1  0  0  0  0  0  0  0  0  0
   24.3513  -12.1712  -16.4944 C   0  0  0  0  0  0  0  0  0  0  0  0
   25.1345  -13.4057  -16.1962 C   0  0  0  0  0  0  0  0  0  0  0  0
   26.2029  -13.8077  -16.9849 C   0  0  0  0  0  0  0  0  0  0  0  0
   26.9246  -14.9544  -16.7018 C   0  0  0  0  0  0  0  0  0  0  0  0
   26.5977  -15.7422  -15.6111 C   0  0  0  0  0  0  0  0  0  0  0  0
   25.5343  -15.3322  -14.8353 C   0  0  0  0  0  0  0  0  0  0  0  0
   24.8126  -14.1902  -15.1141 C   0  0  0  0  0  0  0  0  0  0  0  0
   22.1095  -11.4743  -17.2122 C   0  0  0  0  0  0  0  0  0  0  0  0
   22.3297  -10.5140  -17.9650 O   0  0  0  0  0  0  0  0  0  0  0  0
   20.9499  -11.4610  -16.4126 N   0  0  0  0  0  0  0  0  0  0  0  0
   19.9569  -10.3632  -16.4936 C   0  0  1  0  0  0  0  0  0  0  0  0
   18.6632  -10.9995  -16.0686 C   0  0  0  0  0  0  0  0  0  0  0  0
   17.5430  -10.0140  -16.0371 C   0  0  0  0  0  0  0  0  0  0  0  0
   16.2753  -10.7067  -15.5196 C   0  0  0  0  0  0  0  0  0  0  0  0
   15.1937   -9.6473  -15.5122 C   0  0  0  0  0  0  0  0  0  0  0  0
   14.0035  -10.1089  -14.8209 N   0  0  0  0  0  0  0  0  0  0  0  0
   20.3268   -9.3040  -15.5038 C   0  0  0  0  0  0  0  0  0  0  0  0
   20.8667   -9.6484  -14.4243 O   0  0  0  0  0  0  0  0  0  0  0  0
   23.8559   -4.6826  -15.4248 C   0  0  0  0  0  0  0  0  0  0  0  0
   22.5199   -5.1173  -14.8727 C   0  0  0  0  0  0  0  0  0  0  0  0
   21.9581   -6.2910  -15.6559 C   0  0  2  0  0  0  0  0  0  0  0  0
   21.6421   -5.7564  -17.0407 C   0  0  0  0  0  0  0  0  0  0  0  0
   20.6849   -6.8332  -15.0669 C   0  0  2  0  0  0  0  0  0  0  0  0
   20.0957   -7.9385  -15.7300 N   0  0  0  0  0  0  0  0  0  0  0  0
   19.7490   -5.7487  -14.7573 C   0  0  0  0  0  0  0  0  0  0  0  0
   19.8753   -4.7882  -13.7863 O   0  0  0  0  0  0  0  0  0  0  0  0
   18.6934   -5.7322  -15.5096 O   0  0  0  0  0  0  0  0  0  0  0  0
  2  1  1  6
  3  4  1  0
  3  2  1  0
  4  5  2  0
  5  6  1  0
  7  6  2  0
  8  7  1  0
  9  4  1  0
  9  8  2  0
 10  2  1  0
 10 11  2  0
 12 10  1  0
 13 12  1  0
 13 14  1  1
 15 14  1  0
 15 16  1  0
 17 16  1  0
 17 18  1  0
 19 13  1  0
 20 19  2  0
 21 22  1  0
 22 23  1  0
 23 24  1  6
 25 23  1  0
 25 26  1  6
 26 19  1  0
 27 28  1  0
 27 25  1  0
 29 27  2  0
M  END
$$$$
