FKI.pdb
     RDKit          3D

 29 29  0  0  1  0  0  0  0  0999 V2000
   24.3705  -17.3190  -18.3245 N   0  0  0  0  0  0  0  0  0  0  0  0
   24.9598  -17.4929  -17.0100 C   0  0  1  0  0  0  0  0  0  0  0  0
   23.9390  -16.9388  -16.0127 C   0  0  0  0  0  0  0  0  0  0  0  0
   23.8302  -15.4735  -16.2722 C   0  0  0  0  0  0  0  0  0  0  0  0
   22.6333  -14.8793  -16.6456 C   0  0  0  0  0  0  0  0  0  0  0  0
   22.5402  -13.5191  -16.8847 C   0  0  0  0  0  0  0  0  0  0  0  0
   23.6513  -12.7029  -16.7566 C   0  0  0  0  0  0  0  0  0  0  0  0
   24.8346  -13.3051  -16.3851 C   0  0  0  0  0  0  0  0  0  0  0  0
   24.9314  -14.6602  -16.1460 C   0  0  0  0  0  0  0  0  0  0  0  0
   25.1921  -18.9258  -16.7255 C   0  0  0  0  0  0  0  0  0  0  0  0
   24.2473  -19.7251  -16.6489 O   0  0  0  0  0  0  0  0  0  0  0  0
   26.5042  -19.4022  -16.5366 N   0  0  0  0  0  0  0  0  0  0  0  0
   26.7799  -20.8163  -16.1871 C   0  0  1  0  0  0  0  0  0  0  0  0
   28.1559  -21.0734  -16.7346 C   0  0  0  0  0  0  0  0  0  0  0  0
   28.6531  -22.4330  -16.3722 C   0  0  0  0  0  0  0  0  0  0  0  0
   28.2382  -23.4297  -17.4626 C   0  0  0  0  0  0  0  0  0  0  0  0
   28.9199  -24.7363  -17.1155 C   0  0  0  0  0  0  0  0  0  0  0  0
   28.6618  -25.7526  -18.1196 N   0  0  0  0  0  0  0  0  0  0  0  0
   26.8165  -20.9466  -14.6971 C   0  0  0  0  0  0  0  0  0  0  0  0
   27.4149  -20.0688  -14.0287 O   0  0  0  0  0  0  0  0  0  0  0  0
   24.9569  -20.4793   -9.4367 C   0  0  0  0  0  0  0  0  0  0  0  0
   25.6665  -21.5215  -10.2665 C   0  0  0  0  0  0  0  0  0  0  0  0
   25.5553  -21.2116  -11.7492 C   0  0  2  0  0  0  0  0  0  0  0  0
   24.0705  -21.1958  -12.0626 C   0  0  0  0  0  0  0  0  0  0  0  0
   26.2009  -22.2568  -12.6167 C   0  0  2  0  0  0  0  0  0  0  0  0
   26.2097  -22.0106  -14.0123 N   0  0  0  0  0  0  0  0  0  0  0  0
   25.7440  -23.5989  -12.2455 C   0  0  0  0  0  0  0  0  0  0  0  0
   26.2276  -24.3978  -11.2408 O   0  0  0  0  0  0  0  0  0  0  0  0
   24.7708  -24.0456  -12.9763 O   0  0  0  0  0  0  0  0  0  0  0  0
  2  1  1  6
  3  4  1  0
  3  2  1  0
  4  5  2  0
  5  6  1  0
  7  6  2  0
  8  7  1  0
  9  4  1  0
  9  8  2  0
 10  2  1  0
 10 11  2  0
 12 10  1  0
 13 12  1  0
 13 14  1  6
 15 14  1  0
 15 16  1  0
 17 16  1  0
 17 18  1  0
 19 13  1  0
 20 19  2  0
 21 22  1  0
 22 23  1  0
 23 24  1  6
 25 23  1  0
 25 26  1  6
 26 19  1  0
 27 28  1  0
 27 25  1  0
 29 27  2  0
M  END
$$$$
