FKI.pdb
     RDKit          3D

 29 29  0  0  1  0  0  0  0  0999 V2000
   25.0191  -18.9428  -19.2374 N   0  0  0  0  0  0  0  0  0  0  0  0
   25.6378  -19.3875  -18.0026 C   0  0  1  0  0  0  0  0  0  0  0  0
   25.4786  -18.2325  -17.0104 C   0  0  0  0  0  0  0  0  0  0  0  0
   26.3418  -17.1181  -17.4996 C   0  0  0  0  0  0  0  0  0  0  0  0
   27.6832  -17.3044  -17.8012 C   0  0  0  0  0  0  0  0  0  0  0  0
   28.4776  -16.2655  -18.2546 C   0  0  0  0  0  0  0  0  0  0  0  0
   27.9506  -14.9961  -18.4224 C   0  0  0  0  0  0  0  0  0  0  0  0
   26.6166  -14.8239  -18.1194 C   0  0  0  0  0  0  0  0  0  0  0  0
   25.8218  -15.8566  -17.6673 C   0  0  0  0  0  0  0  0  0  0  0  0
   24.9488  -20.5846  -17.4729 C   0  0  0  0  0  0  0  0  0  0  0  0
   23.7117  -20.6670  -17.4794 O   0  0  0  0  0  0  0  0  0  0  0  0
   25.7001  -21.6552  -16.9498 N   0  0  0  0  0  0  0  0  0  0  0  0
   25.0519  -22.8680  -16.3958 C   0  0  1  0  0  0  0  0  0  0  0  0
   26.1938  -23.8031  -16.1112 C   0  0  0  0  0  0  0  0  0  0  0  0
   25.7263  -25.0804  -15.4973 C   0  0  0  0  0  0  0  0  0  0  0  0
   24.4904  -25.5826  -16.2555 C   0  0  0  0  0  0  0  0  0  0  0  0
   24.1293  -26.9136  -15.6309 C   0  0  0  0  0  0  0  0  0  0  0  0
   22.8950  -27.4417  -16.1834 N   0  0  0  0  0  0  0  0  0  0  0  0
   24.3822  -22.5108  -15.1064 C   0  0  0  0  0  0  0  0  0  0  0  0
   25.0469  -21.9112  -14.2266 O   0  0  0  0  0  0  0  0  0  0  0  0
   21.3376  -19.2455  -11.8076 C   0  0  0  0  0  0  0  0  0  0  0  0
   21.3256  -20.7152  -12.1515 C   0  0  0  0  0  0  0  0  0  0  0  0
   22.1629  -20.9966  -13.3870 C   0  0  2  0  0  0  0  0  0  0  0  0
   21.4395  -20.3301  -14.5427 C   0  0  0  0  0  0  0  0  0  0  0  0
   22.2768  -22.4641  -13.6962 C   0  0  2  0  0  0  0  0  0  0  0  0
   23.0398  -22.8179  -14.8368 N   0  0  0  0  0  0  0  0  0  0  0  0
   20.9667  -23.1169  -13.6225 C   0  0  0  0  0  0  0  0  0  0  0  0
   20.3177  -23.8018  -14.6180 O   0  0  0  0  0  0  0  0  0  0  0  0
   20.3884  -23.0098  -12.4672 O   0  0  0  0  0  0  0  0  0  0  0  0
  2  1  1  6
  3  4  1  0
  3  2  1  0
  4  5  2  0
  5  6  1  0
  7  6  2  0
  8  7  1  0
  9  4  1  0
  9  8  2  0
 10  2  1  0
 10 11  2  0
 12 10  1  0
 13 12  1  0
 13 14  1  1
 15 14  1  0
 15 16  1  0
 17 16  1  0
 17 18  1  0
 19 13  1  0
 20 19  2  0
 21 22  1  0
 22 23  1  0
 23 24  1  6
 25 23  1  0
 25 26  1  6
 26 19  1  0
 27 28  1  0
 27 25  1  0
 29 27  2  0
M  END
$$$$
