FKI.pdb
     RDKit          3D

 29 29  0  0  1  0  0  0  0  0999 V2000
   28.7346  -21.5573   -9.7095 N   0  0  0  0  0  0  0  0  0  0  0  0
   27.4277  -20.9880   -9.4389 C   0  0  1  0  0  0  0  0  0  0  0  0
   27.6861  -19.6094   -8.8254 C   0  0  0  0  0  0  0  0  0  0  0  0
   27.8378  -19.8105   -7.3548 C   0  0  0  0  0  0  0  0  0  0  0  0
   26.7751  -20.1988   -6.5517 C   0  0  0  0  0  0  0  0  0  0  0  0
   26.9238  -20.3833   -5.1879 C   0  0  0  0  0  0  0  0  0  0  0  0
   28.1510  -20.1834   -4.5789 C   0  0  0  0  0  0  0  0  0  0  0  0
   29.1991  -19.7978   -5.3875 C   0  0  0  0  0  0  0  0  0  0  0  0
   29.0549  -19.6130   -6.7468 C   0  0  0  0  0  0  0  0  0  0  0  0
   26.6563  -20.8284  -10.6910 C   0  0  0  0  0  0  0  0  0  0  0  0
   27.0764  -20.1177  -11.6160 O   0  0  0  0  0  0  0  0  0  0  0  0
   25.4224  -21.4899  -10.8467 N   0  0  0  0  0  0  0  0  0  0  0  0
   24.6695  -21.4498  -12.1231 C   0  0  1  0  0  0  0  0  0  0  0  0
   24.5455  -22.8922  -12.5274 C   0  0  0  0  0  0  0  0  0  0  0  0
   25.7326  -23.3558  -13.3038 C   0  0  0  0  0  0  0  0  0  0  0  0
   25.3901  -23.3533  -14.7996 C   0  0  0  0  0  0  0  0  0  0  0  0
   25.4616  -24.7980  -15.2471 C   0  0  0  0  0  0  0  0  0  0  0  0
   25.1395  -24.9337  -16.6561 N   0  0  0  0  0  0  0  0  0  0  0  0
   23.3037  -20.8986  -11.8605 C   0  0  0  0  0  0  0  0  0  0  0  0
   22.8195  -21.0086  -10.7076 O   0  0  0  0  0  0  0  0  0  0  0  0
   19.6527  -17.0733  -11.7440 C   0  0  0  0  0  0  0  0  0  0  0  0
   19.7180  -17.7040  -13.1138 C   0  0  0  0  0  0  0  0  0  0  0  0
   21.0853  -18.3122  -13.3734 C   0  0  2  0  0  0  0  0  0  0  0  0
   21.1715  -18.5211  -14.8741 C   0  0  0  0  0  0  0  0  0  0  0  0
   21.2683  -19.6486  -12.7081 C   0  0  2  0  0  0  0  0  0  0  0  0
   22.5378  -20.2625  -12.8494 N   0  0  0  0  0  0  0  0  0  0  0  0
   20.1365  -20.5344  -12.9948 C   0  0  0  0  0  0  0  0  0  0  0  0
   19.3490  -21.2023  -12.0920 O   0  0  0  0  0  0  0  0  0  0  0  0
   19.8852  -20.6768  -14.2587 O   0  0  0  0  0  0  0  0  0  0  0  0
  2  1  1  6
  3  4  1  0
  3  2  1  0
  4  5  2  0
  5  6  1  0
  7  6  2  0
  8  7  1  0
  9  4  1  0
  9  8  2  0
 10  2  1  0
 10 11  2  0
 12 10  1  0
 13 12  1  0
 13 14  1  1
 15 14  1  0
 15 16  1  0
 17 16  1  0
 17 18  1  0
 19 13  1  0
 20 19  2  0
 21 22  1  0
 22 23  1  0
 23 24  1  6
 25 23  1  0
 25 26  1  6
 26 19  1  0
 27 28  1  0
 27 25  1  0
 29 27  2  0
M  END
$$$$
