FKI.pdb
     RDKit          3D

 29 29  0  0  1  0  0  0  0  0999 V2000
   24.1677  -15.2684  -19.6217 N   0  0  0  0  0  0  0  0  0  0  0  0
   24.4857  -14.0084  -20.2673 C   0  0  1  0  0  0  0  0  0  0  0  0
   23.1698  -13.4902  -20.8535 C   0  0  0  0  0  0  0  0  0  0  0  0
   22.8237  -14.3822  -21.9984 C   0  0  0  0  0  0  0  0  0  0  0  0
   21.7784  -15.2921  -21.9323 C   0  0  0  0  0  0  0  0  0  0  0  0
   21.4634  -16.1164  -22.9988 C   0  0  0  0  0  0  0  0  0  0  0  0
   22.1905  -16.0561  -24.1755 C   0  0  0  0  0  0  0  0  0  0  0  0
   23.2267  -15.1481  -24.2287 C   0  0  0  0  0  0  0  0  0  0  0  0
   23.5436  -14.3250  -23.1682 C   0  0  0  0  0  0  0  0  0  0  0  0
   25.0004  -13.0309  -19.2835 C   0  0  0  0  0  0  0  0  0  0  0  0
   24.5962  -13.0284  -18.1113 O   0  0  0  0  0  0  0  0  0  0  0  0
   25.9660  -12.0822  -19.6730 N   0  0  0  0  0  0  0  0  0  0  0  0
   26.5484  -11.1184  -18.7088 C   0  0  1  0  0  0  0  0  0  0  0  0
   27.7668  -10.5832  -19.4077 C   0  0  0  0  0  0  0  0  0  0  0  0
   28.4693   -9.5522  -18.5889 C   0  0  0  0  0  0  0  0  0  0  0  0
   29.7164   -9.0720  -19.3432 C   0  0  0  0  0  0  0  0  0  0  0  0
   30.3685   -8.0342  -18.4543 C   0  0  0  0  0  0  0  0  0  0  0  0
   31.5068   -7.4147  -19.1086 N   0  0  0  0  0  0  0  0  0  0  0  0
   25.5772   -9.9999  -18.4984 C   0  0  0  0  0  0  0  0  0  0  0  0
   25.0005   -9.5050  -19.4974 O   0  0  0  0  0  0  0  0  0  0  0  0
   20.6541   -8.5776  -16.4603 C   0  0  0  0  0  0  0  0  0  0  0  0
   21.9730   -8.1667  -15.8519 C   0  0  0  0  0  0  0  0  0  0  0  0
   23.0582   -9.1853  -16.1545 C   0  0  2  0  0  0  0  0  0  0  0  0
   23.5402   -9.6946  -14.8086 C   0  0  0  0  0  0  0  0  0  0  0  0
   24.2371   -8.5897  -16.8739 C   0  0  2  0  0  0  0  0  0  0  0  0
   25.2823   -9.4783  -17.2295 N   0  0  0  0  0  0  0  0  0  0  0  0
   24.6894   -7.3639  -16.2102 C   0  0  0  0  0  0  0  0  0  0  0  0
   25.9366   -7.0992  -15.7046 O   0  0  0  0  0  0  0  0  0  0  0  0
   23.7746   -6.4509  -16.1085 O   0  0  0  0  0  0  0  0  0  0  0  0
  2  1  1  1
  3  4  1  0
  3  2  1  0
  4  5  2  0
  5  6  1  0
  7  6  2  0
  8  7  1  0
  9  4  1  0
  9  8  2  0
 10  2  1  0
 10 11  2  0
 12 10  1  0
 13 12  1  0
 13 14  1  6
 15 14  1  0
 15 16  1  0
 17 16  1  0
 17 18  1  0
 19 13  1  0
 20 19  2  0
 21 22  1  0
 22 23  1  0
 23 24  1  1
 25 23  1  0
 25 26  1  1
 26 19  1  0
 27 28  1  0
 27 25  1  0
 29 27  2  0
M  END
$$$$
