FKI.pdb
     RDKit          3D

 29 29  0  0  1  0  0  0  0  0999 V2000
   25.8760  -20.9727  -18.3042 N   0  0  0  0  0  0  0  0  0  0  0  0
   25.6826  -21.4146  -16.9357 C   0  0  1  0  0  0  0  0  0  0  0  0
   25.5049  -20.1428  -16.1022 C   0  0  0  0  0  0  0  0  0  0  0  0
   26.7883  -19.3864  -16.1858 C   0  0  0  0  0  0  0  0  0  0  0  0
   27.9991  -19.9474  -15.8061 C   0  0  0  0  0  0  0  0  0  0  0  0
   29.1857  -19.2391  -15.8866 C   0  0  0  0  0  0  0  0  0  0  0  0
   29.1988  -17.9358  -16.3536 C   0  0  0  0  0  0  0  0  0  0  0  0
   27.9893  -17.3896  -16.7278 C   0  0  0  0  0  0  0  0  0  0  0  0
   26.8049  -18.0921  -16.6490 C   0  0  0  0  0  0  0  0  0  0  0  0
   24.4655  -22.2475  -16.8211 C   0  0  0  0  0  0  0  0  0  0  0  0
   23.4442  -21.9823  -17.4723 O   0  0  0  0  0  0  0  0  0  0  0  0
   24.4545  -23.3630  -15.9611 N   0  0  0  0  0  0  0  0  0  0  0  0
   23.2696  -24.2460  -15.8410 C   0  0  1  0  0  0  0  0  0  0  0  0
   23.8455  -25.6315  -15.7526 C   0  0  0  0  0  0  0  0  0  0  0  0
   24.6417  -25.9809  -16.9654 C   0  0  0  0  0  0  0  0  0  0  0  0
   25.4006  -27.2903  -16.7115 C   0  0  0  0  0  0  0  0  0  0  0  0
   26.2244  -27.5439  -17.9562 C   0  0  0  0  0  0  0  0  0  0  0  0
   27.1836  -28.6138  -17.7489 N   0  0  0  0  0  0  0  0  0  0  0  0
   22.5607  -23.9308  -14.5618 C   0  0  0  0  0  0  0  0  0  0  0  0
   23.1285  -24.1987  -13.4749 O   0  0  0  0  0  0  0  0  0  0  0  0
   21.4592  -19.3651  -12.6988 C   0  0  0  0  0  0  0  0  0  0  0  0
   21.6653  -20.8493  -12.8807 C   0  0  0  0  0  0  0  0  0  0  0  0
   20.3404  -21.5691  -13.0630 C   0  0  2  0  0  0  0  0  0  0  0  0
   19.6197  -21.4613  -11.7318 C   0  0  0  0  0  0  0  0  0  0  0  0
   20.5057  -23.0292  -13.3835 C   0  0  2  0  0  0  0  0  0  0  0  0
   21.2850  -23.3474  -14.5237 N   0  0  0  0  0  0  0  0  0  0  0  0
   19.2185  -23.7269  -13.3210 C   0  0  0  0  0  0  0  0  0  0  0  0
   18.5652  -24.3676  -14.3427 O   0  0  0  0  0  0  0  0  0  0  0  0
   18.6671  -23.7120  -12.1478 O   0  0  0  0  0  0  0  0  0  0  0  0
  2  1  1  6
  3  4  1  0
  3  2  1  0
  4  5  2  0
  5  6  1  0
  7  6  2  0
  8  7  1  0
  9  4  1  0
  9  8  2  0
 10  2  1  0
 10 11  2  0
 12 10  1  0
 13 12  1  0
 13 14  1  1
 15 14  1  0
 15 16  1  0
 17 16  1  0
 17 18  1  0
 19 13  1  0
 20 19  2  0
 21 22  1  0
 22 23  1  0
 23 24  1  1
 25 23  1  0
 25 26  1  6
 26 19  1  0
 27 28  1  0
 27 25  1  0
 29 27  2  0
M  END
$$$$
