FKI.pdb
     RDKit          3D

 29 29  0  0  1  0  0  0  0  0999 V2000
   26.3435  -21.1990  -10.2889 N   0  0  0  0  0  0  0  0  0  0  0  0
   25.4977  -21.0337  -11.4562 C   0  0  1  0  0  0  0  0  0  0  0  0
   24.4066  -20.0395  -11.0501 C   0  0  0  0  0  0  0  0  0  0  0  0
   23.3833  -20.8079  -10.2827 C   0  0  0  0  0  0  0  0  0  0  0  0
   22.4641  -21.6376  -10.9086 C   0  0  0  0  0  0  0  0  0  0  0  0
   21.5177  -22.3472  -10.1898 C   0  0  0  0  0  0  0  0  0  0  0  0
   21.4604  -22.2486   -8.8099 C   0  0  0  0  0  0  0  0  0  0  0  0
   22.3790  -21.4211   -8.1998 C   0  0  0  0  0  0  0  0  0  0  0  0
   23.3236  -20.7123   -8.9126 C   0  0  0  0  0  0  0  0  0  0  0  0
   26.2699  -20.4757  -12.5879 C   0  0  0  0  0  0  0  0  0  0  0  0
   27.0523  -19.5278  -12.4240 O   0  0  0  0  0  0  0  0  0  0  0  0
   26.1223  -21.0219  -13.8779 N   0  0  0  0  0  0  0  0  0  0  0  0
   26.8555  -20.4776  -15.0458 C   0  0  1  0  0  0  0  0  0  0  0  0
   26.9487  -21.6359  -15.9993 C   0  0  0  0  0  0  0  0  0  0  0  0
   27.6450  -21.2597  -17.2644 C   0  0  0  0  0  0  0  0  0  0  0  0
   28.8502  -22.1865  -17.4724 C   0  0  0  0  0  0  0  0  0  0  0  0
   29.6059  -21.6290  -18.6600 C   0  0  0  0  0  0  0  0  0  0  0  0
   30.8710  -22.3145  -18.8533 N   0  0  0  0  0  0  0  0  0  0  0  0
   26.0318  -19.3968  -15.6717 C   0  0  0  0  0  0  0  0  0  0  0  0
   24.7816  -19.4603  -15.5794 O   0  0  0  0  0  0  0  0  0  0  0  0
   27.3676  -14.2431  -14.9882 C   0  0  0  0  0  0  0  0  0  0  0  0
   26.5926  -15.5182  -15.2157 C   0  0  0  0  0  0  0  0  0  0  0  0
   26.5026  -15.8493  -16.6952 C   0  0  2  0  0  0  0  0  0  0  0  0
   25.5602  -14.8228  -17.2965 C   0  0  0  0  0  0  0  0  0  0  0  0
   25.9286  -17.2146  -16.9566 C   0  0  2  0  0  0  0  0  0  0  0  0
   26.5972  -18.3123  -16.3596 N   0  0  0  0  0  0  0  0  0  0  0  0
   25.6323  -17.3930  -18.3807 C   0  0  0  0  0  0  0  0  0  0  0  0
   24.4158  -17.2709  -19.0025 O   0  0  0  0  0  0  0  0  0  0  0  0
   26.6658  -17.7022  -19.0997 O   0  0  0  0  0  0  0  0  0  0  0  0
  2  1  1  1
  3  4  1  0
  3  2  1  0
  4  5  2  0
  5  6  1  0
  7  6  2  0
  8  7  1  0
  9  4  1  0
  9  8  2  0
 10  2  1  0
 10 11  2  0
 12 10  1  0
 13 12  1  0
 13 14  1  6
 15 14  1  0
 15 16  1  0
 17 16  1  0
 17 18  1  0
 19 13  1  0
 20 19  2  0
 21 22  1  0
 22 23  1  0
 23 24  1  6
 25 23  1  0
 25 26  1  6
 26 19  1  0
 27 28  1  0
 27 25  1  0
 29 27  2  0
M  END
$$$$
