FKI.pdb
     RDKit          3D

 29 29  0  0  1  0  0  0  0  0999 V2000
   20.5563  -17.0739  -18.7857 N   0  0  0  0  0  0  0  0  0  0  0  0
   21.3993  -17.2335  -17.6155 C   0  0  1  0  0  0  0  0  0  0  0  0
   20.8423  -16.2749  -16.5597 C   0  0  0  0  0  0  0  0  0  0  0  0
   21.0731  -14.8904  -17.0658 C   0  0  0  0  0  0  0  0  0  0  0  0
   20.0296  -14.0740  -17.4775 C   0  0  0  0  0  0  0  0  0  0  0  0
   20.2518  -12.7906  -17.9459 C   0  0  0  0  0  0  0  0  0  0  0  0
   21.5362  -12.2785  -18.0179 C   0  0  0  0  0  0  0  0  0  0  0  0
   22.5645  -13.0995  -17.6059 C   0  0  0  0  0  0  0  0  0  0  0  0
   22.3471  -14.3789  -17.1386 C   0  0  0  0  0  0  0  0  0  0  0  0
   21.3274  -18.6193  -17.1031 C   0  0  0  0  0  0  0  0  0  0  0  0
   20.2360  -19.1730  -16.9043 O   0  0  0  0  0  0  0  0  0  0  0  0
   22.5120  -19.3321  -16.8330 N   0  0  0  0  0  0  0  0  0  0  0  0
   22.4879  -20.7100  -16.2866 C   0  0  1  0  0  0  0  0  0  0  0  0
   23.8731  -21.2353  -16.5407 C   0  0  0  0  0  0  0  0  0  0  0  0
   24.0299  -22.6416  -16.0666 C   0  0  0  0  0  0  0  0  0  0  0  0
   25.4847  -23.0844  -16.2717 C   0  0  0  0  0  0  0  0  0  0  0  0
   25.5420  -24.5381  -15.8523 C   0  0  0  0  0  0  0  0  0  0  0  0
   26.9005  -25.0488  -15.8921 N   0  0  0  0  0  0  0  0  0  0  0  0
   22.2572  -20.6395  -14.8100 C   0  0  0  0  0  0  0  0  0  0  0  0
   23.0876  -20.0242  -14.0978 O   0  0  0  0  0  0  0  0  0  0  0  0
   20.5226  -18.5467  -10.0402 C   0  0  0  0  0  0  0  0  0  0  0  0
   20.4102  -19.9080  -10.6828 C   0  0  0  0  0  0  0  0  0  0  0  0
   20.7227  -19.8415  -12.1676 C   0  0  2  0  0  0  0  0  0  0  0  0
   19.5686  -19.0892  -12.8042 C   0  0  0  0  0  0  0  0  0  0  0  0
   20.8025  -21.1985  -12.8112 C   0  0  2  0  0  0  0  0  0  0  0  0
   21.1501  -21.2332  -14.1847 N   0  0  0  0  0  0  0  0  0  0  0  0
   19.6320  -22.0101  -12.4662 C   0  0  0  0  0  0  0  0  0  0  0  0
   18.8289  -22.7228  -13.3196 O   0  0  0  0  0  0  0  0  0  0  0  0
   19.3580  -22.0285  -11.1992 O   0  0  0  0  0  0  0  0  0  0  0  0
  2  1  1  6
  3  4  1  0
  3  2  1  0
  4  5  2  0
  5  6  1  0
  7  6  2  0
  8  7  1  0
  9  4  1  0
  9  8  2  0
 10  2  1  0
 10 11  2  0
 12 10  1  0
 13 12  1  0
 13 14  1  1
 15 14  1  0
 15 16  1  0
 17 16  1  0
 17 18  1  0
 19 13  1  0
 20 19  2  0
 21 22  1  0
 22 23  1  0
 23 24  1  6
 25 23  1  0
 25 26  1  6
 26 19  1  0
 27 28  1  0
 27 25  1  0
 29 27  2  0
M  END
$$$$
