FKI.pdb
     RDKit          3D

 29 29  0  0  1  0  0  0  0  0999 V2000
   19.8653   -9.0632  -14.7311 N   0  0  0  0  0  0  0  0  0  0  0  0
   19.9273   -8.7002  -13.3277 C   0  0  1  0  0  0  0  0  0  0  0  0
   21.1070   -7.7338  -13.1930 C   0  0  0  0  0  0  0  0  0  0  0  0
   22.3256   -8.4723  -13.6356 C   0  0  0  0  0  0  0  0  0  0  0  0
   23.0832   -8.0578  -14.7216 C   0  0  0  0  0  0  0  0  0  0  0  0
   24.2126   -8.7483  -15.1262 C   0  0  0  0  0  0  0  0  0  0  0  0
   24.6235   -9.8854  -14.4514 C   0  0  0  0  0  0  0  0  0  0  0  0
   23.8624  -10.2870  -13.3741 C   0  0  0  0  0  0  0  0  0  0  0  0
   22.7364   -9.6016  -12.9679 C   0  0  0  0  0  0  0  0  0  0  0  0
   18.6849   -8.0155  -12.9083 C   0  0  0  0  0  0  0  0  0  0  0  0
   18.1752   -7.1278  -13.6080 O   0  0  0  0  0  0  0  0  0  0  0  0
   18.0613   -8.3692  -11.6957 N   0  0  0  0  0  0  0  0  0  0  0  0
   16.7591   -7.7895  -11.2881 C   0  0  1  0  0  0  0  0  0  0  0  0
   16.1163   -8.8654  -10.4583 C   0  0  0  0  0  0  0  0  0  0  0  0
   14.7109   -8.5209  -10.0937 C   0  0  0  0  0  0  0  0  0  0  0  0
   14.0856   -9.6947   -9.3283 C   0  0  0  0  0  0  0  0  0  0  0  0
   12.6253   -9.3412   -9.1415 C   0  0  0  0  0  0  0  0  0  0  0  0
   11.8771  -10.4533   -8.5838 N   0  0  0  0  0  0  0  0  0  0  0  0
   17.0122   -6.5943  -10.4245 C   0  0  0  0  0  0  0  0  0  0  0  0
   17.8818   -6.6741   -9.5229 O   0  0  0  0  0  0  0  0  0  0  0  0
   17.3464   -0.5092  -10.7245 C   0  0  0  0  0  0  0  0  0  0  0  0
   16.9413   -1.6865   -9.8711 C   0  0  0  0  0  0  0  0  0  0  0  0
   16.8208   -2.9517  -10.7027 C   0  0  2  0  0  0  0  0  0  0  0  0
   15.6537   -2.7225  -11.6453 C   0  0  0  0  0  0  0  0  0  0  0  0
   16.5161   -4.1702   -9.8755 C   0  0  2  0  0  0  0  0  0  0  0  0
   16.3178   -5.3847  -10.5785 N   0  0  0  0  0  0  0  0  0  0  0  0
   15.4850   -3.8786   -8.8757 C   0  0  0  0  0  0  0  0  0  0  0  0
   14.2382   -4.4410   -8.7732 O   0  0  0  0  0  0  0  0  0  0  0  0
   15.8309   -2.9794   -8.0083 O   0  0  0  0  0  0  0  0  0  0  0  0
  2  1  1  6
  3  4  1  0
  3  2  1  0
  4  5  2  0
  5  6  1  0
  7  6  2  0
  8  7  1  0
  9  4  1  0
  9  8  2  0
 10  2  1  0
 10 11  2  0
 12 10  1  0
 13 12  1  0
 13 14  1  1
 15 14  1  0
 15 16  1  0
 17 16  1  0
 17 18  1  0
 19 13  1  0
 20 19  2  0
 21 22  1  0
 22 23  1  0
 23 24  1  6
 25 23  1  0
 25 26  1  6
 26 19  1  0
 27 28  1  0
 27 25  1  0
 29 27  2  0
M  END
$$$$
