FKI.pdb
     RDKit          3D

 29 29  0  0  1  0  0  0  0  0999 V2000
   25.7570  -16.7684  -17.3989 N   0  0  0  0  0  0  0  0  0  0  0  0
   25.0559  -15.6624  -18.0236 C   0  0  1  0  0  0  0  0  0  0  0  0
   23.5954  -15.7838  -17.5808 C   0  0  0  0  0  0  0  0  0  0  0  0
   23.0168  -16.9505  -18.3090 C   0  0  0  0  0  0  0  0  0  0  0  0
   22.8637  -18.1912  -17.7071 C   0  0  0  0  0  0  0  0  0  0  0  0
   22.3260  -19.2689  -18.3893 C   0  0  0  0  0  0  0  0  0  0  0  0
   21.9209  -19.1386  -19.7069 C   0  0  0  0  0  0  0  0  0  0  0  0
   22.0782  -17.9009  -20.2937 C   0  0  0  0  0  0  0  0  0  0  0  0
   22.6135  -16.8246  -19.6173 C   0  0  0  0  0  0  0  0  0  0  0  0
   25.6007  -14.3677  -17.5597 C   0  0  0  0  0  0  0  0  0  0  0  0
   25.9271  -14.1975  -16.3757 O   0  0  0  0  0  0  0  0  0  0  0  0
   25.7558  -13.3030  -18.4688 N   0  0  0  0  0  0  0  0  0  0  0  0
   26.3648  -12.0129  -18.0655 C   0  0  1  0  0  0  0  0  0  0  0  0
   26.9964  -11.4897  -19.3251 C   0  0  0  0  0  0  0  0  0  0  0  0
   28.2419  -12.2343  -19.6731 C   0  0  0  0  0  0  0  0  0  0  0  0
   28.8113  -11.6803  -20.9859 C   0  0  0  0  0  0  0  0  0  0  0  0
   30.0005  -12.5532  -21.3268 C   0  0  0  0  0  0  0  0  0  0  0  0
   31.1095  -12.3171  -20.4201 N   0  0  0  0  0  0  0  0  0  0  0  0
   25.2769  -11.0776  -17.6413 C   0  0  0  0  0  0  0  0  0  0  0  0
   24.1900  -11.0912  -18.2690 O   0  0  0  0  0  0  0  0  0  0  0  0
   21.7573   -9.4770  -13.2699 C   0  0  0  0  0  0  0  0  0  0  0  0
   22.6281   -8.8509  -14.3320 C   0  0  0  0  0  0  0  0  0  0  0  0
   23.6781   -9.8298  -14.8282 C   0  0  2  0  0  0  0  0  0  0  0  0
   24.6609  -10.0034  -13.6849 C   0  0  0  0  0  0  0  0  0  0  0  0
   24.4394   -9.3185  -16.0202 C   0  0  2  0  0  0  0  0  0  0  0  0
   25.4189  -10.1828  -16.5697 N   0  0  0  0  0  0  0  0  0  0  0  0
   24.9057   -7.9477  -15.7937 C   0  0  0  0  0  0  0  0  0  0  0  0
   26.1990   -7.4914  -15.8139 O   0  0  0  0  0  0  0  0  0  0  0  0
   23.9552   -7.1011  -15.5480 O   0  0  0  0  0  0  0  0  0  0  0  0
  2  1  1  1
  3  4  1  0
  3  2  1  0
  4  5  2  0
  5  6  1  0
  7  6  2  0
  8  7  1  0
  9  4  1  0
  9  8  2  0
 10  2  1  0
 10 11  2  0
 12 10  1  0
 13 12  1  0
 13 14  1  6
 15 14  1  0
 15 16  1  0
 17 16  1  0
 17 18  1  0
 19 13  1  0
 20 19  2  0
 21 22  1  0
 22 23  1  0
 23 24  1  1
 25 23  1  0
 25 26  1  1
 26 19  1  0
 27 28  1  0
 27 25  1  0
 29 27  2  0
M  END
$$$$
