FKI.pdb
     RDKit          3D

 29 29  0  0  1  0  0  0  0  0999 V2000
   28.5644  -20.8540   -9.0769 N   0  0  0  0  0  0  0  0  0  0  0  0
   27.1357  -20.7466   -8.8473 C   0  0  1  0  0  0  0  0  0  0  0  0
   26.9360  -19.4781   -8.0139 C   0  0  0  0  0  0  0  0  0  0  0  0
   27.6076  -19.7106   -6.7020 C   0  0  0  0  0  0  0  0  0  0  0  0
   28.8591  -19.1858   -6.4129 C   0  0  0  0  0  0  0  0  0  0  0  0
   29.4758  -19.4060   -5.1934 C   0  0  0  0  0  0  0  0  0  0  0  0
   28.8548  -20.1647   -4.2158 C   0  0  0  0  0  0  0  0  0  0  0  0
   27.6117  -20.6805   -4.5151 C   0  0  0  0  0  0  0  0  0  0  0  0
   26.9939  -20.4634   -5.7291 C   0  0  0  0  0  0  0  0  0  0  0  0
   26.4082  -20.6090  -10.1279 C   0  0  0  0  0  0  0  0  0  0  0  0
   26.5231  -19.5891  -10.8236 O   0  0  0  0  0  0  0  0  0  0  0  0
   25.5679  -21.6473  -10.5751 N   0  0  0  0  0  0  0  0  0  0  0  0
   24.9107  -21.6041  -11.9033 C   0  0  1  0  0  0  0  0  0  0  0  0
   24.9953  -23.0179  -12.4065 C   0  0  0  0  0  0  0  0  0  0  0  0
   24.4516  -23.1489  -13.7900 C   0  0  0  0  0  0  0  0  0  0  0  0
   24.5982  -24.6041  -14.2545 C   0  0  0  0  0  0  0  0  0  0  0  0
   24.1723  -24.6238  -15.7073 C   0  0  0  0  0  0  0  0  0  0  0  0
   24.4533  -25.9070  -16.3254 N   0  0  0  0  0  0  0  0  0  0  0  0
   23.4717  -21.2386  -11.7179 C   0  0  0  0  0  0  0  0  0  0  0  0
   22.9197  -21.4966  -10.6205 O   0  0  0  0  0  0  0  0  0  0  0  0
   19.6004  -16.7325  -12.9733 C   0  0  0  0  0  0  0  0  0  0  0  0
   19.7447  -18.2157  -12.7327 C   0  0  0  0  0  0  0  0  0  0  0  0
   21.1834  -18.6648  -12.9206 C   0  0  2  0  0  0  0  0  0  0  0  0
   21.5058  -18.4322  -14.3852 C   0  0  0  0  0  0  0  0  0  0  0  0
   21.3842  -20.1264  -12.6282 C   0  0  2  0  0  0  0  0  0  0  0  0
   22.7100  -20.6186  -12.7201 N   0  0  0  0  0  0  0  0  0  0  0  0
   20.3898  -20.9414  -13.3317 C   0  0  0  0  0  0  0  0  0  0  0  0
   20.6031  -21.7964  -14.3828 O   0  0  0  0  0  0  0  0  0  0  0  0
   19.1827  -20.8083  -12.8781 O   0  0  0  0  0  0  0  0  0  0  0  0
  2  1  1  6
  3  4  1  0
  3  2  1  0
  4  5  2  0
  5  6  1  0
  7  6  2  0
  8  7  1  0
  9  4  1  0
  9  8  2  0
 10  2  1  0
 10 11  2  0
 12 10  1  0
 13 12  1  0
 13 14  1  1
 15 14  1  0
 15 16  1  0
 17 16  1  0
 17 18  1  0
 19 13  1  0
 20 19  2  0
 21 22  1  0
 22 23  1  0
 23 24  1  6
 25 23  1  0
 25 26  1  6
 26 19  1  0
 27 28  1  0
 27 25  1  0
 29 27  2  0
M  END
$$$$
