FKI.pdb
     RDKit          3D

 29 29  0  0  1  0  0  0  0  0999 V2000
   29.7558  -24.2641  -17.2188 N   0  0  0  0  0  0  0  0  0  0  0  0
   28.3195  -24.4218  -17.0863 C   0  0  1  0  0  0  0  0  0  0  0  0
   28.1096  -25.6443  -16.1890 C   0  0  0  0  0  0  0  0  0  0  0  0
   28.2863  -26.8500  -17.0499 C   0  0  0  0  0  0  0  0  0  0  0  0
   29.4193  -27.6474  -16.9760 C   0  0  0  0  0  0  0  0  0  0  0  0
   29.5759  -28.7645  -17.7782 C   0  0  0  0  0  0  0  0  0  0  0  0
   28.5954  -29.1226  -18.6878 C   0  0  0  0  0  0  0  0  0  0  0  0
   27.4744  -28.3224  -18.7518 C   0  0  0  0  0  0  0  0  0  0  0  0
   27.3147  -27.2085  -17.9542 C   0  0  0  0  0  0  0  0  0  0  0  0
   27.7193  -23.2337  -16.4411 C   0  0  0  0  0  0  0  0  0  0  0  0
   28.3316  -22.6009  -15.5682 O   0  0  0  0  0  0  0  0  0  0  0  0
   26.4312  -22.8044  -16.8162 N   0  0  0  0  0  0  0  0  0  0  0  0
   25.8321  -21.5620  -16.2729 C   0  0  1  0  0  0  0  0  0  0  0  0
   24.7669  -21.1963  -17.2684 C   0  0  0  0  0  0  0  0  0  0  0  0
   23.9145  -20.0720  -16.7824 C   0  0  0  0  0  0  0  0  0  0  0  0
   24.5987  -18.7393  -17.1146 C   0  0  0  0  0  0  0  0  0  0  0  0
   23.7029  -17.6574  -16.5493 C   0  0  0  0  0  0  0  0  0  0  0  0
   24.1955  -16.3329  -16.8822 N   0  0  0  0  0  0  0  0  0  0  0  0
   25.1855  -21.8723  -14.9598 C   0  0  0  0  0  0  0  0  0  0  0  0
   24.3823  -22.8346  -14.8947 O   0  0  0  0  0  0  0  0  0  0  0  0
   25.7491  -20.6740   -8.8412 C   0  0  0  0  0  0  0  0  0  0  0  0
   24.9110  -21.1177  -10.0156 C   0  0  0  0  0  0  0  0  0  0  0  0
   25.6199  -20.8437  -11.3305 C   0  0  2  0  0  0  0  0  0  0  0  0
   25.8151  -19.3401  -11.3946 C   0  0  0  0  0  0  0  0  0  0  0  0
   24.8118  -21.2576  -12.5296 C   0  0  2  0  0  0  0  0  0  0  0  0
   25.4381  -21.1322  -13.7946 N   0  0  0  0  0  0  0  0  0  0  0  0
   23.4604  -20.6936  -12.4689 C   0  0  0  0  0  0  0  0  0  0  0  0
   22.8941  -19.7874  -13.3288 O   0  0  0  0  0  0  0  0  0  0  0  0
   22.7528  -21.1260  -11.4724 O   0  0  0  0  0  0  0  0  0  0  0  0
  2  1  1  1
  3  4  1  0
  3  2  1  0
  4  5  2  0
  5  6  1  0
  7  6  2  0
  8  7  1  0
  9  4  1  0
  9  8  2  0
 10  2  1  0
 10 11  2  0
 12 10  1  0
 13 12  1  0
 13 14  1  6
 15 14  1  0
 15 16  1  0
 17 16  1  0
 17 18  1  0
 19 13  1  0
 20 19  2  0
 21 22  1  0
 22 23  1  0
 23 24  1  6
 25 23  1  0
 25 26  1  6
 26 19  1  0
 27 28  1  0
 27 25  1  0
 29 27  2  0
M  END
$$$$
