FKI.pdb
     RDKit          3D

 29 29  0  0  1  0  0  0  0  0999 V2000
   28.2314  -20.3588   -8.8612 N   0  0  0  0  0  0  0  0  0  0  0  0
   26.8704  -20.8610   -8.8298 C   0  0  1  0  0  0  0  0  0  0  0  0
   26.2616  -20.3501   -7.5213 C   0  0  0  0  0  0  0  0  0  0  0  0
   27.3868  -20.1815   -6.5560 C   0  0  0  0  0  0  0  0  0  0  0  0
   28.0364  -21.2670   -5.9863 C   0  0  0  0  0  0  0  0  0  0  0  0
   29.0796  -21.1025   -5.0915 C   0  0  0  0  0  0  0  0  0  0  0  0
   29.5098  -19.8357   -4.7350 C   0  0  0  0  0  0  0  0  0  0  0  0
   28.8564  -18.7652   -5.3079 C   0  0  0  0  0  0  0  0  0  0  0  0
   27.8165  -18.9251   -6.1999 C   0  0  0  0  0  0  0  0  0  0  0  0
   26.0905  -20.3325   -9.9703 C   0  0  0  0  0  0  0  0  0  0  0  0
   25.6868  -19.1602   -9.9818 O   0  0  0  0  0  0  0  0  0  0  0  0
   25.7953  -21.1653  -11.0673 N   0  0  0  0  0  0  0  0  0  0  0  0
   25.0424  -20.6702  -12.2445 C   0  0  1  0  0  0  0  0  0  0  0  0
   25.8723  -21.0963  -13.4230 C   0  0  0  0  0  0  0  0  0  0  0  0
   27.0810  -20.2374  -13.5913 C   0  0  0  0  0  0  0  0  0  0  0  0
   28.2818  -21.1210  -13.9547 C   0  0  0  0  0  0  0  0  0  0  0  0
   28.4524  -20.9979  -15.4541 C   0  0  0  0  0  0  0  0  0  0  0  0
   29.6317  -21.7088  -15.9140 N   0  0  0  0  0  0  0  0  0  0  0  0
   23.7210  -21.3697  -12.3011 C   0  0  0  0  0  0  0  0  0  0  0  0
   23.6524  -22.5627  -11.9170 O   0  0  0  0  0  0  0  0  0  0  0  0
   18.5630  -21.9389  -10.2942 C   0  0  0  0  0  0  0  0  0  0  0  0
   18.9586  -21.3407  -11.6224 C   0  0  0  0  0  0  0  0  0  0  0  0
   20.3691  -20.7797  -11.5735 C   0  0  2  0  0  0  0  0  0  0  0  0
   20.2234  -19.2728  -11.6783 C   0  0  0  0  0  0  0  0  0  0  0  0
   21.2246  -21.2435  -12.7202 C   0  0  2  0  0  0  0  0  0  0  0  0
   22.5518  -20.7487  -12.7664 N   0  0  0  0  0  0  0  0  0  0  0  0
   20.4990  -21.1385  -13.9892 C   0  0  0  0  0  0  0  0  0  0  0  0
   19.5453  -21.9938  -14.4793 O   0  0  0  0  0  0  0  0  0  0  0  0
   20.8271  -20.1053  -14.7004 O   0  0  0  0  0  0  0  0  0  0  0  0
  2  1  1  6
  3  4  1  0
  3  2  1  0
  4  5  2  0
  5  6  1  0
  7  6  2  0
  8  7  1  0
  9  4  1  0
  9  8  2  0
 10  2  1  0
 10 11  2  0
 12 10  1  0
 13 12  1  0
 13 14  1  6
 15 14  1  0
 15 16  1  0
 17 16  1  0
 17 18  1  0
 19 13  1  0
 20 19  2  0
 21 22  1  0
 22 23  1  0
 23 24  1  6
 25 23  1  0
 25 26  1  6
 26 19  1  0
 27 28  1  0
 27 25  1  0
 29 27  2  0
M  END
$$$$
