FKI.pdb
     RDKit          3D

 29 29  0  0  1  0  0  0  0  0999 V2000
   28.5722  -20.8188   -8.9139 N   0  0  0  0  0  0  0  0  0  0  0  0
   27.1352  -20.6439   -8.8139 C   0  0  1  0  0  0  0  0  0  0  0  0
   26.9211  -19.3061   -8.1010 C   0  0  0  0  0  0  0  0  0  0  0  0
   27.4762  -19.4545   -6.7240 C   0  0  0  0  0  0  0  0  0  0  0  0
   26.9633  -20.3725   -5.8189 C   0  0  0  0  0  0  0  0  0  0  0  0
   27.4837  -20.5043   -4.5431 C   0  0  0  0  0  0  0  0  0  0  0  0
   28.5431  -19.7150   -4.1285 C   0  0  0  0  0  0  0  0  0  0  0  0
   29.0438  -18.8067   -5.0370 C   0  0  0  0  0  0  0  0  0  0  0  0
   28.5280  -18.6724   -6.3092 C   0  0  0  0  0  0  0  0  0  0  0  0
   26.5199  -20.5850  -10.1578 C   0  0  0  0  0  0  0  0  0  0  0  0
   26.7509  -19.6405  -10.9273 O   0  0  0  0  0  0  0  0  0  0  0  0
   25.6553  -21.6131  -10.5817 N   0  0  0  0  0  0  0  0  0  0  0  0
   24.9336  -21.5442  -11.8749 C   0  0  1  0  0  0  0  0  0  0  0  0
   24.9862  -22.9495  -12.4057 C   0  0  0  0  0  0  0  0  0  0  0  0
   24.4308  -23.0427  -13.7876 C   0  0  0  0  0  0  0  0  0  0  0  0
   24.5630  -24.4871  -14.2887 C   0  0  0  0  0  0  0  0  0  0  0  0
   24.0001  -24.4949  -15.6941 C   0  0  0  0  0  0  0  0  0  0  0  0
   24.0861  -25.8147  -16.2929 N   0  0  0  0  0  0  0  0  0  0  0  0
   23.5075  -21.1759  -11.6124 C   0  0  0  0  0  0  0  0  0  0  0  0
   23.2173  -20.6222  -10.5239 O   0  0  0  0  0  0  0  0  0  0  0  0
   20.0938  -17.6212  -12.1610 C   0  0  0  0  0  0  0  0  0  0  0  0
   20.5256  -18.2773  -13.4500 C   0  0  0  0  0  0  0  0  0  0  0  0
   21.7491  -19.1518  -13.2378 C   0  0  2  0  0  0  0  0  0  0  0  0
   22.4871  -19.1668  -14.5638 C   0  0  0  0  0  0  0  0  0  0  0  0
   21.4007  -20.5718  -12.8853 C   0  0  2  0  0  0  0  0  0  0  0  0
   22.4770  -21.4234  -12.5322 N   0  0  0  0  0  0  0  0  0  0  0  0
   20.4793  -21.1438  -13.8710 C   0  0  0  0  0  0  0  0  0  0  0  0
   19.1162  -21.2592  -13.7717 O   0  0  0  0  0  0  0  0  0  0  0  0
   21.0602  -21.5806  -14.9445 O   0  0  0  0  0  0  0  0  0  0  0  0
  2  1  1  6
  3  4  1  0
  3  2  1  0
  4  5  2  0
  5  6  1  0
  7  6  2  0
  8  7  1  0
  9  4  1  0
  9  8  2  0
 10  2  1  0
 10 11  2  0
 12 10  1  0
 13 12  1  0
 13 14  1  1
 15 14  1  0
 15 16  1  0
 17 16  1  0
 17 18  1  0
 19 13  1  0
 20 19  2  0
 21 22  1  0
 22 23  1  0
 23 24  1  6
 25 23  1  0
 25 26  1  6
 26 19  1  0
 27 28  1  0
 27 25  1  0
 29 27  2  0
M  END
$$$$
