DLD.pdb
     RDKit          3D

 25 24  0  0  1  0  0  0  0  0999 V2000
    7.5749  -16.5372   22.0175 N   0  0  0  0  0  0  0  0  0  0  0  0
    8.9900  -16.0627   21.9764 C   0  0  1  0  0  0  0  0  0  0  0  0
    9.0284  -15.1511   20.7993 C   0  0  0  0  0  0  0  0  0  0  0  0
    8.9993  -15.7597   19.4816 C   0  0  0  0  0  0  0  0  0  0  0  0
    8.9250  -17.0082   19.3705 O   0  0  0  0  0  0  0  0  0  0  0  0
    9.3559  -15.4914   23.2699 C   0  0  0  0  0  0  0  0  0  0  0  0
   10.4727  -14.9852   23.5110 O   0  0  0  0  0  0  0  0  0  0  0  0
    9.0467  -15.0502   18.2842 O   0  0  0  0  0  0  0  0  0  0  0  0
    7.8819  -11.7815   25.5001 C   0  0  0  0  0  0  0  0  0  0  0  0
    7.0646  -13.0416   25.4925 C   0  0  2  0  0  0  0  0  0  0  0  0
    5.7534  -12.6873   26.2372 C   0  0  0  0  0  0  0  0  0  0  0  0
    7.6285  -14.2051   26.1677 C   0  0  0  0  0  0  0  0  0  0  0  0
    8.8397  -14.9064   25.6913 C   0  0  2  0  0  0  0  0  0  0  0  0
    8.4361  -15.4833   24.3482 N   0  0  0  0  0  0  0  0  0  0  0  0
    9.3177  -16.0616   26.4405 C   0  0  0  0  0  0  0  0  0  0  0  0
    9.6580  -15.8606   27.6720 O   0  0  0  0  0  0  0  0  0  0  0  0
    9.4420  -17.3725   25.9847 N   0  0  0  0  0  0  0  0  0  0  0  0
    9.9062  -18.4270   26.8589 C   0  0  1  0  0  0  0  0  0  0  0  0
    9.2224  -19.7502   26.5300 C   0  0  0  0  0  0  0  0  0  0  0  0
    7.7899  -19.7647   26.8441 C   0  0  0  0  0  0  0  0  0  0  0  0
    7.3860  -19.3803   27.9590 O   0  0  0  0  0  0  0  0  0  0  0  0
   11.3427  -18.5997   26.7779 C   0  0  0  0  0  0  0  0  0  0  0  0
   12.0551  -19.4740   27.5623 O   0  0  0  0  0  0  0  0  0  0  0  0
    6.8775  -20.2010   25.9090 O   0  0  0  0  0  0  0  0  0  0  0  0
   11.9885  -17.9174   25.9475 O   0  0  0  0  0  0  0  0  0  0  0  0
  2  1  1  1
  2  6  1  0
  2  3  1  0
  3  4  1  0
  4  5  2  0
  4  8  1  0
  6  7  2  0
 10  9  1  1
 10 12  1  0
 11 10  1  0
 13 12  1  1
 14 13  1  0
 14  6  1  0
 15 13  1  0
 16 15  2  0
 17 15  1  0
 18 17  1  0
 18 19  1  6
 19 20  1  0
 20 21  2  0
 22 18  1  0
 23 22  1  0
 24 20  1  0
 25 22  2  0
M  END
$$$$
