DLD.pdb
     RDKit          3D

 25 24  0  0  1  0  0  0  0  0999 V2000
    6.9101  -16.1433   21.2100 N   0  0  0  0  0  0  0  0  0  0  0  0
    8.3534  -15.7766   21.1028 C   0  0  1  0  0  0  0  0  0  0  0  0
    8.3903  -14.7881   19.9893 C   0  0  0  0  0  0  0  0  0  0  0  0
    8.1516  -15.2852   18.6464 C   0  0  0  0  0  0  0  0  0  0  0  0
    7.8573  -16.4930   18.4693 O   0  0  0  0  0  0  0  0  0  0  0  0
    8.8462  -15.3296   22.4030 C   0  0  0  0  0  0  0  0  0  0  0  0
   10.0184  -14.9452   22.6032 O   0  0  0  0  0  0  0  0  0  0  0  0
    8.2220  -14.5071   17.4936 O   0  0  0  0  0  0  0  0  0  0  0  0
    7.8198  -11.8364   25.7290 C   0  0  0  0  0  0  0  0  0  0  0  0
    6.8624  -12.9454   25.3982 C   0  0  2  0  0  0  0  0  0  0  0  0
    5.6665  -12.7601   26.3651 C   0  0  0  0  0  0  0  0  0  0  0  0
    7.3388  -14.3123   25.5785 C   0  0  0  0  0  0  0  0  0  0  0  0
    8.5255  -14.8519   24.8811 C   0  0  2  0  0  0  0  0  0  0  0  0
    7.9952  -15.3098   23.5362 N   0  0  0  0  0  0  0  0  0  0  0  0
    9.1754  -16.0379   25.4247 C   0  0  0  0  0  0  0  0  0  0  0  0
    8.4611  -17.1133   25.5019 O   0  0  0  0  0  0  0  0  0  0  0  0
   10.4924  -16.1534   25.8651 N   0  0  0  0  0  0  0  0  0  0  0  0
   11.0004  -17.4047   26.3826 C   0  0  1  0  0  0  0  0  0  0  0  0
   12.5014  -17.5271   26.1401 C   0  0  0  0  0  0  0  0  0  0  0  0
   12.8927  -17.2863   24.7474 C   0  0  0  0  0  0  0  0  0  0  0  0
   12.2396  -17.7917   23.8136 O   0  0  0  0  0  0  0  0  0  0  0  0
   10.7331  -17.5492   27.7994 C   0  0  0  0  0  0  0  0  0  0  0  0
   10.1821  -16.5621   28.5801 O   0  0  0  0  0  0  0  0  0  0  0  0
   13.9841  -16.4971   24.4583 O   0  0  0  0  0  0  0  0  0  0  0  0
   11.0165  -18.6337   28.3614 O   0  0  0  0  0  0  0  0  0  0  0  0
  2  1  1  1
  2  6  1  0
  2  3  1  0
  3  4  1  0
  4  5  2  0
  4  8  1  0
  6  7  2  0
 10  9  1  1
 10 12  1  0
 11 10  1  0
 13 12  1  1
 14 13  1  0
 14  6  1  0
 15 13  1  0
 16 15  2  0
 17 15  1  0
 18 17  1  0
 18 19  1  1
 19 20  1  0
 20 21  2  0
 22 18  1  0
 23 22  1  0
 24 20  1  0
 25 22  2  0
M  END
$$$$
