DLD.pdb
     RDKit          3D

 25 24  0  0  1  0  0  0  0  0999 V2000
    7.0855  -16.3944   21.4064 N   0  0  0  0  0  0  0  0  0  0  0  0
    8.5134  -15.9653   21.3281 C   0  0  1  0  0  0  0  0  0  0  0  0
    8.5157  -14.9191   20.2681 C   0  0  0  0  0  0  0  0  0  0  0  0
    8.4061  -15.3634   18.8904 C   0  0  0  0  0  0  0  0  0  0  0  0
    8.3441  -16.5906   18.6318 O   0  0  0  0  0  0  0  0  0  0  0  0
    8.9818  -15.5679   22.6532 C   0  0  0  0  0  0  0  0  0  0  0  0
   10.1628  -15.2419   22.9000 O   0  0  0  0  0  0  0  0  0  0  0  0
    8.3603  -14.5126   17.7889 O   0  0  0  0  0  0  0  0  0  0  0  0
    7.9688  -12.0387   25.9634 C   0  0  0  0  0  0  0  0  0  0  0  0
    7.0070  -13.1145   25.5469 C   0  0  2  0  0  0  0  0  0  0  0  0
    5.7337  -12.8813   26.3976 C   0  0  0  0  0  0  0  0  0  0  0  0
    7.4149  -14.4965   25.7735 C   0  0  0  0  0  0  0  0  0  0  0  0
    8.5951  -15.1064   25.1250 C   0  0  2  0  0  0  0  0  0  0  0  0
    8.0949  -15.5321   23.7581 N   0  0  0  0  0  0  0  0  0  0  0  0
    9.1497  -16.3290   25.6924 C   0  0  0  0  0  0  0  0  0  0  0  0
    8.3564  -17.3469   25.7780 O   0  0  0  0  0  0  0  0  0  0  0  0
   10.4503  -16.5356   26.1479 N   0  0  0  0  0  0  0  0  0  0  0  0
   10.8608  -17.8155   26.6819 C   0  0  1  0  0  0  0  0  0  0  0  0
   12.3026  -18.1312   26.2966 C   0  0  0  0  0  0  0  0  0  0  0  0
   12.5749  -17.9757   24.8641 C   0  0  0  0  0  0  0  0  0  0  0  0
   11.8118  -18.4837   24.0194 O   0  0  0  0  0  0  0  0  0  0  0  0
   10.7315  -17.8631   28.1244 C   0  0  0  0  0  0  0  0  0  0  0  0
   10.3836  -16.7832   28.8990 O   0  0  0  0  0  0  0  0  0  0  0  0
   13.6754  -17.2646   24.4387 O   0  0  0  0  0  0  0  0  0  0  0  0
   10.9472  -18.9475   28.7160 O   0  0  0  0  0  0  0  0  0  0  0  0
  2  1  1  1
  2  6  1  0
  2  3  1  0
  3  4  1  0
  4  5  2  0
  4  8  1  0
  6  7  2  0
 10  9  1  1
 10 12  1  0
 11 10  1  0
 13 12  1  1
 14 13  1  0
 14  6  1  0
 15 13  1  0
 16 15  2  0
 17 15  1  0
 18 17  1  0
 18 19  1  1
 19 20  1  0
 20 21  2  0
 22 18  1  0
 23 22  1  0
 24 20  1  0
 25 22  2  0
M  END
$$$$
