DLD.pdb
     RDKit          3D

 25 24  0  0  1  0  0  0  0  0999 V2000
    9.1811  -18.2697   18.6620 N   0  0  0  0  0  0  0  0  0  0  0  0
   10.5577  -17.6923   18.6305 C   0  0  1  0  0  0  0  0  0  0  0  0
   10.7574  -17.3194   17.2025 C   0  0  0  0  0  0  0  0  0  0  0  0
   10.7237  -18.3889   16.2215 C   0  0  0  0  0  0  0  0  0  0  0  0
   10.4223  -19.5549   16.5771 O   0  0  0  0  0  0  0  0  0  0  0  0
   10.6653  -16.6208   19.6172 C   0  0  0  0  0  0  0  0  0  0  0  0
   11.7214  -15.9915   19.8420 O   0  0  0  0  0  0  0  0  0  0  0  0
   11.0062  -18.2262   14.8676 O   0  0  0  0  0  0  0  0  0  0  0  0
    8.2105  -12.8496   19.4405 C   0  0  0  0  0  0  0  0  0  0  0  0
    7.6582  -14.0455   20.1621 C   0  0  2  0  0  0  0  0  0  0  0  0
    6.2140  -13.6545   20.5631 C   0  0  0  0  0  0  0  0  0  0  0  0
    8.3363  -14.4561   21.3866 C   0  0  0  0  0  0  0  0  0  0  0  0
    9.6675  -15.0992   21.3952 C   0  0  2  0  0  0  0  0  0  0  0  0
    9.5450  -16.2302   20.3924 N   0  0  0  0  0  0  0  0  0  0  0  0
   10.1165  -15.7584   22.6151 C   0  0  0  0  0  0  0  0  0  0  0  0
   10.2589  -15.0149   23.6637 O   0  0  0  0  0  0  0  0  0  0  0  0
   10.4026  -17.1111   22.7890 N   0  0  0  0  0  0  0  0  0  0  0  0
   10.9237  -17.6096   24.0427 C   0  0  1  0  0  0  0  0  0  0  0  0
   10.5401  -19.0711   24.2513 C   0  0  0  0  0  0  0  0  0  0  0  0
   11.0369  -19.6345   25.5108 C   0  0  0  0  0  0  0  0  0  0  0  0
   12.1928  -20.0957   25.5815 O   0  0  0  0  0  0  0  0  0  0  0  0
   12.3651  -17.4800   24.1158 C   0  0  0  0  0  0  0  0  0  0  0  0
   13.1976  -17.5529   23.0255 O   0  0  0  0  0  0  0  0  0  0  0  0
   10.2314  -19.6569   26.6280 O   0  0  0  0  0  0  0  0  0  0  0  0
   12.8998  -17.2902   25.2340 O   0  0  0  0  0  0  0  0  0  0  0  0
  2  1  1  6
  2  6  1  0
  2  3  1  0
  3  4  1  0
  4  5  2  0
  4  8  1  0
  6  7  2  0
 10  9  1  1
 10 12  1  0
 11 10  1  0
 13 12  1  1
 14 13  1  0
 14  6  1  0
 15 13  1  0
 16 15  2  0
 17 15  1  0
 18 17  1  0
 18 19  1  6
 19 20  1  0
 20 21  2  0
 22 18  1  0
 23 22  1  0
 24 20  1  0
 25 22  2  0
M  END
$$$$
