DLD.pdb
     RDKit          3D

 25 24  0  0  1  0  0  0  0  0999 V2000
    7.3626  -16.9632   21.5263 N   0  0  0  0  0  0  0  0  0  0  0  0
    8.8203  -16.7915   21.2530 C   0  0  1  0  0  0  0  0  0  0  0  0
    8.8733  -16.4169   19.8125 C   0  0  0  0  0  0  0  0  0  0  0  0
    8.4683  -17.4210   18.8455 C   0  0  0  0  0  0  0  0  0  0  0  0
    7.2484  -17.6237   18.6276 O   0  0  0  0  0  0  0  0  0  0  0  0
    9.3922  -15.8440   22.2062 C   0  0  0  0  0  0  0  0  0  0  0  0
   10.5795  -15.4559   22.1675 O   0  0  0  0  0  0  0  0  0  0  0  0
    9.3506  -18.2078   18.1094 O   0  0  0  0  0  0  0  0  0  0  0  0
    6.0139  -13.5569   26.0917 C   0  0  0  0  0  0  0  0  0  0  0  0
    7.5080  -13.4604   25.9721 C   0  0  2  0  0  0  0  0  0  0  0  0
    7.8871  -12.1061   26.6213 C   0  0  0  0  0  0  0  0  0  0  0  0
    8.0690  -13.4512   24.6257 C   0  0  0  0  0  0  0  0  0  0  0  0
    9.2090  -14.3009   24.2204 C   0  0  2  0  0  0  0  0  0  0  0  0
    8.6065  -15.3023   23.2541 N   0  0  0  0  0  0  0  0  0  0  0  0
    9.8544  -15.1311   25.2297 C   0  0  0  0  0  0  0  0  0  0  0  0
   10.5482  -14.5199   26.1340 O   0  0  0  0  0  0  0  0  0  0  0  0
    9.8022  -16.5190   25.3424 N   0  0  0  0  0  0  0  0  0  0  0  0
   10.5498  -17.2143   26.3667 C   0  0  1  0  0  0  0  0  0  0  0  0
    9.6150  -17.9540   27.3184 C   0  0  0  0  0  0  0  0  0  0  0  0
   10.3099  -18.6178   28.4261 C   0  0  0  0  0  0  0  0  0  0  0  0
   11.4759  -18.2922   28.7231 O   0  0  0  0  0  0  0  0  0  0  0  0
   11.4938  -18.1555   25.7985 C   0  0  0  0  0  0  0  0  0  0  0  0
   12.7610  -18.3602   26.2879 O   0  0  0  0  0  0  0  0  0  0  0  0
    9.6795  -19.6056   29.1502 O   0  0  0  0  0  0  0  0  0  0  0  0
   11.1487  -18.8307   24.7998 O   0  0  0  0  0  0  0  0  0  0  0  0
  2  1  1  1
  2  6  1  0
  2  3  1  0
  3  4  1  0
  4  5  2  0
  4  8  1  0
  6  7  2  0
 10  9  1  6
 10 12  1  0
 11 10  1  0
 13 12  1  1
 14 13  1  0
 14  6  1  0
 15 13  1  0
 16 15  2  0
 17 15  1  0
 18 17  1  0
 18 19  1  1
 19 20  1  0
 20 21  2  0
 22 18  1  0
 23 22  1  0
 24 20  1  0
 25 22  2  0
M  END
$$$$
