DLD.pdb
     RDKit          3D

 25 24  0  0  1  0  0  0  0  0999 V2000
    8.3871  -16.5759   20.7786 N   0  0  0  0  0  0  0  0  0  0  0  0
    9.6002  -17.0371   21.5168 C   0  0  1  0  0  0  0  0  0  0  0  0
   10.6857  -16.9709   20.4992 C   0  0  0  0  0  0  0  0  0  0  0  0
   10.3083  -17.1390   19.1076 C   0  0  0  0  0  0  0  0  0  0  0  0
    9.1274  -17.4475   18.8124 O   0  0  0  0  0  0  0  0  0  0  0  0
    9.7751  -16.2368   22.7261 C   0  0  0  0  0  0  0  0  0  0  0  0
   10.8856  -15.8344   23.1342 O   0  0  0  0  0  0  0  0  0  0  0  0
   11.1764  -16.9795   18.0304 O   0  0  0  0  0  0  0  0  0  0  0  0
    5.9858  -12.9637   26.3317 C   0  0  0  0  0  0  0  0  0  0  0  0
    7.3585  -13.5611   26.2103 C   0  0  2  0  0  0  0  0  0  0  0  0
    8.3341  -12.3580   26.2188 C   0  0  0  0  0  0  0  0  0  0  0  0
    7.6473  -14.3261   25.0024 C   0  0  0  0  0  0  0  0  0  0  0  0
    8.8701  -15.1400   24.8356 C   0  0  2  0  0  0  0  0  0  0  0  0
    8.6616  -15.8667   23.5210 N   0  0  0  0  0  0  0  0  0  0  0  0
    9.1326  -16.2095   25.7904 C   0  0  0  0  0  0  0  0  0  0  0  0
    8.2343  -17.1341   25.8952 O   0  0  0  0  0  0  0  0  0  0  0  0
   10.2539  -16.3605   26.6037 N   0  0  0  0  0  0  0  0  0  0  0  0
   10.4099  -17.5200   27.4540 C   0  0  1  0  0  0  0  0  0  0  0  0
   11.8144  -18.1024   27.3315 C   0  0  0  0  0  0  0  0  0  0  0  0
   12.0742  -18.7411   26.0372 C   0  0  0  0  0  0  0  0  0  0  0  0
   11.1867  -18.7753   25.1626 O   0  0  0  0  0  0  0  0  0  0  0  0
   10.1429  -17.2080   28.8436 C   0  0  0  0  0  0  0  0  0  0  0  0
   10.0104  -18.1548   29.8302 O   0  0  0  0  0  0  0  0  0  0  0  0
   13.3025  -19.3070   25.7752 O   0  0  0  0  0  0  0  0  0  0  0  0
   10.0223  -16.0066   29.1820 O   0  0  0  0  0  0  0  0  0  0  0  0
  2  1  1  6
  2  6  1  0
  2  3  1  0
  3  4  1  0
  4  5  2  0
  4  8  1  0
  6  7  2  0
 10  9  1  6
 10 12  1  0
 11 10  1  0
 13 12  1  1
 14 13  1  0
 14  6  1  0
 15 13  1  0
 16 15  2  0
 17 15  1  0
 18 17  1  0
 18 19  1  1
 19 20  1  0
 20 21  2  0
 22 18  1  0
 23 22  1  0
 24 20  1  0
 25 22  2  0
M  END
$$$$
