DLD.pdb
     RDKit          3D

 25 24  0  0  1  0  0  0  0  0999 V2000
    7.0275  -16.2223   21.2279 N   0  0  0  0  0  0  0  0  0  0  0  0
    8.5084  -16.0324   21.2382 C   0  0  1  0  0  0  0  0  0  0  0  0
    8.7557  -15.0807   20.1197 C   0  0  0  0  0  0  0  0  0  0  0  0
    8.4907  -15.5503   18.7718 C   0  0  0  0  0  0  0  0  0  0  0  0
    8.0344  -16.7060   18.5902 O   0  0  0  0  0  0  0  0  0  0  0  0
    8.9428  -15.6182   22.5698 C   0  0  0  0  0  0  0  0  0  0  0  0
   10.1243  -15.3233   22.8510 O   0  0  0  0  0  0  0  0  0  0  0  0
    8.7058  -14.7996   17.6187 O   0  0  0  0  0  0  0  0  0  0  0  0
    8.1218  -11.9409   25.6907 C   0  0  0  0  0  0  0  0  0  0  0  0
    7.0823  -12.9376   25.2640 C   0  0  2  0  0  0  0  0  0  0  0  0
    5.7944  -12.5437   26.0292 C   0  0  0  0  0  0  0  0  0  0  0  0
    7.3393  -14.3404   25.5707 C   0  0  0  0  0  0  0  0  0  0  0  0
    8.4860  -15.0908   25.0163 C   0  0  2  0  0  0  0  0  0  0  0  0
    8.0195  -15.5283   23.6412 N   0  0  0  0  0  0  0  0  0  0  0  0
    8.8855  -16.3341   25.6636 C   0  0  0  0  0  0  0  0  0  0  0  0
    8.0247  -17.2994   25.6588 O   0  0  0  0  0  0  0  0  0  0  0  0
   10.1022  -16.6114   26.2837 N   0  0  0  0  0  0  0  0  0  0  0  0
   10.3844  -17.9235   26.8226 C   0  0  1  0  0  0  0  0  0  0  0  0
   11.5456  -18.5800   26.0827 C   0  0  0  0  0  0  0  0  0  0  0  0
   11.9643  -19.8593   26.6646 C   0  0  0  0  0  0  0  0  0  0  0  0
   11.1168  -20.7252   26.9575 O   0  0  0  0  0  0  0  0  0  0  0  0
   10.6908  -17.8693   28.2379 C   0  0  0  0  0  0  0  0  0  0  0  0
   10.5143  -18.9232   29.1014 O   0  0  0  0  0  0  0  0  0  0  0  0
   13.2985  -20.1168   26.8906 O   0  0  0  0  0  0  0  0  0  0  0  0
   11.1443  -16.8037   28.7187 O   0  0  0  0  0  0  0  0  0  0  0  0
  2  1  1  1
  2  6  1  0
  2  3  1  0
  3  4  1  0
  4  5  2  0
  4  8  1  0
  6  7  2  0
 10  9  1  1
 10 12  1  0
 11 10  1  0
 13 12  1  1
 14 13  1  0
 14  6  1  0
 15 13  1  0
 16 15  2  0
 17 15  1  0
 18 17  1  0
 18 19  1  6
 19 20  1  0
 20 21  2  0
 22 18  1  0
 23 22  1  0
 24 20  1  0
 25 22  2  0
M  END
$$$$
