DLD.pdb
     RDKit          3D

 25 24  0  0  1  0  0  0  0  0999 V2000
    7.2523  -16.6921   21.6697 N   0  0  0  0  0  0  0  0  0  0  0  0
    8.6588  -16.2507   21.4329 C   0  0  1  0  0  0  0  0  0  0  0  0
    8.5699  -15.4143   20.2038 C   0  0  0  0  0  0  0  0  0  0  0  0
    8.1911  -16.0783   18.9697 C   0  0  0  0  0  0  0  0  0  0  0  0
    7.7404  -17.2499   19.0023 O   0  0  0  0  0  0  0  0  0  0  0  0
    9.1828  -15.6086   22.6356 C   0  0  0  0  0  0  0  0  0  0  0  0
   10.3307  -15.1207   22.7146 O   0  0  0  0  0  0  0  0  0  0  0  0
    8.2868  -15.5048   17.7042 O   0  0  0  0  0  0  0  0  0  0  0  0
    7.5528  -11.9664   24.8611 C   0  0  0  0  0  0  0  0  0  0  0  0
    6.9421  -13.3051   25.1627 C   0  0  2  0  0  0  0  0  0  0  0  0
    5.8118  -13.0223   26.1834 C   0  0  0  0  0  0  0  0  0  0  0  0
    7.8088  -14.3117   25.7655 C   0  0  0  0  0  0  0  0  0  0  0  0
    8.9749  -14.8947   25.0685 C   0  0  2  0  0  0  0  0  0  0  0  0
    8.3931  -15.5045   23.8078 N   0  0  0  0  0  0  0  0  0  0  0  0
    9.6837  -16.0012   25.6991 C   0  0  0  0  0  0  0  0  0  0  0  0
   10.1179  -15.8085   26.9021 O   0  0  0  0  0  0  0  0  0  0  0  0
    9.9415  -17.2587   25.1570 N   0  0  0  0  0  0  0  0  0  0  0  0
   10.7550  -18.2243   25.8624 C   0  0  1  0  0  0  0  0  0  0  0  0
   10.3050  -19.6484   25.5524 C   0  0  0  0  0  0  0  0  0  0  0  0
   11.1278  -20.6774   26.1966 C   0  0  0  0  0  0  0  0  0  0  0  0
   11.7308  -20.4276   27.2586 O   0  0  0  0  0  0  0  0  0  0  0  0
   12.1597  -18.0862   25.5345 C   0  0  0  0  0  0  0  0  0  0  0  0
   13.1819  -18.3585   26.4110 O   0  0  0  0  0  0  0  0  0  0  0  0
   11.2396  -21.9303   25.6352 O   0  0  0  0  0  0  0  0  0  0  0  0
   12.4777  -17.6952   24.3863 O   0  0  0  0  0  0  0  0  0  0  0  0
  2  1  1  1
  2  6  1  0
  2  3  1  0
  3  4  1  0
  4  5  2  0
  4  8  1  0
  6  7  2  0
 10  9  1  1
 10 12  1  0
 11 10  1  0
 13 12  1  1
 14 13  1  0
 14  6  1  0
 15 13  1  0
 16 15  2  0
 17 15  1  0
 18 17  1  0
 18 19  1  6
 19 20  1  0
 20 21  2  0
 22 18  1  0
 23 22  1  0
 24 20  1  0
 25 22  2  0
M  END
$$$$
