DLD.pdb
     RDKit          3D

 25 24  0  0  1  0  0  0  0  0999 V2000
    6.9368  -15.9951   21.1503 N   0  0  0  0  0  0  0  0  0  0  0  0
    8.3526  -15.5288   21.0660 C   0  0  1  0  0  0  0  0  0  0  0  0
    8.3203  -14.4728   20.0163 C   0  0  0  0  0  0  0  0  0  0  0  0
    8.1536  -14.9036   18.6400 C   0  0  0  0  0  0  0  0  0  0  0  0
    8.0066  -16.1231   18.3795 O   0  0  0  0  0  0  0  0  0  0  0  0
    8.8206  -15.1322   22.3915 C   0  0  0  0  0  0  0  0  0  0  0  0
   10.0029  -14.8124   22.6402 O   0  0  0  0  0  0  0  0  0  0  0  0
    8.1404  -14.0472   17.5419 O   0  0  0  0  0  0  0  0  0  0  0  0
    7.8839  -11.7713   26.0578 C   0  0  0  0  0  0  0  0  0  0  0  0
    6.9208  -12.7702   25.4826 C   0  0  2  0  0  0  0  0  0  0  0  0
    5.6110  -12.5928   26.2903 C   0  0  0  0  0  0  0  0  0  0  0  0
    7.2855  -14.1792   25.5801 C   0  0  0  0  0  0  0  0  0  0  0  0
    8.4507  -14.7616   24.8811 C   0  0  2  0  0  0  0  0  0  0  0  0
    7.9317  -15.0900   23.4945 N   0  0  0  0  0  0  0  0  0  0  0  0
    8.9929  -16.0262   25.3618 C   0  0  0  0  0  0  0  0  0  0  0  0
    8.2803  -17.0853   25.1539 O   0  0  0  0  0  0  0  0  0  0  0  0
   10.2060  -16.2319   26.0159 N   0  0  0  0  0  0  0  0  0  0  0  0
   10.6864  -17.5667   26.2974 C   0  0  1  0  0  0  0  0  0  0  0  0
   12.0781  -17.7816   25.7110 C   0  0  0  0  0  0  0  0  0  0  0  0
   12.6466  -19.0986   26.0158 C   0  0  0  0  0  0  0  0  0  0  0  0
   13.5205  -19.2186   26.8965 O   0  0  0  0  0  0  0  0  0  0  0  0
   10.7220  -17.8366   27.7207 C   0  0  0  0  0  0  0  0  0  0  0  0
   10.5457  -16.8768   28.6876 O   0  0  0  0  0  0  0  0  0  0  0  0
   12.2181  -20.2156   25.3331 O   0  0  0  0  0  0  0  0  0  0  0  0
   10.9252  -19.0114   28.1091 O   0  0  0  0  0  0  0  0  0  0  0  0
  2  1  1  1
  2  6  1  0
  2  3  1  0
  3  4  1  0
  4  5  2  0
  4  8  1  0
  6  7  2  0
 10  9  1  1
 10 12  1  0
 11 10  1  0
 13 12  1  1
 14 13  1  0
 14  6  1  0
 15 13  1  0
 16 15  2  0
 17 15  1  0
 18 17  1  0
 18 19  1  1
 19 20  1  0
 20 21  2  0
 22 18  1  0
 23 22  1  0
 24 20  1  0
 25 22  2  0
M  END
$$$$
