DLD.pdb
     RDKit          3D

 25 24  0  0  1  0  0  0  0  0999 V2000
    9.0822  -17.2371   15.4255 N   0  0  0  0  0  0  0  0  0  0  0  0
   10.5383  -16.9971   15.6520 C   0  0  1  0  0  0  0  0  0  0  0  0
   11.0148  -16.4362   14.3572 C   0  0  0  0  0  0  0  0  0  0  0  0
   10.4035  -16.9454   13.1430 C   0  0  0  0  0  0  0  0  0  0  0  0
   10.1090  -18.1628   13.0537 O   0  0  0  0  0  0  0  0  0  0  0  0
   10.7222  -16.1693   16.8412 C   0  0  0  0  0  0  0  0  0  0  0  0
   11.8247  -15.6952   17.1898 O   0  0  0  0  0  0  0  0  0  0  0  0
   10.1025  -16.1694   12.0264 O   0  0  0  0  0  0  0  0  0  0  0  0
    6.6693  -13.4101   20.6389 C   0  0  0  0  0  0  0  0  0  0  0  0
    8.1222  -13.5932   20.3045 C   0  0  2  0  0  0  0  0  0  0  0  0
    8.6549  -12.1734   19.9889 C   0  0  0  0  0  0  0  0  0  0  0  0
    8.4398  -14.4260   19.1497 C   0  0  0  0  0  0  0  0  0  0  0  0
    9.8089  -14.8915   18.8425 C   0  0  2  0  0  0  0  0  0  0  0  0
    9.6277  -15.8539   17.6846 N   0  0  0  0  0  0  0  0  0  0  0  0
   10.5206  -15.6763   19.8434 C   0  0  0  0  0  0  0  0  0  0  0  0
   10.2356  -16.9361   19.9105 O   0  0  0  0  0  0  0  0  0  0  0  0
   11.4897  -15.2267   20.7381 N   0  0  0  0  0  0  0  0  0  0  0  0
   12.1566  -16.1405   21.6391 C   0  0  1  0  0  0  0  0  0  0  0  0
   13.5740  -15.6678   21.9464 C   0  0  0  0  0  0  0  0  0  0  0  0
   14.3119  -16.5667   22.8398 C   0  0  0  0  0  0  0  0  0  0  0  0
   14.7129  -16.1625   23.9487 O   0  0  0  0  0  0  0  0  0  0  0  0
   11.4274  -16.2996   22.8811 C   0  0  0  0  0  0  0  0  0  0  0  0
   11.4467  -17.4445   23.6402 O   0  0  0  0  0  0  0  0  0  0  0  0
   14.5664  -17.8669   22.4627 O   0  0  0  0  0  0  0  0  0  0  0  0
   10.7320  -15.3446   23.3015 O   0  0  0  0  0  0  0  0  0  0  0  0
  2  1  1  6
  2  6  1  0
  2  3  1  0
  3  4  1  0
  4  5  2  0
  4  8  1  0
  6  7  2  0
 10  9  1  6
 10 12  1  0
 11 10  1  0
 13 12  1  1
 14 13  1  0
 14  6  1  0
 15 13  1  0
 16 15  2  0
 17 15  1  0
 18 17  1  0
 18 19  1  1
 19 20  1  0
 20 21  2  0
 22 18  1  0
 23 22  1  0
 24 20  1  0
 25 22  2  0
M  END
$$$$
