DLD.pdb
     RDKit          3D

 25 24  0  0  1  0  0  0  0  0999 V2000
    8.8961  -15.4086   20.2713 N   0  0  0  0  0  0  0  0  0  0  0  0
    8.0753  -15.8888   21.4223 C   0  0  1  0  0  0  0  0  0  0  0  0
    8.0918  -17.3713   21.2806 C   0  0  0  0  0  0  0  0  0  0  0  0
    7.4424  -17.9381   20.1125 C   0  0  0  0  0  0  0  0  0  0  0  0
    8.1288  -18.2735   19.1160 O   0  0  0  0  0  0  0  0  0  0  0  0
    8.6015  -15.3357   22.6675 C   0  0  0  0  0  0  0  0  0  0  0  0
    9.8079  -15.0639   22.8479 O   0  0  0  0  0  0  0  0  0  0  0  0
    6.0710  -18.1516   19.9986 O   0  0  0  0  0  0  0  0  0  0  0  0
    7.8924  -11.4338   25.7252 C   0  0  0  0  0  0  0  0  0  0  0  0
    6.8569  -12.4778   25.4190 C   0  0  2  0  0  0  0  0  0  0  0  0
    5.6343  -12.1165   26.2988 C   0  0  0  0  0  0  0  0  0  0  0  0
    7.1976  -13.8631   25.7238 C   0  0  0  0  0  0  0  0  0  0  0  0
    8.3195  -14.5787   25.0798 C   0  0  2  0  0  0  0  0  0  0  0  0
    7.7455  -15.0728   23.7660 N   0  0  0  0  0  0  0  0  0  0  0  0
    8.8338  -15.7858   25.7146 C   0  0  0  0  0  0  0  0  0  0  0  0
    8.0813  -16.8367   25.6697 O   0  0  0  0  0  0  0  0  0  0  0  0
   10.0580  -15.9452   26.3608 N   0  0  0  0  0  0  0  0  0  0  0  0
   10.4680  -17.2321   26.8782 C   0  0  1  0  0  0  0  0  0  0  0  0
   11.8095  -17.6558   26.2887 C   0  0  0  0  0  0  0  0  0  0  0  0
   11.8897  -19.0875   25.9813 C   0  0  0  0  0  0  0  0  0  0  0  0
   11.8386  -19.9318   26.8968 O   0  0  0  0  0  0  0  0  0  0  0  0
   10.5636  -17.2249   28.3241 C   0  0  0  0  0  0  0  0  0  0  0  0
   10.7426  -18.3539   29.0861 O   0  0  0  0  0  0  0  0  0  0  0  0
   12.0197  -19.5123   24.6774 O   0  0  0  0  0  0  0  0  0  0  0  0
   10.4793  -16.1308   28.9309 O   0  0  0  0  0  0  0  0  0  0  0  0
  2  1  1  6
  2  6  1  0
  2  3  1  0
  3  4  1  0
  4  5  2  0
  4  8  1  0
  6  7  2  0
 10  9  1  1
 10 12  1  0
 11 10  1  0
 13 12  1  1
 14 13  1  0
 14  6  1  0
 15 13  1  0
 16 15  2  0
 17 15  1  0
 18 17  1  0
 18 19  1  6
 19 20  1  0
 20 21  2  0
 22 18  1  0
 23 22  1  0
 24 20  1  0
 25 22  2  0
M  END
$$$$
