DLD.pdb
     RDKit          3D

 25 24  0  0  1  0  0  0  0  0999 V2000
    7.0626  -16.5541   21.4640 N   0  0  0  0  0  0  0  0  0  0  0  0
    8.4528  -16.0274   21.3259 C   0  0  1  0  0  0  0  0  0  0  0  0
    8.3823  -15.1378   20.1335 C   0  0  0  0  0  0  0  0  0  0  0  0
    8.2438  -15.7711   18.8346 C   0  0  0  0  0  0  0  0  0  0  0  0
    7.8429  -16.9586   18.7569 O   0  0  0  0  0  0  0  0  0  0  0  0
    8.8762  -15.4180   22.5839 C   0  0  0  0  0  0  0  0  0  0  0  0
    9.9535  -14.8004   22.7249 O   0  0  0  0  0  0  0  0  0  0  0  0
    8.5266  -15.1503   17.6205 O   0  0  0  0  0  0  0  0  0  0  0  0
    7.9167  -11.7986   25.7708 C   0  0  0  0  0  0  0  0  0  0  0  0
    6.9420  -12.8576   25.3411 C   0  0  2  0  0  0  0  0  0  0  0  0
    5.6496  -12.5809   26.1490 C   0  0  0  0  0  0  0  0  0  0  0  0
    7.3092  -14.2452   25.6006 C   0  0  0  0  0  0  0  0  0  0  0  0
    8.5253  -14.8758   25.0446 C   0  0  2  0  0  0  0  0  0  0  0  0
    8.0632  -15.4997   23.7419 N   0  0  0  0  0  0  0  0  0  0  0  0
    9.1305  -15.9855   25.7703 C   0  0  0  0  0  0  0  0  0  0  0  0
    9.5955  -15.7293   26.9497 O   0  0  0  0  0  0  0  0  0  0  0  0
    9.2582  -17.3057   25.3432 N   0  0  0  0  0  0  0  0  0  0  0  0
   10.3666  -18.1276   25.7765 C   0  0  1  0  0  0  0  0  0  0  0  0
   11.6812  -17.6271   25.1867 C   0  0  0  0  0  0  0  0  0  0  0  0
   12.8473  -18.4153   25.5988 C   0  0  0  0  0  0  0  0  0  0  0  0
   12.7164  -19.3618   26.3992 O   0  0  0  0  0  0  0  0  0  0  0  0
   10.4759  -18.1652   27.2209 C   0  0  0  0  0  0  0  0  0  0  0  0
   10.4915  -19.3241   27.9586 O   0  0  0  0  0  0  0  0  0  0  0  0
   14.0977  -18.1183   25.1030 O   0  0  0  0  0  0  0  0  0  0  0  0
   10.5618  -17.0839   27.8499 O   0  0  0  0  0  0  0  0  0  0  0  0
  2  1  1  1
  2  6  1  0
  2  3  1  0
  3  4  1  0
  4  5  2  0
  4  8  1  0
  6  7  2  0
 10  9  1  1
 10 12  1  0
 11 10  1  0
 13 12  1  1
 14 13  1  0
 14  6  1  0
 15 13  1  0
 16 15  2  0
 17 15  1  0
 18 17  1  0
 18 19  1  6
 19 20  1  0
 20 21  2  0
 22 18  1  0
 23 22  1  0
 24 20  1  0
 25 22  2  0
M  END
$$$$
