DLD.pdb
     RDKit          3D

 25 24  0  0  1  0  0  0  0  0999 V2000
    9.1259  -15.1524   20.3900 N   0  0  0  0  0  0  0  0  0  0  0  0
    8.4090  -15.9360   21.4393 C   0  0  1  0  0  0  0  0  0  0  0  0
    8.6139  -17.3535   21.0308 C   0  0  0  0  0  0  0  0  0  0  0  0
    8.0644  -17.7665   19.7521 C   0  0  0  0  0  0  0  0  0  0  0  0
    6.8629  -17.5239   19.4797 O   0  0  0  0  0  0  0  0  0  0  0  0
    8.8955  -15.5498   22.7613 C   0  0  0  0  0  0  0  0  0  0  0  0
   10.0948  -15.3033   23.0117 O   0  0  0  0  0  0  0  0  0  0  0  0
    8.7836  -18.4327   18.7631 O   0  0  0  0  0  0  0  0  0  0  0  0
    8.1482  -11.9023   25.9634 C   0  0  0  0  0  0  0  0  0  0  0  0
    7.0916  -12.9040   25.5943 C   0  0  2  0  0  0  0  0  0  0  0  0
    5.8618  -12.5462   26.4655 C   0  0  0  0  0  0  0  0  0  0  0  0
    7.3893  -14.3095   25.8470 C   0  0  0  0  0  0  0  0  0  0  0  0
    8.5257  -15.0188   25.2216 C   0  0  2  0  0  0  0  0  0  0  0  0
    8.0060  -15.4330   23.8585 N   0  0  0  0  0  0  0  0  0  0  0  0
    8.9823  -16.2680   25.8178 C   0  0  0  0  0  0  0  0  0  0  0  0
    8.0754  -17.1413   26.1137 O   0  0  0  0  0  0  0  0  0  0  0  0
   10.2953  -16.6402   26.0992 N   0  0  0  0  0  0  0  0  0  0  0  0
   10.5925  -17.8953   26.7536 C   0  0  1  0  0  0  0  0  0  0  0  0
   11.9416  -18.4427   26.2987 C   0  0  0  0  0  0  0  0  0  0  0  0
   12.1303  -18.4054   24.8448 C   0  0  0  0  0  0  0  0  0  0  0  0
   11.5474  -19.2292   24.1131 O   0  0  0  0  0  0  0  0  0  0  0  0
   10.5940  -17.7625   28.1966 C   0  0  0  0  0  0  0  0  0  0  0  0
   10.4365  -16.5680   28.8567 O   0  0  0  0  0  0  0  0  0  0  0  0
   12.9514  -17.4579   24.2744 O   0  0  0  0  0  0  0  0  0  0  0  0
   10.7477  -18.7899   28.8989 O   0  0  0  0  0  0  0  0  0  0  0  0
  2  1  1  6
  2  6  1  0
  2  3  1  0
  3  4  1  0
  4  5  2  0
  4  8  1  0
  6  7  2  0
 10  9  1  1
 10 12  1  0
 11 10  1  0
 13 12  1  1
 14 13  1  0
 14  6  1  0
 15 13  1  0
 16 15  2  0
 17 15  1  0
 18 17  1  0
 18 19  1  6
 19 20  1  0
 20 21  2  0
 22 18  1  0
 23 22  1  0
 24 20  1  0
 25 22  2  0
M  END
$$$$
