DLD.pdb
     RDKit          3D

 25 24  0  0  1  0  0  0  0  0999 V2000
    9.0855  -15.9122   20.8927 N   0  0  0  0  0  0  0  0  0  0  0  0
    8.4844  -16.4027   22.1683 C   0  0  1  0  0  0  0  0  0  0  0  0
    8.8424  -17.8480   22.2008 C   0  0  0  0  0  0  0  0  0  0  0  0
    8.3230  -18.6892   21.1377 C   0  0  0  0  0  0  0  0  0  0  0  0
    7.0930  -18.6906   20.8853 O   0  0  0  0  0  0  0  0  0  0  0  0
    8.9496  -15.5790   23.2812 C   0  0  0  0  0  0  0  0  0  0  0  0
   10.1197  -15.1522   23.3834 O   0  0  0  0  0  0  0  0  0  0  0  0
    9.1022  -19.5254   20.3421 O   0  0  0  0  0  0  0  0  0  0  0  0
    7.4486  -11.4090   25.0713 C   0  0  0  0  0  0  0  0  0  0  0  0
    6.6780  -12.6685   25.3469 C   0  0  2  0  0  0  0  0  0  0  0  0
    5.4989  -12.2400   26.2555 C   0  0  0  0  0  0  0  0  0  0  0  0
    7.3795  -13.7384   26.0477 C   0  0  0  0  0  0  0  0  0  0  0  0
    8.5845  -14.4027   25.5071 C   0  0  2  0  0  0  0  0  0  0  0  0
    8.0720  -15.2127   24.3320 N   0  0  0  0  0  0  0  0  0  0  0  0
    9.2722  -15.3840   26.3369 C   0  0  0  0  0  0  0  0  0  0  0  0
    9.7645  -14.9620   27.4560 O   0  0  0  0  0  0  0  0  0  0  0  0
    9.4539  -16.7393   26.0687 N   0  0  0  0  0  0  0  0  0  0  0  0
   10.2030  -17.5859   26.9708 C   0  0  1  0  0  0  0  0  0  0  0  0
    9.3975  -18.8231   27.3545 C   0  0  0  0  0  0  0  0  0  0  0  0
   10.0245  -19.6286   28.4075 C   0  0  0  0  0  0  0  0  0  0  0  0
   11.1318  -19.2999   28.8763 O   0  0  0  0  0  0  0  0  0  0  0  0
   11.4670  -17.9995   26.3957 C   0  0  0  0  0  0  0  0  0  0  0  0
   11.6199  -18.4052   25.0921 O   0  0  0  0  0  0  0  0  0  0  0  0
    9.3944  -20.7545   28.8898 O   0  0  0  0  0  0  0  0  0  0  0  0
   12.4919  -17.9928   27.1182 O   0  0  0  0  0  0  0  0  0  0  0  0
  2  1  1  6
  2  6  1  0
  2  3  1  0
  3  4  1  0
  4  5  2  0
  4  8  1  0
  6  7  2  0
 10  9  1  1
 10 12  1  0
 11 10  1  0
 13 12  1  1
 14 13  1  0
 14  6  1  0
 15 13  1  0
 16 15  2  0
 17 15  1  0
 18 17  1  0
 18 19  1  6
 19 20  1  0
 20 21  2  0
 22 18  1  0
 23 22  1  0
 24 20  1  0
 25 22  2  0
M  END
$$$$
