CMT.pdb
     RDKit          3D

 22 21  0  0  1  0  0  0  0  0999 V2000
   22.6415  -15.7246  -19.3491 N   0  0  0  0  0  0  0  0  0  0  0  0
   22.7164  -14.3180  -19.6348 C   0  0  1  0  0  0  0  0  0  0  0  0
   21.4388  -13.8863  -20.3542 C   0  0  0  0  0  0  0  0  0  0  0  0
   21.4051  -14.6219  -21.9916 S   0  0  0  0  0  0  0  0  0  0  0  0
   22.8581  -13.5005  -18.3781 C   0  0  0  0  0  0  0  0  0  0  0  0
   22.0965  -13.7741  -17.4283 O   0  0  0  0  0  0  0  0  0  0  0  0
   25.7169  -13.7847  -14.6150 C   0  0  0  0  0  0  0  0  0  0  0  0
   26.9704  -12.6605  -15.3272 S   0  0  0  0  0  0  0  0  0  0  0  0
   26.4936  -12.3599  -17.0527 C   0  0  0  0  0  0  0  0  0  0  0  0
   25.5357  -11.1974  -17.0576 C   0  0  0  0  0  0  0  0  0  0  0  0
   24.0795  -11.6355  -17.1628 C   0  0  2  0  0  0  0  0  0  0  0  0
   23.8231  -12.4734  -18.3094 N   0  0  0  0  0  0  0  0  0  0  0  0
   23.2381  -10.4439  -17.1350 C   0  0  0  0  0  0  0  0  0  0  0  0
   23.3028   -9.6758  -18.1547 O   0  0  0  0  0  0  0  0  0  0  0  0
   19.2983   -7.9363  -15.7937 C   0  0  0  0  0  0  0  0  0  0  0  0
   20.1146   -9.2016  -15.7141 C   0  0  1  0  0  0  0  0  0  0  0  0
   19.5449  -10.2088  -16.4558 O   0  0  0  0  0  0  0  0  0  0  0  0
   21.5038   -8.9298  -16.2503 C   0  0  2  0  0  0  0  0  0  0  0  0
   22.3752  -10.0675  -16.1058 N   0  0  0  0  0  0  0  0  0  0  0  0
   22.1342   -7.7611  -15.5653 C   0  0  0  0  0  0  0  0  0  0  0  0
   21.8573   -6.4623  -15.9806 O   0  0  0  0  0  0  0  0  0  0  0  0
   22.9229   -7.9236  -14.6054 O   0  0  0  0  0  0  0  0  0  0  0  0
  2  1  1  1
  2  5  1  0
  3  2  1  0
  3  4  1  0
  5  6  2  0
  8  7  1  0
  8  9  1  0
  9 10  1  0
 11 10  1  6
 11 13  1  0
 12  5  1  0
 12 11  1  0
 13 14  2  0
 13 19  1  0
 16 15  1  6
 16 17  1  0
 18 16  1  0
 18 20  1  0
 18 19  1  1
 20 21  1  0
 22 20  2  0
M  END
$$$$
