CMT.pdb
     RDKit          3D

 22 21  0  0  1  0  0  0  0  0999 V2000
   21.2182  -11.0149  -16.1105 N   0  0  0  0  0  0  0  0  0  0  0  0
   20.9723  -10.0000  -15.1230 C   0  0  1  0  0  0  0  0  0  0  0  0
   22.1385   -9.0119  -15.1222 C   0  0  0  0  0  0  0  0  0  0  0  0
   23.5723   -9.7903  -14.3728 S   0  0  0  0  0  0  0  0  0  0  0  0
   19.7025   -9.2420  -15.4066 C   0  0  0  0  0  0  0  0  0  0  0  0
   19.3785   -9.0949  -16.6027 O   0  0  0  0  0  0  0  0  0  0  0  0
   16.2473  -10.4337  -10.5088 C   0  0  0  0  0  0  0  0  0  0  0  0
   15.1551  -10.0712  -11.9294 S   0  0  0  0  0  0  0  0  0  0  0  0
   16.2279   -9.8177  -13.3716 C   0  0  0  0  0  0  0  0  0  0  0  0
   16.6959   -8.3864  -13.3367 C   0  0  0  0  0  0  0  0  0  0  0  0
   17.6633   -8.0560  -14.4673 C   0  0  2  0  0  0  0  0  0  0  0  0
   18.9323   -8.7313  -14.3403 N   0  0  0  0  0  0  0  0  0  0  0  0
   17.8010   -6.6056  -14.5451 C   0  0  0  0  0  0  0  0  0  0  0  0
   18.5209   -6.0518  -13.6457 O   0  0  0  0  0  0  0  0  0  0  0  0
   18.3603   -4.2532  -17.8532 C   0  0  0  0  0  0  0  0  0  0  0  0
   17.2919   -3.7639  -16.9084 C   0  0  1  0  0  0  0  0  0  0  0  0
   16.0396   -4.1295  -17.3410 O   0  0  0  0  0  0  0  0  0  0  0  0
   17.5276   -4.3652  -15.5394 C   0  0  2  0  0  0  0  0  0  0  0  0
   17.2238   -5.7726  -15.5035 N   0  0  0  0  0  0  0  0  0  0  0  0
   16.7109   -3.6781  -14.4937 C   0  0  0  0  0  0  0  0  0  0  0  0
   17.0423   -2.3968  -14.0641 O   0  0  0  0  0  0  0  0  0  0  0  0
   15.7135   -4.2380  -13.9822 O   0  0  0  0  0  0  0  0  0  0  0  0
  2  1  1  6
  2  5  1  0
  3  2  1  0
  3  4  1  0
  5  6  2  0
  8  7  1  0
  8  9  1  0
  9 10  1  0
 11 10  1  1
 11 13  1  0
 12  5  1  0
 12 11  1  0
 13 14  2  0
 13 19  1  0
 16 15  1  6
 16 17  1  0
 18 16  1  0
 18 20  1  0
 18 19  1  6
 20 21  1  0
 22 20  2  0
M  END
$$$$
