CMT.pdb
     RDKit          3D

 22 21  0  0  1  0  0  0  0  0999 V2000
   28.6371  -21.0026  -16.2486 N   0  0  0  0  0  0  0  0  0  0  0  0
   28.0210  -20.0844  -15.3305 C   0  0  1  0  0  0  0  0  0  0  0  0
   27.4758  -18.8887  -16.1112 C   0  0  0  0  0  0  0  0  0  0  0  0
   28.8338  -17.7978  -16.5460 S   0  0  0  0  0  0  0  0  0  0  0  0
   26.8837  -20.7251  -14.5798 C   0  0  0  0  0  0  0  0  0  0  0  0
   26.1720  -21.5382  -15.2038 O   0  0  0  0  0  0  0  0  0  0  0  0
   26.7534  -20.2151   -8.2790 C   0  0  0  0  0  0  0  0  0  0  0  0
   24.9722  -20.6181   -8.3634 S   0  0  0  0  0  0  0  0  0  0  0  0
   24.6126  -21.0732  -10.0835 C   0  0  0  0  0  0  0  0  0  0  0  0
   25.7349  -20.5375  -10.9334 C   0  0  0  0  0  0  0  0  0  0  0  0
   25.5853  -20.9048  -12.4052 C   0  0  2  0  0  0  0  0  0  0  0  0
   26.6585  -20.3977  -13.2259 N   0  0  0  0  0  0  0  0  0  0  0  0
   24.2709  -20.4619  -12.8579 C   0  0  0  0  0  0  0  0  0  0  0  0
   24.1324  -19.2088  -13.0686 O   0  0  0  0  0  0  0  0  0  0  0  0
   20.1349  -20.9229  -15.2803 C   0  0  0  0  0  0  0  0  0  0  0  0
   21.4728  -21.4698  -14.8506 C   0  0  1  0  0  0  0  0  0  0  0  0
   22.4140  -21.3168  -15.8405 O   0  0  0  0  0  0  0  0  0  0  0  0
   21.9394  -20.7262  -13.6175 C   0  0  2  0  0  0  0  0  0  0  0  0
   23.1587  -21.2736  -13.0808 N   0  0  0  0  0  0  0  0  0  0  0  0
   20.9003  -20.7436  -12.5440 C   0  0  0  0  0  0  0  0  0  0  0  0
   20.0238  -19.6741  -12.3887 O   0  0  0  0  0  0  0  0  0  0  0  0
   20.7951  -21.7175  -11.7628 O   0  0  0  0  0  0  0  0  0  0  0  0
  2  1  1  6
  2  5  1  0
  3  2  1  0
  3  4  1  0
  5  6  2  0
  8  7  1  0
  8  9  1  0
  9 10  1  0
 11 10  1  1
 11 13  1  0
 12  5  1  0
 12 11  1  0
 13 14  2  0
 13 19  1  0
 16 15  1  6
 16 17  1  0
 18 16  1  0
 18 20  1  0
 18 19  1  1
 20 21  1  0
 22 20  2  0
M  END
$$$$
