CMT.pdb
     RDKit          3D

 22 21  0  0  1  0  0  0  0  0999 V2000
   18.9850  -12.5953  -16.7168 N   0  0  0  0  0  0  0  0  0  0  0  0
   19.5206  -11.3876  -17.2826 C   0  0  1  0  0  0  0  0  0  0  0  0
   18.3658  -10.4802  -17.7061 C   0  0  0  0  0  0  0  0  0  0  0  0
   17.5442  -11.1961  -19.1329 S   0  0  0  0  0  0  0  0  0  0  0  0
   20.3785  -10.6417  -16.2950 C   0  0  0  0  0  0  0  0  0  0  0  0
   20.0172  -10.6520  -15.1006 O   0  0  0  0  0  0  0  0  0  0  0  0
   26.4025  -11.3444  -14.8050 C   0  0  0  0  0  0  0  0  0  0  0  0
   26.4877   -9.6101  -15.3772 S   0  0  0  0  0  0  0  0  0  0  0  0
   24.8336   -8.8964  -15.1540 C   0  0  0  0  0  0  0  0  0  0  0  0
   23.9031   -9.6177  -16.0935 C   0  0  0  0  0  0  0  0  0  0  0  0
   22.4447   -9.2206  -15.8972 C   0  0  2  0  0  0  0  0  0  0  0  0
   21.5380   -9.9684  -16.7345 N   0  0  0  0  0  0  0  0  0  0  0  0
   22.3312   -7.7788  -16.0892 C   0  0  0  0  0  0  0  0  0  0  0  0
   22.7325   -7.3195  -17.2125 O   0  0  0  0  0  0  0  0  0  0  0  0
   19.4415   -5.6045  -16.4543 C   0  0  0  0  0  0  0  0  0  0  0  0
   20.2836   -4.9685  -15.3772 C   0  0  1  0  0  0  0  0  0  0  0  0
   19.8141   -5.2873  -14.1254 O   0  0  0  0  0  0  0  0  0  0  0  0
   21.7078   -5.4656  -15.5030 C   0  0  2  0  0  0  0  0  0  0  0  0
   21.8288   -6.8609  -15.1668 N   0  0  0  0  0  0  0  0  0  0  0  0
   22.6369   -4.6863  -14.6302 C   0  0  0  0  0  0  0  0  0  0  0  0
   22.9070   -3.3482  -14.8992 O   0  0  0  0  0  0  0  0  0  0  0  0
   23.1914   -5.2181  -13.6403 O   0  0  0  0  0  0  0  0  0  0  0  0
  2  1  1  1
  2  5  1  0
  3  2  1  0
  3  4  1  0
  5  6  2  0
  8  7  1  0
  8  9  1  0
  9 10  1  0
 11 10  1  6
 11 13  1  0
 12  5  1  0
 12 11  1  0
 13 14  2  0
 13 19  1  0
 16 15  1  6
 16 17  1  0
 18 16  1  0
 18 20  1  0
 18 19  1  1
 20 21  1  0
 22 20  2  0
M  END
$$$$
