CMT.pdb
     RDKit          3D

 22 21  0  0  1  0  0  0  0  0999 V2000
   28.8523  -20.7100  -15.1493 N   0  0  0  0  0  0  0  0  0  0  0  0
   28.0915  -19.8812  -14.2549 C   0  0  1  0  0  0  0  0  0  0  0  0
   27.4704  -18.7311  -15.0474 C   0  0  0  0  0  0  0  0  0  0  0  0
   28.7541  -17.5557  -15.4877 S   0  0  0  0  0  0  0  0  0  0  0  0
   26.9858  -20.6528  -13.5843 C   0  0  0  0  0  0  0  0  0  0  0  0
   26.5012  -21.6183  -14.2088 O   0  0  0  0  0  0  0  0  0  0  0  0
   26.5544  -18.8775   -7.6302 C   0  0  0  0  0  0  0  0  0  0  0  0
   26.1306  -20.6543   -7.5550 S   0  0  0  0  0  0  0  0  0  0  0  0
   26.2603  -21.3022   -9.2458 C   0  0  0  0  0  0  0  0  0  0  0  0
   25.3783  -20.4511  -10.1213 C   0  0  0  0  0  0  0  0  0  0  0  0
   25.4313  -20.8636  -11.5878 C   0  0  2  0  0  0  0  0  0  0  0  0
   26.5385  -20.2737  -12.3009 N   0  0  0  0  0  0  0  0  0  0  0  0
   24.1411  -20.5598  -12.1974 C   0  0  0  0  0  0  0  0  0  0  0  0
   23.9470  -19.3458  -12.5472 O   0  0  0  0  0  0  0  0  0  0  0  0
   20.5934  -21.5255  -15.2208 C   0  0  0  0  0  0  0  0  0  0  0  0
   21.8952  -21.8457  -14.5305 C   0  0  1  0  0  0  0  0  0  0  0  0
   22.9714  -21.4812  -15.3039 O   0  0  0  0  0  0  0  0  0  0  0  0
   21.9605  -21.0903  -13.2204 C   0  0  2  0  0  0  0  0  0  0  0  0
   23.1064  -21.4653  -12.4326 N   0  0  0  0  0  0  0  0  0  0  0  0
   20.7305  -21.3111  -12.4013 C   0  0  0  0  0  0  0  0  0  0  0  0
   19.6243  -20.4795  -12.5455 O   0  0  0  0  0  0  0  0  0  0  0  0
   20.6678  -22.2462  -11.5697 O   0  0  0  0  0  0  0  0  0  0  0  0
  2  1  1  6
  2  5  1  0
  3  2  1  0
  3  4  1  0
  5  6  2  0
  8  7  1  0
  8  9  1  0
  9 10  1  0
 11 10  1  1
 11 13  1  0
 12  5  1  0
 12 11  1  0
 13 14  2  0
 13 19  1  0
 16 15  1  6
 16 17  1  0
 18 16  1  0
 18 20  1  0
 18 19  1  1
 20 21  1  0
 22 20  2  0
M  END
$$$$
