CMT.pdb
     RDKit          3D

 22 21  0  0  1  0  0  0  0  0999 V2000
   17.8687  -13.2935  -15.9442 N   0  0  0  0  0  0  0  0  0  0  0  0
   17.4648  -11.9247  -16.1149 C   0  0  1  0  0  0  0  0  0  0  0  0
   16.7596  -11.4504  -14.8445 C   0  0  0  0  0  0  0  0  0  0  0  0
   15.1274  -12.1937  -14.7620 S   0  0  0  0  0  0  0  0  0  0  0  0
   18.6434  -11.0237  -16.3734 C   0  0  0  0  0  0  0  0  0  0  0  0
   19.7471  -11.3782  -15.9117 O   0  0  0  0  0  0  0  0  0  0  0  0
   21.5839   -7.7878  -21.7012 C   0  0  0  0  0  0  0  0  0  0  0  0
   20.2937   -6.8110  -20.8506 S   0  0  0  0  0  0  0  0  0  0  0  0
   20.4069   -7.2085  -19.0830 C   0  0  0  0  0  0  0  0  0  0  0  0
   19.3325   -8.2200  -18.7809 C   0  0  0  0  0  0  0  0  0  0  0  0
   19.5103   -8.8776  -17.4173 C   0  0  2  0  0  0  0  0  0  0  0  0
   18.4731   -9.8333  -17.1115 N   0  0  0  0  0  0  0  0  0  0  0  0
   19.6239   -7.8268  -16.4117 C   0  0  0  0  0  0  0  0  0  0  0  0
   18.5314   -7.2916  -16.0197 O   0  0  0  0  0  0  0  0  0  0  0  0
   21.9274   -5.4182  -12.8261 C   0  0  0  0  0  0  0  0  0  0  0  0
   21.9518   -6.5411  -13.8322 C   0  0  1  0  0  0  0  0  0  0  0  0
   21.8618   -7.7653  -13.2138 O   0  0  0  0  0  0  0  0  0  0  0  0
   20.7788   -6.3864  -14.7763 C   0  0  2  0  0  0  0  0  0  0  0  0
   20.8065   -7.3549  -15.8420 N   0  0  0  0  0  0  0  0  0  0  0  0
   20.7404   -5.0200  -15.3796 C   0  0  0  0  0  0  0  0  0  0  0  0
   19.9526   -4.0195  -14.8187 O   0  0  0  0  0  0  0  0  0  0  0  0
   21.4139   -4.7455  -16.3998 O   0  0  0  0  0  0  0  0  0  0  0  0
  2  1  1  1
  2  5  1  0
  3  2  1  0
  3  4  1  0
  5  6  2  0
  8  7  1  0
  8  9  1  0
  9 10  1  0
 11 10  1  6
 11 13  1  0
 12  5  1  0
 12 11  1  0
 13 14  2  0
 13 19  1  0
 16 15  1  1
 16 17  1  0
 18 16  1  0
 18 20  1  0
 18 19  1  6
 20 21  1  0
 22 20  2  0
M  END
$$$$
