CMT.pdb
     RDKit          3D

 22 21  0  0  1  0  0  0  0  0999 V2000
   27.8199  -18.5467  -15.1355 N   0  0  0  0  0  0  0  0  0  0  0  0
   27.4603  -19.8032  -15.7333 C   0  0  1  0  0  0  0  0  0  0  0  0
   28.7325  -20.5340  -16.1621 C   0  0  0  0  0  0  0  0  0  0  0  0
   29.7049  -19.4570  -17.2195 S   0  0  0  0  0  0  0  0  0  0  0  0
   26.7040  -20.6819  -14.7723 C   0  0  0  0  0  0  0  0  0  0  0  0
   26.3604  -21.8109  -15.1779 O   0  0  0  0  0  0  0  0  0  0  0  0
   27.1891  -20.6614   -8.4463 C   0  0  0  0  0  0  0  0  0  0  0  0
   25.3609  -20.6783   -8.4512 S   0  0  0  0  0  0  0  0  0  0  0  0
   24.8396  -21.1419  -10.1271 C   0  0  0  0  0  0  0  0  0  0  0  0
   25.7796  -20.4680  -11.0920 C   0  0  0  0  0  0  0  0  0  0  0  0
   25.4977  -20.8381  -12.5435 C   0  0  2  0  0  0  0  0  0  0  0  0
   26.4113  -20.2176  -13.4724 N   0  0  0  0  0  0  0  0  0  0  0  0
   24.1016  -20.5294  -12.8335 C   0  0  0  0  0  0  0  0  0  0  0  0
   23.7758  -19.2935  -12.8200 O   0  0  0  0  0  0  0  0  0  0  0  0
   22.1790  -21.1805  -15.9215 C   0  0  0  0  0  0  0  0  0  0  0  0
   21.3064  -21.6546  -14.7868 C   0  0  1  0  0  0  0  0  0  0  0  0
   21.3692  -23.0205  -14.6480 O   0  0  0  0  0  0  0  0  0  0  0  0
   21.7764  -21.0133  -13.4987 C   0  0  2  0  0  0  0  0  0  0  0  0
   23.0957  -21.4517  -13.1223 N   0  0  0  0  0  0  0  0  0  0  0  0
   20.8411  -21.3055  -12.3707 C   0  0  0  0  0  0  0  0  0  0  0  0
   19.5311  -20.8374  -12.3969 O   0  0  0  0  0  0  0  0  0  0  0  0
   21.2139  -21.9759  -11.3800 O   0  0  0  0  0  0  0  0  0  0  0  0
  2  1  1  1
  2  5  1  0
  3  2  1  0
  3  4  1  0
  5  6  2  0
  8  7  1  0
  8  9  1  0
  9 10  1  0
 11 10  1  1
 11 13  1  0
 12  5  1  0
 12 11  1  0
 13 14  2  0
 13 19  1  0
 16 15  1  6
 16 17  1  0
 18 16  1  0
 18 20  1  0
 18 19  1  1
 20 21  1  0
 22 20  2  0
M  END
$$$$
