CMT.pdb
     RDKit          3D

 22 21  0  0  1  0  0  0  0  0999 V2000
   19.5099  -13.6967  -17.9234 N   0  0  0  0  0  0  0  0  0  0  0  0
   19.8010  -12.3951  -18.4590 C   0  0  1  0  0  0  0  0  0  0  0  0
   18.4922  -11.6273  -18.6429 C   0  0  0  0  0  0  0  0  0  0  0  0
   17.5180  -12.4185  -19.9267 S   0  0  0  0  0  0  0  0  0  0  0  0
   20.6966  -11.6030  -17.5438 C   0  0  0  0  0  0  0  0  0  0  0  0
   20.4297  -11.6212  -16.3249 O   0  0  0  0  0  0  0  0  0  0  0  0
   26.5854   -9.7250  -14.5093 C   0  0  0  0  0  0  0  0  0  0  0  0
   25.4042  -10.5405  -15.6416 S   0  0  0  0  0  0  0  0  0  0  0  0
   25.1340   -9.4059  -17.0326 C   0  0  0  0  0  0  0  0  0  0  0  0
   24.1107  -10.0409  -17.9374 C   0  0  0  0  0  0  0  0  0  0  0  0
   22.7214  -10.0885  -17.3121 C   0  0  2  0  0  0  0  0  0  0  0  0
   21.7858  -10.8797  -18.0744 N   0  0  0  0  0  0  0  0  0  0  0  0
   22.2641   -8.7188  -17.1039 C   0  0  0  0  0  0  0  0  0  0  0  0
   22.2236   -7.9675  -18.1371 O   0  0  0  0  0  0  0  0  0  0  0  0
   19.5376   -7.5637  -14.3899 C   0  0  0  0  0  0  0  0  0  0  0  0
   19.8914   -6.7369  -15.6002 C   0  0  1  0  0  0  0  0  0  0  0  0
   19.5274   -5.4227  -15.4287 O   0  0  0  0  0  0  0  0  0  0  0  0
   21.3870   -6.8013  -15.8246 C   0  0  2  0  0  0  0  0  0  0  0  0
   21.8696   -8.1567  -15.8897 N   0  0  0  0  0  0  0  0  0  0  0  0
   22.1320   -6.0851  -14.7455 C   0  0  0  0  0  0  0  0  0  0  0  0
   22.0234   -4.7051  -14.6050 O   0  0  0  0  0  0  0  0  0  0  0  0
   22.8683   -6.7086  -13.9460 O   0  0  0  0  0  0  0  0  0  0  0  0
  2  1  1  1
  2  5  1  0
  3  2  1  0
  3  4  1  0
  5  6  2  0
  8  7  1  0
  8  9  1  0
  9 10  1  0
 11 10  1  6
 11 13  1  0
 12  5  1  0
 12 11  1  0
 13 14  2  0
 13 19  1  0
 16 15  1  1
 16 17  1  0
 18 16  1  0
 18 20  1  0
 18 19  1  1
 20 21  1  0
 22 20  2  0
M  END
$$$$
