CMT.pdb
     RDKit          3D

 22 21  0  0  1  0  0  0  0  0999 V2000
   17.6666  -10.7344  -11.7372 N   0  0  0  0  0  0  0  0  0  0  0  0
   18.0618   -9.4212  -11.3070 C   0  0  1  0  0  0  0  0  0  0  0  0
   18.9898   -8.8105  -12.3569 C   0  0  0  0  0  0  0  0  0  0  0  0
   20.5623   -9.6764  -12.3312 S   0  0  0  0  0  0  0  0  0  0  0  0
   16.8749   -8.5117  -11.1297 C   0  0  0  0  0  0  0  0  0  0  0  0
   16.0511   -8.4565  -12.0654 O   0  0  0  0  0  0  0  0  0  0  0  0
   11.7739  -10.4306   -8.1153 C   0  0  0  0  0  0  0  0  0  0  0  0
   12.7432   -8.9685   -7.6004 S   0  0  0  0  0  0  0  0  0  0  0  0
   13.9064   -8.6032   -8.9452 C   0  0  0  0  0  0  0  0  0  0  0  0
   14.7369   -7.4236   -8.5121 C   0  0  0  0  0  0  0  0  0  0  0  0
   15.6262   -6.8886   -9.6286 C   0  0  2  0  0  0  0  0  0  0  0  0
   16.7291   -7.7651   -9.9413 N   0  0  0  0  0  0  0  0  0  0  0  0
   16.0595   -5.5434   -9.2661 C   0  0  0  0  0  0  0  0  0  0  0  0
   17.0185   -5.4600   -8.4252 O   0  0  0  0  0  0  0  0  0  0  0  0
   17.1624   -2.6517  -11.6833 C   0  0  0  0  0  0  0  0  0  0  0  0
   16.1557   -2.1643  -10.6721 C   0  0  1  0  0  0  0  0  0  0  0  0
   14.8872   -2.1477  -11.2009 O   0  0  0  0  0  0  0  0  0  0  0  0
   16.1700   -3.0883   -9.4732 C   0  0  2  0  0  0  0  0  0  0  0  0
   15.5279   -4.3476   -9.7490 N   0  0  0  0  0  0  0  0  0  0  0  0
   15.4983   -2.4629   -8.2941 C   0  0  0  0  0  0  0  0  0  0  0  0
   16.0525   -1.3490   -7.6710 O   0  0  0  0  0  0  0  0  0  0  0  0
   14.4252   -2.9254   -7.8419 O   0  0  0  0  0  0  0  0  0  0  0  0
  2  1  1  6
  2  5  1  0
  3  2  1  0
  3  4  1  0
  5  6  2  0
  8  7  1  0
  8  9  1  0
  9 10  1  0
 11 10  1  1
 11 13  1  0
 12  5  1  0
 12 11  1  0
 13 14  2  0
 13 19  1  0
 16 15  1  6
 16 17  1  0
 18 16  1  0
 18 20  1  0
 18 19  1  6
 20 21  1  0
 22 20  2  0
M  END
$$$$
