CMT.pdb
     RDKit          3D

 22 21  0  0  1  0  0  0  0  0999 V2000
   19.5523  -14.1734  -18.8552 N   0  0  0  0  0  0  0  0  0  0  0  0
   18.8847  -14.0412  -17.5892 C   0  0  1  0  0  0  0  0  0  0  0  0
   18.7377  -15.4246  -16.9560 C   0  0  0  0  0  0  0  0  0  0  0  0
   17.6214  -16.4156  -17.9535 S   0  0  0  0  0  0  0  0  0  0  0  0
   19.6553  -13.1601  -16.6418 C   0  0  0  0  0  0  0  0  0  0  0  0
   19.1653  -12.9704  -15.5100 O   0  0  0  0  0  0  0  0  0  0  0  0
   26.7916  -10.2542  -14.9714 C   0  0  0  0  0  0  0  0  0  0  0  0
   25.7732  -11.3427  -16.0299 S   0  0  0  0  0  0  0  0  0  0  0  0
   24.0361  -10.9726  -15.6546 C   0  0  0  0  0  0  0  0  0  0  0  0
   23.1896  -11.8900  -16.4976 C   0  0  0  0  0  0  0  0  0  0  0  0
   21.6966  -11.7003  -16.2560 C   0  0  2  0  0  0  0  0  0  0  0  0
   20.8790  -12.5872  -17.0482 N   0  0  0  0  0  0  0  0  0  0  0  0
   21.3720  -10.2937  -16.4676 C   0  0  0  0  0  0  0  0  0  0  0  0
   21.5412   -9.8409  -17.6509 O   0  0  0  0  0  0  0  0  0  0  0  0
   18.3701   -8.4256  -16.7945 C   0  0  0  0  0  0  0  0  0  0  0  0
   19.1340   -7.7111  -15.7084 C   0  0  1  0  0  0  0  0  0  0  0  0
   18.7096   -8.1028  -14.4612 O   0  0  0  0  0  0  0  0  0  0  0  0
   20.6068   -8.0336  -15.8438 C   0  0  2  0  0  0  0  0  0  0  0  0
   20.8973   -9.4030  -15.5049 N   0  0  0  0  0  0  0  0  0  0  0  0
   21.4416   -7.1451  -14.9800 C   0  0  0  0  0  0  0  0  0  0  0  0
   21.4994   -5.7755  -15.2187 O   0  0  0  0  0  0  0  0  0  0  0  0
   22.1057   -7.6114  -14.0253 O   0  0  0  0  0  0  0  0  0  0  0  0
  2  1  1  6
  2  5  1  0
  3  2  1  0
  3  4  1  0
  5  6  2  0
  8  7  1  0
  8  9  1  0
  9 10  1  0
 11 10  1  6
 11 13  1  0
 12  5  1  0
 12 11  1  0
 13 14  2  0
 13 19  1  0
 16 15  1  6
 16 17  1  0
 18 16  1  0
 18 20  1  0
 18 19  1  1
 20 21  1  0
 22 20  2  0
M  END
$$$$
