CMT.pdb
     RDKit          3D

 22 21  0  0  1  0  0  0  0  0999 V2000
   21.6083  -13.1958  -18.1777 N   0  0  0  0  0  0  0  0  0  0  0  0
   21.7635  -11.7860  -18.4109 C   0  0  1  0  0  0  0  0  0  0  0  0
   20.4555  -11.2258  -18.9691 C   0  0  0  0  0  0  0  0  0  0  0  0
   20.1252  -11.9758  -20.5665 S   0  0  0  0  0  0  0  0  0  0  0  0
   22.1000  -11.0450  -17.1439 C   0  0  0  0  0  0  0  0  0  0  0  0
   21.5983  -11.4683  -16.0827 O   0  0  0  0  0  0  0  0  0  0  0  0
   27.8755  -12.1077  -15.0495 C   0  0  0  0  0  0  0  0  0  0  0  0
   27.2539  -10.4608  -15.5429 S   0  0  0  0  0  0  0  0  0  0  0  0
   25.4434  -10.5754  -15.6084 C   0  0  0  0  0  0  0  0  0  0  0  0
   24.9152   -9.1894  -15.8711 C   0  0  0  0  0  0  0  0  0  0  0  0
   23.4015   -9.1604  -16.0479 C   0  0  2  0  0  0  0  0  0  0  0  0
   22.9514   -9.9207  -17.1889 N   0  0  0  0  0  0  0  0  0  0  0  0
   22.9708   -7.7672  -16.0924 C   0  0  0  0  0  0  0  0  0  0  0  0
   23.2658   -7.1123  -17.1497 O   0  0  0  0  0  0  0  0  0  0  0  0
   19.9352   -6.2746  -16.7412 C   0  0  0  0  0  0  0  0  0  0  0  0
   20.3437   -5.6143  -15.4487 C   0  0  1  0  0  0  0  0  0  0  0  0
   19.7386   -6.2144  -14.3704 O   0  0  0  0  0  0  0  0  0  0  0  0
   21.8446   -5.7259  -15.2876 C   0  0  2  0  0  0  0  0  0  0  0  0
   22.2715   -7.0879  -15.0948 N   0  0  0  0  0  0  0  0  0  0  0  0
   22.3320   -4.9098  -14.1348 C   0  0  0  0  0  0  0  0  0  0  0  0
   22.2284   -3.5224  -14.1547 O   0  0  0  0  0  0  0  0  0  0  0  0
   22.8427   -5.4541  -13.1284 O   0  0  0  0  0  0  0  0  0  0  0  0
  2  1  1  1
  2  5  1  0
  3  2  1  0
  3  4  1  0
  5  6  2  0
  8  7  1  0
  8  9  1  0
  9 10  1  0
 11 10  1  6
 11 13  1  0
 12  5  1  0
 12 11  1  0
 13 14  2  0
 13 19  1  0
 16 15  1  6
 16 17  1  0
 18 16  1  0
 18 20  1  0
 18 19  1  1
 20 21  1  0
 22 20  2  0
M  END
$$$$
