CMT.pdb
     RDKit          3D

 22 21  0  0  1  0  0  0  0  0999 V2000
   21.7513  -12.5808  -18.6852 N   0  0  0  0  0  0  0  0  0  0  0  0
   21.2527  -12.6101  -17.3375 C   0  0  1  0  0  0  0  0  0  0  0  0
   21.0383  -14.0637  -16.9163 C   0  0  0  0  0  0  0  0  0  0  0  0
   20.3281  -14.9780  -18.2885 S   0  0  0  0  0  0  0  0  0  0  0  0
   22.2150  -11.9689  -16.3729 C   0  0  0  0  0  0  0  0  0  0  0  0
   21.8719  -11.9124  -15.1745 O   0  0  0  0  0  0  0  0  0  0  0  0
   28.4692  -12.6451  -16.6942 C   0  0  0  0  0  0  0  0  0  0  0  0
   27.8953  -11.8749  -15.1386 S   0  0  0  0  0  0  0  0  0  0  0  0
   26.8900  -10.4353  -15.5994 C   0  0  0  0  0  0  0  0  0  0  0  0
   25.8463  -10.9108  -16.5759 C   0  0  0  0  0  0  0  0  0  0  0  0
   24.4279  -10.7703  -16.0359 C   0  0  2  0  0  0  0  0  0  0  0  0
   23.4473  -11.4621  -16.8373 N   0  0  0  0  0  0  0  0  0  0  0  0
   24.1326   -9.3496  -15.8846 C   0  0  0  0  0  0  0  0  0  0  0  0
   24.9423   -8.6720  -15.1640 O   0  0  0  0  0  0  0  0  0  0  0  0
   23.5093   -6.7423  -18.6767 C   0  0  0  0  0  0  0  0  0  0  0  0
   22.4526   -6.5928  -17.6114 C   0  0  1  0  0  0  0  0  0  0  0  0
   21.2782   -7.2001  -17.9868 O   0  0  0  0  0  0  0  0  0  0  0  0
   22.9442   -7.2352  -16.3320 C   0  0  2  0  0  0  0  0  0  0  0  0
   23.0556   -8.6663  -16.4495 N   0  0  0  0  0  0  0  0  0  0  0  0
   22.0412   -6.9237  -15.1830 C   0  0  0  0  0  0  0  0  0  0  0  0
   21.9365   -5.6245  -14.6959 O   0  0  0  0  0  0  0  0  0  0  0  0
   21.3608   -7.8216  -14.6346 O   0  0  0  0  0  0  0  0  0  0  0  0
  2  1  1  6
  2  5  1  0
  3  2  1  0
  3  4  1  0
  5  6  2  0
  8  7  1  0
  8  9  1  0
  9 10  1  0
 11 10  1  6
 11 13  1  0
 12  5  1  0
 12 11  1  0
 13 14  2  0
 13 19  1  0
 16 15  1  6
 16 17  1  0
 18 16  1  0
 18 20  1  0
 18 19  1  6
 20 21  1  0
 22 20  2  0
M  END
$$$$
