CMT.pdb
     RDKit          3D

 22 21  0  0  1  0  0  0  0  0999 V2000
   28.9494  -20.7465  -15.9126 N   0  0  0  0  0  0  0  0  0  0  0  0
   28.2965  -19.9111  -14.9424 C   0  0  1  0  0  0  0  0  0  0  0  0
   27.6079  -18.7529  -15.6640 C   0  0  0  0  0  0  0  0  0  0  0  0
   28.8484  -17.7438  -16.4802 S   0  0  0  0  0  0  0  0  0  0  0  0
   27.2595  -20.6718  -14.1591 C   0  0  0  0  0  0  0  0  0  0  0  0
   26.7708  -21.6884  -14.6929 O   0  0  0  0  0  0  0  0  0  0  0  0
   26.9102  -20.5236   -7.6212 C   0  0  0  0  0  0  0  0  0  0  0  0
   25.1328  -20.4025   -8.0316 S   0  0  0  0  0  0  0  0  0  0  0  0
   24.9300  -21.0635   -9.7100 C   0  0  0  0  0  0  0  0  0  0  0  0
   25.9586  -20.3939  -10.5833 C   0  0  0  0  0  0  0  0  0  0  0  0
   25.8709  -20.8352  -12.0397 C   0  0  2  0  0  0  0  0  0  0  0  0
   26.8774  -20.2267  -12.8758 N   0  0  0  0  0  0  0  0  0  0  0  0
   24.5147  -20.5837  -12.5151 C   0  0  0  0  0  0  0  0  0  0  0  0
   24.2160  -19.3675  -12.7709 O   0  0  0  0  0  0  0  0  0  0  0  0
   23.0500  -21.9171  -15.5983 C   0  0  0  0  0  0  0  0  0  0  0  0
   21.9887  -22.1082  -14.5444 C   0  0  1  0  0  0  0  0  0  0  0  0
   21.9594  -23.4077  -14.0977 O   0  0  0  0  0  0  0  0  0  0  0  0
   22.2850  -21.1981  -13.3717 C   0  0  2  0  0  0  0  0  0  0  0  0
   23.5201  -21.5411  -12.7151 N   0  0  0  0  0  0  0  0  0  0  0  0
   21.1855  -21.2353  -12.3606 C   0  0  0  0  0  0  0  0  0  0  0  0
   19.8913  -20.8595  -12.7068 O   0  0  0  0  0  0  0  0  0  0  0  0
   21.4033  -21.6044  -11.1832 O   0  0  0  0  0  0  0  0  0  0  0  0
  2  1  1  6
  2  5  1  0
  3  2  1  0
  3  4  1  0
  5  6  2  0
  8  7  1  0
  8  9  1  0
  9 10  1  0
 11 10  1  1
 11 13  1  0
 12  5  1  0
 12 11  1  0
 13 14  2  0
 13 19  1  0
 16 15  1  6
 16 17  1  0
 18 16  1  0
 18 20  1  0
 18 19  1  1
 20 21  1  0
 22 20  2  0
M  END
$$$$
