CMT.pdb
     RDKit          3D

 22 21  0  0  1  0  0  0  0  0999 V2000
   26.0623  -25.0599  -17.5638 N   0  0  0  0  0  0  0  0  0  0  0  0
   27.0701  -25.8306  -16.8885 C   0  0  1  0  0  0  0  0  0  0  0  0
   26.4762  -27.1780  -16.4784 C   0  0  0  0  0  0  0  0  0  0  0  0
   25.3473  -26.9328  -15.1041 S   0  0  0  0  0  0  0  0  0  0  0  0
   28.2643  -26.0821  -17.7707 C   0  0  0  0  0  0  0  0  0  0  0  0
   28.0484  -26.2807  -18.9835 O   0  0  0  0  0  0  0  0  0  0  0  0
   35.7858  -24.3576  -18.9451 C   0  0  0  0  0  0  0  0  0  0  0  0
   34.2055  -24.0346  -18.0845 S   0  0  0  0  0  0  0  0  0  0  0  0
   33.1062  -25.4315  -18.4526 C   0  0  0  0  0  0  0  0  0  0  0  0
   31.8414  -25.2280  -17.6603 C   0  0  0  0  0  0  0  0  0  0  0  0
   30.7884  -26.2914  -17.9498 C   0  0  2  0  0  0  0  0  0  0  0  0
   29.5622  -26.0863  -17.2171 N   0  0  0  0  0  0  0  0  0  0  0  0
   31.3798  -27.6024  -17.7048 C   0  0  0  0  0  0  0  0  0  0  0  0
   31.5519  -27.9311  -16.4816 O   0  0  0  0  0  0  0  0  0  0  0  0
   32.3284  -32.2396  -18.7444 C   0  0  0  0  0  0  0  0  0  0  0  0
   31.7984  -30.9133  -19.2279 C   0  0  1  0  0  0  0  0  0  0  0  0
   30.4241  -30.9022  -19.2428 O   0  0  0  0  0  0  0  0  0  0  0  0
   32.2830  -29.8184  -18.3018 C   0  0  2  0  0  0  0  0  0  0  0  0
   31.7725  -28.5244  -18.6751 N   0  0  0  0  0  0  0  0  0  0  0  0
   33.7752  -29.7481  -18.2738 C   0  0  0  0  0  0  0  0  0  0  0  0
   34.5002  -30.4538  -17.3186 O   0  0  0  0  0  0  0  0  0  0  0  0
   34.4048  -29.0551  -19.1065 O   0  0  0  0  0  0  0  0  0  0  0  0
  2  1  1  6
  2  5  1  0
  3  2  1  0
  3  4  1  0
  5  6  2  0
  8  7  1  0
  8  9  1  0
  9 10  1  0
 11 10  1  1
 11 13  1  0
 12  5  1  0
 12 11  1  0
 13 14  2  0
 13 19  1  0
 16 15  1  1
 16 17  1  0
 18 16  1  0
 18 20  1  0
 18 19  1  6
 20 21  1  0
 22 20  2  0
M  END
$$$$
