WAD.pdb
     RDKit          3D

 28 29  0  0  1  0  0  0  0  0999 V2000
    6.6735  -17.6626   23.7277 N   0  0  0  0  0  0  0  0  0  0  0  0
    7.0827  -16.3308   23.3230 C   0  0  1  0  0  0  0  0  0  0  0  0
    7.9426  -15.7287   24.3834 C   0  0  0  0  0  0  0  0  0  0  0  0
    7.1914  -14.9621   25.4043 C   0  0  0  0  0  0  0  0  0  0  0  0
    6.1434  -15.3760   26.1919 C   0  0  0  0  0  0  0  0  0  0  0  0
    5.7172  -14.3666   26.9776 N   0  0  0  0  0  0  0  0  0  0  0  0
    6.4787  -13.2679   26.7211 C   0  0  0  0  0  0  0  0  0  0  0  0
    6.4317  -12.0006   27.2637 C   0  0  0  0  0  0  0  0  0  0  0  0
    7.3277  -11.0555   26.8235 C   0  0  0  0  0  0  0  0  0  0  0  0
    8.2579  -11.3755   25.8534 C   0  0  0  0  0  0  0  0  0  0  0  0
    8.2657  -12.6509   25.3445 C   0  0  0  0  0  0  0  0  0  0  0  0
    7.3881  -13.6431   25.7480 C   0  0  0  0  0  0  0  0  0  0  0  0
    7.6128  -16.3800   21.9730 C   0  0  0  0  0  0  0  0  0  0  0  0
    8.4217  -17.2723   21.6112 O   0  0  0  0  0  0  0  0  0  0  0  0
    8.0168  -13.7646   19.4422 C   0  0  0  0  0  0  0  0  0  0  0  0
    8.0869  -15.2836   19.7505 C   0  0  2  0  0  0  0  0  0  0  0  0
    7.2762  -15.4414   20.9345 N   0  0  0  0  0  0  0  0  0  0  0  0
    9.5349  -15.5345   19.9625 C   0  0  0  0  0  0  0  0  0  0  0  0
   10.2094  -14.5461   20.3498 O   0  0  0  0  0  0  0  0  0  0  0  0
   10.1895  -16.7668   19.7695 N   0  0  0  0  0  0  0  0  0  0  0  0
   11.5920  -17.0129   19.7228 C   0  0  1  0  0  0  0  0  0  0  0  0
   12.0658  -18.2013   20.5475 C   0  0  0  0  0  0  0  0  0  0  0  0
   11.7867  -18.0644   21.9767 C   0  0  0  0  0  0  0  0  0  0  0  0
   12.3167  -17.2309   22.7312 O   0  0  0  0  0  0  0  0  0  0  0  0
   12.1814  -17.1180   18.3807 C   0  0  0  0  0  0  0  0  0  0  0  0
   13.5360  -17.2417   18.1482 O   0  0  0  0  0  0  0  0  0  0  0  0
   10.8478  -18.9353   22.5653 O   0  0  0  0  0  0  0  0  0  0  0  0
   11.4334  -17.0966   17.3787 O   0  0  0  0  0  0  0  0  0  0  0  0
  2  3  1  0
  2  1  1  1
  3  4  1  0
  4 12  1  0
  5  6  1  0
  5  4  2  0
  6  7  1  0
  7 12  2  0
  7  8  1  0
  8  9  2  0
  9 10  1  0
 11 10  2  0
 12 11  1  0
 13  2  1  0
 13 14  2  0
 16 15  1  1
 16 18  1  0
 16 17  1  0
 17 13  1  0
 18 19  2  0
 20 18  1  0
 20 21  1  0
 21 22  1  1
 22 23  1  0
 23 24  2  0
 25 21  1  0
 26 25  1  0
 27 23  1  0
 28 25  2  0
M  END
$$$$
