WAD.pdb
     RDKit          3D

 28 29  0  0  1  0  0  0  0  0999 V2000
    8.8100  -15.0005   23.2764 N   0  0  0  0  0  0  0  0  0  0  0  0
    9.4420  -15.8939   24.2288 C   0  0  1  0  0  0  0  0  0  0  0  0
    8.4397  -16.3321   25.2437 C   0  0  0  0  0  0  0  0  0  0  0  0
    7.4163  -15.3090   25.5596 C   0  0  0  0  0  0  0  0  0  0  0  0
    6.0548  -15.4609   25.6739 C   0  0  0  0  0  0  0  0  0  0  0  0
    5.4697  -14.2773   25.9468 N   0  0  0  0  0  0  0  0  0  0  0  0
    6.4377  -13.3228   26.0176 C   0  0  0  0  0  0  0  0  0  0  0  0
    6.3428  -11.9699   26.2692 C   0  0  0  0  0  0  0  0  0  0  0  0
    7.4915  -11.2147   26.2848 C   0  0  0  0  0  0  0  0  0  0  0  0
    8.7179  -11.8065   26.0517 C   0  0  0  0  0  0  0  0  0  0  0  0
    8.7608  -13.1571   25.8068 C   0  0  0  0  0  0  0  0  0  0  0  0
    7.6383  -13.9673   25.7776 C   0  0  0  0  0  0  0  0  0  0  0  0
   10.1696  -16.9246   23.5117 C   0  0  0  0  0  0  0  0  0  0  0  0
   10.4125  -18.0450   24.0284 O   0  0  0  0  0  0  0  0  0  0  0  0
   11.5969  -17.3096   20.0609 C   0  0  0  0  0  0  0  0  0  0  0  0
   11.4223  -17.8235   21.5145 C   0  0  2  0  0  0  0  0  0  0  0  0
   10.6730  -16.7786   22.1708 N   0  0  0  0  0  0  0  0  0  0  0  0
   12.8153  -17.9778   22.0043 C   0  0  0  0  0  0  0  0  0  0  0  0
   13.4618  -18.9407   21.5177 O   0  0  0  0  0  0  0  0  0  0  0  0
   13.4492  -17.1445   22.9467 N   0  0  0  0  0  0  0  0  0  0  0  0
   14.7425  -17.3033   23.5229 C   0  0  1  0  0  0  0  0  0  0  0  0
   15.5987  -16.0449   23.5421 C   0  0  0  0  0  0  0  0  0  0  0  0
   16.0773  -15.6480   22.2183 C   0  0  0  0  0  0  0  0  0  0  0  0
   15.8529  -16.2654   21.1631 O   0  0  0  0  0  0  0  0  0  0  0  0
   14.7794  -17.9073   24.8620 C   0  0  0  0  0  0  0  0  0  0  0  0
   15.9021  -18.5003   25.4025 O   0  0  0  0  0  0  0  0  0  0  0  0
   16.8558  -14.4784   22.1070 O   0  0  0  0  0  0  0  0  0  0  0  0
   13.7481  -17.8949   25.5693 O   0  0  0  0  0  0  0  0  0  0  0  0
  2  3  1  0
  2  1  1  6
  3  4  1  0
  4 12  1  0
  5  6  1  0
  5  4  2  0
  6  7  1  0
  7 12  2  0
  7  8  1  0
  8  9  2  0
  9 10  1  0
 11 10  2  0
 12 11  1  0
 13  2  1  0
 13 14  2  0
 16 15  1  6
 16 18  1  0
 16 17  1  0
 17 13  1  0
 18 19  2  0
 20 18  1  0
 20 21  1  0
 21 22  1  1
 22 23  1  0
 23 24  2  0
 25 21  1  0
 26 25  1  0
 27 23  1  0
 28 25  2  0
M  END
$$$$
