WAD.pdb
     RDKit          3D

 28 29  0  0  1  0  0  0  0  0999 V2000
    6.8325  -16.9335   23.0140 N   0  0  0  0  0  0  0  0  0  0  0  0
    7.2586  -15.5747   22.7365 C   0  0  1  0  0  0  0  0  0  0  0  0
    8.2211  -15.1289   23.7860 C   0  0  0  0  0  0  0  0  0  0  0  0
    7.5892  -14.8179   25.0891 C   0  0  0  0  0  0  0  0  0  0  0  0
    7.1618  -15.6849   26.0666 C   0  0  0  0  0  0  0  0  0  0  0  0
    6.6143  -15.0043   27.0936 N   0  0  0  0  0  0  0  0  0  0  0  0
    6.6718  -13.6741   26.8103 C   0  0  0  0  0  0  0  0  0  0  0  0
    6.2444  -12.5849   27.5407 C   0  0  0  0  0  0  0  0  0  0  0  0
    6.4220  -11.3248   27.0206 C   0  0  0  0  0  0  0  0  0  0  0  0
    7.0197  -11.1582   25.7862 C   0  0  0  0  0  0  0  0  0  0  0  0
    7.4292  -12.2735   25.0976 C   0  0  0  0  0  0  0  0  0  0  0  0
    7.2758  -13.5660   25.5701 C   0  0  0  0  0  0  0  0  0  0  0  0
    7.6790  -15.4760   21.3511 C   0  0  0  0  0  0  0  0  0  0  0  0
    7.9707  -16.4942   20.6733 O   0  0  0  0  0  0  0  0  0  0  0  0
    8.2794  -12.6784   18.9159 C   0  0  0  0  0  0  0  0  0  0  0  0
    8.2528  -14.1919   19.2563 C   0  0  2  0  0  0  0  0  0  0  0  0
    7.8004  -14.2378   20.6263 N   0  0  0  0  0  0  0  0  0  0  0  0
    9.6604  -14.6223   19.0619 C   0  0  0  0  0  0  0  0  0  0  0  0
   10.0345  -14.7431   17.8672 O   0  0  0  0  0  0  0  0  0  0  0  0
   10.5832  -14.8946   20.0908 N   0  0  0  0  0  0  0  0  0  0  0  0
   11.8388  -15.5596   19.9847 C   0  0  1  0  0  0  0  0  0  0  0  0
   13.0585  -14.6571   20.1051 C   0  0  0  0  0  0  0  0  0  0  0  0
   13.5668  -14.1927   18.8146 C   0  0  0  0  0  0  0  0  0  0  0  0
   13.1545  -14.5738   17.7057 O   0  0  0  0  0  0  0  0  0  0  0  0
   12.0305  -16.7155   20.8716 C   0  0  0  0  0  0  0  0  0  0  0  0
   11.1541  -17.0583   21.8809 O   0  0  0  0  0  0  0  0  0  0  0  0
   14.6054  -13.2399   18.8038 O   0  0  0  0  0  0  0  0  0  0  0  0
   13.0364  -17.4434   20.7222 O   0  0  0  0  0  0  0  0  0  0  0  0
  2  3  1  0
  2  1  1  1
  3  4  1  0
  4 12  1  0
  5  6  1  0
  5  4  2  0
  6  7  1  0
  7 12  2  0
  7  8  1  0
  8  9  2  0
  9 10  1  0
 11 10  2  0
 12 11  1  0
 13  2  1  0
 13 14  2  0
 16 15  1  1
 16 18  1  0
 16 17  1  0
 17 13  1  0
 18 19  2  0
 20 18  1  0
 20 21  1  0
 21 22  1  1
 22 23  1  0
 23 24  2  0
 25 21  1  0
 26 25  1  0
 27 23  1  0
 28 25  2  0
M  END
$$$$
