WAD.pdb
     RDKit          3D

 28 29  0  0  1  0  0  0  0  0999 V2000
    9.2174  -15.8247   24.5340 N   0  0  0  0  0  0  0  0  0  0  0  0
    7.9390  -16.4874   24.3571 C   0  0  1  0  0  0  0  0  0  0  0  0
    7.1329  -16.3592   25.6062 C   0  0  0  0  0  0  0  0  0  0  0  0
    7.2184  -15.0248   26.2435 C   0  0  0  0  0  0  0  0  0  0  0  0
    6.3192  -13.9863   26.1889 C   0  0  0  0  0  0  0  0  0  0  0  0
    6.7800  -12.9271   26.8842 N   0  0  0  0  0  0  0  0  0  0  0  0
    7.9932  -13.2499   27.4104 C   0  0  0  0  0  0  0  0  0  0  0  0
    8.8556  -12.5081   28.1906 C   0  0  0  0  0  0  0  0  0  0  0  0
   10.0395  -13.0765   28.5971 C   0  0  0  0  0  0  0  0  0  0  0  0
   10.3551  -14.3696   28.2273 C   0  0  0  0  0  0  0  0  0  0  0  0
    9.4635  -15.0679   27.4505 C   0  0  0  0  0  0  0  0  0  0  0  0
    8.2579  -14.5479   27.0108 C   0  0  0  0  0  0  0  0  0  0  0  0
    7.3337  -16.0413   23.1159 C   0  0  0  0  0  0  0  0  0  0  0  0
    6.2547  -16.5286   22.6926 O   0  0  0  0  0  0  0  0  0  0  0  0
    8.0130  -13.5410   20.4254 C   0  0  0  0  0  0  0  0  0  0  0  0
    7.6324  -14.9858   20.8436 C   0  0  2  0  0  0  0  0  0  0  0  0
    7.8873  -15.0210   22.2640 N   0  0  0  0  0  0  0  0  0  0  0  0
    8.5423  -15.8381   20.0373 C   0  0  0  0  0  0  0  0  0  0  0  0
    8.2716  -15.9189   18.8117 O   0  0  0  0  0  0  0  0  0  0  0  0
    9.6584  -16.5411   20.5317 N   0  0  0  0  0  0  0  0  0  0  0  0
   10.4855  -17.4685   19.8346 C   0  0  1  0  0  0  0  0  0  0  0  0
   11.9184  -17.5606   20.3396 C   0  0  0  0  0  0  0  0  0  0  0  0
   12.5890  -16.2634   20.4233 C   0  0  0  0  0  0  0  0  0  0  0  0
   13.2438  -15.8597   21.3997 O   0  0  0  0  0  0  0  0  0  0  0  0
    9.9534  -18.8321   19.7045 C   0  0  0  0  0  0  0  0  0  0  0  0
   10.5212  -19.8010   18.9025 O   0  0  0  0  0  0  0  0  0  0  0  0
   12.4981  -15.3867   19.3235 O   0  0  0  0  0  0  0  0  0  0  0  0
    8.9301  -19.1554   20.3467 O   0  0  0  0  0  0  0  0  0  0  0  0
  2  3  1  0
  2  1  1  1
  3  4  1  0
  4 12  1  0
  5  6  1  0
  5  4  2  0
  6  7  1  0
  7 12  2  0
  7  8  1  0
  8  9  2  0
  9 10  1  0
 11 10  2  0
 12 11  1  0
 13  2  1  0
 13 14  2  0
 16 15  1  6
 16 18  1  0
 16 17  1  0
 17 13  1  0
 18 19  2  0
 20 18  1  0
 20 21  1  0
 21 22  1  1
 22 23  1  0
 23 24  2  0
 25 21  1  0
 26 25  1  0
 27 23  1  0
 28 25  2  0
M  END
$$$$
