WAD.pdb
     RDKit          3D

 28 29  0  0  1  0  0  0  0  0999 V2000
    5.9111  -16.9116   23.2234 N   0  0  0  0  0  0  0  0  0  0  0  0
    6.7121  -15.7258   22.9846 C   0  0  1  0  0  0  0  0  0  0  0  0
    7.7341  -15.5878   24.0631 C   0  0  0  0  0  0  0  0  0  0  0  0
    7.2067  -15.0128   25.3221 C   0  0  0  0  0  0  0  0  0  0  0  0
    6.4925  -15.6344   26.3188 C   0  0  0  0  0  0  0  0  0  0  0  0
    6.1736  -14.7543   27.2892 N   0  0  0  0  0  0  0  0  0  0  0  0
    6.6735  -13.5350   26.9482 C   0  0  0  0  0  0  0  0  0  0  0  0
    6.6101  -12.3259   27.6090 C   0  0  0  0  0  0  0  0  0  0  0  0
    7.2064  -11.2256   27.0400 C   0  0  0  0  0  0  0  0  0  0  0  0
    7.8571  -11.3350   25.8263 C   0  0  0  0  0  0  0  0  0  0  0  0
    7.8938  -12.5604   25.2076 C   0  0  0  0  0  0  0  0  0  0  0  0
    7.3110  -13.7020   25.7316 C   0  0  0  0  0  0  0  0  0  0  0  0
    7.1788  -15.7293   21.6105 C   0  0  0  0  0  0  0  0  0  0  0  0
    7.3128  -16.7966   20.9594 O   0  0  0  0  0  0  0  0  0  0  0  0
    8.4500  -13.1322   19.2146 C   0  0  0  0  0  0  0  0  0  0  0  0
    8.1216  -14.6098   19.5553 C   0  0  2  0  0  0  0  0  0  0  0  0
    7.5250  -14.5452   20.8682 N   0  0  0  0  0  0  0  0  0  0  0  0
    9.4441  -15.2835   19.5165 C   0  0  0  0  0  0  0  0  0  0  0  0
    9.9566  -15.4151   18.3755 O   0  0  0  0  0  0  0  0  0  0  0  0
   10.1487  -15.7698   20.6350 N   0  0  0  0  0  0  0  0  0  0  0  0
   11.2792  -16.6369   20.6460 C   0  0  1  0  0  0  0  0  0  0  0  0
   12.4350  -16.1783   21.5238 C   0  0  0  0  0  0  0  0  0  0  0  0
   13.4244  -15.3738   20.8074 C   0  0  0  0  0  0  0  0  0  0  0  0
   13.4100  -15.1457   19.5856 O   0  0  0  0  0  0  0  0  0  0  0  0
   11.0031  -18.0486   20.9467 C   0  0  0  0  0  0  0  0  0  0  0  0
   11.9197  -19.0632   20.7610 O   0  0  0  0  0  0  0  0  0  0  0  0
   14.4856  -14.8039   21.5392 O   0  0  0  0  0  0  0  0  0  0  0  0
    9.8820  -18.3722   21.3968 O   0  0  0  0  0  0  0  0  0  0  0  0
  2  3  1  0
  2  1  1  1
  3  4  1  0
  4 12  1  0
  5  6  1  0
  5  4  2  0
  6  7  1  0
  7 12  2  0
  7  8  1  0
  8  9  2  0
  9 10  1  0
 11 10  2  0
 12 11  1  0
 13  2  1  0
 13 14  2  0
 16 15  1  1
 16 18  1  0
 16 17  1  0
 17 13  1  0
 18 19  2  0
 20 18  1  0
 20 21  1  0
 21 22  1  1
 22 23  1  0
 23 24  2  0
 25 21  1  0
 26 25  1  0
 27 23  1  0
 28 25  2  0
M  END
$$$$
