WAD.pdb
     RDKit          3D

 28 29  0  0  1  0  0  0  0  0999 V2000
    5.9486  -17.1708   23.6571 N   0  0  0  0  0  0  0  0  0  0  0  0
    6.6499  -15.9454   23.3230 C   0  0  1  0  0  0  0  0  0  0  0  0
    7.6833  -15.6622   24.3615 C   0  0  0  0  0  0  0  0  0  0  0  0
    7.1427  -15.0497   25.5971 C   0  0  0  0  0  0  0  0  0  0  0  0
    6.4430  -15.6473   26.6184 C   0  0  0  0  0  0  0  0  0  0  0  0
    6.1039  -14.7367   27.5532 N   0  0  0  0  0  0  0  0  0  0  0  0
    6.5756  -13.5208   27.1633 C   0  0  0  0  0  0  0  0  0  0  0  0
    6.4844  -12.2880   27.7755 C   0  0  0  0  0  0  0  0  0  0  0  0
    7.0551  -11.1979   27.1625 C   0  0  0  0  0  0  0  0  0  0  0  0
    7.7083  -11.3407   25.9535 C   0  0  0  0  0  0  0  0  0  0  0  0
    7.7732  -12.5887   25.3841 C   0  0  0  0  0  0  0  0  0  0  0  0
    7.2168  -13.7215   25.9538 C   0  0  0  0  0  0  0  0  0  0  0  0
    7.0831  -16.0013   21.9391 C   0  0  0  0  0  0  0  0  0  0  0  0
    7.3559  -17.0910   21.3740 O   0  0  0  0  0  0  0  0  0  0  0  0
    7.9487  -13.4570   19.3166 C   0  0  0  0  0  0  0  0  0  0  0  0
    7.8573  -14.9322   19.7887 C   0  0  2  0  0  0  0  0  0  0  0  0
    7.2392  -14.8486   21.0906 N   0  0  0  0  0  0  0  0  0  0  0  0
    9.2713  -15.3843   19.8105 C   0  0  0  0  0  0  0  0  0  0  0  0
    9.9716  -15.0348   18.8260 O   0  0  0  0  0  0  0  0  0  0  0  0
    9.8700  -16.1528   20.8280 N   0  0  0  0  0  0  0  0  0  0  0  0
   11.2155  -16.6163   20.8955 C   0  0  1  0  0  0  0  0  0  0  0  0
   12.2699  -15.5230   20.9947 C   0  0  0  0  0  0  0  0  0  0  0  0
   13.6397  -16.0355   20.9930 C   0  0  0  0  0  0  0  0  0  0  0  0
   14.1643  -16.6682   20.0605 O   0  0  0  0  0  0  0  0  0  0  0  0
   11.4968  -17.6238   21.9276 C   0  0  0  0  0  0  0  0  0  0  0  0
   10.5858  -18.0063   22.8910 O   0  0  0  0  0  0  0  0  0  0  0  0
   14.4453  -15.8066   22.1266 O   0  0  0  0  0  0  0  0  0  0  0  0
   12.6171  -18.1789   21.9541 O   0  0  0  0  0  0  0  0  0  0  0  0
  2  3  1  0
  2  1  1  1
  3  4  1  0
  4 12  1  0
  5  6  1  0
  5  4  2  0
  6  7  1  0
  7 12  2  0
  7  8  1  0
  8  9  2  0
  9 10  1  0
 11 10  2  0
 12 11  1  0
 13  2  1  0
 13 14  2  0
 16 15  1  1
 16 18  1  0
 16 17  1  0
 17 13  1  0
 18 19  2  0
 20 18  1  0
 20 21  1  0
 21 22  1  1
 22 23  1  0
 23 24  2  0
 25 21  1  0
 26 25  1  0
 27 23  1  0
 28 25  2  0
M  END
$$$$
