WAD.pdb
     RDKit          3D

 28 29  0  0  1  0  0  0  0  0999 V2000
    6.1050  -17.8730   24.6045 N   0  0  0  0  0  0  0  0  0  0  0  0
    6.6841  -16.5789   24.2968 C   0  0  1  0  0  0  0  0  0  0  0  0
    7.3720  -16.0392   25.5060 C   0  0  0  0  0  0  0  0  0  0  0  0
    6.6441  -14.9326   26.1690 C   0  0  0  0  0  0  0  0  0  0  0  0
    5.3820  -14.9379   26.7139 C   0  0  0  0  0  0  0  0  0  0  0  0
    5.0730  -13.7185   27.1991 N   0  0  0  0  0  0  0  0  0  0  0  0
    6.1285  -12.8868   26.9821 C   0  0  0  0  0  0  0  0  0  0  0  0
    6.2952  -11.5534   27.2935 C   0  0  0  0  0  0  0  0  0  0  0  0
    7.4770  -10.9356   26.9595 C   0  0  0  0  0  0  0  0  0  0  0  0
    8.4779  -11.6437   26.3226 C   0  0  0  0  0  0  0  0  0  0  0  0
    8.2649  -12.9693   26.0345 C   0  0  0  0  0  0  0  0  0  0  0  0
    7.0962  -13.6437   26.3454 C   0  0  0  0  0  0  0  0  0  0  0  0
    7.4542  -16.6758   23.0706 C   0  0  0  0  0  0  0  0  0  0  0  0
    8.1904  -17.6658   22.8275 O   0  0  0  0  0  0  0  0  0  0  0  0
    8.3247  -14.3122   20.3109 C   0  0  0  0  0  0  0  0  0  0  0  0
    8.3545  -15.7451   20.9051 C   0  0  2  0  0  0  0  0  0  0  0  0
    7.4543  -15.6790   22.0317 N   0  0  0  0  0  0  0  0  0  0  0  0
    9.7793  -15.9461   21.2712 C   0  0  0  0  0  0  0  0  0  0  0  0
   10.2287  -15.1769   22.1590 O   0  0  0  0  0  0  0  0  0  0  0  0
   10.6398  -16.9119   20.7135 N   0  0  0  0  0  0  0  0  0  0  0  0
   12.0280  -17.0995   20.9741 C   0  0  1  0  0  0  0  0  0  0  0  0
   12.4768  -18.5512   21.0632 C   0  0  0  0  0  0  0  0  0  0  0  0
   12.2137  -19.1612   22.3663 C   0  0  0  0  0  0  0  0  0  0  0  0
   12.6498  -18.7421   23.4522 O   0  0  0  0  0  0  0  0  0  0  0  0
   12.9513  -16.3848   20.0818 C   0  0  0  0  0  0  0  0  0  0  0  0
   14.3205  -16.3684   20.2528 O   0  0  0  0  0  0  0  0  0  0  0  0
   11.4062  -20.3152   22.4183 O   0  0  0  0  0  0  0  0  0  0  0  0
   12.4938  -15.7494   19.1067 O   0  0  0  0  0  0  0  0  0  0  0  0
  2  3  1  0
  2  1  1  1
  3  4  1  0
  4 12  1  0
  5  6  1  0
  5  4  2  0
  6  7  1  0
  7 12  2  0
  7  8  1  0
  8  9  2  0
  9 10  1  0
 11 10  2  0
 12 11  1  0
 13  2  1  0
 13 14  2  0
 16 15  1  1
 16 18  1  0
 16 17  1  0
 17 13  1  0
 18 19  2  0
 20 18  1  0
 20 21  1  0
 21 22  1  6
 22 23  1  0
 23 24  2  0
 25 21  1  0
 26 25  1  0
 27 23  1  0
 28 25  2  0
M  END
$$$$
