WAD.pdb
     RDKit          3D

 28 29  0  0  1  0  0  0  0  0999 V2000
    6.7509  -16.9340   25.3722 N   0  0  0  0  0  0  0  0  0  0  0  0
    7.1459  -15.7624   24.6131 C   0  0  1  0  0  0  0  0  0  0  0  0
    8.3787  -15.1719   25.2115 C   0  0  0  0  0  0  0  0  0  0  0  0
    8.1327  -14.3830   26.4408 C   0  0  0  0  0  0  0  0  0  0  0  0
    8.5237  -14.6553   27.7303 C   0  0  0  0  0  0  0  0  0  0  0  0
    8.0769  -13.6997   28.5699 N   0  0  0  0  0  0  0  0  0  0  0  0
    7.3825  -12.7790   27.8468 C   0  0  0  0  0  0  0  0  0  0  0  0
    6.7380  -11.6275   28.2484 C   0  0  0  0  0  0  0  0  0  0  0  0
    6.0992  -10.8596   27.3039 C   0  0  0  0  0  0  0  0  0  0  0  0
    6.1061  -11.2397   25.9757 C   0  0  0  0  0  0  0  0  0  0  0  0
    6.7621  -12.3941   25.6251 C   0  0  0  0  0  0  0  0  0  0  0  0
    7.4212  -13.2073   26.5316 C   0  0  0  0  0  0  0  0  0  0  0  0
    7.1740  -16.0918   23.2001 C   0  0  0  0  0  0  0  0  0  0  0  0
    7.3200  -17.2744   22.7985 O   0  0  0  0  0  0  0  0  0  0  0  0
    7.2528  -14.0839   20.0295 C   0  0  0  0  0  0  0  0  0  0  0  0
    7.3674  -15.4427   20.7695 C   0  0  2  0  0  0  0  0  0  0  0  0
    7.0388  -15.1276   22.1394 N   0  0  0  0  0  0  0  0  0  0  0  0
    8.7810  -15.8432   20.5558 C   0  0  0  0  0  0  0  0  0  0  0  0
    9.6468  -15.0115   20.9308 O   0  0  0  0  0  0  0  0  0  0  0  0
    9.2111  -17.0557   19.9821 N   0  0  0  0  0  0  0  0  0  0  0  0
   10.5374  -17.5729   19.9248 C   0  0  1  0  0  0  0  0  0  0  0  0
   11.6394  -16.5491   20.1584 C   0  0  0  0  0  0  0  0  0  0  0  0
   12.9844  -17.0884   19.9599 C   0  0  0  0  0  0  0  0  0  0  0  0
   13.2422  -18.2499   19.6003 O   0  0  0  0  0  0  0  0  0  0  0  0
   10.8077  -18.7432   20.7715 C   0  0  0  0  0  0  0  0  0  0  0  0
   10.8201  -18.7023   22.1508 O   0  0  0  0  0  0  0  0  0  0  0  0
   14.0888  -16.2433   20.1892 O   0  0  0  0  0  0  0  0  0  0  0  0
   11.0419  -19.8480   20.2346 O   0  0  0  0  0  0  0  0  0  0  0  0
  2  3  1  0
  2  1  1  1
  3  4  1  0
  4 12  1  0
  5  6  1  0
  5  4  2  0
  6  7  1  0
  7 12  2  0
  7  8  1  0
  8  9  2  0
  9 10  1  0
 11 10  2  0
 12 11  1  0
 13  2  1  0
 13 14  2  0
 16 15  1  6
 16 18  1  0
 16 17  1  0
 17 13  1  0
 18 19  2  0
 20 18  1  0
 20 21  1  0
 21 22  1  1
 22 23  1  0
 23 24  2  0
 25 21  1  0
 26 25  1  0
 27 23  1  0
 28 25  2  0
M  END
$$$$
