WAD.pdb
     RDKit          3D

 28 29  0  0  1  0  0  0  0  0999 V2000
    6.2619  -17.3735   24.6662 N   0  0  0  0  0  0  0  0  0  0  0  0
    6.9218  -16.2038   24.1173 C   0  0  1  0  0  0  0  0  0  0  0  0
    8.0132  -15.7685   25.0370 C   0  0  0  0  0  0  0  0  0  0  0  0
    7.5523  -14.9154   26.1567 C   0  0  0  0  0  0  0  0  0  0  0  0
    7.0758  -15.2964   27.3887 C   0  0  0  0  0  0  0  0  0  0  0  0
    6.7337  -14.2145   28.1168 N   0  0  0  0  0  0  0  0  0  0  0  0
    6.9797  -13.0993   27.3759 C   0  0  0  0  0  0  0  0  0  0  0  0
    6.7960  -11.7661   27.6785 C   0  0  0  0  0  0  0  0  0  0  0  0
    7.1288  -10.8195   26.7387 C   0  0  0  0  0  0  0  0  0  0  0  0
    7.6385  -11.2030   25.5133 C   0  0  0  0  0  0  0  0  0  0  0  0
    7.8039  -12.5424   25.2595 C   0  0  0  0  0  0  0  0  0  0  0  0
    7.4858  -13.5398   26.1658 C   0  0  0  0  0  0  0  0  0  0  0  0
    7.2689  -16.4538   22.7306 C   0  0  0  0  0  0  0  0  0  0  0  0
    7.7098  -17.5678   22.3488 O   0  0  0  0  0  0  0  0  0  0  0  0
    7.5235  -14.3168   19.6539 C   0  0  0  0  0  0  0  0  0  0  0  0
    7.7905  -15.6534   20.3953 C   0  0  2  0  0  0  0  0  0  0  0  0
    7.1459  -15.4819   21.6755 N   0  0  0  0  0  0  0  0  0  0  0  0
    9.2717  -15.7307   20.4615 C   0  0  0  0  0  0  0  0  0  0  0  0
    9.8089  -15.1111   21.4151 O   0  0  0  0  0  0  0  0  0  0  0  0
   10.0964  -16.4316   19.5599 N   0  0  0  0  0  0  0  0  0  0  0  0
   11.3324  -17.0852   19.8338 C   0  0  1  0  0  0  0  0  0  0  0  0
   11.2907  -18.0912   20.9754 C   0  0  0  0  0  0  0  0  0  0  0  0
   12.5736  -18.7517   21.2143 C   0  0  0  0  0  0  0  0  0  0  0  0
   13.5235  -18.2594   21.8471 O   0  0  0  0  0  0  0  0  0  0  0  0
   11.9925  -17.7190   18.6840 C   0  0  0  0  0  0  0  0  0  0  0  0
   13.3273  -17.5474   18.3787 O   0  0  0  0  0  0  0  0  0  0  0  0
   12.7704  -20.0472   20.6952 O   0  0  0  0  0  0  0  0  0  0  0  0
   11.3278  -18.4591   17.9262 O   0  0  0  0  0  0  0  0  0  0  0  0
  2  3  1  0
  2  1  1  1
  3  4  1  0
  4 12  1  0
  5  6  1  0
  5  4  2  0
  6  7  1  0
  7 12  2  0
  7  8  1  0
  8  9  2  0
  9 10  1  0
 11 10  2  0
 12 11  1  0
 13  2  1  0
 13 14  2  0
 16 15  1  6
 16 18  1  0
 16 17  1  0
 17 13  1  0
 18 19  2  0
 20 18  1  0
 20 21  1  0
 21 22  1  1
 22 23  1  0
 23 24  2  0
 25 21  1  0
 26 25  1  0
 27 23  1  0
 28 25  2  0
M  END
$$$$
