WAD.pdb
     RDKit          3D

 28 29  0  0  1  0  0  0  0  0999 V2000
    6.0386  -17.6843   24.1612 N   0  0  0  0  0  0  0  0  0  0  0  0
    6.6147  -16.3894   23.8513 C   0  0  1  0  0  0  0  0  0  0  0  0
    7.5358  -15.9765   24.9503 C   0  0  0  0  0  0  0  0  0  0  0  0
    6.9387  -15.0164   25.9072 C   0  0  0  0  0  0  0  0  0  0  0  0
    6.0707  -15.2628   26.9444 C   0  0  0  0  0  0  0  0  0  0  0  0
    5.7386  -14.1125   27.5642 N   0  0  0  0  0  0  0  0  0  0  0  0
    6.3835  -13.0860   26.9452 C   0  0  0  0  0  0  0  0  0  0  0  0
    6.3670  -11.7318   27.2072 C   0  0  0  0  0  0  0  0  0  0  0  0
    7.1195  -10.8933   26.4193 C   0  0  0  0  0  0  0  0  0  0  0  0
    7.8780  -11.4043   25.3837 C   0  0  0  0  0  0  0  0  0  0  0  0
    7.8622  -12.7596   25.1631 C   0  0  0  0  0  0  0  0  0  0  0  0
    7.1237  -13.6517   25.9222 C   0  0  0  0  0  0  0  0  0  0  0  0
    7.1441  -16.4094   22.5003 C   0  0  0  0  0  0  0  0  0  0  0  0
    7.3880  -17.4873   21.9005 O   0  0  0  0  0  0  0  0  0  0  0  0
    8.2335  -13.8240   20.0023 C   0  0  0  0  0  0  0  0  0  0  0  0
    7.9981  -15.3056   20.3982 C   0  0  2  0  0  0  0  0  0  0  0  0
    7.4349  -15.2313   21.7253 N   0  0  0  0  0  0  0  0  0  0  0  0
    9.3547  -15.9062   20.3419 C   0  0  0  0  0  0  0  0  0  0  0  0
    9.9267  -15.8591   19.2227 O   0  0  0  0  0  0  0  0  0  0  0  0
   10.0306  -16.5057   21.4226 N   0  0  0  0  0  0  0  0  0  0  0  0
   11.3656  -17.0026   21.4506 C   0  0  1  0  0  0  0  0  0  0  0  0
   12.3237  -16.3321   20.4762 C   0  0  0  0  0  0  0  0  0  0  0  0
   12.8239  -17.2350   19.4399 C   0  0  0  0  0  0  0  0  0  0  0  0
   13.1296  -18.4266   19.6178 O   0  0  0  0  0  0  0  0  0  0  0  0
   12.0070  -17.0466   22.7720 C   0  0  0  0  0  0  0  0  0  0  0  0
   11.3905  -16.6329   23.9352 O   0  0  0  0  0  0  0  0  0  0  0  0
   12.9802  -16.7362   18.1310 O   0  0  0  0  0  0  0  0  0  0  0  0
   13.1761  -17.4791   22.8725 O   0  0  0  0  0  0  0  0  0  0  0  0
  2  3  1  0
  2  1  1  1
  3  4  1  0
  4 12  1  0
  5  6  1  0
  5  4  2  0
  6  7  1  0
  7 12  2  0
  7  8  1  0
  8  9  2  0
  9 10  1  0
 11 10  2  0
 12 11  1  0
 13  2  1  0
 13 14  2  0
 16 15  1  1
 16 18  1  0
 16 17  1  0
 17 13  1  0
 18 19  2  0
 20 18  1  0
 20 21  1  0
 21 22  1  6
 22 23  1  0
 23 24  2  0
 25 21  1  0
 26 25  1  0
 27 23  1  0
 28 25  2  0
M  END
$$$$
