WAD.pdb
     RDKit          3D

 28 29  0  0  1  0  0  0  0  0999 V2000
    8.8671  -17.7689   22.7626 N   0  0  0  0  0  0  0  0  0  0  0  0
    9.9494  -17.1825   21.9947 C   0  0  1  0  0  0  0  0  0  0  0  0
   10.2252  -15.8032   22.4929 C   0  0  0  0  0  0  0  0  0  0  0  0
    9.0753  -14.8777   22.3697 C   0  0  0  0  0  0  0  0  0  0  0  0
    8.1513  -14.5221   23.3234 C   0  0  0  0  0  0  0  0  0  0  0  0
    7.2423  -13.6719   22.8050 N   0  0  0  0  0  0  0  0  0  0  0  0
    7.5523  -13.4518   21.4980 C   0  0  0  0  0  0  0  0  0  0  0  0
    6.9287  -12.6663   20.5510 C   0  0  0  0  0  0  0  0  0  0  0  0
    7.4512  -12.6166   19.2803 C   0  0  0  0  0  0  0  0  0  0  0  0
    8.5824  -13.3434   18.9628 C   0  0  0  0  0  0  0  0  0  0  0  0
    9.1677  -14.1099   19.9403 C   0  0  0  0  0  0  0  0  0  0  0  0
    8.6865  -14.1998   21.2356 C   0  0  0  0  0  0  0  0  0  0  0  0
   11.0607  -18.1142   21.9410 C   0  0  0  0  0  0  0  0  0  0  0  0
   11.5299  -18.6461   22.9794 O   0  0  0  0  0  0  0  0  0  0  0  0
   13.1858  -19.6179   19.2322 C   0  0  0  0  0  0  0  0  0  0  0  0
   12.8651  -19.4008   20.7347 C   0  0  2  0  0  0  0  0  0  0  0  0
   11.7226  -18.5185   20.7279 N   0  0  0  0  0  0  0  0  0  0  0  0
   14.1059  -18.7911   21.2761 C   0  0  0  0  0  0  0  0  0  0  0  0
   15.1302  -19.5204   21.2472 O   0  0  0  0  0  0  0  0  0  0  0  0
   14.2166  -17.4893   21.8026 N   0  0  0  0  0  0  0  0  0  0  0  0
   15.3029  -16.5785   21.6593 C   0  0  1  0  0  0  0  0  0  0  0  0
   15.4290  -15.9366   20.2849 C   0  0  0  0  0  0  0  0  0  0  0  0
   16.5268  -14.9747   20.1920 C   0  0  0  0  0  0  0  0  0  0  0  0
   17.7047  -15.2016   20.5179 O   0  0  0  0  0  0  0  0  0  0  0  0
   15.3907  -15.5188   22.6736 C   0  0  0  0  0  0  0  0  0  0  0  0
   16.5672  -14.8844   23.0165 O   0  0  0  0  0  0  0  0  0  0  0  0
   16.2505  -13.6838   19.6981 O   0  0  0  0  0  0  0  0  0  0  0  0
   14.3547  -15.1551   23.2723 O   0  0  0  0  0  0  0  0  0  0  0  0
  2  3  1  0
  2  1  1  1
  3  4  1  0
  4 12  1  0
  5  6  1  0
  5  4  2  0
  6  7  1  0
  7 12  2  0
  7  8  1  0
  8  9  2  0
  9 10  1  0
 11 10  2  0
 12 11  1  0
 13  2  1  0
 13 14  2  0
 16 15  1  6
 16 18  1  0
 16 17  1  0
 17 13  1  0
 18 19  2  0
 20 18  1  0
 20 21  1  0
 21 22  1  6
 22 23  1  0
 23 24  2  0
 25 21  1  0
 26 25  1  0
 27 23  1  0
 28 25  2  0
M  END
$$$$
