WAD.pdb
     RDKit          3D

 28 29  0  0  1  0  0  0  0  0999 V2000
    5.8215  -17.6455   23.5096 N   0  0  0  0  0  0  0  0  0  0  0  0
    6.5037  -16.3711   23.3857 C   0  0  1  0  0  0  0  0  0  0  0  0
    7.4168  -16.1781   24.5500 C   0  0  0  0  0  0  0  0  0  0  0  0
    6.9087  -15.2226   25.5614 C   0  0  0  0  0  0  0  0  0  0  0  0
    5.7579  -15.2935   26.3100 C   0  0  0  0  0  0  0  0  0  0  0  0
    5.6422  -14.2075   27.1004 N   0  0  0  0  0  0  0  0  0  0  0  0
    6.7172  -13.4004   26.8862 C   0  0  0  0  0  0  0  0  0  0  0  0
    7.0503  -12.1862   27.4496 C   0  0  0  0  0  0  0  0  0  0  0  0
    8.2113  -11.5658   27.0531 C   0  0  0  0  0  0  0  0  0  0  0  0
    9.0271  -12.1535   26.1057 C   0  0  0  0  0  0  0  0  0  0  0  0
    8.6530  -13.3634   25.5747 C   0  0  0  0  0  0  0  0  0  0  0  0
    7.4961  -14.0340   25.9342 C   0  0  0  0  0  0  0  0  0  0  0  0
    7.0742  -16.2583   22.0561 C   0  0  0  0  0  0  0  0  0  0  0  0
    7.4759  -17.2659   21.4201 O   0  0  0  0  0  0  0  0  0  0  0  0
    8.1621  -13.4109   19.8797 C   0  0  0  0  0  0  0  0  0  0  0  0
    7.9620  -14.9335   20.1008 C   0  0  2  0  0  0  0  0  0  0  0  0
    7.2333  -15.0170   21.3442 N   0  0  0  0  0  0  0  0  0  0  0  0
    9.3464  -15.4658   20.1660 C   0  0  0  0  0  0  0  0  0  0  0  0
    9.9680  -15.5061   19.0733 O   0  0  0  0  0  0  0  0  0  0  0  0
    9.9977  -15.9139   21.3319 N   0  0  0  0  0  0  0  0  0  0  0  0
   11.2487  -16.5887   21.4291 C   0  0  1  0  0  0  0  0  0  0  0  0
   12.3477  -15.8104   22.1386 C   0  0  0  0  0  0  0  0  0  0  0  0
   13.6039  -15.7670   21.3907 C   0  0  0  0  0  0  0  0  0  0  0  0
   13.8338  -16.3963   20.3437 O   0  0  0  0  0  0  0  0  0  0  0  0
   11.2050  -17.9446   21.9941 C   0  0  0  0  0  0  0  0  0  0  0  0
   10.1443  -18.4322   22.7300 O   0  0  0  0  0  0  0  0  0  0  0  0
   14.6489  -14.9558   21.8770 O   0  0  0  0  0  0  0  0  0  0  0  0
   12.1710  -18.7172   21.8106 O   0  0  0  0  0  0  0  0  0  0  0  0
  2  3  1  0
  2  1  1  1
  3  4  1  0
  4 12  1  0
  5  6  1  0
  5  4  2  0
  6  7  1  0
  7 12  2  0
  7  8  1  0
  8  9  2  0
  9 10  1  0
 11 10  2  0
 12 11  1  0
 13  2  1  0
 13 14  2  0
 16 15  1  1
 16 18  1  0
 16 17  1  0
 17 13  1  0
 18 19  2  0
 20 18  1  0
 20 21  1  0
 21 22  1  1
 22 23  1  0
 23 24  2  0
 25 21  1  0
 26 25  1  0
 27 23  1  0
 28 25  2  0
M  END
$$$$
