WAD.pdb
     RDKit          3D

 28 29  0  0  1  0  0  0  0  0999 V2000
    7.0069  -17.5880   24.3732 N   0  0  0  0  0  0  0  0  0  0  0  0
    7.3258  -16.3307   23.7235 C   0  0  1  0  0  0  0  0  0  0  0  0
    8.0540  -15.4454   24.6788 C   0  0  0  0  0  0  0  0  0  0  0  0
    7.1774  -14.7786   25.6692 C   0  0  0  0  0  0  0  0  0  0  0  0
    6.1903  -15.3285   26.4523 C   0  0  0  0  0  0  0  0  0  0  0  0
    5.6024  -14.3778   27.2061 N   0  0  0  0  0  0  0  0  0  0  0  0
    6.1931  -13.1824   26.9325 C   0  0  0  0  0  0  0  0  0  0  0  0
    5.9451  -11.9248   27.4421 C   0  0  0  0  0  0  0  0  0  0  0  0
    6.6953  -10.8650   26.9906 C   0  0  0  0  0  0  0  0  0  0  0  0
    7.6803  -11.0622   26.0421 C   0  0  0  0  0  0  0  0  0  0  0  0
    7.8901  -12.3330   25.5659 C   0  0  0  0  0  0  0  0  0  0  0  0
    7.1659  -13.4374   25.9821 C   0  0  0  0  0  0  0  0  0  0  0  0
    7.9511  -16.5969   22.4413 C   0  0  0  0  0  0  0  0  0  0  0  0
    8.6151  -17.6443   22.2331 O   0  0  0  0  0  0  0  0  0  0  0  0
    8.2570  -14.7772   19.1689 C   0  0  0  0  0  0  0  0  0  0  0  0
    8.5342  -16.0201   20.0552 C   0  0  2  0  0  0  0  0  0  0  0  0
    7.8769  -15.7170   21.3041 N   0  0  0  0  0  0  0  0  0  0  0  0
   10.0157  -16.0703   20.1397 C   0  0  0  0  0  0  0  0  0  0  0  0
   10.6115  -14.9816   19.9355 O   0  0  0  0  0  0  0  0  0  0  0  0
   10.7813  -17.2171   20.4275 N   0  0  0  0  0  0  0  0  0  0  0  0
   12.0948  -17.2754   20.9765 C   0  0  1  0  0  0  0  0  0  0  0  0
   12.3144  -16.4186   22.2153 C   0  0  0  0  0  0  0  0  0  0  0  0
   13.6938  -16.4430   22.7010 C   0  0  0  0  0  0  0  0  0  0  0  0
   14.0318  -16.6326   23.8820 O   0  0  0  0  0  0  0  0  0  0  0  0
   12.6186  -18.6214   21.2474 C   0  0  0  0  0  0  0  0  0  0  0  0
   12.0601  -19.4890   22.1637 O   0  0  0  0  0  0  0  0  0  0  0  0
   14.7367  -16.2371   21.7756 O   0  0  0  0  0  0  0  0  0  0  0  0
   13.6255  -19.0247   20.6249 O   0  0  0  0  0  0  0  0  0  0  0  0
  2  3  1  0
  2  1  1  1
  3  4  1  0
  4 12  1  0
  5  6  1  0
  5  4  2  0
  6  7  1  0
  7 12  2  0
  7  8  1  0
  8  9  2  0
  9 10  1  0
 11 10  2  0
 12 11  1  0
 13  2  1  0
 13 14  2  0
 16 15  1  6
 16 18  1  0
 16 17  1  0
 17 13  1  0
 18 19  2  0
 20 18  1  0
 20 21  1  0
 21 22  1  1
 22 23  1  0
 23 24  2  0
 25 21  1  0
 26 25  1  0
 27 23  1  0
 28 25  2  0
M  END
$$$$
