MLT.pdb
     RDKit          3D

 24 23  0  0  1  0  0  0  0  0999 V2000
   28.7292  -24.2228  -16.2313 C   0  0  0  0  0  0  0  0  0  0  0  0
   29.2321  -22.6421  -16.9556 S   0  0  0  0  0  0  0  0  0  0  0  0
   29.3369  -21.3417  -15.6935 C   0  0  0  0  0  0  0  0  0  0  0  0
   28.5506  -21.7347  -14.4476 C   0  0  0  0  0  0  0  0  0  0  0  0
   27.5627  -20.6572  -14.0662 C   0  0  2  0  0  0  0  0  0  0  0  0
   28.2278  -19.4646  -13.5855 N   0  0  0  0  0  0  0  0  0  0  0  0
   26.5690  -21.1421  -13.0779 C   0  0  0  0  0  0  0  0  0  0  0  0
   25.9975  -22.2517  -13.2922 O   0  0  0  0  0  0  0  0  0  0  0  0
   26.5462  -21.8634   -8.7288 C   0  0  0  0  0  0  0  0  0  0  0  0
   26.5351  -20.3692   -9.1643 C   0  0  2  0  0  0  0  0  0  0  0  0
   26.7246  -19.6039   -7.8782 C   0  0  0  0  0  0  0  0  0  0  0  0
   25.1800  -20.1403   -9.7486 C   0  0  0  0  0  0  0  0  0  0  0  0
   25.0286  -20.7804  -11.0861 C   0  0  2  0  0  0  0  0  0  0  0  0
   26.2148  -20.4508  -11.9116 N   0  0  0  0  0  0  0  0  0  0  0  0
   23.8225  -20.4146  -11.8504 C   0  0  0  0  0  0  0  0  0  0  0  0
   23.6056  -19.1768  -12.1610 O   0  0  0  0  0  0  0  0  0  0  0  0
   22.8009  -21.3783  -15.2284 C   0  0  0  0  0  0  0  0  0  0  0  0
   21.6304  -21.6888  -14.3589 C   0  0  1  0  0  0  0  0  0  0  0  0
   21.5223  -23.0355  -14.1152 O   0  0  0  0  0  0  0  0  0  0  0  0
   21.6568  -20.8684  -13.0657 C   0  0  2  0  0  0  0  0  0  0  0  0
   22.8234  -21.2910  -12.3163 N   0  0  0  0  0  0  0  0  0  0  0  0
   20.4122  -21.0020  -12.3258 C   0  0  0  0  0  0  0  0  0  0  0  0
   20.4031  -21.5523  -11.2007 O   0  0  0  0  0  0  0  0  0  0  0  0
   19.2116  -20.5361  -12.8244 O   0  0  0  0  0  0  0  0  0  0  0  0
  1  2  1  0
  2  3  1  0
  4  3  1  0
  5  4  1  0
  5  6  1  1
  7  5  1  0
  7  8  2  0
 10  9  1  1
 10 12  1  0
 10 11  1  0
 13 12  1  1
 13 14  1  0
 14  7  1  0
 15 13  1  0
 16 15  2  0
 18 17  1  1
 18 20  1  0
 19 18  1  0
 20 22  1  0
 20 21  1  1
 21 15  1  0
 22 24  1  0
 23 22  2  0
M  END
$$$$
