MLT.pdb
     RDKit          3D

 24 23  0  0  1  0  0  0  0  0999 V2000
   19.0844  -16.0742  -15.7751 C   0  0  0  0  0  0  0  0  0  0  0  0
   19.4621  -15.4964  -17.4483 S   0  0  0  0  0  0  0  0  0  0  0  0
   18.6499  -13.9111  -17.7978 C   0  0  0  0  0  0  0  0  0  0  0  0
   19.1405  -12.8310  -16.8398 C   0  0  0  0  0  0  0  0  0  0  0  0
   19.7898  -11.6925  -17.5911 C   0  0  2  0  0  0  0  0  0  0  0  0
   20.9550  -12.1317  -18.3295 N   0  0  0  0  0  0  0  0  0  0  0  0
   20.1286  -10.5602  -16.6953 C   0  0  0  0  0  0  0  0  0  0  0  0
   19.2680  -10.1856  -15.8451 O   0  0  0  0  0  0  0  0  0  0  0  0
   23.0155   -9.9918  -13.3324 C   0  0  0  0  0  0  0  0  0  0  0  0
   23.5172  -10.1468  -14.7975 C   0  0  2  0  0  0  0  0  0  0  0  0
   25.0114  -10.3069  -14.6657 C   0  0  0  0  0  0  0  0  0  0  0  0
   23.1567   -8.8651  -15.4739 C   0  0  0  0  0  0  0  0  0  0  0  0
   21.7007   -8.7814  -15.7813 C   0  0  2  0  0  0  0  0  0  0  0  0
   21.3472   -9.8690  -16.7244 N   0  0  0  0  0  0  0  0  0  0  0  0
   21.2279   -7.5076  -16.3529 C   0  0  0  0  0  0  0  0  0  0  0  0
   21.6866   -7.1019  -17.4934 O   0  0  0  0  0  0  0  0  0  0  0  0
   17.9060   -6.6353  -17.5848 C   0  0  0  0  0  0  0  0  0  0  0  0
   18.2641   -5.6013  -16.5722 C   0  0  1  0  0  0  0  0  0  0  0  0
   17.6669   -5.8488  -15.3611 O   0  0  0  0  0  0  0  0  0  0  0  0
   19.7820   -5.4403  -16.4453 C   0  0  2  0  0  0  0  0  0  0  0  0
   20.2836   -6.6299  -15.7862 N   0  0  0  0  0  0  0  0  0  0  0  0
   20.1302   -4.2065  -15.7590 C   0  0  0  0  0  0  0  0  0  0  0  0
   20.7455   -4.2431  -14.6687 O   0  0  0  0  0  0  0  0  0  0  0  0
   19.8025   -2.9669  -16.2721 O   0  0  0  0  0  0  0  0  0  0  0  0
  1  2  1  0
  2  3  1  0
  4  3  1  0
  5  4  1  0
  5  6  1  1
  7  5  1  0
  7  8  2  0
 10  9  1  1
 10 12  1  0
 10 11  1  0
 13 12  1  6
 13 14  1  0
 14  7  1  0
 15 13  1  0
 16 15  2  0
 18 17  1  6
 18 20  1  0
 19 18  1  0
 20 22  1  0
 20 21  1  1
 21 15  1  0
 22 24  1  0
 23 22  2  0
M  END
$$$$
