MLT.pdb
     RDKit          3D

 24 23  0  0  1  0  0  0  0  0999 V2000
   29.9038  -17.6463  -18.2875 C   0  0  0  0  0  0  0  0  0  0  0  0
   29.1204  -16.0167  -18.3701 S   0  0  0  0  0  0  0  0  0  0  0  0
   27.9544  -15.7751  -17.0000 C   0  0  0  0  0  0  0  0  0  0  0  0
   27.4458  -17.1159  -16.4819 C   0  0  0  0  0  0  0  0  0  0  0  0
   26.2933  -16.9264  -15.5236 C   0  0  2  0  0  0  0  0  0  0  0  0
   26.5804  -15.9109  -14.5326 N   0  0  0  0  0  0  0  0  0  0  0  0
   25.8978  -18.1999  -14.8749 C   0  0  0  0  0  0  0  0  0  0  0  0
   25.6945  -19.2123  -15.6081 O   0  0  0  0  0  0  0  0  0  0  0  0
   25.4886  -20.5166   -9.1835 C   0  0  0  0  0  0  0  0  0  0  0  0
   25.1899  -20.8070  -10.6831 C   0  0  2  0  0  0  0  0  0  0  0  0
   26.0046  -22.0377  -10.9949 C   0  0  0  0  0  0  0  0  0  0  0  0
   25.6918  -19.6105  -11.4225 C   0  0  0  0  0  0  0  0  0  0  0  0
   25.2945  -19.6293  -12.8589 C   0  0  2  0  0  0  0  0  0  0  0  0
   25.7316  -18.3628  -13.4931 N   0  0  0  0  0  0  0  0  0  0  0  0
   23.8576  -19.8078  -13.1350 C   0  0  0  0  0  0  0  0  0  0  0  0
   23.0269  -18.8485  -12.8795 O   0  0  0  0  0  0  0  0  0  0  0  0
   22.1378  -21.0264  -16.4043 C   0  0  0  0  0  0  0  0  0  0  0  0
   21.6502  -21.8270  -15.2451 C   0  0  1  0  0  0  0  0  0  0  0  0
   22.2347  -23.0686  -15.2041 O   0  0  0  0  0  0  0  0  0  0  0  0
   21.8172  -21.0665  -13.9261 C   0  0  2  0  0  0  0  0  0  0  0  0
   23.2406  -20.9519  -13.6770 N   0  0  0  0  0  0  0  0  0  0  0  0
   21.0891  -21.7109  -12.8449 C   0  0  0  0  0  0  0  0  0  0  0  0
   21.7081  -22.2126  -11.8785 O   0  0  0  0  0  0  0  0  0  0  0  0
   19.7106  -21.7945  -12.8397 O   0  0  0  0  0  0  0  0  0  0  0  0
  1  2  1  0
  2  3  1  0
  4  3  1  0
  5  4  1  0
  5  6  1  1
  7  5  1  0
  7  8  2  0
 10  9  1  1
 10 12  1  0
 10 11  1  0
 13 12  1  1
 13 14  1  0
 14  7  1  0
 15 13  1  0
 16 15  2  0
 18 17  1  6
 18 20  1  0
 19 18  1  0
 20 22  1  0
 20 21  1  1
 21 15  1  0
 22 24  1  0
 23 22  2  0
M  END
$$$$
