MLT.pdb
     RDKit          3D

 24 23  0  0  1  0  0  0  0  0999 V2000
   27.6752  -12.4192  -14.7519 C   0  0  0  0  0  0  0  0  0  0  0  0
   27.2281  -14.0275  -15.4518 S   0  0  0  0  0  0  0  0  0  0  0  0
   26.9757  -13.9187  -17.2461 C   0  0  0  0  0  0  0  0  0  0  0  0
   25.7659  -13.0486  -17.5689 C   0  0  0  0  0  0  0  0  0  0  0  0
   24.4788  -13.8185  -17.3871 C   0  0  2  0  0  0  0  0  0  0  0  0
   24.3714  -14.9145  -18.3267 N   0  0  0  0  0  0  0  0  0  0  0  0
   23.2899  -12.9358  -17.4677 C   0  0  0  0  0  0  0  0  0  0  0  0
   22.8969  -12.5563  -18.6103 O   0  0  0  0  0  0  0  0  0  0  0  0
   17.9054  -12.2837  -15.1224 C   0  0  0  0  0  0  0  0  0  0  0  0
   18.9816  -11.4435  -15.8695 C   0  0  2  0  0  0  0  0  0  0  0  0
   18.3882  -11.2065  -17.2360 C   0  0  0  0  0  0  0  0  0  0  0  0
   20.1883  -12.3206  -15.9361 C   0  0  0  0  0  0  0  0  0  0  0  0
   21.3847  -11.5937  -16.4477 C   0  0  2  0  0  0  0  0  0  0  0  0
   22.5635  -12.4879  -16.3563 N   0  0  0  0  0  0  0  0  0  0  0  0
   21.7166  -10.3275  -15.7701 C   0  0  0  0  0  0  0  0  0  0  0  0
   22.2819  -10.3469  -14.6058 O   0  0  0  0  0  0  0  0  0  0  0  0
   23.7735   -7.3669  -17.0831 C   0  0  0  0  0  0  0  0  0  0  0  0
   22.4672   -6.8593  -16.5746 C   0  0  1  0  0  0  0  0  0  0  0  0
   21.6002   -6.5731  -17.5999 O   0  0  0  0  0  0  0  0  0  0  0  0
   21.8524   -7.8163  -15.5488 C   0  0  2  0  0  0  0  0  0  0  0  0
   21.4887   -9.0265  -16.2590 N   0  0  0  0  0  0  0  0  0  0  0  0
   20.7389   -7.1991  -14.8463 C   0  0  0  0  0  0  0  0  0  0  0  0
   19.5704   -7.6101  -15.0314 O   0  0  0  0  0  0  0  0  0  0  0  0
   20.9213   -6.1535  -13.9627 O   0  0  0  0  0  0  0  0  0  0  0  0
  1  2  1  0
  2  3  1  0
  4  3  1  0
  5  4  1  0
  5  6  1  6
  7  5  1  0
  7  8  2  0
 10  9  1  1
 10 12  1  0
 10 11  1  0
 13 12  1  1
 13 14  1  0
 14  7  1  0
 15 13  1  0
 16 15  2  0
 18 17  1  6
 18 20  1  0
 19 18  1  0
 20 22  1  0
 20 21  1  6
 21 15  1  0
 22 24  1  0
 23 22  2  0
M  END
$$$$
