MLT.pdb
     RDKit          3D

 24 23  0  0  1  0  0  0  0  0999 V2000
   18.4672  -14.7055  -16.5615 C   0  0  0  0  0  0  0  0  0  0  0  0
   17.7657  -13.9093  -18.0279 S   0  0  0  0  0  0  0  0  0  0  0  0
   17.4278  -12.1516  -17.7260 C   0  0  0  0  0  0  0  0  0  0  0  0
   17.8782  -11.7483  -16.3263 C   0  0  0  0  0  0  0  0  0  0  0  0
   17.6489  -10.2747  -16.0851 C   0  0  2  0  0  0  0  0  0  0  0  0
   16.5842   -9.7538  -16.9163 N   0  0  0  0  0  0  0  0  0  0  0  0
   18.8914   -9.4849  -16.2624 C   0  0  0  0  0  0  0  0  0  0  0  0
   19.9275   -9.8400  -15.6267 O   0  0  0  0  0  0  0  0  0  0  0  0
   22.2226   -8.4753  -19.2081 C   0  0  0  0  0  0  0  0  0  0  0  0
   20.7455   -8.1457  -19.5713 C   0  0  2  0  0  0  0  0  0  0  0  0
   20.8124   -7.6504  -20.9947 C   0  0  0  0  0  0  0  0  0  0  0  0
   20.3415   -7.0612  -18.6276 C   0  0  0  0  0  0  0  0  0  0  0  0
   20.2328   -7.5488  -17.2234 C   0  0  2  0  0  0  0  0  0  0  0  0
   19.0000   -8.3615  -17.0929 N   0  0  0  0  0  0  0  0  0  0  0  0
   20.2123   -6.5137  -16.1742 C   0  0  0  0  0  0  0  0  0  0  0  0
   19.2383   -5.6624  -16.1258 O   0  0  0  0  0  0  0  0  0  0  0  0
   19.8230   -6.8886  -12.5923 C   0  0  0  0  0  0  0  0  0  0  0  0
   21.0636   -6.0821  -12.7738 C   0  0  1  0  0  0  0  0  0  0  0  0
   22.1932   -6.8461  -12.6153 O   0  0  0  0  0  0  0  0  0  0  0  0
   21.0568   -5.3320  -14.1093 C   0  0  2  0  0  0  0  0  0  0  0  0
   21.1690   -6.3267  -15.1578 N   0  0  0  0  0  0  0  0  0  0  0  0
   22.0996   -4.3198  -14.1560 C   0  0  0  0  0  0  0  0  0  0  0  0
   23.0222   -4.4028  -14.9989 O   0  0  0  0  0  0  0  0  0  0  0  0
   22.1149   -3.2453  -13.2884 O   0  0  0  0  0  0  0  0  0  0  0  0
  1  2  1  0
  2  3  1  0
  4  3  1  0
  5  4  1  0
  5  6  1  6
  7  5  1  0
  7  8  2  0
 10  9  1  1
 10 12  1  0
 10 11  1  0
 13 12  1  6
 13 14  1  0
 14  7  1  0
 15 13  1  0
 16 15  2  0
 18 17  1  6
 18 20  1  0
 19 18  1  0
 20 22  1  0
 20 21  1  6
 21 15  1  0
 22 24  1  0
 23 22  2  0
M  END
$$$$
