MLT.pdb
     RDKit          3D

 24 23  0  0  1  0  0  0  0  0999 V2000
   21.8037  -15.6023  -17.6651 C   0  0  0  0  0  0  0  0  0  0  0  0
   21.6655  -15.0119  -19.3706 S   0  0  0  0  0  0  0  0  0  0  0  0
   21.0790  -13.2950  -19.4287 C   0  0  0  0  0  0  0  0  0  0  0  0
   21.5832  -12.5116  -18.2217 C   0  0  0  0  0  0  0  0  0  0  0  0
   21.8972  -11.0817  -18.5945 C   0  0  2  0  0  0  0  0  0  0  0  0
   22.7678  -11.0064  -19.7487 N   0  0  0  0  0  0  0  0  0  0  0  0
   22.4668  -10.3246  -17.4536 C   0  0  0  0  0  0  0  0  0  0  0  0
   21.7971  -10.2561  -16.3809 O   0  0  0  0  0  0  0  0  0  0  0  0
   26.0311  -11.2498  -15.2690 C   0  0  0  0  0  0  0  0  0  0  0  0
   26.2354  -10.5212  -16.6291 C   0  0  2  0  0  0  0  0  0  0  0  0
   27.7210  -10.6040  -16.8778 C   0  0  0  0  0  0  0  0  0  0  0  0
   25.7928   -9.1148  -16.3918 C   0  0  0  0  0  0  0  0  0  0  0  0
   24.3094   -8.9988  -16.3053 C   0  0  2  0  0  0  0  0  0  0  0  0
   23.7071   -9.6731  -17.4800 N   0  0  0  0  0  0  0  0  0  0  0  0
   23.7661   -7.6305  -16.2340 C   0  0  0  0  0  0  0  0  0  0  0  0
   24.2193   -6.7136  -17.0275 O   0  0  0  0  0  0  0  0  0  0  0  0
   20.8313   -6.3214  -17.3683 C   0  0  0  0  0  0  0  0  0  0  0  0
   20.8239   -5.8722  -15.9467 C   0  0  1  0  0  0  0  0  0  0  0  0
   19.9806   -6.6353  -15.1778 O   0  0  0  0  0  0  0  0  0  0  0  0
   22.2406   -5.8153  -15.3673 C   0  0  2  0  0  0  0  0  0  0  0  0
   22.7562   -7.1701  -15.3672 N   0  0  0  0  0  0  0  0  0  0  0  0
   22.2535   -5.1896  -14.0547 C   0  0  0  0  0  0  0  0  0  0  0  0
   21.9997   -3.9690  -13.9352 O   0  0  0  0  0  0  0  0  0  0  0  0
   22.5411   -5.9029  -12.9076 O   0  0  0  0  0  0  0  0  0  0  0  0
  1  2  1  0
  2  3  1  0
  4  3  1  0
  5  4  1  0
  5  6  1  6
  7  5  1  0
  7  8  2  0
 10  9  1  1
 10 12  1  0
 10 11  1  0
 13 12  1  6
 13 14  1  0
 14  7  1  0
 15 13  1  0
 16 15  2  0
 18 17  1  6
 18 20  1  0
 19 18  1  0
 20 22  1  0
 20 21  1  1
 21 15  1  0
 22 24  1  0
 23 22  2  0
M  END
$$$$
