MLT.pdb
     RDKit          3D

 24 23  0  0  1  0  0  0  0  0999 V2000
   18.7982  -22.8570   -9.3286 C   0  0  0  0  0  0  0  0  0  0  0  0
   20.2988  -22.0623   -9.9553 S   0  0  0  0  0  0  0  0  0  0  0  0
   19.9088  -20.8244  -11.2244 C   0  0  0  0  0  0  0  0  0  0  0  0
   21.1758  -20.1225  -11.7007 C   0  0  0  0  0  0  0  0  0  0  0  0
   21.7914  -20.8491  -12.8735 C   0  0  2  0  0  0  0  0  0  0  0  0
   21.8335  -22.2798  -12.6569 N   0  0  0  0  0  0  0  0  0  0  0  0
   23.1390  -20.3253  -13.2035 C   0  0  0  0  0  0  0  0  0  0  0  0
   23.2524  -19.1012  -13.5074 O   0  0  0  0  0  0  0  0  0  0  0  0
   26.2080  -19.5549  -10.7255 C   0  0  0  0  0  0  0  0  0  0  0  0
   26.1328  -21.0654  -11.0929 C   0  0  2  0  0  0  0  0  0  0  0  0
   27.0845  -21.7318  -10.1308 C   0  0  0  0  0  0  0  0  0  0  0  0
   26.6210  -21.1518  -12.5016 C   0  0  0  0  0  0  0  0  0  0  0  0
   25.6590  -20.5506  -13.4684 C   0  0  2  0  0  0  0  0  0  0  0  0
   24.3076  -21.0986  -13.2025 N   0  0  0  0  0  0  0  0  0  0  0  0
   25.9613  -20.7499  -14.8972 C   0  0  0  0  0  0  0  0  0  0  0  0
   26.0704  -21.9487  -15.3731 O   0  0  0  0  0  0  0  0  0  0  0  0
   24.0671  -20.1743  -17.9471 C   0  0  0  0  0  0  0  0  0  0  0  0
   25.3323  -19.3993  -18.0931 C   0  0  1  0  0  0  0  0  0  0  0  0
   25.1452  -18.0666  -17.8217 O   0  0  0  0  0  0  0  0  0  0  0  0
   26.4632  -20.0056  -17.2567 C   0  0  2  0  0  0  0  0  0  0  0  0
   26.1516  -19.7449  -15.8653 N   0  0  0  0  0  0  0  0  0  0  0  0
   27.7609  -19.4933  -17.6663 C   0  0  0  0  0  0  0  0  0  0  0  0
   28.4459  -18.8052  -16.8752 O   0  0  0  0  0  0  0  0  0  0  0  0
   28.2813  -19.7401  -18.9215 O   0  0  0  0  0  0  0  0  0  0  0  0
  1  2  1  0
  2  3  1  0
  4  3  1  0
  5  4  1  0
  5  6  1  1
  7  5  1  0
  7  8  2  0
 10  9  1  1
 10 12  1  0
 10 11  1  0
 13 12  1  1
 13 14  1  0
 14  7  1  0
 15 13  1  0
 16 15  2  0
 18 17  1  1
 18 20  1  0
 19 18  1  0
 20 22  1  0
 20 21  1  1
 21 15  1  0
 22 24  1  0
 23 22  2  0
M  END
$$$$
