MLT.pdb
     RDKit          3D

 24 23  0  0  1  0  0  0  0  0999 V2000
   15.2656  -10.8148  -20.2720 C   0  0  0  0  0  0  0  0  0  0  0  0
   16.5858  -11.6330  -21.2014 S   0  0  0  0  0  0  0  0  0  0  0  0
   17.7190  -12.5203  -20.0952 C   0  0  0  0  0  0  0  0  0  0  0  0
   18.0756  -11.6617  -18.8868 C   0  0  0  0  0  0  0  0  0  0  0  0
   19.0509  -12.3765  -17.9811 C   0  0  2  0  0  0  0  0  0  0  0  0
   18.5989  -13.7119  -17.6525 N   0  0  0  0  0  0  0  0  0  0  0  0
   19.3366  -11.5985  -16.7514 C   0  0  0  0  0  0  0  0  0  0  0  0
   18.5655  -11.7383  -15.7566 O   0  0  0  0  0  0  0  0  0  0  0  0
   21.3169   -9.6165  -12.6702 C   0  0  0  0  0  0  0  0  0  0  0  0
   22.4113   -9.3281  -13.7386 C   0  0  2  0  0  0  0  0  0  0  0  0
   22.2593   -7.8581  -14.0416 C   0  0  0  0  0  0  0  0  0  0  0  0
   22.0465  -10.1747  -14.9133 C   0  0  0  0  0  0  0  0  0  0  0  0
   20.6619   -9.9038  -15.3938 C   0  0  2  0  0  0  0  0  0  0  0  0
   20.4115  -10.7103  -16.6121 N   0  0  0  0  0  0  0  0  0  0  0  0
   20.3425   -8.4980  -15.7013 C   0  0  0  0  0  0  0  0  0  0  0  0
   21.1675   -7.7865  -16.4005 O   0  0  0  0  0  0  0  0  0  0  0  0
   16.9866   -4.8246  -15.8344 C   0  0  0  0  0  0  0  0  0  0  0  0
   17.4479   -6.1406  -15.3073 C   0  0  1  0  0  0  0  0  0  0  0  0
   16.6036   -7.1587  -15.6750 O   0  0  0  0  0  0  0  0  0  0  0  0
   18.9009   -6.4256  -15.6993 C   0  0  2  0  0  0  0  0  0  0  0  0
   19.1864   -7.7934  -15.3137 N   0  0  0  0  0  0  0  0  0  0  0  0
   19.8104   -5.4553  -15.1113 C   0  0  0  0  0  0  0  0  0  0  0  0
   20.1140   -5.5294  -13.8984 O   0  0  0  0  0  0  0  0  0  0  0  0
   20.3662   -4.4312  -15.8527 O   0  0  0  0  0  0  0  0  0  0  0  0
  1  2  1  0
  2  3  1  0
  4  3  1  0
  5  4  1  0
  5  6  1  1
  7  5  1  0
  7  8  2  0
 10  9  1  1
 10 12  1  0
 10 11  1  0
 13 12  1  6
 13 14  1  0
 14  7  1  0
 15 13  1  0
 16 15  2  0
 18 17  1  6
 18 20  1  0
 19 18  1  0
 20 22  1  0
 20 21  1  1
 21 15  1  0
 22 24  1  0
 23 22  2  0
M  END
$$$$
