MLT.pdb
     RDKit          3D

 24 23  0  0  1  0  0  0  0  0999 V2000
   17.2404   -7.3295  -21.0789 C   0  0  0  0  0  0  0  0  0  0  0  0
   18.6334   -7.9410  -22.0596 S   0  0  0  0  0  0  0  0  0  0  0  0
   19.5307   -9.2536  -21.1839 C   0  0  0  0  0  0  0  0  0  0  0  0
   19.4010   -9.0812  -19.6745 C   0  0  0  0  0  0  0  0  0  0  0  0
   20.2156  -10.1180  -18.9371 C   0  0  2  0  0  0  0  0  0  0  0  0
   19.5756  -11.4164  -18.9556 N   0  0  0  0  0  0  0  0  0  0  0  0
   20.5180   -9.6984  -17.5472 C   0  0  0  0  0  0  0  0  0  0  0  0
   19.5667   -9.6455  -16.7128 O   0  0  0  0  0  0  0  0  0  0  0  0
   21.9526  -11.3800  -14.0416 C   0  0  0  0  0  0  0  0  0  0  0  0
   22.9988  -11.1583  -15.1724 C   0  0  2  0  0  0  0  0  0  0  0  0
   24.2119  -11.9299  -14.7155 C   0  0  0  0  0  0  0  0  0  0  0  0
   23.2541   -9.6870  -15.1885 C   0  0  0  0  0  0  0  0  0  0  0  0
   22.0840   -8.9186  -15.7004 C   0  0  2  0  0  0  0  0  0  0  0  0
   21.7960   -9.3529  -17.0881 N   0  0  0  0  0  0  0  0  0  0  0  0
   22.2174   -7.4507  -15.6981 C   0  0  0  0  0  0  0  0  0  0  0  0
   23.0677   -6.8783  -16.4888 O   0  0  0  0  0  0  0  0  0  0  0  0
   19.6680   -4.8776  -16.4747 C   0  0  0  0  0  0  0  0  0  0  0  0
   20.2523   -4.5031  -15.1552 C   0  0  1  0  0  0  0  0  0  0  0  0
   19.4103   -4.8216  -14.1187 O   0  0  0  0  0  0  0  0  0  0  0  0
   21.6499   -5.1014  -14.9685 C   0  0  2  0  0  0  0  0  0  0  0  0
   21.4924   -6.5410  -14.9042 N   0  0  0  0  0  0  0  0  0  0  0  0
   22.3184   -4.5385  -13.8064 C   0  0  0  0  0  0  0  0  0  0  0  0
   22.6303   -3.3257  -13.7839 O   0  0  0  0  0  0  0  0  0  0  0  0
   22.6309   -5.3043  -12.7004 O   0  0  0  0  0  0  0  0  0  0  0  0
  1  2  1  0
  2  3  1  0
  4  3  1  0
  5  4  1  0
  5  6  1  1
  7  5  1  0
  7  8  2  0
 10  9  1  1
 10 12  1  0
 10 11  1  0
 13 12  1  6
 13 14  1  0
 14  7  1  0
 15 13  1  0
 16 15  2  0
 18 17  1  6
 18 20  1  0
 19 18  1  0
 20 22  1  0
 20 21  1  1
 21 15  1  0
 22 24  1  0
 23 22  2  0
M  END
$$$$
