MLT.pdb
     RDKit          3D

 24 23  0  0  1  0  0  0  0  0999 V2000
   27.8504  -14.6646  -16.3816 C   0  0  0  0  0  0  0  0  0  0  0  0
   28.9977  -14.4700  -17.7679 S   0  0  0  0  0  0  0  0  0  0  0  0
   30.7213  -14.4456  -17.1992 C   0  0  0  0  0  0  0  0  0  0  0  0
   31.0556  -13.1081  -16.5480 C   0  0  0  0  0  0  0  0  0  0  0  0
   31.3131  -12.0454  -17.5905 C   0  0  2  0  0  0  0  0  0  0  0  0
   32.4276  -12.3921  -18.4469 N   0  0  0  0  0  0  0  0  0  0  0  0
   31.5123  -10.7084  -16.9805 C   0  0  0  0  0  0  0  0  0  0  0  0
   30.5786  -10.2215  -16.2769 O   0  0  0  0  0  0  0  0  0  0  0  0
   34.5339   -6.1221  -16.3975 C   0  0  0  0  0  0  0  0  0  0  0  0
   34.4341   -7.1843  -15.2644 C   0  0  2  0  0  0  0  0  0  0  0  0
   35.7811   -7.1356  -14.5869 C   0  0  0  0  0  0  0  0  0  0  0  0
   34.2144   -8.4853  -15.9637 C   0  0  0  0  0  0  0  0  0  0  0  0
   32.8468   -8.5864  -16.5476 C   0  0  2  0  0  0  0  0  0  0  0  0
   32.6736   -9.9385  -17.1298 N   0  0  0  0  0  0  0  0  0  0  0  0
   32.5057   -7.5945  -17.5831 C   0  0  0  0  0  0  0  0  0  0  0  0
   33.3462   -7.3382  -18.5336 O   0  0  0  0  0  0  0  0  0  0  0  0
   29.7314   -7.6423  -20.0627 C   0  0  0  0  0  0  0  0  0  0  0  0
   29.6485   -6.3466  -19.3298 C   0  0  1  0  0  0  0  0  0  0  0  0
   28.6687   -6.3692  -18.3685 O   0  0  0  0  0  0  0  0  0  0  0  0
   31.0088   -5.9356  -18.7582 C   0  0  2  0  0  0  0  0  0  0  0  0
   31.3122   -6.8529  -17.6776 N   0  0  0  0  0  0  0  0  0  0  0  0
   31.0152   -4.5392  -18.3527 C   0  0  0  0  0  0  0  0  0  0  0  0
   31.1039   -4.2345  -17.1411 O   0  0  0  0  0  0  0  0  0  0  0  0
   30.9251   -3.5110  -19.2703 O   0  0  0  0  0  0  0  0  0  0  0  0
  1  2  1  0
  2  3  1  0
  4  3  1  0
  5  4  1  0
  5  6  1  1
  7  5  1  0
  7  8  2  0
 10  9  1  6
 10 12  1  0
 10 11  1  0
 13 12  1  6
 13 14  1  0
 14  7  1  0
 15 13  1  0
 16 15  2  0
 18 17  1  1
 18 20  1  0
 19 18  1  0
 20 22  1  0
 20 21  1  1
 21 15  1  0
 22 24  1  0
 23 22  2  0
M  END
$$$$
