MLT.pdb
     RDKit          3D

 24 23  0  0  1  0  0  0  0  0999 V2000
   17.2636   -8.1860  -23.9762 C   0  0  0  0  0  0  0  0  0  0  0  0
   17.9056   -7.6345  -22.3762 S   0  0  0  0  0  0  0  0  0  0  0  0
   17.8530   -8.9705  -21.1484 C   0  0  0  0  0  0  0  0  0  0  0  0
   18.3951   -8.4912  -19.8063 C   0  0  0  0  0  0  0  0  0  0  0  0
   18.3177   -9.5851  -18.7671 C   0  0  2  0  0  0  0  0  0  0  0  0
   16.9523  -10.0010  -18.5258 N   0  0  0  0  0  0  0  0  0  0  0  0
   18.9817   -9.1930  -17.5003 C   0  0  0  0  0  0  0  0  0  0  0  0
   18.2645   -8.7482  -16.5562 O   0  0  0  0  0  0  0  0  0  0  0  0
   23.9353  -10.8296  -14.4159 C   0  0  0  0  0  0  0  0  0  0  0  0
   22.8315   -9.7337  -14.4702 C   0  0  2  0  0  0  0  0  0  0  0  0
   22.0076   -9.9715  -13.2291 C   0  0  0  0  0  0  0  0  0  0  0  0
   22.0540  -10.0205  -15.7125 C   0  0  0  0  0  0  0  0  0  0  0  0
   21.0019   -8.9959  -15.9670 C   0  0  2  0  0  0  0  0  0  0  0  0
   20.3616   -9.2813  -17.2731 N   0  0  0  0  0  0  0  0  0  0  0  0
   21.4486   -7.5913  -15.9730 C   0  0  0  0  0  0  0  0  0  0  0  0
   22.3591   -7.2067  -16.8089 O   0  0  0  0  0  0  0  0  0  0  0  0
   19.7044   -4.4094  -16.7321 C   0  0  0  0  0  0  0  0  0  0  0  0
   20.2855   -4.2706  -15.3662 C   0  0  1  0  0  0  0  0  0  0  0  0
   19.3349   -4.4419  -14.3906 O   0  0  0  0  0  0  0  0  0  0  0  0
   21.4883   -5.1983  -15.1695 C   0  0  2  0  0  0  0  0  0  0  0  0
   20.9801   -6.5556  -15.1416 N   0  0  0  0  0  0  0  0  0  0  0  0
   22.2485   -4.8390  -13.9832 C   0  0  0  0  0  0  0  0  0  0  0  0
   22.2757   -5.6074  -12.9945 O   0  0  0  0  0  0  0  0  0  0  0  0
   22.9585   -3.6573  -13.8999 O   0  0  0  0  0  0  0  0  0  0  0  0
  1  2  1  0
  2  3  1  0
  4  3  1  0
  5  4  1  0
  5  6  1  1
  7  5  1  0
  7  8  2  0
 10  9  1  1
 10 12  1  0
 10 11  1  0
 13 12  1  6
 13 14  1  0
 14  7  1  0
 15 13  1  0
 16 15  2  0
 18 17  1  6
 18 20  1  0
 19 18  1  0
 20 22  1  0
 20 21  1  1
 21 15  1  0
 22 24  1  0
 23 22  2  0
M  END
$$$$
