MLT.pdb
     RDKit          3D

 24 23  0  0  1  0  0  0  0  0999 V2000
   19.7803  -21.6467  -19.4194 C   0  0  0  0  0  0  0  0  0  0  0  0
   18.7619  -21.9488  -17.9539 S   0  0  0  0  0  0  0  0  0  0  0  0
   19.0234  -20.6688  -16.6936 C   0  0  0  0  0  0  0  0  0  0  0  0
   20.5094  -20.4991  -16.3975 C   0  0  0  0  0  0  0  0  0  0  0  0
   20.7333  -19.4746  -15.3099 C   0  0  2  0  0  0  0  0  0  0  0  0
   20.3328  -18.1486  -15.7306 N   0  0  0  0  0  0  0  0  0  0  0  0
   22.1364  -19.4748  -14.8298 C   0  0  0  0  0  0  0  0  0  0  0  0
   22.9712  -18.7170  -15.4066 O   0  0  0  0  0  0  0  0  0  0  0  0
   25.3529  -21.6190  -10.0448 C   0  0  0  0  0  0  0  0  0  0  0  0
   25.4830  -21.0991  -11.5060 C   0  0  2  0  0  0  0  0  0  0  0  0
   26.3449  -19.8666  -11.3886 C   0  0  0  0  0  0  0  0  0  0  0  0
   24.0910  -20.7614  -11.9283 C   0  0  0  0  0  0  0  0  0  0  0  0
   24.0273  -20.3107  -13.3476 C   0  0  2  0  0  0  0  0  0  0  0  0
   22.6076  -20.2630  -13.7714 N   0  0  0  0  0  0  0  0  0  0  0  0
   24.7699  -21.1275  -14.3243 C   0  0  0  0  0  0  0  0  0  0  0  0
   24.4394  -22.3643  -14.5157 O   0  0  0  0  0  0  0  0  0  0  0  0
   25.0850  -20.9909  -18.0443 C   0  0  0  0  0  0  0  0  0  0  0  0
   26.4429  -20.8562  -17.4438 C   0  0  1  0  0  0  0  0  0  0  0  0
   26.8401  -19.5438  -17.3764 O   0  0  0  0  0  0  0  0  0  0  0  0
   26.5287  -21.5559  -16.0839 C   0  0  2  0  0  0  0  0  0  0  0  0
   25.8502  -20.7075  -15.1242 N   0  0  0  0  0  0  0  0  0  0  0  0
   27.9061  -21.8522  -15.7243 C   0  0  0  0  0  0  0  0  0  0  0  0
   28.4292  -21.3055  -14.7263 O   0  0  0  0  0  0  0  0  0  0  0  0
   28.6794  -22.7324  -16.4554 O   0  0  0  0  0  0  0  0  0  0  0  0
  1  2  1  0
  2  3  1  0
  4  3  1  0
  5  4  1  0
  5  6  1  6
  7  5  1  0
  7  8  2  0
 10  9  1  1
 10 12  1  0
 10 11  1  0
 13 12  1  1
 13 14  1  0
 14  7  1  0
 15 13  1  0
 16 15  2  0
 18 17  1  1
 18 20  1  0
 19 18  1  0
 20 22  1  0
 20 21  1  1
 21 15  1  0
 22 24  1  0
 23 22  2  0
M  END
$$$$
