MLT.pdb
     RDKit          3D

 24 23  0  0  1  0  0  0  0  0999 V2000
   26.9303  -19.3728   -7.3278 C   0  0  0  0  0  0  0  0  0  0  0  0
   27.8186  -20.9452   -7.4499 S   0  0  0  0  0  0  0  0  0  0  0  0
   28.1631  -21.3755   -9.1794 C   0  0  0  0  0  0  0  0  0  0  0  0
   27.0802  -20.8219  -10.0990 C   0  0  0  0  0  0  0  0  0  0  0  0
   27.3740  -21.1508  -11.5439 C   0  0  2  0  0  0  0  0  0  0  0  0
   28.7782  -20.9890  -11.8567 N   0  0  0  0  0  0  0  0  0  0  0  0
   26.5316  -20.3602  -12.4738 C   0  0  0  0  0  0  0  0  0  0  0  0
   26.5349  -19.0984  -12.3656 O   0  0  0  0  0  0  0  0  0  0  0  0
   26.3420  -17.8823  -15.6156 C   0  0  0  0  0  0  0  0  0  0  0  0
   26.6740  -19.3931  -15.7880 C   0  0  2  0  0  0  0  0  0  0  0  0
   27.2837  -19.4869  -17.1646 C   0  0  0  0  0  0  0  0  0  0  0  0
   25.3578  -20.0950  -15.7179 C   0  0  0  0  0  0  0  0  0  0  0  0
   24.8101  -20.1268  -14.3321 C   0  0  2  0  0  0  0  0  0  0  0  0
   25.7242  -20.9178  -13.4741 N   0  0  0  0  0  0  0  0  0  0  0  0
   23.4505  -20.6758  -14.1814 C   0  0  0  0  0  0  0  0  0  0  0  0
   23.2480  -21.9466  -14.3223 O   0  0  0  0  0  0  0  0  0  0  0  0
   21.1168  -20.4924  -11.2329 C   0  0  0  0  0  0  0  0  0  0  0  0
   20.3714  -20.0058  -12.4288 C   0  0  1  0  0  0  0  0  0  0  0  0
   20.2736  -18.6365  -12.4432 O   0  0  0  0  0  0  0  0  0  0  0  0
   20.9702  -20.5556  -13.7270 C   0  0  2  0  0  0  0  0  0  0  0  0
   22.2795  -19.9532  -13.8815 N   0  0  0  0  0  0  0  0  0  0  0  0
   20.0878  -20.3239  -14.8594 C   0  0  0  0  0  0  0  0  0  0  0  0
   18.9805  -20.9054  -14.9257 O   0  0  0  0  0  0  0  0  0  0  0  0
   20.4288  -19.4690  -15.8890 O   0  0  0  0  0  0  0  0  0  0  0  0
  1  2  1  0
  2  3  1  0
  4  3  1  0
  5  4  1  0
  5  6  1  6
  7  5  1  0
  7  8  2  0
 10  9  1  6
 10 12  1  0
 10 11  1  0
 13 12  1  6
 13 14  1  0
 14  7  1  0
 15 13  1  0
 16 15  2  0
 18 17  1  1
 18 20  1  0
 19 18  1  0
 20 22  1  0
 20 21  1  6
 21 15  1  0
 22 24  1  0
 23 22  2  0
M  END
$$$$
