QLG.pdb
     RDKit          3D

 22 21  0  0  1  0  0  0  0  0999 V2000
    8.7980  -20.7469   21.1967 N   0  0  0  0  0  0  0  0  0  0  0  0
    7.7230  -20.0245   20.6160 C   0  0  0  0  0  0  0  0  0  0  0  0
    6.8465  -20.7102   20.0429 O   0  0  0  0  0  0  0  0  0  0  0  0
    7.6051  -18.5725   20.6543 C   0  0  0  0  0  0  0  0  0  0  0  0
    8.6165  -17.8080   21.4213 C   0  0  0  0  0  0  0  0  0  0  0  0
    8.3950  -16.3457   21.4073 C   0  0  2  0  0  0  0  0  0  0  0  0
    9.1299  -15.6861   20.3956 N   0  0  0  0  0  0  0  0  0  0  0  0
    8.5493  -15.7064   22.7409 C   0  0  0  0  0  0  0  0  0  0  0  0
    9.7036  -15.5359   23.1986 O   0  0  0  0  0  0  0  0  0  0  0  0
    5.9614  -12.0967   27.0473 C   0  0  0  0  0  0  0  0  0  0  0  0
    7.0973  -12.9686   26.5757 C   0  0  2  0  0  0  0  0  0  0  0  0
    8.3447  -12.0677   26.5428 C   0  0  0  0  0  0  0  0  0  0  0  0
    6.8984  -13.5426   25.2326 C   0  0  0  0  0  0  0  0  0  0  0  0
    7.6958  -14.7142   24.8194 C   0  0  2  0  0  0  0  0  0  0  0  0
    7.4615  -15.2727   23.5360 N   0  0  0  0  0  0  0  0  0  0  0  0
    7.6230  -15.7847   25.8719 C   0  0  0  0  0  0  0  0  0  0  0  0
    6.4945  -16.2271   26.2381 O   0  0  0  0  0  0  0  0  0  0  0  0
    8.7706  -16.3403   26.4923 N   0  0  0  0  0  0  0  0  0  0  0  0
    8.6627  -17.3240   27.5572 C   0  0  0  0  0  0  0  0  0  0  0  0
   10.0065  -17.6416   28.0705 C   0  0  0  0  0  0  0  0  0  0  0  0
   10.1234  -18.4373   29.1905 O   0  0  0  0  0  0  0  0  0  0  0  0
   11.0280  -17.1923   27.4936 O   0  0  0  0  0  0  0  0  0  0  0  0
  1  2  1  0
  2  3  2  0
  4  2  1  0
  5  4  1  0
  6  7  1  6
  6  5  1  0
  8  6  1  0
  8  9  2  0
 11 10  1  6
 11 12  1  0
 11 13  1  0
 14 13  1  1
 14 15  1  0
 14 16  1  0
 15  8  1  0
 16 18  1  0
 16 17  2  0
 18 19  1  0
 20 19  1  0
 20 21  1  0
 22 20  2  0
M  END
$$$$
