QLG.pdb
     RDKit          3D

 22 21  0  0  1  0  0  0  0  0999 V2000
    9.2149  -12.6863   18.2249 N   0  0  0  0  0  0  0  0  0  0  0  0
    8.3284  -13.7865   18.0882 C   0  0  0  0  0  0  0  0  0  0  0  0
    8.1235  -14.1849   16.9194 O   0  0  0  0  0  0  0  0  0  0  0  0
    7.6690  -14.4428   19.2099 C   0  0  0  0  0  0  0  0  0  0  0  0
    7.9221  -13.9213   20.5735 C   0  0  0  0  0  0  0  0  0  0  0  0
    8.1966  -14.9759   21.5735 C   0  0  2  0  0  0  0  0  0  0  0  0
    7.2447  -16.0209   21.5486 N   0  0  0  0  0  0  0  0  0  0  0  0
    8.4391  -14.4503   22.9432 C   0  0  0  0  0  0  0  0  0  0  0  0
    9.2838  -13.5373   23.0986 O   0  0  0  0  0  0  0  0  0  0  0  0
    7.5817  -11.4271   25.9481 C   0  0  0  0  0  0  0  0  0  0  0  0
    6.6238  -12.5906   25.9078 C   0  0  2  0  0  0  0  0  0  0  0  0
    5.5028  -12.2584   26.9087 C   0  0  0  0  0  0  0  0  0  0  0  0
    7.2264  -13.8803   26.2903 C   0  0  0  0  0  0  0  0  0  0  0  0
    8.2028  -14.5208   25.3869 C   0  0  2  0  0  0  0  0  0  0  0  0
    7.7682  -14.9218   24.0969 N   0  0  0  0  0  0  0  0  0  0  0  0
    8.8776  -15.6673   26.0864 C   0  0  0  0  0  0  0  0  0  0  0  0
    9.2334  -15.5413   27.2952 O   0  0  0  0  0  0  0  0  0  0  0  0
    9.1446  -16.9095   25.4572 N   0  0  0  0  0  0  0  0  0  0  0  0
    9.6777  -18.0418   26.1969 C   0  0  0  0  0  0  0  0  0  0  0  0
   11.1100  -18.1986   25.8901 C   0  0  0  0  0  0  0  0  0  0  0  0
   11.7155  -17.2932   25.0448 O   0  0  0  0  0  0  0  0  0  0  0  0
   11.7661  -19.1444   26.3931 O   0  0  0  0  0  0  0  0  0  0  0  0
  1  2  1  0
  2  3  2  0
  4  2  1  0
  5  4  1  0
  6  7  1  1
  6  5  1  0
  8  6  1  0
  8  9  2  0
 11 10  1  1
 11 12  1  0
 11 13  1  0
 14 13  1  1
 14 15  1  0
 14 16  1  0
 15  8  1  0
 16 18  1  0
 16 17  2  0
 18 19  1  0
 20 19  1  0
 20 21  1  0
 22 20  2  0
M  END
$$$$
