QLG.pdb
     RDKit          3D

 22 21  0  0  1  0  0  0  0  0999 V2000
    5.5191  -20.5695   25.3690 N   0  0  0  0  0  0  0  0  0  0  0  0
    6.5937  -20.9111   24.5068 C   0  0  0  0  0  0  0  0  0  0  0  0
    7.3542  -21.8198   24.9103 O   0  0  0  0  0  0  0  0  0  0  0  0
    6.8408  -20.2684   23.2224 C   0  0  0  0  0  0  0  0  0  0  0  0
    5.9409  -19.1674   22.8059 C   0  0  0  0  0  0  0  0  0  0  0  0
    6.2132  -18.6579   21.4443 C   0  0  2  0  0  0  0  0  0  0  0  0
    6.3241  -19.6877   20.4820 N   0  0  0  0  0  0  0  0  0  0  0  0
    7.3401  -17.6897   21.3841 C   0  0  0  0  0  0  0  0  0  0  0  0
    8.3975  -18.0295   20.8031 O   0  0  0  0  0  0  0  0  0  0  0  0
    7.9169  -13.5157   19.3232 C   0  0  0  0  0  0  0  0  0  0  0  0
    7.2849  -13.5378   20.6918 C   0  0  2  0  0  0  0  0  0  0  0  0
    6.9405  -12.0762   21.0291 C   0  0  0  0  0  0  0  0  0  0  0  0
    8.1613  -14.0692   21.7513 C   0  0  0  0  0  0  0  0  0  0  0  0
    8.4084  -15.5228   21.8268 C   0  0  2  0  0  0  0  0  0  0  0  0
    7.2936  -16.3924   21.9485 N   0  0  0  0  0  0  0  0  0  0  0  0
    9.4171  -15.8192   22.9008 C   0  0  0  0  0  0  0  0  0  0  0  0
    9.2552  -15.3396   24.0615 O   0  0  0  0  0  0  0  0  0  0  0  0
   10.5651  -16.6229   22.6848 N   0  0  0  0  0  0  0  0  0  0  0  0
   11.5389  -16.8629   23.7372 C   0  0  0  0  0  0  0  0  0  0  0  0
   12.8598  -16.3745   23.3050 C   0  0  0  0  0  0  0  0  0  0  0  0
   13.9151  -16.4288   24.1906 O   0  0  0  0  0  0  0  0  0  0  0  0
   13.0180  -15.9161   22.1461 O   0  0  0  0  0  0  0  0  0  0  0  0
  1  2  1  0
  2  3  2  0
  4  2  1  0
  5  4  1  0
  6  7  1  6
  6  5  1  0
  8  6  1  0
  8  9  2  0
 11 10  1  6
 11 12  1  0
 11 13  1  0
 14 13  1  1
 14 15  1  0
 14 16  1  0
 15  8  1  0
 16 18  1  0
 16 17  2  0
 18 19  1  0
 20 19  1  0
 20 21  1  0
 22 20  2  0
M  END
$$$$
