QLG.pdb
     RDKit          3D

 22 21  0  0  1  0  0  0  0  0999 V2000
    8.3148  -19.8309   21.9247 N   0  0  0  0  0  0  0  0  0  0  0  0
    7.7939  -19.2427   20.7426 C   0  0  0  0  0  0  0  0  0  0  0  0
    7.1789  -20.0127   19.9708 O   0  0  0  0  0  0  0  0  0  0  0  0
    7.9442  -17.8338   20.4018 C   0  0  0  0  0  0  0  0  0  0  0  0
    8.6026  -16.9420   21.3850 C   0  0  0  0  0  0  0  0  0  0  0  0
    7.8358  -15.7125   21.6815 C   0  0  2  0  0  0  0  0  0  0  0  0
    7.6976  -14.8644   20.5589 N   0  0  0  0  0  0  0  0  0  0  0  0
    8.3093  -14.9919   22.8929 C   0  0  0  0  0  0  0  0  0  0  0  0
    9.3326  -14.2733   22.8062 O   0  0  0  0  0  0  0  0  0  0  0  0
    7.3789  -11.2944   25.3636 C   0  0  0  0  0  0  0  0  0  0  0  0
    6.5399  -12.5130   25.6534 C   0  0  2  0  0  0  0  0  0  0  0  0
    5.5155  -12.0850   26.7194 C   0  0  0  0  0  0  0  0  0  0  0  0
    7.3048  -13.6610   26.1730 C   0  0  0  0  0  0  0  0  0  0  0  0
    8.2199  -14.3899   25.2725 C   0  0  2  0  0  0  0  0  0  0  0  0
    7.6696  -15.0671   24.1534 N   0  0  0  0  0  0  0  0  0  0  0  0
    9.0901  -15.3230   26.0668 C   0  0  0  0  0  0  0  0  0  0  0  0
    9.5556  -14.9474   27.1829 O   0  0  0  0  0  0  0  0  0  0  0  0
    9.4275  -16.6287   25.6290 N   0  0  0  0  0  0  0  0  0  0  0  0
   10.2118  -17.5326   26.4544 C   0  0  0  0  0  0  0  0  0  0  0  0
   11.5012  -17.8051   25.7961 C   0  0  0  0  0  0  0  0  0  0  0  0
   12.3618  -18.7200   26.3646 O   0  0  0  0  0  0  0  0  0  0  0  0
   11.8081  -17.2106   24.7328 O   0  0  0  0  0  0  0  0  0  0  0  0
  1  2  1  0
  2  3  2  0
  4  2  1  0
  5  4  1  0
  6  7  1  6
  6  5  1  0
  8  6  1  0
  8  9  2  0
 11 10  1  1
 11 12  1  0
 11 13  1  0
 14 13  1  1
 14 15  1  0
 14 16  1  0
 15  8  1  0
 16 18  1  0
 16 17  2  0
 18 19  1  0
 20 19  1  0
 20 21  1  0
 22 20  2  0
M  END
$$$$
