QLG.pdb
     RDKit          3D

 22 21  0  0  1  0  0  0  0  0999 V2000
    8.1018  -12.7026   17.2085 N   0  0  0  0  0  0  0  0  0  0  0  0
    7.9675  -14.0279   17.6985 C   0  0  0  0  0  0  0  0  0  0  0  0
    8.2268  -14.9433   16.8850 O   0  0  0  0  0  0  0  0  0  0  0  0
    7.5517  -14.3538   19.0567 C   0  0  0  0  0  0  0  0  0  0  0  0
    8.5409  -14.1965   20.1485 C   0  0  0  0  0  0  0  0  0  0  0  0
    8.4278  -15.2226   21.2077 C   0  0  2  0  0  0  0  0  0  0  0  0
    7.2549  -16.0040   21.0958 N   0  0  0  0  0  0  0  0  0  0  0  0
    8.6353  -14.6888   22.5799 C   0  0  0  0  0  0  0  0  0  0  0  0
    9.6572  -14.0009   22.8118 O   0  0  0  0  0  0  0  0  0  0  0  0
    8.2637  -12.2967   27.1964 C   0  0  0  0  0  0  0  0  0  0  0  0
    7.1893  -12.1865   26.1444 C   0  0  2  0  0  0  0  0  0  0  0  0
    5.9290  -11.6819   26.8696 C   0  0  0  0  0  0  0  0  0  0  0  0
    6.8672  -13.4606   25.4768 C   0  0  0  0  0  0  0  0  0  0  0  0
    7.9573  -14.2750   24.9041 C   0  0  2  0  0  0  0  0  0  0  0  0
    7.7408  -14.9111   23.6541 N   0  0  0  0  0  0  0  0  0  0  0  0
    8.4416  -15.2739   25.9173 C   0  0  0  0  0  0  0  0  0  0  0  0
    8.7350  -14.8875   27.0870 O   0  0  0  0  0  0  0  0  0  0  0  0
    8.5922  -16.6548   25.6329 N   0  0  0  0  0  0  0  0  0  0  0  0
    8.8733  -17.6243   26.6791 C   0  0  0  0  0  0  0  0  0  0  0  0
   10.0834  -18.3880   26.3291 C   0  0  0  0  0  0  0  0  0  0  0  0
   10.4651  -19.4410   27.1330 O   0  0  0  0  0  0  0  0  0  0  0  0
   10.7547  -18.0810   25.3126 O   0  0  0  0  0  0  0  0  0  0  0  0
  1  2  1  0
  2  3  2  0
  4  2  1  0
  5  4  1  0
  6  7  1  1
  6  5  1  0
  8  6  1  0
  8  9  2  0
 11 10  1  1
 11 12  1  0
 11 13  1  0
 14 13  1  1
 14 15  1  0
 14 16  1  0
 15  8  1  0
 16 18  1  0
 16 17  2  0
 18 19  1  0
 20 19  1  0
 20 21  1  0
 22 20  2  0
M  END
$$$$
