QLG.pdb
     RDKit          3D

 22 21  0  0  1  0  0  0  0  0999 V2000
   10.9988  -16.4914   19.9345 N   0  0  0  0  0  0  0  0  0  0  0  0
   10.2365  -17.6698   20.1466 C   0  0  0  0  0  0  0  0  0  0  0  0
   10.8422  -18.7528   19.9823 O   0  0  0  0  0  0  0  0  0  0  0  0
    8.8302  -17.6700   20.5288 C   0  0  0  0  0  0  0  0  0  0  0  0
    8.1345  -16.3664   20.6393 C   0  0  0  0  0  0  0  0  0  0  0  0
    7.3660  -16.2053   21.8927 C   0  0  2  0  0  0  0  0  0  0  0  0
    6.0026  -15.9057   21.6691 N   0  0  0  0  0  0  0  0  0  0  0  0
    8.0052  -15.2848   22.8700 C   0  0  0  0  0  0  0  0  0  0  0  0
    8.8957  -14.5002   22.4669 O   0  0  0  0  0  0  0  0  0  0  0  0
    7.4405  -11.2723   25.1057 C   0  0  0  0  0  0  0  0  0  0  0  0
    6.7202  -12.5058   25.5882 C   0  0  2  0  0  0  0  0  0  0  0  0
    5.8117  -12.0480   26.7431 C   0  0  0  0  0  0  0  0  0  0  0  0
    7.6125  -13.5679   26.0868 C   0  0  0  0  0  0  0  0  0  0  0  0
    8.3797  -14.3820   25.1233 C   0  0  2  0  0  0  0  0  0  0  0  0
    7.6673  -15.2380   24.2438 N   0  0  0  0  0  0  0  0  0  0  0  0
    9.4540  -15.1517   25.8391 C   0  0  0  0  0  0  0  0  0  0  0  0
   10.2327  -14.5480   26.6345 O   0  0  0  0  0  0  0  0  0  0  0  0
    9.6502  -16.5460   25.6716 N   0  0  0  0  0  0  0  0  0  0  0  0
   10.7416  -17.2481   26.3269 C   0  0  0  0  0  0  0  0  0  0  0  0
   10.1936  -18.2845   27.2190 C   0  0  0  0  0  0  0  0  0  0  0  0
   11.0317  -18.8966   28.1266 O   0  0  0  0  0  0  0  0  0  0  0  0
    8.9803  -18.6029   27.1505 O   0  0  0  0  0  0  0  0  0  0  0  0
  1  2  1  0
  2  3  2  0
  4  2  1  0
  5  4  1  0
  6  7  1  6
  6  5  1  0
  8  6  1  0
  8  9  2  0
 11 10  1  1
 11 12  1  0
 11 13  1  0
 14 13  1  1
 14 15  1  0
 14 16  1  0
 15  8  1  0
 16 18  1  0
 16 17  2  0
 18 19  1  0
 20 19  1  0
 20 21  1  0
 22 20  2  0
M  END
$$$$
