QLG.pdb
     RDKit          3D

 22 21  0  0  1  0  0  0  0  0999 V2000
   10.4789  -15.4843   14.7196 N   0  0  0  0  0  0  0  0  0  0  0  0
    9.3587  -16.2572   15.1227 C   0  0  0  0  0  0  0  0  0  0  0  0
    8.2954  -16.0524   14.4947 O   0  0  0  0  0  0  0  0  0  0  0  0
    9.3936  -17.2386   16.1994 C   0  0  0  0  0  0  0  0  0  0  0  0
   10.6841  -17.4777   16.8871 C   0  0  0  0  0  0  0  0  0  0  0  0
   10.5434  -17.7954   18.3248 C   0  0  2  0  0  0  0  0  0  0  0  0
    9.4891  -18.6994   18.5893 N   0  0  0  0  0  0  0  0  0  0  0  0
   10.5052  -16.5940   19.2001 C   0  0  0  0  0  0  0  0  0  0  0  0
   11.4305  -15.7531   19.1118 O   0  0  0  0  0  0  0  0  0  0  0  0
    8.9717  -12.4883   19.2430 C   0  0  0  0  0  0  0  0  0  0  0  0
    8.0186  -13.5796   19.6596 C   0  0  2  0  0  0  0  0  0  0  0  0
    6.6464  -12.9058   19.8381 C   0  0  0  0  0  0  0  0  0  0  0  0
    8.3814  -14.2458   20.9235 C   0  0  0  0  0  0  0  0  0  0  0  0
    9.5290  -15.1741   20.9505 C   0  0  2  0  0  0  0  0  0  0  0  0
    9.4771  -16.3368   20.1385 N   0  0  0  0  0  0  0  0  0  0  0  0
    9.8577  -15.5466   22.3690 C   0  0  0  0  0  0  0  0  0  0  0  0
   10.2626  -14.6557   23.1726 O   0  0  0  0  0  0  0  0  0  0  0  0
    9.7377  -16.8673   22.8707 N   0  0  0  0  0  0  0  0  0  0  0  0
   10.8981  -17.7243   23.0515 C   0  0  0  0  0  0  0  0  0  0  0  0
   11.4140  -17.5698   24.4227 C   0  0  0  0  0  0  0  0  0  0  0  0
   12.5214  -18.2963   24.8060 O   0  0  0  0  0  0  0  0  0  0  0  0
   10.8506  -16.7869   25.2275 O   0  0  0  0  0  0  0  0  0  0  0  0
  1  2  1  0
  2  3  2  0
  4  2  1  0
  5  4  1  0
  6  7  1  6
  6  5  1  0
  8  6  1  0
  8  9  2  0
 11 10  1  1
 11 12  1  0
 11 13  1  0
 14 13  1  1
 14 15  1  0
 14 16  1  0
 15  8  1  0
 16 18  1  0
 16 17  2  0
 18 19  1  0
 20 19  1  0
 20 21  1  0
 22 20  2  0
M  END
$$$$
