QLG.pdb
     RDKit          3D

 22 21  0  0  1  0  0  0  0  0999 V2000
    9.1478  -12.5537   17.9456 N   0  0  0  0  0  0  0  0  0  0  0  0
    7.9403  -13.2964   18.0186 C   0  0  0  0  0  0  0  0  0  0  0  0
    7.3248  -13.4517   16.9397 O   0  0  0  0  0  0  0  0  0  0  0  0
    7.4061  -13.8597   19.2519 C   0  0  0  0  0  0  0  0  0  0  0  0
    8.1681  -13.6494   20.5052 C   0  0  0  0  0  0  0  0  0  0  0  0
    8.3406  -14.8776   21.3110 C   0  0  2  0  0  0  0  0  0  0  0  0
    7.2313  -15.7503   21.2309 N   0  0  0  0  0  0  0  0  0  0  0  0
    8.7685  -14.6171   22.7110 C   0  0  0  0  0  0  0  0  0  0  0  0
    9.8428  -14.0026   22.9095 O   0  0  0  0  0  0  0  0  0  0  0  0
    7.9107  -11.5750   25.9158 C   0  0  0  0  0  0  0  0  0  0  0  0
    6.9364  -12.7125   25.7431 C   0  0  2  0  0  0  0  0  0  0  0  0
    5.7672  -12.4254   26.7019 C   0  0  0  0  0  0  0  0  0  0  0  0
    7.4942  -14.0377   26.0679 C   0  0  0  0  0  0  0  0  0  0  0  0
    8.4668  -14.6604   25.1483 C   0  0  2  0  0  0  0  0  0  0  0  0
    8.0301  -15.0244   23.8480 N   0  0  0  0  0  0  0  0  0  0  0  0
    9.1338  -15.8293   25.8174 C   0  0  0  0  0  0  0  0  0  0  0  0
    9.4419  -15.7567   27.0435 O   0  0  0  0  0  0  0  0  0  0  0  0
    9.4450  -17.0355   25.1401 N   0  0  0  0  0  0  0  0  0  0  0  0
    9.9148  -18.2125   25.8524 C   0  0  0  0  0  0  0  0  0  0  0  0
   11.3540  -18.3983   25.5988 C   0  0  0  0  0  0  0  0  0  0  0  0
   12.0101  -17.5015   24.7826 O   0  0  0  0  0  0  0  0  0  0  0  0
   11.9704  -19.3608   26.1202 O   0  0  0  0  0  0  0  0  0  0  0  0
  1  2  1  0
  2  3  2  0
  4  2  1  0
  5  4  1  0
  6  7  1  1
  6  5  1  0
  8  6  1  0
  8  9  2  0
 11 10  1  1
 11 12  1  0
 11 13  1  0
 14 13  1  1
 14 15  1  0
 14 16  1  0
 15  8  1  0
 16 18  1  0
 16 17  2  0
 18 19  1  0
 20 19  1  0
 20 21  1  0
 22 20  2  0
M  END
$$$$
