QLG.pdb
     RDKit          3D

 22 21  0  0  1  0  0  0  0  0999 V2000
    8.2038  -12.2982   18.2681 N   0  0  0  0  0  0  0  0  0  0  0  0
    7.9390  -13.6926   18.2561 C   0  0  0  0  0  0  0  0  0  0  0  0
    7.8721  -14.2293   17.1272 O   0  0  0  0  0  0  0  0  0  0  0  0
    7.7449  -14.4933   19.4581 C   0  0  0  0  0  0  0  0  0  0  0  0
    8.9144  -15.2102   20.0182 C   0  0  0  0  0  0  0  0  0  0  0  0
    8.6078  -15.9897   21.2372 C   0  0  2  0  0  0  0  0  0  0  0  0
    7.3693  -16.6674   21.1617 N   0  0  0  0  0  0  0  0  0  0  0  0
    8.7641  -15.2141   22.4961 C   0  0  0  0  0  0  0  0  0  0  0  0
    9.8407  -14.6057   22.7006 O   0  0  0  0  0  0  0  0  0  0  0  0
    8.1218  -12.5964   26.9883 C   0  0  0  0  0  0  0  0  0  0  0  0
    7.0235  -12.3234   25.9922 C   0  0  2  0  0  0  0  0  0  0  0  0
    5.7380  -12.1240   26.8146 C   0  0  0  0  0  0  0  0  0  0  0  0
    6.7987  -13.4165   25.0291 C   0  0  0  0  0  0  0  0  0  0  0  0
    7.9388  -14.2501   24.5991 C   0  0  2  0  0  0  0  0  0  0  0  0
    7.7614  -15.1182   23.4907 N   0  0  0  0  0  0  0  0  0  0  0  0
    8.4916  -15.0117   25.7710 C   0  0  0  0  0  0  0  0  0  0  0  0
    8.7951  -14.3928   26.8332 O   0  0  0  0  0  0  0  0  0  0  0  0
    8.6972  -16.4146   25.7557 N   0  0  0  0  0  0  0  0  0  0  0  0
    9.0004  -17.1557   26.9690 C   0  0  0  0  0  0  0  0  0  0  0  0
   10.4162  -17.5626   26.9554 C   0  0  0  0  0  0  0  0  0  0  0  0
   10.8986  -18.3387   27.9878 O   0  0  0  0  0  0  0  0  0  0  0  0
   11.1692  -17.2055   26.0154 O   0  0  0  0  0  0  0  0  0  0  0  0
  1  2  1  0
  2  3  2  0
  4  2  1  0
  5  4  1  0
  6  7  1  6
  6  5  1  0
  8  6  1  0
  8  9  2  0
 11 10  1  1
 11 12  1  0
 11 13  1  0
 14 13  1  1
 14 15  1  0
 14 16  1  0
 15  8  1  0
 16 18  1  0
 16 17  2  0
 18 19  1  0
 20 19  1  0
 20 21  1  0
 22 20  2  0
M  END
$$$$
