QLG.pdb
     RDKit          3D

 22 21  0  0  1  0  0  0  0  0999 V2000
    9.1614  -12.4909   18.0370 N   0  0  0  0  0  0  0  0  0  0  0  0
    8.2525  -13.5752   17.9227 C   0  0  0  0  0  0  0  0  0  0  0  0
    8.0463  -13.9993   16.7632 O   0  0  0  0  0  0  0  0  0  0  0  0
    7.5723  -14.1882   19.0564 C   0  0  0  0  0  0  0  0  0  0  0  0
    7.9327  -13.7319   20.4193 C   0  0  0  0  0  0  0  0  0  0  0  0
    8.2782  -14.8329   21.3445 C   0  0  2  0  0  0  0  0  0  0  0  0
    7.3457  -15.8950   21.3107 N   0  0  0  0  0  0  0  0  0  0  0  0
    8.5820  -14.3771   22.7269 C   0  0  0  0  0  0  0  0  0  0  0  0
    9.5184  -13.5625   22.9017 O   0  0  0  0  0  0  0  0  0  0  0  0
    7.4663  -11.3218   25.8535 C   0  0  0  0  0  0  0  0  0  0  0  0
    6.5161  -12.4849   25.7216 C   0  0  2  0  0  0  0  0  0  0  0  0
    5.3845  -12.2314   26.7335 C   0  0  0  0  0  0  0  0  0  0  0  0
    7.1236  -13.7952   26.0165 C   0  0  0  0  0  0  0  0  0  0  0  0
    8.2088  -14.3021   25.1534 C   0  0  2  0  0  0  0  0  0  0  0  0
    7.8717  -14.8104   23.8720 N   0  0  0  0  0  0  0  0  0  0  0  0
    9.0412  -15.3023   25.9055 C   0  0  0  0  0  0  0  0  0  0  0  0
    9.2674  -15.1273   27.1391 O   0  0  0  0  0  0  0  0  0  0  0  0
    9.6002  -16.4562   25.3002 N   0  0  0  0  0  0  0  0  0  0  0  0
   10.2973  -17.4662   26.0795 C   0  0  0  0  0  0  0  0  0  0  0  0
   10.7071  -18.5718   25.1965 C   0  0  0  0  0  0  0  0  0  0  0  0
   11.3142  -19.6792   25.7497 O   0  0  0  0  0  0  0  0  0  0  0  0
   10.5048  -18.5027   23.9586 O   0  0  0  0  0  0  0  0  0  0  0  0
  1  2  1  0
  2  3  2  0
  4  2  1  0
  5  4  1  0
  6  7  1  1
  6  5  1  0
  8  6  1  0
  8  9  2  0
 11 10  1  1
 11 12  1  0
 11 13  1  0
 14 13  1  1
 14 15  1  0
 14 16  1  0
 15  8  1  0
 16 18  1  0
 16 17  2  0
 18 19  1  0
 20 19  1  0
 20 21  1  0
 22 20  2  0
M  END
$$$$
