QLG.pdb
     RDKit          3D

 22 21  0  0  1  0  0  0  0  0999 V2000
    5.6320  -18.6798   24.2941 N   0  0  0  0  0  0  0  0  0  0  0  0
    6.7230  -18.9598   23.4303 C   0  0  0  0  0  0  0  0  0  0  0  0
    7.4055  -19.9693   23.7168 O   0  0  0  0  0  0  0  0  0  0  0  0
    7.0703  -18.1485   22.2706 C   0  0  0  0  0  0  0  0  0  0  0  0
    6.3207  -16.8900   22.0469 C   0  0  0  0  0  0  0  0  0  0  0  0
    7.1868  -15.7131   21.8180 C   0  0  2  0  0  0  0  0  0  0  0  0
    8.1020  -15.8998   20.7568 N   0  0  0  0  0  0  0  0  0  0  0  0
    7.8351  -15.2003   23.0540 C   0  0  0  0  0  0  0  0  0  0  0  0
    9.0844  -15.1035   23.0848 O   0  0  0  0  0  0  0  0  0  0  0  0
    7.4923  -11.0527   25.3294 C   0  0  0  0  0  0  0  0  0  0  0  0
    6.4783  -12.1055   25.6990 C   0  0  2  0  0  0  0  0  0  0  0  0
    5.5917  -11.4824   26.7920 C   0  0  0  0  0  0  0  0  0  0  0  0
    7.0671  -13.3498   26.2262 C   0  0  0  0  0  0  0  0  0  0  0  0
    7.8111  -14.2426   25.3157 C   0  0  2  0  0  0  0  0  0  0  0  0
    7.1217  -14.8096   24.2125 N   0  0  0  0  0  0  0  0  0  0  0  0
    8.5052  -15.3189   26.1022 C   0  0  0  0  0  0  0  0  0  0  0  0
    9.1863  -15.0079   27.1235 O   0  0  0  0  0  0  0  0  0  0  0  0
    8.4401  -16.6932   25.7592 N   0  0  0  0  0  0  0  0  0  0  0  0
    8.9766  -17.7248   26.6318 C   0  0  0  0  0  0  0  0  0  0  0  0
   10.3990  -17.9437   26.3169 C   0  0  0  0  0  0  0  0  0  0  0  0
   11.0951  -18.9127   27.0078 O   0  0  0  0  0  0  0  0  0  0  0  0
   10.9654  -17.2556   25.4315 O   0  0  0  0  0  0  0  0  0  0  0  0
  1  2  1  0
  2  3  2  0
  4  2  1  0
  5  4  1  0
  6  7  1  6
  6  5  1  0
  8  6  1  0
  8  9  2  0
 11 10  1  1
 11 12  1  0
 11 13  1  0
 14 13  1  1
 14 15  1  0
 14 16  1  0
 15  8  1  0
 16 18  1  0
 16 17  2  0
 18 19  1  0
 20 19  1  0
 20 21  1  0
 22 20  2  0
M  END
$$$$
