QLG.pdb
     RDKit          3D

 22 21  0  0  1  0  0  0  0  0999 V2000
    8.8869  -18.0018   29.2307 N   0  0  0  0  0  0  0  0  0  0  0  0
    8.5532  -19.3659   29.0236 C   0  0  0  0  0  0  0  0  0  0  0  0
    9.1233  -20.1907   29.7729 O   0  0  0  0  0  0  0  0  0  0  0  0
    7.6134  -19.8277   28.0101 C   0  0  0  0  0  0  0  0  0  0  0  0
    6.8985  -18.8111   27.2032 C   0  0  0  0  0  0  0  0  0  0  0  0
    7.6757  -18.3132   26.0474 C   0  0  2  0  0  0  0  0  0  0  0  0
    9.0707  -18.3189   26.2770 N   0  0  0  0  0  0  0  0  0  0  0  0
    7.1852  -17.0148   25.5138 C   0  0  0  0  0  0  0  0  0  0  0  0
    6.0160  -16.9489   25.0669 O   0  0  0  0  0  0  0  0  0  0  0  0
    5.3599  -13.1178   26.6037 C   0  0  0  0  0  0  0  0  0  0  0  0
    6.8611  -13.2500   26.6475 C   0  0  2  0  0  0  0  0  0  0  0  0
    7.3867  -11.9586   27.2993 C   0  0  0  0  0  0  0  0  0  0  0  0
    7.4916  -13.3966   25.3232 C   0  0  0  0  0  0  0  0  0  0  0  0
    7.5484  -14.7294   24.6906 C   0  0  2  0  0  0  0  0  0  0  0  0
    7.9650  -15.8340   25.4781 N   0  0  0  0  0  0  0  0  0  0  0  0
    8.3521  -14.6643   23.4222 C   0  0  0  0  0  0  0  0  0  0  0  0
    7.9760  -13.9054   22.4809 O   0  0  0  0  0  0  0  0  0  0  0  0
    9.5335  -15.4202   23.2142 N   0  0  0  0  0  0  0  0  0  0  0  0
   10.3055  -15.3092   21.9873 C   0  0  0  0  0  0  0  0  0  0  0  0
   11.4811  -16.1935   22.0650 C   0  0  0  0  0  0  0  0  0  0  0  0
   12.4514  -16.1027   21.0896 O   0  0  0  0  0  0  0  0  0  0  0  0
   11.5941  -17.0166   23.0073 O   0  0  0  0  0  0  0  0  0  0  0  0
  1  2  1  0
  2  3  2  0
  4  2  1  0
  5  4  1  0
  6  7  1  1
  6  5  1  0
  8  6  1  0
  8  9  2  0
 11 10  1  6
 11 12  1  0
 11 13  1  0
 14 13  1  1
 14 15  1  0
 14 16  1  0
 15  8  1  0
 16 18  1  0
 16 17  2  0
 18 19  1  0
 20 19  1  0
 20 21  1  0
 22 20  2  0
M  END
$$$$
