QLG.pdb
     RDKit          3D

 22 21  0  0  1  0  0  0  0  0999 V2000
    6.4425  -20.8983   27.0845 N   0  0  0  0  0  0  0  0  0  0  0  0
    7.2702  -20.9037   25.9314 C   0  0  0  0  0  0  0  0  0  0  0  0
    8.0549  -21.8729   25.8230 O   0  0  0  0  0  0  0  0  0  0  0  0
    7.2476  -19.8644   24.9101 C   0  0  0  0  0  0  0  0  0  0  0  0
    6.3097  -18.7308   25.0855 C   0  0  0  0  0  0  0  0  0  0  0  0
    6.3976  -17.7135   24.0154 C   0  0  2  0  0  0  0  0  0  0  0  0
    6.6478  -18.2732   22.7415 N   0  0  0  0  0  0  0  0  0  0  0  0
    7.3111  -16.5856   24.3384 C   0  0  0  0  0  0  0  0  0  0  0  0
    8.3320  -16.4143   23.6316 O   0  0  0  0  0  0  0  0  0  0  0  0
    6.9924  -11.7373   24.5669 C   0  0  0  0  0  0  0  0  0  0  0  0
    6.5111  -12.6237   25.6875 C   0  0  2  0  0  0  0  0  0  0  0  0
    5.9014  -11.6860   26.7447 C   0  0  0  0  0  0  0  0  0  0  0  0
    7.5754  -13.4196   26.3252 C   0  0  0  0  0  0  0  0  0  0  0  0
    8.0442  -14.6583   25.6729 C   0  0  2  0  0  0  0  0  0  0  0  0
    7.0980  -15.6819   25.4068 N   0  0  0  0  0  0  0  0  0  0  0  0
    9.2205  -15.2211   26.4202 C   0  0  0  0  0  0  0  0  0  0  0  0
    9.8490  -14.4899   27.2410 O   0  0  0  0  0  0  0  0  0  0  0  0
    9.6774  -16.5533   26.2556 N   0  0  0  0  0  0  0  0  0  0  0  0
   10.8894  -17.0307   26.9009 C   0  0  0  0  0  0  0  0  0  0  0  0
   10.6100  -17.3206   28.3180 C   0  0  0  0  0  0  0  0  0  0  0  0
   11.6407  -17.7455   29.1292 O   0  0  0  0  0  0  0  0  0  0  0  0
    9.4487  -17.1815   28.7764 O   0  0  0  0  0  0  0  0  0  0  0  0
  1  2  1  0
  2  3  2  0
  4  2  1  0
  5  4  1  0
  6  7  1  6
  6  5  1  0
  8  6  1  0
  8  9  2  0
 11 10  1  6
 11 12  1  0
 11 13  1  0
 14 13  1  1
 14 15  1  0
 14 16  1  0
 15  8  1  0
 16 18  1  0
 16 17  2  0
 18 19  1  0
 20 19  1  0
 20 21  1  0
 22 20  2  0
M  END
$$$$
