QLG.pdb
     RDKit          3D

 22 21  0  0  1  0  0  0  0  0999 V2000
    7.8161  -12.5301   18.7656 N   0  0  0  0  0  0  0  0  0  0  0  0
    8.1705  -13.8617   18.4250 C   0  0  0  0  0  0  0  0  0  0  0  0
    7.9848  -14.1915   17.2319 O   0  0  0  0  0  0  0  0  0  0  0  0
    8.7164  -14.8249   19.3726 C   0  0  0  0  0  0  0  0  0  0  0  0
    8.9689  -14.3746   20.7615 C   0  0  0  0  0  0  0  0  0  0  0  0
    8.7268  -15.4195   21.7800 C   0  0  2  0  0  0  0  0  0  0  0  0
    7.5134  -16.1163   21.5778 N   0  0  0  0  0  0  0  0  0  0  0  0
    8.8887  -14.9387   23.1777 C   0  0  0  0  0  0  0  0  0  0  0  0
    9.9028  -14.2623   23.4697 O   0  0  0  0  0  0  0  0  0  0  0  0
    7.8510  -11.6638   26.0789 C   0  0  0  0  0  0  0  0  0  0  0  0
    6.7850  -12.7076   25.8616 C   0  0  2  0  0  0  0  0  0  0  0  0
    5.5734  -12.2648   26.7012 C   0  0  0  0  0  0  0  0  0  0  0  0
    7.1764  -14.0648   26.2832 C   0  0  0  0  0  0  0  0  0  0  0  0
    8.2330  -14.7788   25.5394 C   0  0  2  0  0  0  0  0  0  0  0  0
    7.9585  -15.1998   24.2123 N   0  0  0  0  0  0  0  0  0  0  0  0
    8.7469  -15.9328   26.3537 C   0  0  0  0  0  0  0  0  0  0  0  0
    8.9889  -15.7710   27.5861 O   0  0  0  0  0  0  0  0  0  0  0  0
    8.9814  -17.2210   25.8097 N   0  0  0  0  0  0  0  0  0  0  0  0
    9.3459  -18.3503   26.6496 C   0  0  0  0  0  0  0  0  0  0  0  0
   10.8108  -18.5060   26.6548 C   0  0  0  0  0  0  0  0  0  0  0  0
   11.3734  -19.5117   27.4118 O   0  0  0  0  0  0  0  0  0  0  0  0
   11.5329  -17.7320   25.9784 O   0  0  0  0  0  0  0  0  0  0  0  0
  1  2  1  0
  2  3  2  0
  4  2  1  0
  5  4  1  0
  6  7  1  1
  6  5  1  0
  8  6  1  0
  8  9  2  0
 11 10  1  1
 11 12  1  0
 11 13  1  0
 14 13  1  1
 14 15  1  0
 14 16  1  0
 15  8  1  0
 16 18  1  0
 16 17  2  0
 18 19  1  0
 20 19  1  0
 20 21  1  0
 22 20  2  0
M  END
$$$$
