QLG.pdb
     RDKit          3D

 22 21  0  0  1  0  0  0  0  0999 V2000
    7.0322  -21.8891   22.3228 N   0  0  0  0  0  0  0  0  0  0  0  0
    8.0199  -20.9017   22.5762 C   0  0  0  0  0  0  0  0  0  0  0  0
    8.9556  -21.2425   23.3347 O   0  0  0  0  0  0  0  0  0  0  0  0
    7.9878  -19.5574   22.0145 C   0  0  0  0  0  0  0  0  0  0  0  0
    7.8272  -18.4142   22.9434 C   0  0  0  0  0  0  0  0  0  0  0  0
    7.6912  -17.1080   22.2630 C   0  0  2  0  0  0  0  0  0  0  0  0
    8.3320  -17.0728   21.0032 N   0  0  0  0  0  0  0  0  0  0  0  0
    8.0469  -15.9479   23.1225 C   0  0  0  0  0  0  0  0  0  0  0  0
    9.1637  -15.4008   22.9661 O   0  0  0  0  0  0  0  0  0  0  0  0
    8.2281  -12.2972   26.8371 C   0  0  0  0  0  0  0  0  0  0  0  0
    6.9135  -12.1560   26.1126 C   0  0  2  0  0  0  0  0  0  0  0  0
    5.8461  -11.9358   27.1993 C   0  0  0  0  0  0  0  0  0  0  0  0
    6.5347  -13.3373   25.3164 C   0  0  0  0  0  0  0  0  0  0  0  0
    7.5846  -14.2649   24.8507 C   0  0  2  0  0  0  0  0  0  0  0  0
    7.1934  -15.4159   24.1185 N   0  0  0  0  0  0  0  0  0  0  0  0
    8.4721  -14.6573   25.9985 C   0  0  0  0  0  0  0  0  0  0  0  0
    8.9587  -13.7608   26.7487 O   0  0  0  0  0  0  0  0  0  0  0  0
    8.8032  -16.0034   26.2965 N   0  0  0  0  0  0  0  0  0  0  0  0
    9.5263  -16.3628   27.5054 C   0  0  0  0  0  0  0  0  0  0  0  0
   10.9727  -16.3783   27.2263 C   0  0  0  0  0  0  0  0  0  0  0  0
   11.8426  -16.7551   28.2275 O   0  0  0  0  0  0  0  0  0  0  0  0
   11.4029  -16.0524   26.0919 O   0  0  0  0  0  0  0  0  0  0  0  0
  1  2  1  0
  2  3  2  0
  4  2  1  0
  5  4  1  0
  6  7  1  6
  6  5  1  0
  8  6  1  0
  8  9  2  0
 11 10  1  1
 11 12  1  0
 11 13  1  0
 14 13  1  1
 14 15  1  0
 14 16  1  0
 15  8  1  0
 16 18  1  0
 16 17  2  0
 18 19  1  0
 20 19  1  0
 20 21  1  0
 22 20  2  0
M  END
$$$$
