VGE.pdb
     RDKit          3D

 21 20  0  0  1  0  0  0  0  0999 V2000
   23.3548  -13.2135  -14.8158 C   0  0  0  0  0  0  0  0  0  0  0  0
   22.6456  -13.4998  -16.1113 C   0  0  2  0  0  0  0  0  0  0  0  0
   23.3891  -14.5447  -16.9335 C   0  0  0  0  0  0  0  0  0  0  0  0
   22.5225  -12.2765  -16.9886 C   0  0  2  0  0  0  0  0  0  0  0  0
   23.8292  -11.8023  -17.3663 N   0  0  0  0  0  0  0  0  0  0  0  0
   21.7586  -11.2236  -16.2882 C   0  0  0  0  0  0  0  0  0  0  0  0
   20.5111  -11.4121  -16.1695 O   0  0  0  0  0  0  0  0  0  0  0  0
   22.3681  -10.0509  -15.7658 N   0  0  0  0  0  0  0  0  0  0  0  0
   21.5336   -9.1821  -15.0021 C   0  0  0  0  0  0  0  0  0  0  0  0
   21.9031   -7.7487  -15.1166 C   0  0  0  0  0  0  0  0  0  0  0  0
   22.9190   -7.3591  -15.7415 O   0  0  0  0  0  0  0  0  0  0  0  0
   21.0829   -6.7803  -14.4998 N   0  0  0  0  0  0  0  0  0  0  0  0
   21.2337   -5.3171  -14.7406 C   0  0  1  0  0  0  0  0  0  0  0  0
   19.8499   -4.7917  -14.8015 C   0  0  0  0  0  0  0  0  0  0  0  0
   19.7471   -3.3243  -14.9735 C   0  0  0  0  0  0  0  0  0  0  0  0
   18.3412   -2.8766  -14.9410 C   0  0  0  0  0  0  0  0  0  0  0  0
   17.4320   -3.7219  -14.7588 O   0  0  0  0  0  0  0  0  0  0  0  0
   22.1589   -4.7435  -13.7866 C   0  0  0  0  0  0  0  0  0  0  0  0
   22.2866   -5.2461  -12.6340 O   0  0  0  0  0  0  0  0  0  0  0  0
   17.9862   -1.5469  -15.1060 O   0  0  0  0  0  0  0  0  0  0  0  0
   22.9364   -3.6357  -14.0827 O   0  0  0  0  0  0  0  0  0  0  0  0
  2  4  1  0
  2  1  1  1
  3  2  1  0
  4  5  1  1
  6  4  1  0
  7  6  2  0
  8  6  1  0
  9 10  1  0
  9  8  1  0
 10 12  1  0
 11 10  2  0
 12 13  1  0
 13 14  1  1
 14 15  1  0
 15 16  1  0
 16 20  1  0
 17 16  2  0
 18 13  1  0
 18 21  1  0
 19 18  2  0
M  END
$$$$
