VGE.pdb
     RDKit          3D

 21 20  0  0  1  0  0  0  0  0999 V2000
   23.5001  -16.3446  -15.7097 C   0  0  0  0  0  0  0  0  0  0  0  0
   23.3719  -14.8457  -15.7081 C   0  0  2  0  0  0  0  0  0  0  0  0
   21.9701  -14.4068  -16.1116 C   0  0  0  0  0  0  0  0  0  0  0  0
   24.3214  -14.1806  -16.6763 C   0  0  2  0  0  0  0  0  0  0  0  0
   25.6703  -14.6230  -16.4325 N   0  0  0  0  0  0  0  0  0  0  0  0
   24.2167  -12.7114  -16.5625 C   0  0  0  0  0  0  0  0  0  0  0  0
   24.9555  -12.1557  -15.6957 O   0  0  0  0  0  0  0  0  0  0  0  0
   23.3404  -11.9386  -17.3716 N   0  0  0  0  0  0  0  0  0  0  0  0
   23.3836  -10.5243  -17.1912 C   0  0  0  0  0  0  0  0  0  0  0  0
   22.4743  -10.0317  -16.1259 C   0  0  0  0  0  0  0  0  0  0  0  0
   21.9087  -10.7991  -15.3101 O   0  0  0  0  0  0  0  0  0  0  0  0
   22.2322   -8.6456  -16.0212 N   0  0  0  0  0  0  0  0  0  0  0  0
   21.3773   -8.0495  -14.9557 C   0  0  1  0  0  0  0  0  0  0  0  0
   21.9624   -6.7139  -14.6939 C   0  0  0  0  0  0  0  0  0  0  0  0
   21.2551   -5.9135  -13.6680 C   0  0  0  0  0  0  0  0  0  0  0  0
   21.8398   -4.5644  -13.5417 C   0  0  0  0  0  0  0  0  0  0  0  0
   23.0431   -4.3858  -13.8491 O   0  0  0  0  0  0  0  0  0  0  0  0
   19.9800   -8.1419  -15.3221 C   0  0  0  0  0  0  0  0  0  0  0  0
   19.6236   -8.0250  -16.5291 O   0  0  0  0  0  0  0  0  0  0  0  0
   21.1028   -3.4798  -13.0924 O   0  0  0  0  0  0  0  0  0  0  0  0
   18.9815   -8.3589  -14.3865 O   0  0  0  0  0  0  0  0  0  0  0  0
  2  4  1  0
  2  1  1  6
  3  2  1  0
  4  5  1  1
  6  4  1  0
  7  6  2  0
  8  6  1  0
  9 10  1  0
  9  8  1  0
 10 12  1  0
 11 10  2  0
 12 13  1  0
 13 14  1  6
 14 15  1  0
 15 16  1  0
 16 20  1  0
 17 16  2  0
 18 13  1  0
 18 21  1  0
 19 18  2  0
M  END
$$$$
