VGE.pdb
     RDKit          3D

 21 20  0  0  1  0  0  0  0  0999 V2000
   19.0652  -13.8807  -18.2663 C   0  0  0  0  0  0  0  0  0  0  0  0
   19.1097  -12.8117  -17.2086 C   0  0  2  0  0  0  0  0  0  0  0  0
   17.7223  -12.2488  -16.9278 C   0  0  0  0  0  0  0  0  0  0  0  0
   19.9731  -11.6378  -17.6055 C   0  0  2  0  0  0  0  0  0  0  0  0
   21.2854  -12.0927  -17.9874 N   0  0  0  0  0  0  0  0  0  0  0  0
   20.0513  -10.6662  -16.4952 C   0  0  0  0  0  0  0  0  0  0  0  0
   18.9624  -10.1260  -16.1367 O   0  0  0  0  0  0  0  0  0  0  0  0
   21.2723  -10.3373  -15.8466 N   0  0  0  0  0  0  0  0  0  0  0  0
   21.2113   -9.3258  -14.8428 C   0  0  0  0  0  0  0  0  0  0  0  0
   21.3031   -7.9455  -15.3819 C   0  0  0  0  0  0  0  0  0  0  0  0
   21.0251   -7.6636  -16.5725 O   0  0  0  0  0  0  0  0  0  0  0  0
   21.7193   -6.9039  -14.5258 N   0  0  0  0  0  0  0  0  0  0  0  0
   21.6043   -5.4624  -14.8865 C   0  0  1  0  0  0  0  0  0  0  0  0
   20.1766   -5.2631  -15.2284 C   0  0  0  0  0  0  0  0  0  0  0  0
   19.7954   -3.8623  -15.5215 C   0  0  0  0  0  0  0  0  0  0  0  0
   18.3425   -3.7370  -15.7483 C   0  0  0  0  0  0  0  0  0  0  0  0
   17.6031   -4.7321  -15.5545 O   0  0  0  0  0  0  0  0  0  0  0  0
   22.1991   -4.6375  -13.8565 C   0  0  0  0  0  0  0  0  0  0  0  0
   22.2414   -5.0375  -12.6582 O   0  0  0  0  0  0  0  0  0  0  0  0
   17.7610   -2.5519  -16.1709 O   0  0  0  0  0  0  0  0  0  0  0  0
   22.7419   -3.3918  -14.1264 O   0  0  0  0  0  0  0  0  0  0  0  0
  2  4  1  0
  2  1  1  6
  3  2  1  0
  4  5  1  1
  6  4  1  0
  7  6  2  0
  8  6  1  0
  9 10  1  0
  9  8  1  0
 10 12  1  0
 11 10  2  0
 12 13  1  0
 13 14  1  1
 14 15  1  0
 15 16  1  0
 16 20  1  0
 17 16  2  0
 18 13  1  0
 18 21  1  0
 19 18  2  0
M  END
$$$$
