VGE.pdb
     RDKit          3D

 21 20  0  0  1  0  0  0  0  0999 V2000
   18.9401  -15.0818  -15.6040 C   0  0  0  0  0  0  0  0  0  0  0  0
   18.0850  -14.0075  -16.2188 C   0  0  2  0  0  0  0  0  0  0  0  0
   17.3795  -14.5075  -17.4729 C   0  0  0  0  0  0  0  0  0  0  0  0
   18.8849  -12.7958  -16.6348 C   0  0  2  0  0  0  0  0  0  0  0  0
   19.9672  -12.5734  -15.7107 N   0  0  0  0  0  0  0  0  0  0  0  0
   18.0065  -11.6108  -16.7173 C   0  0  0  0  0  0  0  0  0  0  0  0
   17.1347  -11.6141  -17.6371 O   0  0  0  0  0  0  0  0  0  0  0  0
   18.1136  -10.5112  -15.8233 N   0  0  0  0  0  0  0  0  0  0  0  0
   17.1336   -9.4831  -15.9533 C   0  0  0  0  0  0  0  0  0  0  0  0
   17.3027   -8.3729  -14.9821 C   0  0  0  0  0  0  0  0  0  0  0  0
   17.3069   -8.5540  -13.7405 O   0  0  0  0  0  0  0  0  0  0  0  0
   17.4655   -7.0585  -15.4686 N   0  0  0  0  0  0  0  0  0  0  0  0
   18.1369   -5.9815  -14.6870 C   0  0  1  0  0  0  0  0  0  0  0  0
   19.5801   -6.3124  -14.7353 C   0  0  0  0  0  0  0  0  0  0  0  0
   20.4530   -5.4119  -13.9475 C   0  0  0  0  0  0  0  0  0  0  0  0
   21.8650   -5.8356  -14.0174 C   0  0  0  0  0  0  0  0  0  0  0  0
   22.1490   -7.0498  -13.8779 O   0  0  0  0  0  0  0  0  0  0  0  0
   17.7014   -4.6802  -15.1476 C   0  0  0  0  0  0  0  0  0  0  0  0
   17.2252   -4.5366  -16.3095 O   0  0  0  0  0  0  0  0  0  0  0  0
   22.8960   -4.9346  -14.2328 O   0  0  0  0  0  0  0  0  0  0  0  0
   17.7827   -3.5478  -14.3535 O   0  0  0  0  0  0  0  0  0  0  0  0
  2  4  1  0
  2  1  1  6
  3  2  1  0
  4  5  1  1
  6  4  1  0
  7  6  2  0
  8  6  1  0
  9 10  1  0
  9  8  1  0
 10 12  1  0
 11 10  2  0
 12 13  1  0
 13 14  1  6
 14 15  1  0
 15 16  1  0
 16 20  1  0
 17 16  2  0
 18 13  1  0
 18 21  1  0
 19 18  2  0
M  END
$$$$
