VGE.pdb
     RDKit          3D

 21 20  0  0  1  0  0  0  0  0999 V2000
   28.5013  -22.3110  -15.8096 C   0  0  0  0  0  0  0  0  0  0  0  0
   27.7224  -21.6910  -16.9375 C   0  0  2  0  0  0  0  0  0  0  0  0
   28.6405  -20.9763  -17.9208 C   0  0  0  0  0  0  0  0  0  0  0  0
   26.7271  -20.6609  -16.4586 C   0  0  2  0  0  0  0  0  0  0  0  0
   27.4166  -19.5182  -15.9166 N   0  0  0  0  0  0  0  0  0  0  0  0
   25.8207  -21.2576  -15.4562 C   0  0  0  0  0  0  0  0  0  0  0  0
   24.9317  -22.0473  -15.8945 O   0  0  0  0  0  0  0  0  0  0  0  0
   25.9200  -20.9765  -14.0667 N   0  0  0  0  0  0  0  0  0  0  0  0
   24.9694  -21.6138  -13.2154 C   0  0  0  0  0  0  0  0  0  0  0  0
   23.7131  -20.8417  -13.0423 C   0  0  0  0  0  0  0  0  0  0  0  0
   23.7026  -19.6277  -12.7254 O   0  0  0  0  0  0  0  0  0  0  0  0
   22.4776  -21.4937  -13.2406 N   0  0  0  0  0  0  0  0  0  0  0  0
   21.1795  -20.7656  -13.3198 C   0  0  1  0  0  0  0  0  0  0  0  0
   21.2617  -19.9651  -14.5636 C   0  0  0  0  0  0  0  0  0  0  0  0
   20.1097  -19.0656  -14.8035 C   0  0  0  0  0  0  0  0  0  0  0  0
   19.4896  -19.3252  -16.1172 C   0  0  0  0  0  0  0  0  0  0  0  0
   20.1271  -19.9780  -16.9785 O   0  0  0  0  0  0  0  0  0  0  0  0
   20.0756  -21.6866  -13.1518 C   0  0  0  0  0  0  0  0  0  0  0  0
   20.1881  -22.8950  -13.5047 O   0  0  0  0  0  0  0  0  0  0  0  0
   18.2197  -18.8707  -16.4366 O   0  0  0  0  0  0  0  0  0  0  0  0
   18.8629  -21.2979  -12.6061 O   0  0  0  0  0  0  0  0  0  0  0  0
  2  4  1  0
  2  1  1  1
  3  2  1  0
  4  5  1  1
  6  4  1  0
  7  6  2  0
  8  6  1  0
  9 10  1  0
  9  8  1  0
 10 12  1  0
 11 10  2  0
 12 13  1  0
 13 14  1  6
 14 15  1  0
 15 16  1  0
 16 20  1  0
 17 16  2  0
 18 13  1  0
 18 21  1  0
 19 18  2  0
M  END
$$$$
