VGE.pdb
     RDKit          3D

 21 20  0  0  1  0  0  0  0  0999 V2000
   21.0652  -13.2828  -16.1431 C   0  0  0  0  0  0  0  0  0  0  0  0
   19.6022  -13.3863  -15.8084 C   0  0  2  0  0  0  0  0  0  0  0  0
   19.1628  -14.8391  -15.6781 C   0  0  0  0  0  0  0  0  0  0  0  0
   18.7192  -12.7677  -16.8661 C   0  0  2  0  0  0  0  0  0  0  0  0
   18.6292  -13.6387  -18.0099 N   0  0  0  0  0  0  0  0  0  0  0  0
   19.2408  -11.4401  -17.2507 C   0  0  0  0  0  0  0  0  0  0  0  0
   19.9638  -11.3943  -18.2905 O   0  0  0  0  0  0  0  0  0  0  0  0
   18.9606  -10.2603  -16.5095 N   0  0  0  0  0  0  0  0  0  0  0  0
   19.6248   -9.0693  -16.9276 C   0  0  0  0  0  0  0  0  0  0  0  0
   20.5268   -8.4970  -15.8963 C   0  0  0  0  0  0  0  0  0  0  0  0
   20.7379   -9.0586  -14.7944 O   0  0  0  0  0  0  0  0  0  0  0  0
   21.1758   -7.2722  -16.1600 N   0  0  0  0  0  0  0  0  0  0  0  0
   22.1554   -6.6547  -15.2216 C   0  0  1  0  0  0  0  0  0  0  0  0
   22.7485   -5.5237  -15.9725 C   0  0  0  0  0  0  0  0  0  0  0  0
   21.9641   -4.2681  -15.9309 C   0  0  0  0  0  0  0  0  0  0  0  0
   22.5960   -3.2124  -16.7458 C   0  0  0  0  0  0  0  0  0  0  0  0
   23.7380   -3.4095  -17.2269 O   0  0  0  0  0  0  0  0  0  0  0  0
   21.5306   -6.3945  -13.9422 C   0  0  0  0  0  0  0  0  0  0  0  0
   20.2818   -6.2169  -13.8617 O   0  0  0  0  0  0  0  0  0  0  0  0
   21.9696   -2.0025  -17.0007 O   0  0  0  0  0  0  0  0  0  0  0  0
   22.2556   -6.3283  -12.7634 O   0  0  0  0  0  0  0  0  0  0  0  0
  2  4  1  0
  2  1  1  6
  3  2  1  0
  4  5  1  6
  6  4  1  0
  7  6  2  0
  8  6  1  0
  9 10  1  0
  9  8  1  0
 10 12  1  0
 11 10  2  0
 12 13  1  0
 13 14  1  6
 14 15  1  0
 15 16  1  0
 16 20  1  0
 17 16  2  0
 18 13  1  0
 18 21  1  0
 19 18  2  0
M  END
$$$$
