VGE.pdb
     RDKit          3D

 21 20  0  0  1  0  0  0  0  0999 V2000
   25.3997  -20.0484  -15.4472 C   0  0  0  0  0  0  0  0  0  0  0  0
   26.7367  -19.4731  -15.0669 C   0  0  2  0  0  0  0  0  0  0  0  0
   27.7385  -19.5919  -16.2083 C   0  0  0  0  0  0  0  0  0  0  0  0
   27.3558  -20.1763  -13.8823 C   0  0  2  0  0  0  0  0  0  0  0  0
   27.5603  -21.5701  -14.1829 N   0  0  0  0  0  0  0  0  0  0  0  0
   26.5001  -20.0114  -12.6893 C   0  0  0  0  0  0  0  0  0  0  0  0
   26.2697  -18.8223  -12.3167 O   0  0  0  0  0  0  0  0  0  0  0  0
   25.9516  -21.1134  -11.9790 N   0  0  0  0  0  0  0  0  0  0  0  0
   25.0515  -20.8054  -10.9163 C   0  0  0  0  0  0  0  0  0  0  0  0
   23.6311  -21.0970  -11.2354 C   0  0  0  0  0  0  0  0  0  0  0  0
   23.2703  -21.5861  -12.3331 O   0  0  0  0  0  0  0  0  0  0  0  0
   22.6419  -20.8148  -10.2696 N   0  0  0  0  0  0  0  0  0  0  0  0
   21.2070  -21.1760  -10.4484 C   0  0  1  0  0  0  0  0  0  0  0  0
   20.6236  -21.1237   -9.0876 C   0  0  0  0  0  0  0  0  0  0  0  0
   21.1430  -22.1431   -8.1470 C   0  0  0  0  0  0  0  0  0  0  0  0
   20.0480  -22.9379   -7.5578 C   0  0  0  0  0  0  0  0  0  0  0  0
   18.8629  -22.6878   -7.8855 O   0  0  0  0  0  0  0  0  0  0  0  0
   20.6132  -20.3726  -11.4958 C   0  0  0  0  0  0  0  0  0  0  0  0
   20.9452  -19.1619  -11.6427 O   0  0  0  0  0  0  0  0  0  0  0  0
   20.2828  -23.9578   -6.6489 O   0  0  0  0  0  0  0  0  0  0  0  0
   19.6691  -20.8799  -12.3736 O   0  0  0  0  0  0  0  0  0  0  0  0
  2  4  1  0
  2  1  1  6
  3  2  1  0
  4  5  1  6
  6  4  1  0
  7  6  2  0
  8  6  1  0
  9 10  1  0
  9  8  1  0
 10 12  1  0
 11 10  2  0
 12 13  1  0
 13 14  1  1
 14 15  1  0
 15 16  1  0
 16 20  1  0
 17 16  2  0
 18 13  1  0
 18 21  1  0
 19 18  2  0
M  END
$$$$
