VGE.pdb
     RDKit          3D

 21 20  0  0  1  0  0  0  0  0999 V2000
   15.1695  -12.0471  -15.3704 C   0  0  0  0  0  0  0  0  0  0  0  0
   16.1830  -12.3883  -16.4284 C   0  0  2  0  0  0  0  0  0  0  0  0
   16.2792  -13.8935  -16.6420 C   0  0  0  0  0  0  0  0  0  0  0  0
   17.5740  -11.9190  -16.0731 C   0  0  2  0  0  0  0  0  0  0  0  0
   18.0350  -12.5873  -14.8832 N   0  0  0  0  0  0  0  0  0  0  0  0
   17.5856  -10.4524  -15.8956 C   0  0  0  0  0  0  0  0  0  0  0  0
   17.4201   -9.7535  -16.9397 O   0  0  0  0  0  0  0  0  0  0  0  0
   17.7711   -9.8331  -14.6299 N   0  0  0  0  0  0  0  0  0  0  0  0
   17.8363   -8.4083  -14.6183 C   0  0  0  0  0  0  0  0  0  0  0  0
   19.2210   -7.8759  -14.5581 C   0  0  0  0  0  0  0  0  0  0  0  0
   20.2311   -8.6192  -14.5197 O   0  0  0  0  0  0  0  0  0  0  0  0
   19.4156   -6.4785  -14.5431 N   0  0  0  0  0  0  0  0  0  0  0  0
   20.7625   -5.8460  -14.6300 C   0  0  1  0  0  0  0  0  0  0  0  0
   20.5069   -4.4524  -15.0625 C   0  0  0  0  0  0  0  0  0  0  0  0
   21.7112   -3.5943  -15.1449 C   0  0  0  0  0  0  0  0  0  0  0  0
   21.3647   -2.2197  -15.5551 C   0  0  0  0  0  0  0  0  0  0  0  0
   20.1730   -1.9451  -15.8362 O   0  0  0  0  0  0  0  0  0  0  0  0
   21.5048   -6.0749  -13.4087 C   0  0  0  0  0  0  0  0  0  0  0  0
   20.8997   -6.2959  -12.3212 O   0  0  0  0  0  0  0  0  0  0  0  0
   22.3144   -1.2139  -15.6422 O   0  0  0  0  0  0  0  0  0  0  0  0
   22.8897   -6.0637  -13.3703 O   0  0  0  0  0  0  0  0  0  0  0  0
  2  4  1  0
  2  1  1  1
  3  2  1  0
  4  5  1  1
  6  4  1  0
  7  6  2  0
  8  6  1  0
  9 10  1  0
  9  8  1  0
 10 12  1  0
 11 10  2  0
 12 13  1  0
 13 14  1  1
 14 15  1  0
 15 16  1  0
 16 20  1  0
 17 16  2  0
 18 13  1  0
 18 21  1  0
 19 18  2  0
M  END
$$$$
