VGE.pdb
     RDKit          3D

 21 20  0  0  1  0  0  0  0  0999 V2000
   17.5472  -14.7713  -16.1228 C   0  0  0  0  0  0  0  0  0  0  0  0
   17.5348  -13.2948  -15.8346 C   0  0  2  0  0  0  0  0  0  0  0  0
   16.1541  -12.6943  -16.0659 C   0  0  0  0  0  0  0  0  0  0  0  0
   18.4878  -12.5230  -16.7163 C   0  0  2  0  0  0  0  0  0  0  0  0
   19.8374  -12.9827  -16.5112 N   0  0  0  0  0  0  0  0  0  0  0  0
   18.3737  -11.0756  -16.4432 C   0  0  0  0  0  0  0  0  0  0  0  0
   17.2746  -10.5253  -16.7518 O   0  0  0  0  0  0  0  0  0  0  0  0
   19.4275  -10.3173  -15.8652 N   0  0  0  0  0  0  0  0  0  0  0  0
   19.2217   -8.9096  -15.7637 C   0  0  0  0  0  0  0  0  0  0  0  0
   20.3049   -8.2001  -15.0371 C   0  0  0  0  0  0  0  0  0  0  0  0
   20.8299   -8.6548  -13.9922 O   0  0  0  0  0  0  0  0  0  0  0  0
   20.7669   -6.9641  -15.5367 N   0  0  0  0  0  0  0  0  0  0  0  0
   21.9061   -6.2186  -14.9300 C   0  0  1  0  0  0  0  0  0  0  0  0
   22.3896   -5.3155  -16.0002 C   0  0  0  0  0  0  0  0  0  0  0  0
   23.5756   -4.5037  -15.6424 C   0  0  0  0  0  0  0  0  0  0  0  0
   24.0068   -3.6559  -16.7707 C   0  0  0  0  0  0  0  0  0  0  0  0
   25.0258   -3.9799  -17.4274 O   0  0  0  0  0  0  0  0  0  0  0  0
   21.5139   -5.6497  -13.6581 C   0  0  0  0  0  0  0  0  0  0  0  0
   20.3204   -5.2843  -13.4588 O   0  0  0  0  0  0  0  0  0  0  0  0
   23.3225   -2.5065  -17.1339 O   0  0  0  0  0  0  0  0  0  0  0  0
   22.4094   -5.4799  -12.6147 O   0  0  0  0  0  0  0  0  0  0  0  0
  2  4  1  0
  2  1  1  6
  3  2  1  0
  4  5  1  1
  6  4  1  0
  7  6  2  0
  8  6  1  0
  9 10  1  0
  9  8  1  0
 10 12  1  0
 11 10  2  0
 12 13  1  0
 13 14  1  6
 14 15  1  0
 15 16  1  0
 16 20  1  0
 17 16  2  0
 18 13  1  0
 18 21  1  0
 19 18  2  0
M  END
$$$$
