VGE.pdb
     RDKit          3D

 21 20  0  0  1  0  0  0  0  0999 V2000
   10.7878   -9.4866  -10.6874 C   0  0  0  0  0  0  0  0  0  0  0  0
   11.5824  -10.4845   -9.8899 C   0  0  2  0  0  0  0  0  0  0  0  0
   10.9234  -10.7754   -8.5477 C   0  0  0  0  0  0  0  0  0  0  0  0
   12.9799  -10.0011   -9.5821 C   0  0  2  0  0  0  0  0  0  0  0  0
   12.9276   -8.8310   -8.7437 N   0  0  0  0  0  0  0  0  0  0  0  0
   13.7090   -9.7223  -10.8364 C   0  0  0  0  0  0  0  0  0  0  0  0
   14.0114  -10.7241  -11.5512 O   0  0  0  0  0  0  0  0  0  0  0  0
   14.0643   -8.4076  -11.2425 N   0  0  0  0  0  0  0  0  0  0  0  0
   14.6900   -8.2790  -12.5178 C   0  0  0  0  0  0  0  0  0  0  0  0
   15.9287   -7.4607  -12.4938 C   0  0  0  0  0  0  0  0  0  0  0  0
   16.3058   -6.8328  -11.4751 O   0  0  0  0  0  0  0  0  0  0  0  0
   16.7181   -7.3818  -13.6606 N   0  0  0  0  0  0  0  0  0  0  0  0
   17.9637   -6.5674  -13.7438 C   0  0  1  0  0  0  0  0  0  0  0  0
   19.0342   -7.5335  -14.0835 C   0  0  0  0  0  0  0  0  0  0  0  0
   20.3965   -6.9564  -14.1512 C   0  0  0  0  0  0  0  0  0  0  0  0
   21.4104   -7.9997  -14.3989 C   0  0  0  0  0  0  0  0  0  0  0  0
   21.2672   -9.1311  -13.8757 O   0  0  0  0  0  0  0  0  0  0  0  0
   17.7577   -5.4204  -14.6024 C   0  0  0  0  0  0  0  0  0  0  0  0
   18.4771   -4.3885  -14.4789 O   0  0  0  0  0  0  0  0  0  0  0  0
   22.5231   -7.7734  -15.1939 O   0  0  0  0  0  0  0  0  0  0  0  0
   16.7805   -5.3957  -15.5841 O   0  0  0  0  0  0  0  0  0  0  0  0
  2  4  1  0
  2  1  1  1
  3  2  1  0
  4  5  1  1
  6  4  1  0
  7  6  2  0
  8  6  1  0
  9 10  1  0
  9  8  1  0
 10 12  1  0
 11 10  2  0
 12 13  1  0
 13 14  1  6
 14 15  1  0
 15 16  1  0
 16 20  1  0
 17 16  2  0
 18 13  1  0
 18 21  1  0
 19 18  2  0
M  END
$$$$
