FTC.pdb
     RDKit          3D

 25 25  0  0  1  0  0  0  0  0999 V2000
    6.1171  -17.0947   25.5816 N   0  0  0  0  0  0  0  0  0  0  0  0
    6.9541  -16.1654   24.8460 C   0  0  1  0  0  0  0  0  0  0  0  0
    7.5348  -15.1838   25.8506 C   0  0  0  0  0  0  0  0  0  0  0  0
    6.8702  -13.8741   25.7929 C   0  0  0  0  0  0  0  0  0  0  0  0
    7.5775  -12.7156   26.0186 C   0  0  0  0  0  0  0  0  0  0  0  0
    6.9558  -11.4913   25.9646 C   0  0  0  0  0  0  0  0  0  0  0  0
    5.6000  -11.4086   25.6802 C   0  0  0  0  0  0  0  0  0  0  0  0
    4.9196  -12.5827   25.4593 C   0  0  0  0  0  0  0  0  0  0  0  0
    5.5232  -13.8192   25.5086 C   0  0  0  0  0  0  0  0  0  0  0  0
    8.0947  -16.8989   24.2200 C   0  0  0  0  0  0  0  0  0  0  0  0
    7.9288  -17.7047   23.2549 O   0  0  0  0  0  0  0  0  0  0  0  0
    9.3084  -16.3700   21.9952 C   0  0  0  0  0  0  0  0  0  0  0  0
   10.6150  -16.1963   22.7168 C   0  0  1  0  0  0  0  0  0  0  0  0
   10.7158  -14.8482   23.0953 O   0  0  0  0  0  0  0  0  0  0  0  0
   10.6061  -17.0281   23.9665 C   0  0  2  0  0  0  0  0  0  0  0  0
    9.4101  -16.6952   24.7131 N   0  0  0  0  0  0  0  0  0  0  0  0
   11.8009  -16.7571   24.8083 C   0  0  0  0  0  0  0  0  0  0  0  0
   12.9583  -16.7884   24.3306 O   0  0  0  0  0  0  0  0  0  0  0  0
   11.6646  -16.4528   26.1873 N   0  0  0  0  0  0  0  0  0  0  0  0
   12.7467  -16.4006   27.1176 C   0  0  1  0  0  0  0  0  0  0  0  0
   12.3259  -15.9192   28.4886 C   0  0  0  0  0  0  0  0  0  0  0  0
   11.1990  -14.4988   28.2733 S   0  0  0  0  0  0  0  0  0  0  0  0
   13.3025  -17.7710   27.2658 C   0  0  0  0  0  0  0  0  0  0  0  0
   14.4172  -18.0474   28.0470 O   0  0  0  0  0  0  0  0  0  0  0  0
   12.7565  -18.7333   26.6683 O   0  0  0  0  0  0  0  0  0  0  0  0
  2  1  1  1
  2  3  1  0
  2 10  1  0
  4  3  1  0
  4  9  2  0
  5  4  1  0
  6  5  2  0
  6  7  1  0
  7  8  2  0
  8  9  1  0
 10 16  1  0
 11 10  2  0
 13 12  1  1
 13 14  1  0
 15 13  1  0
 15 16  1  1
 17 15  1  0
 17 19  1  0
 18 17  2  0
 20 19  1  0
 20 23  1  0
 20 21  1  1
 21 22  1  0
 23 25  2  0
 23 24  1  0
M  END
$$$$
