FTC.pdb
     RDKit          3D

 25 25  0  0  1  0  0  0  0  0999 V2000
    6.5290  -18.4078   20.4008 N   0  0  0  0  0  0  0  0  0  0  0  0
    7.0616  -17.1584   20.9115 C   0  0  1  0  0  0  0  0  0  0  0  0
    6.2661  -16.0311   20.2739 C   0  0  0  0  0  0  0  0  0  0  0  0
    6.8622  -14.7140   20.5389 C   0  0  0  0  0  0  0  0  0  0  0  0
    7.8211  -14.1940   19.7001 C   0  0  0  0  0  0  0  0  0  0  0  0
    8.3782  -12.9626   19.9482 C   0  0  0  0  0  0  0  0  0  0  0  0
    7.9781  -12.2251   21.0536 C   0  0  0  0  0  0  0  0  0  0  0  0
    7.0185  -12.7702   21.8735 C   0  0  0  0  0  0  0  0  0  0  0  0
    6.4477  -14.0018   21.6431 C   0  0  0  0  0  0  0  0  0  0  0  0
    6.8475  -17.0835   22.3878 C   0  0  0  0  0  0  0  0  0  0  0  0
    5.6994  -17.2172   22.9095 O   0  0  0  0  0  0  0  0  0  0  0  0
    7.3897  -19.1107   24.7800 C   0  0  0  0  0  0  0  0  0  0  0  0
    8.2547  -18.0032   25.3121 C   0  0  1  0  0  0  0  0  0  0  0  0
    9.5770  -18.2734   24.9257 O   0  0  0  0  0  0  0  0  0  0  0  0
    7.8441  -16.7051   24.6794 C   0  0  2  0  0  0  0  0  0  0  0  0
    7.9573  -16.8558   23.2430 N   0  0  0  0  0  0  0  0  0  0  0  0
    8.7132  -15.5845   25.1249 C   0  0  0  0  0  0  0  0  0  0  0  0
    9.8197  -15.3597   24.5829 O   0  0  0  0  0  0  0  0  0  0  0  0
    8.3121  -14.7306   26.1845 N   0  0  0  0  0  0  0  0  0  0  0  0
    9.1259  -13.7030   26.7509 C   0  0  1  0  0  0  0  0  0  0  0  0
    8.3496  -12.4468   27.0794 C   0  0  0  0  0  0  0  0  0  0  0  0
    7.1976  -12.1119   25.7031 S   0  0  0  0  0  0  0  0  0  0  0  0
    9.7174  -14.2174   28.0136 C   0  0  0  0  0  0  0  0  0  0  0  0
   10.7069  -13.5357   28.7101 O   0  0  0  0  0  0  0  0  0  0  0  0
    9.3200  -15.3122   28.4876 O   0  0  0  0  0  0  0  0  0  0  0  0
  2  1  1  6
  2  3  1  0
  2 10  1  0
  4  3  1  0
  4  9  2  0
  5  4  1  0
  6  5  2  0
  6  7  1  0
  7  8  2  0
  8  9  1  0
 10 16  1  0
 11 10  2  0
 13 12  1  6
 13 14  1  0
 15 13  1  0
 15 16  1  6
 17 15  1  0
 17 19  1  0
 18 17  2  0
 20 19  1  0
 20 23  1  0
 20 21  1  1
 21 22  1  0
 23 25  2  0
 23 24  1  0
M  END
$$$$
