FTC.pdb
     RDKit          3D

 25 25  0  0  1  0  0  0  0  0999 V2000
    6.0442  -16.6065   25.4599 N   0  0  0  0  0  0  0  0  0  0  0  0
    6.8943  -15.8278   24.5788 C   0  0  1  0  0  0  0  0  0  0  0  0
    7.8158  -14.9955   25.4552 C   0  0  0  0  0  0  0  0  0  0  0  0
    7.2058  -13.7151   25.8410 C   0  0  0  0  0  0  0  0  0  0  0  0
    7.7283  -12.5235   25.3932 C   0  0  0  0  0  0  0  0  0  0  0  0
    7.1577  -11.3266   25.7541 C   0  0  0  0  0  0  0  0  0  0  0  0
    6.0419  -11.3056   26.5790 C   0  0  0  0  0  0  0  0  0  0  0  0
    5.5423  -12.5116   27.0106 C   0  0  0  0  0  0  0  0  0  0  0  0
    6.0985  -13.7215   26.6610 C   0  0  0  0  0  0  0  0  0  0  0  0
    7.7496  -16.7416   23.7639 C   0  0  0  0  0  0  0  0  0  0  0  0
    7.3457  -17.8824   23.3848 O   0  0  0  0  0  0  0  0  0  0  0  0
    7.7128  -17.4212   21.2425 C   0  0  0  0  0  0  0  0  0  0  0  0
    9.0973  -16.8626   21.0725 C   0  0  1  0  0  0  0  0  0  0  0  0
    8.9708  -15.4972   20.7712 O   0  0  0  0  0  0  0  0  0  0  0  0
    9.8438  -16.9827   22.3695 C   0  0  2  0  0  0  0  0  0  0  0  0
    9.0575  -16.3303   23.3965 N   0  0  0  0  0  0  0  0  0  0  0  0
   11.1798  -16.3359   22.2896 C   0  0  0  0  0  0  0  0  0  0  0  0
   11.2997  -15.0937   22.1836 O   0  0  0  0  0  0  0  0  0  0  0  0
   12.3666  -17.1120   22.3316 N   0  0  0  0  0  0  0  0  0  0  0  0
   13.1201  -17.3790   23.5148 C   0  0  1  0  0  0  0  0  0  0  0  0
   12.2953  -18.0181   24.6102 C   0  0  0  0  0  0  0  0  0  0  0  0
   13.3664  -18.2464   26.0712 S   0  0  0  0  0  0  0  0  0  0  0  0
   14.2208  -18.3152   23.1671 C   0  0  0  0  0  0  0  0  0  0  0  0
   15.5385  -18.0978   23.5486 O   0  0  0  0  0  0  0  0  0  0  0  0
   13.9704  -19.3521   22.5011 O   0  0  0  0  0  0  0  0  0  0  0  0
  2  1  1  1
  2  3  1  0
  2 10  1  0
  4  3  1  0
  4  9  2  0
  5  4  1  0
  6  5  2  0
  6  7  1  0
  7  8  2  0
  8  9  1  0
 10 16  1  0
 11 10  2  0
 13 12  1  1
 13 14  1  0
 15 13  1  0
 15 16  1  1
 17 15  1  0
 17 19  1  0
 18 17  2  0
 20 19  1  0
 20 23  1  0
 20 21  1  1
 21 22  1  0
 23 25  2  0
 23 24  1  0
M  END
$$$$
