FTC.pdb
     RDKit          3D

 25 25  0  0  1  0  0  0  0  0999 V2000
    5.8207  -16.7549   24.1397 N   0  0  0  0  0  0  0  0  0  0  0  0
    7.0701  -16.0170   24.1315 C   0  0  1  0  0  0  0  0  0  0  0  0
    7.2723  -15.4503   25.5272 C   0  0  0  0  0  0  0  0  0  0  0  0
    6.8187  -14.0560   25.6299 C   0  0  0  0  0  0  0  0  0  0  0  0
    5.6179  -13.7489   26.2274 C   0  0  0  0  0  0  0  0  0  0  0  0
    5.1942  -12.4452   26.3232 C   0  0  0  0  0  0  0  0  0  0  0  0
    5.9767  -11.4176   25.8156 C   0  0  0  0  0  0  0  0  0  0  0  0
    7.1712  -11.7549   25.2244 C   0  0  0  0  0  0  0  0  0  0  0  0
    7.6142  -13.0542   25.1181 C   0  0  0  0  0  0  0  0  0  0  0  0
    8.2049  -16.9473   23.8529 C   0  0  0  0  0  0  0  0  0  0  0  0
    8.0755  -17.9618   23.1030 O   0  0  0  0  0  0  0  0  0  0  0  0
    9.6454  -17.3736   21.7930 C   0  0  0  0  0  0  0  0  0  0  0  0
   10.8923  -17.0165   22.5518 C   0  0  1  0  0  0  0  0  0  0  0  0
   11.0784  -15.6299   22.4355 O   0  0  0  0  0  0  0  0  0  0  0  0
   10.6974  -17.3366   24.0055 C   0  0  2  0  0  0  0  0  0  0  0  0
    9.4724  -16.6974   24.4407 N   0  0  0  0  0  0  0  0  0  0  0  0
   11.8302  -16.8374   24.8286 C   0  0  0  0  0  0  0  0  0  0  0  0
   12.8634  -16.3652   24.3013 O   0  0  0  0  0  0  0  0  0  0  0  0
   11.7738  -16.8816   26.2455 N   0  0  0  0  0  0  0  0  0  0  0  0
   12.6210  -16.1297   27.1150 C   0  0  1  0  0  0  0  0  0  0  0  0
   11.9299  -14.9283   27.7216 C   0  0  0  0  0  0  0  0  0  0  0  0
   10.2838  -15.4545   28.3106 S   0  0  0  0  0  0  0  0  0  0  0  0
   13.0551  -17.0158   28.2264 C   0  0  0  0  0  0  0  0  0  0  0  0
   12.5942  -18.3181   28.3706 O   0  0  0  0  0  0  0  0  0  0  0  0
   13.8722  -16.5888   29.0815 O   0  0  0  0  0  0  0  0  0  0  0  0
  2  1  1  1
  2  3  1  0
  2 10  1  0
  4  3  1  0
  4  9  2  0
  5  4  1  0
  6  5  2  0
  6  7  1  0
  7  8  2  0
  8  9  1  0
 10 16  1  0
 11 10  2  0
 13 12  1  6
 13 14  1  0
 15 13  1  0
 15 16  1  1
 17 15  1  0
 17 19  1  0
 18 17  2  0
 20 19  1  0
 20 23  1  0
 20 21  1  1
 21 22  1  0
 23 25  2  0
 23 24  1  0
M  END
$$$$
