FTC.pdb
     RDKit          3D

 25 25  0  0  1  0  0  0  0  0999 V2000
    6.9101  -15.9585   25.8990 N   0  0  0  0  0  0  0  0  0  0  0  0
    6.8814  -15.0931   24.7346 C   0  0  1  0  0  0  0  0  0  0  0  0
    7.7362  -13.8769   25.0513 C   0  0  0  0  0  0  0  0  0  0  0  0
    7.1178  -13.0151   26.0687 C   0  0  0  0  0  0  0  0  0  0  0  0
    7.5942  -12.9971   27.3595 C   0  0  0  0  0  0  0  0  0  0  0  0
    7.0157  -12.1913   28.3105 C   0  0  0  0  0  0  0  0  0  0  0  0
    5.9385  -11.3818   27.9783 C   0  0  0  0  0  0  0  0  0  0  0  0
    5.4846  -11.4209   26.6811 C   0  0  0  0  0  0  0  0  0  0  0  0
    6.0495  -12.2208   25.7133 C   0  0  0  0  0  0  0  0  0  0  0  0
    7.5034  -15.7916   23.5702 C   0  0  0  0  0  0  0  0  0  0  0  0
    7.8588  -17.0077   23.6257 O   0  0  0  0  0  0  0  0  0  0  0  0
    8.5885  -13.4356   20.2262 C   0  0  0  0  0  0  0  0  0  0  0  0
    7.9573  -14.7813   20.0059 C   0  0  1  0  0  0  0  0  0  0  0  0
    8.5372  -15.3399   18.8559 O   0  0  0  0  0  0  0  0  0  0  0  0
    8.2789  -15.6765   21.1674 C   0  0  2  0  0  0  0  0  0  0  0  0
    7.7077  -15.0814   22.3583 N   0  0  0  0  0  0  0  0  0  0  0  0
    9.7467  -15.8250   21.3490 C   0  0  0  0  0  0  0  0  0  0  0  0
   10.4363  -14.9186   21.8700 O   0  0  0  0  0  0  0  0  0  0  0  0
   10.4144  -17.0063   20.9347 N   0  0  0  0  0  0  0  0  0  0  0  0
   11.8082  -17.2572   21.1180 C   0  0  1  0  0  0  0  0  0  0  0  0
   12.0874  -18.5817   21.7935 C   0  0  0  0  0  0  0  0  0  0  0  0
   11.3877  -18.5211   23.4789 S   0  0  0  0  0  0  0  0  0  0  0  0
   12.4589  -17.2801   19.7820 C   0  0  0  0  0  0  0  0  0  0  0  0
   13.8355  -17.3690   19.6201 O   0  0  0  0  0  0  0  0  0  0  0  0
   11.7528  -17.2175   18.7434 O   0  0  0  0  0  0  0  0  0  0  0  0
  2  1  1  1
  2  3  1  0
  2 10  1  0
  4  3  1  0
  4  9  2  0
  5  4  1  0
  6  5  2  0
  6  7  1  0
  7  8  2  0
  8  9  1  0
 10 16  1  0
 11 10  2  0
 13 12  1  1
 13 14  1  0
 15 13  1  0
 15 16  1  1
 17 15  1  0
 17 19  1  0
 18 17  2  0
 20 19  1  0
 20 23  1  0
 20 21  1  6
 21 22  1  0
 23 25  2  0
 23 24  1  0
M  END
$$$$
