FTC.pdb
     RDKit          3D

 25 25  0  0  1  0  0  0  0  0999 V2000
    8.0518  -17.1225   16.9109 N   0  0  0  0  0  0  0  0  0  0  0  0
    8.3539  -16.2713   18.0465 C   0  0  1  0  0  0  0  0  0  0  0  0
    7.2991  -15.1778   18.0880 C   0  0  0  0  0  0  0  0  0  0  0  0
    7.4342  -14.3228   19.2758 C   0  0  0  0  0  0  0  0  0  0  0  0
    6.8202  -14.6610   20.4598 C   0  0  0  0  0  0  0  0  0  0  0  0
    6.9468  -13.8614   21.5702 C   0  0  0  0  0  0  0  0  0  0  0  0
    7.6995  -12.6970   21.5099 C   0  0  0  0  0  0  0  0  0  0  0  0
    8.3012  -12.3850   20.3137 C   0  0  0  0  0  0  0  0  0  0  0  0
    8.1871  -13.1720   19.1898 C   0  0  0  0  0  0  0  0  0  0  0  0
    8.2401  -17.0570   19.3116 C   0  0  0  0  0  0  0  0  0  0  0  0
    7.2027  -17.7287   19.5963 O   0  0  0  0  0  0  0  0  0  0  0  0
   10.0088  -19.8107   20.1338 C   0  0  0  0  0  0  0  0  0  0  0  0
   10.3852  -18.9167   21.2814 C   0  0  1  0  0  0  0  0  0  0  0  0
   11.5960  -18.2877   20.9511 O   0  0  0  0  0  0  0  0  0  0  0  0
    9.3400  -17.8513   21.4440 C   0  0  2  0  0  0  0  0  0  0  0  0
    9.3211  -17.0588   20.2315 N   0  0  0  0  0  0  0  0  0  0  0  0
    9.6392  -16.9687   22.6021 C   0  0  0  0  0  0  0  0  0  0  0  0
   10.3300  -15.9320   22.4730 O   0  0  0  0  0  0  0  0  0  0  0  0
    9.1476  -17.2768   23.8968 N   0  0  0  0  0  0  0  0  0  0  0  0
    9.4845  -16.5593   25.0846 C   0  0  1  0  0  0  0  0  0  0  0  0
    8.2901  -16.2926   25.9739 C   0  0  0  0  0  0  0  0  0  0  0  0
    6.9338  -15.6547   24.9311 S   0  0  0  0  0  0  0  0  0  0  0  0
   10.4589  -17.3702   25.8603 C   0  0  0  0  0  0  0  0  0  0  0  0
   11.0809  -16.8980   27.0089 O   0  0  0  0  0  0  0  0  0  0  0  0
   10.7460  -18.5334   25.4784 O   0  0  0  0  0  0  0  0  0  0  0  0
  2  1  1  6
  2  3  1  0
  2 10  1  0
  4  3  1  0
  4  9  2  0
  5  4  1  0
  6  5  2  0
  6  7  1  0
  7  8  2  0
  8  9  1  0
 10 16  1  0
 11 10  2  0
 13 12  1  6
 13 14  1  0
 15 13  1  0
 15 16  1  6
 17 15  1  0
 17 19  1  0
 18 17  2  0
 20 19  1  0
 20 23  1  0
 20 21  1  1
 21 22  1  0
 23 25  2  0
 23 24  1  0
M  END
$$$$
