FTC.pdb
     RDKit          3D

 25 25  0  0  1  0  0  0  0  0999 V2000
    6.1401  -16.1836   25.4613 N   0  0  0  0  0  0  0  0  0  0  0  0
    6.7610  -15.3452   24.4529 C   0  0  1  0  0  0  0  0  0  0  0  0
    7.8377  -14.5249   25.1441 C   0  0  0  0  0  0  0  0  0  0  0  0
    7.2693  -13.5031   26.0346 C   0  0  0  0  0  0  0  0  0  0  0  0
    7.6499  -13.4299   27.3549 C   0  0  0  0  0  0  0  0  0  0  0  0
    7.1181  -12.4745   28.1873 C   0  0  0  0  0  0  0  0  0  0  0  0
    6.1860  -11.5673   27.7033 C   0  0  0  0  0  0  0  0  0  0  0  0
    5.8252  -11.6649   26.3802 C   0  0  0  0  0  0  0  0  0  0  0  0
    6.3456  -12.6142   25.5296 C   0  0  0  0  0  0  0  0  0  0  0  0
    7.4322  -16.1998   23.4282 C   0  0  0  0  0  0  0  0  0  0  0  0
    6.8172  -17.1229   22.8135 O   0  0  0  0  0  0  0  0  0  0  0  0
    7.2050  -16.4530   21.0036 C   0  0  0  0  0  0  0  0  0  0  0  0
    8.6534  -16.1430   20.7508 C   0  0  1  0  0  0  0  0  0  0  0  0
    8.7672  -14.7544   20.5784 O   0  0  0  0  0  0  0  0  0  0  0  0
    9.4609  -16.5269   21.9568 C   0  0  2  0  0  0  0  0  0  0  0  0
    8.8015  -15.9805   23.1252 N   0  0  0  0  0  0  0  0  0  0  0  0
   10.8445  -15.9890   21.8781 C   0  0  0  0  0  0  0  0  0  0  0  0
   11.0673  -14.8045   21.5378 O   0  0  0  0  0  0  0  0  0  0  0  0
   11.9611  -16.8074   22.1885 N   0  0  0  0  0  0  0  0  0  0  0  0
   13.1692  -16.3383   22.7881 C   0  0  1  0  0  0  0  0  0  0  0  0
   13.4438  -16.9669   24.1364 C   0  0  0  0  0  0  0  0  0  0  0  0
   11.9649  -16.7403   25.1831 S   0  0  0  0  0  0  0  0  0  0  0  0
   14.3012  -16.6782   21.8870 C   0  0  0  0  0  0  0  0  0  0  0  0
   15.6096  -16.2929   22.1490 O   0  0  0  0  0  0  0  0  0  0  0  0
   14.0874  -17.3409   20.8400 O   0  0  0  0  0  0  0  0  0  0  0  0
  2  1  1  1
  2  3  1  0
  2 10  1  0
  4  3  1  0
  4  9  2  0
  5  4  1  0
  6  5  2  0
  6  7  1  0
  7  8  2  0
  8  9  1  0
 10 16  1  0
 11 10  2  0
 13 12  1  1
 13 14  1  0
 15 13  1  0
 15 16  1  1
 17 15  1  0
 17 19  1  0
 18 17  2  0
 20 19  1  0
 20 23  1  0
 20 21  1  1
 21 22  1  0
 23 25  2  0
 23 24  1  0
M  END
$$$$
