FTC.pdb
     RDKit          3D

 25 25  0  0  1  0  0  0  0  0999 V2000
    5.6641  -17.1052   25.0502 N   0  0  0  0  0  0  0  0  0  0  0  0
    6.7110  -16.1392   24.7742 C   0  0  1  0  0  0  0  0  0  0  0  0
    7.1857  -15.5897   26.1095 C   0  0  0  0  0  0  0  0  0  0  0  0
    6.9345  -14.1470   26.2353 C   0  0  0  0  0  0  0  0  0  0  0  0
    5.7184  -13.6806   26.6790 C   0  0  0  0  0  0  0  0  0  0  0  0
    5.4839  -12.3317   26.7965 C   0  0  0  0  0  0  0  0  0  0  0  0
    6.4764  -11.4192   26.4674 C   0  0  0  0  0  0  0  0  0  0  0  0
    7.6809  -11.9147   26.0271 C   0  0  0  0  0  0  0  0  0  0  0  0
    7.9364  -13.2618   25.9021 C   0  0  0  0  0  0  0  0  0  0  0  0
    7.8718  -16.8224   24.1286 C   0  0  0  0  0  0  0  0  0  0  0  0
    8.2159  -18.0030   24.4385 O   0  0  0  0  0  0  0  0  0  0  0  0
   11.1183  -16.5593   20.4212 C   0  0  0  0  0  0  0  0  0  0  0  0
    9.9148  -16.0141   21.1370 C   0  0  1  0  0  0  0  0  0  0  0  0
    8.7853  -16.3147   20.3594 O   0  0  0  0  0  0  0  0  0  0  0  0
    9.7653  -16.7110   22.4583 C   0  0  2  0  0  0  0  0  0  0  0  0
    8.6202  -16.1378   23.1356 N   0  0  0  0  0  0  0  0  0  0  0  0
   10.9744  -16.5356   23.3051 C   0  0  0  0  0  0  0  0  0  0  0  0
   11.4192  -15.3981   23.5825 O   0  0  0  0  0  0  0  0  0  0  0  0
   11.6648  -17.6594   23.8278 N   0  0  0  0  0  0  0  0  0  0  0  0
   12.8552  -17.5870   24.6132 C   0  0  1  0  0  0  0  0  0  0  0  0
   12.6341  -17.9706   26.0598 C   0  0  0  0  0  0  0  0  0  0  0  0
   11.4098  -19.3242   26.1102 S   0  0  0  0  0  0  0  0  0  0  0  0
   13.8523  -18.5277   24.0390 C   0  0  0  0  0  0  0  0  0  0  0  0
   15.1788  -18.5568   24.4499 O   0  0  0  0  0  0  0  0  0  0  0  0
   13.5016  -19.3382   23.1438 O   0  0  0  0  0  0  0  0  0  0  0  0
  2  1  1  1
  2  3  1  0
  2 10  1  0
  4  3  1  0
  4  9  2  0
  5  4  1  0
  6  5  2  0
  6  7  1  0
  7  8  2  0
  8  9  1  0
 10 16  1  0
 11 10  2  0
 13 12  1  6
 13 14  1  0
 15 13  1  0
 15 16  1  1
 17 15  1  0
 17 19  1  0
 18 17  2  0
 20 19  1  0
 20 23  1  0
 20 21  1  1
 21 22  1  0
 23 25  2  0
 23 24  1  0
M  END
$$$$
