FTC.pdb
     RDKit          3D

 25 25  0  0  1  0  0  0  0  0999 V2000
    6.8086  -16.2250   25.9493 N   0  0  0  0  0  0  0  0  0  0  0  0
    6.6306  -15.4105   24.7617 C   0  0  1  0  0  0  0  0  0  0  0  0
    7.5709  -14.2223   24.8806 C   0  0  0  0  0  0  0  0  0  0  0  0
    7.1281  -13.2663   25.9055 C   0  0  0  0  0  0  0  0  0  0  0  0
    5.8336  -12.8000   25.9204 C   0  0  0  0  0  0  0  0  0  0  0  0
    5.4201  -11.9061   26.8787 C   0  0  0  0  0  0  0  0  0  0  0  0
    6.3080  -11.4609   27.8479 C   0  0  0  0  0  0  0  0  0  0  0  0
    7.5945  -11.9442   27.8077 C   0  0  0  0  0  0  0  0  0  0  0  0
    8.0292  -12.8398   26.8566 C   0  0  0  0  0  0  0  0  0  0  0  0
    7.0345  -16.1867   23.5512 C   0  0  0  0  0  0  0  0  0  0  0  0
    6.2083  -16.8919   22.8967 O   0  0  0  0  0  0  0  0  0  0  0  0
    6.6421  -15.7366   21.1524 C   0  0  0  0  0  0  0  0  0  0  0  0
    8.0871  -15.8658   20.7607 C   0  0  1  0  0  0  0  0  0  0  0  0
    8.6306  -14.5725   20.7081 O   0  0  0  0  0  0  0  0  0  0  0  0
    8.8219  -16.6335   21.8211 C   0  0  2  0  0  0  0  0  0  0  0  0
    8.3831  -16.1408   23.1108 N   0  0  0  0  0  0  0  0  0  0  0  0
   10.2926  -16.4533   21.7018 C   0  0  0  0  0  0  0  0  0  0  0  0
   10.8542  -15.3967   22.0720 O   0  0  0  0  0  0  0  0  0  0  0  0
   11.1092  -17.4799   21.1614 N   0  0  0  0  0  0  0  0  0  0  0  0
   12.4691  -17.7131   21.5291 C   0  0  1  0  0  0  0  0  0  0  0  0
   12.6213  -18.2101   22.9499 C   0  0  0  0  0  0  0  0  0  0  0  0
   11.3787  -19.5177   23.2328 S   0  0  0  0  0  0  0  0  0  0  0  0
   13.0283  -18.7483   20.6211 C   0  0  0  0  0  0  0  0  0  0  0  0
   14.3696  -19.1086   20.6309 O   0  0  0  0  0  0  0  0  0  0  0  0
   12.2736  -19.3338   19.8033 O   0  0  0  0  0  0  0  0  0  0  0  0
  2  1  1  1
  2  3  1  0
  2 10  1  0
  4  3  1  0
  4  9  2  0
  5  4  1  0
  6  5  2  0
  6  7  1  0
  7  8  2  0
  8  9  1  0
 10 16  1  0
 11 10  2  0
 13 12  1  1
 13 14  1  0
 15 13  1  0
 15 16  1  1
 17 15  1  0
 17 19  1  0
 18 17  2  0
 20 19  1  0
 20 23  1  0
 20 21  1  1
 21 22  1  0
 23 25  2  0
 23 24  1  0
M  END
$$$$
