FTC.pdb
     RDKit          3D

 25 25  0  0  1  0  0  0  0  0999 V2000
    6.0678  -18.2331   20.6341 N   0  0  0  0  0  0  0  0  0  0  0  0
    6.8137  -17.1406   21.2304 C   0  0  1  0  0  0  0  0  0  0  0  0
    5.9236  -15.9091   21.1933 C   0  0  0  0  0  0  0  0  0  0  0  0
    6.6997  -14.6628   21.2607 C   0  0  0  0  0  0  0  0  0  0  0  0
    6.7931  -13.9548   22.4369 C   0  0  0  0  0  0  0  0  0  0  0  0
    7.5188  -12.7895   22.4996 C   0  0  0  0  0  0  0  0  0  0  0  0
    8.1693  -12.3106   21.3711 C   0  0  0  0  0  0  0  0  0  0  0  0
    8.0580  -13.0392   20.2105 C   0  0  0  0  0  0  0  0  0  0  0  0
    7.3362  -14.2086   20.1263 C   0  0  0  0  0  0  0  0  0  0  0  0
    7.1006  -17.4475   22.6637 C   0  0  0  0  0  0  0  0  0  0  0  0
    6.4313  -18.3048   23.3160 O   0  0  0  0  0  0  0  0  0  0  0  0
    8.3104  -19.4817   23.8553 C   0  0  0  0  0  0  0  0  0  0  0  0
    9.3319  -18.5303   24.4115 C   0  0  1  0  0  0  0  0  0  0  0  0
   10.3549  -18.4002   23.4589 O   0  0  0  0  0  0  0  0  0  0  0  0
    8.7020  -17.1808   24.6008 C   0  0  2  0  0  0  0  0  0  0  0  0
    8.1534  -16.7640   23.3265 N   0  0  0  0  0  0  0  0  0  0  0  0
    9.6972  -16.1759   25.0585 C   0  0  0  0  0  0  0  0  0  0  0  0
   10.4111  -15.5452   24.2454 O   0  0  0  0  0  0  0  0  0  0  0  0
    9.8687  -15.8997   26.4395 N   0  0  0  0  0  0  0  0  0  0  0  0
   10.7947  -14.9499   26.9681 C   0  0  1  0  0  0  0  0  0  0  0  0
   10.4071  -13.5177   26.6726 C   0  0  0  0  0  0  0  0  0  0  0  0
    8.5868  -13.3937   26.7413 S   0  0  0  0  0  0  0  0  0  0  0  0
   10.8422  -15.1145   28.4444 C   0  0  0  0  0  0  0  0  0  0  0  0
   10.1104  -16.0867   29.1141 O   0  0  0  0  0  0  0  0  0  0  0  0
   11.5678  -14.3533   29.1337 O   0  0  0  0  0  0  0  0  0  0  0  0
  2  1  1  1
  2  3  1  0
  2 10  1  0
  4  3  1  0
  4  9  2  0
  5  4  1  0
  6  5  2  0
  6  7  1  0
  7  8  2  0
  8  9  1  0
 10 16  1  0
 11 10  2  0
 13 12  1  6
 13 14  1  0
 15 13  1  0
 15 16  1  6
 17 15  1  0
 17 19  1  0
 18 17  2  0
 20 19  1  0
 20 23  1  0
 20 21  1  1
 21 22  1  0
 23 25  2  0
 23 24  1  0
M  END
$$$$
