FTC.pdb
     RDKit          3D

 25 25  0  0  1  0  0  0  0  0999 V2000
    5.9263  -18.0105   25.6275 N   0  0  0  0  0  0  0  0  0  0  0  0
    6.2777  -16.6450   25.2852 C   0  0  1  0  0  0  0  0  0  0  0  0
    6.8691  -16.0025   26.5293 C   0  0  0  0  0  0  0  0  0  0  0  0
    6.7779  -14.5360   26.4918 C   0  0  0  0  0  0  0  0  0  0  0  0
    5.5549  -13.9085   26.4295 C   0  0  0  0  0  0  0  0  0  0  0  0
    5.4700  -12.5374   26.3944 C   0  0  0  0  0  0  0  0  0  0  0  0
    6.6230  -11.7655   26.4217 C   0  0  0  0  0  0  0  0  0  0  0  0
    7.8303  -12.4203   26.4840 C   0  0  0  0  0  0  0  0  0  0  0  0
    7.9375  -13.7925   26.5200 C   0  0  0  0  0  0  0  0  0  0  0  0
    7.3352  -16.6444   24.2304 C   0  0  0  0  0  0  0  0  0  0  0  0
    8.2808  -17.4894   24.2243 O   0  0  0  0  0  0  0  0  0  0  0  0
    8.6641  -14.5734   19.9281 C   0  0  0  0  0  0  0  0  0  0  0  0
    7.6814  -14.6932   21.0586 C   0  0  1  0  0  0  0  0  0  0  0  0
    6.5074  -15.2643   20.5426 O   0  0  0  0  0  0  0  0  0  0  0  0
    8.2317  -15.6266   22.0977 C   0  0  2  0  0  0  0  0  0  0  0  0
    7.2898  -15.6719   23.1975 N   0  0  0  0  0  0  0  0  0  0  0  0
    9.5512  -15.1626   22.6010 C   0  0  0  0  0  0  0  0  0  0  0  0
    9.6418  -14.2496   23.4535 O   0  0  0  0  0  0  0  0  0  0  0  0
   10.7552  -15.7444   22.1270 N   0  0  0  0  0  0  0  0  0  0  0  0
   11.9746  -15.8029   22.8678 C   0  0  1  0  0  0  0  0  0  0  0  0
   11.8587  -16.6209   24.1351 C   0  0  0  0  0  0  0  0  0  0  0  0
   11.2969  -15.5173   25.4769 S   0  0  0  0  0  0  0  0  0  0  0  0
   13.0126  -16.4333   22.0110 C   0  0  0  0  0  0  0  0  0  0  0  0
   12.7098  -17.0804   20.8199 O   0  0  0  0  0  0  0  0  0  0  0  0
   14.2198  -16.3905   22.3604 O   0  0  0  0  0  0  0  0  0  0  0  0
  2  1  1  1
  2  3  1  0
  2 10  1  0
  4  3  1  0
  4  9  2  0
  5  4  1  0
  6  5  2  0
  6  7  1  0
  7  8  2  0
  8  9  1  0
 10 16  1  0
 11 10  2  0
 13 12  1  6
 13 14  1  0
 15 13  1  0
 15 16  1  1
 17 15  1  0
 17 19  1  0
 18 17  2  0
 20 19  1  0
 20 23  1  0
 20 21  1  1
 21 22  1  0
 23 25  2  0
 23 24  1  0
M  END
$$$$
