FTC.pdb
     RDKit          3D

 25 25  0  0  1  0  0  0  0  0999 V2000
    5.8275  -17.6569   23.7274 N   0  0  0  0  0  0  0  0  0  0  0  0
    6.6533  -16.5371   24.1390 C   0  0  1  0  0  0  0  0  0  0  0  0
    6.0883  -16.0133   25.4492 C   0  0  0  0  0  0  0  0  0  0  0  0
    6.6840  -14.7257   25.8336 C   0  0  0  0  0  0  0  0  0  0  0  0
    6.5605  -13.6226   25.0204 C   0  0  0  0  0  0  0  0  0  0  0  0
    7.1175  -12.4190   25.3802 C   0  0  0  0  0  0  0  0  0  0  0  0
    7.8148  -12.3014   26.5743 C   0  0  0  0  0  0  0  0  0  0  0  0
    7.9216  -13.4204   27.3660 C   0  0  0  0  0  0  0  0  0  0  0  0
    7.3713  -14.6353   27.0243 C   0  0  0  0  0  0  0  0  0  0  0  0
    8.0464  -17.0066   24.4034 C   0  0  0  0  0  0  0  0  0  0  0  0
    8.2872  -18.0685   25.0534 O   0  0  0  0  0  0  0  0  0  0  0  0
   12.7249  -16.5899   23.0032 C   0  0  0  0  0  0  0  0  0  0  0  0
   11.2953  -16.1397   22.8962 C   0  0  1  0  0  0  0  0  0  0  0  0
   10.7481  -16.7311   21.7465 O   0  0  0  0  0  0  0  0  0  0  0  0
   10.5268  -16.6410   24.0845 C   0  0  2  0  0  0  0  0  0  0  0  0
    9.1427  -16.2478   23.9163 N   0  0  0  0  0  0  0  0  0  0  0  0
   11.0494  -16.0659   25.3517 C   0  0  0  0  0  0  0  0  0  0  0  0
   11.5499  -14.9186   25.3918 O   0  0  0  0  0  0  0  0  0  0  0  0
   10.9962  -16.8050   26.5615 N   0  0  0  0  0  0  0  0  0  0  0  0
   11.5657  -16.3775   27.7992 C   0  0  1  0  0  0  0  0  0  0  0  0
   10.5502  -15.7628   28.7372 C   0  0  0  0  0  0  0  0  0  0  0  0
    9.8849  -14.2561   27.9492 S   0  0  0  0  0  0  0  0  0  0  0  0
   12.1546  -17.5619   28.4769 C   0  0  0  0  0  0  0  0  0  0  0  0
   12.1442  -18.8309   27.9123 O   0  0  0  0  0  0  0  0  0  0  0  0
   12.6889  -17.4316   29.6078 O   0  0  0  0  0  0  0  0  0  0  0  0
  2  1  1  1
  2  3  1  0
  2 10  1  0
  4  3  1  0
  4  9  2  0
  5  4  1  0
  6  5  2  0
  6  7  1  0
  7  8  2  0
  8  9  1  0
 10 16  1  0
 11 10  2  0
 13 12  1  1
 13 14  1  0
 15 13  1  0
 15 16  1  6
 17 15  1  0
 17 19  1  0
 18 17  2  0
 20 19  1  0
 20 23  1  0
 20 21  1  1
 21 22  1  0
 23 25  2  0
 23 24  1  0
M  END
$$$$
