FTC.pdb
     RDKit          3D

 25 25  0  0  1  0  0  0  0  0999 V2000
    6.6353  -16.5079   26.0654 N   0  0  0  0  0  0  0  0  0  0  0  0
    7.0459  -15.5744   25.0332 C   0  0  1  0  0  0  0  0  0  0  0  0
    7.9831  -14.5668   25.6786 C   0  0  0  0  0  0  0  0  0  0  0  0
    7.2530  -13.4756   26.3393 C   0  0  0  0  0  0  0  0  0  0  0  0
    6.3065  -12.7474   25.6559 C   0  0  0  0  0  0  0  0  0  0  0  0
    5.6241  -11.7272   26.2739 C   0  0  0  0  0  0  0  0  0  0  0  0
    5.8832  -11.4178   27.6018 C   0  0  0  0  0  0  0  0  0  0  0  0
    6.8340  -12.1625   28.2587 C   0  0  0  0  0  0  0  0  0  0  0  0
    7.5288  -13.1884   27.6583 C   0  0  0  0  0  0  0  0  0  0  0  0
    7.8165  -16.2959   23.9766 C   0  0  0  0  0  0  0  0  0  0  0  0
    8.3087  -17.4484   24.1706 O   0  0  0  0  0  0  0  0  0  0  0  0
    7.1135  -14.8257   20.5148 C   0  0  0  0  0  0  0  0  0  0  0  0
    8.4385  -15.5198   20.3717 C   0  0  1  0  0  0  0  0  0  0  0  0
    9.4264  -14.5297   20.2510 O   0  0  0  0  0  0  0  0  0  0  0  0
    8.7232  -16.3077   21.6174 C   0  0  2  0  0  0  0  0  0  0  0  0
    8.0101  -15.6813   22.7118 N   0  0  0  0  0  0  0  0  0  0  0  0
   10.1769  -16.3281   21.9273 C   0  0  0  0  0  0  0  0  0  0  0  0
   10.7292  -15.3831   22.5361 O   0  0  0  0  0  0  0  0  0  0  0  0
   10.9872  -17.4264   21.5399 N   0  0  0  0  0  0  0  0  0  0  0  0
   12.3711  -17.5673   21.8626 C   0  0  1  0  0  0  0  0  0  0  0  0
   12.6482  -18.7353   22.7834 C   0  0  0  0  0  0  0  0  0  0  0  0
   11.7661  -18.4441   24.3553 S   0  0  0  0  0  0  0  0  0  0  0  0
   13.1250  -17.7914   20.6016 C   0  0  0  0  0  0  0  0  0  0  0  0
   14.5110  -17.8718   20.5610 O   0  0  0  0  0  0  0  0  0  0  0  0
   12.5020  -17.9160   19.5164 O   0  0  0  0  0  0  0  0  0  0  0  0
  2  1  1  1
  2  3  1  0
  2 10  1  0
  4  3  1  0
  4  9  2  0
  5  4  1  0
  6  5  2  0
  6  7  1  0
  7  8  2  0
  8  9  1  0
 10 16  1  0
 11 10  2  0
 13 12  1  1
 13 14  1  0
 15 13  1  0
 15 16  1  1
 17 15  1  0
 17 19  1  0
 18 17  2  0
 20 19  1  0
 20 23  1  0
 20 21  1  1
 21 22  1  0
 23 25  2  0
 23 24  1  0
M  END
$$$$
