FTC.pdb
     RDKit          3D

 25 25  0  0  1  0  0  0  0  0999 V2000
    6.6902  -16.3011   25.8341 N   0  0  0  0  0  0  0  0  0  0  0  0
    6.7405  -15.6263   24.5506 C   0  0  1  0  0  0  0  0  0  0  0  0
    7.6656  -14.4299   24.7022 C   0  0  0  0  0  0  0  0  0  0  0  0
    7.1658  -13.4654   25.6922 C   0  0  0  0  0  0  0  0  0  0  0  0
    7.7735  -13.3388   26.9203 C   0  0  0  0  0  0  0  0  0  0  0  0
    7.3059  -12.4369   27.8457 C   0  0  0  0  0  0  0  0  0  0  0  0
    6.2093  -11.6390   27.5508 C   0  0  0  0  0  0  0  0  0  0  0  0
    5.6230  -11.7878   26.3162 C   0  0  0  0  0  0  0  0  0  0  0  0
    6.0755  -12.6850   25.3750 C   0  0  0  0  0  0  0  0  0  0  0  0
    7.3391  -16.5332   23.5258 C   0  0  0  0  0  0  0  0  0  0  0  0
    6.7229  -17.5498   23.0840 O   0  0  0  0  0  0  0  0  0  0  0  0
    6.8705  -16.8477   21.0732 C   0  0  0  0  0  0  0  0  0  0  0  0
    8.2977  -16.5813   20.6859 C   0  0  1  0  0  0  0  0  0  0  0  0
    8.4142  -15.2100   20.4086 O   0  0  0  0  0  0  0  0  0  0  0  0
    9.1944  -16.8958   21.8482 C   0  0  2  0  0  0  0  0  0  0  0  0
    8.6379  -16.2578   23.0238 N   0  0  0  0  0  0  0  0  0  0  0  0
   10.5740  -16.3904   21.6227 C   0  0  0  0  0  0  0  0  0  0  0  0
   10.7858  -15.3163   21.0144 O   0  0  0  0  0  0  0  0  0  0  0  0
   11.6993  -17.1150   22.0932 N   0  0  0  0  0  0  0  0  0  0  0  0
   12.7920  -16.5405   22.8110 C   0  0  1  0  0  0  0  0  0  0  0  0
   12.3898  -15.9933   24.1629 C   0  0  0  0  0  0  0  0  0  0  0  0
   11.6393  -17.3501   25.1271 S   0  0  0  0  0  0  0  0  0  0  0  0
   13.8136  -17.5971   23.0320 C   0  0  0  0  0  0  0  0  0  0  0  0
   15.1035  -17.3143   23.4625 O   0  0  0  0  0  0  0  0  0  0  0  0
   13.5189  -18.8021   22.8265 O   0  0  0  0  0  0  0  0  0  0  0  0
  2  1  1  1
  2  3  1  0
  2 10  1  0
  4  3  1  0
  4  9  2  0
  5  4  1  0
  6  5  2  0
  6  7  1  0
  7  8  2  0
  8  9  1  0
 10 16  1  0
 11 10  2  0
 13 12  1  1
 13 14  1  0
 15 13  1  0
 15 16  1  1
 17 15  1  0
 17 19  1  0
 18 17  2  0
 20 19  1  0
 20 23  1  0
 20 21  1  1
 21 22  1  0
 23 25  2  0
 23 24  1  0
M  END
$$$$
