LCD.pdb
     RDKit          3D

 23 22  0  0  1  0  0  0  0  0999 V2000
    8.4496  -14.1925   17.7824 C   0  0  0  0  0  0  0  0  0  0  0  0
    7.5307  -13.6090   18.8538 C   0  0  2  0  0  0  0  0  0  0  0  0
    7.0009  -12.2703   18.3906 C   0  0  0  0  0  0  0  0  0  0  0  0
    8.2202  -13.5636   20.1884 C   0  0  0  0  0  0  0  0  0  0  0  0
    8.6228  -14.9212   20.6255 C   0  0  2  0  0  0  0  0  0  0  0  0
    7.5136  -15.8183   20.6228 N   0  0  0  0  0  0  0  0  0  0  0  0
    9.3051  -14.9123   21.9616 C   0  0  0  0  0  0  0  0  0  0  0  0
   10.3347  -14.2066   22.1078 O   0  0  0  0  0  0  0  0  0  0  0  0
    8.8249  -15.6708   23.0510 N   0  0  0  0  0  0  0  0  0  0  0  0
    9.4849  -15.6183   24.3747 C   0  0  1  0  0  0  0  0  0  0  0  0
    8.4047  -15.7819   25.4461 C   0  0  0  0  0  0  0  0  0  0  0  0
    9.1286  -15.9764   27.0653 S   0  0  0  0  0  0  0  0  0  0  0  0
   10.4029  -16.7849   24.4084 C   0  0  0  0  0  0  0  0  0  0  0  0
   10.0189  -17.9379   23.9888 O   0  0  0  0  0  0  0  0  0  0  0  0
   11.7387  -16.7085   24.8936 N   0  0  0  0  0  0  0  0  0  0  0  0
   12.5873  -17.9050   24.8776 C   0  0  1  0  0  0  0  0  0  0  0  0
   13.9909  -17.4926   24.5422 C   0  0  0  0  0  0  0  0  0  0  0  0
   14.0179  -16.5722   23.3900 C   0  0  0  0  0  0  0  0  0  0  0  0
   13.3010  -16.8284   22.3943 O   0  0  0  0  0  0  0  0  0  0  0  0
   12.4522  -18.6687   26.1271 C   0  0  0  0  0  0  0  0  0  0  0  0
   13.0668  -19.8972   26.2612 O   0  0  0  0  0  0  0  0  0  0  0  0
   14.8024  -15.4296   23.3537 O   0  0  0  0  0  0  0  0  0  0  0  0
   11.7833  -18.2161   27.0748 O   0  0  0  0  0  0  0  0  0  0  0  0
  2  1  1  6
  2  3  1  0
  4  2  1  0
  4  5  1  0
  5  7  1  0
  5  6  1  1
  7  8  2  0
  9  7  1  0
  9 10  1  0
 10 11  1  1
 12 11  1  0
 13 14  2  0
 13 10  1  0
 15 13  1  0
 16 15  1  0
 16 17  1  1
 17 18  1  0
 18 19  2  0
 18 22  1  0
 20 16  1  0
 21 20  1  0
 23 20  2  0
M  END
$$$$
