LCD.pdb
     RDKit          3D

 23 22  0  0  1  0  0  0  0  0999 V2000
    8.3244  -17.5084   18.8733 C   0  0  0  0  0  0  0  0  0  0  0  0
    7.6996  -16.4542   19.7850 C   0  0  2  0  0  0  0  0  0  0  0  0
    6.2741  -16.8446   20.1058 C   0  0  0  0  0  0  0  0  0  0  0  0
    7.8373  -15.0799   19.1928 C   0  0  0  0  0  0  0  0  0  0  0  0
    7.2612  -14.0528   20.0925 C   0  0  2  0  0  0  0  0  0  0  0  0
    7.0814  -12.8103   19.4150 N   0  0  0  0  0  0  0  0  0  0  0  0
    8.0683  -13.8722   21.3441 C   0  0  0  0  0  0  0  0  0  0  0  0
    9.1660  -13.2646   21.2709 O   0  0  0  0  0  0  0  0  0  0  0  0
    7.6307  -14.3638   22.5930 N   0  0  0  0  0  0  0  0  0  0  0  0
    8.4201  -14.1435   23.8253 C   0  0  1  0  0  0  0  0  0  0  0  0
    7.4544  -13.7164   24.9328 C   0  0  0  0  0  0  0  0  0  0  0  0
    6.0982  -14.8661   25.0829 S   0  0  0  0  0  0  0  0  0  0  0  0
    9.0123  -15.4633   24.1602 C   0  0  0  0  0  0  0  0  0  0  0  0
    8.3445  -16.5482   23.9868 O   0  0  0  0  0  0  0  0  0  0  0  0
   10.3280  -15.6147   24.6813 N   0  0  0  0  0  0  0  0  0  0  0  0
   10.8521  -16.9577   24.9528 C   0  0  1  0  0  0  0  0  0  0  0  0
   12.3513  -16.9066   24.9014 C   0  0  0  0  0  0  0  0  0  0  0  0
   12.8453  -17.0567   23.5197 C   0  0  0  0  0  0  0  0  0  0  0  0
   12.0496  -17.4429   22.6316 O   0  0  0  0  0  0  0  0  0  0  0  0
   10.2973  -17.5019   26.2012 C   0  0  0  0  0  0  0  0  0  0  0  0
   10.4765  -18.8329   26.5198 O   0  0  0  0  0  0  0  0  0  0  0  0
   14.1552  -16.7900   23.1524 O   0  0  0  0  0  0  0  0  0  0  0  0
    9.6615  -16.7695   26.9820 O   0  0  0  0  0  0  0  0  0  0  0  0
  2  1  1  6
  2  3  1  0
  4  2  1  0
  4  5  1  0
  5  7  1  0
  5  6  1  6
  7  8  2  0
  9  7  1  0
  9 10  1  0
 10 11  1  1
 12 11  1  0
 13 14  2  0
 13 10  1  0
 15 13  1  0
 16 15  1  0
 16 17  1  1
 17 18  1  0
 18 19  2  0
 18 22  1  0
 20 16  1  0
 21 20  1  0
 23 20  2  0
M  END
$$$$
