LCD.pdb
     RDKit          3D

 23 22  0  0  1  0  0  0  0  0999 V2000
    7.6295  -14.5172   18.4750 C   0  0  0  0  0  0  0  0  0  0  0  0
    7.3374  -13.4607   19.5387 C   0  0  2  0  0  0  0  0  0  0  0  0
    7.1996  -12.1059   18.8807 C   0  0  0  0  0  0  0  0  0  0  0  0
    8.3623  -13.5041   20.6370 C   0  0  0  0  0  0  0  0  0  0  0  0
    8.2862  -14.7809   21.3853 C   0  0  2  0  0  0  0  0  0  0  0  0
    6.9391  -15.2358   21.5015 N   0  0  0  0  0  0  0  0  0  0  0  0
    8.9436  -14.6943   22.7311 C   0  0  0  0  0  0  0  0  0  0  0  0
   10.1793  -14.4723   22.7851 O   0  0  0  0  0  0  0  0  0  0  0  0
    8.2157  -14.8551   23.9300 N   0  0  0  0  0  0  0  0  0  0  0  0
    8.8864  -14.8098   25.2485 C   0  0  1  0  0  0  0  0  0  0  0  0
    7.9102  -14.1926   26.2522 C   0  0  0  0  0  0  0  0  0  0  0  0
    6.2188  -14.5348   25.7987 S   0  0  0  0  0  0  0  0  0  0  0  0
    9.1475  -16.2258   25.6113 C   0  0  0  0  0  0  0  0  0  0  0  0
    8.2203  -17.1115   25.5184 O   0  0  0  0  0  0  0  0  0  0  0  0
   10.4114  -16.6889   26.0734 N   0  0  0  0  0  0  0  0  0  0  0  0
   10.5664  -18.0883   26.4857 C   0  0  1  0  0  0  0  0  0  0  0  0
   11.7872  -18.6520   25.8191 C   0  0  0  0  0  0  0  0  0  0  0  0
   11.8796  -18.2154   24.4132 C   0  0  0  0  0  0  0  0  0  0  0  0
   11.0345  -18.6408   23.5911 O   0  0  0  0  0  0  0  0  0  0  0  0
   10.5512  -18.2150   27.9507 C   0  0  0  0  0  0  0  0  0  0  0  0
   10.5167  -17.0874   28.7460 O   0  0  0  0  0  0  0  0  0  0  0  0
   12.8617  -17.3519   23.9530 O   0  0  0  0  0  0  0  0  0  0  0  0
   10.5692  -19.3382   28.4878 O   0  0  0  0  0  0  0  0  0  0  0  0
  2  1  1  6
  2  3  1  0
  4  2  1  0
  4  5  1  0
  5  7  1  0
  5  6  1  1
  7  8  2  0
  9  7  1  0
  9 10  1  0
 10 11  1  1
 12 11  1  0
 13 14  2  0
 13 10  1  0
 15 13  1  0
 16 15  1  0
 16 17  1  1
 17 18  1  0
 18 19  2  0
 18 22  1  0
 20 16  1  0
 21 20  1  0
 23 20  2  0
M  END
$$$$
