LCD.pdb
     RDKit          3D

 23 22  0  0  1  0  0  0  0  0999 V2000
    7.6972  -12.6806   19.1176 C   0  0  0  0  0  0  0  0  0  0  0  0
    7.5098  -13.6745   20.2621 C   0  0  2  0  0  0  0  0  0  0  0  0
    7.0632  -12.9364   21.5043 C   0  0  0  0  0  0  0  0  0  0  0  0
    8.7444  -14.5086   20.4588 C   0  0  0  0  0  0  0  0  0  0  0  0
    8.5336  -15.5308   21.5109 C   0  0  2  0  0  0  0  0  0  0  0  0
    7.1457  -15.7952   21.7080 N   0  0  0  0  0  0  0  0  0  0  0  0
    9.2014  -15.1660   22.8038 C   0  0  0  0  0  0  0  0  0  0  0  0
   10.3591  -14.6785   22.7675 O   0  0  0  0  0  0  0  0  0  0  0  0
    8.5683  -15.3551   24.0513 N   0  0  0  0  0  0  0  0  0  0  0  0
    9.2161  -14.9348   25.3138 C   0  0  1  0  0  0  0  0  0  0  0  0
    8.1804  -14.1731   26.1435 C   0  0  0  0  0  0  0  0  0  0  0  0
    8.8553  -13.6796   27.7198 S   0  0  0  0  0  0  0  0  0  0  0  0
    9.5864  -16.1932   26.0096 C   0  0  0  0  0  0  0  0  0  0  0  0
    8.7082  -17.1052   26.2336 O   0  0  0  0  0  0  0  0  0  0  0  0
   10.9065  -16.4706   26.4634 N   0  0  0  0  0  0  0  0  0  0  0  0
   11.1732  -17.7023   27.2143 C   0  0  1  0  0  0  0  0  0  0  0  0
   12.4568  -18.2993   26.7156 C   0  0  0  0  0  0  0  0  0  0  0  0
   12.8027  -19.5244   27.4606 C   0  0  0  0  0  0  0  0  0  0  0  0
   12.1506  -20.5716   27.2388 O   0  0  0  0  0  0  0  0  0  0  0  0
   11.1294  -17.4603   28.6642 C   0  0  0  0  0  0  0  0  0  0  0  0
   10.9985  -16.1754   29.1511 O   0  0  0  0  0  0  0  0  0  0  0  0
   13.8205  -19.5752   28.4006 O   0  0  0  0  0  0  0  0  0  0  0  0
   11.2098  -18.4097   29.4658 O   0  0  0  0  0  0  0  0  0  0  0  0
  2  1  1  6
  2  3  1  0
  4  2  1  0
  4  5  1  0
  5  7  1  0
  5  6  1  1
  7  8  2  0
  9  7  1  0
  9 10  1  0
 10 11  1  1
 12 11  1  0
 13 14  2  0
 13 10  1  0
 15 13  1  0
 16 15  1  0
 16 17  1  6
 17 18  1  0
 18 19  2  0
 18 22  1  0
 20 16  1  0
 21 20  1  0
 23 20  2  0
M  END
$$$$
