LCD.pdb
     RDKit          3D

 23 22  0  0  1  0  0  0  0  0999 V2000
    8.0846  -14.6236   18.4943 C   0  0  0  0  0  0  0  0  0  0  0  0
    7.4874  -13.4957   19.3333 C   0  0  2  0  0  0  0  0  0  0  0  0
    7.4041  -12.2361   18.5003 C   0  0  0  0  0  0  0  0  0  0  0  0
    8.2410  -13.3259   20.6224 C   0  0  0  0  0  0  0  0  0  0  0  0
    8.1995  -14.5676   21.4302 C   0  0  2  0  0  0  0  0  0  0  0  0
    6.8644  -15.0488   21.5755 N   0  0  0  0  0  0  0  0  0  0  0  0
    8.8608  -14.4021   22.7666 C   0  0  0  0  0  0  0  0  0  0  0  0
   10.0720  -14.0687   22.8025 O   0  0  0  0  0  0  0  0  0  0  0  0
    8.1636  -14.6100   23.9763 N   0  0  0  0  0  0  0  0  0  0  0  0
    8.8298  -14.4396   25.2868 C   0  0  1  0  0  0  0  0  0  0  0  0
    7.8923  -13.6360   26.1905 C   0  0  0  0  0  0  0  0  0  0  0  0
    8.5242  -13.5472   27.8568 S   0  0  0  0  0  0  0  0  0  0  0  0
    8.9946  -15.8112   25.8312 C   0  0  0  0  0  0  0  0  0  0  0  0
    7.9833  -16.5942   25.9617 O   0  0  0  0  0  0  0  0  0  0  0  0
   10.2525  -16.3411   26.2341 N   0  0  0  0  0  0  0  0  0  0  0  0
   10.3233  -17.6900   26.8065 C   0  0  1  0  0  0  0  0  0  0  0  0
   10.9241  -18.6126   25.7864 C   0  0  0  0  0  0  0  0  0  0  0  0
   12.2852  -18.1845   25.4128 C   0  0  0  0  0  0  0  0  0  0  0  0
   12.7723  -17.1691   25.9632 O   0  0  0  0  0  0  0  0  0  0  0  0
   11.0096  -17.6796   28.1070 C   0  0  0  0  0  0  0  0  0  0  0  0
   11.0296  -18.8148   28.8918 O   0  0  0  0  0  0  0  0  0  0  0  0
   13.0578  -18.8542   24.4766 O   0  0  0  0  0  0  0  0  0  0  0  0
   11.5786  -16.6491   28.5128 O   0  0  0  0  0  0  0  0  0  0  0  0
  2  1  1  6
  2  3  1  0
  4  2  1  0
  4  5  1  0
  5  7  1  0
  5  6  1  1
  7  8  2  0
  9  7  1  0
  9 10  1  0
 10 11  1  1
 12 11  1  0
 13 14  2  0
 13 10  1  0
 15 13  1  0
 16 15  1  0
 16 17  1  6
 17 18  1  0
 18 19  2  0
 18 22  1  0
 20 16  1  0
 21 20  1  0
 23 20  2  0
M  END
$$$$
