LCD.pdb
     RDKit          3D

 23 22  0  0  1  0  0  0  0  0999 V2000
    8.0839  -14.5524   18.1227 C   0  0  0  0  0  0  0  0  0  0  0  0
    7.6448  -13.6794   19.2965 C   0  0  2  0  0  0  0  0  0  0  0  0
    7.3387  -12.2835   18.8013 C   0  0  0  0  0  0  0  0  0  0  0  0
    8.6544  -13.7244   20.4088 C   0  0  0  0  0  0  0  0  0  0  0  0
    8.7178  -15.0751   21.0153 C   0  0  2  0  0  0  0  0  0  0  0  0
    7.4346  -15.6981   21.0317 N   0  0  0  0  0  0  0  0  0  0  0  0
    9.3257  -15.0576   22.3867 C   0  0  0  0  0  0  0  0  0  0  0  0
   10.3896  -14.4132   22.5661 O   0  0  0  0  0  0  0  0  0  0  0  0
    8.7386  -15.7415   23.4731 N   0  0  0  0  0  0  0  0  0  0  0  0
    9.3463  -15.7070   24.8222 C   0  0  1  0  0  0  0  0  0  0  0  0
    8.2418  -15.3748   25.8276 C   0  0  0  0  0  0  0  0  0  0  0  0
    6.7312  -16.2387   25.4331 S   0  0  0  0  0  0  0  0  0  0  0  0
    9.8487  -17.0824   25.0680 C   0  0  0  0  0  0  0  0  0  0  0  0
    9.1680  -18.1085   24.6981 O   0  0  0  0  0  0  0  0  0  0  0  0
   11.0886  -17.3531   25.7122 N   0  0  0  0  0  0  0  0  0  0  0  0
   11.4369  -18.7330   26.0679 C   0  0  1  0  0  0  0  0  0  0  0  0
   12.8820  -18.9638   25.7345 C   0  0  0  0  0  0  0  0  0  0  0  0
   13.1530  -18.6926   24.3102 C   0  0  0  0  0  0  0  0  0  0  0  0
   13.3412  -19.6598   23.5355 O   0  0  0  0  0  0  0  0  0  0  0  0
   11.0715  -19.0307   27.4609 C   0  0  0  0  0  0  0  0  0  0  0  0
   10.5957  -18.0301   28.2841 O   0  0  0  0  0  0  0  0  0  0  0  0
   13.2101  -17.4119   23.7824 O   0  0  0  0  0  0  0  0  0  0  0  0
   11.1873  -20.1857   27.9113 O   0  0  0  0  0  0  0  0  0  0  0  0
  2  1  1  6
  2  3  1  0
  4  2  1  0
  4  5  1  0
  5  7  1  0
  5  6  1  1
  7  8  2  0
  9  7  1  0
  9 10  1  0
 10 11  1  1
 12 11  1  0
 13 14  2  0
 13 10  1  0
 15 13  1  0
 16 15  1  0
 16 17  1  1
 17 18  1  0
 18 19  2  0
 18 22  1  0
 20 16  1  0
 21 20  1  0
 23 20  2  0
M  END
$$$$
