LCD.pdb
     RDKit          3D

 23 22  0  0  1  0  0  0  0  0999 V2000
    9.2142  -13.8595   19.8915 C   0  0  0  0  0  0  0  0  0  0  0  0
    7.6975  -13.7008   19.9772 C   0  0  2  0  0  0  0  0  0  0  0  0
    7.3180  -12.2785   19.6299 C   0  0  0  0  0  0  0  0  0  0  0  0
    7.1821  -14.1613   21.3116 C   0  0  0  0  0  0  0  0  0  0  0  0
    8.0339  -15.2390   21.8677 C   0  0  2  0  0  0  0  0  0  0  0  0
    7.2792  -16.4251   22.1101 N   0  0  0  0  0  0  0  0  0  0  0  0
    8.7691  -14.8067   23.1019 C   0  0  0  0  0  0  0  0  0  0  0  0
    9.5773  -13.8481   23.0173 O   0  0  0  0  0  0  0  0  0  0  0  0
    8.5786  -15.4442   24.3470 N   0  0  0  0  0  0  0  0  0  0  0  0
    9.3371  -15.0280   25.5478 C   0  0  1  0  0  0  0  0  0  0  0  0
    8.3904  -14.2344   26.4508 C   0  0  0  0  0  0  0  0  0  0  0  0
    9.1856  -13.7909   27.9853 S   0  0  0  0  0  0  0  0  0  0  0  0
    9.7341  -16.2884   26.2248 C   0  0  0  0  0  0  0  0  0  0  0  0
    8.8539  -17.1676   26.5492 O   0  0  0  0  0  0  0  0  0  0  0  0
   11.0831  -16.6033   26.5513 N   0  0  0  0  0  0  0  0  0  0  0  0
   11.3874  -17.8527   27.2573 C   0  0  1  0  0  0  0  0  0  0  0  0
   12.7928  -18.2612   26.9245 C   0  0  0  0  0  0  0  0  0  0  0  0
   12.9182  -18.6406   25.5047 C   0  0  0  0  0  0  0  0  0  0  0  0
   11.9000  -18.5976   24.7749 O   0  0  0  0  0  0  0  0  0  0  0  0
   11.1059  -17.7319   28.6957 C   0  0  0  0  0  0  0  0  0  0  0  0
   11.0514  -18.8590   29.4906 O   0  0  0  0  0  0  0  0  0  0  0  0
   14.1149  -19.0453   24.9335 O   0  0  0  0  0  0  0  0  0  0  0  0
   10.9141  -16.6144   29.2102 O   0  0  0  0  0  0  0  0  0  0  0  0
  2  1  1  1
  2  3  1  0
  4  2  1  0
  4  5  1  0
  5  7  1  0
  5  6  1  1
  7  8  2  0
  9  7  1  0
  9 10  1  0
 10 11  1  1
 12 11  1  0
 13 14  2  0
 13 10  1  0
 15 13  1  0
 16 15  1  0
 16 17  1  1
 17 18  1  0
 18 19  2  0
 18 22  1  0
 20 16  1  0
 21 20  1  0
 23 20  2  0
M  END
$$$$
