LCD.pdb
     RDKit          3D

 23 22  0  0  1  0  0  0  0  0999 V2000
    6.8485  -16.4989   17.3980 C   0  0  0  0  0  0  0  0  0  0  0  0
    8.1997  -15.9288   16.9713 C   0  0  2  0  0  0  0  0  0  0  0  0
    8.9734  -16.9805   16.2080 C   0  0  0  0  0  0  0  0  0  0  0  0
    8.9409  -15.3608   18.1488 C   0  0  0  0  0  0  0  0  0  0  0  0
    8.1267  -14.3380   18.8468 C   0  0  2  0  0  0  0  0  0  0  0  0
    8.0733  -13.1210   18.1044 N   0  0  0  0  0  0  0  0  0  0  0  0
    8.5976  -14.0929   20.2499 C   0  0  0  0  0  0  0  0  0  0  0  0
    9.6818  -13.4818   20.4237 O   0  0  0  0  0  0  0  0  0  0  0  0
    7.8602  -14.5282   21.3723 N   0  0  0  0  0  0  0  0  0  0  0  0
    8.3656  -14.3281   22.7489 C   0  0  1  0  0  0  0  0  0  0  0  0
    7.1582  -14.1628   23.6742 C   0  0  0  0  0  0  0  0  0  0  0  0
    7.6660  -14.0509   25.3811 S   0  0  0  0  0  0  0  0  0  0  0  0
    9.0911  -15.5773   23.0923 C   0  0  0  0  0  0  0  0  0  0  0  0
    8.5872  -16.7282   22.8194 O   0  0  0  0  0  0  0  0  0  0  0  0
   10.3637  -15.5864   23.7296 N   0  0  0  0  0  0  0  0  0  0  0  0
   10.9905  -16.8648   24.0828 C   0  0  1  0  0  0  0  0  0  0  0  0
   12.4810  -16.7048   24.0079 C   0  0  0  0  0  0  0  0  0  0  0  0
   12.9199  -16.4158   22.6297 C   0  0  0  0  0  0  0  0  0  0  0  0
   12.4001  -17.0524   21.6834 O   0  0  0  0  0  0  0  0  0  0  0  0
   10.4892  -17.3637   25.3722 C   0  0  0  0  0  0  0  0  0  0  0  0
   10.8801  -18.6027   25.8380 O   0  0  0  0  0  0  0  0  0  0  0  0
   13.8857  -15.4683   22.3273 O   0  0  0  0  0  0  0  0  0  0  0  0
    9.7086  -16.6751   26.0556 O   0  0  0  0  0  0  0  0  0  0  0  0
  2  1  1  1
  2  3  1  0
  4  2  1  0
  4  5  1  0
  5  7  1  0
  5  6  1  6
  7  8  2  0
  9  7  1  0
  9 10  1  0
 10 11  1  1
 12 11  1  0
 13 14  2  0
 13 10  1  0
 15 13  1  0
 16 15  1  0
 16 17  1  1
 17 18  1  0
 18 19  2  0
 18 22  1  0
 20 16  1  0
 21 20  1  0
 23 20  2  0
M  END
$$$$
