LCD.pdb
     RDKit          3D

 23 22  0  0  1  0  0  0  0  0999 V2000
    7.2723  -11.9419   25.1011 C   0  0  0  0  0  0  0  0  0  0  0  0
    6.5625  -12.8502   26.1031 C   0  0  2  0  0  0  0  0  0  0  0  0
    6.4281  -12.1332   27.4280 C   0  0  0  0  0  0  0  0  0  0  0  0
    7.2460  -14.1852   26.1985 C   0  0  0  0  0  0  0  0  0  0  0  0
    6.5830  -15.1855   25.3290 C   0  0  2  0  0  0  0  0  0  0  0  0
    5.7335  -16.0482   26.0835 N   0  0  0  0  0  0  0  0  0  0  0  0
    7.5650  -15.9743   24.5141 C   0  0  0  0  0  0  0  0  0  0  0  0
    8.0494  -17.0248   25.0051 O   0  0  0  0  0  0  0  0  0  0  0  0
    7.9569  -15.5702   23.2195 N   0  0  0  0  0  0  0  0  0  0  0  0
    8.9333  -16.3553   22.4317 C   0  0  1  0  0  0  0  0  0  0  0  0
    8.9504  -15.7934   21.0085 C   0  0  0  0  0  0  0  0  0  0  0  0
   10.0150  -16.7566   19.9490 S   0  0  0  0  0  0  0  0  0  0  0  0
   10.2489  -16.1187   23.0782 C   0  0  0  0  0  0  0  0  0  0  0  0
   10.5524  -14.9621   23.5506 O   0  0  0  0  0  0  0  0  0  0  0  0
   11.2391  -17.1313   23.2180 N   0  0  0  0  0  0  0  0  0  0  0  0
   12.5529  -16.7913   23.7753 C   0  0  1  0  0  0  0  0  0  0  0  0
   13.0917  -17.9909   24.4988 C   0  0  0  0  0  0  0  0  0  0  0  0
   12.4025  -18.1937   25.7869 C   0  0  0  0  0  0  0  0  0  0  0  0
   12.1423  -17.1946   26.4976 O   0  0  0  0  0  0  0  0  0  0  0  0
   13.4436  -16.2452   22.7404 C   0  0  0  0  0  0  0  0  0  0  0  0
   14.6525  -15.6791   23.0914 O   0  0  0  0  0  0  0  0  0  0  0  0
   12.0255  -19.4436   26.2537 O   0  0  0  0  0  0  0  0  0  0  0  0
   13.1173  -16.2878   21.5395 O   0  0  0  0  0  0  0  0  0  0  0  0
  2  1  1  6
  2  3  1  0
  4  2  1  0
  4  5  1  0
  5  7  1  0
  5  6  1  1
  7  8  2  0
  9  7  1  0
  9 10  1  0
 10 11  1  6
 12 11  1  0
 13 14  2  0
 13 10  1  0
 15 13  1  0
 16 15  1  0
 16 17  1  6
 17 18  1  0
 18 19  2  0
 18 22  1  0
 20 16  1  0
 21 20  1  0
 23 20  2  0
M  END
$$$$
