LCD.pdb
     RDKit          3D

 23 22  0  0  1  0  0  0  0  0999 V2000
    7.8294  -12.8181   20.0380 C   0  0  0  0  0  0  0  0  0  0  0  0
    7.5884  -14.3155   20.2182 C   0  0  2  0  0  0  0  0  0  0  0  0
    6.1488  -14.6390   19.8862 C   0  0  0  0  0  0  0  0  0  0  0  0
    8.0161  -14.7693   21.5855 C   0  0  0  0  0  0  0  0  0  0  0  0
    9.4461  -14.4626   21.8247 C   0  0  2  0  0  0  0  0  0  0  0  0
   10.2868  -15.1499   20.8995 N   0  0  0  0  0  0  0  0  0  0  0  0
    9.8612  -14.7408   23.2392 C   0  0  0  0  0  0  0  0  0  0  0  0
   10.7234  -15.6303   23.4505 O   0  0  0  0  0  0  0  0  0  0  0  0
    9.3122  -14.0349   24.3316 N   0  0  0  0  0  0  0  0  0  0  0  0
    9.7738  -14.2810   25.7161 C   0  0  1  0  0  0  0  0  0  0  0  0
    8.9099  -13.4385   26.6570 C   0  0  0  0  0  0  0  0  0  0  0  0
    9.2865  -13.7912   28.3651 S   0  0  0  0  0  0  0  0  0  0  0  0
    9.5266  -15.7233   25.9678 C   0  0  0  0  0  0  0  0  0  0  0  0
    8.4947  -16.3108   25.4749 O   0  0  0  0  0  0  0  0  0  0  0  0
   10.3945  -16.5351   26.7510 N   0  0  0  0  0  0  0  0  0  0  0  0
   10.1351  -17.9743   26.8674 C   0  0  1  0  0  0  0  0  0  0  0  0
   10.4553  -18.6268   25.5542 C   0  0  0  0  0  0  0  0  0  0  0  0
   10.6288  -20.0834   25.7081 C   0  0  0  0  0  0  0  0  0  0  0  0
   10.5050  -20.5902   26.8479 O   0  0  0  0  0  0  0  0  0  0  0  0
   10.8351  -18.5479   28.0265 C   0  0  0  0  0  0  0  0  0  0  0  0
   10.2595  -19.5735   28.7489 O   0  0  0  0  0  0  0  0  0  0  0  0
   10.9242  -20.9256   24.6472 O   0  0  0  0  0  0  0  0  0  0  0  0
   11.9518  -18.1154   28.3676 O   0  0  0  0  0  0  0  0  0  0  0  0
  2  1  1  1
  2  3  1  0
  4  2  1  0
  4  5  1  0
  5  7  1  0
  5  6  1  6
  7  8  2  0
  9  7  1  0
  9 10  1  0
 10 11  1  1
 12 11  1  0
 13 14  2  0
 13 10  1  0
 15 13  1  0
 16 15  1  0
 16 17  1  6
 17 18  1  0
 18 19  2  0
 18 22  1  0
 20 16  1  0
 21 20  1  0
 23 20  2  0
M  END
$$$$
