LCD.pdb
     RDKit          3D

 23 22  0  0  1  0  0  0  0  0999 V2000
    5.5312  -11.5897   26.6053 C   0  0  0  0  0  0  0  0  0  0  0  0
    6.6790  -12.5406   26.9390 C   0  0  2  0  0  0  0  0  0  0  0  0
    7.9949  -11.8041   26.8236 C   0  0  0  0  0  0  0  0  0  0  0  0
    6.6036  -13.7893   26.1063 C   0  0  0  0  0  0  0  0  0  0  0  0
    7.2921  -13.6047   24.8071 C   0  0  2  0  0  0  0  0  0  0  0  0
    6.3946  -13.1269   23.8065 N   0  0  0  0  0  0  0  0  0  0  0  0
    7.9946  -14.8493   24.3508 C   0  0  0  0  0  0  0  0  0  0  0  0
    8.1865  -15.7721   25.1820 O   0  0  0  0  0  0  0  0  0  0  0  0
    8.4430  -15.0098   23.0219 N   0  0  0  0  0  0  0  0  0  0  0  0
    9.0568  -16.2767   22.5653 C   0  0  1  0  0  0  0  0  0  0  0  0
    8.9716  -16.3175   21.0381 C   0  0  0  0  0  0  0  0  0  0  0  0
    7.3101  -16.6761   20.4955 S   0  0  0  0  0  0  0  0  0  0  0  0
   10.4793  -16.2040   22.9848 C   0  0  0  0  0  0  0  0  0  0  0  0
   11.1264  -15.0944   22.9302 O   0  0  0  0  0  0  0  0  0  0  0  0
   11.2058  -17.3291   23.4661 N   0  0  0  0  0  0  0  0  0  0  0  0
   12.6009  -17.1665   23.8897 C   0  0  1  0  0  0  0  0  0  0  0  0
   13.0026  -18.3714   24.6894 C   0  0  0  0  0  0  0  0  0  0  0  0
   12.2605  -18.4412   25.9622 C   0  0  0  0  0  0  0  0  0  0  0  0
   12.0571  -17.3831   26.6025 O   0  0  0  0  0  0  0  0  0  0  0  0
   13.4728  -16.8702   22.7431 C   0  0  0  0  0  0  0  0  0  0  0  0
   13.0647  -17.1785   21.4611 O   0  0  0  0  0  0  0  0  0  0  0  0
   11.7734  -19.6275   26.4889 O   0  0  0  0  0  0  0  0  0  0  0  0
   14.5857  -16.3393   22.9165 O   0  0  0  0  0  0  0  0  0  0  0  0
  2  1  1  6
  2  3  1  0
  4  2  1  0
  4  5  1  0
  5  7  1  0
  5  6  1  6
  7  8  2  0
  9  7  1  0
  9 10  1  0
 10 11  1  6
 12 11  1  0
 13 14  2  0
 13 10  1  0
 15 13  1  0
 16 15  1  0
 16 17  1  6
 17 18  1  0
 18 19  2  0
 18 22  1  0
 20 16  1  0
 21 20  1  0
 23 20  2  0
M  END
$$$$
