LCD.pdb
     RDKit          3D

 23 22  0  0  1  0  0  0  0  0999 V2000
    5.8367  -12.5960   27.0001 C   0  0  0  0  0  0  0  0  0  0  0  0
    7.0081  -12.5937   26.0200 C   0  0  2  0  0  0  0  0  0  0  0  0
    7.4199  -11.1679   25.7283 C   0  0  0  0  0  0  0  0  0  0  0  0
    6.6854  -13.3987   24.7927 C   0  0  0  0  0  0  0  0  0  0  0  0
    7.1114  -14.8088   24.9543 C   0  0  2  0  0  0  0  0  0  0  0  0
    6.4384  -15.4332   26.0463 N   0  0  0  0  0  0  0  0  0  0  0  0
    8.5993  -14.9441   25.0902 C   0  0  0  0  0  0  0  0  0  0  0  0
    9.3303  -14.5239   24.1583 O   0  0  0  0  0  0  0  0  0  0  0  0
    9.1957  -15.5272   26.2291 N   0  0  0  0  0  0  0  0  0  0  0  0
   10.6662  -15.6388   26.3549 C   0  0  1  0  0  0  0  0  0  0  0  0
   11.1139  -14.7093   27.4848 C   0  0  0  0  0  0  0  0  0  0  0  0
   10.1328  -14.9626   28.9535 S   0  0  0  0  0  0  0  0  0  0  0  0
   10.9273  -17.0501   26.7356 C   0  0  0  0  0  0  0  0  0  0  0  0
   10.0791  -17.7099   27.4415 O   0  0  0  0  0  0  0  0  0  0  0  0
   12.1043  -17.7528   26.3532 N   0  0  0  0  0  0  0  0  0  0  0  0
   12.2580  -19.1656   26.7172 C   0  0  1  0  0  0  0  0  0  0  0  0
   13.1590  -19.8240   25.7135 C   0  0  0  0  0  0  0  0  0  0  0  0
   13.3395  -21.2566   26.0143 C   0  0  0  0  0  0  0  0  0  0  0  0
   14.0059  -21.9619   25.2209 O   0  0  0  0  0  0  0  0  0  0  0  0
   12.6864  -19.3098   28.1166 C   0  0  0  0  0  0  0  0  0  0  0  0
   12.4557  -20.4886   28.7966 O   0  0  0  0  0  0  0  0  0  0  0  0
   12.8049  -21.8658   27.1391 O   0  0  0  0  0  0  0  0  0  0  0  0
   13.2604  -18.3722   28.7013 O   0  0  0  0  0  0  0  0  0  0  0  0
  2  1  1  1
  2  3  1  0
  4  2  1  0
  4  5  1  0
  5  7  1  0
  5  6  1  1
  7  8  2  0
  9  7  1  0
  9 10  1  0
 10 11  1  1
 12 11  1  0
 13 14  2  0
 13 10  1  0
 15 13  1  0
 16 15  1  0
 16 17  1  6
 17 18  1  0
 18 19  2  0
 18 22  1  0
 20 16  1  0
 21 20  1  0
 23 20  2  0
M  END
$$$$
