LDW.pdb
     RDKit          3D

 31 32  0  0  1  0  0  0  0  0999 V2000
   31.0677  -22.8285  -20.6717 C   0  0  0  0  0  0  0  0  0  0  0  0
   30.1742  -23.4635  -19.6579 C   0  0  1  0  0  0  0  0  0  0  0  0
   30.4289  -24.9635  -19.6983 C   0  0  0  0  0  0  0  0  0  0  0  0
   30.3965  -23.0080  -18.2553 C   0  0  0  0  0  0  0  0  0  0  0  0
   29.4889  -23.6328  -17.2432 C   0  0  2  0  0  0  0  0  0  0  0  0
   28.4433  -24.4295  -17.8764 N   0  0  0  0  0  0  0  0  0  0  0  0
   28.7872  -22.4946  -16.5477 C   0  0  0  0  0  0  0  0  0  0  0  0
   29.4554  -21.6714  -15.8709 O   0  0  0  0  0  0  0  0  0  0  0  0
   27.3844  -22.3115  -16.6271 N   0  0  0  0  0  0  0  0  0  0  0  0
   26.7543  -21.2143  -15.8847 C   0  0  1  0  0  0  0  0  0  0  0  0
   25.6702  -20.5813  -16.7134 C   0  0  0  0  0  0  0  0  0  0  0  0
   24.9644  -19.4758  -16.0433 C   0  0  0  0  0  0  0  0  0  0  0  0
   25.4703  -18.8555  -15.0747 O   0  0  0  0  0  0  0  0  0  0  0  0
   26.3259  -21.6925  -14.5685 C   0  0  0  0  0  0  0  0  0  0  0  0
   25.8566  -22.8521  -14.4570 O   0  0  0  0  0  0  0  0  0  0  0  0
   23.6873  -19.0481  -16.4447 O   0  0  0  0  0  0  0  0  0  0  0  0
   26.4400  -20.8555  -13.4351 N   0  0  0  0  0  0  0  0  0  0  0  0
   25.9297  -21.3136  -12.1579 C   0  0  1  0  0  0  0  0  0  0  0  0
   27.0959  -21.3433  -11.2161 C   0  0  0  0  0  0  0  0  0  0  0  0
   26.8108  -20.8644   -9.8534 C   0  0  0  0  0  0  0  0  0  0  0  0
   25.5212  -20.5990   -9.3459 C   0  0  0  0  0  0  0  0  0  0  0  0
   25.6353  -20.2154   -8.0708 N   0  0  0  0  0  0  0  0  0  0  0  0
   26.9138  -20.2060   -7.6926 C   0  0  0  0  0  0  0  0  0  0  0  0
   27.5493  -19.8904   -6.5204 C   0  0  0  0  0  0  0  0  0  0  0  0
   28.9390  -19.9617   -6.4024 C   0  0  0  0  0  0  0  0  0  0  0  0
   29.6927  -20.3556   -7.4813 C   0  0  0  0  0  0  0  0  0  0  0  0
   29.0116  -20.6701   -8.6613 C   0  0  0  0  0  0  0  0  0  0  0  0
   27.6537  -20.6090   -8.7991 C   0  0  0  0  0  0  0  0  0  0  0  0
   24.7424  -20.6010  -11.7130 C   0  0  0  0  0  0  0  0  0  0  0  0
   23.7105  -21.2262  -11.0393 O   0  0  0  0  0  0  0  0  0  0  0  0
   24.5759  -19.3502  -11.9215 O   0  0  0  0  0  0  0  0  0  0  0  0
  2  1  1  6
  3  2  1  0
  4  2  1  0
  5  4  1  0
  5  6  1  6
  7  5  1  0
  7  8  2  0
  9  7  1  0
 10  9  1  0
 10 11  1  6
 12 13  2  0
 12 11  1  0
 14 17  1  0
 14 10  1  0
 15 14  2  0
 16 12  1  0
 18 17  1  0
 18 19  1  1
 20 19  1  0
 21 20  2  0
 22 23  1  0
 22 21  1  0
 23 28  2  0
 24 25  2  0
 24 23  1  0
 25 26  1  0
 26 27  2  0
 28 27  1  0
 28 20  1  0
 29 18  1  0
 30 29  1  0
 31 29  2  0
M  END
$$$$
