LDW.pdb
     RDKit          3D

 31 32  0  0  1  0  0  0  0  0999 V2000
   28.5828  -15.3717  -18.2250 C   0  0  0  0  0  0  0  0  0  0  0  0
   28.4895  -16.7778  -17.7315 C   0  0  1  0  0  0  0  0  0  0  0  0
   29.8478  -17.4299  -17.9471 C   0  0  0  0  0  0  0  0  0  0  0  0
   28.1515  -16.9121  -16.2852 C   0  0  0  0  0  0  0  0  0  0  0  0
   28.1616  -18.3159  -15.7680 C   0  0  2  0  0  0  0  0  0  0  0  0
   27.8458  -19.2791  -16.8176 N   0  0  0  0  0  0  0  0  0  0  0  0
   27.0394  -18.4033  -14.7658 C   0  0  0  0  0  0  0  0  0  0  0  0
   26.4056  -17.3642  -14.4481 O   0  0  0  0  0  0  0  0  0  0  0  0
   26.6634  -19.6270  -14.1582 N   0  0  0  0  0  0  0  0  0  0  0  0
   25.5187  -19.6586  -13.2415 C   0  0  1  0  0  0  0  0  0  0  0  0
   24.3067  -20.2090  -13.9422 C   0  0  0  0  0  0  0  0  0  0  0  0
   23.1227  -20.3544  -13.0783 C   0  0  0  0  0  0  0  0  0  0  0  0
   23.0511  -21.2449  -12.1947 O   0  0  0  0  0  0  0  0  0  0  0  0
   25.8922  -20.3595  -12.0111 C   0  0  0  0  0  0  0  0  0  0  0  0
   26.4268  -21.4934  -12.0861 O   0  0  0  0  0  0  0  0  0  0  0  0
   22.0053  -19.5092  -13.1881 O   0  0  0  0  0  0  0  0  0  0  0  0
   25.6526  -19.7640  -10.7517 N   0  0  0  0  0  0  0  0  0  0  0  0
   25.9474  -20.5100   -9.5442 C   0  0  1  0  0  0  0  0  0  0  0  0
   26.4987  -19.5261   -8.5563 C   0  0  0  0  0  0  0  0  0  0  0  0
   26.7842  -20.0752   -7.2205 C   0  0  0  0  0  0  0  0  0  0  0  0
   26.1251  -21.1833   -6.6470 C   0  0  0  0  0  0  0  0  0  0  0  0
   26.6600  -21.4230   -5.4461 N   0  0  0  0  0  0  0  0  0  0  0  0
   27.6315  -20.5498   -5.1784 C   0  0  0  0  0  0  0  0  0  0  0  0
   28.4653  -20.3642   -4.1071 C   0  0  0  0  0  0  0  0  0  0  0  0
   29.4101  -19.3359   -4.0881 C   0  0  0  0  0  0  0  0  0  0  0  0
   29.5114  -18.4870   -5.1634 C   0  0  0  0  0  0  0  0  0  0  0  0
   28.6451  -18.7054   -6.2392 C   0  0  0  0  0  0  0  0  0  0  0  0
   27.7148  -19.7051   -6.2801 C   0  0  0  0  0  0  0  0  0  0  0  0
   24.8493  -21.3503   -9.0933 C   0  0  0  0  0  0  0  0  0  0  0  0
   23.5417  -20.9049   -9.0539 O   0  0  0  0  0  0  0  0  0  0  0  0
   25.0250  -22.5545   -8.6998 O   0  0  0  0  0  0  0  0  0  0  0  0
  2  1  1  1
  3  2  1  0
  4  2  1  0
  5  4  1  0
  5  6  1  6
  7  5  1  0
  7  8  2  0
  9  7  1  0
 10  9  1  0
 10 11  1  6
 12 13  2  0
 12 11  1  0
 14 17  1  0
 14 10  1  0
 15 14  2  0
 16 12  1  0
 18 17  1  0
 18 19  1  1
 20 19  1  0
 21 20  2  0
 22 23  1  0
 22 21  1  0
 23 28  2  0
 24 25  2  0
 24 23  1  0
 25 26  1  0
 26 27  2  0
 28 27  1  0
 28 20  1  0
 29 18  1  0
 30 29  1  0
 31 29  2  0
M  END
$$$$
