LDW.pdb
     RDKit          3D

 31 32  0  0  1  0  0  0  0  0999 V2000
   28.4197  -16.7234  -19.1486 C   0  0  0  0  0  0  0  0  0  0  0  0
   28.5319  -18.0626  -18.4980 C   0  0  1  0  0  0  0  0  0  0  0  0
   29.6539  -17.9812  -17.4729 C   0  0  0  0  0  0  0  0  0  0  0  0
   27.3036  -18.5163  -17.7842 C   0  0  0  0  0  0  0  0  0  0  0  0
   27.4453  -19.8178  -17.0603 C   0  0  2  0  0  0  0  0  0  0  0  0
   28.2812  -20.7576  -17.8001 N   0  0  0  0  0  0  0  0  0  0  0  0
   26.0672  -20.4264  -17.0150 C   0  0  0  0  0  0  0  0  0  0  0  0
   25.1059  -19.7581  -16.5551 O   0  0  0  0  0  0  0  0  0  0  0  0
   25.8068  -21.7404  -17.4769 N   0  0  0  0  0  0  0  0  0  0  0  0
   24.4341  -22.2572  -17.4539 C   0  0  1  0  0  0  0  0  0  0  0  0
   24.1977  -23.1571  -18.6359 C   0  0  0  0  0  0  0  0  0  0  0  0
   24.0438  -22.4456  -19.9164 C   0  0  0  0  0  0  0  0  0  0  0  0
   24.6256  -22.8280  -20.9623 O   0  0  0  0  0  0  0  0  0  0  0  0
   24.1584  -22.8648  -16.1503 C   0  0  0  0  0  0  0  0  0  0  0  0
   24.7424  -23.9298  -15.8310 O   0  0  0  0  0  0  0  0  0  0  0  0
   23.2396  -21.3005  -20.0466 O   0  0  0  0  0  0  0  0  0  0  0  0
   23.2432  -22.2570  -15.2608 N   0  0  0  0  0  0  0  0  0  0  0  0
   23.0181  -22.8493  -13.9569 C   0  0  1  0  0  0  0  0  0  0  0  0
   24.3703  -23.0799  -13.3517 C   0  0  0  0  0  0  0  0  0  0  0  0
   24.8863  -21.9699  -12.5338 C   0  0  0  0  0  0  0  0  0  0  0  0
   24.3078  -21.5210  -11.3275 C   0  0  0  0  0  0  0  0  0  0  0  0
   25.0543  -20.5250  -10.8412 N   0  0  0  0  0  0  0  0  0  0  0  0
   26.0919  -20.2777  -11.6413 C   0  0  0  0  0  0  0  0  0  0  0  0
   27.1229  -19.3762  -11.5991 C   0  0  0  0  0  0  0  0  0  0  0  0
   28.0925  -19.3299  -12.6031 C   0  0  0  0  0  0  0  0  0  0  0  0
   28.0174  -20.2040  -13.6603 C   0  0  0  0  0  0  0  0  0  0  0  0
   26.9525  -21.1102  -13.6713 C   0  0  0  0  0  0  0  0  0  0  0  0
   25.9940  -21.1745  -12.6999 C   0  0  0  0  0  0  0  0  0  0  0  0
   22.0488  -22.1286  -13.1468 C   0  0  0  0  0  0  0  0  0  0  0  0
   21.7090  -20.8118  -13.3925 O   0  0  0  0  0  0  0  0  0  0  0  0
   21.4522  -22.6669  -12.1519 O   0  0  0  0  0  0  0  0  0  0  0  0
  2  1  1  1
  3  2  1  0
  4  2  1  0
  5  4  1  0
  5  6  1  6
  7  5  1  0
  7  8  2  0
  9  7  1  0
 10  9  1  0
 10 11  1  6
 12 13  2  0
 12 11  1  0
 14 17  1  0
 14 10  1  0
 15 14  2  0
 16 12  1  0
 18 17  1  0
 18 19  1  1
 20 19  1  0
 21 20  2  0
 22 23  1  0
 22 21  1  0
 23 28  2  0
 24 25  2  0
 24 23  1  0
 25 26  1  0
 26 27  2  0
 28 27  1  0
 28 20  1  0
 29 18  1  0
 30 29  1  0
 31 29  2  0
M  END
$$$$
