LDW.pdb
     RDKit          3D

 31 32  0  0  1  0  0  0  0  0999 V2000
   27.6925  -17.9075  -19.2201 C   0  0  0  0  0  0  0  0  0  0  0  0
   27.7381  -18.9779  -18.1802 C   0  0  1  0  0  0  0  0  0  0  0  0
   29.0939  -19.6615  -18.2856 C   0  0  0  0  0  0  0  0  0  0  0  0
   27.5869  -18.4944  -16.7776 C   0  0  0  0  0  0  0  0  0  0  0  0
   27.7975  -19.5405  -15.7289 C   0  0  2  0  0  0  0  0  0  0  0  0
   27.6308  -20.8858  -16.2690 N   0  0  0  0  0  0  0  0  0  0  0  0
   26.6940  -19.3529  -14.7197 C   0  0  0  0  0  0  0  0  0  0  0  0
   26.4142  -18.1969  -14.3103 O   0  0  0  0  0  0  0  0  0  0  0  0
   25.9473  -20.4423  -14.2063 N   0  0  0  0  0  0  0  0  0  0  0  0
   24.8733  -20.1920  -13.2390 C   0  0  1  0  0  0  0  0  0  0  0  0
   23.5506  -20.6298  -13.8061 C   0  0  0  0  0  0  0  0  0  0  0  0
   22.4329  -20.5710  -12.8487 C   0  0  0  0  0  0  0  0  0  0  0  0
   22.0227  -19.4827  -12.3734 O   0  0  0  0  0  0  0  0  0  0  0  0
   25.2218  -20.7930  -11.9498 C   0  0  0  0  0  0  0  0  0  0  0  0
   25.5058  -22.0151  -11.8963 O   0  0  0  0  0  0  0  0  0  0  0  0
   21.7588  -21.7236  -12.4105 O   0  0  0  0  0  0  0  0  0  0  0  0
   25.2378  -20.0034  -10.7773 N   0  0  0  0  0  0  0  0  0  0  0  0
   25.4917  -20.6351   -9.4975 C   0  0  1  0  0  0  0  0  0  0  0  0
   26.6493  -19.9073   -8.8825 C   0  0  0  0  0  0  0  0  0  0  0  0
   27.0142  -20.3470   -7.5257 C   0  0  0  0  0  0  0  0  0  0  0  0
   26.6805  -21.5992   -6.9674 C   0  0  0  0  0  0  0  0  0  0  0  0
   27.1996  -21.6702   -5.7381 N   0  0  0  0  0  0  0  0  0  0  0  0
   27.8570  -20.5498   -5.4371 C   0  0  0  0  0  0  0  0  0  0  0  0
   28.5433  -20.1264   -4.3294 C   0  0  0  0  0  0  0  0  0  0  0  0
   29.1426  -18.8660   -4.2806 C   0  0  0  0  0  0  0  0  0  0  0  0
   29.0457  -18.0258   -5.3632 C   0  0  0  0  0  0  0  0  0  0  0  0
   28.3382  -18.4900   -6.4765 C   0  0  0  0  0  0  0  0  0  0  0  0
   27.7455  -19.7189   -6.5468 C   0  0  0  0  0  0  0  0  0  0  0  0
   24.3016  -20.7918   -8.6763 C   0  0  0  0  0  0  0  0  0  0  0  0
   24.1938  -21.7685   -7.7047 O   0  0  0  0  0  0  0  0  0  0  0  0
   23.2766  -20.0378   -8.8048 O   0  0  0  0  0  0  0  0  0  0  0  0
  2  1  1  6
  3  2  1  0
  4  2  1  0
  5  4  1  0
  5  6  1  6
  7  5  1  0
  7  8  2  0
  9  7  1  0
 10  9  1  0
 10 11  1  6
 12 13  2  0
 12 11  1  0
 14 17  1  0
 14 10  1  0
 15 14  2  0
 16 12  1  0
 18 17  1  0
 18 19  1  1
 20 19  1  0
 21 20  2  0
 22 23  1  0
 22 21  1  0
 23 28  2  0
 24 25  2  0
 24 23  1  0
 25 26  1  0
 26 27  2  0
 28 27  1  0
 28 20  1  0
 29 18  1  0
 30 29  1  0
 31 29  2  0
M  END
$$$$
