LDW.pdb
     RDKit          3D

 31 32  0  0  1  0  0  0  0  0999 V2000
   31.2463  -25.3776  -16.2371 C   0  0  0  0  0  0  0  0  0  0  0  0
   30.0421  -24.7729  -16.8801 C   0  0  1  0  0  0  0  0  0  0  0  0
   28.8992  -25.7681  -16.7391 C   0  0  0  0  0  0  0  0  0  0  0  0
   29.5922  -23.4845  -16.2788 C   0  0  0  0  0  0  0  0  0  0  0  0
   28.3804  -22.8845  -16.9189 C   0  0  2  0  0  0  0  0  0  0  0  0
   28.7148  -22.1840  -18.1545 N   0  0  0  0  0  0  0  0  0  0  0  0
   27.8761  -21.8338  -15.9633 C   0  0  0  0  0  0  0  0  0  0  0  0
   28.5843  -20.8238  -15.7177 O   0  0  0  0  0  0  0  0  0  0  0  0
   26.6174  -21.9392  -15.3211 N   0  0  0  0  0  0  0  0  0  0  0  0
   26.1063  -20.8080  -14.5396 C   0  0  1  0  0  0  0  0  0  0  0  0
   24.9411  -20.1718  -15.2469 C   0  0  0  0  0  0  0  0  0  0  0  0
   24.3092  -19.0701  -14.5011 C   0  0  0  0  0  0  0  0  0  0  0  0
   23.1922  -18.5993  -14.8320 O   0  0  0  0  0  0  0  0  0  0  0  0
   25.8344  -21.2404  -13.1671 C   0  0  0  0  0  0  0  0  0  0  0  0
   25.0998  -22.2398  -12.9701 O   0  0  0  0  0  0  0  0  0  0  0  0
   24.9137  -18.4807  -13.3776 O   0  0  0  0  0  0  0  0  0  0  0  0
   26.3942  -20.5384  -12.0753 N   0  0  0  0  0  0  0  0  0  0  0  0
   25.9256  -20.8200  -10.7327 C   0  0  1  0  0  0  0  0  0  0  0  0
   27.0126  -20.3804   -9.7983 C   0  0  0  0  0  0  0  0  0  0  0  0
   26.6621  -20.4208   -8.3690 C   0  0  0  0  0  0  0  0  0  0  0  0
   25.4205  -20.8524   -7.8557 C   0  0  0  0  0  0  0  0  0  0  0  0
   25.4650  -20.7881   -6.5216 N   0  0  0  0  0  0  0  0  0  0  0  0
   26.6520  -20.3423   -6.1091 C   0  0  0  0  0  0  0  0  0  0  0  0
   27.1902  -20.0947   -4.8736 C   0  0  0  0  0  0  0  0  0  0  0  0
   28.4912  -19.6081   -4.7293 C   0  0  0  0  0  0  0  0  0  0  0  0
   29.2546  -19.3692   -5.8462 C   0  0  0  0  0  0  0  0  0  0  0  0
   28.6738  -19.6328   -7.0907 C   0  0  0  0  0  0  0  0  0  0  0  0
   27.4044  -20.1101   -7.2555 C   0  0  0  0  0  0  0  0  0  0  0  0
   24.5858  -20.3217  -10.4645 C   0  0  0  0  0  0  0  0  0  0  0  0
   23.6345  -21.0715   -9.7992 O   0  0  0  0  0  0  0  0  0  0  0  0
   24.2013  -19.1585  -10.8317 O   0  0  0  0  0  0  0  0  0  0  0  0
  2  1  1  1
  3  2  1  0
  4  2  1  0
  5  4  1  0
  5  6  1  6
  7  5  1  0
  7  8  2  0
  9  7  1  0
 10  9  1  0
 10 11  1  6
 12 13  2  0
 12 11  1  0
 14 17  1  0
 14 10  1  0
 15 14  2  0
 16 12  1  0
 18 17  1  0
 18 19  1  1
 20 19  1  0
 21 20  2  0
 22 23  1  0
 22 21  1  0
 23 28  2  0
 24 25  2  0
 24 23  1  0
 25 26  1  0
 26 27  2  0
 28 27  1  0
 28 20  1  0
 29 18  1  0
 30 29  1  0
 31 29  2  0
M  END
$$$$
