LDW.pdb
     RDKit          3D

 31 32  0  0  1  0  0  0  0  0999 V2000
   35.0211  -23.8055  -15.5695 C   0  0  0  0  0  0  0  0  0  0  0  0
   33.7057  -24.3494  -15.1189 C   0  0  1  0  0  0  0  0  0  0  0  0
   33.9596  -25.1923  -13.8772 C   0  0  0  0  0  0  0  0  0  0  0  0
   32.6912  -23.3167  -14.7607 C   0  0  0  0  0  0  0  0  0  0  0  0
   31.4031  -23.8623  -14.2301 C   0  0  2  0  0  0  0  0  0  0  0  0
   30.7512  -24.7400  -15.1964 N   0  0  0  0  0  0  0  0  0  0  0  0
   30.4867  -22.6792  -14.0515 C   0  0  0  0  0  0  0  0  0  0  0  0
   30.8732  -21.6875  -13.3811 O   0  0  0  0  0  0  0  0  0  0  0  0
   29.1882  -22.6380  -14.6172 N   0  0  0  0  0  0  0  0  0  0  0  0
   28.3120  -21.4955  -14.3365 C   0  0  1  0  0  0  0  0  0  0  0  0
   27.4762  -21.1723  -15.5447 C   0  0  0  0  0  0  0  0  0  0  0  0
   26.5532  -20.0401  -15.3562 C   0  0  0  0  0  0  0  0  0  0  0  0
   25.5981  -19.8241  -16.1435 O   0  0  0  0  0  0  0  0  0  0  0  0
   27.5529  -21.7468  -13.1096 C   0  0  0  0  0  0  0  0  0  0  0  0
   27.4099  -22.9268  -12.7044 O   0  0  0  0  0  0  0  0  0  0  0  0
   26.6829  -19.1360  -14.2881 O   0  0  0  0  0  0  0  0  0  0  0  0
   26.9871  -20.6701  -12.3894 N   0  0  0  0  0  0  0  0  0  0  0  0
   26.5043  -20.8919  -11.0406 C   0  0  1  0  0  0  0  0  0  0  0  0
   27.6062  -20.4691  -10.1159 C   0  0  0  0  0  0  0  0  0  0  0  0
   27.2190  -20.3371   -8.7017 C   0  0  0  0  0  0  0  0  0  0  0  0
   25.8896  -20.3087   -8.2295 C   0  0  0  0  0  0  0  0  0  0  0  0
   25.9123  -20.2140   -6.8967 N   0  0  0  0  0  0  0  0  0  0  0  0
   27.1668  -20.1767   -6.4467 C   0  0  0  0  0  0  0  0  0  0  0  0
   27.7189  -20.0784   -5.1965 C   0  0  0  0  0  0  0  0  0  0  0  0
   29.1028  -20.0507   -5.0107 C   0  0  0  0  0  0  0  0  0  0  0  0
   29.9358  -20.1225   -6.1008 C   0  0  0  0  0  0  0  0  0  0  0  0
   29.3385  -20.2220   -7.3613 C   0  0  0  0  0  0  0  0  0  0  0  0
   27.9882  -20.2523   -7.5666 C   0  0  0  0  0  0  0  0  0  0  0  0
   25.1854  -20.3315  -10.7921 C   0  0  0  0  0  0  0  0  0  0  0  0
   24.2415  -20.9727  -10.0126 O   0  0  0  0  0  0  0  0  0  0  0  0
   24.8135  -19.2109  -11.2836 O   0  0  0  0  0  0  0  0  0  0  0  0
  2  1  1  1
  3  2  1  0
  4  2  1  0
  5  4  1  0
  5  6  1  6
  7  5  1  0
  7  8  2  0
  9  7  1  0
 10  9  1  0
 10 11  1  6
 12 13  2  0
 12 11  1  0
 14 17  1  0
 14 10  1  0
 15 14  2  0
 16 12  1  0
 18 17  1  0
 18 19  1  1
 20 19  1  0
 21 20  2  0
 22 23  1  0
 22 21  1  0
 23 28  2  0
 24 25  2  0
 24 23  1  0
 25 26  1  0
 26 27  2  0
 28 27  1  0
 28 20  1  0
 29 18  1  0
 30 29  1  0
 31 29  2  0
M  END
$$$$
