LDW.pdb
     RDKit          3D

 31 32  0  0  1  0  0  0  0  0999 V2000
   21.0591  -19.5196  -18.0738 C   0  0  0  0  0  0  0  0  0  0  0  0
   21.9520  -20.2203  -17.1038 C   0  0  1  0  0  0  0  0  0  0  0  0
   22.5797  -21.4016  -17.8299 C   0  0  0  0  0  0  0  0  0  0  0  0
   23.0623  -19.3861  -16.5602 C   0  0  0  0  0  0  0  0  0  0  0  0
   24.0380  -20.1260  -15.7006 C   0  0  2  0  0  0  0  0  0  0  0  0
   23.6444  -21.5188  -15.5152 N   0  0  0  0  0  0  0  0  0  0  0  0
   23.9693  -19.4848  -14.3384 C   0  0  0  0  0  0  0  0  0  0  0  0
   24.2661  -18.2696  -14.2062 O   0  0  0  0  0  0  0  0  0  0  0  0
   23.5777  -20.2063  -13.1834 N   0  0  0  0  0  0  0  0  0  0  0  0
   23.5604  -19.5328  -11.8803 C   0  0  1  0  0  0  0  0  0  0  0  0
   22.1429  -19.2848  -11.4422 C   0  0  0  0  0  0  0  0  0  0  0  0
   21.1742  -20.2771  -11.9386 C   0  0  0  0  0  0  0  0  0  0  0  0
   20.7170  -20.2310  -13.1080 O   0  0  0  0  0  0  0  0  0  0  0  0
   24.3791  -20.2844  -10.9267 C   0  0  0  0  0  0  0  0  0  0  0  0
   25.5431  -20.6275  -11.2502 O   0  0  0  0  0  0  0  0  0  0  0  0
   20.7041  -21.3323  -11.1383 O   0  0  0  0  0  0  0  0  0  0  0  0
   23.8625  -20.6198   -9.6543 N   0  0  0  0  0  0  0  0  0  0  0  0
   24.7768  -20.9640   -8.5833 C   0  0  1  0  0  0  0  0  0  0  0  0
   25.6573  -19.7692   -8.3708 C   0  0  0  0  0  0  0  0  0  0  0  0
   27.0393  -20.0755   -7.9662 C   0  0  0  0  0  0  0  0  0  0  0  0
   27.9435  -20.8581   -8.7153 C   0  0  0  0  0  0  0  0  0  0  0  0
   29.1113  -20.8986   -8.0667 N   0  0  0  0  0  0  0  0  0  0  0  0
   29.0480  -20.1966   -6.9349 C   0  0  0  0  0  0  0  0  0  0  0  0
   29.9469  -19.9358   -5.9342 C   0  0  0  0  0  0  0  0  0  0  0  0
   29.6011  -19.1560   -4.8285 C   0  0  0  0  0  0  0  0  0  0  0  0
   28.3332  -18.6356   -4.7345 C   0  0  0  0  0  0  0  0  0  0  0  0
   27.4419  -18.9216   -5.7734 C   0  0  0  0  0  0  0  0  0  0  0  0
   27.7585  -19.6804   -6.8644 C   0  0  0  0  0  0  0  0  0  0  0  0
   24.1202  -21.5149   -7.4083 C   0  0  0  0  0  0  0  0  0  0  0  0
   24.6729  -22.5367   -6.6599 O   0  0  0  0  0  0  0  0  0  0  0  0
   22.9863  -21.0912   -6.9955 O   0  0  0  0  0  0  0  0  0  0  0  0
  2  1  1  6
  3  2  1  0
  4  2  1  0
  5  4  1  0
  5  6  1  1
  7  5  1  0
  7  8  2  0
  9  7  1  0
 10  9  1  0
 10 11  1  1
 12 13  2  0
 12 11  1  0
 14 17  1  0
 14 10  1  0
 15 14  2  0
 16 12  1  0
 18 17  1  0
 18 19  1  1
 20 19  1  0
 21 20  2  0
 22 23  1  0
 22 21  1  0
 23 28  2  0
 24 25  2  0
 24 23  1  0
 25 26  1  0
 26 27  2  0
 28 27  1  0
 28 20  1  0
 29 18  1  0
 30 29  1  0
 31 29  2  0
M  END
$$$$
