LDW.pdb
     RDKit          3D

 31 32  0  0  1  0  0  0  0  0999 V2000
   20.5975  -30.2289  -20.6131 C   0  0  0  0  0  0  0  0  0  0  0  0
   21.5544  -29.9759  -19.4953 C   0  0  1  0  0  0  0  0  0  0  0  0
   21.0973  -28.7139  -18.7776 C   0  0  0  0  0  0  0  0  0  0  0  0
   21.6333  -31.0659  -18.4805 C   0  0  0  0  0  0  0  0  0  0  0  0
   22.4657  -30.7440  -17.2798 C   0  0  2  0  0  0  0  0  0  0  0  0
   23.8748  -30.5908  -17.6265 N   0  0  0  0  0  0  0  0  0  0  0  0
   22.3836  -31.9471  -16.3758 C   0  0  0  0  0  0  0  0  0  0  0  0
   21.2867  -32.2497  -15.8397 O   0  0  0  0  0  0  0  0  0  0  0  0
   23.5088  -32.7637  -16.1020 N   0  0  0  0  0  0  0  0  0  0  0  0
   23.3526  -33.9513  -15.2551 C   0  0  1  0  0  0  0  0  0  0  0  0
   23.3666  -35.1966  -16.0986 C   0  0  0  0  0  0  0  0  0  0  0  0
   23.1646  -36.4430  -15.3402 C   0  0  0  0  0  0  0  0  0  0  0  0
   23.2962  -37.5731  -15.8733 O   0  0  0  0  0  0  0  0  0  0  0  0
   24.3457  -33.9229  -14.1792 C   0  0  0  0  0  0  0  0  0  0  0  0
   25.5678  -33.9236  -14.4685 O   0  0  0  0  0  0  0  0  0  0  0  0
   22.8143  -36.4448  -13.9792 O   0  0  0  0  0  0  0  0  0  0  0  0
   23.9310  -33.8951  -12.8280 N   0  0  0  0  0  0  0  0  0  0  0  0
   24.9289  -33.8298  -11.7786 C   0  0  1  0  0  0  0  0  0  0  0  0
   24.5975  -32.6276  -10.9462 C   0  0  0  0  0  0  0  0  0  0  0  0
   25.2228  -32.5986   -9.6137 C   0  0  0  0  0  0  0  0  0  0  0  0
   26.4923  -32.0512   -9.3310 C   0  0  0  0  0  0  0  0  0  0  0  0
   26.7241  -32.1663   -8.0200 N   0  0  0  0  0  0  0  0  0  0  0  0
   25.6956  -32.7540   -7.4079 C   0  0  0  0  0  0  0  0  0  0  0  0
   25.4450  -33.1021   -6.1066 C   0  0  0  0  0  0  0  0  0  0  0  0
   24.2555  -33.7336   -5.7369 C   0  0  0  0  0  0  0  0  0  0  0  0
   23.3109  -34.0160   -6.6936 C   0  0  0  0  0  0  0  0  0  0  0  0
   23.5996  -33.6470   -8.0111 C   0  0  0  0  0  0  0  0  0  0  0  0
   24.7551  -33.0275   -8.3953 C   0  0  0  0  0  0  0  0  0  0  0  0
   25.1182  -35.0871  -11.0726 C   0  0  0  0  0  0  0  0  0  0  0  0
   26.3121  -35.4238  -10.4636 O   0  0  0  0  0  0  0  0  0  0  0  0
   24.1922  -35.9638  -10.9746 O   0  0  0  0  0  0  0  0  0  0  0  0
  2  1  1  6
  3  2  1  0
  4  2  1  0
  5  4  1  0
  5  6  1  6
  7  5  1  0
  7  8  2  0
  9  7  1  0
 10  9  1  0
 10 11  1  6
 12 13  2  0
 12 11  1  0
 14 17  1  0
 14 10  1  0
 15 14  2  0
 16 12  1  0
 18 17  1  0
 18 19  1  1
 20 19  1  0
 21 20  2  0
 22 23  1  0
 22 21  1  0
 23 28  2  0
 24 25  2  0
 24 23  1  0
 25 26  1  0
 26 27  2  0
 28 27  1  0
 28 20  1  0
 29 18  1  0
 30 29  1  0
 31 29  2  0
M  END
$$$$
