LDW.pdb
     RDKit          3D

 31 32  0  0  1  0  0  0  0  0999 V2000
   29.3756  -17.4824  -18.4977 C   0  0  0  0  0  0  0  0  0  0  0  0
   29.2414  -18.2211  -17.2072 C   0  0  1  0  0  0  0  0  0  0  0  0
   29.5021  -17.2293  -16.0825 C   0  0  0  0  0  0  0  0  0  0  0  0
   27.8996  -18.8268  -16.9695 C   0  0  0  0  0  0  0  0  0  0  0  0
   27.7303  -19.4660  -15.6274 C   0  0  2  0  0  0  0  0  0  0  0  0
   28.8866  -20.2806  -15.2690 N   0  0  0  0  0  0  0  0  0  0  0  0
   26.5694  -20.4182  -15.7582 C   0  0  0  0  0  0  0  0  0  0  0  0
   25.4428  -19.9825  -16.1091 O   0  0  0  0  0  0  0  0  0  0  0  0
   26.6979  -21.8053  -15.4985 N   0  0  0  0  0  0  0  0  0  0  0  0
   25.5224  -22.6753  -15.6129 C   0  0  1  0  0  0  0  0  0  0  0  0
   25.9411  -24.0657  -16.0056 C   0  0  0  0  0  0  0  0  0  0  0  0
   24.8234  -25.0116  -16.1647 C   0  0  0  0  0  0  0  0  0  0  0  0
   24.8761  -26.1833  -15.7141 O   0  0  0  0  0  0  0  0  0  0  0  0
   24.7276  -22.5931  -14.3856 C   0  0  0  0  0  0  0  0  0  0  0  0
   23.5973  -23.1390  -14.3459 O   0  0  0  0  0  0  0  0  0  0  0  0
   23.6338  -24.6630  -16.8269 O   0  0  0  0  0  0  0  0  0  0  0  0
   25.2293  -21.9053  -13.2571 N   0  0  0  0  0  0  0  0  0  0  0  0
   24.4193  -21.8195  -12.0580 C   0  0  1  0  0  0  0  0  0  0  0  0
   25.2751  -22.3055  -10.9269 C   0  0  0  0  0  0  0  0  0  0  0  0
   26.0111  -21.2551  -10.2041 C   0  0  0  0  0  0  0  0  0  0  0  0
   25.4124  -20.2427   -9.4246 C   0  0  0  0  0  0  0  0  0  0  0  0
   26.3777  -19.4886   -8.8905 N   0  0  0  0  0  0  0  0  0  0  0  0
   27.5807  -19.9285   -9.2609 C   0  0  0  0  0  0  0  0  0  0  0  0
   28.8598  -19.5122   -8.9999 C   0  0  0  0  0  0  0  0  0  0  0  0
   29.9657  -20.1705   -9.5419 C   0  0  0  0  0  0  0  0  0  0  0  0
   29.7751  -21.2603  -10.3564 C   0  0  0  0  0  0  0  0  0  0  0  0
   28.4570  -21.6576  -10.6014 C   0  0  0  0  0  0  0  0  0  0  0  0
   27.3607  -21.0299  -10.0812 C   0  0  0  0  0  0  0  0  0  0  0  0
   23.7677  -20.5310  -11.8836 C   0  0  0  0  0  0  0  0  0  0  0  0
   22.6235  -20.3747  -11.1245 O   0  0  0  0  0  0  0  0  0  0  0  0
   24.2101  -19.4606  -12.4260 O   0  0  0  0  0  0  0  0  0  0  0  0
  2  1  1  6
  3  2  1  0
  4  2  1  0
  5  4  1  0
  5  6  1  6
  7  5  1  0
  7  8  2  0
  9  7  1  0
 10  9  1  0
 10 11  1  1
 12 13  2  0
 12 11  1  0
 14 17  1  0
 14 10  1  0
 15 14  2  0
 16 12  1  0
 18 17  1  0
 18 19  1  1
 20 19  1  0
 21 20  2  0
 22 23  1  0
 22 21  1  0
 23 28  2  0
 24 25  2  0
 24 23  1  0
 25 26  1  0
 26 27  2  0
 28 27  1  0
 28 20  1  0
 29 18  1  0
 30 29  1  0
 31 29  2  0
M  END
$$$$
