LDW.pdb
     RDKit          3D

 31 32  0  0  1  0  0  0  0  0999 V2000
   29.0418  -20.5080   -5.4799 C   0  0  0  0  0  0  0  0  0  0  0  0
   27.7628  -20.1148   -6.1422 C   0  0  1  0  0  0  0  0  0  0  0  0
   27.3919  -18.7283   -5.6355 C   0  0  0  0  0  0  0  0  0  0  0  0
   27.8240  -20.0472   -7.6308 C   0  0  0  0  0  0  0  0  0  0  0  0
   26.5342  -19.6803   -8.2942 C   0  0  2  0  0  0  0  0  0  0  0  0
   25.4797  -20.6421   -7.9906 N   0  0  0  0  0  0  0  0  0  0  0  0
   26.7805  -19.7807   -9.7776 C   0  0  0  0  0  0  0  0  0  0  0  0
   27.7329  -19.1427  -10.2956 O   0  0  0  0  0  0  0  0  0  0  0  0
   25.9708  -20.5770  -10.6251 N   0  0  0  0  0  0  0  0  0  0  0  0
   26.2375  -20.6016  -12.0674 C   0  0  1  0  0  0  0  0  0  0  0  0
   26.1985  -22.0156  -12.5790 C   0  0  0  0  0  0  0  0  0  0  0  0
   26.3420  -22.1343  -14.0401 C   0  0  0  0  0  0  0  0  0  0  0  0
   27.3307  -21.6568  -14.6509 O   0  0  0  0  0  0  0  0  0  0  0  0
   25.3354  -19.6724  -12.7509 C   0  0  0  0  0  0  0  0  0  0  0  0
   24.1030  -19.7241  -12.5147 O   0  0  0  0  0  0  0  0  0  0  0  0
   25.3862  -22.7867  -14.8374 O   0  0  0  0  0  0  0  0  0  0  0  0
   25.8484  -18.7268  -13.6679 N   0  0  0  0  0  0  0  0  0  0  0  0
   24.9318  -17.8705  -14.3946 C   0  0  1  0  0  0  0  0  0  0  0  0
   25.7477  -16.7404  -14.9471 C   0  0  0  0  0  0  0  0  0  0  0  0
   24.9895  -15.7404  -15.7168 C   0  0  0  0  0  0  0  0  0  0  0  0
   24.0113  -14.8793  -15.1757 C   0  0  0  0  0  0  0  0  0  0  0  0
   23.5564  -14.0852  -16.1495 N   0  0  0  0  0  0  0  0  0  0  0  0
   24.1640  -14.3581  -17.3046 C   0  0  0  0  0  0  0  0  0  0  0  0
   24.0560  -13.8481  -18.5718 C   0  0  0  0  0  0  0  0  0  0  0  0
   24.8292  -14.3417  -19.6247 C   0  0  0  0  0  0  0  0  0  0  0  0
   25.7198  -15.3618  -19.3930 C   0  0  0  0  0  0  0  0  0  0  0  0
   25.8041  -15.8582  -18.0885 C   0  0  0  0  0  0  0  0  0  0  0  0
   25.0591  -15.3900  -17.0434 C   0  0  0  0  0  0  0  0  0  0  0  0
   24.0804  -18.5868  -15.3312 C   0  0  0  0  0  0  0  0  0  0  0  0
   22.7442  -18.2793  -15.5040 O   0  0  0  0  0  0  0  0  0  0  0  0
   24.5136  -19.5507  -16.0515 O   0  0  0  0  0  0  0  0  0  0  0  0
  2  1  1  1
  3  2  1  0
  4  2  1  0
  5  4  1  0
  5  6  1  1
  7  5  1  0
  7  8  2  0
  9  7  1  0
 10  9  1  0
 10 11  1  6
 12 13  2  0
 12 11  1  0
 14 17  1  0
 14 10  1  0
 15 14  2  0
 16 12  1  0
 18 17  1  0
 18 19  1  6
 20 19  1  0
 21 20  2  0
 22 23  1  0
 22 21  1  0
 23 28  2  0
 24 25  2  0
 24 23  1  0
 25 26  1  0
 26 27  2  0
 28 27  1  0
 28 20  1  0
 29 18  1  0
 30 29  1  0
 31 29  2  0
M  END
$$$$
