LDW.pdb
     RDKit          3D

 31 32  0  0  1  0  0  0  0  0999 V2000
   28.0614  -16.7919  -17.6778 C   0  0  0  0  0  0  0  0  0  0  0  0
   27.9787  -18.1196  -16.9999 C   0  0  1  0  0  0  0  0  0  0  0  0
   28.3471  -19.1816  -18.0261 C   0  0  0  0  0  0  0  0  0  0  0  0
   28.8941  -18.2851  -15.8342 C   0  0  0  0  0  0  0  0  0  0  0  0
   28.7941  -19.6081  -15.1428 C   0  0  2  0  0  0  0  0  0  0  0  0
   28.4737  -20.6816  -16.0778 N   0  0  0  0  0  0  0  0  0  0  0  0
   27.6201  -19.5044  -14.2034 C   0  0  0  0  0  0  0  0  0  0  0  0
   27.5734  -18.5670  -13.3659 O   0  0  0  0  0  0  0  0  0  0  0  0
   26.5507  -20.4338  -14.2262 N   0  0  0  0  0  0  0  0  0  0  0  0
   25.4301  -20.2710  -13.2938 C   0  0  1  0  0  0  0  0  0  0  0  0
   24.1525  -20.7483  -13.9283 C   0  0  0  0  0  0  0  0  0  0  0  0
   22.9718  -20.6588  -13.0522 C   0  0  0  0  0  0  0  0  0  0  0  0
   22.7129  -19.6221  -12.3912 O   0  0  0  0  0  0  0  0  0  0  0  0
   25.7581  -20.9037  -12.0144 C   0  0  0  0  0  0  0  0  0  0  0  0
   26.2305  -22.0673  -12.0057 O   0  0  0  0  0  0  0  0  0  0  0  0
   22.0658  -21.7226  -12.9030 O   0  0  0  0  0  0  0  0  0  0  0  0
   25.5444  -20.2098  -10.8015 N   0  0  0  0  0  0  0  0  0  0  0  0
   25.7495  -20.8981   -9.5423 C   0  0  1  0  0  0  0  0  0  0  0  0
   26.9105  -20.2273   -8.8713 C   0  0  0  0  0  0  0  0  0  0  0  0
   26.9233  -20.3224   -7.4023 C   0  0  0  0  0  0  0  0  0  0  0  0
   25.9304  -20.9586   -6.6272 C   0  0  0  0  0  0  0  0  0  0  0  0
   26.2808  -20.8832   -5.3399 N   0  0  0  0  0  0  0  0  0  0  0  0
   27.4402  -20.2393   -5.2024 C   0  0  0  0  0  0  0  0  0  0  0  0
   28.2088  -19.8990   -4.1203 C   0  0  0  0  0  0  0  0  0  0  0  0
   29.4064  -19.1962   -4.2686 C   0  0  0  0  0  0  0  0  0  0  0  0
   29.8299  -18.8337   -5.5243 C   0  0  0  0  0  0  0  0  0  0  0  0
   29.0212  -19.1972   -6.6057 C   0  0  0  0  0  0  0  0  0  0  0  0
   27.8474  -19.8854   -6.4844 C   0  0  0  0  0  0  0  0  0  0  0  0
   24.5356  -21.0539   -8.7566 C   0  0  0  0  0  0  0  0  0  0  0  0
   24.4360  -21.9578   -7.7160 O   0  0  0  0  0  0  0  0  0  0  0  0
   23.4807  -20.3668   -8.9821 O   0  0  0  0  0  0  0  0  0  0  0  0
  2  1  1  6
  3  2  1  0
  4  2  1  0
  5  4  1  0
  5  6  1  6
  7  5  1  0
  7  8  2  0
  9  7  1  0
 10  9  1  0
 10 11  1  6
 12 13  2  0
 12 11  1  0
 14 17  1  0
 14 10  1  0
 15 14  2  0
 16 12  1  0
 18 17  1  0
 18 19  1  1
 20 19  1  0
 21 20  2  0
 22 23  1  0
 22 21  1  0
 23 28  2  0
 24 25  2  0
 24 23  1  0
 25 26  1  0
 26 27  2  0
 28 27  1  0
 28 20  1  0
 29 18  1  0
 30 29  1  0
 31 29  2  0
M  END
$$$$
