LDW.pdb
     RDKit          3D

 31 32  0  0  1  0  0  0  0  0999 V2000
   28.0362  -19.4050  -19.0104 C   0  0  0  0  0  0  0  0  0  0  0  0
   28.0496  -20.2837  -17.8033 C   0  0  1  0  0  0  0  0  0  0  0  0
   29.2861  -21.1666  -17.8930 C   0  0  0  0  0  0  0  0  0  0  0  0
   28.1096  -19.5580  -16.5018 C   0  0  0  0  0  0  0  0  0  0  0  0
   28.2617  -20.4376  -15.3012 C   0  0  2  0  0  0  0  0  0  0  0  0
   28.0694  -21.8447  -15.6366 N   0  0  0  0  0  0  0  0  0  0  0  0
   27.1383  -20.0710  -14.3658 C   0  0  0  0  0  0  0  0  0  0  0  0
   27.0302  -18.8867  -13.9561 O   0  0  0  0  0  0  0  0  0  0  0  0
   26.1843  -21.0207  -13.9232 N   0  0  0  0  0  0  0  0  0  0  0  0
   25.0870  -20.5914  -13.0494 C   0  0  1  0  0  0  0  0  0  0  0  0
   23.7631  -20.9811  -13.6478 C   0  0  0  0  0  0  0  0  0  0  0  0
   22.6000  -20.6633  -12.8019 C   0  0  0  0  0  0  0  0  0  0  0  0
   22.4627  -19.5394  -12.2572 O   0  0  0  0  0  0  0  0  0  0  0  0
   25.3190  -21.0835  -11.6897 C   0  0  0  0  0  0  0  0  0  0  0  0
   25.5937  -22.2959  -11.5118 O   0  0  0  0  0  0  0  0  0  0  0  0
   21.5762  -21.5935  -12.5536 O   0  0  0  0  0  0  0  0  0  0  0  0
   25.2339  -20.2008  -10.5889 N   0  0  0  0  0  0  0  0  0  0  0  0
   25.4552  -20.7099   -9.2498 C   0  0  1  0  0  0  0  0  0  0  0  0
   26.2421  -19.6642   -8.5182 C   0  0  0  0  0  0  0  0  0  0  0  0
   27.5451  -20.1119   -7.9993 C   0  0  0  0  0  0  0  0  0  0  0  0
   28.4062  -21.0167   -8.6558 C   0  0  0  0  0  0  0  0  0  0  0  0
   29.5094  -21.1680   -7.9170 N   0  0  0  0  0  0  0  0  0  0  0  0
   29.4432  -20.4260   -6.8111 C   0  0  0  0  0  0  0  0  0  0  0  0
   30.2887  -20.2359   -5.7498 C   0  0  0  0  0  0  0  0  0  0  0  0
   29.9536  -19.3855   -4.6939 C   0  0  0  0  0  0  0  0  0  0  0  0
   28.7510  -18.7215   -4.7123 C   0  0  0  0  0  0  0  0  0  0  0  0
   27.9130  -18.9389   -5.8105 C   0  0  0  0  0  0  0  0  0  0  0  0
   28.2206  -19.7646   -6.8545 C   0  0  0  0  0  0  0  0  0  0  0  0
   24.2474  -21.1973   -8.6026 C   0  0  0  0  0  0  0  0  0  0  0  0
   24.2793  -21.9674   -7.4555 O   0  0  0  0  0  0  0  0  0  0  0  0
   23.0783  -20.9478   -9.0570 O   0  0  0  0  0  0  0  0  0  0  0  0
  2  1  1  6
  3  2  1  0
  4  2  1  0
  5  4  1  0
  5  6  1  6
  7  5  1  0
  7  8  2  0
  9  7  1  0
 10  9  1  0
 10 11  1  6
 12 13  2  0
 12 11  1  0
 14 17  1  0
 14 10  1  0
 15 14  2  0
 16 12  1  0
 18 17  1  0
 18 19  1  1
 20 19  1  0
 21 20  2  0
 22 23  1  0
 22 21  1  0
 23 28  2  0
 24 25  2  0
 24 23  1  0
 25 26  1  0
 26 27  2  0
 28 27  1  0
 28 20  1  0
 29 18  1  0
 30 29  1  0
 31 29  2  0
M  END
$$$$
