LDW.pdb
     RDKit          3D

 31 32  0  0  1  0  0  0  0  0999 V2000
   28.5288  -21.8283  -16.2514 C   0  0  0  0  0  0  0  0  0  0  0  0
   27.7793  -21.0408  -15.2281 C   0  0  1  0  0  0  0  0  0  0  0  0
   28.5598  -19.7590  -14.9744 C   0  0  0  0  0  0  0  0  0  0  0  0
   26.3959  -20.6524  -15.6274 C   0  0  0  0  0  0  0  0  0  0  0  0
   25.6450  -19.8666  -14.5993 C   0  0  2  0  0  0  0  0  0  0  0  0
   26.0854  -20.1905  -13.2463 N   0  0  0  0  0  0  0  0  0  0  0  0
   24.2092  -20.3150  -14.6928 C   0  0  0  0  0  0  0  0  0  0  0  0
   23.6138  -20.2714  -15.7999 O   0  0  0  0  0  0  0  0  0  0  0  0
   23.4923  -20.7913  -13.5671 N   0  0  0  0  0  0  0  0  0  0  0  0
   22.0963  -21.2137  -13.7235 C   0  0  1  0  0  0  0  0  0  0  0  0
   21.6427  -21.9706  -12.5052 C   0  0  0  0  0  0  0  0  0  0  0  0
   20.3005  -22.5647  -12.6273 C   0  0  0  0  0  0  0  0  0  0  0  0
   19.5755  -22.3654  -13.6339 O   0  0  0  0  0  0  0  0  0  0  0  0
   21.2687  -20.0582  -14.0763 C   0  0  0  0  0  0  0  0  0  0  0  0
   21.2378  -19.0650  -13.3083 O   0  0  0  0  0  0  0  0  0  0  0  0
   19.7509  -23.3882  -11.6299 O   0  0  0  0  0  0  0  0  0  0  0  0
   20.5122  -20.0623  -15.2704 N   0  0  0  0  0  0  0  0  0  0  0  0
   19.6195  -18.9552  -15.5510 C   0  0  1  0  0  0  0  0  0  0  0  0
   20.3030  -18.1030  -16.5779 C   0  0  0  0  0  0  0  0  0  0  0  0
   19.4832  -17.0124  -17.1309 C   0  0  0  0  0  0  0  0  0  0  0  0
   19.2706  -15.7664  -16.5035 C   0  0  0  0  0  0  0  0  0  0  0  0
   18.5081  -15.0121  -17.3006 N   0  0  0  0  0  0  0  0  0  0  0  0
   18.1964  -15.6701  -18.4176 C   0  0  0  0  0  0  0  0  0  0  0  0
   17.4519  -15.3533  -19.5235 C   0  0  0  0  0  0  0  0  0  0  0  0
   17.2782  -16.2615  -20.5701 C   0  0  0  0  0  0  0  0  0  0  0  0
   17.8633  -17.5023  -20.4965 C   0  0  0  0  0  0  0  0  0  0  0  0
   18.6159  -17.7918  -19.3540 C   0  0  0  0  0  0  0  0  0  0  0  0
   18.8003  -16.9190  -18.3193 C   0  0  0  0  0  0  0  0  0  0  0  0
   18.2535  -19.3637  -15.8384 C   0  0  0  0  0  0  0  0  0  0  0  0
   17.1661  -18.5505  -15.5817 O   0  0  0  0  0  0  0  0  0  0  0  0
   17.9716  -20.5045  -16.3431 O   0  0  0  0  0  0  0  0  0  0  0  0
  2  1  1  6
  3  2  1  0
  4  2  1  0
  5  4  1  0
  5  6  1  1
  7  5  1  0
  7  8  2  0
  9  7  1  0
 10  9  1  0
 10 11  1  1
 12 13  2  0
 12 11  1  0
 14 17  1  0
 14 10  1  0
 15 14  2  0
 16 12  1  0
 18 17  1  0
 18 19  1  6
 20 19  1  0
 21 20  2  0
 22 23  1  0
 22 21  1  0
 23 28  2  0
 24 25  2  0
 24 23  1  0
 25 26  1  0
 26 27  2  0
 28 27  1  0
 28 20  1  0
 29 18  1  0
 30 29  1  0
 31 29  2  0
M  END
$$$$
