NPI.pdb
     RDKit          3D

 24 24  0  0  1  0  0  0  0  0999 V2000
    9.1498  -19.2389   17.7340 N   0  0  0  0  0  0  0  0  0  0  0  0
    8.8928  -19.5421   19.0960 C   0  0  0  0  0  0  0  0  0  0  0  0
    8.3098  -20.6335   19.3383 O   0  0  0  0  0  0  0  0  0  0  0  0
    9.2655  -18.6651   20.2246 C   0  0  0  0  0  0  0  0  0  0  0  0
    9.9800  -17.4075   19.6965 C   0  0  2  0  0  0  0  0  0  0  0  0
   11.3076  -17.8110   19.4036 N   0  0  0  0  0  0  0  0  0  0  0  0
    9.7716  -16.3174   20.6243 C   0  0  0  0  0  0  0  0  0  0  0  0
   10.7887  -15.9476   21.3217 O   0  0  0  0  0  0  0  0  0  0  0  0
    8.5904  -15.5745   20.8941 N   0  0  0  0  0  0  0  0  0  0  0  0
    7.3144  -15.7667   20.2721 C   0  0  0  0  0  0  0  0  0  0  0  0
    6.8251  -14.3290   20.1157 C   0  0  0  0  0  0  0  0  0  0  0  0
    7.4725  -13.5649   21.2344 C   0  0  0  0  0  0  0  0  0  0  0  0
    8.3948  -14.5167   21.8495 C   0  0  1  0  0  0  0  0  0  0  0  0
    8.0097  -15.0050   23.1924 C   0  0  0  0  0  0  0  0  0  0  0  0
    7.9684  -16.2503   23.3492 O   0  0  0  0  0  0  0  0  0  0  0  0
    5.5999  -11.8819   27.3448 C   0  0  0  0  0  0  0  0  0  0  0  0
    6.3009  -12.5778   26.2305 C   0  0  0  0  0  0  0  0  0  0  0  0
    7.4288  -13.4922   26.6479 C   0  0  2  0  0  0  0  0  0  0  0  0
    8.6463  -12.5958   26.8808 C   0  0  0  0  0  0  0  0  0  0  0  0
    7.7154  -14.5830   25.6669 C   0  0  2  0  0  0  0  0  0  0  0  0
    7.6885  -14.1601   24.2918 N   0  0  0  0  0  0  0  0  0  0  0  0
    6.8286  -15.7768   25.8894 C   0  0  0  0  0  0  0  0  0  0  0  0
    7.0403  -16.7362   26.8491 O   0  0  0  0  0  0  0  0  0  0  0  0
    5.7958  -15.9461   25.1527 O   0  0  0  0  0  0  0  0  0  0  0  0
  1  2  1  0
  2  3  2  0
  4  2  1  0
  5  4  1  0
  5  6  1  1
  7  5  1  0
  7  8  2  0
  9  7  1  0
 10  9  1  0
 11 10  1  0
 12 11  1  0
 12 13  1  0
 13  9  1  0
 14 21  1  0
 13 14  1  1
 15 14  2  0
 17 16  1  0
 18 17  1  0
 18 19  1  6
 20 21  1  6
 20 18  1  0
 22 20  1  0
 23 22  1  0
 24 22  2  0
M  END
$$$$
