NPI.pdb
     RDKit          3D

 24 24  0  0  1  0  0  0  0  0999 V2000
    7.7272  -19.5082   20.5579 N   0  0  0  0  0  0  0  0  0  0  0  0
    6.5110  -18.7813   20.4815 C   0  0  0  0  0  0  0  0  0  0  0  0
    5.5264  -19.2466   21.1168 O   0  0  0  0  0  0  0  0  0  0  0  0
    6.3396  -17.5315   19.7130 C   0  0  0  0  0  0  0  0  0  0  0  0
    7.7131  -17.0029   19.2602 C   0  0  2  0  0  0  0  0  0  0  0  0
    8.4481  -18.1420   18.8437 N   0  0  0  0  0  0  0  0  0  0  0  0
    8.2638  -16.1595   20.2984 C   0  0  0  0  0  0  0  0  0  0  0  0
    9.2218  -16.6560   21.0009 O   0  0  0  0  0  0  0  0  0  0  0  0
    7.9024  -14.8375   20.6743 N   0  0  0  0  0  0  0  0  0  0  0  0
    6.8918  -14.0327   20.0555 C   0  0  0  0  0  0  0  0  0  0  0  0
    7.5380  -12.6496   20.0793 C   0  0  0  0  0  0  0  0  0  0  0  0
    8.4529  -12.6588   21.2699 C   0  0  0  0  0  0  0  0  0  0  0  0
    8.4215  -14.0378   21.7519 C   0  0  1  0  0  0  0  0  0  0  0  0
    7.7133  -14.2523   23.0335 C   0  0  0  0  0  0  0  0  0  0  0  0
    6.6076  -13.6728   23.1707 O   0  0  0  0  0  0  0  0  0  0  0  0
    6.0047  -11.8964   26.0938 C   0  0  0  0  0  0  0  0  0  0  0  0
    7.0821  -12.6241   25.3677 C   0  0  0  0  0  0  0  0  0  0  0  0
    7.7239  -13.7584   26.1318 C   0  0  2  0  0  0  0  0  0  0  0  0
    8.3485  -13.1365   27.3820 C   0  0  0  0  0  0  0  0  0  0  0  0
    8.7213  -14.5348   25.3339 C   0  0  2  0  0  0  0  0  0  0  0  0
    8.2059  -15.0595   24.0972 N   0  0  0  0  0  0  0  0  0  0  0  0
    9.3721  -15.6125   26.1562 C   0  0  0  0  0  0  0  0  0  0  0  0
    9.3992  -16.9427   25.8158 O   0  0  0  0  0  0  0  0  0  0  0  0
    9.9503  -15.3087   27.2570 O   0  0  0  0  0  0  0  0  0  0  0  0
  1  2  1  0
  2  3  2  0
  4  2  1  0
  5  4  1  0
  5  6  1  1
  7  5  1  0
  7  8  2  0
  9  7  1  0
 10  9  1  0
 11 10  1  0
 12 11  1  0
 12 13  1  0
 13  9  1  0
 14 21  1  0
 13 14  1  1
 15 14  2  0
 17 16  1  0
 18 17  1  0
 18 19  1  1
 20 21  1  6
 20 18  1  0
 22 20  1  0
 23 22  1  0
 24 22  2  0
M  END
$$$$
