NPI.pdb
     RDKit          3D

 24 24  0  0  1  0  0  0  0  0999 V2000
   11.4675  -14.8396   17.6065 N   0  0  0  0  0  0  0  0  0  0  0  0
   11.6852  -14.0435   18.7606 C   0  0  0  0  0  0  0  0  0  0  0  0
   12.8728  -13.6926   18.9969 O   0  0  0  0  0  0  0  0  0  0  0  0
   10.6153  -13.6107   19.6824 C   0  0  0  0  0  0  0  0  0  0  0  0
    9.2499  -14.1016   19.1670 C   0  0  2  0  0  0  0  0  0  0  0  0
    8.8329  -13.1463   18.2055 N   0  0  0  0  0  0  0  0  0  0  0  0
    8.3872  -14.3774   20.2949 C   0  0  0  0  0  0  0  0  0  0  0  0
    7.7720  -13.3721   20.8133 O   0  0  0  0  0  0  0  0  0  0  0  0
    8.1075  -15.6142   20.9368 N   0  0  0  0  0  0  0  0  0  0  0  0
    8.6957  -16.8806   20.6171 C   0  0  0  0  0  0  0  0  0  0  0  0
    7.5069  -17.8250   20.7782 C   0  0  0  0  0  0  0  0  0  0  0  0
    6.6209  -17.1775   21.8030 C   0  0  0  0  0  0  0  0  0  0  0  0
    7.2271  -15.8703   22.0455 C   0  0  1  0  0  0  0  0  0  0  0  0
    7.8806  -15.7019   23.3626 C   0  0  0  0  0  0  0  0  0  0  0  0
    9.0816  -16.0591   23.4460 O   0  0  0  0  0  0  0  0  0  0  0  0
    5.9129  -11.4325   26.1964 C   0  0  0  0  0  0  0  0  0  0  0  0
    6.7542  -12.4615   25.5250 C   0  0  0  0  0  0  0  0  0  0  0  0
    7.2151  -13.5966   26.4092 C   0  0  2  0  0  0  0  0  0  0  0  0
    8.0841  -12.9675   27.4996 C   0  0  0  0  0  0  0  0  0  0  0  0
    7.9359  -14.6798   25.6735 C   0  0  2  0  0  0  0  0  0  0  0  0
    7.2368  -15.1710   24.5156 N   0  0  0  0  0  0  0  0  0  0  0  0
    8.3334  -15.8037   26.5900 C   0  0  0  0  0  0  0  0  0  0  0  0
    9.5070  -15.8502   27.3018 O   0  0  0  0  0  0  0  0  0  0  0  0
    7.5508  -16.8049   26.7427 O   0  0  0  0  0  0  0  0  0  0  0  0
  1  2  1  0
  2  3  2  0
  4  2  1  0
  5  4  1  0
  5  6  1  6
  7  5  1  0
  7  8  2  0
  9  7  1  0
 10  9  1  0
 11 10  1  0
 12 11  1  0
 12 13  1  0
 13  9  1  0
 14 21  1  0
 13 14  1  1
 15 14  2  0
 17 16  1  0
 18 17  1  0
 18 19  1  1
 20 21  1  6
 20 18  1  0
 22 20  1  0
 23 22  1  0
 24 22  2  0
M  END
$$$$
