NPI.pdb
     RDKit          3D

 24 24  0  0  1  0  0  0  0  0999 V2000
   11.8006  -18.8561   20.3671 N   0  0  0  0  0  0  0  0  0  0  0  0
   10.4756  -19.3637   20.3564 C   0  0  0  0  0  0  0  0  0  0  0  0
   10.3140  -20.5473   20.7595 O   0  0  0  0  0  0  0  0  0  0  0  0
    9.2973  -18.5942   19.9079 C   0  0  0  0  0  0  0  0  0  0  0  0
    9.6882  -17.1221   19.6822 C   0  0  2  0  0  0  0  0  0  0  0  0
   10.8944  -17.1518   18.9371 N   0  0  0  0  0  0  0  0  0  0  0  0
    9.6689  -16.4255   20.9498 C   0  0  0  0  0  0  0  0  0  0  0  0
   10.8060  -16.0464   21.4200 O   0  0  0  0  0  0  0  0  0  0  0  0
    8.5645  -16.0879   21.7781 N   0  0  0  0  0  0  0  0  0  0  0  0
    7.2089  -16.5095   21.5870 C   0  0  0  0  0  0  0  0  0  0  0  0
    6.4344  -15.2534   21.9788 C   0  0  0  0  0  0  0  0  0  0  0  0
    7.3046  -14.5452   22.9768 C   0  0  0  0  0  0  0  0  0  0  0  0
    8.5544  -15.3021   22.9833 C   0  0  1  0  0  0  0  0  0  0  0  0
    8.8145  -16.0984   24.2032 C   0  0  0  0  0  0  0  0  0  0  0  0
    8.9062  -17.3421   24.0559 O   0  0  0  0  0  0  0  0  0  0  0  0
    9.4786  -13.8417   29.6430 C   0  0  0  0  0  0  0  0  0  0  0  0
    9.1643  -14.8400   28.5837 C   0  0  0  0  0  0  0  0  0  0  0  0
   10.2447  -15.0444   27.5476 C   0  0  2  0  0  0  0  0  0  0  0  0
   10.5430  -13.6646   26.9584 C   0  0  0  0  0  0  0  0  0  0  0  0
    9.8867  -16.0394   26.4912 C   0  0  2  0  0  0  0  0  0  0  0  0
    8.9612  -15.5452   25.5064 N   0  0  0  0  0  0  0  0  0  0  0  0
    9.4106  -17.3351   27.0875 C   0  0  0  0  0  0  0  0  0  0  0  0
   10.2115  -18.2212   27.7654 O   0  0  0  0  0  0  0  0  0  0  0  0
    8.1807  -17.6712   26.9754 O   0  0  0  0  0  0  0  0  0  0  0  0
  1  2  1  0
  2  3  2  0
  4  2  1  0
  5  4  1  0
  5  6  1  1
  7  5  1  0
  7  8  2  0
  9  7  1  0
 10  9  1  0
 11 10  1  0
 12 11  1  0
 12 13  1  0
 13  9  1  0
 14 21  1  0
 13 14  1  1
 15 14  2  0
 17 16  1  0
 18 17  1  0
 18 19  1  6
 20 21  1  6
 20 18  1  0
 22 20  1  0
 23 22  1  0
 24 22  2  0
M  END
$$$$
