NPI.pdb
     RDKit          3D

 24 24  0  0  1  0  0  0  0  0999 V2000
   11.9871  -19.6709   21.0053 N   0  0  0  0  0  0  0  0  0  0  0  0
   12.7931  -18.5548   20.6619 C   0  0  0  0  0  0  0  0  0  0  0  0
   14.0372  -18.6766   20.8253 O   0  0  0  0  0  0  0  0  0  0  0  0
   12.2631  -17.2818   20.1322 C   0  0  0  0  0  0  0  0  0  0  0  0
   10.7362  -17.3818   19.9598 C   0  0  2  0  0  0  0  0  0  0  0  0
   10.4996  -17.3207   18.5629 N   0  0  0  0  0  0  0  0  0  0  0  0
   10.0963  -16.4092   20.8183 C   0  0  0  0  0  0  0  0  0  0  0  0
   10.8679  -15.5801   21.4306 O   0  0  0  0  0  0  0  0  0  0  0  0
    8.7157  -16.2228   21.0996 N   0  0  0  0  0  0  0  0  0  0  0  0
    7.6449  -17.0647   20.6563 C   0  0  0  0  0  0  0  0  0  0  0  0
    6.5565  -16.0422   20.3388 C   0  0  0  0  0  0  0  0  0  0  0  0
    6.8236  -14.8808   21.2523 C   0  0  0  0  0  0  0  0  0  0  0  0
    8.0934  -15.2019   21.9000 C   0  0  1  0  0  0  0  0  0  0  0  0
    8.0092  -15.5536   23.3350 C   0  0  0  0  0  0  0  0  0  0  0  0
    8.5220  -16.6473   23.6786 O   0  0  0  0  0  0  0  0  0  0  0  0
    5.6924  -11.4381   26.2527 C   0  0  0  0  0  0  0  0  0  0  0  0
    6.8421  -12.2000   25.6913 C   0  0  0  0  0  0  0  0  0  0  0  0
    7.1958  -13.4711   26.4273 C   0  0  2  0  0  0  0  0  0  0  0  0
    7.9537  -13.0437   27.6854 C   0  0  0  0  0  0  0  0  0  0  0  0
    7.9771  -14.4458   25.6065 C   0  0  2  0  0  0  0  0  0  0  0  0
    7.3910  -14.7399   24.3257 N   0  0  0  0  0  0  0  0  0  0  0  0
    8.2749  -15.7044   26.3736 C   0  0  0  0  0  0  0  0  0  0  0  0
    9.4400  -15.9400   27.0616 O   0  0  0  0  0  0  0  0  0  0  0  0
    7.4078  -16.6451   26.4107 O   0  0  0  0  0  0  0  0  0  0  0  0
  1  2  1  0
  2  3  2  0
  4  2  1  0
  5  4  1  0
  5  6  1  6
  7  5  1  0
  7  8  2  0
  9  7  1  0
 10  9  1  0
 11 10  1  0
 12 11  1  0
 12 13  1  0
 13  9  1  0
 14 21  1  0
 13 14  1  1
 15 14  2  0
 17 16  1  0
 18 17  1  0
 18 19  1  1
 20 21  1  6
 20 18  1  0
 22 20  1  0
 23 22  1  0
 24 22  2  0
M  END
$$$$
