NPI.pdb
     RDKit          3D

 24 24  0  0  1  0  0  0  0  0999 V2000
    8.7826  -19.8176   19.2310 N   0  0  0  0  0  0  0  0  0  0  0  0
    9.9173  -19.9353   20.0746 C   0  0  0  0  0  0  0  0  0  0  0  0
   10.5342  -21.0346   20.0523 O   0  0  0  0  0  0  0  0  0  0  0  0
   10.4064  -18.8592   20.9603 C   0  0  0  0  0  0  0  0  0  0  0  0
   10.4306  -17.5227   20.1961 C   0  0  2  0  0  0  0  0  0  0  0  0
   11.7453  -17.3958   19.6798 N   0  0  0  0  0  0  0  0  0  0  0  0
    9.9137  -16.4766   21.0511 C   0  0  0  0  0  0  0  0  0  0  0  0
   10.7684  -15.8521   21.7841 O   0  0  0  0  0  0  0  0  0  0  0  0
    8.5773  -16.0212   21.2137 N   0  0  0  0  0  0  0  0  0  0  0  0
    7.4090  -16.6158   20.6364 C   0  0  0  0  0  0  0  0  0  0  0  0
    6.5834  -15.3853   20.2684 C   0  0  0  0  0  0  0  0  0  0  0  0
    6.9857  -14.3272   21.2549 C   0  0  0  0  0  0  0  0  0  0  0  0
    8.0956  -14.9169   22.0003 C   0  0  1  0  0  0  0  0  0  0  0  0
    7.8019  -15.2823   23.4039 C   0  0  0  0  0  0  0  0  0  0  0  0
    7.8401  -16.5049   23.6881 O   0  0  0  0  0  0  0  0  0  0  0  0
    5.4147  -11.9158   27.3967 C   0  0  0  0  0  0  0  0  0  0  0  0
    5.9740  -12.8454   26.3766 C   0  0  0  0  0  0  0  0  0  0  0  0
    7.3276  -13.4290   26.7075 C   0  0  2  0  0  0  0  0  0  0  0  0
    8.3259  -12.2726   26.6302 C   0  0  0  0  0  0  0  0  0  0  0  0
    7.7235  -14.5708   25.8278 C   0  0  2  0  0  0  0  0  0  0  0  0
    7.4834  -14.3456   24.4271 N   0  0  0  0  0  0  0  0  0  0  0  0
    7.1091  -15.8642   26.2870 C   0  0  0  0  0  0  0  0  0  0  0  0
    7.5425  -16.5918   27.3682 O   0  0  0  0  0  0  0  0  0  0  0  0
    6.1121  -16.3540   25.6512 O   0  0  0  0  0  0  0  0  0  0  0  0
  1  2  1  0
  2  3  2  0
  4  2  1  0
  5  4  1  0
  5  6  1  1
  7  5  1  0
  7  8  2  0
  9  7  1  0
 10  9  1  0
 11 10  1  0
 12 11  1  0
 12 13  1  0
 13  9  1  0
 14 21  1  0
 13 14  1  1
 15 14  2  0
 17 16  1  0
 18 17  1  0
 18 19  1  6
 20 21  1  6
 20 18  1  0
 22 20  1  0
 23 22  1  0
 24 22  2  0
M  END
$$$$
