NPI.pdb
     RDKit          3D

 24 24  0  0  1  0  0  0  0  0999 V2000
   11.1926  -20.0559   18.5206 N   0  0  0  0  0  0  0  0  0  0  0  0
   10.3591  -19.5655   19.5588 C   0  0  0  0  0  0  0  0  0  0  0  0
    9.1677  -19.9776   19.5779 O   0  0  0  0  0  0  0  0  0  0  0  0
   10.8038  -18.6167   20.5999 C   0  0  0  0  0  0  0  0  0  0  0  0
   10.4145  -17.1814   20.2010 C   0  0  2  0  0  0  0  0  0  0  0  0
   11.4502  -16.7224   19.3479 N   0  0  0  0  0  0  0  0  0  0  0  0
   10.1068  -16.4233   21.3939 C   0  0  0  0  0  0  0  0  0  0  0  0
   11.0843  -15.7968   21.9505 O   0  0  0  0  0  0  0  0  0  0  0  0
    8.8646  -16.2598   22.0646 N   0  0  0  0  0  0  0  0  0  0  0  0
    7.6514  -16.9636   21.7733 C   0  0  0  0  0  0  0  0  0  0  0  0
    6.6043  -15.8679   21.9582 C   0  0  0  0  0  0  0  0  0  0  0  0
    7.1901  -14.9250   22.9694 C   0  0  0  0  0  0  0  0  0  0  0  0
    8.5533  -15.4066   23.1806 C   0  0  1  0  0  0  0  0  0  0  0  0
    8.8123  -16.0409   24.4923 C   0  0  0  0  0  0  0  0  0  0  0  0
    8.8666  -17.2954   24.5111 O   0  0  0  0  0  0  0  0  0  0  0  0
    9.5984  -14.3063   30.1124 C   0  0  0  0  0  0  0  0  0  0  0  0
    9.1499  -14.4024   28.6957 C   0  0  0  0  0  0  0  0  0  0  0  0
   10.2558  -14.5454   27.6763 C   0  0  2  0  0  0  0  0  0  0  0  0
   10.4090  -13.1760   27.0122 C   0  0  0  0  0  0  0  0  0  0  0  0
   10.0171  -15.6299   26.6757 C   0  0  2  0  0  0  0  0  0  0  0  0
    8.9974  -15.3239   25.7077 N   0  0  0  0  0  0  0  0  0  0  0  0
    9.7593  -16.9530   27.3420 C   0  0  0  0  0  0  0  0  0  0  0  0
    8.5715  -17.6394   27.2771 O   0  0  0  0  0  0  0  0  0  0  0  0
   10.6861  -17.5096   28.0272 O   0  0  0  0  0  0  0  0  0  0  0  0
  1  2  1  0
  2  3  2  0
  4  2  1  0
  5  4  1  0
  5  6  1  1
  7  5  1  0
  7  8  2  0
  9  7  1  0
 10  9  1  0
 11 10  1  0
 12 11  1  0
 12 13  1  0
 13  9  1  0
 14 21  1  0
 13 14  1  1
 15 14  2  0
 17 16  1  0
 18 17  1  0
 18 19  1  6
 20 21  1  1
 20 18  1  0
 22 20  1  0
 23 22  1  0
 24 22  2  0
M  END
$$$$
