NPI.pdb
     RDKit          3D

 24 24  0  0  1  0  0  0  0  0999 V2000
   12.0752  -18.3017   16.7524 N   0  0  0  0  0  0  0  0  0  0  0  0
   12.1868  -17.7003   18.0326 C   0  0  0  0  0  0  0  0  0  0  0  0
   13.2345  -17.9455   18.6896 O   0  0  0  0  0  0  0  0  0  0  0  0
   11.1613  -16.8180   18.6258 C   0  0  0  0  0  0  0  0  0  0  0  0
   10.5990  -17.4576   19.9086 C   0  0  2  0  0  0  0  0  0  0  0  0
    9.9382  -18.6416   19.4931 N   0  0  0  0  0  0  0  0  0  0  0  0
    9.8502  -16.4639   20.6464 C   0  0  0  0  0  0  0  0  0  0  0  0
   10.4766  -15.3851   20.9651 O   0  0  0  0  0  0  0  0  0  0  0  0
    8.4992  -16.4941   21.0866 N   0  0  0  0  0  0  0  0  0  0  0  0
    7.5784  -17.5762   20.9047 C   0  0  0  0  0  0  0  0  0  0  0  0
    6.2784  -16.8319   20.6097 C   0  0  0  0  0  0  0  0  0  0  0  0
    6.4035  -15.5159   21.3218 C   0  0  0  0  0  0  0  0  0  0  0  0
    7.7745  -15.4954   21.8266 C   0  0  1  0  0  0  0  0  0  0  0  0
    7.9192  -15.6340   23.2929 C   0  0  0  0  0  0  0  0  0  0  0  0
    8.5823  -16.6181   23.7036 O   0  0  0  0  0  0  0  0  0  0  0  0
    5.7999  -11.3417   26.1694 C   0  0  0  0  0  0  0  0  0  0  0  0
    6.9112  -12.1640   25.6159 C   0  0  0  0  0  0  0  0  0  0  0  0
    7.1795  -13.4609   26.3431 C   0  0  2  0  0  0  0  0  0  0  0  0
    7.9177  -13.0883   27.6300 C   0  0  0  0  0  0  0  0  0  0  0  0
    7.9376  -14.4615   25.5318 C   0  0  2  0  0  0  0  0  0  0  0  0
    7.3589  -14.7345   24.2429 N   0  0  0  0  0  0  0  0  0  0  0  0
    8.1813  -15.7301   26.3015 C   0  0  0  0  0  0  0  0  0  0  0  0
    9.3444  -16.0241   26.9702 O   0  0  0  0  0  0  0  0  0  0  0  0
    7.2659  -16.6226   26.3600 O   0  0  0  0  0  0  0  0  0  0  0  0
  1  2  1  0
  2  3  2  0
  4  2  1  0
  5  4  1  0
  5  6  1  6
  7  5  1  0
  7  8  2  0
  9  7  1  0
 10  9  1  0
 11 10  1  0
 12 11  1  0
 12 13  1  0
 13  9  1  0
 14 21  1  0
 13 14  1  1
 15 14  2  0
 17 16  1  0
 18 17  1  0
 18 19  1  1
 20 21  1  6
 20 18  1  0
 22 20  1  0
 23 22  1  0
 24 22  2  0
M  END
$$$$
