NPI.pdb
     RDKit          3D

 24 24  0  0  1  0  0  0  0  0999 V2000
   10.0790  -14.5073   16.6800 N   0  0  0  0  0  0  0  0  0  0  0  0
   10.7390  -14.3533   17.9265 C   0  0  0  0  0  0  0  0  0  0  0  0
   11.9997  -14.3511   17.9090 O   0  0  0  0  0  0  0  0  0  0  0  0
   10.0420  -14.1974   19.2194 C   0  0  0  0  0  0  0  0  0  0  0  0
    8.5182  -14.2189   18.9985 C   0  0  2  0  0  0  0  0  0  0  0  0
    8.2149  -13.0358   18.2778 N   0  0  0  0  0  0  0  0  0  0  0  0
    7.8577  -14.4527   20.2641 C   0  0  0  0  0  0  0  0  0  0  0  0
    7.4273  -13.4152   20.8934 O   0  0  0  0  0  0  0  0  0  0  0  0
    7.6055  -15.6781   20.9383 N   0  0  0  0  0  0  0  0  0  0  0  0
    8.1213  -16.9630   20.5707 C   0  0  0  0  0  0  0  0  0  0  0  0
    6.9264  -17.8702   20.8538 C   0  0  0  0  0  0  0  0  0  0  0  0
    6.1651  -17.1923   21.9563 C   0  0  0  0  0  0  0  0  0  0  0  0
    6.8310  -15.9034   22.1297 C   0  0  1  0  0  0  0  0  0  0  0  0
    7.6155  -15.7503   23.3752 C   0  0  0  0  0  0  0  0  0  0  0  0
    8.8201  -16.1023   23.3299 O   0  0  0  0  0  0  0  0  0  0  0  0
    5.7946  -11.6084   26.5199 C   0  0  0  0  0  0  0  0  0  0  0  0
    6.6246  -12.5600   25.7305 C   0  0  0  0  0  0  0  0  0  0  0  0
    7.2202  -13.7041   26.5171 C   0  0  2  0  0  0  0  0  0  0  0  0
    8.1729  -13.0763   27.5360 C   0  0  0  0  0  0  0  0  0  0  0  0
    7.9025  -14.7284   25.6689 C   0  0  2  0  0  0  0  0  0  0  0  0
    7.0914  -15.2393   24.5958 N   0  0  0  0  0  0  0  0  0  0  0  0
    8.4768  -15.8431   26.4989 C   0  0  0  0  0  0  0  0  0  0  0  0
    9.7298  -15.8298   27.0609 O   0  0  0  0  0  0  0  0  0  0  0  0
    7.7805  -16.8944   26.7182 O   0  0  0  0  0  0  0  0  0  0  0  0
  1  2  1  0
  2  3  2  0
  4  2  1  0
  5  4  1  0
  5  6  1  1
  7  5  1  0
  7  8  2  0
  9  7  1  0
 10  9  1  0
 11 10  1  0
 12 11  1  0
 12 13  1  0
 13  9  1  0
 14 21  1  0
 13 14  1  1
 15 14  2  0
 17 16  1  0
 18 17  1  0
 18 19  1  1
 20 21  1  6
 20 18  1  0
 22 20  1  0
 23 22  1  0
 24 22  2  0
M  END
$$$$
