NPI.pdb
     RDKit          3D

 24 24  0  0  1  0  0  0  0  0999 V2000
   11.9867  -18.9475   21.3127 N   0  0  0  0  0  0  0  0  0  0  0  0
   10.6105  -19.2389   21.1279 C   0  0  0  0  0  0  0  0  0  0  0  0
   10.1628  -20.2692   21.7002 O   0  0  0  0  0  0  0  0  0  0  0  0
    9.6908  -18.4152   20.3171 C   0  0  0  0  0  0  0  0  0  0  0  0
   10.3904  -17.1097   19.8961 C   0  0  2  0  0  0  0  0  0  0  0  0
   11.7759  -17.4093   19.8539 N   0  0  0  0  0  0  0  0  0  0  0  0
    9.9361  -16.0313   20.7466 C   0  0  0  0  0  0  0  0  0  0  0  0
   10.8323  -15.4309   21.4495 O   0  0  0  0  0  0  0  0  0  0  0  0
    8.6232  -15.5202   20.9333 N   0  0  0  0  0  0  0  0  0  0  0  0
    7.4344  -15.9995   20.2938 C   0  0  0  0  0  0  0  0  0  0  0  0
    6.6805  -14.6994   20.0246 C   0  0  0  0  0  0  0  0  0  0  0  0
    7.1226  -13.7529   21.1032 C   0  0  0  0  0  0  0  0  0  0  0  0
    8.1881  -14.4631   21.8069 C   0  0  1  0  0  0  0  0  0  0  0  0
    7.8537  -14.9313   23.1704 C   0  0  0  0  0  0  0  0  0  0  0  0
    7.9564  -16.1644   23.3843 O   0  0  0  0  0  0  0  0  0  0  0  0
    5.9958  -11.0615   26.5325 C   0  0  0  0  0  0  0  0  0  0  0  0
    7.1440  -11.9217   26.1339 C   0  0  0  0  0  0  0  0  0  0  0  0
    7.0439  -13.3690   26.5554 C   0  0  2  0  0  0  0  0  0  0  0  0
    7.6247  -13.4473   27.9684 C   0  0  0  0  0  0  0  0  0  0  0  0
    7.7191  -14.3182   25.6187 C   0  0  2  0  0  0  0  0  0  0  0  0
    7.4294  -14.0802   24.2294 N   0  0  0  0  0  0  0  0  0  0  0  0
    7.4564  -15.7502   25.9946 C   0  0  0  0  0  0  0  0  0  0  0  0
    6.4669  -16.5301   25.4480 O   0  0  0  0  0  0  0  0  0  0  0  0
    8.1836  -16.3167   26.8826 O   0  0  0  0  0  0  0  0  0  0  0  0
  1  2  1  0
  2  3  2  0
  4  2  1  0
  5  4  1  0
  5  6  1  1
  7  5  1  0
  7  8  2  0
  9  7  1  0
 10  9  1  0
 11 10  1  0
 12 11  1  0
 12 13  1  0
 13  9  1  0
 14 21  1  0
 13 14  1  1
 15 14  2  0
 17 16  1  0
 18 17  1  0
 18 19  1  1
 20 21  1  6
 20 18  1  0
 22 20  1  0
 23 22  1  0
 24 22  2  0
M  END
$$$$
