NPI.pdb
     RDKit          3D

 24 24  0  0  1  0  0  0  0  0999 V2000
    8.0013  -19.7277   20.5647 N   0  0  0  0  0  0  0  0  0  0  0  0
    9.1341  -19.1264   21.1714 C   0  0  0  0  0  0  0  0  0  0  0  0
    9.0403  -18.8356   22.3945 O   0  0  0  0  0  0  0  0  0  0  0  0
   10.3945  -18.8291   20.4608 C   0  0  0  0  0  0  0  0  0  0  0  0
   10.2831  -17.4716   19.7428 C   0  0  2  0  0  0  0  0  0  0  0  0
   11.5286  -17.2732   19.0945 N   0  0  0  0  0  0  0  0  0  0  0  0
    9.8194  -16.4737   20.6818 C   0  0  0  0  0  0  0  0  0  0  0  0
   10.7041  -15.9553   21.4603 O   0  0  0  0  0  0  0  0  0  0  0  0
    8.5078  -15.9657   20.8853 N   0  0  0  0  0  0  0  0  0  0  0  0
    7.2976  -16.5244   20.3608 C   0  0  0  0  0  0  0  0  0  0  0  0
    6.5053  -15.2694   20.0028 C   0  0  0  0  0  0  0  0  0  0  0  0
    6.9829  -14.2124   20.9563 C   0  0  0  0  0  0  0  0  0  0  0  0
    8.0969  -14.8321   21.6704 C   0  0  1  0  0  0  0  0  0  0  0  0
    7.8419  -15.1648   23.0897 C   0  0  0  0  0  0  0  0  0  0  0  0
    7.9838  -16.3677   23.4212 O   0  0  0  0  0  0  0  0  0  0  0  0
    5.6435  -11.2376   26.4465 C   0  0  0  0  0  0  0  0  0  0  0  0
    6.6571  -12.1104   25.7921 C   0  0  0  0  0  0  0  0  0  0  0  0
    6.7397  -13.5199   26.3299 C   0  0  2  0  0  0  0  0  0  0  0  0
    7.2694  -13.4047   27.7603 C   0  0  0  0  0  0  0  0  0  0  0  0
    7.5750  -14.4360   25.4950 C   0  0  2  0  0  0  0  0  0  0  0  0
    7.4513  -14.2181   24.0780 N   0  0  0  0  0  0  0  0  0  0  0  0
    7.3403  -15.8784   25.8491 C   0  0  0  0  0  0  0  0  0  0  0  0
    6.3639  -16.6680   25.2929 O   0  0  0  0  0  0  0  0  0  0  0  0
    8.0805  -16.4450   26.7262 O   0  0  0  0  0  0  0  0  0  0  0  0
  1  2  1  0
  2  3  2  0
  4  2  1  0
  5  4  1  0
  5  6  1  1
  7  5  1  0
  7  8  2  0
  9  7  1  0
 10  9  1  0
 11 10  1  0
 12 11  1  0
 12 13  1  0
 13  9  1  0
 14 21  1  0
 13 14  1  1
 15 14  2  0
 17 16  1  0
 18 17  1  0
 18 19  1  1
 20 21  1  6
 20 18  1  0
 22 20  1  0
 23 22  1  0
 24 22  2  0
M  END
$$$$
