NPI.pdb
     RDKit          3D

 24 24  0  0  1  0  0  0  0  0999 V2000
    8.6735  -19.7609   17.8471 N   0  0  0  0  0  0  0  0  0  0  0  0
    8.3929  -18.9029   18.9418 C   0  0  0  0  0  0  0  0  0  0  0  0
    7.2015  -18.5109   19.0697 O   0  0  0  0  0  0  0  0  0  0  0  0
    9.4023  -18.4533   19.9220 C   0  0  0  0  0  0  0  0  0  0  0  0
   10.0549  -17.1450   19.4388 C   0  0  2  0  0  0  0  0  0  0  0  0
   11.4046  -17.4696   19.1494 N   0  0  0  0  0  0  0  0  0  0  0  0
    9.7802  -16.0953   20.3955 C   0  0  0  0  0  0  0  0  0  0  0  0
   10.6939  -15.8550   21.2702 O   0  0  0  0  0  0  0  0  0  0  0  0
    8.6309  -15.2694   20.5248 N   0  0  0  0  0  0  0  0  0  0  0  0
    7.4409  -15.3525   19.7318 C   0  0  0  0  0  0  0  0  0  0  0  0
    7.0838  -13.8790   19.5517 C   0  0  0  0  0  0  0  0  0  0  0  0
    7.6270  -13.1869   20.7684 C   0  0  0  0  0  0  0  0  0  0  0  0
    8.3848  -14.2173   21.4748 C   0  0  1  0  0  0  0  0  0  0  0  0
    7.7858  -14.6990   22.7394 C   0  0  0  0  0  0  0  0  0  0  0  0
    7.8001  -15.9395   22.9336 O   0  0  0  0  0  0  0  0  0  0  0  0
    7.0639  -11.2856   28.0090 C   0  0  0  0  0  0  0  0  0  0  0  0
    7.6674  -12.3898   27.2129 C   0  0  0  0  0  0  0  0  0  0  0  0
    7.0773  -12.5914   25.8368 C   0  0  2  0  0  0  0  0  0  0  0  0
    5.5849  -12.8563   26.0427 C   0  0  0  0  0  0  0  0  0  0  0  0
    7.7364  -13.6791   25.0514 C   0  0  2  0  0  0  0  0  0  0  0  0
    7.2049  -13.8528   23.7255 N   0  0  0  0  0  0  0  0  0  0  0  0
    7.7533  -14.9783   25.8084 C   0  0  0  0  0  0  0  0  0  0  0  0
    8.7715  -15.3844   26.6357 O   0  0  0  0  0  0  0  0  0  0  0  0
    6.7691  -15.7892   25.6990 O   0  0  0  0  0  0  0  0  0  0  0  0
  1  2  1  0
  2  3  2  0
  4  2  1  0
  5  4  1  0
  5  6  1  1
  7  5  1  0
  7  8  2  0
  9  7  1  0
 10  9  1  0
 11 10  1  0
 12 11  1  0
 12 13  1  0
 13  9  1  0
 14 21  1  0
 13 14  1  1
 15 14  2  0
 17 16  1  0
 18 17  1  0
 18 19  1  1
 20 21  1  6
 20 18  1  0
 22 20  1  0
 23 22  1  0
 24 22  2  0
M  END
$$$$
