AID.pdb
     RDKit          3D

 22 21  0  0  1  0  0  0  0  0999 V2000
    5.5877  -17.5952   22.4174 C   0  0  0  0  0  0  0  0  0  0  0  0
    5.4994  -16.0951   22.2000 C   0  0  2  0  0  0  0  0  0  0  0  0
    5.7167  -15.8260   20.7980 N   0  0  0  0  0  0  0  0  0  0  0  0
    6.6578  -15.4943   22.9536 C   0  0  0  0  0  0  0  0  0  0  0  0
    7.7203  -15.3600   22.3415 O   0  0  0  0  0  0  0  0  0  0  0  0
    5.7925  -11.6305   26.6313 C   0  0  0  0  0  0  0  0  0  0  0  0
    6.5901  -12.4171   25.6179 C   0  0  0  0  0  0  0  0  0  0  0  0
    7.1869  -13.6929   26.1940 C   0  0  2  0  0  0  0  0  0  0  0  0
    8.4425  -13.1963   26.9038 C   0  0  0  0  0  0  0  0  0  0  0  0
    7.6480  -14.5222   25.0312 C   0  0  2  0  0  0  0  0  0  0  0  0
    6.5711  -15.0990   24.2736 N   0  0  0  0  0  0  0  0  0  0  0  0
    8.5156  -15.6346   25.4137 C   0  0  0  0  0  0  0  0  0  0  0  0
    7.9811  -16.6401   26.0362 O   0  0  0  0  0  0  0  0  0  0  0  0
    9.8866  -15.7858   25.1981 N   0  0  0  0  0  0  0  0  0  0  0  0
   10.6121  -17.0301   25.4890 C   0  0  1  0  0  0  0  0  0  0  0  0
   11.9170  -16.9218   24.7662 C   0  0  0  0  0  0  0  0  0  0  0  0
   12.8306  -18.0487   24.9242 C   0  0  0  0  0  0  0  0  0  0  0  0
   12.4461  -19.0067   25.6531 O   0  0  0  0  0  0  0  0  0  0  0  0
   10.7493  -17.0831   26.9617 C   0  0  0  0  0  0  0  0  0  0  0  0
   10.7443  -18.1771   27.5728 O   0  0  0  0  0  0  0  0  0  0  0  0
   14.0832  -18.1811   24.3573 O   0  0  0  0  0  0  0  0  0  0  0  0
   10.8884  -15.9402   27.7303 O   0  0  0  0  0  0  0  0  0  0  0  0
  2  1  1  6
  2  3  1  0
  4  5  2  0
  4  2  1  0
  7  6  1  0
  7  8  1  0
  8 10  1  0
  8  9  1  1
 10 12  1  0
 10 11  1  1
 11  4  1  0
 12 13  2  0
 14 15  1  0
 14 12  1  0
 15 16  1  6
 16 17  1  0
 17 21  1  0
 18 17  2  0
 19 15  1  0
 20 19  2  0
 22 19  1  0
M  END
$$$$
