AID.pdb
     RDKit          3D

 22 21  0  0  1  0  0  0  0  0999 V2000
    9.2674  -18.5046   27.8600 C   0  0  0  0  0  0  0  0  0  0  0  0
    7.8216  -18.0417   27.8332 C   0  0  2  0  0  0  0  0  0  0  0  0
    6.9777  -19.1991   27.6506 N   0  0  0  0  0  0  0  0  0  0  0  0
    7.6788  -17.1874   26.6000 C   0  0  0  0  0  0  0  0  0  0  0  0
    7.3862  -17.7603   25.5475 O   0  0  0  0  0  0  0  0  0  0  0  0
    6.0621  -12.1328   27.2092 C   0  0  0  0  0  0  0  0  0  0  0  0
    6.2243  -13.3935   26.3930 C   0  0  0  0  0  0  0  0  0  0  0  0
    7.6062  -13.5224   25.7690 C   0  0  2  0  0  0  0  0  0  0  0  0
    7.4522  -12.7950   24.4370 C   0  0  0  0  0  0  0  0  0  0  0  0
    7.8054  -14.9747   25.4470 C   0  0  2  0  0  0  0  0  0  0  0  0
    7.8600  -15.8188   26.6093 N   0  0  0  0  0  0  0  0  0  0  0  0
    9.0281  -15.2441   24.6928 C   0  0  0  0  0  0  0  0  0  0  0  0
   10.1657  -14.9763   25.2572 O   0  0  0  0  0  0  0  0  0  0  0  0
    9.1617  -15.7708   23.4068 N   0  0  0  0  0  0  0  0  0  0  0  0
   10.4593  -16.1272   22.8165 C   0  0  1  0  0  0  0  0  0  0  0  0
   11.0223  -17.2060   23.6862 C   0  0  0  0  0  0  0  0  0  0  0  0
   12.3966  -17.6050   23.4005 C   0  0  0  0  0  0  0  0  0  0  0  0
   13.0071  -16.9685   22.4955 O   0  0  0  0  0  0  0  0  0  0  0  0
   10.1671  -16.5679   21.4342 C   0  0  0  0  0  0  0  0  0  0  0  0
    9.0785  -17.1180   21.1471 O   0  0  0  0  0  0  0  0  0  0  0  0
   13.1081  -18.6145   24.0191 O   0  0  0  0  0  0  0  0  0  0  0  0
   11.0712  -16.3968   20.3999 O   0  0  0  0  0  0  0  0  0  0  0  0
  2  1  1  6
  2  3  1  0
  4  5  2  0
  4  2  1  0
  7  6  1  0
  7  8  1  0
  8 10  1  0
  8  9  1  6
 10 12  1  0
 10 11  1  1
 11  4  1  0
 12 13  2  0
 14 15  1  0
 14 12  1  0
 15 16  1  1
 16 17  1  0
 17 21  1  0
 18 17  2  0
 19 15  1  0
 20 19  2  0
 22 19  1  0
M  END
$$$$
