AID.pdb
     RDKit          3D

 22 21  0  0  1  0  0  0  0  0999 V2000
    6.8107  -16.4748   21.0459 C   0  0  0  0  0  0  0  0  0  0  0  0
    6.9553  -14.9665   21.1429 C   0  0  2  0  0  0  0  0  0  0  0  0
    7.7337  -14.5116   20.0149 N   0  0  0  0  0  0  0  0  0  0  0  0
    7.7711  -14.7033   22.3823 C   0  0  0  0  0  0  0  0  0  0  0  0
    8.9981  -14.6839   22.2565 O   0  0  0  0  0  0  0  0  0  0  0  0
    5.7755  -11.3462   26.0948 C   0  0  0  0  0  0  0  0  0  0  0  0
    6.7302  -12.1351   25.2299 C   0  0  0  0  0  0  0  0  0  0  0  0
    7.1397  -13.4607   25.8552 C   0  0  2  0  0  0  0  0  0  0  0  0
    8.1161  -13.0389   26.9488 C   0  0  0  0  0  0  0  0  0  0  0  0
    7.9404  -14.2004   24.8236 C   0  0  2  0  0  0  0  0  0  0  0  0
    7.2045  -14.4885   23.6228 N   0  0  0  0  0  0  0  0  0  0  0  0
    8.4622  -15.4813   25.2962 C   0  0  0  0  0  0  0  0  0  0  0  0
    7.6151  -16.4346   25.5373 O   0  0  0  0  0  0  0  0  0  0  0  0
    9.7879  -15.8494   25.5331 N   0  0  0  0  0  0  0  0  0  0  0  0
   10.1774  -17.1842   26.0080 C   0  0  1  0  0  0  0  0  0  0  0  0
   11.6091  -17.3582   25.6119 C   0  0  0  0  0  0  0  0  0  0  0  0
   11.9005  -17.2146   24.1892 C   0  0  0  0  0  0  0  0  0  0  0  0
   11.6924  -18.2198   23.4522 O   0  0  0  0  0  0  0  0  0  0  0  0
    9.9615  -17.1713   27.4721 C   0  0  0  0  0  0  0  0  0  0  0  0
    9.5776  -18.1986   28.0784 O   0  0  0  0  0  0  0  0  0  0  0  0
   12.3851  -16.0866   23.5561 O   0  0  0  0  0  0  0  0  0  0  0  0
   10.1702  -16.0369   28.2376 O   0  0  0  0  0  0  0  0  0  0  0  0
  2  1  1  6
  2  3  1  0
  4  5  2  0
  4  2  1  0
  7  6  1  0
  7  8  1  0
  8 10  1  0
  8  9  1  1
 10 12  1  0
 10 11  1  6
 11  4  1  0
 12 13  2  0
 14 15  1  0
 14 12  1  0
 15 16  1  1
 16 17  1  0
 17 21  1  0
 18 17  2  0
 19 15  1  0
 20 19  2  0
 22 19  1  0
M  END
$$$$
