AID.pdb
     RDKit          3D

 22 21  0  0  1  0  0  0  0  0999 V2000
    8.8193  -19.4599   18.0708 C   0  0  0  0  0  0  0  0  0  0  0  0
    8.9235  -18.0556   17.5029 C   0  0  2  0  0  0  0  0  0  0  0  0
    9.9574  -18.0492   16.4948 N   0  0  0  0  0  0  0  0  0  0  0  0
    9.3991  -17.1812   18.6343 C   0  0  0  0  0  0  0  0  0  0  0  0
   10.6125  -17.1542   18.8550 O   0  0  0  0  0  0  0  0  0  0  0  0
    6.8232  -12.4448   20.0241 C   0  0  0  0  0  0  0  0  0  0  0  0
    7.9119  -13.4716   19.8187 C   0  0  0  0  0  0  0  0  0  0  0  0
    7.9073  -14.5614   20.8808 C   0  0  2  0  0  0  0  0  0  0  0  0
    8.4367  -13.8404   22.1166 C   0  0  0  0  0  0  0  0  0  0  0  0
    8.9534  -15.5617   20.4837 C   0  0  2  0  0  0  0  0  0  0  0  0
    8.5429  -16.4279   19.4124 N   0  0  0  0  0  0  0  0  0  0  0  0
    9.3693  -16.4383   21.5768 C   0  0  0  0  0  0  0  0  0  0  0  0
    8.5419  -17.3567   21.9721 O   0  0  0  0  0  0  0  0  0  0  0  0
   10.5723  -16.4386   22.2853 N   0  0  0  0  0  0  0  0  0  0  0  0
   10.8996  -17.4396   23.3101 C   0  0  1  0  0  0  0  0  0  0  0  0
   12.3235  -17.8260   23.0651 C   0  0  0  0  0  0  0  0  0  0  0  0
   12.9423  -18.6664   24.0851 C   0  0  0  0  0  0  0  0  0  0  0  0
   12.3736  -19.7624   24.3539 O   0  0  0  0  0  0  0  0  0  0  0  0
   10.6789  -16.7719   24.6123 C   0  0  0  0  0  0  0  0  0  0  0  0
   10.7680  -17.4076   25.6885 O   0  0  0  0  0  0  0  0  0  0  0  0
   14.0938  -18.3888   24.7956 O   0  0  0  0  0  0  0  0  0  0  0  0
   10.3664  -15.4266   24.7069 O   0  0  0  0  0  0  0  0  0  0  0  0
  2  1  1  1
  2  3  1  0
  4  5  2  0
  4  2  1  0
  7  6  1  0
  7  8  1  0
  8 10  1  0
  8  9  1  1
 10 12  1  0
 10 11  1  6
 11  4  1  0
 12 13  2  0
 14 15  1  0
 14 12  1  0
 15 16  1  1
 16 17  1  0
 17 21  1  0
 18 17  2  0
 19 15  1  0
 20 19  2  0
 22 19  1  0
M  END
$$$$
