AID.pdb
     RDKit          3D

 22 21  0  0  1  0  0  0  0  0999 V2000
    6.8745  -16.9140   21.9167 C   0  0  0  0  0  0  0  0  0  0  0  0
    6.6852  -15.4080   21.8817 C   0  0  2  0  0  0  0  0  0  0  0  0
    7.1810  -14.9173   20.6173 N   0  0  0  0  0  0  0  0  0  0  0  0
    7.5795  -14.8489   22.9581 C   0  0  0  0  0  0  0  0  0  0  0  0
    8.7515  -14.6151   22.6527 O   0  0  0  0  0  0  0  0  0  0  0  0
    5.7992  -11.2744   26.5723 C   0  0  0  0  0  0  0  0  0  0  0  0
    6.7551  -12.0615   25.7070 C   0  0  0  0  0  0  0  0  0  0  0  0
    7.2219  -13.3532   26.3622 C   0  0  2  0  0  0  0  0  0  0  0  0
    8.2541  -12.8716   27.3769 C   0  0  0  0  0  0  0  0  0  0  0  0
    7.9722  -14.1259   25.3170 C   0  0  2  0  0  0  0  0  0  0  0  0
    7.1410  -14.5959   24.2425 N   0  0  0  0  0  0  0  0  0  0  0  0
    8.6604  -15.3037   25.8420 C   0  0  0  0  0  0  0  0  0  0  0  0
    7.9394  -16.3135   26.2227 O   0  0  0  0  0  0  0  0  0  0  0  0
   10.0314  -15.5158   25.9980 N   0  0  0  0  0  0  0  0  0  0  0  0
   10.5960  -16.7732   26.5073 C   0  0  1  0  0  0  0  0  0  0  0  0
   11.9657  -16.8764   25.9154 C   0  0  0  0  0  0  0  0  0  0  0  0
   12.0364  -16.8421   24.4582 C   0  0  0  0  0  0  0  0  0  0  0  0
   11.2958  -17.6462   23.8245 O   0  0  0  0  0  0  0  0  0  0  0  0
   10.5919  -16.6501   27.9821 C   0  0  0  0  0  0  0  0  0  0  0  0
   10.4331  -15.5383   28.5380 O   0  0  0  0  0  0  0  0  0  0  0  0
   12.8348  -16.0170   23.6902 O   0  0  0  0  0  0  0  0  0  0  0  0
   10.7613  -17.7442   28.8132 O   0  0  0  0  0  0  0  0  0  0  0  0
  2  1  1  6
  2  3  1  0
  4  5  2  0
  4  2  1  0
  7  6  1  0
  7  8  1  0
  8 10  1  0
  8  9  1  1
 10 12  1  0
 10 11  1  6
 11  4  1  0
 12 13  2  0
 14 15  1  0
 14 12  1  0
 15 16  1  6
 16 17  1  0
 17 21  1  0
 18 17  2  0
 19 15  1  0
 20 19  2  0
 22 19  1  0
M  END
$$$$
