AID.pdb
     RDKit          3D

 22 21  0  0  1  0  0  0  0  0999 V2000
    6.5504  -16.4724   21.0283 C   0  0  0  0  0  0  0  0  0  0  0  0
    6.8032  -14.9766   21.0887 C   0  0  2  0  0  0  0  0  0  0  0  0
    7.5910  -14.6024   19.9378 N   0  0  0  0  0  0  0  0  0  0  0  0
    7.6585  -14.7459   22.3079 C   0  0  0  0  0  0  0  0  0  0  0  0
    8.8818  -14.7654   22.1508 O   0  0  0  0  0  0  0  0  0  0  0  0
    5.7886  -11.4591   26.2147 C   0  0  0  0  0  0  0  0  0  0  0  0
    6.7563  -12.1877   25.3121 C   0  0  0  0  0  0  0  0  0  0  0  0
    7.1259  -13.5696   25.8311 C   0  0  2  0  0  0  0  0  0  0  0  0
    8.1130  -13.2637   26.9532 C   0  0  0  0  0  0  0  0  0  0  0  0
    7.9057  -14.2495   24.7439 C   0  0  2  0  0  0  0  0  0  0  0  0
    7.1310  -14.5189   23.5634 N   0  0  0  0  0  0  0  0  0  0  0  0
    8.4827  -15.5293   25.1507 C   0  0  0  0  0  0  0  0  0  0  0  0
    7.6746  -16.5190   25.3786 O   0  0  0  0  0  0  0  0  0  0  0  0
    9.8261  -15.8615   25.3347 N   0  0  0  0  0  0  0  0  0  0  0  0
   10.2756  -17.2105   25.7053 C   0  0  1  0  0  0  0  0  0  0  0  0
   11.6116  -17.3895   25.0572 C   0  0  0  0  0  0  0  0  0  0  0  0
   12.3536  -18.5856   25.4423 C   0  0  0  0  0  0  0  0  0  0  0  0
   13.5926  -18.4544   25.6531 O   0  0  0  0  0  0  0  0  0  0  0  0
   10.3236  -17.2284   27.1844 C   0  0  0  0  0  0  0  0  0  0  0  0
   10.5019  -16.1746   27.8386 O   0  0  0  0  0  0  0  0  0  0  0  0
   11.8414  -19.8586   25.6018 O   0  0  0  0  0  0  0  0  0  0  0  0
   10.1757  -18.3967   27.9122 O   0  0  0  0  0  0  0  0  0  0  0  0
  2  1  1  6
  2  3  1  0
  4  5  2  0
  4  2  1  0
  7  6  1  0
  7  8  1  0
  8 10  1  0
  8  9  1  1
 10 12  1  0
 10 11  1  6
 11  4  1  0
 12 13  2  0
 14 15  1  0
 14 12  1  0
 15 16  1  6
 16 17  1  0
 17 21  1  0
 18 17  2  0
 19 15  1  0
 20 19  2  0
 22 19  1  0
M  END
$$$$
