AID.pdb
     RDKit          3D

 22 21  0  0  1  0  0  0  0  0999 V2000
    6.6340  -15.8168   20.8170 C   0  0  0  0  0  0  0  0  0  0  0  0
    6.8472  -14.3283   21.0271 C   0  0  2  0  0  0  0  0  0  0  0  0
    7.6455  -13.8252   19.9340 N   0  0  0  0  0  0  0  0  0  0  0  0
    7.6743  -14.1970   22.2800 C   0  0  0  0  0  0  0  0  0  0  0  0
    8.9008  -14.1957   22.1488 O   0  0  0  0  0  0  0  0  0  0  0  0
    5.9125  -11.2605   26.5711 C   0  0  0  0  0  0  0  0  0  0  0  0
    6.8410  -11.9326   25.5872 C   0  0  0  0  0  0  0  0  0  0  0  0
    7.0740  -13.4032   25.9011 C   0  0  2  0  0  0  0  0  0  0  0  0
    8.0101  -13.3546   27.1047 C   0  0  0  0  0  0  0  0  0  0  0  0
    7.8667  -13.9721   24.7607 C   0  0  2  0  0  0  0  0  0  0  0  0
    7.1182  -14.0808   23.5383 N   0  0  0  0  0  0  0  0  0  0  0  0
    8.4017  -15.3058   25.0282 C   0  0  0  0  0  0  0  0  0  0  0  0
    7.5614  -16.2861   25.1594 O   0  0  0  0  0  0  0  0  0  0  0  0
    9.7339  -15.7000   25.1654 N   0  0  0  0  0  0  0  0  0  0  0  0
   10.1386  -17.0936   25.3964 C   0  0  1  0  0  0  0  0  0  0  0  0
   11.4285  -17.2727   24.6608 C   0  0  0  0  0  0  0  0  0  0  0  0
   12.1250  -18.5344   24.8901 C   0  0  0  0  0  0  0  0  0  0  0  0
   11.5290  -19.4058   25.5846 O   0  0  0  0  0  0  0  0  0  0  0  0
   10.2640  -17.2402   26.8637 C   0  0  0  0  0  0  0  0  0  0  0  0
   10.5840  -16.2675   27.5860 O   0  0  0  0  0  0  0  0  0  0  0  0
   13.3788  -18.8810   24.4253 O   0  0  0  0  0  0  0  0  0  0  0  0
   10.0367  -18.4454   27.5058 O   0  0  0  0  0  0  0  0  0  0  0  0
  2  1  1  6
  2  3  1  0
  4  5  2  0
  4  2  1  0
  7  6  1  0
  7  8  1  0
  8 10  1  0
  8  9  1  1
 10 12  1  0
 10 11  1  6
 11  4  1  0
 12 13  2  0
 14 15  1  0
 14 12  1  0
 15 16  1  6
 16 17  1  0
 17 21  1  0
 18 17  2  0
 19 15  1  0
 20 19  2  0
 22 19  1  0
M  END
$$$$
