AID.pdb
     RDKit          3D

 22 21  0  0  1  0  0  0  0  0999 V2000
    6.7332  -15.8833   20.6743 C   0  0  0  0  0  0  0  0  0  0  0  0
    6.9464  -14.3939   20.8782 C   0  0  2  0  0  0  0  0  0  0  0  0
    7.7887  -13.9056   19.8118 N   0  0  0  0  0  0  0  0  0  0  0  0
    7.7258  -14.2547   22.1606 C   0  0  0  0  0  0  0  0  0  0  0  0
    8.9552  -14.3186   22.0834 O   0  0  0  0  0  0  0  0  0  0  0  0
    5.6350  -11.2241   26.2141 C   0  0  0  0  0  0  0  0  0  0  0  0
    6.6365  -11.8860   25.2972 C   0  0  0  0  0  0  0  0  0  0  0  0
    6.9826  -13.3054   25.7228 C   0  0  2  0  0  0  0  0  0  0  0  0
    7.9022  -13.0915   26.9210 C   0  0  0  0  0  0  0  0  0  0  0  0
    7.8269  -13.8944   24.6307 C   0  0  2  0  0  0  0  0  0  0  0  0
    7.1239  -14.0625   23.3881 N   0  0  0  0  0  0  0  0  0  0  0  0
    8.3817  -15.2053   24.9628 C   0  0  0  0  0  0  0  0  0  0  0  0
    7.5617  -16.2049   25.0762 O   0  0  0  0  0  0  0  0  0  0  0  0
    9.7145  -15.5586   25.1814 N   0  0  0  0  0  0  0  0  0  0  0  0
   10.1479  -16.9405   25.4298 C   0  0  1  0  0  0  0  0  0  0  0  0
   11.4141  -17.1183   24.6538 C   0  0  0  0  0  0  0  0  0  0  0  0
   12.1001  -18.3936   24.8336 C   0  0  0  0  0  0  0  0  0  0  0  0
   11.4272  -19.3492   25.3141 O   0  0  0  0  0  0  0  0  0  0  0  0
   10.3264  -17.0509   26.8948 C   0  0  0  0  0  0  0  0  0  0  0  0
   10.4561  -16.0298   27.6095 O   0  0  0  0  0  0  0  0  0  0  0  0
   13.4195  -18.6703   24.5326 O   0  0  0  0  0  0  0  0  0  0  0  0
   10.3589  -18.2738   27.5429 O   0  0  0  0  0  0  0  0  0  0  0  0
  2  1  1  6
  2  3  1  0
  4  5  2  0
  4  2  1  0
  7  6  1  0
  7  8  1  0
  8 10  1  0
  8  9  1  1
 10 12  1  0
 10 11  1  6
 11  4  1  0
 12 13  2  0
 14 15  1  0
 14 12  1  0
 15 16  1  6
 16 17  1  0
 17 21  1  0
 18 17  2  0
 19 15  1  0
 20 19  2  0
 22 19  1  0
M  END
$$$$
