AID.pdb
     RDKit          3D

 22 21  0  0  1  0  0  0  0  0999 V2000
    6.5199  -16.6515   20.8048 C   0  0  0  0  0  0  0  0  0  0  0  0
    6.8989  -15.1849   20.7008 C   0  0  2  0  0  0  0  0  0  0  0  0
    7.7977  -15.0265   19.5817 N   0  0  0  0  0  0  0  0  0  0  0  0
    7.6809  -14.8655   21.9488 C   0  0  0  0  0  0  0  0  0  0  0  0
    8.8961  -15.0758   21.9225 O   0  0  0  0  0  0  0  0  0  0  0  0
    7.2397  -11.7570   27.3311 C   0  0  0  0  0  0  0  0  0  0  0  0
    7.9109  -12.6771   26.3388 C   0  0  0  0  0  0  0  0  0  0  0  0
    7.0346  -12.9921   25.1353 C   0  0  2  0  0  0  0  0  0  0  0  0
    5.8940  -13.8033   25.7422 C   0  0  0  0  0  0  0  0  0  0  0  0
    7.8145  -13.9309   24.2618 C   0  0  2  0  0  0  0  0  0  0  0  0
    7.0966  -14.3578   23.0919 N   0  0  0  0  0  0  0  0  0  0  0  0
    8.2369  -15.1516   24.9460 C   0  0  0  0  0  0  0  0  0  0  0  0
    7.3541  -16.0848   25.1310 O   0  0  0  0  0  0  0  0  0  0  0  0
    9.4982  -15.4791   25.4468 N   0  0  0  0  0  0  0  0  0  0  0  0
    9.8661  -16.8379   25.8682 C   0  0  1  0  0  0  0  0  0  0  0  0
   11.0874  -17.1940   25.0816 C   0  0  0  0  0  0  0  0  0  0  0  0
   11.7146  -18.4682   25.4172 C   0  0  0  0  0  0  0  0  0  0  0  0
   11.0806  -19.2378   26.1935 O   0  0  0  0  0  0  0  0  0  0  0  0
   10.0991  -16.7594   27.3276 C   0  0  0  0  0  0  0  0  0  0  0  0
   10.4968  -15.6985   27.8630 O   0  0  0  0  0  0  0  0  0  0  0  0
   12.9395  -18.9271   24.9732 O   0  0  0  0  0  0  0  0  0  0  0  0
    9.8920  -17.8413   28.1660 O   0  0  0  0  0  0  0  0  0  0  0  0
  2  1  1  1
  2  3  1  0
  4  5  2  0
  4  2  1  0
  7  6  1  0
  7  8  1  0
  8 10  1  0
  8  9  1  1
 10 12  1  0
 10 11  1  6
 11  4  1  0
 12 13  2  0
 14 15  1  0
 14 12  1  0
 15 16  1  6
 16 17  1  0
 17 21  1  0
 18 17  2  0
 19 15  1  0
 20 19  2  0
 22 19  1  0
M  END
$$$$
