AID.pdb
     RDKit          3D

 22 21  0  0  1  0  0  0  0  0999 V2000
    6.6147  -16.2416   20.8777 C   0  0  0  0  0  0  0  0  0  0  0  0
    6.9772  -14.7755   21.0332 C   0  0  2  0  0  0  0  0  0  0  0  0
    7.8405  -14.4026   19.9373 N   0  0  0  0  0  0  0  0  0  0  0  0
    7.7936  -14.6782   22.2962 C   0  0  0  0  0  0  0  0  0  0  0  0
    9.0088  -14.8659   22.1985 O   0  0  0  0  0  0  0  0  0  0  0  0
    5.9079  -11.3854   26.2299 C   0  0  0  0  0  0  0  0  0  0  0  0
    6.8770  -12.1167   25.3310 C   0  0  0  0  0  0  0  0  0  0  0  0
    7.2025  -13.5184   25.8257 C   0  0  2  0  0  0  0  0  0  0  0  0
    8.1732  -13.2619   26.9742 C   0  0  0  0  0  0  0  0  0  0  0  0
    7.9882  -14.1927   24.7392 C   0  0  2  0  0  0  0  0  0  0  0  0
    7.2398  -14.3927   23.5283 N   0  0  0  0  0  0  0  0  0  0  0  0
    8.5030  -15.5069   25.1191 C   0  0  0  0  0  0  0  0  0  0  0  0
    7.6633  -16.4937   25.1940 O   0  0  0  0  0  0  0  0  0  0  0  0
    9.8150  -15.8758   25.4219 N   0  0  0  0  0  0  0  0  0  0  0  0
   10.2067  -17.2550   25.7437 C   0  0  1  0  0  0  0  0  0  0  0  0
   11.4767  -17.5053   24.9944 C   0  0  0  0  0  0  0  0  0  0  0  0
   12.1863  -18.7349   25.3323 C   0  0  0  0  0  0  0  0  0  0  0  0
   11.4875  -19.7672   25.5396 O   0  0  0  0  0  0  0  0  0  0  0  0
   10.3644  -17.2977   27.2146 C   0  0  0  0  0  0  0  0  0  0  0  0
   10.5802  -16.2533   27.8727 O   0  0  0  0  0  0  0  0  0  0  0  0
   13.5534  -18.8923   25.4516 O   0  0  0  0  0  0  0  0  0  0  0  0
   10.2824  -18.4798   27.9303 O   0  0  0  0  0  0  0  0  0  0  0  0
  2  1  1  6
  2  3  1  0
  4  5  2  0
  4  2  1  0
  7  6  1  0
  7  8  1  0
  8 10  1  0
  8  9  1  1
 10 12  1  0
 10 11  1  6
 11  4  1  0
 12 13  2  0
 14 15  1  0
 14 12  1  0
 15 16  1  6
 16 17  1  0
 17 21  1  0
 18 17  2  0
 19 15  1  0
 20 19  2  0
 22 19  1  0
M  END
$$$$
