NKI.pdb
     RDKit          3D

 26 25  0  0  1  0  0  0  0  0999 V2000
   13.0051  -19.3977   19.8296 N   0  0  0  0  0  0  0  0  0  0  0  0
   13.2557  -18.1511   19.2098 C   0  0  0  0  0  0  0  0  0  0  0  0
   14.2660  -18.0396   18.4780 O   0  0  0  0  0  0  0  0  0  0  0  0
   12.3289  -17.0243   19.4392 C   0  0  0  0  0  0  0  0  0  0  0  0
   11.4884  -17.3135   20.6341 C   0  0  2  0  0  0  0  0  0  0  0  0
   10.6307  -18.4575   20.4324 N   0  0  0  0  0  0  0  0  0  0  0  0
   10.7182  -16.1919   21.1467 C   0  0  0  0  0  0  0  0  0  0  0  0
   11.3371  -15.1709   21.5417 O   0  0  0  0  0  0  0  0  0  0  0  0
    9.2766  -16.1935   21.2241 N   0  0  0  0  0  0  0  0  0  0  0  0
    8.5317  -15.0732   21.7519 C   0  0  1  0  0  0  0  0  0  0  0  0
    7.0625  -15.1502   21.3721 C   0  0  0  0  0  0  0  0  0  0  0  0
    6.9114  -15.1935   19.8492 C   0  0  0  0  0  0  0  0  0  0  0  0
    7.5945  -13.9743   19.2321 C   0  0  0  0  0  0  0  0  0  0  0  0
    7.5162  -14.0218   17.7231 C   0  0  0  0  0  0  0  0  0  0  0  0
    8.1082  -12.8261   17.2023 N   0  0  0  0  0  0  0  0  0  0  0  0
    8.5777  -15.1031   23.2432 C   0  0  0  0  0  0  0  0  0  0  0  0
    9.3877  -15.9163   23.7733 O   0  0  0  0  0  0  0  0  0  0  0  0
    7.0623  -11.4452   28.0238 C   0  0  0  0  0  0  0  0  0  0  0  0
    7.7095  -12.6563   27.4477 C   0  0  0  0  0  0  0  0  0  0  0  0
    7.4264  -12.9665   26.0385 C   0  0  2  0  0  0  0  0  0  0  0  0
    5.9679  -12.8976   25.6360 C   0  0  0  0  0  0  0  0  0  0  0  0
    8.1163  -14.1500   25.4869 C   0  0  2  0  0  0  0  0  0  0  0  0
    7.7779  -14.2852   24.0475 N   0  0  0  0  0  0  0  0  0  0  0  0
    7.8491  -15.4558   26.0732 C   0  0  0  0  0  0  0  0  0  0  0  0
    8.3471  -15.8029   27.1614 O   0  0  0  0  0  0  0  0  0  0  0  0
    7.0243  -16.3926   25.4565 O   0  0  0  0  0  0  0  0  0  0  0  0
  2  1  1  0
  2  3  2  0
  4  2  1  0
  5  4  1  0
  5  6  1  6
  7  5  1  0
  7  8  2  0
  9  7  1  0
 10  9  1  0
 10 11  1  1
 11 12  1  0
 13 12  1  0
 13 14  1  0
 15 14  1  0
 16 10  1  0
 17 16  2  0
 18 19  1  0
 19 20  1  0
 20 21  1  1
 22 20  1  0
 22 23  1  6
 23 16  1  0
 24 22  1  0
 25 24  2  0
 26 24  1  0
M  END
$$$$
