NKI.pdb
     RDKit          3D

 26 25  0  0  1  0  0  0  0  0999 V2000
    7.9122  -12.6320   17.2282 N   0  0  0  0  0  0  0  0  0  0  0  0
    8.6084  -13.3616   18.2202 C   0  0  0  0  0  0  0  0  0  0  0  0
    9.7821  -13.7271   17.9802 O   0  0  0  0  0  0  0  0  0  0  0  0
    7.9402  -13.6704   19.5005 C   0  0  0  0  0  0  0  0  0  0  0  0
    7.7882  -15.1460   19.6332 C   0  0  2  0  0  0  0  0  0  0  0  0
    6.9524  -15.7026   18.5956 N   0  0  0  0  0  0  0  0  0  0  0  0
    7.3518  -15.6177   20.9374 C   0  0  0  0  0  0  0  0  0  0  0  0
    6.2123  -15.2778   21.3468 O   0  0  0  0  0  0  0  0  0  0  0  0
    8.1634  -16.4578   21.7856 N   0  0  0  0  0  0  0  0  0  0  0  0
    7.7234  -16.8874   23.0934 C   0  0  1  0  0  0  0  0  0  0  0  0
    8.1805  -18.3037   23.3996 C   0  0  0  0  0  0  0  0  0  0  0  0
    7.7309  -18.7125   24.8049 C   0  0  0  0  0  0  0  0  0  0  0  0
    8.0802  -20.1798   25.0474 C   0  0  0  0  0  0  0  0  0  0  0  0
    7.6397  -20.6154   26.4265 C   0  0  0  0  0  0  0  0  0  0  0  0
    7.0994  -21.9385   26.3311 N   0  0  0  0  0  0  0  0  0  0  0  0
    8.3399  -16.0168   24.1368 C   0  0  0  0  0  0  0  0  0  0  0  0
    9.5589  -15.7181   23.9840 O   0  0  0  0  0  0  0  0  0  0  0  0
    5.6315  -11.8950   26.1503 C   0  0  0  0  0  0  0  0  0  0  0  0
    6.7147  -12.8074   25.6902 C   0  0  0  0  0  0  0  0  0  0  0  0
    7.3778  -13.6348   26.7091 C   0  0  2  0  0  0  0  0  0  0  0  0
    7.9024  -12.8861   27.9166 C   0  0  0  0  0  0  0  0  0  0  0  0
    8.3316  -14.6419   26.2021 C   0  0  2  0  0  0  0  0  0  0  0  0
    7.6336  -15.5359   25.2439 N   0  0  0  0  0  0  0  0  0  0  0  0
    8.9889  -15.5282   27.1522 C   0  0  0  0  0  0  0  0  0  0  0  0
    8.5036  -16.6320   27.4667 O   0  0  0  0  0  0  0  0  0  0  0  0
   10.1947  -15.1982   27.7648 O   0  0  0  0  0  0  0  0  0  0  0  0
  2  1  1  0
  2  3  2  0
  4  2  1  0
  5  4  1  0
  5  6  1  6
  7  5  1  0
  7  8  2  0
  9  7  1  0
 10  9  1  0
 10 11  1  1
 11 12  1  0
 13 12  1  0
 13 14  1  0
 15 14  1  0
 16 10  1  0
 17 16  2  0
 18 19  1  0
 19 20  1  0
 20 21  1  1
 22 20  1  0
 22 23  1  6
 23 16  1  0
 24 22  1  0
 25 24  2  0
 26 24  1  0
M  END
$$$$
