NKI.pdb
     RDKit          3D

 26 25  0  0  1  0  0  0  0  0999 V2000
    8.3684  -16.2059   17.6893 N   0  0  0  0  0  0  0  0  0  0  0  0
    8.2790  -14.9265   18.2862 C   0  0  0  0  0  0  0  0  0  0  0  0
    8.7212  -13.9397   17.6543 O   0  0  0  0  0  0  0  0  0  0  0  0
    7.6727  -14.7886   19.6258 C   0  0  0  0  0  0  0  0  0  0  0  0
    7.1048  -16.0995   20.0466 C   0  0  2  0  0  0  0  0  0  0  0  0
    6.0164  -16.5196   19.1957 N   0  0  0  0  0  0  0  0  0  0  0  0
    6.7162  -16.1961   21.4443 C   0  0  0  0  0  0  0  0  0  0  0  0
    5.7042  -15.5570   21.8303 O   0  0  0  0  0  0  0  0  0  0  0  0
    7.4362  -16.9905   22.4110 N   0  0  0  0  0  0  0  0  0  0  0  0
    7.0166  -17.0937   23.7901 C   0  0  1  0  0  0  0  0  0  0  0  0
    7.1786  -18.5087   24.3193 C   0  0  0  0  0  0  0  0  0  0  0  0
    6.1627  -19.4416   23.6547 C   0  0  0  0  0  0  0  0  0  0  0  0
    6.3901  -20.8731   24.1375 C   0  0  0  0  0  0  0  0  0  0  0  0
    5.3992  -21.8189   23.4978 C   0  0  0  0  0  0  0  0  0  0  0  0
    5.6969  -23.1495   23.9366 N   0  0  0  0  0  0  0  0  0  0  0  0
    7.8861  -16.2295   24.6409 C   0  0  0  0  0  0  0  0  0  0  0  0
    9.1103  -16.1698   24.3307 O   0  0  0  0  0  0  0  0  0  0  0  0
    5.8681  -11.6571   26.5568 C   0  0  0  0  0  0  0  0  0  0  0  0
    6.7670  -12.7195   26.0266 C   0  0  0  0  0  0  0  0  0  0  0  0
    7.5862  -13.4573   26.9996 C   0  0  2  0  0  0  0  0  0  0  0  0
    8.4127  -12.6022   27.9376 C   0  0  0  0  0  0  0  0  0  0  0  0
    8.3375  -14.6117   26.4670 C   0  0  2  0  0  0  0  0  0  0  0  0
    7.4043  -15.5061   25.7364 N   0  0  0  0  0  0  0  0  0  0  0  0
    9.0537  -15.4736   27.3969 C   0  0  0  0  0  0  0  0  0  0  0  0
    8.5495  -16.5217   27.8441 O   0  0  0  0  0  0  0  0  0  0  0  0
   10.3402  -15.1808   27.8413 O   0  0  0  0  0  0  0  0  0  0  0  0
  2  1  1  0
  2  3  2  0
  4  2  1  0
  5  4  1  0
  5  6  1  6
  7  5  1  0
  7  8  2  0
  9  7  1  0
 10  9  1  0
 10 11  1  1
 11 12  1  0
 13 12  1  0
 13 14  1  0
 15 14  1  0
 16 10  1  0
 17 16  2  0
 18 19  1  0
 19 20  1  0
 20 21  1  6
 22 20  1  0
 22 23  1  1
 23 16  1  0
 24 22  1  0
 25 24  2  0
 26 24  1  0
M  END
$$$$
