NKI.pdb
     RDKit          3D

 26 25  0  0  1  0  0  0  0  0999 V2000
    7.3789  -17.3785   16.2348 N   0  0  0  0  0  0  0  0  0  0  0  0
    7.7982  -16.4604   17.2259 C   0  0  0  0  0  0  0  0  0  0  0  0
    8.7694  -15.7108   16.9739 O   0  0  0  0  0  0  0  0  0  0  0  0
    7.0871  -16.4097   18.5193 C   0  0  0  0  0  0  0  0  0  0  0  0
    8.0698  -16.5635   19.6278 C   0  0  2  0  0  0  0  0  0  0  0  0
    8.8056  -17.8025   19.5349 N   0  0  0  0  0  0  0  0  0  0  0  0
    7.5347  -16.3960   20.9693 C   0  0  0  0  0  0  0  0  0  0  0  0
    6.8584  -15.3659   21.2201 O   0  0  0  0  0  0  0  0  0  0  0  0
    7.7424  -17.3553   22.0279 N   0  0  0  0  0  0  0  0  0  0  0  0
    7.1213  -17.2180   23.3255 C   0  0  1  0  0  0  0  0  0  0  0  0
    7.0722  -18.5444   24.0649 C   0  0  0  0  0  0  0  0  0  0  0  0
    6.0331  -19.4687   23.4246 C   0  0  0  0  0  0  0  0  0  0  0  0
    6.0970  -20.8453   24.0841 C   0  0  0  0  0  0  0  0  0  0  0  0
    5.1397  -21.8056   23.4155 C   0  0  0  0  0  0  0  0  0  0  0  0
    5.2144  -23.0642   24.0951 N   0  0  0  0  0  0  0  0  0  0  0  0
    7.9370  -16.2996   24.1730 C   0  0  0  0  0  0  0  0  0  0  0  0
    9.1866  -16.3040   23.9806 O   0  0  0  0  0  0  0  0  0  0  0  0
    5.8075  -11.5918   25.8925 C   0  0  0  0  0  0  0  0  0  0  0  0
    6.7698  -12.6158   25.3995 C   0  0  0  0  0  0  0  0  0  0  0  0
    7.4875  -13.4082   26.4091 C   0  0  2  0  0  0  0  0  0  0  0  0
    8.2292  -12.6079   27.4596 C   0  0  0  0  0  0  0  0  0  0  0  0
    8.2759  -14.5463   25.8955 C   0  0  2  0  0  0  0  0  0  0  0  0
    7.3798  -15.4604   25.1430 N   0  0  0  0  0  0  0  0  0  0  0  0
    8.9875  -15.3927   26.8428 C   0  0  0  0  0  0  0  0  0  0  0  0
   10.1763  -15.1809   27.1505 O   0  0  0  0  0  0  0  0  0  0  0  0
    8.3859  -16.4859   27.4604 O   0  0  0  0  0  0  0  0  0  0  0  0
  2  1  1  0
  2  3  2  0
  4  2  1  0
  5  4  1  0
  5  6  1  1
  7  5  1  0
  7  8  2  0
  9  7  1  0
 10  9  1  0
 10 11  1  1
 11 12  1  0
 13 12  1  0
 13 14  1  0
 15 14  1  0
 16 10  1  0
 17 16  2  0
 18 19  1  0
 19 20  1  0
 20 21  1  6
 22 20  1  0
 22 23  1  1
 23 16  1  0
 24 22  1  0
 25 24  2  0
 26 24  1  0
M  END
$$$$
