NKI.pdb
     RDKit          3D

 26 25  0  0  1  0  0  0  0  0999 V2000
    8.2330  -12.3035   17.7166 N   0  0  0  0  0  0  0  0  0  0  0  0
    7.7869  -13.6380   17.8614 C   0  0  0  0  0  0  0  0  0  0  0  0
    8.0123  -14.4478   16.9330 O   0  0  0  0  0  0  0  0  0  0  0  0
    7.0740  -14.0383   19.0914 C   0  0  0  0  0  0  0  0  0  0  0  0
    8.0411  -14.6510   20.0438 C   0  0  2  0  0  0  0  0  0  0  0  0
    8.7271  -15.7844   19.4693 N   0  0  0  0  0  0  0  0  0  0  0  0
    7.5030  -14.9980   21.3492 C   0  0  0  0  0  0  0  0  0  0  0  0
    6.8408  -14.1304   21.9739 O   0  0  0  0  0  0  0  0  0  0  0  0
    7.6922  -16.2907   21.9632 N   0  0  0  0  0  0  0  0  0  0  0  0
    7.1584  -16.6102   23.2676 C   0  0  1  0  0  0  0  0  0  0  0  0
    7.1778  -18.1069   23.5283 C   0  0  0  0  0  0  0  0  0  0  0  0
    6.1679  -18.8150   22.6213 C   0  0  0  0  0  0  0  0  0  0  0  0
    6.3494  -20.3276   22.7359 C   0  0  0  0  0  0  0  0  0  0  0  0
    5.3014  -21.0567   21.9263 C   0  0  0  0  0  0  0  0  0  0  0  0
    5.5549  -22.4632   22.0214 N   0  0  0  0  0  0  0  0  0  0  0  0
    8.0165  -15.9935   24.3213 C   0  0  0  0  0  0  0  0  0  0  0  0
    9.2658  -16.0210   24.1286 O   0  0  0  0  0  0  0  0  0  0  0  0
    6.3516  -11.4502   26.3213 C   0  0  0  0  0  0  0  0  0  0  0  0
    7.1631  -12.6079   25.8535 C   0  0  0  0  0  0  0  0  0  0  0  0
    7.7775  -13.4604   26.8822 C   0  0  2  0  0  0  0  0  0  0  0  0
    8.6053  -12.7340   27.9219 C   0  0  0  0  0  0  0  0  0  0  0  0
    8.4264  -14.6941   26.3947 C   0  0  2  0  0  0  0  0  0  0  0  0
    7.4984  -15.4044   25.4789 N   0  0  0  0  0  0  0  0  0  0  0  0
    8.8556  -15.6925   27.3639 C   0  0  0  0  0  0  0  0  0  0  0  0
    8.1324  -16.6569   27.6793 O   0  0  0  0  0  0  0  0  0  0  0  0
   10.0951  -15.6310   27.9949 O   0  0  0  0  0  0  0  0  0  0  0  0
  2  1  1  0
  2  3  2  0
  4  2  1  0
  5  4  1  0
  5  6  1  6
  7  5  1  0
  7  8  2  0
  9  7  1  0
 10  9  1  0
 10 11  1  1
 11 12  1  0
 13 12  1  0
 13 14  1  0
 15 14  1  0
 16 10  1  0
 17 16  2  0
 18 19  1  0
 19 20  1  0
 20 21  1  6
 22 20  1  0
 22 23  1  6
 23 16  1  0
 24 22  1  0
 25 24  2  0
 26 24  1  0
M  END
$$$$
