NKI.pdb
     RDKit          3D

 26 25  0  0  1  0  0  0  0  0999 V2000
    9.3686  -14.0077   17.2076 N   0  0  0  0  0  0  0  0  0  0  0  0
    8.0017  -13.6618   17.3218 C   0  0  0  0  0  0  0  0  0  0  0  0
    7.3862  -13.3088   16.2897 O   0  0  0  0  0  0  0  0  0  0  0  0
    7.3421  -13.7253   18.6416 C   0  0  0  0  0  0  0  0  0  0  0  0
    8.3132  -14.2257   19.6538 C   0  0  2  0  0  0  0  0  0  0  0  0
    9.2206  -15.2034   19.1008 N   0  0  0  0  0  0  0  0  0  0  0  0
    7.7316  -14.7226   20.8903 C   0  0  0  0  0  0  0  0  0  0  0  0
    6.9464  -13.9738   21.5262 O   0  0  0  0  0  0  0  0  0  0  0  0
    8.0119  -16.0344   21.4237 N   0  0  0  0  0  0  0  0  0  0  0  0
    7.4373  -16.5009   22.6650 C   0  0  1  0  0  0  0  0  0  0  0  0
    7.6448  -17.9946   22.8504 C   0  0  0  0  0  0  0  0  0  0  0  0
    6.9583  -18.4687   24.1342 C   0  0  0  0  0  0  0  0  0  0  0  0
    7.1407  -19.9780   24.2847 C   0  0  0  0  0  0  0  0  0  0  0  0
    6.4249  -20.4848   25.5161 C   0  0  0  0  0  0  0  0  0  0  0  0
    6.6661  -21.8919   25.6317 N   0  0  0  0  0  0  0  0  0  0  0  0
    8.1263  -15.8399   23.8118 C   0  0  0  0  0  0  0  0  0  0  0  0
    9.3778  -15.6883   23.7155 O   0  0  0  0  0  0  0  0  0  0  0  0
    5.8777  -11.5865   25.8405 C   0  0  0  0  0  0  0  0  0  0  0  0
    6.8738  -12.6111   25.4215 C   0  0  0  0  0  0  0  0  0  0  0  0
    7.3924  -13.5123   26.4613 C   0  0  2  0  0  0  0  0  0  0  0  0
    7.9845  -12.8317   27.6780 C   0  0  0  0  0  0  0  0  0  0  0  0
    8.2120  -14.6443   25.9841 C   0  0  2  0  0  0  0  0  0  0  0  0
    7.4521  -15.3967   24.9540 N   0  0  0  0  0  0  0  0  0  0  0  0
    8.6576  -15.6435   26.9451 C   0  0  0  0  0  0  0  0  0  0  0  0
    7.9467  -16.6175   27.2591 O   0  0  0  0  0  0  0  0  0  0  0  0
    9.9002  -15.5723   27.5691 O   0  0  0  0  0  0  0  0  0  0  0  0
  2  1  1  0
  2  3  2  0
  4  2  1  0
  5  4  1  0
  5  6  1  6
  7  5  1  0
  7  8  2  0
  9  7  1  0
 10  9  1  0
 10 11  1  1
 11 12  1  0
 13 12  1  0
 13 14  1  0
 15 14  1  0
 16 10  1  0
 17 16  2  0
 18 19  1  0
 19 20  1  0
 20 21  1  1
 22 20  1  0
 22 23  1  6
 23 16  1  0
 24 22  1  0
 25 24  2  0
 26 24  1  0
M  END
$$$$
