NKI.pdb
     RDKit          3D

 26 25  0  0  1  0  0  0  0  0999 V2000
    9.3129  -14.2293   17.6052 N   0  0  0  0  0  0  0  0  0  0  0  0
    7.9898  -13.7591   17.7761 C   0  0  0  0  0  0  0  0  0  0  0  0
    7.4625  -13.1065   16.8462 O   0  0  0  0  0  0  0  0  0  0  0  0
    7.2713  -14.0469   19.0339 C   0  0  0  0  0  0  0  0  0  0  0  0
    8.1687  -14.8016   19.9520 C   0  0  2  0  0  0  0  0  0  0  0  0
    8.6103  -16.0503   19.3770 N   0  0  0  0  0  0  0  0  0  0  0  0
    7.6540  -15.0204   21.2941 C   0  0  0  0  0  0  0  0  0  0  0  0
    7.1779  -14.0393   21.9204 O   0  0  0  0  0  0  0  0  0  0  0  0
    7.6629  -16.3100   21.9428 N   0  0  0  0  0  0  0  0  0  0  0  0
    7.0746  -16.5217   23.2458 C   0  0  1  0  0  0  0  0  0  0  0  0
    7.0231  -17.9977   23.6026 C   0  0  0  0  0  0  0  0  0  0  0  0
    6.0622  -18.7351   22.6663 C   0  0  0  0  0  0  0  0  0  0  0  0
    6.1652  -20.2400   22.9087 C   0  0  0  0  0  0  0  0  0  0  0  0
    5.2842  -21.0005   21.9439 C   0  0  0  0  0  0  0  0  0  0  0  0
    5.4376  -22.4013   22.2003 N   0  0  0  0  0  0  0  0  0  0  0  0
    7.9235  -15.8716   24.2867 C   0  0  0  0  0  0  0  0  0  0  0  0
    9.1689  -15.8410   24.0707 O   0  0  0  0  0  0  0  0  0  0  0  0
    6.0985  -11.4040   26.3095 C   0  0  0  0  0  0  0  0  0  0  0  0
    7.0147  -12.4792   25.8381 C   0  0  0  0  0  0  0  0  0  0  0  0
    7.6047  -13.3580   26.8588 C   0  0  2  0  0  0  0  0  0  0  0  0
    8.3632  -12.6547   27.9653 C   0  0  0  0  0  0  0  0  0  0  0  0
    8.3098  -14.5526   26.3524 C   0  0  2  0  0  0  0  0  0  0  0  0
    7.4010  -15.3126   25.4572 N   0  0  0  0  0  0  0  0  0  0  0  0
    8.8176  -15.5268   27.3082 C   0  0  0  0  0  0  0  0  0  0  0  0
    9.8658  -15.3312   27.9531 O   0  0  0  0  0  0  0  0  0  0  0  0
    8.1659  -16.7312   27.5592 O   0  0  0  0  0  0  0  0  0  0  0  0
  2  1  1  0
  2  3  2  0
  4  2  1  0
  5  4  1  0
  5  6  1  6
  7  5  1  0
  7  8  2  0
  9  7  1  0
 10  9  1  0
 10 11  1  1
 11 12  1  0
 13 12  1  0
 13 14  1  0
 15 14  1  0
 16 10  1  0
 17 16  2  0
 18 19  1  0
 19 20  1  0
 20 21  1  6
 22 20  1  0
 22 23  1  6
 23 16  1  0
 24 22  1  0
 25 24  2  0
 26 24  1  0
M  END
$$$$
