NKI.pdb
     RDKit          3D

 26 25  0  0  1  0  0  0  0  0999 V2000
    7.8935  -12.6964   16.8808 N   0  0  0  0  0  0  0  0  0  0  0  0
    8.1400  -13.8179   17.7069 C   0  0  0  0  0  0  0  0  0  0  0  0
    8.8450  -14.7495   17.2554 O   0  0  0  0  0  0  0  0  0  0  0  0
    7.5657  -13.8612   19.0668 C   0  0  0  0  0  0  0  0  0  0  0  0
    8.1121  -15.0398   19.7948 C   0  0  2  0  0  0  0  0  0  0  0  0
    7.9144  -16.2701   19.0651 N   0  0  0  0  0  0  0  0  0  0  0  0
    7.6630  -15.1928   21.1692 C   0  0  0  0  0  0  0  0  0  0  0  0
    7.1904  -14.1884   21.7602 O   0  0  0  0  0  0  0  0  0  0  0  0
    7.7333  -16.4425   21.8885 N   0  0  0  0  0  0  0  0  0  0  0  0
    7.1911  -16.5977   23.2191 C   0  0  1  0  0  0  0  0  0  0  0  0
    7.2261  -18.0478   23.6713 C   0  0  0  0  0  0  0  0  0  0  0  0
    6.3887  -18.9162   22.7286 C   0  0  0  0  0  0  0  0  0  0  0  0
    6.5357  -20.3856   23.1203 C   0  0  0  0  0  0  0  0  0  0  0  0
    5.6570  -21.2616   22.2566 C   0  0  0  0  0  0  0  0  0  0  0  0
    5.9320  -22.6307   22.5751 N   0  0  0  0  0  0  0  0  0  0  0  0
    8.0318  -15.8388   24.1908 C   0  0  0  0  0  0  0  0  0  0  0  0
    9.2773  -15.8185   23.9743 O   0  0  0  0  0  0  0  0  0  0  0  0
    6.1536  -11.4922   27.4646 C   0  0  0  0  0  0  0  0  0  0  0  0
    6.5596  -12.8466   26.9975 C   0  0  0  0  0  0  0  0  0  0  0  0
    7.7798  -12.9412   26.1822 C   0  0  2  0  0  0  0  0  0  0  0  0
    7.7297  -12.2257   24.8482 C   0  0  0  0  0  0  0  0  0  0  0  0
    8.3913  -14.2822   26.0890 C   0  0  2  0  0  0  0  0  0  0  0  0
    7.5017  -15.1703   25.2988 N   0  0  0  0  0  0  0  0  0  0  0  0
    8.6769  -15.0112   27.3168 C   0  0  0  0  0  0  0  0  0  0  0  0
    9.4526  -14.5630   28.1829 O   0  0  0  0  0  0  0  0  0  0  0  0
    8.1030  -16.2483   27.5971 O   0  0  0  0  0  0  0  0  0  0  0  0
  2  1  1  0
  2  3  2  0
  4  2  1  0
  5  4  1  0
  5  6  1  6
  7  5  1  0
  7  8  2  0
  9  7  1  0
 10  9  1  0
 10 11  1  1
 11 12  1  0
 13 12  1  0
 13 14  1  0
 15 14  1  0
 16 10  1  0
 17 16  2  0
 18 19  1  0
 19 20  1  0
 20 21  1  6
 22 20  1  0
 22 23  1  6
 23 16  1  0
 24 22  1  0
 25 24  2  0
 26 24  1  0
M  END
$$$$
