NKI.pdb
     RDKit          3D

 26 25  0  0  1  0  0  0  0  0999 V2000
    7.8614  -12.4734   17.1925 N   0  0  0  0  0  0  0  0  0  0  0  0
    8.3408  -13.5133   18.0231 C   0  0  0  0  0  0  0  0  0  0  0  0
    9.2349  -14.2695   17.5786 O   0  0  0  0  0  0  0  0  0  0  0  0
    7.7804  -13.6790   19.3794 C   0  0  0  0  0  0  0  0  0  0  0  0
    8.0516  -15.0628   19.8586 C   0  0  2  0  0  0  0  0  0  0  0  0
    7.5483  -16.0630   18.9469 N   0  0  0  0  0  0  0  0  0  0  0  0
    7.6165  -15.3545   21.2149 C   0  0  0  0  0  0  0  0  0  0  0  0
    6.7760  -14.5886   21.7521 O   0  0  0  0  0  0  0  0  0  0  0  0
    8.1028  -16.4811   21.9752 N   0  0  0  0  0  0  0  0  0  0  0  0
    7.6189  -16.7815   23.3034 C   0  0  1  0  0  0  0  0  0  0  0  0
    7.8865  -18.2285   23.6818 C   0  0  0  0  0  0  0  0  0  0  0  0
    6.8720  -19.1501   22.9995 C   0  0  0  0  0  0  0  0  0  0  0  0
    7.2947  -20.6059   23.1887 C   0  0  0  0  0  0  0  0  0  0  0  0
    6.2752  -21.5437   22.5832 C   0  0  0  0  0  0  0  0  0  0  0  0
    6.7996  -22.8756   22.6354 N   0  0  0  0  0  0  0  0  0  0  0  0
    8.3526  -15.9485   24.3007 C   0  0  0  0  0  0  0  0  0  0  0  0
    9.5889  -15.7750   24.1007 O   0  0  0  0  0  0  0  0  0  0  0  0
    5.8613  -11.6651   25.8554 C   0  0  0  0  0  0  0  0  0  0  0  0
    6.9790  -12.5874   25.5124 C   0  0  0  0  0  0  0  0  0  0  0  0
    7.6435  -13.2844   26.6237 C   0  0  2  0  0  0  0  0  0  0  0  0
    8.2700  -12.3897   27.6730 C   0  0  0  0  0  0  0  0  0  0  0  0
    8.5112  -14.4185   26.2475 C   0  0  2  0  0  0  0  0  0  0  0  0
    7.7348  -15.3716   25.4148 N   0  0  0  0  0  0  0  0  0  0  0  0
    9.1119  -15.2237   27.3016 C   0  0  0  0  0  0  0  0  0  0  0  0
    8.6032  -16.2959   27.6815 O   0  0  0  0  0  0  0  0  0  0  0  0
   10.2865  -14.8466   27.9469 O   0  0  0  0  0  0  0  0  0  0  0  0
  2  1  1  0
  2  3  2  0
  4  2  1  0
  5  4  1  0
  5  6  1  6
  7  5  1  0
  7  8  2  0
  9  7  1  0
 10  9  1  0
 10 11  1  1
 11 12  1  0
 13 12  1  0
 13 14  1  0
 15 14  1  0
 16 10  1  0
 17 16  2  0
 18 19  1  0
 19 20  1  0
 20 21  1  6
 22 20  1  0
 22 23  1  6
 23 16  1  0
 24 22  1  0
 25 24  2  0
 26 24  1  0
M  END
$$$$
