NKI.pdb
     RDKit          3D

 26 25  0  0  1  0  0  0  0  0999 V2000
    8.3640  -12.3938   17.7212 N   0  0  0  0  0  0  0  0  0  0  0  0
    7.9942  -13.7577   17.7830 C   0  0  0  0  0  0  0  0  0  0  0  0
    8.3649  -14.5201   16.8610 O   0  0  0  0  0  0  0  0  0  0  0  0
    7.1885  -14.2430   18.9217 C   0  0  0  0  0  0  0  0  0  0  0  0
    8.0887  -14.8638   19.9327 C   0  0  2  0  0  0  0  0  0  0  0  0
    8.7778  -16.0205   19.4108 N   0  0  0  0  0  0  0  0  0  0  0  0
    7.4736  -15.1797   21.2117 C   0  0  0  0  0  0  0  0  0  0  0  0
    6.7864  -14.2936   21.7810 O   0  0  0  0  0  0  0  0  0  0  0  0
    7.6136  -16.4619   21.8601 N   0  0  0  0  0  0  0  0  0  0  0  0
    7.0762  -16.7232   23.1759 C   0  0  1  0  0  0  0  0  0  0  0  0
    7.0854  -18.2079   23.4987 C   0  0  0  0  0  0  0  0  0  0  0  0
    5.9407  -18.9151   22.7684 C   0  0  0  0  0  0  0  0  0  0  0  0
    6.0884  -20.4273   22.9282 C   0  0  0  0  0  0  0  0  0  0  0  0
    4.9229  -21.1505   22.2924 C   0  0  0  0  0  0  0  0  0  0  0  0
    5.1592  -22.5599   22.3885 N   0  0  0  0  0  0  0  0  0  0  0  0
    7.9371  -16.0688   24.2042 C   0  0  0  0  0  0  0  0  0  0  0  0
    9.1865  -16.1143   24.0157 O   0  0  0  0  0  0  0  0  0  0  0  0
    6.3932  -11.4003   26.1970 C   0  0  0  0  0  0  0  0  0  0  0  0
    7.1771  -12.5743   25.7229 C   0  0  0  0  0  0  0  0  0  0  0  0
    7.7066  -13.4891   26.7452 C   0  0  2  0  0  0  0  0  0  0  0  0
    8.4828  -12.8330   27.8682 C   0  0  0  0  0  0  0  0  0  0  0  0
    8.3580  -14.7143   26.2398 C   0  0  2  0  0  0  0  0  0  0  0  0
    7.4214  -15.4268   25.3344 N   0  0  0  0  0  0  0  0  0  0  0  0
    8.8109  -15.7149   27.1959 C   0  0  0  0  0  0  0  0  0  0  0  0
    8.0550  -16.6110   27.6183 O   0  0  0  0  0  0  0  0  0  0  0  0
   10.1107  -15.7318   27.6944 O   0  0  0  0  0  0  0  0  0  0  0  0
  2  1  1  0
  2  3  2  0
  4  2  1  0
  5  4  1  0
  5  6  1  6
  7  5  1  0
  7  8  2  0
  9  7  1  0
 10  9  1  0
 10 11  1  1
 11 12  1  0
 13 12  1  0
 13 14  1  0
 15 14  1  0
 16 10  1  0
 17 16  2  0
 18 19  1  0
 19 20  1  0
 20 21  1  6
 22 20  1  0
 22 23  1  6
 23 16  1  0
 24 22  1  0
 25 24  2  0
 26 24  1  0
M  END
$$$$
