NKI.pdb
     RDKit          3D

 26 25  0  0  1  0  0  0  0  0999 V2000
   12.2810  -14.4182   18.8780 N   0  0  0  0  0  0  0  0  0  0  0  0
   11.1342  -13.5906   18.8442 C   0  0  0  0  0  0  0  0  0  0  0  0
   10.9659  -12.8424   17.8540 O   0  0  0  0  0  0  0  0  0  0  0  0
   10.1746  -13.6297   19.9661 C   0  0  0  0  0  0  0  0  0  0  0  0
    9.3048  -14.8307   19.8285 C   0  0  2  0  0  0  0  0  0  0  0  0
    8.4142  -14.7311   18.6963 N   0  0  0  0  0  0  0  0  0  0  0  0
    8.5625  -15.2086   21.0202 C   0  0  0  0  0  0  0  0  0  0  0  0
    7.6986  -14.4107   21.4659 O   0  0  0  0  0  0  0  0  0  0  0  0
    8.7692  -16.4559   21.7170 N   0  0  0  0  0  0  0  0  0  0  0  0
    8.0033  -16.8217   22.8867 C   0  0  1  0  0  0  0  0  0  0  0  0
    8.0855  -18.3132   23.1646 C   0  0  0  0  0  0  0  0  0  0  0  0
    7.1900  -18.6804   24.3509 C   0  0  0  0  0  0  0  0  0  0  0  0
    7.2360  -20.1903   24.5788 C   0  0  0  0  0  0  0  0  0  0  0  0
    6.2059  -20.6100   25.6027 C   0  0  0  0  0  0  0  0  0  0  0  0
    6.2714  -22.0330   25.7521 N   0  0  0  0  0  0  0  0  0  0  0  0
    8.5734  -16.1430   24.0872 C   0  0  0  0  0  0  0  0  0  0  0  0
    9.8338  -16.0726   24.1587 O   0  0  0  0  0  0  0  0  0  0  0  0
    6.0122  -11.8128   25.8546 C   0  0  0  0  0  0  0  0  0  0  0  0
    7.0879  -12.7858   25.5172 C   0  0  0  0  0  0  0  0  0  0  0  0
    7.5220  -13.7062   26.5786 C   0  0  2  0  0  0  0  0  0  0  0  0
    7.9432  -13.0512   27.8777 C   0  0  0  0  0  0  0  0  0  0  0  0
    8.4367  -14.7877   26.1609 C   0  0  2  0  0  0  0  0  0  0  0  0
    7.7820  -15.5994   25.1039 N   0  0  0  0  0  0  0  0  0  0  0  0
    8.8949  -15.7450   27.1579 C   0  0  0  0  0  0  0  0  0  0  0  0
    9.8957  -15.5277   27.8677 O   0  0  0  0  0  0  0  0  0  0  0  0
    8.2453  -16.9565   27.3786 O   0  0  0  0  0  0  0  0  0  0  0  0
  2  1  1  0
  2  3  2  0
  4  2  1  0
  5  4  1  0
  5  6  1  6
  7  5  1  0
  7  8  2  0
  9  7  1  0
 10  9  1  0
 10 11  1  1
 11 12  1  0
 13 12  1  0
 13 14  1  0
 15 14  1  0
 16 10  1  0
 17 16  2  0
 18 19  1  0
 19 20  1  0
 20 21  1  1
 22 20  1  0
 22 23  1  6
 23 16  1  0
 24 22  1  0
 25 24  2  0
 26 24  1  0
M  END
$$$$
