NKI.pdb
     RDKit          3D

 26 25  0  0  1  0  0  0  0  0999 V2000
   11.1976  -17.7425   17.1232 N   0  0  0  0  0  0  0  0  0  0  0  0
   11.3776  -17.4050   18.4851 C   0  0  0  0  0  0  0  0  0  0  0  0
   12.5428  -17.3680   18.9429 O   0  0  0  0  0  0  0  0  0  0  0  0
   10.1989  -17.1077   19.3238 C   0  0  0  0  0  0  0  0  0  0  0  0
   10.5134  -17.4235   20.7448 C   0  0  2  0  0  0  0  0  0  0  0  0
   10.8722  -18.8102   20.9277 N   0  0  0  0  0  0  0  0  0  0  0  0
    9.5016  -17.0341   21.7136 C   0  0  0  0  0  0  0  0  0  0  0  0
    9.0375  -15.8666   21.6585 O   0  0  0  0  0  0  0  0  0  0  0  0
    9.0036  -17.9232   22.7361 N   0  0  0  0  0  0  0  0  0  0  0  0
    7.9831  -17.5212   23.6771 C   0  0  1  0  0  0  0  0  0  0  0  0
    7.4258  -18.7113   24.4396 C   0  0  0  0  0  0  0  0  0  0  0  0
    6.4561  -19.4994   23.5549 C   0  0  0  0  0  0  0  0  0  0  0  0
    5.9453  -20.7209   24.3172 C   0  0  0  0  0  0  0  0  0  0  0  0
    5.0834  -21.5870   23.4269 C   0  0  0  0  0  0  0  0  0  0  0  0
    4.7164  -22.7623   24.1588 N   0  0  0  0  0  0  0  0  0  0  0  0
    8.5797  -16.6139   24.7008 C   0  0  0  0  0  0  0  0  0  0  0  0
    9.8259  -16.7094   24.8916 O   0  0  0  0  0  0  0  0  0  0  0  0
    6.1617  -11.8149   25.7938 C   0  0  0  0  0  0  0  0  0  0  0  0
    7.2135  -12.8397   25.5467 C   0  0  0  0  0  0  0  0  0  0  0  0
    7.6581  -13.6408   26.6969 C   0  0  2  0  0  0  0  0  0  0  0  0
    8.1401  -12.8498   27.8952 C   0  0  0  0  0  0  0  0  0  0  0  0
    8.5290  -14.7916   26.3838 C   0  0  2  0  0  0  0  0  0  0  0  0
    7.8270  -15.6902   25.4328 N   0  0  0  0  0  0  0  0  0  0  0  0
    8.9767  -15.6504   27.4712 C   0  0  0  0  0  0  0  0  0  0  0  0
    9.9731  -15.3688   28.1645 O   0  0  0  0  0  0  0  0  0  0  0  0
    8.3217  -16.8336   27.8017 O   0  0  0  0  0  0  0  0  0  0  0  0
  2  1  1  0
  2  3  2  0
  4  2  1  0
  5  4  1  0
  5  6  1  6
  7  5  1  0
  7  8  2  0
  9  7  1  0
 10  9  1  0
 10 11  1  1
 11 12  1  0
 13 12  1  0
 13 14  1  0
 15 14  1  0
 16 10  1  0
 17 16  2  0
 18 19  1  0
 19 20  1  0
 20 21  1  1
 22 20  1  0
 22 23  1  6
 23 16  1  0
 24 22  1  0
 25 24  2  0
 26 24  1  0
M  END
$$$$
