NKI.pdb
     RDKit          3D

 26 25  0  0  1  0  0  0  0  0999 V2000
    9.1220  -16.3059   17.8908 N   0  0  0  0  0  0  0  0  0  0  0  0
    8.2899  -15.2026   18.1934 C   0  0  0  0  0  0  0  0  0  0  0  0
    8.0329  -14.3806   17.2841 O   0  0  0  0  0  0  0  0  0  0  0  0
    7.7511  -15.0499   19.5599 C   0  0  0  0  0  0  0  0  0  0  0  0
    7.4137  -16.3925   20.1090 C   0  0  2  0  0  0  0  0  0  0  0  0
    6.3724  -17.0449   19.3506 N   0  0  0  0  0  0  0  0  0  0  0  0
    7.1006  -16.4301   21.5284 C   0  0  0  0  0  0  0  0  0  0  0  0
    6.2885  -15.5855   21.9852 O   0  0  0  0  0  0  0  0  0  0  0  0
    7.6771  -17.3904   22.4391 N   0  0  0  0  0  0  0  0  0  0  0  0
    7.3059  -17.4487   23.8346 C   0  0  1  0  0  0  0  0  0  0  0  0
    7.6571  -18.7925   24.4507 C   0  0  0  0  0  0  0  0  0  0  0  0
    7.1940  -18.8430   25.9091 C   0  0  0  0  0  0  0  0  0  0  0  0
    7.7087  -20.1229   26.5655 C   0  0  0  0  0  0  0  0  0  0  0  0
    7.2863  -20.1896   28.0156 C   0  0  0  0  0  0  0  0  0  0  0  0
    7.7636  -21.4215   28.5688 N   0  0  0  0  0  0  0  0  0  0  0  0
    8.0791  -16.4263   24.5985 C   0  0  0  0  0  0  0  0  0  0  0  0
    9.3111  -16.3259   24.3326 O   0  0  0  0  0  0  0  0  0  0  0  0
    5.8480  -11.6993   25.8625 C   0  0  0  0  0  0  0  0  0  0  0  0
    6.8601  -12.7334   25.5107 C   0  0  0  0  0  0  0  0  0  0  0  0
    7.5275  -13.4291   26.6211 C   0  0  2  0  0  0  0  0  0  0  0  0
    8.2004  -12.5341   27.6410 C   0  0  0  0  0  0  0  0  0  0  0  0
    8.3551  -14.5940   26.2485 C   0  0  2  0  0  0  0  0  0  0  0  0
    7.5018  -15.6014   25.5689 N   0  0  0  0  0  0  0  0  0  0  0  0
    9.0559  -15.3223   27.2967 C   0  0  0  0  0  0  0  0  0  0  0  0
   10.2505  -15.0958   27.5694 O   0  0  0  0  0  0  0  0  0  0  0  0
    8.4369  -16.3119   28.0554 O   0  0  0  0  0  0  0  0  0  0  0  0
  2  1  1  0
  2  3  2  0
  4  2  1  0
  5  4  1  0
  5  6  1  6
  7  5  1  0
  7  8  2  0
  9  7  1  0
 10  9  1  0
 10 11  1  1
 11 12  1  0
 13 12  1  0
 13 14  1  0
 15 14  1  0
 16 10  1  0
 17 16  2  0
 18 19  1  0
 19 20  1  0
 20 21  1  6
 22 20  1  0
 22 23  1  1
 23 16  1  0
 24 22  1  0
 25 24  2  0
 26 24  1  0
M  END
$$$$
