NKI.pdb
     RDKit          3D

 26 25  0  0  1  0  0  0  0  0999 V2000
    7.8523  -12.6213   17.0050 N   0  0  0  0  0  0  0  0  0  0  0  0
    8.0942  -13.7326   17.8461 C   0  0  0  0  0  0  0  0  0  0  0  0
    8.8306  -14.6533   17.4233 O   0  0  0  0  0  0  0  0  0  0  0  0
    7.4785  -13.7784   19.1877 C   0  0  0  0  0  0  0  0  0  0  0  0
    8.2260  -14.7442   20.0399 C   0  0  2  0  0  0  0  0  0  0  0  0
    8.5438  -15.9621   19.3322 N   0  0  0  0  0  0  0  0  0  0  0  0
    7.6157  -15.0530   21.3229 C   0  0  0  0  0  0  0  0  0  0  0  0
    7.0653  -14.1216   21.9641 O   0  0  0  0  0  0  0  0  0  0  0  0
    7.6110  -16.3776   21.8968 N   0  0  0  0  0  0  0  0  0  0  0  0
    7.0377  -16.6537   23.1943 C   0  0  1  0  0  0  0  0  0  0  0  0
    6.9983  -18.1450   23.4822 C   0  0  0  0  0  0  0  0  0  0  0  0
    5.9342  -18.8232   22.6152 C   0  0  0  0  0  0  0  0  0  0  0  0
    6.0020  -20.3367   22.8121 C   0  0  0  0  0  0  0  0  0  0  0  0
    4.9149  -21.0297   22.0224 C   0  0  0  0  0  0  0  0  0  0  0  0
    4.9907  -22.4353   22.2870 N   0  0  0  0  0  0  0  0  0  0  0  0
    7.8938  -16.0478   24.2559 C   0  0  0  0  0  0  0  0  0  0  0  0
    9.1399  -16.0289   24.0428 O   0  0  0  0  0  0  0  0  0  0  0  0
    5.8588  -11.8173   26.7756 C   0  0  0  0  0  0  0  0  0  0  0  0
    6.7664  -12.8058   26.1300 C   0  0  0  0  0  0  0  0  0  0  0  0
    7.5363  -13.6928   27.0147 C   0  0  2  0  0  0  0  0  0  0  0  0
    8.3397  -12.9988   28.0950 C   0  0  0  0  0  0  0  0  0  0  0  0
    8.2892  -14.7742   26.3481 C   0  0  2  0  0  0  0  0  0  0  0  0
    7.3771  -15.5168   25.4419 N   0  0  0  0  0  0  0  0  0  0  0  0
    8.9343  -15.7901   27.1679 C   0  0  0  0  0  0  0  0  0  0  0  0
    8.3552  -16.8480   27.4813 O   0  0  0  0  0  0  0  0  0  0  0  0
   10.2321  -15.6425   27.6496 O   0  0  0  0  0  0  0  0  0  0  0  0
  2  1  1  0
  2  3  2  0
  4  2  1  0
  5  4  1  0
  5  6  1  6
  7  5  1  0
  7  8  2  0
  9  7  1  0
 10  9  1  0
 10 11  1  1
 11 12  1  0
 13 12  1  0
 13 14  1  0
 15 14  1  0
 16 10  1  0
 17 16  2  0
 18 19  1  0
 19 20  1  0
 20 21  1  6
 22 20  1  0
 22 23  1  6
 23 16  1  0
 24 22  1  0
 25 24  2  0
 26 24  1  0
M  END
$$$$
