SAA.pdb
     RDKit          3D

 17 16  0  0  1  0  0  0  0  0999 V2000
   18.4392  -11.2129  -14.1809 O   0  0  0  0  0  0  0  0  0  0  0  0
   17.3271  -10.6137  -14.7225 C   0  0  0  0  0  0  0  0  0  0  0  0
   17.5120  -10.1721  -16.1453 C   0  0  2  0  0  0  0  0  0  0  0  0
   17.9845  -11.2544  -16.9824 N   0  0  0  0  0  0  0  0  0  0  0  0
   18.3271   -8.9605  -16.2919 C   0  0  0  0  0  0  0  0  0  0  0  0
   19.4715   -8.9380  -16.8112 O   0  0  0  0  0  0  0  0  0  0  0  0
   17.4643   -5.3737  -15.6450 C   0  0  0  0  0  0  0  0  0  0  0  0
   18.4565   -6.4654  -15.9660 C   0  0  2  0  0  0  0  0  0  0  0  0
   17.8067   -7.7284  -15.8239 N   0  0  0  0  0  0  0  0  0  0  0  0
   19.6995   -6.3575  -15.1642 C   0  0  0  0  0  0  0  0  0  0  0  0
   19.7750   -6.9301  -14.0469 O   0  0  0  0  0  0  0  0  0  0  0  0
   23.2541   -5.1205  -15.6627 C   0  0  0  0  0  0  0  0  0  0  0  0
   22.1091   -5.6777  -14.8891 C   0  0  2  0  0  0  0  0  0  0  0  0
   20.8481   -5.6299  -15.5820 N   0  0  0  0  0  0  0  0  0  0  0  0
   22.0373   -5.0424  -13.5492 C   0  0  0  0  0  0  0  0  0  0  0  0
   21.2561   -4.0783  -13.3509 O   0  0  0  0  0  0  0  0  0  0  0  0
   22.8119   -5.4826  -12.4993 O   0  0  0  0  0  0  0  0  0  0  0  0
  1  2  1  0
  3  2  1  0
  3  4  1  6
  5  3  1  0
  6  5  2  0
  8  7  1  1
  8  9  1  0
  9  5  1  0
 10  8  1  0
 10 14  1  0
 11 10  2  0
 13 12  1  6
 13 14  1  0
 13 15  1  0
 15 17  1  0
 16 15  2  0
M  END
$$$$
