SAA.pdb
     RDKit          3D

 17 16  0  0  1  0  0  0  0  0999 V2000
   23.3692  -12.1922  -18.4916 O   0  0  0  0  0  0  0  0  0  0  0  0
   22.8798  -10.9768  -18.0765 C   0  0  0  0  0  0  0  0  0  0  0  0
   21.4132  -10.7946  -18.3407 C   0  0  2  0  0  0  0  0  0  0  0  0
   21.1318  -10.7221  -19.7588 N   0  0  0  0  0  0  0  0  0  0  0  0
   20.8076   -9.6836  -17.5972 C   0  0  0  0  0  0  0  0  0  0  0  0
   20.5851   -8.5463  -18.0840 O   0  0  0  0  0  0  0  0  0  0  0  0
   19.3356   -9.5658  -14.1546 C   0  0  0  0  0  0  0  0  0  0  0  0
   19.8664   -8.8933  -15.3976 C   0  0  2  0  0  0  0  0  0  0  0  0
   20.4440   -9.8880  -16.2430 N   0  0  0  0  0  0  0  0  0  0  0  0
   20.7974   -7.7809  -15.0886 C   0  0  0  0  0  0  0  0  0  0  0  0
   22.0332   -8.0020  -15.0129 O   0  0  0  0  0  0  0  0  0  0  0  0
   20.6989   -4.0002  -14.8557 C   0  0  0  0  0  0  0  0  0  0  0  0
   21.2962   -5.3504  -14.6553 C   0  0  2  0  0  0  0  0  0  0  0  0
   20.3789   -6.4400  -14.8647 N   0  0  0  0  0  0  0  0  0  0  0  0
   21.9629   -5.4252  -13.3308 C   0  0  0  0  0  0  0  0  0  0  0  0
   22.9451   -4.6833  -13.0779 O   0  0  0  0  0  0  0  0  0  0  0  0
   21.5327   -6.2956  -12.3544 O   0  0  0  0  0  0  0  0  0  0  0  0
  1  2  1  0
  3  2  1  0
  3  4  1  6
  5  3  1  0
  6  5  2  0
  8  7  1  1
  8  9  1  0
  9  5  1  0
 10  8  1  0
 10 14  1  0
 11 10  2  0
 13 12  1  1
 13 14  1  0
 13 15  1  0
 15 17  1  0
 16 15  2  0
M  END
$$$$
