SAA.pdb
     RDKit          3D

 17 16  0  0  1  0  0  0  0  0999 V2000
   21.0264  -13.8330  -16.7666 O   0  0  0  0  0  0  0  0  0  0  0  0
   21.0628  -12.4598  -16.7205 C   0  0  0  0  0  0  0  0  0  0  0  0
   19.7905  -11.8066  -17.1770 C   0  0  2  0  0  0  0  0  0  0  0  0
   19.5620  -12.0144  -18.5912 N   0  0  0  0  0  0  0  0  0  0  0  0
   19.6774  -10.3932  -16.7984 C   0  0  0  0  0  0  0  0  0  0  0  0
   20.0838   -9.4377  -17.5067 O   0  0  0  0  0  0  0  0  0  0  0  0
   17.9877   -8.7977  -13.8542 C   0  0  0  0  0  0  0  0  0  0  0  0
   18.8609   -8.7368  -15.0842 C   0  0  2  0  0  0  0  0  0  0  0  0
   19.0743  -10.0661  -15.5586 N   0  0  0  0  0  0  0  0  0  0  0  0
   20.1229   -7.9938  -14.8492 C   0  0  0  0  0  0  0  0  0  0  0  0
   21.1236   -8.5933  -14.3793 O   0  0  0  0  0  0  0  0  0  0  0  0
   21.6874   -4.7208  -15.8547 C   0  0  0  0  0  0  0  0  0  0  0  0
   21.5399   -5.9154  -14.9766 C   0  0  2  0  0  0  0  0  0  0  0  0
   20.2868   -6.6083  -15.1260 N   0  0  0  0  0  0  0  0  0  0  0  0
   21.8144   -5.5509  -13.5638 C   0  0  0  0  0  0  0  0  0  0  0  0
   22.9356   -5.0846  -13.2406 O   0  0  0  0  0  0  0  0  0  0  0  0
   20.8643   -5.7099  -12.5798 O   0  0  0  0  0  0  0  0  0  0  0  0
  1  2  1  0
  3  2  1  0
  3  4  1  6
  5  3  1  0
  6  5  2  0
  8  7  1  1
  8  9  1  0
  9  5  1  0
 10  8  1  0
 10 14  1  0
 11 10  2  0
 13 12  1  6
 13 14  1  0
 13 15  1  0
 15 17  1  0
 16 15  2  0
M  END
$$$$
