SAA.pdb
     RDKit          3D

 17 16  0  0  1  0  0  0  0  0999 V2000
   15.2049   -8.8130  -13.2868 O   0  0  0  0  0  0  0  0  0  0  0  0
   16.2827   -8.0147  -12.9865 C   0  0  0  0  0  0  0  0  0  0  0  0
   17.3247   -8.6974  -12.1487 C   0  0  2  0  0  0  0  0  0  0  0  0
   16.8535   -8.9352  -10.8009 N   0  0  0  0  0  0  0  0  0  0  0  0
   18.6341   -8.0349  -12.1701 C   0  0  0  0  0  0  0  0  0  0  0  0
   18.9345   -7.0415  -11.4611 O   0  0  0  0  0  0  0  0  0  0  0  0
   21.7910   -8.8909  -13.9995 C   0  0  0  0  0  0  0  0  0  0  0  0
   20.9104   -7.9244  -13.2447 C   0  0  2  0  0  0  0  0  0  0  0  0
   19.6358   -8.5334  -13.0396 N   0  0  0  0  0  0  0  0  0  0  0  0
   20.8222   -6.6000  -13.9065 C   0  0  0  0  0  0  0  0  0  0  0  0
   19.9686   -6.4076  -14.8099 O   0  0  0  0  0  0  0  0  0  0  0  0
   22.0276   -3.0715  -13.3968 C   0  0  0  0  0  0  0  0  0  0  0  0
   21.5686   -4.2166  -14.2324 C   0  0  2  0  0  0  0  0  0  0  0  0
   21.6605   -5.4977  -13.5820 N   0  0  0  0  0  0  0  0  0  0  0  0
   22.2607   -4.2034  -15.5458 C   0  0  0  0  0  0  0  0  0  0  0  0
   22.1282   -3.2203  -16.3170 O   0  0  0  0  0  0  0  0  0  0  0  0
   23.0563   -5.2510  -15.9529 O   0  0  0  0  0  0  0  0  0  0  0  0
  1  2  1  0
  3  2  1  0
  3  4  1  1
  5  3  1  0
  6  5  2  0
  8  7  1  6
  8  9  1  0
  9  5  1  0
 10  8  1  0
 10 14  1  0
 11 10  2  0
 13 12  1  1
 13 14  1  0
 13 15  1  0
 15 17  1  0
 16 15  2  0
M  END
$$$$
