SAA.pdb
     RDKit          3D

 17 16  0  0  1  0  0  0  0  0999 V2000
   15.6590   -8.7248  -18.4204 O   0  0  0  0  0  0  0  0  0  0  0  0
   16.4212   -8.1767  -17.4165 C   0  0  0  0  0  0  0  0  0  0  0  0
   17.0088   -9.1933  -16.4811 C   0  0  2  0  0  0  0  0  0  0  0  0
   15.9850   -9.8526  -15.6987 N   0  0  0  0  0  0  0  0  0  0  0  0
   18.0980   -8.6744  -15.6454 C   0  0  0  0  0  0  0  0  0  0  0  0
   17.9287   -7.9292  -14.6475 O   0  0  0  0  0  0  0  0  0  0  0  0
   21.7752   -9.3964  -15.7127 C   0  0  0  0  0  0  0  0  0  0  0  0
   20.5844   -8.5944  -15.2458 C   0  0  2  0  0  0  0  0  0  0  0  0
   19.4320   -9.0255  -15.9694 N   0  0  0  0  0  0  0  0  0  0  0  0
   20.8138   -7.1319  -15.3353 C   0  0  0  0  0  0  0  0  0  0  0  0
   20.6866   -6.5451  -16.4403 O   0  0  0  0  0  0  0  0  0  0  0  0
   21.1275   -4.1767  -13.0184 C   0  0  0  0  0  0  0  0  0  0  0  0
   21.3357   -4.8918  -14.3089 C   0  0  2  0  0  0  0  0  0  0  0  0
   21.1787   -6.3204  -14.2255 N   0  0  0  0  0  0  0  0  0  0  0  0
   22.6388   -4.5045  -14.9057 C   0  0  0  0  0  0  0  0  0  0  0  0
   23.6021   -5.3112  -14.8911 O   0  0  0  0  0  0  0  0  0  0  0  0
   22.8290   -3.2696  -15.4843 O   0  0  0  0  0  0  0  0  0  0  0  0
  1  2  1  0
  3  2  1  0
  3  4  1  1
  5  3  1  0
  6  5  2  0
  8  7  1  6
  8  9  1  0
  9  5  1  0
 10  8  1  0
 10 14  1  0
 11 10  2  0
 13 12  1  1
 13 14  1  0
 13 15  1  0
 15 17  1  0
 16 15  2  0
M  END
$$$$
