SAA.pdb
     RDKit          3D

 17 16  0  0  1  0  0  0  0  0999 V2000
   17.1346  -12.5507  -17.1914 O   0  0  0  0  0  0  0  0  0  0  0  0
   17.7195  -11.8147  -16.1888 C   0  0  0  0  0  0  0  0  0  0  0  0
   18.7441  -10.8334  -16.6795 C   0  0  2  0  0  0  0  0  0  0  0  0
   19.7032  -11.4610  -17.5635 N   0  0  0  0  0  0  0  0  0  0  0  0
   19.3940  -10.0662  -15.6103 C   0  0  0  0  0  0  0  0  0  0  0  0
   18.7744   -9.4224  -14.7264 O   0  0  0  0  0  0  0  0  0  0  0  0
   22.8933   -9.9672  -14.3948 C   0  0  0  0  0  0  0  0  0  0  0  0
   21.5719   -9.2733  -14.6221 C   0  0  2  0  0  0  0  0  0  0  0  0
   20.8097  -10.0383  -15.5556 N   0  0  0  0  0  0  0  0  0  0  0  0
   21.7365   -7.8565  -15.0285 C   0  0  0  0  0  0  0  0  0  0  0  0
   22.4343   -7.5713  -16.0352 O   0  0  0  0  0  0  0  0  0  0  0  0
   20.0941   -4.5746  -14.7461 C   0  0  0  0  0  0  0  0  0  0  0  0
   21.3418   -5.3884  -14.7172 C   0  0  2  0  0  0  0  0  0  0  0  0
   21.1427   -6.7631  -14.3391 N   0  0  0  0  0  0  0  0  0  0  0  0
   22.3712   -4.7202  -13.8816 C   0  0  0  0  0  0  0  0  0  0  0  0
   22.5680   -5.1020  -12.7008 O   0  0  0  0  0  0  0  0  0  0  0  0
   23.1297   -3.6784  -14.3668 O   0  0  0  0  0  0  0  0  0  0  0  0
  1  2  1  0
  3  2  1  0
  3  4  1  1
  5  3  1  0
  6  5  2  0
  8  7  1  6
  8  9  1  0
  9  5  1  0
 10  8  1  0
 10 14  1  0
 11 10  2  0
 13 12  1  1
 13 14  1  0
 13 15  1  0
 15 17  1  0
 16 15  2  0
M  END
$$$$
