SAA.pdb
     RDKit          3D

 17 16  0  0  1  0  0  0  0  0999 V2000
   22.3996   -8.6823  -16.1038 O   0  0  0  0  0  0  0  0  0  0  0  0
   22.3114   -8.9776  -17.4432 C   0  0  0  0  0  0  0  0  0  0  0  0
   20.9102   -8.9336  -17.9801 C   0  0  2  0  0  0  0  0  0  0  0  0
   20.8632   -9.3031  -19.3788 N   0  0  0  0  0  0  0  0  0  0  0  0
   20.2105   -7.6708  -17.7158 C   0  0  0  0  0  0  0  0  0  0  0  0
   20.4240   -6.6012  -18.3405 O   0  0  0  0  0  0  0  0  0  0  0  0
   17.1451   -6.9171  -15.7806 C   0  0  0  0  0  0  0  0  0  0  0  0
   18.4841   -6.4772  -16.3217 C   0  0  2  0  0  0  0  0  0  0  0  0
   19.2285   -7.6367  -16.6949 N   0  0  0  0  0  0  0  0  0  0  0  0
   19.2156   -5.5949  -15.3804 C   0  0  0  0  0  0  0  0  0  0  0  0
   18.6933   -4.5159  -15.0002 O   0  0  0  0  0  0  0  0  0  0  0  0
   22.2840   -5.6648  -13.1748 C   0  0  0  0  0  0  0  0  0  0  0  0
   21.2343   -4.9996  -13.9968 C   0  0  2  0  0  0  0  0  0  0  0  0
   20.5061   -5.8916  -14.8608 N   0  0  0  0  0  0  0  0  0  0  0  0
   21.8137   -3.8503  -14.7370 C   0  0  0  0  0  0  0  0  0  0  0  0
   21.9227   -3.8980  -15.9879 O   0  0  0  0  0  0  0  0  0  0  0  0
   22.2426   -2.7152  -14.0863 O   0  0  0  0  0  0  0  0  0  0  0  0
  1  2  1  0
  3  2  1  0
  3  4  1  6
  5  3  1  0
  6  5  2  0
  8  7  1  1
  8  9  1  0
  9  5  1  0
 10  8  1  0
 10 14  1  0
 11 10  2  0
 13 12  1  6
 13 14  1  0
 13 15  1  0
 15 17  1  0
 16 15  2  0
M  END
$$$$
