SAA.pdb
     RDKit          3D

 17 16  0  0  1  0  0  0  0  0999 V2000
   22.6454  -14.0743  -14.7769 O   0  0  0  0  0  0  0  0  0  0  0  0
   22.6180  -12.7171  -14.9920 C   0  0  0  0  0  0  0  0  0  0  0  0
   22.0728  -12.3299  -16.3360 C   0  0  2  0  0  0  0  0  0  0  0  0
   22.8235  -12.9410  -17.4123 N   0  0  0  0  0  0  0  0  0  0  0  0
   21.9162  -10.8823  -16.5208 C   0  0  0  0  0  0  0  0  0  0  0  0
   22.7639  -10.1470  -17.0870 O   0  0  0  0  0  0  0  0  0  0  0  0
   18.9606   -8.6741  -15.8941 C   0  0  0  0  0  0  0  0  0  0  0  0
   20.4219   -8.8769  -16.2146 C   0  0  2  0  0  0  0  0  0  0  0  0
   20.7407  -10.2568  -16.0362 N   0  0  0  0  0  0  0  0  0  0  0  0
   21.3047   -7.9713  -15.4400 C   0  0  0  0  0  0  0  0  0  0  0  0
   21.6801   -8.3002  -14.2856 O   0  0  0  0  0  0  0  0  0  0  0  0
   23.3106   -4.7996  -15.9968 C   0  0  0  0  0  0  0  0  0  0  0  0
   22.6626   -5.8657  -15.1822 C   0  0  2  0  0  0  0  0  0  0  0  0
   21.7716   -6.7183  -15.9250 N   0  0  0  0  0  0  0  0  0  0  0  0
   22.0070   -5.2729  -13.9892 C   0  0  0  0  0  0  0  0  0  0  0  0
   20.7739   -5.0321  -14.0034 O   0  0  0  0  0  0  0  0  0  0  0  0
   22.7185   -4.9736  -12.8489 O   0  0  0  0  0  0  0  0  0  0  0  0
  1  2  1  0
  3  2  1  0
  3  4  1  6
  5  3  1  0
  6  5  2  0
  8  7  1  1
  8  9  1  0
  9  5  1  0
 10  8  1  0
 10 14  1  0
 11 10  2  0
 13 12  1  6
 13 14  1  0
 13 15  1  0
 15 17  1  0
 16 15  2  0
M  END
$$$$
