SAA.pdb
     RDKit          3D

 17 16  0  0  1  0  0  0  0  0999 V2000
   32.6686   -8.5517  -19.8305 O   0  0  0  0  0  0  0  0  0  0  0  0
   33.3813   -8.4372  -18.6608 C   0  0  0  0  0  0  0  0  0  0  0  0
   33.0551   -9.4972  -17.6491 C   0  0  2  0  0  0  0  0  0  0  0  0
   31.6260   -9.6413  -17.4695 N   0  0  0  0  0  0  0  0  0  0  0  0
   33.7618   -9.3398  -16.3724 C   0  0  0  0  0  0  0  0  0  0  0  0
   33.2334   -8.8926  -15.3234 O   0  0  0  0  0  0  0  0  0  0  0  0
   37.0749  -10.6019  -15.2473 C   0  0  0  0  0  0  0  0  0  0  0  0
   35.9312   -9.6244  -15.1230 C   0  0  2  0  0  0  0  0  0  0  0  0
   35.1275   -9.7106  -16.2995 N   0  0  0  0  0  0  0  0  0  0  0  0
   36.3918   -8.2446  -14.8334 C   0  0  0  0  0  0  0  0  0  0  0  0
   37.0838   -8.0183  -13.8079 O   0  0  0  0  0  0  0  0  0  0  0  0
   36.9102   -5.0040  -16.6068 C   0  0  0  0  0  0  0  0  0  0  0  0
   36.5793   -5.7949  -15.3882 C   0  0  2  0  0  0  0  0  0  0  0  0
   36.0972   -7.1242  -15.6588 N   0  0  0  0  0  0  0  0  0  0  0  0
   35.6540   -5.0296  -14.5151 C   0  0  0  0  0  0  0  0  0  0  0  0
   34.4267   -5.2988  -14.5098 O   0  0  0  0  0  0  0  0  0  0  0  0
   36.1047   -4.0174  -13.6976 O   0  0  0  0  0  0  0  0  0  0  0  0
  1  2  1  0
  3  2  1  0
  3  4  1  1
  5  3  1  0
  6  5  2  0
  8  7  1  6
  8  9  1  0
  9  5  1  0
 10  8  1  0
 10 14  1  0
 11 10  2  0
 13 12  1  6
 13 14  1  0
 13 15  1  0
 15 17  1  0
 16 15  2  0
M  END
$$$$
