SAA.pdb
     RDKit          3D

 17 16  0  0  1  0  0  0  0  0999 V2000
   22.6825   -9.8307  -20.5190 O   0  0  0  0  0  0  0  0  0  0  0  0
   23.6175  -10.7773  -20.1741 C   0  0  0  0  0  0  0  0  0  0  0  0
   23.1963  -11.6528  -19.0296 C   0  0  2  0  0  0  0  0  0  0  0  0
   22.0859  -12.5075  -19.3925 N   0  0  0  0  0  0  0  0  0  0  0  0
   22.9496  -10.9227  -17.7806 C   0  0  0  0  0  0  0  0  0  0  0  0
   21.8065  -10.6894  -17.3131 O   0  0  0  0  0  0  0  0  0  0  0  0
   25.3321   -9.6337  -15.1923 C   0  0  0  0  0  0  0  0  0  0  0  0
   23.9658   -9.6904  -15.8319 C   0  0  2  0  0  0  0  0  0  0  0  0
   24.0592  -10.4428  -17.0414 N   0  0  0  0  0  0  0  0  0  0  0  0
   23.3739   -8.3448  -16.0285 C   0  0  0  0  0  0  0  0  0  0  0  0
   23.6626   -7.6782  -17.0552 O   0  0  0  0  0  0  0  0  0  0  0  0
   20.4597   -6.3487  -14.8447 C   0  0  0  0  0  0  0  0  0  0  0  0
   21.8623   -6.4527  -15.3365 C   0  0  2  0  0  0  0  0  0  0  0  0
   22.4750   -7.7355  -15.1098 N   0  0  0  0  0  0  0  0  0  0  0  0
   22.6797   -5.3373  -14.7961 C   0  0  0  0  0  0  0  0  0  0  0  0
   23.5091   -5.5528  -13.8771 O   0  0  0  0  0  0  0  0  0  0  0  0
   22.5564   -4.0531  -15.2773 O   0  0  0  0  0  0  0  0  0  0  0  0
  1  2  1  0
  3  2  1  0
  3  4  1  6
  5  3  1  0
  6  5  2  0
  8  7  1  6
  8  9  1  0
  9  5  1  0
 10  8  1  0
 10 14  1  0
 11 10  2  0
 13 12  1  1
 13 14  1  0
 13 15  1  0
 15 17  1  0
 16 15  2  0
M  END
$$$$
