SAA.pdb
     RDKit          3D

 17 16  0  0  1  0  0  0  0  0999 V2000
   17.5714  -13.8013  -15.6596 O   0  0  0  0  0  0  0  0  0  0  0  0
   18.0071  -12.6108  -16.1907 C   0  0  0  0  0  0  0  0  0  0  0  0
   18.0641  -11.4899  -15.1936 C   0  0  2  0  0  0  0  0  0  0  0  0
   16.7478  -11.1523  -14.6951 N   0  0  0  0  0  0  0  0  0  0  0  0
   18.7985  -10.3100  -15.6652 C   0  0  0  0  0  0  0  0  0  0  0  0
   19.9880  -10.3341  -16.0705 O   0  0  0  0  0  0  0  0  0  0  0  0
   17.6530   -6.7950  -16.2609 C   0  0  0  0  0  0  0  0  0  0  0  0
   18.7413   -7.8241  -16.0720 C   0  0  2  0  0  0  0  0  0  0  0  0
   18.1404   -9.0551  -15.6708 N   0  0  0  0  0  0  0  0  0  0  0  0
   19.8025   -7.3652  -15.1430 C   0  0  0  0  0  0  0  0  0  0  0  0
   19.6601   -7.5232  -13.9035 O   0  0  0  0  0  0  0  0  0  0  0  0
   23.3923   -6.2082  -15.2765 C   0  0  0  0  0  0  0  0  0  0  0  0
   22.0406   -6.3161  -14.6590 C   0  0  2  0  0  0  0  0  0  0  0  0
   21.0074   -6.7396  -15.5676 N   0  0  0  0  0  0  0  0  0  0  0  0
   21.6919   -5.0518  -13.9631 C   0  0  0  0  0  0  0  0  0  0  0  0
   22.3415   -4.6916  -12.9495 O   0  0  0  0  0  0  0  0  0  0  0  0
   20.6627   -4.2479  -14.3995 O   0  0  0  0  0  0  0  0  0  0  0  0
  1  2  1  0
  3  2  1  0
  3  4  1  6
  5  3  1  0
  6  5  2  0
  8  7  1  1
  8  9  1  0
  9  5  1  0
 10  8  1  0
 10 14  1  0
 11 10  2  0
 13 12  1  6
 13 14  1  0
 13 15  1  0
 15 17  1  0
 16 15  2  0
M  END
$$$$
