SAA.pdb
     RDKit          3D

 17 16  0  0  1  0  0  0  0  0999 V2000
   14.5056   -9.0198  -15.0069 O   0  0  0  0  0  0  0  0  0  0  0  0
   15.7603   -8.5854  -14.6516 C   0  0  0  0  0  0  0  0  0  0  0  0
   16.6961   -9.6941  -14.2659 C   0  0  2  0  0  0  0  0  0  0  0  0
   16.1936  -10.4476  -13.1368 N   0  0  0  0  0  0  0  0  0  0  0  0
   18.0846   -9.2606  -14.0702 C   0  0  0  0  0  0  0  0  0  0  0  0
   18.5394   -8.8166  -12.9859 O   0  0  0  0  0  0  0  0  0  0  0  0
   21.0448   -9.4069  -16.3632 C   0  0  0  0  0  0  0  0  0  0  0  0
   20.3360   -8.8844  -15.1369 C   0  0  2  0  0  0  0  0  0  0  0  0
   18.9838   -9.3407  -15.1624 N   0  0  0  0  0  0  0  0  0  0  0  0
   20.4503   -7.4122  -14.9984 C   0  0  0  0  0  0  0  0  0  0  0  0
   19.6019   -6.6643  -15.5483 O   0  0  0  0  0  0  0  0  0  0  0  0
   22.3995   -4.9277  -12.9093 C   0  0  0  0  0  0  0  0  0  0  0  0
   21.5222   -5.3445  -14.0392 C   0  0  2  0  0  0  0  0  0  0  0  0
   21.4836   -6.7659  -14.2649 N   0  0  0  0  0  0  0  0  0  0  0  0
   21.8758   -4.5908  -15.2685 C   0  0  0  0  0  0  0  0  0  0  0  0
   22.5279   -5.1515  -16.1847 O   0  0  0  0  0  0  0  0  0  0  0  0
   21.5060   -3.2756  -15.4401 O   0  0  0  0  0  0  0  0  0  0  0  0
  1  2  1  0
  3  2  1  0
  3  4  1  1
  5  3  1  0
  6  5  2  0
  8  7  1  6
  8  9  1  0
  9  5  1  0
 10  8  1  0
 10 14  1  0
 11 10  2  0
 13 12  1  1
 13 14  1  0
 13 15  1  0
 15 17  1  0
 16 15  2  0
M  END
$$$$
