MWR.pdb
     RDKit          3D

 34 35  0  0  1  0  0  0  0  0999 V2000
   30.0482  -16.9385  -15.4689 C   0  0  0  0  0  0  0  0  0  0  0  0
   29.2256  -18.2780  -14.5738 S   0  0  0  0  0  0  0  0  0  0  0  0
   27.4334  -18.0932  -14.8366 C   0  0  0  0  0  0  0  0  0  0  0  0
   26.7576  -19.1568  -14.0171 C   0  0  0  0  0  0  0  0  0  0  0  0
   27.7314  -20.0821  -13.3364 C   0  0  2  0  0  0  0  0  0  0  0  0
   28.2999  -20.9787  -14.3744 N   0  0  0  0  0  0  0  0  0  0  0  0
   27.1009  -21.0005  -12.3563 C   0  0  0  0  0  0  0  0  0  0  0  0
   26.6385  -22.1263  -12.7021 O   0  0  0  0  0  0  0  0  0  0  0  0
   26.9680  -20.7040  -10.9800 N   0  0  0  0  0  0  0  0  0  0  0  0
   25.9828  -21.1279  -10.0807 C   0  0  1  0  0  0  0  0  0  0  0  0
   26.3437  -21.4744   -8.6724 C   0  0  0  0  0  0  0  0  0  0  0  0
   26.9039  -20.3303   -7.8965 C   0  0  0  0  0  0  0  0  0  0  0  0
   26.7803  -18.9749   -8.0762 C   0  0  0  0  0  0  0  0  0  0  0  0
   27.4568  -18.2870   -7.1192 N   0  0  0  0  0  0  0  0  0  0  0  0
   28.0297  -19.1836   -6.3022 C   0  0  0  0  0  0  0  0  0  0  0  0
   28.8250  -19.0458   -5.1666 C   0  0  0  0  0  0  0  0  0  0  0  0
   29.2798  -20.1671   -4.5077 C   0  0  0  0  0  0  0  0  0  0  0  0
   28.9707  -21.4409   -4.9389 C   0  0  0  0  0  0  0  0  0  0  0  0
   28.1707  -21.5599   -6.0818 C   0  0  0  0  0  0  0  0  0  0  0  0
   27.7127  -20.4459   -6.7465 C   0  0  0  0  0  0  0  0  0  0  0  0
   24.7793  -20.2909  -10.1074 C   0  0  0  0  0  0  0  0  0  0  0  0
   24.9765  -19.0329  -10.2533 O   0  0  0  0  0  0  0  0  0  0  0  0
   25.2532  -22.7092  -16.5017 N   0  0  0  0  0  0  0  0  0  0  0  0
   24.5026  -21.5801  -16.0889 C   0  0  0  0  0  0  0  0  0  0  0  0
   24.7951  -20.4226  -16.5508 N   0  0  0  0  0  0  0  0  0  0  0  0
   23.4256  -21.6900  -15.1713 N   0  0  0  0  0  0  0  0  0  0  0  0
   22.7332  -20.5038  -14.7579 C   0  0  0  0  0  0  0  0  0  0  0  0
   22.0019  -20.8251  -13.4568 C   0  0  0  0  0  0  0  0  0  0  0  0
   22.9661  -21.1112  -12.3457 C   0  0  0  0  0  0  0  0  0  0  0  0
   22.5339  -20.4457  -11.0865 C   0  0  2  0  0  0  0  0  0  0  0  0
   23.4524  -20.7786   -9.9852 N   0  0  0  0  0  0  0  0  0  0  0  0
   21.2156  -20.9686  -10.6550 C   0  0  0  0  0  0  0  0  0  0  0  0
   20.9707  -22.1866  -10.4385 O   0  0  0  0  0  0  0  0  0  0  0  0
   20.1361  -20.0898  -10.4606 O   0  0  0  0  0  0  0  0  0  0  0  0
  2  3  1  0
  2  1  1  0
  3  4  1  0
  4  5  1  0
  5  7  1  0
  5  6  1  6
  7  8  2  0
  9 10  1  0
  9  7  1  0
 10 21  1  0
 10 11  1  1
 12 11  1  0
 12 13  2  0
 14 13  1  0
 15 14  1  0
 16 15  2  0
 17 16  1  0
 18 17  2  0
 18 19  1  0
 19 20  2  0
 20 15  1  0
 20 12  1  0
 21 31  1  0
 22 21  2  0
 23 24  1  0
 24 25  2  0
 24 26  1  0
 26 27  1  0
 27 28  1  0
 29 28  1  0
 30 29  1  6
 31 30  1  0
 32 30  1  0
 33 32  2  0
 34 32  1  0
M  END
$$$$
