MWR.pdb
     RDKit          3D

 34 35  0  0  1  0  0  0  0  0999 V2000
   25.5994  -18.1242  -18.6211 C   0  0  0  0  0  0  0  0  0  0  0  0
   27.3208  -17.5704  -18.5769 S   0  0  0  0  0  0  0  0  0  0  0  0
   28.3074  -18.9061  -17.8300 C   0  0  0  0  0  0  0  0  0  0  0  0
   27.4550  -19.5389  -16.7659 C   0  0  0  0  0  0  0  0  0  0  0  0
   28.1991  -20.5600  -15.9463 C   0  0  2  0  0  0  0  0  0  0  0  0
   28.3937  -21.7624  -16.7954 N   0  0  0  0  0  0  0  0  0  0  0  0
   27.4405  -21.0535  -14.7706 C   0  0  0  0  0  0  0  0  0  0  0  0
   26.4294  -21.8033  -14.8987 O   0  0  0  0  0  0  0  0  0  0  0  0
   27.7768  -20.7375  -13.4340 N   0  0  0  0  0  0  0  0  0  0  0  0
   27.0415  -20.9654  -12.2650 C   0  0  1  0  0  0  0  0  0  0  0  0
   27.6780  -20.7868  -10.9247 C   0  0  0  0  0  0  0  0  0  0  0  0
   26.6994  -20.6748   -9.8046 C   0  0  0  0  0  0  0  0  0  0  0  0
   25.4149  -21.1433   -9.6819 C   0  0  0  0  0  0  0  0  0  0  0  0
   24.8851  -20.8187   -8.4733 N   0  0  0  0  0  0  0  0  0  0  0  0
   25.8165  -20.1354   -7.7913 C   0  0  0  0  0  0  0  0  0  0  0  0
   25.8218  -19.5695   -6.5181 C   0  0  0  0  0  0  0  0  0  0  0  0
   26.9456  -18.9152   -6.0631 C   0  0  0  0  0  0  0  0  0  0  0  0
   28.0834  -18.7988   -6.8352 C   0  0  0  0  0  0  0  0  0  0  0  0
   28.0597  -19.3733   -8.1118 C   0  0  0  0  0  0  0  0  0  0  0  0
   26.9417  -20.0279   -8.5746 C   0  0  0  0  0  0  0  0  0  0  0  0
   25.7154  -20.3403  -12.2872 C   0  0  0  0  0  0  0  0  0  0  0  0
   25.7015  -19.0587  -12.2846 O   0  0  0  0  0  0  0  0  0  0  0  0
   22.1245  -20.0781  -18.8007 N   0  0  0  0  0  0  0  0  0  0  0  0
   21.3683  -20.7259  -17.7922 C   0  0  0  0  0  0  0  0  0  0  0  0
   20.1925  -21.1549  -18.0602 N   0  0  0  0  0  0  0  0  0  0  0  0
   21.8758  -20.9177  -16.4808 N   0  0  0  0  0  0  0  0  0  0  0  0
   23.1770  -20.4117  -16.1518 C   0  0  0  0  0  0  0  0  0  0  0  0
   23.4835  -20.8242  -14.7142 C   0  0  0  0  0  0  0  0  0  0  0  0
   22.9337  -19.8332  -13.7336 C   0  0  0  0  0  0  0  0  0  0  0  0
   23.2639  -20.2316  -12.3380 C   0  0  2  0  0  0  0  0  0  0  0  0
   24.4871  -21.0504  -12.3107 N   0  0  0  0  0  0  0  0  0  0  0  0
   22.2038  -21.1112  -11.7901 C   0  0  0  0  0  0  0  0  0  0  0  0
   21.0196  -20.7409  -11.5648 O   0  0  0  0  0  0  0  0  0  0  0  0
   22.4870  -22.4539  -11.4859 O   0  0  0  0  0  0  0  0  0  0  0  0
  2  3  1  0
  2  1  1  0
  3  4  1  0
  4  5  1  0
  5  7  1  0
  5  6  1  6
  7  8  2  0
  9 10  1  0
  9  7  1  0
 10 21  1  0
 10 11  1  1
 12 11  1  0
 12 13  2  0
 14 13  1  0
 15 14  1  0
 16 15  2  0
 17 16  1  0
 18 17  2  0
 18 19  1  0
 19 20  2  0
 20 15  1  0
 20 12  1  0
 21 31  1  0
 22 21  2  0
 23 24  1  0
 24 25  2  0
 24 26  1  0
 26 27  1  0
 27 28  1  0
 29 28  1  0
 30 29  1  6
 31 30  1  0
 32 30  1  0
 33 32  2  0
 34 32  1  0
M  END
$$$$
