MWR.pdb
     RDKit          3D

 34 35  0  0  1  0  0  0  0  0999 V2000
   19.5794  -25.2077  -10.3967 C   0  0  0  0  0  0  0  0  0  0  0  0
   19.9194  -24.2302   -8.9132 S   0  0  0  0  0  0  0  0  0  0  0  0
   20.0853  -22.4916   -9.4285 C   0  0  0  0  0  0  0  0  0  0  0  0
   20.3212  -21.6851   -8.1822 C   0  0  0  0  0  0  0  0  0  0  0  0
   21.7025  -21.8730   -7.6126 C   0  0  2  0  0  0  0  0  0  0  0  0
   21.6814  -21.3823   -6.2115 N   0  0  0  0  0  0  0  0  0  0  0  0
   22.7429  -21.0515   -8.2790 C   0  0  0  0  0  0  0  0  0  0  0  0
   22.5667  -19.8215   -8.5180 O   0  0  0  0  0  0  0  0  0  0  0  0
   23.9953  -21.5609   -8.6931 N   0  0  0  0  0  0  0  0  0  0  0  0
   25.0198  -20.9132   -9.3931 C   0  0  1  0  0  0  0  0  0  0  0  0
   26.4431  -21.0675   -8.9641 C   0  0  0  0  0  0  0  0  0  0  0  0
   26.8526  -20.1195   -7.8878 C   0  0  0  0  0  0  0  0  0  0  0  0
   26.3785  -18.8744   -7.5571 C   0  0  0  0  0  0  0  0  0  0  0  0
   27.0417  -18.3623   -6.4874 N   0  0  0  0  0  0  0  0  0  0  0  0
   27.9564  -19.2662   -6.1053 C   0  0  0  0  0  0  0  0  0  0  0  0
   28.8978  -19.2733   -5.0781 C   0  0  0  0  0  0  0  0  0  0  0  0
   29.7232  -20.3638   -4.9119 C   0  0  0  0  0  0  0  0  0  0  0  0
   29.6493  -21.4661   -5.7389 C   0  0  0  0  0  0  0  0  0  0  0  0
   28.6976  -21.4410   -6.7655 C   0  0  0  0  0  0  0  0  0  0  0  0
   27.8699  -20.3561   -6.9394 C   0  0  0  0  0  0  0  0  0  0  0  0
   24.9067  -21.0605  -10.8475 C   0  0  0  0  0  0  0  0  0  0  0  0
   24.9761  -22.2595  -11.2949 O   0  0  0  0  0  0  0  0  0  0  0  0
   20.6479  -23.5726  -15.9600 N   0  0  0  0  0  0  0  0  0  0  0  0
   20.4984  -23.8946  -14.5879 C   0  0  0  0  0  0  0  0  0  0  0  0
   20.2790  -25.1076  -14.2429 N   0  0  0  0  0  0  0  0  0  0  0  0
   20.5850  -22.9073  -13.5721 N   0  0  0  0  0  0  0  0  0  0  0  0
   20.5867  -21.5211  -13.9402 C   0  0  0  0  0  0  0  0  0  0  0  0
   22.0398  -21.0979  -14.1412 C   0  0  0  0  0  0  0  0  0  0  0  0
   22.7138  -20.8227  -12.8313 C   0  0  0  0  0  0  0  0  0  0  0  0
   24.0991  -20.3222  -13.0445 C   0  0  2  0  0  0  0  0  0  0  0  0
   24.7304  -19.9863  -11.7577 N   0  0  0  0  0  0  0  0  0  0  0  0
   24.0744  -19.0478  -13.8014 C   0  0  0  0  0  0  0  0  0  0  0  0
   23.8800  -17.9158  -13.2807 O   0  0  0  0  0  0  0  0  0  0  0  0
   24.2758  -19.0483  -15.1925 O   0  0  0  0  0  0  0  0  0  0  0  0
  2  3  1  0
  2  1  1  0
  3  4  1  0
  4  5  1  0
  5  7  1  0
  5  6  1  1
  7  8  2  0
  9 10  1  0
  9  7  1  0
 10 21  1  0
 10 11  1  1
 12 11  1  0
 12 13  2  0
 14 13  1  0
 15 14  1  0
 16 15  2  0
 17 16  1  0
 18 17  2  0
 18 19  1  0
 19 20  2  0
 20 15  1  0
 20 12  1  0
 21 31  1  0
 22 21  2  0
 23 24  1  0
 24 25  2  0
 24 26  1  0
 26 27  1  0
 27 28  1  0
 29 28  1  0
 30 29  1  1
 31 30  1  0
 32 30  1  0
 33 32  2  0
 34 32  1  0
M  END
$$$$
