MWR.pdb
     RDKit          3D

 34 35  0  0  1  0  0  0  0  0999 V2000
   21.6511  -10.1441  -20.7968 C   0  0  0  0  0  0  0  0  0  0  0  0
   22.7157  -11.2193  -19.8054 S   0  0  0  0  0  0  0  0  0  0  0  0
   22.9939  -12.7453  -20.7589 C   0  0  0  0  0  0  0  0  0  0  0  0
   23.7127  -13.7046  -19.8521 C   0  0  0  0  0  0  0  0  0  0  0  0
   22.8887  -14.1179  -18.6613 C   0  0  2  0  0  0  0  0  0  0  0  0
   22.9483  -13.0150  -17.6690 N   0  0  0  0  0  0  0  0  0  0  0  0
   23.4272  -15.2972  -17.9396 C   0  0  0  0  0  0  0  0  0  0  0  0
   23.7718  -16.3502  -18.5506 O   0  0  0  0  0  0  0  0  0  0  0  0
   23.6005  -15.3437  -16.5370 N   0  0  0  0  0  0  0  0  0  0  0  0
   24.1353  -16.3710  -15.7509 C   0  0  1  0  0  0  0  0  0  0  0  0
   25.2930  -16.1042  -14.8441 C   0  0  0  0  0  0  0  0  0  0  0  0
   26.5247  -15.6578  -15.5573 C   0  0  0  0  0  0  0  0  0  0  0  0
   26.9385  -14.4064  -15.9412 C   0  0  0  0  0  0  0  0  0  0  0  0
   28.1448  -14.4558  -16.5650 N   0  0  0  0  0  0  0  0  0  0  0  0
   28.5344  -15.7392  -16.5956 C   0  0  0  0  0  0  0  0  0  0  0  0
   29.6729  -16.3632  -17.1014 C   0  0  0  0  0  0  0  0  0  0  0  0
   29.8149  -17.7287  -16.9860 C   0  0  0  0  0  0  0  0  0  0  0  0
   28.8555  -18.5121  -16.3777 C   0  0  0  0  0  0  0  0  0  0  0  0
   27.7184  -17.8677  -15.8755 C   0  0  0  0  0  0  0  0  0  0  0  0
   27.5677  -16.5049  -15.9871 C   0  0  0  0  0  0  0  0  0  0  0  0
   23.1118  -17.1558  -15.0538 C   0  0  0  0  0  0  0  0  0  0  0  0
   22.4797  -16.5463  -14.1201 O   0  0  0  0  0  0  0  0  0  0  0  0
   17.4058  -19.8863  -17.8463 N   0  0  0  0  0  0  0  0  0  0  0  0
   17.0702  -19.5102  -16.5217 C   0  0  0  0  0  0  0  0  0  0  0  0
   16.0909  -20.0840  -15.9299 N   0  0  0  0  0  0  0  0  0  0  0  0
   17.7911  -18.5085  -15.8210 N   0  0  0  0  0  0  0  0  0  0  0  0
   18.7791  -17.7380  -16.5191 C   0  0  0  0  0  0  0  0  0  0  0  0
   20.1394  -18.3758  -16.2476 C   0  0  0  0  0  0  0  0  0  0  0  0
   20.4266  -18.4431  -14.7783 C   0  0  0  0  0  0  0  0  0  0  0  0
   21.7305  -19.1144  -14.5247 C   0  0  2  0  0  0  0  0  0  0  0  0
   22.7918  -18.5073  -15.3446 N   0  0  0  0  0  0  0  0  0  0  0  0
   21.6734  -20.5298  -14.9619 C   0  0  0  0  0  0  0  0  0  0  0  0
   20.9319  -21.4055  -14.4388 O   0  0  0  0  0  0  0  0  0  0  0  0
   22.4787  -20.9741  -16.0247 O   0  0  0  0  0  0  0  0  0  0  0  0
  2  3  1  0
  2  1  1  0
  3  4  1  0
  4  5  1  0
  5  7  1  0
  5  6  1  1
  7  8  2  0
  9 10  1  0
  9  7  1  0
 10 21  1  0
 10 11  1  1
 12 11  1  0
 12 13  2  0
 14 13  1  0
 15 14  1  0
 16 15  2  0
 17 16  1  0
 18 17  2  0
 18 19  1  0
 19 20  2  0
 20 15  1  0
 20 12  1  0
 21 31  1  0
 22 21  2  0
 23 24  1  0
 24 25  2  0
 24 26  1  0
 26 27  1  0
 27 28  1  0
 29 28  1  0
 30 29  1  6
 31 30  1  0
 32 30  1  0
 33 32  2  0
 34 32  1  0
M  END
$$$$
