MWR.pdb
     RDKit          3D

 34 35  0  0  1  0  0  0  0  0999 V2000
   25.9858  -20.8143  -19.0022 C   0  0  0  0  0  0  0  0  0  0  0  0
   27.7227  -20.3899  -19.2757 S   0  0  0  0  0  0  0  0  0  0  0  0
   28.6780  -21.0636  -17.8796 C   0  0  0  0  0  0  0  0  0  0  0  0
   27.7165  -21.2507  -16.7395 C   0  0  0  0  0  0  0  0  0  0  0  0
   28.4017  -21.5861  -15.4412 C   0  0  2  0  0  0  0  0  0  0  0  0
   29.0515  -22.9110  -15.6053 N   0  0  0  0  0  0  0  0  0  0  0  0
   27.4701  -21.7673  -14.3007 C   0  0  0  0  0  0  0  0  0  0  0  0
   26.7994  -22.8298  -14.1524 O   0  0  0  0  0  0  0  0  0  0  0  0
   27.2582  -20.7898  -13.3010 N   0  0  0  0  0  0  0  0  0  0  0  0
   26.3726  -20.8182  -12.2175 C   0  0  1  0  0  0  0  0  0  0  0  0
   26.6862  -20.0653  -10.9651 C   0  0  0  0  0  0  0  0  0  0  0  0
   27.9011  -20.5595  -10.2549 C   0  0  0  0  0  0  0  0  0  0  0  0
   28.9912  -21.2560  -10.7146 C   0  0  0  0  0  0  0  0  0  0  0  0
   29.8802  -21.4959   -9.7153 N   0  0  0  0  0  0  0  0  0  0  0  0
   29.3830  -20.9589   -8.5910 C   0  0  0  0  0  0  0  0  0  0  0  0
   29.8648  -20.9009   -7.2850 C   0  0  0  0  0  0  0  0  0  0  0  0
   29.1281  -20.2648   -6.3099 C   0  0  0  0  0  0  0  0  0  0  0  0
   27.9118  -19.6738   -6.5850 C   0  0  0  0  0  0  0  0  0  0  0  0
   27.4436  -19.7423   -7.9027 C   0  0  0  0  0  0  0  0  0  0  0  0
   28.1721  -20.3760   -8.8826 C   0  0  0  0  0  0  0  0  0  0  0  0
   24.9766  -20.5991  -12.6082 C   0  0  0  0  0  0  0  0  0  0  0  0
   24.7942  -20.1035  -13.7760 O   0  0  0  0  0  0  0  0  0  0  0  0
   21.6638  -26.0028  -15.0837 N   0  0  0  0  0  0  0  0  0  0  0  0
   20.5555  -25.6108  -14.2921 C   0  0  0  0  0  0  0  0  0  0  0  0
   19.9297  -26.4879  -13.6011 N   0  0  0  0  0  0  0  0  0  0  0  0
   20.1112  -24.2640  -14.2382 N   0  0  0  0  0  0  0  0  0  0  0  0
   20.8597  -23.2510  -14.9243 C   0  0  0  0  0  0  0  0  0  0  0  0
   21.0192  -22.0689  -13.9715 C   0  0  0  0  0  0  0  0  0  0  0  0
   22.3903  -22.0366  -13.3673 C   0  0  0  0  0  0  0  0  0  0  0  0
   22.5411  -20.8657  -12.4610 C   0  0  2  0  0  0  0  0  0  0  0  0
   23.8530  -20.8951  -11.7937 N   0  0  0  0  0  0  0  0  0  0  0  0
   21.5513  -20.9373  -11.3598 C   0  0  0  0  0  0  0  0  0  0  0  0
   21.8377  -21.2176  -10.1641 O   0  0  0  0  0  0  0  0  0  0  0  0
   20.1922  -20.6843  -11.6138 O   0  0  0  0  0  0  0  0  0  0  0  0
  2  3  1  0
  2  1  1  0
  3  4  1  0
  4  5  1  0
  5  7  1  0
  5  6  1  6
  7  8  2  0
  9 10  1  0
  9  7  1  0
 10 21  1  0
 10 11  1  1
 12 11  1  0
 12 13  2  0
 14 13  1  0
 15 14  1  0
 16 15  2  0
 17 16  1  0
 18 17  2  0
 18 19  1  0
 19 20  2  0
 20 15  1  0
 20 12  1  0
 21 31  1  0
 22 21  2  0
 23 24  1  0
 24 25  2  0
 24 26  1  0
 26 27  1  0
 27 28  1  0
 29 28  1  0
 30 29  1  6
 31 30  1  0
 32 30  1  0
 33 32  2  0
 34 32  1  0
M  END
$$$$
