MWR.pdb
     RDKit          3D

 34 35  0  0  1  0  0  0  0  0999 V2000
   28.6608  -19.8931   -4.4298 C   0  0  0  0  0  0  0  0  0  0  0  0
   28.5083  -19.9184   -6.2320 S   0  0  0  0  0  0  0  0  0  0  0  0
   26.8158  -19.3900   -6.6463 C   0  0  0  0  0  0  0  0  0  0  0  0
   26.6747  -19.4997   -8.1388 C   0  0  0  0  0  0  0  0  0  0  0  0
   25.5819  -20.4472   -8.5582 C   0  0  2  0  0  0  0  0  0  0  0  0
   26.1441  -21.8212   -8.5320 N   0  0  0  0  0  0  0  0  0  0  0  0
   25.1281  -20.2574   -9.9579 C   0  0  0  0  0  0  0  0  0  0  0  0
   24.6499  -19.1566  -10.3583 O   0  0  0  0  0  0  0  0  0  0  0  0
   25.1921  -21.2682  -10.9448 N   0  0  0  0  0  0  0  0  0  0  0  0
   24.8124  -21.2080  -12.2906 C   0  0  1  0  0  0  0  0  0  0  0  0
   25.7493  -21.6657  -13.3614 C   0  0  0  0  0  0  0  0  0  0  0  0
   26.9682  -20.8167  -13.4966 C   0  0  0  0  0  0  0  0  0  0  0  0
   28.2191  -20.9440  -12.9454 C   0  0  0  0  0  0  0  0  0  0  0  0
   29.0400  -19.9387  -13.3482 N   0  0  0  0  0  0  0  0  0  0  0  0
   28.3366  -19.1431  -14.1679 C   0  0  0  0  0  0  0  0  0  0  0  0
   28.6695  -17.9838  -14.8653 C   0  0  0  0  0  0  0  0  0  0  0  0
   27.7264  -17.3645  -15.6560 C   0  0  0  0  0  0  0  0  0  0  0  0
   26.4446  -17.8593  -15.7840 C   0  0  0  0  0  0  0  0  0  0  0  0
   26.1282  -19.0249  -15.0758 C   0  0  0  0  0  0  0  0  0  0  0  0
   27.0633  -19.6495  -14.2833 C   0  0  0  0  0  0  0  0  0  0  0  0
   23.4651  -21.7328  -12.5334 C   0  0  0  0  0  0  0  0  0  0  0  0
   23.3401  -23.0064  -12.4621 O   0  0  0  0  0  0  0  0  0  0  0  0
   17.5395  -23.4785   -7.8736 N   0  0  0  0  0  0  0  0  0  0  0  0
   18.4368  -24.2782   -8.6245 C   0  0  0  0  0  0  0  0  0  0  0  0
   18.8523  -25.3879   -8.1403 N   0  0  0  0  0  0  0  0  0  0  0  0
   18.8951  -23.8869   -9.9093 N   0  0  0  0  0  0  0  0  0  0  0  0
   18.3546  -22.7051  -10.5164 C   0  0  0  0  0  0  0  0  0  0  0  0
   19.0557  -22.5129  -11.8589 C   0  0  0  0  0  0  0  0  0  0  0  0
   20.4041  -21.8824  -11.6845 C   0  0  0  0  0  0  0  0  0  0  0  0
   21.0572  -21.6581  -13.0030 C   0  0  2  0  0  0  0  0  0  0  0  0
   22.3292  -20.9368  -12.8329 N   0  0  0  0  0  0  0  0  0  0  0  0
   20.2232  -20.7674  -13.8448 C   0  0  0  0  0  0  0  0  0  0  0  0
   20.5031  -19.5647  -14.1007 O   0  0  0  0  0  0  0  0  0  0  0  0
   19.0333  -21.2477  -14.4183 O   0  0  0  0  0  0  0  0  0  0  0  0
  2  3  1  0
  2  1  1  0
  3  4  1  0
  4  5  1  0
  5  7  1  0
  5  6  1  6
  7  8  2  0
  9 10  1  0
  9  7  1  0
 10 21  1  0
 10 11  1  6
 12 11  1  0
 12 13  2  0
 14 13  1  0
 15 14  1  0
 16 15  2  0
 17 16  1  0
 18 17  2  0
 18 19  1  0
 19 20  2  0
 20 15  1  0
 20 12  1  0
 21 31  1  0
 22 21  2  0
 23 24  1  0
 24 25  2  0
 24 26  1  0
 26 27  1  0
 27 28  1  0
 29 28  1  0
 30 29  1  1
 31 30  1  0
 32 30  1  0
 33 32  2  0
 34 32  1  0
M  END
$$$$
