MWR.pdb
     RDKit          3D

 34 35  0  0  1  0  0  0  0  0999 V2000
   30.4293  -21.9942   -7.3721 C   0  0  0  0  0  0  0  0  0  0  0  0
   32.0035  -21.9115   -8.2593 S   0  0  0  0  0  0  0  0  0  0  0  0
   31.6358  -22.0207  -10.0393 C   0  0  0  0  0  0  0  0  0  0  0  0
   30.5160  -21.0570  -10.3162 C   0  0  0  0  0  0  0  0  0  0  0  0
   29.2270  -21.7432  -10.6841 C   0  0  2  0  0  0  0  0  0  0  0  0
   29.5535  -22.8283  -11.6435 N   0  0  0  0  0  0  0  0  0  0  0  0
   28.2727  -20.8742  -11.4159 C   0  0  0  0  0  0  0  0  0  0  0  0
   27.7825  -19.8336  -10.8889 O   0  0  0  0  0  0  0  0  0  0  0  0
   27.8402  -21.1272  -12.7382 N   0  0  0  0  0  0  0  0  0  0  0  0
   26.9261  -20.4081  -13.5169 C   0  0  1  0  0  0  0  0  0  0  0  0
   27.2751  -20.0056  -14.9133 C   0  0  0  0  0  0  0  0  0  0  0  0
   26.2758  -19.0955  -15.5440 C   0  0  0  0  0  0  0  0  0  0  0  0
   25.2265  -19.3587  -16.3892 C   0  0  0  0  0  0  0  0  0  0  0  0
   24.5605  -18.2206  -16.7177 N   0  0  0  0  0  0  0  0  0  0  0  0
   25.1653  -17.2003  -16.0909 C   0  0  0  0  0  0  0  0  0  0  0  0
   24.9092  -15.8310  -16.0627 C   0  0  0  0  0  0  0  0  0  0  0  0
   25.7092  -14.9991  -15.3103 C   0  0  0  0  0  0  0  0  0  0  0  0
   26.7709  -15.4812  -14.5723 C   0  0  0  0  0  0  0  0  0  0  0  0
   27.0131  -16.8596  -14.6129 C   0  0  0  0  0  0  0  0  0  0  0  0
   26.2200  -17.6976  -15.3620 C   0  0  0  0  0  0  0  0  0  0  0  0
   25.5687  -20.9602  -13.4695 C   0  0  0  0  0  0  0  0  0  0  0  0
   25.4734  -22.2257  -13.6486 O   0  0  0  0  0  0  0  0  0  0  0  0
   17.9079  -21.9255  -10.9857 N   0  0  0  0  0  0  0  0  0  0  0  0
   18.7789  -23.0431  -11.0164 C   0  0  0  0  0  0  0  0  0  0  0  0
   18.2947  -24.2189  -11.1634 N   0  0  0  0  0  0  0  0  0  0  0  0
   20.1852  -22.9018  -10.8889 N   0  0  0  0  0  0  0  0  0  0  0  0
   20.7418  -21.5978  -10.6714 C   0  0  0  0  0  0  0  0  0  0  0  0
   20.9085  -20.9329  -12.0356 C   0  0  0  0  0  0  0  0  0  0  0  0
   22.2253  -20.2252  -12.1400 C   0  0  0  0  0  0  0  0  0  0  0  0
   23.1519  -20.9629  -13.0413 C   0  0  2  0  0  0  0  0  0  0  0  0
   24.3933  -20.1979  -13.2437 N   0  0  0  0  0  0  0  0  0  0  0  0
   22.5588  -21.0925  -14.3937 C   0  0  0  0  0  0  0  0  0  0  0  0
   21.9554  -22.1188  -14.8095 O   0  0  0  0  0  0  0  0  0  0  0  0
   22.6481  -20.0297  -15.3091 O   0  0  0  0  0  0  0  0  0  0  0  0
  2  3  1  0
  2  1  1  0
  3  4  1  0
  4  5  1  0
  5  7  1  0
  5  6  1  6
  7  8  2  0
  9 10  1  0
  9  7  1  0
 10 21  1  0
 10 11  1  6
 12 11  1  0
 12 13  2  0
 14 13  1  0
 15 14  1  0
 16 15  2  0
 17 16  1  0
 18 17  2  0
 18 19  1  0
 19 20  2  0
 20 15  1  0
 20 12  1  0
 21 31  1  0
 22 21  2  0
 23 24  1  0
 24 25  2  0
 24 26  1  0
 26 27  1  0
 27 28  1  0
 29 28  1  0
 30 29  1  1
 31 30  1  0
 32 30  1  0
 33 32  2  0
 34 32  1  0
M  END
$$$$
