MWR.pdb
     RDKit          3D

 34 35  0  0  1  0  0  0  0  0999 V2000
   20.7369  -24.1784   -8.6398 C   0  0  0  0  0  0  0  0  0  0  0  0
   20.2840  -22.4274   -8.6733 S   0  0  0  0  0  0  0  0  0  0  0  0
   20.3639  -21.8736  -10.4060 C   0  0  0  0  0  0  0  0  0  0  0  0
   21.8194  -21.7648  -10.7653 C   0  0  0  0  0  0  0  0  0  0  0  0
   22.5209  -20.6439  -10.0448 C   0  0  2  0  0  0  0  0  0  0  0  0
   21.7873  -19.3884  -10.3447 N   0  0  0  0  0  0  0  0  0  0  0  0
   23.9014  -20.3925  -10.5268 C   0  0  0  0  0  0  0  0  0  0  0  0
   24.1281  -19.7118  -11.5690 O   0  0  0  0  0  0  0  0  0  0  0  0
   25.0582  -20.8792   -9.8752 N   0  0  0  0  0  0  0  0  0  0  0  0
   26.4014  -20.7266  -10.2381 C   0  0  1  0  0  0  0  0  0  0  0  0
   27.4863  -20.9669   -9.2386 C   0  0  0  0  0  0  0  0  0  0  0  0
   27.4823  -19.9999   -8.1030 C   0  0  0  0  0  0  0  0  0  0  0  0
   27.1225  -18.6762   -8.0496 C   0  0  0  0  0  0  0  0  0  0  0  0
   27.2678  -18.1759   -6.7946 N   0  0  0  0  0  0  0  0  0  0  0  0
   27.7233  -19.1660   -6.0124 C   0  0  0  0  0  0  0  0  0  0  0  0
   28.0424  -19.2212   -4.6572 C   0  0  0  0  0  0  0  0  0  0  0  0
   28.4930  -20.4008   -4.1063 C   0  0  0  0  0  0  0  0  0  0  0  0
   28.6415  -21.5470   -4.8602 C   0  0  0  0  0  0  0  0  0  0  0  0
   28.3163  -21.4726   -6.2200 C   0  0  0  0  0  0  0  0  0  0  0  0
   27.8663  -20.2988   -6.7788 C   0  0  0  0  0  0  0  0  0  0  0  0
   26.7308  -21.3712  -11.5131 C   0  0  0  0  0  0  0  0  0  0  0  0
   26.6450  -22.6498  -11.5316 O   0  0  0  0  0  0  0  0  0  0  0  0
   27.8293  -26.0373  -16.2322 N   0  0  0  0  0  0  0  0  0  0  0  0
   26.7984  -25.6907  -17.1408 C   0  0  0  0  0  0  0  0  0  0  0  0
   26.6844  -26.3318  -18.2429 N   0  0  0  0  0  0  0  0  0  0  0  0
   25.8775  -24.6461  -16.8675 N   0  0  0  0  0  0  0  0  0  0  0  0
   25.7814  -24.1275  -15.5337 C   0  0  0  0  0  0  0  0  0  0  0  0
   25.7894  -22.6038  -15.6283 C   0  0  0  0  0  0  0  0  0  0  0  0
   25.8005  -21.9730  -14.2689 C   0  0  0  0  0  0  0  0  0  0  0  0
   27.1619  -21.4780  -13.9270 C   0  0  2  0  0  0  0  0  0  0  0  0
   27.1260  -20.6822  -12.6890 N   0  0  0  0  0  0  0  0  0  0  0  0
   27.6447  -20.5407  -14.9691 C   0  0  0  0  0  0  0  0  0  0  0  0
   27.6051  -19.2843  -14.8680 O   0  0  0  0  0  0  0  0  0  0  0  0
   28.1910  -21.0353  -16.1659 O   0  0  0  0  0  0  0  0  0  0  0  0
  2  3  1  0
  2  1  1  0
  3  4  1  0
  4  5  1  0
  5  7  1  0
  5  6  1  6
  7  8  2  0
  9 10  1  0
  9  7  1  0
 10 21  1  0
 10 11  1  1
 12 11  1  0
 12 13  2  0
 14 13  1  0
 15 14  1  0
 16 15  2  0
 17 16  1  0
 18 17  2  0
 18 19  1  0
 19 20  2  0
 20 15  1  0
 20 12  1  0
 21 31  1  0
 22 21  2  0
 23 24  1  0
 24 25  2  0
 24 26  1  0
 26 27  1  0
 27 28  1  0
 29 28  1  0
 30 29  1  6
 31 30  1  0
 32 30  1  0
 33 32  2  0
 34 32  1  0
M  END
$$$$
