MWR.pdb
     RDKit          3D

 34 35  0  0  1  0  0  0  0  0999 V2000
   30.4693  -16.2607  -16.8894 C   0  0  0  0  0  0  0  0  0  0  0  0
   29.5823  -17.7092  -16.2674 S   0  0  0  0  0  0  0  0  0  0  0  0
   28.3435  -17.1208  -15.0696 C   0  0  0  0  0  0  0  0  0  0  0  0
   27.5787  -18.3270  -14.6008 C   0  0  0  0  0  0  0  0  0  0  0  0
   28.3376  -19.1495  -13.5933 C   0  0  2  0  0  0  0  0  0  0  0  0
   29.2239  -20.0742  -14.3442 N   0  0  0  0  0  0  0  0  0  0  0  0
   27.4773  -20.0403  -12.7761 C   0  0  0  0  0  0  0  0  0  0  0  0
   27.0632  -21.1518  -13.2165 O   0  0  0  0  0  0  0  0  0  0  0  0
   27.0572  -19.7315  -11.4616 N   0  0  0  0  0  0  0  0  0  0  0  0
   26.1959  -20.4482  -10.6229 C   0  0  1  0  0  0  0  0  0  0  0  0
   26.2397  -20.2447   -9.1429 C   0  0  0  0  0  0  0  0  0  0  0  0
   27.5741  -20.5224   -8.5372 C   0  0  0  0  0  0  0  0  0  0  0  0
   28.6978  -21.1080   -9.0655 C   0  0  0  0  0  0  0  0  0  0  0  0
   29.7050  -21.1532   -8.1545 N   0  0  0  0  0  0  0  0  0  0  0  0
   29.2528  -20.5972   -7.0204 C   0  0  0  0  0  0  0  0  0  0  0  0
   29.8484  -20.3755   -5.7806 C   0  0  0  0  0  0  0  0  0  0  0  0
   29.1321  -19.7639   -4.7751 C   0  0  0  0  0  0  0  0  0  0  0  0
   27.8260  -19.3565   -4.9553 C   0  0  0  0  0  0  0  0  0  0  0  0
   27.2440  -19.5876   -6.2076 C   0  0  0  0  0  0  0  0  0  0  0  0
   27.9514  -20.1984   -7.2170 C   0  0  0  0  0  0  0  0  0  0  0  0
   24.8080  -20.4587  -11.0953 C   0  0  0  0  0  0  0  0  0  0  0  0
   24.2936  -19.3115  -11.3446 O   0  0  0  0  0  0  0  0  0  0  0  0
   22.5848  -26.4741  -15.9602 N   0  0  0  0  0  0  0  0  0  0  0  0
   21.9678  -26.1234  -14.7334 C   0  0  0  0  0  0  0  0  0  0  0  0
   20.9981  -26.8304  -14.2880 N   0  0  0  0  0  0  0  0  0  0  0  0
   22.3932  -25.0031  -13.9731 N   0  0  0  0  0  0  0  0  0  0  0  0
   23.5807  -24.3003  -14.3648 C   0  0  0  0  0  0  0  0  0  0  0  0
   23.8038  -23.1734  -13.3593 C   0  0  0  0  0  0  0  0  0  0  0  0
   22.5073  -22.5421  -12.9513 C   0  0  0  0  0  0  0  0  0  0  0  0
   22.7387  -21.4445  -11.9730 C   0  0  2  0  0  0  0  0  0  0  0  0
   24.0277  -21.6284  -11.2861 N   0  0  0  0  0  0  0  0  0  0  0  0
   21.7218  -21.4936  -10.8954 C   0  0  0  0  0  0  0  0  0  0  0  0
   21.9533  -21.8787   -9.7171 O   0  0  0  0  0  0  0  0  0  0  0  0
   20.3989  -21.0952  -11.1537 O   0  0  0  0  0  0  0  0  0  0  0  0
  2  3  1  0
  2  1  1  0
  3  4  1  0
  4  5  1  0
  5  7  1  0
  5  6  1  6
  7  8  2  0
  9 10  1  0
  9  7  1  0
 10 21  1  0
 10 11  1  1
 12 11  1  0
 12 13  2  0
 14 13  1  0
 15 14  1  0
 16 15  2  0
 17 16  1  0
 18 17  2  0
 18 19  1  0
 19 20  2  0
 20 15  1  0
 20 12  1  0
 21 31  1  0
 22 21  2  0
 23 24  1  0
 24 25  2  0
 24 26  1  0
 26 27  1  0
 27 28  1  0
 29 28  1  0
 30 29  1  6
 31 30  1  0
 32 30  1  0
 33 32  2  0
 34 32  1  0
M  END
$$$$
