MWR.pdb
     RDKit          3D

 34 35  0  0  1  0  0  0  0  0999 V2000
   28.4055  -32.9857  -20.4453 C   0  0  0  0  0  0  0  0  0  0  0  0
   27.7764  -31.4783  -19.6680 S   0  0  0  0  0  0  0  0  0  0  0  0
   26.9677  -31.9615  -18.1098 C   0  0  0  0  0  0  0  0  0  0  0  0
   26.3802  -30.7125  -17.5145 C   0  0  0  0  0  0  0  0  0  0  0  0
   27.4166  -29.8121  -16.8957 C   0  0  2  0  0  0  0  0  0  0  0  0
   27.9536  -30.5030  -15.6963 N   0  0  0  0  0  0  0  0  0  0  0  0
   26.8681  -28.5354  -16.3754 C   0  0  0  0  0  0  0  0  0  0  0  0
   26.3330  -28.4588  -15.2315 O   0  0  0  0  0  0  0  0  0  0  0  0
   26.8981  -27.3196  -17.0969 N   0  0  0  0  0  0  0  0  0  0  0  0
   26.3687  -26.0734  -16.7417 C   0  0  1  0  0  0  0  0  0  0  0  0
   26.8088  -24.8348  -17.4530 C   0  0  0  0  0  0  0  0  0  0  0  0
   26.1149  -23.5979  -16.9912 C   0  0  0  0  0  0  0  0  0  0  0  0
   26.2131  -22.8969  -15.8149 C   0  0  0  0  0  0  0  0  0  0  0  0
   25.3968  -21.8106  -15.8187 N   0  0  0  0  0  0  0  0  0  0  0  0
   24.7561  -21.7875  -16.9972 C   0  0  0  0  0  0  0  0  0  0  0  0
   23.8185  -20.9111  -17.5393 C   0  0  0  0  0  0  0  0  0  0  0  0
   23.3228  -21.1343  -18.8053 C   0  0  0  0  0  0  0  0  0  0  0  0
   23.7285  -22.2112  -19.5670 C   0  0  0  0  0  0  0  0  0  0  0  0
   24.6711  -23.0811  -19.0057 C   0  0  0  0  0  0  0  0  0  0  0  0
   25.1708  -22.8664  -17.7421 C   0  0  0  0  0  0  0  0  0  0  0  0
   24.9098  -26.0871  -16.5966 C   0  0  0  0  0  0  0  0  0  0  0  0
   24.2630  -26.7103  -17.5109 O   0  0  0  0  0  0  0  0  0  0  0  0
   19.9115  -27.9976  -10.1372 N   0  0  0  0  0  0  0  0  0  0  0  0
   20.9352  -28.4900  -10.9846 C   0  0  0  0  0  0  0  0  0  0  0  0
   21.6505  -29.4807  -10.6031 N   0  0  0  0  0  0  0  0  0  0  0  0
   21.1970  -27.9164  -12.2560 N   0  0  0  0  0  0  0  0  0  0  0  0
   20.3899  -26.8214  -12.7106 C   0  0  0  0  0  0  0  0  0  0  0  0
   20.8539  -26.4584  -14.1190 C   0  0  0  0  0  0  0  0  0  0  0  0
   22.3280  -26.1901  -14.1553 C   0  0  0  0  0  0  0  0  0  0  0  0
   22.7453  -25.7124  -15.5017 C   0  0  2  0  0  0  0  0  0  0  0  0
   24.1969  -25.4698  -15.5363 N   0  0  0  0  0  0  0  0  0  0  0  0
   22.1313  -24.3949  -15.7927 C   0  0  0  0  0  0  0  0  0  0  0  0
   21.4626  -24.1363  -16.8301 O   0  0  0  0  0  0  0  0  0  0  0  0
   22.2751  -23.3322  -14.8841 O   0  0  0  0  0  0  0  0  0  0  0  0
  2  3  1  0
  2  1  1  0
  3  4  1  0
  4  5  1  0
  5  7  1  0
  5  6  1  1
  7  8  2  0
  9 10  1  0
  9  7  1  0
 10 21  1  0
 10 11  1  6
 12 11  1  0
 12 13  2  0
 14 13  1  0
 15 14  1  0
 16 15  2  0
 17 16  1  0
 18 17  2  0
 18 19  1  0
 19 20  2  0
 20 15  1  0
 20 12  1  0
 21 31  1  0
 22 21  2  0
 23 24  1  0
 24 25  2  0
 24 26  1  0
 26 27  1  0
 27 28  1  0
 29 28  1  0
 30 29  1  1
 31 30  1  0
 32 30  1  0
 33 32  2  0
 34 32  1  0
M  END
$$$$
