MWR.pdb
     RDKit          3D

 34 35  0  0  1  0  0  0  0  0999 V2000
   26.3679  -18.8282  -18.4775 C   0  0  0  0  0  0  0  0  0  0  0  0
   27.6161  -19.9490  -19.1541 S   0  0  0  0  0  0  0  0  0  0  0  0
   28.3389  -20.8704  -17.7598 C   0  0  0  0  0  0  0  0  0  0  0  0
   27.2346  -21.1008  -16.7664 C   0  0  0  0  0  0  0  0  0  0  0  0
   27.7239  -21.6880  -15.4689 C   0  0  2  0  0  0  0  0  0  0  0  0
   28.2044  -23.0642  -15.7514 N   0  0  0  0  0  0  0  0  0  0  0  0
   26.6581  -21.8674  -14.4523 C   0  0  0  0  0  0  0  0  0  0  0  0
   25.9654  -22.9246  -14.3946 O   0  0  0  0  0  0  0  0  0  0  0  0
   26.3337  -20.8940  -13.4792 N   0  0  0  0  0  0  0  0  0  0  0  0
   25.3264  -20.9238  -12.5078 C   0  0  1  0  0  0  0  0  0  0  0  0
   25.5843  -20.3922  -11.1350 C   0  0  0  0  0  0  0  0  0  0  0  0
   26.9118  -20.7833  -10.5786 C   0  0  0  0  0  0  0  0  0  0  0  0
   28.0264  -21.3014  -11.1899 C   0  0  0  0  0  0  0  0  0  0  0  0
   29.0299  -21.5036  -10.2962 N   0  0  0  0  0  0  0  0  0  0  0  0
   28.5842  -21.1194   -9.0906 C   0  0  0  0  0  0  0  0  0  0  0  0
   29.1799  -21.1009   -7.8312 C   0  0  0  0  0  0  0  0  0  0  0  0
   28.4715  -20.6374   -6.7443 C   0  0  0  0  0  0  0  0  0  0  0  0
   27.1734  -20.1837   -6.8604 C   0  0  0  0  0  0  0  0  0  0  0  0
   26.5912  -20.2100   -8.1335 C   0  0  0  0  0  0  0  0  0  0  0  0
   27.2908  -20.6719   -9.2242 C   0  0  0  0  0  0  0  0  0  0  0  0
   24.0322  -20.4465  -13.0046 C   0  0  0  0  0  0  0  0  0  0  0  0
   23.6341  -19.3217  -12.5366 O   0  0  0  0  0  0  0  0  0  0  0  0
   17.6944  -25.0841  -11.8647 N   0  0  0  0  0  0  0  0  0  0  0  0
   18.9769  -25.5558  -12.2406 C   0  0  0  0  0  0  0  0  0  0  0  0
   19.0772  -26.6023  -12.9709 N   0  0  0  0  0  0  0  0  0  0  0  0
   20.1670  -24.9001  -11.8310 N   0  0  0  0  0  0  0  0  0  0  0  0
   20.0735  -23.6620  -11.1129 C   0  0  0  0  0  0  0  0  0  0  0  0
   20.2379  -22.5285  -12.1223 C   0  0  0  0  0  0  0  0  0  0  0  0
   21.6743  -22.3471  -12.5094 C   0  0  0  0  0  0  0  0  0  0  0  0
   21.8086  -21.3157  -13.5740 C   0  0  2  0  0  0  0  0  0  0  0  0
   23.2223  -21.1364  -13.9436 N   0  0  0  0  0  0  0  0  0  0  0  0
   21.3766  -19.9922  -13.0648 C   0  0  0  0  0  0  0  0  0  0  0  0
   21.3253  -19.6831  -11.8433 O   0  0  0  0  0  0  0  0  0  0  0  0
   20.9894  -18.9820  -13.9621 O   0  0  0  0  0  0  0  0  0  0  0  0
  2  3  1  0
  2  1  1  0
  3  4  1  0
  4  5  1  0
  5  7  1  0
  5  6  1  6
  7  8  2  0
  9 10  1  0
  9  7  1  0
 10 21  1  0
 10 11  1  1
 12 11  1  0
 12 13  2  0
 14 13  1  0
 15 14  1  0
 16 15  2  0
 17 16  1  0
 18 17  2  0
 18 19  1  0
 19 20  2  0
 20 15  1  0
 20 12  1  0
 21 31  1  0
 22 21  2  0
 23 24  1  0
 24 25  2  0
 24 26  1  0
 26 27  1  0
 27 28  1  0
 29 28  1  0
 30 29  1  1
 31 30  1  0
 32 30  1  0
 33 32  2  0
 34 32  1  0
M  END
$$$$
