MWR.pdb
     RDKit          3D

 34 35  0  0  1  0  0  0  0  0999 V2000
   26.4292  -20.7824   -8.5150 C   0  0  0  0  0  0  0  0  0  0  0  0
   27.0294  -22.1592   -9.5230 S   0  0  0  0  0  0  0  0  0  0  0  0
   28.2939  -21.4995  -10.6549 C   0  0  0  0  0  0  0  0  0  0  0  0
   27.6041  -20.5157  -11.5582 C   0  0  0  0  0  0  0  0  0  0  0  0
   26.8322  -21.1780  -12.6687 C   0  0  2  0  0  0  0  0  0  0  0  0
   27.8095  -21.6104  -13.6994 N   0  0  0  0  0  0  0  0  0  0  0  0
   25.9127  -20.2627  -13.3885 C   0  0  0  0  0  0  0  0  0  0  0  0
   26.1090  -19.0132  -13.4209 O   0  0  0  0  0  0  0  0  0  0  0  0
   24.7638  -20.6991  -14.0879 N   0  0  0  0  0  0  0  0  0  0  0  0
   23.8744  -19.9530  -14.8699 C   0  0  1  0  0  0  0  0  0  0  0  0
   24.2811  -19.4703  -16.2247 C   0  0  0  0  0  0  0  0  0  0  0  0
   25.6161  -18.8056  -16.2502 C   0  0  0  0  0  0  0  0  0  0  0  0
   26.8506  -19.2802  -16.6182 C   0  0  0  0  0  0  0  0  0  0  0  0
   27.8049  -18.3208  -16.4935 N   0  0  0  0  0  0  0  0  0  0  0  0
   27.2061  -17.2078  -16.0436 C   0  0  0  0  0  0  0  0  0  0  0  0
   27.6907  -15.9364  -15.7434 C   0  0  0  0  0  0  0  0  0  0  0  0
   26.8269  -14.9618  -15.2939 C   0  0  0  0  0  0  0  0  0  0  0  0
   25.4784  -15.2036  -15.1283 C   0  0  0  0  0  0  0  0  0  0  0  0
   25.0096  -16.4868  -15.4347 C   0  0  0  0  0  0  0  0  0  0  0  0
   25.8650  -17.4664  -15.8833 C   0  0  0  0  0  0  0  0  0  0  0  0
   22.5263  -20.5275  -14.9167 C   0  0  0  0  0  0  0  0  0  0  0  0
   22.4654  -21.8066  -14.9686 O   0  0  0  0  0  0  0  0  0  0  0  0
   18.7150  -23.6058  -10.0276 N   0  0  0  0  0  0  0  0  0  0  0  0
   19.3486  -22.4285   -9.5576 C   0  0  0  0  0  0  0  0  0  0  0  0
   19.9685  -22.4475   -8.4378 N   0  0  0  0  0  0  0  0  0  0  0  0
   19.3195  -21.2158  -10.2943 N   0  0  0  0  0  0  0  0  0  0  0  0
   18.5899  -21.1625  -11.5280 C   0  0  0  0  0  0  0  0  0  0  0  0
   19.4446  -20.4008  -12.5380 C   0  0  0  0  0  0  0  0  0  0  0  0
   19.9215  -21.3007  -13.6374 C   0  0  0  0  0  0  0  0  0  0  0  0
   20.0720  -20.5454  -14.9110 C   0  0  2  0  0  0  0  0  0  0  0  0
   21.3249  -19.7725  -14.9078 N   0  0  0  0  0  0  0  0  0  0  0  0
   18.9984  -19.5309  -15.0368 C   0  0  0  0  0  0  0  0  0  0  0  0
   19.1986  -18.2868  -15.0856 O   0  0  0  0  0  0  0  0  0  0  0  0
   17.6531  -19.9314  -15.1107 O   0  0  0  0  0  0  0  0  0  0  0  0
  2  3  1  0
  2  1  1  0
  3  4  1  0
  4  5  1  0
  5  7  1  0
  5  6  1  6
  7  8  2  0
  9 10  1  0
  9  7  1  0
 10 21  1  0
 10 11  1  6
 12 11  1  0
 12 13  2  0
 14 13  1  0
 15 14  1  0
 16 15  2  0
 17 16  1  0
 18 17  2  0
 18 19  1  0
 19 20  2  0
 20 15  1  0
 20 12  1  0
 21 31  1  0
 22 21  2  0
 23 24  1  0
 24 25  2  0
 24 26  1  0
 26 27  1  0
 27 28  1  0
 29 28  1  0
 30 29  1  1
 31 30  1  0
 32 30  1  0
 33 32  2  0
 34 32  1  0
M  END
$$$$
