MWR.pdb
     RDKit          3D

 34 35  0  0  1  0  0  0  0  0999 V2000
   30.7458  -16.5505  -16.7527 C   0  0  0  0  0  0  0  0  0  0  0  0
   29.9804  -17.6095  -15.5018 S   0  0  0  0  0  0  0  0  0  0  0  0
   29.6926  -19.2380  -16.2640 C   0  0  0  0  0  0  0  0  0  0  0  0
   29.0506  -20.1051  -15.2174 C   0  0  0  0  0  0  0  0  0  0  0  0
   27.5935  -19.7895  -15.0050 C   0  0  2  0  0  0  0  0  0  0  0  0
   27.5161  -18.5697  -14.1622 N   0  0  0  0  0  0  0  0  0  0  0  0
   26.8626  -20.8233  -14.2314 C   0  0  0  0  0  0  0  0  0  0  0  0
   26.8311  -22.0326  -14.6021 O   0  0  0  0  0  0  0  0  0  0  0  0
   26.1556  -20.5523  -13.0371 N   0  0  0  0  0  0  0  0  0  0  0  0
   25.3882  -21.4216  -12.2533 C   0  0  1  0  0  0  0  0  0  0  0  0
   25.3711  -21.2818  -10.7654 C   0  0  0  0  0  0  0  0  0  0  0  0
   26.2473  -20.1883  -10.2543 C   0  0  0  0  0  0  0  0  0  0  0  0
   26.7061  -19.0452  -10.8606 C   0  0  0  0  0  0  0  0  0  0  0  0
   27.4808  -18.3157  -10.0155 N   0  0  0  0  0  0  0  0  0  0  0  0
   27.5373  -18.9721   -8.8469 C   0  0  0  0  0  0  0  0  0  0  0  0
   28.1752  -18.6895   -7.6408 C   0  0  0  0  0  0  0  0  0  0  0  0
   28.0529  -19.5599   -6.5800 C   0  0  0  0  0  0  0  0  0  0  0  0
   27.3097  -20.7191   -6.6707 C   0  0  0  0  0  0  0  0  0  0  0  0
   26.6760  -20.9866   -7.8902 C   0  0  0  0  0  0  0  0  0  0  0  0
   26.7932  -20.1235   -8.9550 C   0  0  0  0  0  0  0  0  0  0  0  0
   24.0264  -21.6077  -12.7636 C   0  0  0  0  0  0  0  0  0  0  0  0
   23.4787  -20.5730  -13.2853 O   0  0  0  0  0  0  0  0  0  0  0  0
   17.4190  -25.2240  -13.4830 N   0  0  0  0  0  0  0  0  0  0  0  0
   17.5050  -25.5108  -14.8683 C   0  0  0  0  0  0  0  0  0  0  0  0
   16.4428  -25.5056  -15.5826 N   0  0  0  0  0  0  0  0  0  0  0  0
   18.7421  -25.8063  -15.4976 N   0  0  0  0  0  0  0  0  0  0  0  0
   19.9414  -25.8267  -14.7112 C   0  0  0  0  0  0  0  0  0  0  0  0
   20.3761  -24.3795  -14.4934 C   0  0  0  0  0  0  0  0  0  0  0  0
   21.6897  -24.3068  -13.7757 C   0  0  0  0  0  0  0  0  0  0  0  0
   22.0798  -22.8917  -13.5292 C   0  0  2  0  0  0  0  0  0  0  0  0
   23.3043  -22.8282  -12.7145 N   0  0  0  0  0  0  0  0  0  0  0  0
   21.0454  -22.2075  -12.7171 C   0  0  0  0  0  0  0  0  0  0  0  0
   20.1749  -21.4258  -13.1877 O   0  0  0  0  0  0  0  0  0  0  0  0
   20.9893  -22.4108  -11.3275 O   0  0  0  0  0  0  0  0  0  0  0  0
  2  3  1  0
  2  1  1  0
  3  4  1  0
  4  5  1  0
  5  7  1  0
  5  6  1  1
  7  8  2  0
  9 10  1  0
  9  7  1  0
 10 21  1  0
 10 11  1  1
 12 11  1  0
 12 13  2  0
 14 13  1  0
 15 14  1  0
 16 15  2  0
 17 16  1  0
 18 17  2  0
 18 19  1  0
 19 20  2  0
 20 15  1  0
 20 12  1  0
 21 31  1  0
 22 21  2  0
 23 24  1  0
 24 25  2  0
 24 26  1  0
 26 27  1  0
 27 28  1  0
 29 28  1  0
 30 29  1  1
 31 30  1  0
 32 30  1  0
 33 32  2  0
 34 32  1  0
M  END
$$$$
