MWR.pdb
     RDKit          3D

 34 35  0  0  1  0  0  0  0  0999 V2000
   29.3385  -20.0559  -18.0622 C   0  0  0  0  0  0  0  0  0  0  0  0
   28.3439  -20.4402  -16.6010 S   0  0  0  0  0  0  0  0  0  0  0  0
   29.2372  -21.7087  -15.6479 C   0  0  0  0  0  0  0  0  0  0  0  0
   28.3638  -22.0773  -14.4814 C   0  0  0  0  0  0  0  0  0  0  0  0
   27.7316  -20.8818  -13.8190 C   0  0  2  0  0  0  0  0  0  0  0  0
   28.8136  -20.1112  -13.1557 N   0  0  0  0  0  0  0  0  0  0  0  0
   26.7957  -21.2294  -12.7215 C   0  0  0  0  0  0  0  0  0  0  0  0
   25.9721  -22.1840  -12.8274 O   0  0  0  0  0  0  0  0  0  0  0  0
   26.7465  -20.5400  -11.4878 N   0  0  0  0  0  0  0  0  0  0  0  0
   25.8419  -20.6931  -10.4308 C   0  0  1  0  0  0  0  0  0  0  0  0
   26.1711  -20.1655   -9.0718 C   0  0  0  0  0  0  0  0  0  0  0  0
   27.5184  -20.5735   -8.5788 C   0  0  0  0  0  0  0  0  0  0  0  0
   28.4854  -21.3619   -9.1516 C   0  0  0  0  0  0  0  0  0  0  0  0
   29.5769  -21.4650   -8.3488 N   0  0  0  0  0  0  0  0  0  0  0  0
   29.3375  -20.7449   -7.2425 C   0  0  0  0  0  0  0  0  0  0  0  0
   30.0975  -20.4948   -6.1018 C   0  0  0  0  0  0  0  0  0  0  0  0
   29.5905  -19.6942   -5.1018 C   0  0  0  0  0  0  0  0  0  0  0  0
   28.3378  -19.1222   -5.1913 C   0  0  0  0  0  0  0  0  0  0  0  0
   27.5885  -19.3848   -6.3446 C   0  0  0  0  0  0  0  0  0  0  0  0
   28.0865  -20.1836   -7.3477 C   0  0  0  0  0  0  0  0  0  0  0  0
   24.4656  -20.3419  -10.7945 C   0  0  0  0  0  0  0  0  0  0  0  0
   24.2780  -19.1302  -11.1678 O   0  0  0  0  0  0  0  0  0  0  0  0
   23.5007  -25.6758  -14.5846 N   0  0  0  0  0  0  0  0  0  0  0  0
   22.4375  -25.0021  -15.2362 C   0  0  0  0  0  0  0  0  0  0  0  0
   21.6245  -25.6642  -15.9704 N   0  0  0  0  0  0  0  0  0  0  0  0
   22.2409  -23.6032  -15.1005 N   0  0  0  0  0  0  0  0  0  0  0  0
   23.0073  -22.8786  -14.1284 C   0  0  0  0  0  0  0  0  0  0  0  0
   22.0795  -22.5464  -12.9624 C   0  0  0  0  0  0  0  0  0  0  0  0
   21.9794  -21.0663  -12.7498 C   0  0  0  0  0  0  0  0  0  0  0  0
   22.0965  -20.7309  -11.3044 C   0  0  2  0  0  0  0  0  0  0  0  0
   23.3659  -21.2379  -10.7580 N   0  0  0  0  0  0  0  0  0  0  0  0
   21.0422  -21.4265  -10.5283 C   0  0  0  0  0  0  0  0  0  0  0  0
   21.2640  -22.3448   -9.6930 O   0  0  0  0  0  0  0  0  0  0  0  0
   19.6919  -21.0756  -10.6986 O   0  0  0  0  0  0  0  0  0  0  0  0
  2  3  1  0
  2  1  1  0
  3  4  1  0
  4  5  1  0
  5  7  1  0
  5  6  1  1
  7  8  2  0
  9 10  1  0
  9  7  1  0
 10 21  1  0
 10 11  1  1
 12 11  1  0
 12 13  2  0
 14 13  1  0
 15 14  1  0
 16 15  2  0
 17 16  1  0
 18 17  2  0
 18 19  1  0
 19 20  2  0
 20 15  1  0
 20 12  1  0
 21 31  1  0
 22 21  2  0
 23 24  1  0
 24 25  2  0
 24 26  1  0
 26 27  1  0
 27 28  1  0
 29 28  1  0
 30 29  1  6
 31 30  1  0
 32 30  1  0
 33 32  2  0
 34 32  1  0
M  END
$$$$
