MWR.pdb
     RDKit          3D

 34 35  0  0  1  0  0  0  0  0999 V2000
   27.1726  -16.8746  -15.3558 C   0  0  0  0  0  0  0  0  0  0  0  0
   28.9178  -17.2677  -15.6241 S   0  0  0  0  0  0  0  0  0  0  0  0
   29.0421  -19.0669  -15.8747 C   0  0  0  0  0  0  0  0  0  0  0  0
   28.0329  -19.7078  -14.9636 C   0  0  0  0  0  0  0  0  0  0  0  0
   28.6622  -20.4033  -13.7854 C   0  0  2  0  0  0  0  0  0  0  0  0
   29.3924  -21.5887  -14.3010 N   0  0  0  0  0  0  0  0  0  0  0  0
   27.6798  -20.9608  -12.8234 C   0  0  0  0  0  0  0  0  0  0  0  0
   27.0919  -22.0608  -13.0357 O   0  0  0  0  0  0  0  0  0  0  0  0
   27.3257  -20.3255  -11.6107 N   0  0  0  0  0  0  0  0  0  0  0  0
   26.3340  -20.6809  -10.6891 C   0  0  1  0  0  0  0  0  0  0  0  0
   26.4102  -20.2033   -9.2749 C   0  0  0  0  0  0  0  0  0  0  0  0
   27.6628  -20.6048   -8.5717 C   0  0  0  0  0  0  0  0  0  0  0  0
   28.7282  -21.3612   -8.9927 C   0  0  0  0  0  0  0  0  0  0  0  0
   29.6704  -21.4708   -8.0196 N   0  0  0  0  0  0  0  0  0  0  0  0
   29.2331  -20.7870   -6.9515 C   0  0  0  0  0  0  0  0  0  0  0  0
   29.7844  -20.5586   -5.6924 C   0  0  0  0  0  0  0  0  0  0  0  0
   29.0998  -19.7953   -4.7722 C   0  0  0  0  0  0  0  0  0  0  0  0
   27.8690  -19.2403   -5.0576 C   0  0  0  0  0  0  0  0  0  0  0  0
   27.3306  -19.4806   -6.3276 C   0  0  0  0  0  0  0  0  0  0  0  0
   28.0068  -20.2422   -7.2524 C   0  0  0  0  0  0  0  0  0  0  0  0
   24.9745  -20.5124  -11.2116 C   0  0  0  0  0  0  0  0  0  0  0  0
   24.7963  -19.5131  -11.9941 O   0  0  0  0  0  0  0  0  0  0  0  0
   20.8022  -22.8101  -16.9308 N   0  0  0  0  0  0  0  0  0  0  0  0
   22.1249  -23.2288  -16.6414 C   0  0  0  0  0  0  0  0  0  0  0  0
   23.0402  -23.0904  -17.5255 N   0  0  0  0  0  0  0  0  0  0  0  0
   22.4735  -23.8020  -15.3908 N   0  0  0  0  0  0  0  0  0  0  0  0
   21.4721  -23.9210  -14.3708 C   0  0  0  0  0  0  0  0  0  0  0  0
   21.5095  -22.6441  -13.5349 C   0  0  0  0  0  0  0  0  0  0  0  0
   22.7127  -22.6119  -12.6420 C   0  0  0  0  0  0  0  0  0  0  0  0
   22.7592  -21.3443  -11.8633 C   0  0  2  0  0  0  0  0  0  0  0  0
   23.8809  -21.3649  -10.9101 N   0  0  0  0  0  0  0  0  0  0  0  0
   21.5459  -21.2133  -11.0217 C   0  0  0  0  0  0  0  0  0  0  0  0
   21.5168  -21.4262   -9.7790 O   0  0  0  0  0  0  0  0  0  0  0  0
   20.3235  -20.8290  -11.5993 O   0  0  0  0  0  0  0  0  0  0  0  0
  2  3  1  0
  2  1  1  0
  3  4  1  0
  4  5  1  0
  5  7  1  0
  5  6  1  6
  7  8  2  0
  9 10  1  0
  9  7  1  0
 10 21  1  0
 10 11  1  1
 12 11  1  0
 12 13  2  0
 14 13  1  0
 15 14  1  0
 16 15  2  0
 17 16  1  0
 18 17  2  0
 18 19  1  0
 19 20  2  0
 20 15  1  0
 20 12  1  0
 21 31  1  0
 22 21  2  0
 23 24  1  0
 24 25  2  0
 24 26  1  0
 26 27  1  0
 27 28  1  0
 29 28  1  0
 30 29  1  1
 31 30  1  0
 32 30  1  0
 33 32  2  0
 34 32  1  0
M  END
$$$$
