WPC.pdb
     RDKit          3D

 28 30  0  0  1  0  0  0  0  0999 V2000
    6.5512  -18.3177   25.4363 N   0  0  0  0  0  0  0  0  0  0  0  0
    6.1430  -17.4453   24.3319 C   0  0  1  0  0  0  0  0  0  0  0  0
    5.8840  -16.0977   24.9509 C   0  0  0  0  0  0  0  0  0  0  0  0
    6.9647  -15.5581   25.7791 C   0  0  0  0  0  0  0  0  0  0  0  0
    8.0277  -16.2537   26.2815 C   0  0  0  0  0  0  0  0  0  0  0  0
    8.7949  -15.4411   27.0244 N   0  0  0  0  0  0  0  0  0  0  0  0
    8.2304  -14.2091   27.0060 C   0  0  0  0  0  0  0  0  0  0  0  0
    8.5711  -13.0059   27.5634 C   0  0  0  0  0  0  0  0  0  0  0  0
    7.8497  -11.8474   27.4024 C   0  0  0  0  0  0  0  0  0  0  0  0
    6.7086  -11.9213   26.6237 C   0  0  0  0  0  0  0  0  0  0  0  0
    6.3303  -13.0973   26.0497 C   0  0  0  0  0  0  0  0  0  0  0  0
    7.0799  -14.2637   26.2283 C   0  0  0  0  0  0  0  0  0  0  0  0
    7.1537  -17.3625   23.2665 C   0  0  0  0  0  0  0  0  0  0  0  0
    7.6419  -18.5029   22.9334 O   0  0  0  0  0  0  0  0  0  0  0  0
    7.5974  -16.1871   22.6227 N   0  0  0  0  0  0  0  0  0  0  0  0
    7.2608  -14.8497   23.0027 C   0  0  0  0  0  0  0  0  0  0  0  0
    7.4400  -14.0400   21.7673 C   0  0  0  0  0  0  0  0  0  0  0  0
    7.8249  -15.0219   20.6754 C   0  0  0  0  0  0  0  0  0  0  0  0
    8.4661  -16.1462   21.4806 C   0  0  1  0  0  0  0  0  0  0  0  0
    9.8691  -15.8512   21.8068 C   0  0  0  0  0  0  0  0  0  0  0  0
   10.6679  -15.5214   20.8962 O   0  0  0  0  0  0  0  0  0  0  0  0
   10.4128  -15.9116   23.1160 N   0  0  0  0  0  0  0  0  0  0  0  0
   11.7774  -15.5517   23.4398 C   0  0  1  0  0  0  0  0  0  0  0  0
   11.8904  -14.9564   24.8284 C   0  0  0  0  0  0  0  0  0  0  0  0
   10.9989  -15.9434   26.0403 S   0  0  0  0  0  0  0  0  0  0  0  0
   12.6073  -16.7777   23.4066 C   0  0  0  0  0  0  0  0  0  0  0  0
   12.0830  -18.0533   23.2279 O   0  0  0  0  0  0  0  0  0  0  0  0
   13.8503  -16.6972   23.5439 O   0  0  0  0  0  0  0  0  0  0  0  0
  2  1  1  1
  3  4  1  0
  3  2  1  0
  4 12  1  0
  5  4  2  0
  5  6  1  0
  6  7  1  0
  7  8  1  0
  8  9  2  0
 10  9  1  0
 11 10  2  0
 12  7  2  0
 12 11  1  0
 13 15  1  0
 13  2  1  0
 14 13  2  0
 15 16  1  0
 17 16  1  0
 18 17  1  0
 19 18  1  0
 19 20  1  1
 19 15  1  0
 20 21  2  0
 22 23  1  0
 22 20  1  0
 23 26  1  0
 23 24  1  1
 25 24  1  0
 26 28  2  0
 26 27  1  0
M  END
$$$$
