WPC.pdb
     RDKit          3D

 28 30  0  0  1  0  0  0  0  0999 V2000
    6.3426  -18.0404   24.3476 N   0  0  0  0  0  0  0  0  0  0  0  0
    6.7452  -16.7270   23.8375 C   0  0  1  0  0  0  0  0  0  0  0  0
    7.4721  -16.0544   24.9713 C   0  0  0  0  0  0  0  0  0  0  0  0
    6.7256  -15.0105   25.6771 C   0  0  0  0  0  0  0  0  0  0  0  0
    5.4803  -15.1320   26.2253 C   0  0  0  0  0  0  0  0  0  0  0  0
    5.0996  -13.9605   26.7577 N   0  0  0  0  0  0  0  0  0  0  0  0
    6.1017  -13.0704   26.5567 C   0  0  0  0  0  0  0  0  0  0  0  0
    6.2752  -11.7533   26.8878 C   0  0  0  0  0  0  0  0  0  0  0  0
    7.4031  -11.0248   26.5952 C   0  0  0  0  0  0  0  0  0  0  0  0
    8.4178  -11.6816   25.9223 C   0  0  0  0  0  0  0  0  0  0  0  0
    8.2891  -12.9916   25.5719 C   0  0  0  0  0  0  0  0  0  0  0  0
    7.1315  -13.7124   25.8796 C   0  0  0  0  0  0  0  0  0  0  0  0
    7.5882  -16.8155   22.6355 C   0  0  0  0  0  0  0  0  0  0  0  0
    7.9258  -18.0175   22.3335 O   0  0  0  0  0  0  0  0  0  0  0  0
    8.0253  -15.7358   21.8379 N   0  0  0  0  0  0  0  0  0  0  0  0
    7.7382  -14.3543   22.0736 C   0  0  0  0  0  0  0  0  0  0  0  0
    7.8734  -13.6991   20.7446 C   0  0  0  0  0  0  0  0  0  0  0  0
    8.1812  -14.8117   19.7587 C   0  0  0  0  0  0  0  0  0  0  0  0
    8.8365  -15.8522   20.6593 C   0  0  1  0  0  0  0  0  0  0  0  0
   10.2604  -15.5609   20.8821 C   0  0  0  0  0  0  0  0  0  0  0  0
   10.5958  -14.5668   21.5715 O   0  0  0  0  0  0  0  0  0  0  0  0
   11.3247  -16.3415   20.3616 N   0  0  0  0  0  0  0  0  0  0  0  0
   12.4354  -16.8225   21.1562 C   0  0  1  0  0  0  0  0  0  0  0  0
   11.9780  -17.7487   22.2645 C   0  0  0  0  0  0  0  0  0  0  0  0
   11.8260  -16.8744   23.8297 S   0  0  0  0  0  0  0  0  0  0  0  0
   13.3461  -17.5894   20.2756 C   0  0  0  0  0  0  0  0  0  0  0  0
   14.7182  -17.6789   20.4841 O   0  0  0  0  0  0  0  0  0  0  0  0
   12.8895  -18.2012   19.2820 O   0  0  0  0  0  0  0  0  0  0  0  0
  2  1  1  1
  3  4  1  0
  3  2  1  0
  4 12  1  0
  5  4  2  0
  5  6  1  0
  6  7  1  0
  7  8  1  0
  8  9  2  0
 10  9  1  0
 11 10  2  0
 12  7  2  0
 12 11  1  0
 13 15  1  0
 13  2  1  0
 14 13  2  0
 15 16  1  0
 17 16  1  0
 18 17  1  0
 19 18  1  0
 19 20  1  1
 19 15  1  0
 20 21  2  0
 22 23  1  0
 22 20  1  0
 23 26  1  0
 23 24  1  1
 25 24  1  0
 26 28  2  0
 26 27  1  0
M  END
$$$$
