WPC.pdb
     RDKit          3D

 28 30  0  0  1  0  0  0  0  0999 V2000
    6.2644  -17.8677   24.0603 N   0  0  0  0  0  0  0  0  0  0  0  0
    6.5671  -16.5215   23.5666 C   0  0  1  0  0  0  0  0  0  0  0  0
    7.3468  -15.8499   24.6655 C   0  0  0  0  0  0  0  0  0  0  0  0
    6.5919  -14.9157   25.5037 C   0  0  0  0  0  0  0  0  0  0  0  0
    5.3365  -15.1082   26.0068 C   0  0  0  0  0  0  0  0  0  0  0  0
    4.9508  -14.0248   26.6984 N   0  0  0  0  0  0  0  0  0  0  0  0
    5.9598  -13.1213   26.6471 C   0  0  0  0  0  0  0  0  0  0  0  0
    6.1324  -11.8681   27.1704 C   0  0  0  0  0  0  0  0  0  0  0  0
    7.2682  -11.1118   27.0071 C   0  0  0  0  0  0  0  0  0  0  0  0
    8.2923  -11.6696   26.2628 C   0  0  0  0  0  0  0  0  0  0  0  0
    8.1648  -12.9133   25.7221 C   0  0  0  0  0  0  0  0  0  0  0  0
    6.9991  -13.6640   25.9010 C   0  0  0  0  0  0  0  0  0  0  0  0
    7.3195  -16.5329   22.3029 C   0  0  0  0  0  0  0  0  0  0  0  0
    7.3119  -17.6734   21.7120 O   0  0  0  0  0  0  0  0  0  0  0  0
    8.0077  -15.4424   21.7282 N   0  0  0  0  0  0  0  0  0  0  0  0
    8.1315  -14.1379   22.3019 C   0  0  0  0  0  0  0  0  0  0  0  0
    8.3877  -13.2316   21.1500 C   0  0  0  0  0  0  0  0  0  0  0  0
    8.3268  -14.1042   19.9093 C   0  0  0  0  0  0  0  0  0  0  0  0
    8.7013  -15.4705   20.4717 C   0  0  1  0  0  0  0  0  0  0  0  0
   10.1579  -15.6280   20.5961 C   0  0  0  0  0  0  0  0  0  0  0  0
   10.9052  -15.3232   19.6345 O   0  0  0  0  0  0  0  0  0  0  0  0
   10.8106  -16.1145   21.7581 N   0  0  0  0  0  0  0  0  0  0  0  0
   12.2472  -16.2480   21.8797 C   0  0  1  0  0  0  0  0  0  0  0  0
   12.6754  -16.4592   23.3176 C   0  0  0  0  0  0  0  0  0  0  0  0
   11.7026  -15.4512   24.4469 S   0  0  0  0  0  0  0  0  0  0  0  0
   12.6766  -17.4337   21.1034 C   0  0  0  0  0  0  0  0  0  0  0  0
   11.7883  -18.3443   20.5414 O   0  0  0  0  0  0  0  0  0  0  0  0
   13.8964  -17.6580   20.9248 O   0  0  0  0  0  0  0  0  0  0  0  0
  2  1  1  1
  3  4  1  0
  3  2  1  0
  4 12  1  0
  5  4  2  0
  5  6  1  0
  6  7  1  0
  7  8  1  0
  8  9  2  0
 10  9  1  0
 11 10  2  0
 12  7  2  0
 12 11  1  0
 13 15  1  0
 13  2  1  0
 14 13  2  0
 15 16  1  0
 17 16  1  0
 18 17  1  0
 19 18  1  0
 19 20  1  1
 19 15  1  0
 20 21  2  0
 22 23  1  0
 22 20  1  0
 23 26  1  0
 23 24  1  1
 25 24  1  0
 26 28  2  0
 26 27  1  0
M  END
$$$$
