WPC.pdb
     RDKit          3D

 28 30  0  0  1  0  0  0  0  0999 V2000
    6.2046  -18.3817   24.6493 N   0  0  0  0  0  0  0  0  0  0  0  0
    6.5747  -17.0418   24.1858 C   0  0  1  0  0  0  0  0  0  0  0  0
    7.3450  -16.4167   25.3182 C   0  0  0  0  0  0  0  0  0  0  0  0
    6.7002  -15.2780   25.9759 C   0  0  0  0  0  0  0  0  0  0  0  0
    5.4344  -15.2463   26.4886 C   0  0  0  0  0  0  0  0  0  0  0  0
    5.1718  -14.0260   26.9812 N   0  0  0  0  0  0  0  0  0  0  0  0
    6.2719  -13.2578   26.7898 C   0  0  0  0  0  0  0  0  0  0  0  0
    6.5817  -11.9596   27.0946 C   0  0  0  0  0  0  0  0  0  0  0  0
    7.7914  -11.3684   26.8193 C   0  0  0  0  0  0  0  0  0  0  0  0
    8.7449  -12.1512   26.1935 C   0  0  0  0  0  0  0  0  0  0  0  0
    8.4809  -13.4479   25.8705 C   0  0  0  0  0  0  0  0  0  0  0  0
    7.2423  -14.0278   26.1598 C   0  0  0  0  0  0  0  0  0  0  0  0
    7.3654  -17.0651   22.9458 C   0  0  0  0  0  0  0  0  0  0  0  0
    7.6163  -18.2507   22.5200 O   0  0  0  0  0  0  0  0  0  0  0  0
    7.8388  -15.9420   22.2333 N   0  0  0  0  0  0  0  0  0  0  0  0
    7.5520  -14.5753   22.5434 C   0  0  0  0  0  0  0  0  0  0  0  0
    7.7408  -13.8405   21.2635 C   0  0  0  0  0  0  0  0  0  0  0  0
    8.0781  -14.8928   20.2225 C   0  0  0  0  0  0  0  0  0  0  0  0
    8.6927  -15.9926   21.0804 C   0  0  1  0  0  0  0  0  0  0  0  0
   10.1091  -15.7279   21.3732 C   0  0  0  0  0  0  0  0  0  0  0  0
   10.6554  -14.6866   20.9339 O   0  0  0  0  0  0  0  0  0  0  0  0
   10.9383  -16.5863   22.1405 N   0  0  0  0  0  0  0  0  0  0  0  0
   12.2096  -16.1855   22.7059 C   0  0  1  0  0  0  0  0  0  0  0  0
   12.3668  -16.6605   24.1360 C   0  0  0  0  0  0  0  0  0  0  0  0
   10.9323  -16.2285   25.1326 S   0  0  0  0  0  0  0  0  0  0  0  0
   13.2943  -16.7990   21.9060 C   0  0  0  0  0  0  0  0  0  0  0  0
   14.6413  -16.5059   22.0894 O   0  0  0  0  0  0  0  0  0  0  0  0
   13.0189  -17.6292   21.0088 O   0  0  0  0  0  0  0  0  0  0  0  0
  2  1  1  1
  3  4  1  0
  3  2  1  0
  4 12  1  0
  5  4  2  0
  5  6  1  0
  6  7  1  0
  7  8  1  0
  8  9  2  0
 10  9  1  0
 11 10  2  0
 12  7  2  0
 12 11  1  0
 13 15  1  0
 13  2  1  0
 14 13  2  0
 15 16  1  0
 17 16  1  0
 18 17  1  0
 19 18  1  0
 19 20  1  1
 19 15  1  0
 20 21  2  0
 22 23  1  0
 22 20  1  0
 23 26  1  0
 23 24  1  1
 25 24  1  0
 26 28  2  0
 26 27  1  0
M  END
$$$$
