WPC.pdb
     RDKit          3D

 28 30  0  0  1  0  0  0  0  0999 V2000
    6.5186  -18.0488   24.1732 N   0  0  0  0  0  0  0  0  0  0  0  0
    6.8646  -16.6913   23.7434 C   0  0  1  0  0  0  0  0  0  0  0  0
    7.5317  -16.0457   24.9285 C   0  0  0  0  0  0  0  0  0  0  0  0
    6.7053  -15.1092   25.6935 C   0  0  0  0  0  0  0  0  0  0  0  0
    5.4817  -15.3677   26.2433 C   0  0  0  0  0  0  0  0  0  0  0  0
    5.0066  -14.2633   26.8392 N   0  0  0  0  0  0  0  0  0  0  0  0
    5.9248  -13.2794   26.6782 C   0  0  0  0  0  0  0  0  0  0  0  0
    5.9866  -11.9712   27.0769 C   0  0  0  0  0  0  0  0  0  0  0  0
    7.0432  -11.1323   26.8151 C   0  0  0  0  0  0  0  0  0  0  0  0
    8.1035  -11.6619   26.1015 C   0  0  0  0  0  0  0  0  0  0  0  0
    8.0854  -12.9583   25.6836 C   0  0  0  0  0  0  0  0  0  0  0  0
    6.9988  -13.7928   25.9611 C   0  0  0  0  0  0  0  0  0  0  0  0
    7.7366  -16.6725   22.5591 C   0  0  0  0  0  0  0  0  0  0  0  0
    8.1787  -17.8326   22.2296 O   0  0  0  0  0  0  0  0  0  0  0  0
    8.0991  -15.5360   21.8041 N   0  0  0  0  0  0  0  0  0  0  0  0
    7.7742  -14.1810   22.1274 C   0  0  0  0  0  0  0  0  0  0  0  0
    7.8266  -13.4511   20.8319 C   0  0  0  0  0  0  0  0  0  0  0  0
    8.1292  -14.4971   19.7741 C   0  0  0  0  0  0  0  0  0  0  0  0
    8.8605  -15.5587   20.5873 C   0  0  1  0  0  0  0  0  0  0  0  0
   10.2817  -15.2262   20.7648 C   0  0  0  0  0  0  0  0  0  0  0  0
   10.6101  -14.1022   21.2173 O   0  0  0  0  0  0  0  0  0  0  0  0
   11.3509  -16.1057   20.4544 N   0  0  0  0  0  0  0  0  0  0  0  0
   12.3240  -16.5653   21.4231 C   0  0  1  0  0  0  0  0  0  0  0  0
   11.6667  -17.2609   22.5978 C   0  0  0  0  0  0  0  0  0  0  0  0
   12.3127  -16.6556   24.1642 S   0  0  0  0  0  0  0  0  0  0  0  0
   13.2181  -17.5441   20.7632 C   0  0  0  0  0  0  0  0  0  0  0  0
   14.5979  -17.5597   20.9367 O   0  0  0  0  0  0  0  0  0  0  0  0
   12.7394  -18.4170   20.0023 O   0  0  0  0  0  0  0  0  0  0  0  0
  2  1  1  1
  3  4  1  0
  3  2  1  0
  4 12  1  0
  5  4  2  0
  5  6  1  0
  6  7  1  0
  7  8  1  0
  8  9  2  0
 10  9  1  0
 11 10  2  0
 12  7  2  0
 12 11  1  0
 13 15  1  0
 13  2  1  0
 14 13  2  0
 15 16  1  0
 17 16  1  0
 18 17  1  0
 19 18  1  0
 19 20  1  1
 19 15  1  0
 20 21  2  0
 22 23  1  0
 22 20  1  0
 23 26  1  0
 23 24  1  1
 25 24  1  0
 26 28  2  0
 26 27  1  0
M  END
$$$$
