WPC.pdb
     RDKit          3D

 28 30  0  0  1  0  0  0  0  0999 V2000
    6.1936  -18.4512   24.9778 N   0  0  0  0  0  0  0  0  0  0  0  0
    6.5522  -17.1586   24.3878 C   0  0  1  0  0  0  0  0  0  0  0  0
    7.3347  -16.4297   25.4474 C   0  0  0  0  0  0  0  0  0  0  0  0
    6.7262  -15.1982   25.9555 C   0  0  0  0  0  0  0  0  0  0  0  0
    5.3977  -14.9867   26.1933 C   0  0  0  0  0  0  0  0  0  0  0  0
    5.2048  -13.7290   26.6194 N   0  0  0  0  0  0  0  0  0  0  0  0
    6.4133  -13.1169   26.6607 C   0  0  0  0  0  0  0  0  0  0  0  0
    6.8243  -11.8620   27.0223 C   0  0  0  0  0  0  0  0  0  0  0  0
    8.1327  -11.4420   27.0046 C   0  0  0  0  0  0  0  0  0  0  0  0
    9.0814  -12.3603   26.5917 C   0  0  0  0  0  0  0  0  0  0  0  0
    8.7188  -13.6201   26.2219 C   0  0  0  0  0  0  0  0  0  0  0  0
    7.3809  -14.0247   26.2472 C   0  0  0  0  0  0  0  0  0  0  0  0
    7.3266  -17.2939   23.1448 C   0  0  0  0  0  0  0  0  0  0  0  0
    7.4148  -18.5047   22.7249 O   0  0  0  0  0  0  0  0  0  0  0  0
    7.9424  -16.2480   22.4237 N   0  0  0  0  0  0  0  0  0  0  0  0
    8.0562  -14.8896   22.8575 C   0  0  0  0  0  0  0  0  0  0  0  0
    8.2128  -14.0966   21.6083 C   0  0  0  0  0  0  0  0  0  0  0  0
    8.1075  -15.0905   20.4656 C   0  0  0  0  0  0  0  0  0  0  0  0
    8.5605  -16.3827   21.1351 C   0  0  1  0  0  0  0  0  0  0  0  0
   10.0264  -16.4867   21.1830 C   0  0  0  0  0  0  0  0  0  0  0  0
   10.6785  -16.6393   20.1212 O   0  0  0  0  0  0  0  0  0  0  0  0
   10.7911  -16.4264   22.3766 N   0  0  0  0  0  0  0  0  0  0  0  0
   12.1703  -16.8565   22.4731 C   0  0  1  0  0  0  0  0  0  0  0  0
   13.1142  -15.6878   22.6701 C   0  0  0  0  0  0  0  0  0  0  0  0
   13.3462  -14.7667   21.1419 S   0  0  0  0  0  0  0  0  0  0  0  0
   12.3041  -17.7463   23.6492 C   0  0  0  0  0  0  0  0  0  0  0  0
   11.2720  -17.9859   24.5501 O   0  0  0  0  0  0  0  0  0  0  0  0
   13.3902  -18.3293   23.8740 O   0  0  0  0  0  0  0  0  0  0  0  0
  2  1  1  1
  3  4  1  0
  3  2  1  0
  4 12  1  0
  5  4  2  0
  5  6  1  0
  6  7  1  0
  7  8  1  0
  8  9  2  0
 10  9  1  0
 11 10  2  0
 12  7  2  0
 12 11  1  0
 13 15  1  0
 13  2  1  0
 14 13  2  0
 15 16  1  0
 17 16  1  0
 18 17  1  0
 19 18  1  0
 19 20  1  1
 19 15  1  0
 20 21  2  0
 22 23  1  0
 22 20  1  0
 23 26  1  0
 23 24  1  1
 25 24  1  0
 26 28  2  0
 26 27  1  0
M  END
$$$$
