WPC.pdb
     RDKit          3D

 28 30  0  0  1  0  0  0  0  0999 V2000
    5.6570  -18.3992   24.8634 N   0  0  0  0  0  0  0  0  0  0  0  0
    6.3139  -17.1056   24.6573 C   0  0  1  0  0  0  0  0  0  0  0  0
    6.9308  -16.7456   25.9825 C   0  0  0  0  0  0  0  0  0  0  0  0
    6.8386  -15.3353   26.3667 C   0  0  0  0  0  0  0  0  0  0  0  0
    5.6990  -14.5851   26.4357 C   0  0  0  0  0  0  0  0  0  0  0  0
    6.0020  -13.3260   26.7872 N   0  0  0  0  0  0  0  0  0  0  0  0
    7.3457  -13.2543   26.9492 C   0  0  0  0  0  0  0  0  0  0  0  0
    8.2009  -12.2477   27.3091 C   0  0  0  0  0  0  0  0  0  0  0  0
    9.5617  -12.3962   27.4318 C   0  0  0  0  0  0  0  0  0  0  0  0
   10.0823  -13.6511   27.1708 C   0  0  0  0  0  0  0  0  0  0  0  0
    9.2696  -14.6825   26.8087 C   0  0  0  0  0  0  0  0  0  0  0  0
    7.8878  -14.5073   26.6895 C   0  0  0  0  0  0  0  0  0  0  0  0
    7.3219  -17.1415   23.5868 C   0  0  0  0  0  0  0  0  0  0  0  0
    7.7036  -18.3295   23.2818 O   0  0  0  0  0  0  0  0  0  0  0  0
    7.8661  -16.0277   22.9112 N   0  0  0  0  0  0  0  0  0  0  0  0
    7.5315  -14.6585   23.1553 C   0  0  0  0  0  0  0  0  0  0  0  0
    7.8642  -13.9478   21.8912 C   0  0  0  0  0  0  0  0  0  0  0  0
    8.3326  -15.0171   20.9207 C   0  0  0  0  0  0  0  0  0  0  0  0
    8.8513  -16.0917   21.8691 C   0  0  1  0  0  0  0  0  0  0  0  0
   10.2203  -15.8042   22.3220 C   0  0  0  0  0  0  0  0  0  0  0  0
   10.4623  -14.7455   22.9517 O   0  0  0  0  0  0  0  0  0  0  0  0
   11.3305  -16.6584   22.0961 N   0  0  0  0  0  0  0  0  0  0  0  0
   12.6226  -16.4849   22.7261 C   0  0  1  0  0  0  0  0  0  0  0  0
   13.0063  -17.6846   23.5681 C   0  0  0  0  0  0  0  0  0  0  0  0
   11.7983  -17.9888   24.8663 S   0  0  0  0  0  0  0  0  0  0  0  0
   13.6456  -16.3329   21.6664 C   0  0  0  0  0  0  0  0  0  0  0  0
   14.9726  -16.0057   21.9237 O   0  0  0  0  0  0  0  0  0  0  0  0
   13.3331  -16.5006   20.4646 O   0  0  0  0  0  0  0  0  0  0  0  0
  2  1  1  1
  3  4  1  0
  3  2  1  0
  4 12  1  0
  5  4  2  0
  5  6  1  0
  6  7  1  0
  7  8  1  0
  8  9  2  0
 10  9  1  0
 11 10  2  0
 12  7  2  0
 12 11  1  0
 13 15  1  0
 13  2  1  0
 14 13  2  0
 15 16  1  0
 17 16  1  0
 18 17  1  0
 19 18  1  0
 19 20  1  1
 19 15  1  0
 20 21  2  0
 22 23  1  0
 22 20  1  0
 23 26  1  0
 23 24  1  6
 25 24  1  0
 26 28  2  0
 26 27  1  0
M  END
$$$$
