WPC.pdb
     RDKit          3D

 28 30  0  0  1  0  0  0  0  0999 V2000
    6.7020  -18.0663   24.2536 N   0  0  0  0  0  0  0  0  0  0  0  0
    6.9968  -16.7113   23.7799 C   0  0  1  0  0  0  0  0  0  0  0  0
    7.6987  -16.0241   24.9207 C   0  0  0  0  0  0  0  0  0  0  0  0
    6.8670  -15.1424   25.7428 C   0  0  0  0  0  0  0  0  0  0  0  0
    5.7512  -15.5003   26.4449 C   0  0  0  0  0  0  0  0  0  0  0  0
    5.2280  -14.4233   27.0507 N   0  0  0  0  0  0  0  0  0  0  0  0
    6.0066  -13.3574   26.7432 C   0  0  0  0  0  0  0  0  0  0  0  0
    5.9683  -12.0313   27.0811 C   0  0  0  0  0  0  0  0  0  0  0  0
    6.8880  -11.0999   26.6624 C   0  0  0  0  0  0  0  0  0  0  0  0
    7.9113  -11.5502   25.8476 C   0  0  0  0  0  0  0  0  0  0  0  0
    7.9894  -12.8609   25.4850 C   0  0  0  0  0  0  0  0  0  0  0  0
    7.0413  -13.7903   25.9226 C   0  0  0  0  0  0  0  0  0  0  0  0
    7.8164  -16.6993   22.5587 C   0  0  0  0  0  0  0  0  0  0  0  0
    8.2548  -17.8594   22.2242 O   0  0  0  0  0  0  0  0  0  0  0  0
    8.1350  -15.5691   21.7751 N   0  0  0  0  0  0  0  0  0  0  0  0
    7.7766  -14.2172   22.0757 C   0  0  0  0  0  0  0  0  0  0  0  0
    7.7886  -13.5133   20.7649 C   0  0  0  0  0  0  0  0  0  0  0  0
    8.1048  -14.5722   19.7240 C   0  0  0  0  0  0  0  0  0  0  0  0
    8.8782  -15.5957   20.5472 C   0  0  1  0  0  0  0  0  0  0  0  0
   10.2919  -15.2197   20.6956 C   0  0  0  0  0  0  0  0  0  0  0  0
   10.5950  -14.0799   21.1256 O   0  0  0  0  0  0  0  0  0  0  0  0
   11.3809  -16.0727   20.3803 N   0  0  0  0  0  0  0  0  0  0  0  0
   12.3604  -16.5209   21.3478 C   0  0  1  0  0  0  0  0  0  0  0  0
   11.7130  -17.2263   22.5221 C   0  0  0  0  0  0  0  0  0  0  0  0
   12.3746  -16.6367   24.0880 S   0  0  0  0  0  0  0  0  0  0  0  0
   13.2667  -17.4873   20.6862 C   0  0  0  0  0  0  0  0  0  0  0  0
   14.6527  -17.4289   20.7847 O   0  0  0  0  0  0  0  0  0  0  0  0
   12.7931  -18.4182   19.9939 O   0  0  0  0  0  0  0  0  0  0  0  0
  2  1  1  1
  3  4  1  0
  3  2  1  0
  4 12  1  0
  5  4  2  0
  5  6  1  0
  6  7  1  0
  7  8  1  0
  8  9  2  0
 10  9  1  0
 11 10  2  0
 12  7  2  0
 12 11  1  0
 13 15  1  0
 13  2  1  0
 14 13  2  0
 15 16  1  0
 17 16  1  0
 18 17  1  0
 19 18  1  0
 19 20  1  1
 19 15  1  0
 20 21  2  0
 22 23  1  0
 22 20  1  0
 23 26  1  0
 23 24  1  1
 25 24  1  0
 26 28  2  0
 26 27  1  0
M  END
$$$$
