WPC.pdb
     RDKit          3D

 28 30  0  0  1  0  0  0  0  0999 V2000
    5.8723  -18.0831   24.1502 N   0  0  0  0  0  0  0  0  0  0  0  0
    6.3968  -16.7642   23.7860 C   0  0  1  0  0  0  0  0  0  0  0  0
    7.2143  -16.3103   24.9658 C   0  0  0  0  0  0  0  0  0  0  0  0
    6.6705  -15.1794   25.7211 C   0  0  0  0  0  0  0  0  0  0  0  0
    5.4474  -15.1200   26.3266 C   0  0  0  0  0  0  0  0  0  0  0  0
    5.2764  -13.9156   26.8930 N   0  0  0  0  0  0  0  0  0  0  0  0
    6.3936  -13.1857   26.6568 C   0  0  0  0  0  0  0  0  0  0  0  0
    6.7830  -11.9182   26.9976 C   0  0  0  0  0  0  0  0  0  0  0  0
    7.9955  -11.3653   26.6616 C   0  0  0  0  0  0  0  0  0  0  0  0
    8.8653  -12.1556   25.9317 C   0  0  0  0  0  0  0  0  0  0  0  0
    8.5203  -13.4225   25.5695 C   0  0  0  0  0  0  0  0  0  0  0  0
    7.2805  -13.9636   25.9221 C   0  0  0  0  0  0  0  0  0  0  0  0
    7.1991  -16.7895   22.5535 C   0  0  0  0  0  0  0  0  0  0  0  0
    7.3290  -17.9643   22.0505 O   0  0  0  0  0  0  0  0  0  0  0  0
    7.7999  -15.6788   21.9224 N   0  0  0  0  0  0  0  0  0  0  0  0
    7.6531  -14.3126   22.3204 C   0  0  0  0  0  0  0  0  0  0  0  0
    7.9396  -13.5198   21.0944 C   0  0  0  0  0  0  0  0  0  0  0  0
    8.1817  -14.5314   19.9887 C   0  0  0  0  0  0  0  0  0  0  0  0
    8.6628  -15.7440   20.7770 C   0  0  1  0  0  0  0  0  0  0  0  0
   10.0941  -15.6507   21.1007 C   0  0  0  0  0  0  0  0  0  0  0  0
   10.9167  -15.3186   20.2125 O   0  0  0  0  0  0  0  0  0  0  0  0
   10.6402  -15.9156   22.3832 N   0  0  0  0  0  0  0  0  0  0  0  0
   12.0358  -15.7274   22.7198 C   0  0  1  0  0  0  0  0  0  0  0  0
   12.2219  -15.3746   24.1814 C   0  0  0  0  0  0  0  0  0  0  0  0
   10.6428  -15.2692   25.0374 S   0  0  0  0  0  0  0  0  0  0  0  0
   12.7554  -16.9969   22.4679 C   0  0  0  0  0  0  0  0  0  0  0  0
   14.1303  -17.1415   22.6202 O   0  0  0  0  0  0  0  0  0  0  0  0
   12.1231  -18.0131   22.0970 O   0  0  0  0  0  0  0  0  0  0  0  0
  2  1  1  1
  3  4  1  0
  3  2  1  0
  4 12  1  0
  5  4  2  0
  5  6  1  0
  6  7  1  0
  7  8  1  0
  8  9  2  0
 10  9  1  0
 11 10  2  0
 12  7  2  0
 12 11  1  0
 13 15  1  0
 13  2  1  0
 14 13  2  0
 15 16  1  0
 17 16  1  0
 18 17  1  0
 19 18  1  0
 19 20  1  1
 19 15  1  0
 20 21  2  0
 22 23  1  0
 22 20  1  0
 23 26  1  0
 23 24  1  1
 25 24  1  0
 26 28  2  0
 26 27  1  0
M  END
$$$$
