WPC.pdb
     RDKit          3D

 28 30  0  0  1  0  0  0  0  0999 V2000
    6.3839  -18.5412   24.8777 N   0  0  0  0  0  0  0  0  0  0  0  0
    6.5874  -17.1857   24.3596 C   0  0  1  0  0  0  0  0  0  0  0  0
    7.3446  -16.4486   25.4319 C   0  0  0  0  0  0  0  0  0  0  0  0
    6.7015  -15.2389   25.9497 C   0  0  0  0  0  0  0  0  0  0  0  0
    5.3786  -15.0899   26.2562 C   0  0  0  0  0  0  0  0  0  0  0  0
    5.1441  -13.8348   26.6688 N   0  0  0  0  0  0  0  0  0  0  0  0
    6.3198  -13.1615   26.6322 C   0  0  0  0  0  0  0  0  0  0  0  0
    6.6842  -11.8800   26.9473 C   0  0  0  0  0  0  0  0  0  0  0  0
    7.9663  -11.3947   26.8499 C   0  0  0  0  0  0  0  0  0  0  0  0
    8.9376  -12.2724   26.4026 C   0  0  0  0  0  0  0  0  0  0  0  0
    8.6212  -13.5566   26.0768 C   0  0  0  0  0  0  0  0  0  0  0  0
    7.3094  -14.0278   26.1832 C   0  0  0  0  0  0  0  0  0  0  0  0
    7.3119  -17.1666   23.0798 C   0  0  0  0  0  0  0  0  0  0  0  0
    7.4364  -18.3274   22.5440 O   0  0  0  0  0  0  0  0  0  0  0  0
    7.8473  -16.0292   22.4375 N   0  0  0  0  0  0  0  0  0  0  0  0
    7.6927  -14.6752   22.8722 C   0  0  0  0  0  0  0  0  0  0  0  0
    7.8862  -13.8516   21.6482 C   0  0  0  0  0  0  0  0  0  0  0  0
    8.0851  -14.8351   20.5090 C   0  0  0  0  0  0  0  0  0  0  0  0
    8.6412  -16.0506   21.2416 C   0  0  1  0  0  0  0  0  0  0  0  0
   10.0867  -15.9282   21.4812 C   0  0  0  0  0  0  0  0  0  0  0  0
   10.8060  -15.3018   20.6651 O   0  0  0  0  0  0  0  0  0  0  0  0
   10.7585  -16.4816   22.6018 N   0  0  0  0  0  0  0  0  0  0  0  0
   12.1210  -16.1549   22.9671 C   0  0  1  0  0  0  0  0  0  0  0  0
   12.3157  -16.1431   24.4696 C   0  0  0  0  0  0  0  0  0  0  0  0
   10.9222  -15.3709   25.3060 S   0  0  0  0  0  0  0  0  0  0  0  0
   13.0194  -17.1892   22.4049 C   0  0  0  0  0  0  0  0  0  0  0  0
   14.4060  -17.1307   22.4949 O   0  0  0  0  0  0  0  0  0  0  0  0
   12.5381  -18.1818   21.8107 O   0  0  0  0  0  0  0  0  0  0  0  0
  2  1  1  1
  3  4  1  0
  3  2  1  0
  4 12  1  0
  5  4  2  0
  5  6  1  0
  6  7  1  0
  7  8  1  0
  8  9  2  0
 10  9  1  0
 11 10  2  0
 12  7  2  0
 12 11  1  0
 13 15  1  0
 13  2  1  0
 14 13  2  0
 15 16  1  0
 17 16  1  0
 18 17  1  0
 19 18  1  0
 19 20  1  1
 19 15  1  0
 20 21  2  0
 22 23  1  0
 22 20  1  0
 23 26  1  0
 23 24  1  1
 25 24  1  0
 26 28  2  0
 26 27  1  0
M  END
$$$$
