WPC.pdb
     RDKit          3D

 28 30  0  0  1  0  0  0  0  0999 V2000
    6.4919  -17.8422   24.9394 N   0  0  0  0  0  0  0  0  0  0  0  0
    6.0943  -16.9971   23.8102 C   0  0  1  0  0  0  0  0  0  0  0  0
    5.8744  -15.6237   24.3863 C   0  0  0  0  0  0  0  0  0  0  0  0
    6.8116  -15.2145   25.4347 C   0  0  0  0  0  0  0  0  0  0  0  0
    7.6925  -16.0216   26.0971 C   0  0  0  0  0  0  0  0  0  0  0  0
    8.3632  -15.3090   27.0151 N   0  0  0  0  0  0  0  0  0  0  0  0
    7.9185  -14.0302   26.9511 C   0  0  0  0  0  0  0  0  0  0  0  0
    8.2420  -12.8832   27.6249 C   0  0  0  0  0  0  0  0  0  0  0  0
    7.6661  -11.6583   27.3870 C   0  0  0  0  0  0  0  0  0  0  0  0
    6.6992  -11.6003   26.3993 C   0  0  0  0  0  0  0  0  0  0  0  0
    6.3446  -12.7162   25.7033 C   0  0  0  0  0  0  0  0  0  0  0  0
    6.9438  -13.9521   25.9636 C   0  0  0  0  0  0  0  0  0  0  0  0
    7.0962  -16.9747   22.7337 C   0  0  0  0  0  0  0  0  0  0  0  0
    7.5271  -18.1407   22.4101 O   0  0  0  0  0  0  0  0  0  0  0  0
    7.5872  -15.8292   22.0704 N   0  0  0  0  0  0  0  0  0  0  0  0
    7.1824  -14.4807   22.3234 C   0  0  0  0  0  0  0  0  0  0  0  0
    7.4861  -13.7437   21.0670 C   0  0  0  0  0  0  0  0  0  0  0  0
    8.0137  -14.7799   20.0910 C   0  0  0  0  0  0  0  0  0  0  0  0
    8.5805  -15.8347   21.0340 C   0  0  1  0  0  0  0  0  0  0  0  0
    9.9305  -15.4821   21.4978 C   0  0  0  0  0  0  0  0  0  0  0  0
   10.3179  -14.2890   21.4488 O   0  0  0  0  0  0  0  0  0  0  0  0
   10.8649  -16.4162   22.0152 N   0  0  0  0  0  0  0  0  0  0  0  0
   11.9837  -16.0539   22.8598 C   0  0  1  0  0  0  0  0  0  0  0  0
   11.5284  -15.4472   24.1714 C   0  0  0  0  0  0  0  0  0  0  0  0
   10.5110  -16.5977   25.1086 S   0  0  0  0  0  0  0  0  0  0  0  0
   12.7521  -17.2802   23.1738 C   0  0  0  0  0  0  0  0  0  0  0  0
   13.9945  -17.2669   23.7987 O   0  0  0  0  0  0  0  0  0  0  0  0
   12.2878  -18.4049   22.8743 O   0  0  0  0  0  0  0  0  0  0  0  0
  2  1  1  1
  3  4  1  0
  3  2  1  0
  4 12  1  0
  5  4  2  0
  5  6  1  0
  6  7  1  0
  7  8  1  0
  8  9  2  0
 10  9  1  0
 11 10  2  0
 12  7  2  0
 12 11  1  0
 13 15  1  0
 13  2  1  0
 14 13  2  0
 15 16  1  0
 17 16  1  0
 18 17  1  0
 19 18  1  0
 19 20  1  1
 19 15  1  0
 20 21  2  0
 22 23  1  0
 22 20  1  0
 23 26  1  0
 23 24  1  1
 25 24  1  0
 26 28  2  0
 26 27  1  0
M  END
$$$$
