WPC.pdb
     RDKit          3D

 28 30  0  0  1  0  0  0  0  0999 V2000
    6.3648  -18.5357   25.0247 N   0  0  0  0  0  0  0  0  0  0  0  0
    6.8177  -17.1693   24.7501 C   0  0  1  0  0  0  0  0  0  0  0  0
    7.5437  -16.7231   25.9912 C   0  0  0  0  0  0  0  0  0  0  0  0
    7.1804  -15.3991   26.5011 C   0  0  0  0  0  0  0  0  0  0  0  0
    5.9572  -14.7988   26.4038 C   0  0  0  0  0  0  0  0  0  0  0  0
    6.0046  -13.5746   26.9512 N   0  0  0  0  0  0  0  0  0  0  0  0
    7.2647  -13.3752   27.4087 C   0  0  0  0  0  0  0  0  0  0  0  0
    7.8812  -12.3384   28.0562 C   0  0  0  0  0  0  0  0  0  0  0  0
    9.1964  -12.3484   28.4548 C   0  0  0  0  0  0  0  0  0  0  0  0
    9.9286  -13.4883   28.1748 C   0  0  0  0  0  0  0  0  0  0  0  0
    9.3573  -14.5444   27.5317 C   0  0  0  0  0  0  0  0  0  0  0  0
    8.0173  -14.5111   27.1349 C   0  0  0  0  0  0  0  0  0  0  0  0
    7.6800  -17.0819   23.5618 C   0  0  0  0  0  0  0  0  0  0  0  0
    8.1725  -18.2123   23.2015 O   0  0  0  0  0  0  0  0  0  0  0  0
    7.9853  -15.9121   22.8329 N   0  0  0  0  0  0  0  0  0  0  0  0
    7.5599  -14.5872   23.1648 C   0  0  0  0  0  0  0  0  0  0  0  0
    7.5986  -13.8357   21.8812 C   0  0  0  0  0  0  0  0  0  0  0  0
    8.0012  -14.8425   20.8187 C   0  0  0  0  0  0  0  0  0  0  0  0
    8.7801  -15.8646   21.6384 C   0  0  1  0  0  0  0  0  0  0  0  0
   10.1698  -15.4393   21.8614 C   0  0  0  0  0  0  0  0  0  0  0  0
   10.4101  -14.4283   22.5658 O   0  0  0  0  0  0  0  0  0  0  0  0
   11.3027  -16.1040   21.3247 N   0  0  0  0  0  0  0  0  0  0  0  0
   12.3961  -16.6099   22.1278 C   0  0  1  0  0  0  0  0  0  0  0  0
   11.9226  -17.6146   23.1582 C   0  0  0  0  0  0  0  0  0  0  0  0
   12.3898  -17.1171   24.8231 S   0  0  0  0  0  0  0  0  0  0  0  0
   13.3556  -17.2990   21.2348 C   0  0  0  0  0  0  0  0  0  0  0  0
   14.7276  -17.0737   21.2645 O   0  0  0  0  0  0  0  0  0  0  0  0
   12.9433  -18.1346   20.3970 O   0  0  0  0  0  0  0  0  0  0  0  0
  2  1  1  1
  3  4  1  0
  3  2  1  0
  4 12  1  0
  5  4  2  0
  5  6  1  0
  6  7  1  0
  7  8  1  0
  8  9  2  0
 10  9  1  0
 11 10  2  0
 12  7  2  0
 12 11  1  0
 13 15  1  0
 13  2  1  0
 14 13  2  0
 15 16  1  0
 17 16  1  0
 18 17  1  0
 19 18  1  0
 19 20  1  1
 19 15  1  0
 20 21  2  0
 22 23  1  0
 22 20  1  0
 23 26  1  0
 23 24  1  1
 25 24  1  0
 26 28  2  0
 26 27  1  0
M  END
$$$$
