TQT.pdb
     RDKit          3D

 24 23  0  0  1  0  0  0  0  0999 V2000
    9.0291  -21.4844   18.2368 C   0  0  0  0  0  0  0  0  0  0  0  0
    8.6807  -20.9177   19.5847 C   0  0  1  0  0  0  0  0  0  0  0  0
    9.8011  -20.2031   20.0421 O   0  0  0  0  0  0  0  0  0  0  0  0
    7.5734  -19.8946   19.3735 C   0  0  2  0  0  0  0  0  0  0  0  0
    8.0211  -18.9293   18.4517 N   0  0  0  0  0  0  0  0  0  0  0  0
    7.0498  -19.3747   20.6383 C   0  0  0  0  0  0  0  0  0  0  0  0
    7.2135  -18.1553   20.8994 O   0  0  0  0  0  0  0  0  0  0  0  0
    3.4513  -22.8341   23.0915 N   0  0  0  0  0  0  0  0  0  0  0  0
    2.8494  -21.7856   22.3647 C   0  0  0  0  0  0  0  0  0  0  0  0
    1.8100  -21.9855   21.7231 O   0  0  0  0  0  0  0  0  0  0  0  0
    3.4958  -20.4396   22.3909 C   0  0  0  0  0  0  0  0  0  0  0  0
    4.6892  -20.5212   23.2950 C   0  0  0  0  0  0  0  0  0  0  0  0
    5.8851  -19.7206   22.8644 C   0  0  2  0  0  0  0  0  0  0  0  0
    6.3685  -20.2063   21.5677 N   0  0  0  0  0  0  0  0  0  0  0  0
    6.9611  -19.8001   23.8769 C   0  0  0  0  0  0  0  0  0  0  0  0
    6.7209  -19.3989   25.0385 O   0  0  0  0  0  0  0  0  0  0  0  0
   10.5787  -21.9430   23.2266 C   0  0  0  0  0  0  0  0  0  0  0  0
    9.9870  -21.7173   24.5922 C   0  0  1  0  0  0  0  0  0  0  0  0
   10.9805  -21.7548   25.5696 O   0  0  0  0  0  0  0  0  0  0  0  0
    9.2409  -20.3918   24.6445 C   0  0  2  0  0  0  0  0  0  0  0  0
    8.2507  -20.3070   23.6007 N   0  0  0  0  0  0  0  0  0  0  0  0
   10.1938  -19.2632   24.4952 C   0  0  0  0  0  0  0  0  0  0  0  0
   10.1093  -18.4814   23.5304 O   0  0  0  0  0  0  0  0  0  0  0  0
   11.1727  -19.1192   25.4675 O   0  0  0  0  0  0  0  0  0  0  0  0
  2  1  1  6
  2  3  1  0
  4  5  1  6
  4  2  1  0
  6  4  1  0
  7  6  2  0
  8  9  1  0
  9 11  1  0
  9 10  2  0
 11 12  1  0
 13 12  1  1
 13 14  1  0
 14  6  1  0
 15 21  1  0
 15 13  1  0
 16 15  2  0
 18 17  1  6
 18 20  1  0
 18 19  1  0
 20 21  1  6
 20 22  1  0
 22 24  1  0
 23 22  2  0
M  END
$$$$
