TQT.pdb
     RDKit          3D

 24 23  0  0  1  0  0  0  0  0999 V2000
    8.5279  -12.3375   19.1606 C   0  0  0  0  0  0  0  0  0  0  0  0
    7.6942  -13.3655   18.4480 C   0  0  1  0  0  0  0  0  0  0  0  0
    6.8384  -12.6773   17.5709 O   0  0  0  0  0  0  0  0  0  0  0  0
    8.6346  -14.1869   17.5771 C   0  0  2  0  0  0  0  0  0  0  0  0
    7.8655  -14.9499   16.6781 N   0  0  0  0  0  0  0  0  0  0  0  0
    9.6157  -14.9314   18.3690 C   0  0  0  0  0  0  0  0  0  0  0  0
    9.2997  -16.0703   18.7990 O   0  0  0  0  0  0  0  0  0  0  0  0
   15.6302  -13.6829   18.4225 N   0  0  0  0  0  0  0  0  0  0  0  0
   15.6596  -14.5268   19.5526 C   0  0  0  0  0  0  0  0  0  0  0  0
   16.7305  -14.7711   20.1230 O   0  0  0  0  0  0  0  0  0  0  0  0
   14.3738  -15.1119   20.0369 C   0  0  0  0  0  0  0  0  0  0  0  0
   13.2693  -14.5604   19.1858 C   0  0  0  0  0  0  0  0  0  0  0  0
   11.9053  -15.1358   19.4404 C   0  0  2  0  0  0  0  0  0  0  0  0
   10.9026  -14.4032   18.6601 N   0  0  0  0  0  0  0  0  0  0  0  0
   11.5747  -15.0827   20.8816 C   0  0  0  0  0  0  0  0  0  0  0  0
   10.9684  -14.0787   21.3201 O   0  0  0  0  0  0  0  0  0  0  0  0
    9.3258  -14.8381   22.3393 C   0  0  0  0  0  0  0  0  0  0  0  0
    9.7824  -16.1094   23.0035 C   0  0  1  0  0  0  0  0  0  0  0  0
    9.3066  -17.2225   22.3118 O   0  0  0  0  0  0  0  0  0  0  0  0
   11.3008  -16.1530   23.0988 C   0  0  2  0  0  0  0  0  0  0  0  0
   11.9087  -16.1096   21.7928 N   0  0  0  0  0  0  0  0  0  0  0  0
   11.7335  -17.3942   23.7889 C   0  0  0  0  0  0  0  0  0  0  0  0
   11.4516  -17.5892   24.9854 O   0  0  0  0  0  0  0  0  0  0  0  0
   12.4583  -18.3179   23.0501 O   0  0  0  0  0  0  0  0  0  0  0  0
  2  1  1  6
  2  3  1  0
  4  5  1  1
  4  2  1  0
  6  4  1  0
  7  6  2  0
  8  9  1  0
  9 11  1  0
  9 10  2  0
 11 12  1  0
 13 12  1  1
 13 14  1  0
 14  6  1  0
 15 21  1  0
 15 13  1  0
 16 15  2  0
 18 17  1  6
 18 20  1  0
 18 19  1  0
 20 21  1  6
 20 22  1  0
 22 24  1  0
 23 22  2  0
M  END
$$$$
