TQT.pdb
     RDKit          3D

 24 23  0  0  1  0  0  0  0  0999 V2000
    8.3018  -12.2454   18.8944 C   0  0  0  0  0  0  0  0  0  0  0  0
    7.5085  -13.3181   18.2019 C   0  0  1  0  0  0  0  0  0  0  0  0
    6.7496  -12.6959   17.1959 O   0  0  0  0  0  0  0  0  0  0  0  0
    8.5009  -14.2289   17.4926 C   0  0  2  0  0  0  0  0  0  0  0  0
    7.7903  -15.0853   16.6303 N   0  0  0  0  0  0  0  0  0  0  0  0
    9.4197  -14.8826   18.4266 C   0  0  0  0  0  0  0  0  0  0  0  0
    9.0370  -15.9279   19.0119 O   0  0  0  0  0  0  0  0  0  0  0  0
   15.4031  -13.4179   18.8138 N   0  0  0  0  0  0  0  0  0  0  0  0
   15.4234  -14.3981   19.8280 C   0  0  0  0  0  0  0  0  0  0  0  0
   16.4835  -14.6864   20.3981 O   0  0  0  0  0  0  0  0  0  0  0  0
   14.1413  -15.0722   20.1914 C   0  0  0  0  0  0  0  0  0  0  0  0
   13.0526  -14.4686   19.3554 C   0  0  0  0  0  0  0  0  0  0  0  0
   11.6801  -15.0421   19.5654 C   0  0  2  0  0  0  0  0  0  0  0  0
   10.7196  -14.3693   18.6847 N   0  0  0  0  0  0  0  0  0  0  0  0
   11.2655  -14.9047   20.9790 C   0  0  0  0  0  0  0  0  0  0  0  0
   10.6640  -13.8633   21.3279 O   0  0  0  0  0  0  0  0  0  0  0  0
    8.9947  -14.4359   22.3939 C   0  0  0  0  0  0  0  0  0  0  0  0
    9.3764  -15.6897   23.1343 C   0  0  1  0  0  0  0  0  0  0  0  0
    8.8529  -16.8140   22.4975 O   0  0  0  0  0  0  0  0  0  0  0  0
   10.8891  -15.8049   23.2561 C   0  0  2  0  0  0  0  0  0  0  0  0
   11.5135  -15.8909   21.9599 N   0  0  0  0  0  0  0  0  0  0  0  0
   11.2475  -17.0118   24.0428 C   0  0  0  0  0  0  0  0  0  0  0  0
   11.8394  -17.9677   23.5088 O   0  0  0  0  0  0  0  0  0  0  0  0
   10.8978  -17.0281   25.3850 O   0  0  0  0  0  0  0  0  0  0  0  0
  2  1  1  6
  2  3  1  0
  4  5  1  1
  4  2  1  0
  6  4  1  0
  7  6  2  0
  8  9  1  0
  9 11  1  0
  9 10  2  0
 11 12  1  0
 13 12  1  1
 13 14  1  0
 14  6  1  0
 15 21  1  0
 15 13  1  0
 16 15  2  0
 18 17  1  6
 18 20  1  0
 18 19  1  0
 20 21  1  6
 20 22  1  0
 22 24  1  0
 23 22  2  0
M  END
$$$$
