TQT.pdb
     RDKit          3D

 24 23  0  0  1  0  0  0  0  0999 V2000
    8.7398  -12.6169   19.8045 C   0  0  0  0  0  0  0  0  0  0  0  0
    7.7932  -13.3950   18.9340 C   0  0  1  0  0  0  0  0  0  0  0  0
    7.4828  -12.5884   17.8257 O   0  0  0  0  0  0  0  0  0  0  0  0
    8.5576  -14.5953   18.3933 C   0  0  2  0  0  0  0  0  0  0  0  0
    7.7979  -15.1889   17.3674 N   0  0  0  0  0  0  0  0  0  0  0  0
    9.0038  -15.4948   19.4590 C   0  0  0  0  0  0  0  0  0  0  0  0
    8.1508  -16.2281   20.0215 O   0  0  0  0  0  0  0  0  0  0  0  0
   14.1856  -18.1325   20.0489 N   0  0  0  0  0  0  0  0  0  0  0  0
   13.9746  -18.2036   21.4419 C   0  0  0  0  0  0  0  0  0  0  0  0
   14.6426  -18.9801   22.1368 O   0  0  0  0  0  0  0  0  0  0  0  0
   12.9321  -17.3235   22.0491 C   0  0  0  0  0  0  0  0  0  0  0  0
   12.3206  -16.5096   20.9482 C   0  0  0  0  0  0  0  0  0  0  0  0
   10.8223  -16.4046   20.9746 C   0  0  2  0  0  0  0  0  0  0  0  0
   10.3632  -15.5581   19.8685 N   0  0  0  0  0  0  0  0  0  0  0  0
   10.3581  -15.8569   22.2683 C   0  0  0  0  0  0  0  0  0  0  0  0
   10.5662  -14.6471   22.5154 O   0  0  0  0  0  0  0  0  0  0  0  0
    6.9262  -16.8339   24.0531 C   0  0  0  0  0  0  0  0  0  0  0  0
    7.7751  -15.6409   24.4022 C   0  0  1  0  0  0  0  0  0  0  0  0
    7.3598  -15.0796   25.6089 O   0  0  0  0  0  0  0  0  0  0  0  0
    9.2454  -16.0276   24.4750 C   0  0  2  0  0  0  0  0  0  0  0  0
    9.6896  -16.6304   23.2435 N   0  0  0  0  0  0  0  0  0  0  0  0
    9.4665  -16.9868   25.5863 C   0  0  0  0  0  0  0  0  0  0  0  0
    9.1234  -16.7048   26.7490 O   0  0  0  0  0  0  0  0  0  0  0  0
   10.0660  -18.1987   25.2761 O   0  0  0  0  0  0  0  0  0  0  0  0
  2  1  1  1
  2  3  1  0
  4  5  1  6
  4  2  1  0
  6  4  1  0
  7  6  2  0
  8  9  1  0
  9 11  1  0
  9 10  2  0
 11 12  1  0
 13 12  1  1
 13 14  1  0
 14  6  1  0
 15 21  1  0
 15 13  1  0
 16 15  2  0
 18 17  1  1
 18 20  1  0
 18 19  1  0
 20 21  1  6
 20 22  1  0
 22 24  1  0
 23 22  2  0
M  END
$$$$
