TQT.pdb
     RDKit          3D

 24 23  0  0  1  0  0  0  0  0999 V2000
    8.4592  -12.3831   20.4954 C   0  0  0  0  0  0  0  0  0  0  0  0
    7.7516  -13.2600   19.5004 C   0  0  1  0  0  0  0  0  0  0  0  0
    8.0742  -12.7847   18.2178 O   0  0  0  0  0  0  0  0  0  0  0  0
    8.3592  -14.6514   19.6102 C   0  0  2  0  0  0  0  0  0  0  0  0
    7.8837  -15.4367   18.5429 N   0  0  0  0  0  0  0  0  0  0  0  0
    8.1942  -15.2249   20.9473 C   0  0  0  0  0  0  0  0  0  0  0  0
    7.0696  -15.6888   21.2666 O   0  0  0  0  0  0  0  0  0  0  0  0
   11.6744  -19.7799   21.9198 N   0  0  0  0  0  0  0  0  0  0  0  0
   11.1204  -19.1370   23.0466 C   0  0  0  0  0  0  0  0  0  0  0  0
   11.6338  -19.2803   24.1637 O   0  0  0  0  0  0  0  0  0  0  0  0
    9.9081  -18.2863   22.8555 C   0  0  0  0  0  0  0  0  0  0  0  0
   10.2178  -16.9195   23.3889 C   0  0  0  0  0  0  0  0  0  0  0  0
    9.1380  -15.8915   23.2050 C   0  0  2  0  0  0  0  0  0  0  0  0
    9.2632  -15.2693   21.8828 N   0  0  0  0  0  0  0  0  0  0  0  0
    9.2077  -14.8628   24.2661 C   0  0  0  0  0  0  0  0  0  0  0  0
   10.1511  -14.0398   24.2409 O   0  0  0  0  0  0  0  0  0  0  0  0
    6.7852  -12.0346   25.2378 C   0  0  0  0  0  0  0  0  0  0  0  0
    7.0100  -12.9626   26.4014 C   0  0  1  0  0  0  0  0  0  0  0  0
    5.9676  -13.8828   26.5035 O   0  0  0  0  0  0  0  0  0  0  0  0
    8.3434  -13.6841   26.2663 C   0  0  2  0  0  0  0  0  0  0  0  0
    8.2618  -14.7599   25.3107 N   0  0  0  0  0  0  0  0  0  0  0  0
    8.7593  -14.2385   27.5792 C   0  0  0  0  0  0  0  0  0  0  0  0
    8.8789  -15.4665   27.7431 O   0  0  0  0  0  0  0  0  0  0  0  0
    9.0062  -13.3379   28.6049 O   0  0  0  0  0  0  0  0  0  0  0  0
  2  1  1  1
  2  3  1  0
  4  5  1  6
  4  2  1  0
  6  4  1  0
  7  6  2  0
  8  9  1  0
  9 11  1  0
  9 10  2  0
 11 12  1  0
 13 12  1  1
 13 14  1  0
 14  6  1  0
 15 21  1  0
 15 13  1  0
 16 15  2  0
 18 17  1  6
 18 20  1  0
 18 19  1  0
 20 21  1  6
 20 22  1  0
 22 24  1  0
 23 22  2  0
M  END
$$$$
