TQT.pdb
     RDKit          3D

 24 23  0  0  1  0  0  0  0  0999 V2000
    8.7717  -12.2808   19.3602 C   0  0  0  0  0  0  0  0  0  0  0  0
    7.8270  -13.2002   18.6379 C   0  0  1  0  0  0  0  0  0  0  0  0
    7.0047  -12.4024   17.8241 O   0  0  0  0  0  0  0  0  0  0  0  0
    8.6610  -14.0593   17.6977 C   0  0  2  0  0  0  0  0  0  0  0  0
    7.7927  -14.7836   16.8591 N   0  0  0  0  0  0  0  0  0  0  0  0
    9.6649  -14.8500   18.4125 C   0  0  0  0  0  0  0  0  0  0  0  0
    9.2947  -15.8967   19.0034 O   0  0  0  0  0  0  0  0  0  0  0  0
   16.0259  -13.3690   19.4330 N   0  0  0  0  0  0  0  0  0  0  0  0
   15.8211  -14.7248   19.1017 C   0  0  0  0  0  0  0  0  0  0  0  0
   16.6738  -15.3461   18.4545 O   0  0  0  0  0  0  0  0  0  0  0  0
   14.5580  -15.3835   19.5497 C   0  0  0  0  0  0  0  0  0  0  0  0
   13.4197  -14.7401   18.8158 C   0  0  0  0  0  0  0  0  0  0  0  0
   12.0484  -15.2219   19.1953 C   0  0  2  0  0  0  0  0  0  0  0  0
   11.0328  -14.4669   18.4540 N   0  0  0  0  0  0  0  0  0  0  0  0
   11.8294  -15.0849   20.6521 C   0  0  0  0  0  0  0  0  0  0  0  0
   12.1113  -13.9948   21.2000 O   0  0  0  0  0  0  0  0  0  0  0  0
    8.9823  -14.8440   22.9267 C   0  0  0  0  0  0  0  0  0  0  0  0
    9.7664  -16.0562   23.3527 C   0  0  1  0  0  0  0  0  0  0  0  0
    9.1781  -17.2195   22.8585 O   0  0  0  0  0  0  0  0  0  0  0  0
   11.2122  -15.9541   22.8883 C   0  0  2  0  0  0  0  0  0  0  0  0
   11.3167  -16.1239   21.4609 N   0  0  0  0  0  0  0  0  0  0  0  0
   12.0376  -16.9913   23.5569 C   0  0  0  0  0  0  0  0  0  0  0  0
   12.1884  -16.9867   24.7924 O   0  0  0  0  0  0  0  0  0  0  0  0
   12.6276  -17.9559   22.7534 O   0  0  0  0  0  0  0  0  0  0  0  0
  2  1  1  6
  2  3  1  0
  4  5  1  1
  4  2  1  0
  6  4  1  0
  7  6  2  0
  8  9  1  0
  9 11  1  0
  9 10  2  0
 11 12  1  0
 13 12  1  1
 13 14  1  0
 14  6  1  0
 15 21  1  0
 15 13  1  0
 16 15  2  0
 18 17  1  6
 18 20  1  0
 18 19  1  0
 20 21  1  6
 20 22  1  0
 22 24  1  0
 23 22  2  0
M  END
$$$$
