TQT.pdb
     RDKit          3D

 24 23  0  0  1  0  0  0  0  0999 V2000
    8.5820  -13.9850   20.9147 C   0  0  0  0  0  0  0  0  0  0  0  0
    7.5483  -14.6967   20.0873 C   0  0  1  0  0  0  0  0  0  0  0  0
    8.0739  -14.8407   18.7919 O   0  0  0  0  0  0  0  0  0  0  0  0
    7.4046  -16.1026   20.6532 C   0  0  2  0  0  0  0  0  0  0  0  0
    6.5480  -16.8409   19.8146 N   0  0  0  0  0  0  0  0  0  0  0  0
    7.0549  -16.0951   22.0750 C   0  0  0  0  0  0  0  0  0  0  0  0
    5.8997  -15.7249   22.4069 O   0  0  0  0  0  0  0  0  0  0  0  0
    9.5481  -19.7327   26.2226 N   0  0  0  0  0  0  0  0  0  0  0  0
    8.7732  -18.9968   27.1435 C   0  0  0  0  0  0  0  0  0  0  0  0
    8.7281  -19.3346   28.3334 O   0  0  0  0  0  0  0  0  0  0  0  0
    8.0156  -17.8097   26.6468 C   0  0  0  0  0  0  0  0  0  0  0  0
    8.2745  -17.6829   25.1753 C   0  0  0  0  0  0  0  0  0  0  0  0
    7.6533  -16.4891   24.5079 C   0  0  2  0  0  0  0  0  0  0  0  0
    7.9801  -16.4921   23.0782 N   0  0  0  0  0  0  0  0  0  0  0  0
    8.1188  -15.2345   25.1392 C   0  0  0  0  0  0  0  0  0  0  0  0
    9.2789  -14.8341   24.8908 O   0  0  0  0  0  0  0  0  0  0  0  0
    6.1821  -11.6502   25.5311 C   0  0  0  0  0  0  0  0  0  0  0  0
    6.6889  -12.2401   26.8199 C   0  0  1  0  0  0  0  0  0  0  0  0
    5.6536  -12.8646   27.5141 O   0  0  0  0  0  0  0  0  0  0  0  0
    7.8195  -13.2240   26.5551 C   0  0  2  0  0  0  0  0  0  0  0  0
    7.3198  -14.4615   26.0111 N   0  0  0  0  0  0  0  0  0  0  0  0
    8.5499  -13.5134   27.8148 C   0  0  0  0  0  0  0  0  0  0  0  0
    8.6585  -14.6801   28.2345 O   0  0  0  0  0  0  0  0  0  0  0  0
    9.1005  -12.4383   28.4969 O   0  0  0  0  0  0  0  0  0  0  0  0
  2  1  1  1
  2  3  1  0
  4  5  1  6
  4  2  1  0
  6  4  1  0
  7  6  2  0
  8  9  1  0
  9 11  1  0
  9 10  2  0
 11 12  1  0
 13 12  1  1
 13 14  1  0
 14  6  1  0
 15 21  1  0
 15 13  1  0
 16 15  2  0
 18 17  1  6
 18 20  1  0
 18 19  1  0
 20 21  1  1
 20 22  1  0
 22 24  1  0
 23 22  2  0
M  END
$$$$
