TQT.pdb
     RDKit          3D

 24 23  0  0  1  0  0  0  0  0999 V2000
    8.7427  -12.4251   20.3055 C   0  0  0  0  0  0  0  0  0  0  0  0
    7.9370  -13.2351   19.3286 C   0  0  1  0  0  0  0  0  0  0  0  0
    8.3682  -12.8859   18.0374 O   0  0  0  0  0  0  0  0  0  0  0  0
    8.3163  -14.6956   19.5298 C   0  0  2  0  0  0  0  0  0  0  0  0
    7.7727  -15.4521   18.4743 N   0  0  0  0  0  0  0  0  0  0  0  0
    8.0053  -15.1686   20.8801 C   0  0  0  0  0  0  0  0  0  0  0  0
    6.8226  -15.5092   21.1390 O   0  0  0  0  0  0  0  0  0  0  0  0
   11.3942  -18.9791   23.6856 N   0  0  0  0  0  0  0  0  0  0  0  0
   10.5409  -18.8053   24.7954 C   0  0  0  0  0  0  0  0  0  0  0  0
   10.6337  -19.5514   25.7786 O   0  0  0  0  0  0  0  0  0  0  0  0
    9.5316  -17.7057   24.7511 C   0  0  0  0  0  0  0  0  0  0  0  0
    9.6655  -17.0129   23.4280 C   0  0  0  0  0  0  0  0  0  0  0  0
    8.7430  -15.8476   23.2097 C   0  0  2  0  0  0  0  0  0  0  0  0
    8.9975  -15.2511   21.8943 N   0  0  0  0  0  0  0  0  0  0  0  0
    8.9156  -14.8358   24.2753 C   0  0  0  0  0  0  0  0  0  0  0  0
    9.9993  -14.2116   24.3382 O   0  0  0  0  0  0  0  0  0  0  0  0
    6.3371  -11.9109   25.6730 C   0  0  0  0  0  0  0  0  0  0  0  0
    6.8406  -12.8970   26.6928 C   0  0  1  0  0  0  0  0  0  0  0  0
    5.8845  -13.8819   26.9365 O   0  0  0  0  0  0  0  0  0  0  0  0
    8.1474  -13.5279   26.2339 C   0  0  2  0  0  0  0  0  0  0  0  0
    7.9177  -14.5357   25.2295 N   0  0  0  0  0  0  0  0  0  0  0  0
    8.8468  -14.1494   27.3866 C   0  0  0  0  0  0  0  0  0  0  0  0
    9.0962  -15.3687   27.3983 O   0  0  0  0  0  0  0  0  0  0  0  0
    9.2065  -13.3209   28.4394 O   0  0  0  0  0  0  0  0  0  0  0  0
  2  1  1  1
  2  3  1  0
  4  5  1  6
  4  2  1  0
  6  4  1  0
  7  6  2  0
  8  9  1  0
  9 11  1  0
  9 10  2  0
 11 12  1  0
 13 12  1  1
 13 14  1  0
 14  6  1  0
 15 21  1  0
 15 13  1  0
 16 15  2  0
 18 17  1  6
 18 20  1  0
 18 19  1  0
 20 21  1  6
 20 22  1  0
 22 24  1  0
 23 22  2  0
M  END
$$$$
