TQT.pdb
     RDKit          3D

 24 23  0  0  1  0  0  0  0  0999 V2000
    8.8576  -12.3732   20.3690 C   0  0  0  0  0  0  0  0  0  0  0  0
    7.9966  -13.1962   19.4521 C   0  0  1  0  0  0  0  0  0  0  0  0
    8.3452  -12.8582   18.1332 O   0  0  0  0  0  0  0  0  0  0  0  0
    8.3944  -14.6531   19.6434 C   0  0  2  0  0  0  0  0  0  0  0  0
    7.8295  -15.4151   18.6032 N   0  0  0  0  0  0  0  0  0  0  0  0
    8.1241  -15.1281   21.0018 C   0  0  0  0  0  0  0  0  0  0  0  0
    6.9378  -15.4033   21.3162 O   0  0  0  0  0  0  0  0  0  0  0  0
   11.8409  -18.6310   24.2564 N   0  0  0  0  0  0  0  0  0  0  0  0
   11.0808  -19.0004   23.1269 C   0  0  0  0  0  0  0  0  0  0  0  0
   11.3179  -20.0601   22.5328 O   0  0  0  0  0  0  0  0  0  0  0  0
    9.9920  -18.0852   22.6720 C   0  0  0  0  0  0  0  0  0  0  0  0
    9.9815  -16.8954   23.5846 C   0  0  0  0  0  0  0  0  0  0  0  0
    8.9311  -15.8623   23.2913 C   0  0  2  0  0  0  0  0  0  0  0  0
    9.1592  -15.2838   21.9631 N   0  0  0  0  0  0  0  0  0  0  0  0
    8.9375  -14.8012   24.3224 C   0  0  0  0  0  0  0  0  0  0  0  0
    9.8810  -13.9781   24.3285 O   0  0  0  0  0  0  0  0  0  0  0  0
    6.4106  -11.9828   25.2842 C   0  0  0  0  0  0  0  0  0  0  0  0
    6.6636  -12.9104   26.4424 C   0  0  1  0  0  0  0  0  0  0  0  0
    5.6342  -13.8436   26.5572 O   0  0  0  0  0  0  0  0  0  0  0  0
    8.0037  -13.6150   26.2865 C   0  0  2  0  0  0  0  0  0  0  0  0
    7.9306  -14.6674   25.3046 N   0  0  0  0  0  0  0  0  0  0  0  0
    8.4280  -14.1978   27.5843 C   0  0  0  0  0  0  0  0  0  0  0  0
    8.6257  -15.4213   27.6990 O   0  0  0  0  0  0  0  0  0  0  0  0
    8.5930  -13.3287   28.6528 O   0  0  0  0  0  0  0  0  0  0  0  0
  2  1  1  1
  2  3  1  0
  4  5  1  6
  4  2  1  0
  6  4  1  0
  7  6  2  0
  8  9  1  0
  9 11  1  0
  9 10  2  0
 11 12  1  0
 13 12  1  1
 13 14  1  0
 14  6  1  0
 15 21  1  0
 15 13  1  0
 16 15  2  0
 18 17  1  6
 18 20  1  0
 18 19  1  0
 20 21  1  6
 20 22  1  0
 22 24  1  0
 23 22  2  0
M  END
$$$$
