TQT.pdb
     RDKit          3D

 24 23  0  0  1  0  0  0  0  0999 V2000
    9.0700  -12.2621   20.4692 C   0  0  0  0  0  0  0  0  0  0  0  0
    8.1478  -12.8705   19.4499 C   0  0  1  0  0  0  0  0  0  0  0  0
    8.5163  -12.3608   18.1931 O   0  0  0  0  0  0  0  0  0  0  0  0
    8.4374  -14.3644   19.4114 C   0  0  2  0  0  0  0  0  0  0  0  0
    7.7388  -14.9314   18.3286 N   0  0  0  0  0  0  0  0  0  0  0  0
    8.2272  -15.0040   20.7116 C   0  0  0  0  0  0  0  0  0  0  0  0
    7.0629  -15.3649   21.0215 O   0  0  0  0  0  0  0  0  0  0  0  0
   12.5257  -18.2501   24.9829 N   0  0  0  0  0  0  0  0  0  0  0  0
   11.2612  -18.6092   24.4712 C   0  0  0  0  0  0  0  0  0  0  0  0
   11.0647  -19.7501   24.0332 O   0  0  0  0  0  0  0  0  0  0  0  0
   10.1759  -17.5834   24.4727 C   0  0  0  0  0  0  0  0  0  0  0  0
   10.1961  -16.8920   23.1423 C   0  0  0  0  0  0  0  0  0  0  0  0
    9.1116  -15.8760   22.9229 C   0  0  2  0  0  0  0  0  0  0  0  0
    9.2961  -15.2244   21.6220 N   0  0  0  0  0  0  0  0  0  0  0  0
    9.1099  -14.8689   24.0068 C   0  0  0  0  0  0  0  0  0  0  0  0
   10.0339  -14.0245   24.0408 O   0  0  0  0  0  0  0  0  0  0  0  0
    6.5549  -12.1696   25.0178 C   0  0  0  0  0  0  0  0  0  0  0  0
    6.8130  -13.0977   26.1745 C   0  0  1  0  0  0  0  0  0  0  0  0
    5.7940  -14.0432   26.2816 O   0  0  0  0  0  0  0  0  0  0  0  0
    8.1620  -13.7862   26.0232 C   0  0  2  0  0  0  0  0  0  0  0  0
    8.1164  -14.8098   25.0097 N   0  0  0  0  0  0  0  0  0  0  0  0
    8.5675  -14.4033   27.3111 C   0  0  0  0  0  0  0  0  0  0  0  0
    8.7375  -15.6329   27.4027 O   0  0  0  0  0  0  0  0  0  0  0  0
    8.7468  -13.5590   28.3970 O   0  0  0  0  0  0  0  0  0  0  0  0
  2  1  1  1
  2  3  1  0
  4  5  1  6
  4  2  1  0
  6  4  1  0
  7  6  2  0
  8  9  1  0
  9 11  1  0
  9 10  2  0
 11 12  1  0
 13 12  1  1
 13 14  1  0
 14  6  1  0
 15 21  1  0
 15 13  1  0
 16 15  2  0
 18 17  1  6
 18 20  1  0
 18 19  1  0
 20 21  1  6
 20 22  1  0
 22 24  1  0
 23 22  2  0
M  END
$$$$
