TQT.pdb
     RDKit          3D

 24 23  0  0  1  0  0  0  0  0999 V2000
    8.4716  -12.3085   20.2102 C   0  0  0  0  0  0  0  0  0  0  0  0
    7.8956  -13.1726   19.1235 C   0  0  1  0  0  0  0  0  0  0  0  0
    8.3795  -12.6839   17.8978 O   0  0  0  0  0  0  0  0  0  0  0  0
    8.4827  -14.5667   19.2940 C   0  0  2  0  0  0  0  0  0  0  0  0
    8.1804  -15.3266   18.1481 N   0  0  0  0  0  0  0  0  0  0  0  0
    8.1142  -15.1708   20.5759 C   0  0  0  0  0  0  0  0  0  0  0  0
    6.9880  -15.7211   20.6781 O   0  0  0  0  0  0  0  0  0  0  0  0
   10.7897  -19.2345   23.5275 N   0  0  0  0  0  0  0  0  0  0  0  0
   11.6119  -18.1059   23.3268 C   0  0  0  0  0  0  0  0  0  0  0  0
   12.8438  -18.2243   23.3117 O   0  0  0  0  0  0  0  0  0  0  0  0
   10.9599  -16.7762   23.1349 C   0  0  0  0  0  0  0  0  0  0  0  0
    9.4763  -16.9755   23.2231 C   0  0  0  0  0  0  0  0  0  0  0  0
    8.6419  -15.7487   22.9883 C   0  0  2  0  0  0  0  0  0  0  0  0
    8.9897  -15.1504   21.6952 N   0  0  0  0  0  0  0  0  0  0  0  0
    8.8356  -14.7667   24.0780 C   0  0  0  0  0  0  0  0  0  0  0  0
    9.7770  -13.9464   23.9843 O   0  0  0  0  0  0  0  0  0  0  0  0
    6.8303  -11.8546   25.4322 C   0  0  0  0  0  0  0  0  0  0  0  0
    7.0206  -12.8803   26.5174 C   0  0  1  0  0  0  0  0  0  0  0  0
    5.8926  -13.6920   26.6285 O   0  0  0  0  0  0  0  0  0  0  0  0
    8.2582  -13.7251   26.2502 C   0  0  2  0  0  0  0  0  0  0  0  0
    8.0107  -14.7058   25.2235 N   0  0  0  0  0  0  0  0  0  0  0  0
    8.6768  -14.4242   27.4911 C   0  0  0  0  0  0  0  0  0  0  0  0
    8.6928  -15.6675   27.5474 O   0  0  0  0  0  0  0  0  0  0  0  0
    9.0456  -13.6400   28.5742 O   0  0  0  0  0  0  0  0  0  0  0  0
  2  1  1  1
  2  3  1  0
  4  5  1  6
  4  2  1  0
  6  4  1  0
  7  6  2  0
  8  9  1  0
  9 11  1  0
  9 10  2  0
 11 12  1  0
 13 12  1  1
 13 14  1  0
 14  6  1  0
 15 21  1  0
 15 13  1  0
 16 15  2  0
 18 17  1  6
 18 20  1  0
 18 19  1  0
 20 21  1  6
 20 22  1  0
 22 24  1  0
 23 22  2  0
M  END
$$$$
