TQT.pdb
     RDKit          3D

 24 23  0  0  1  0  0  0  0  0999 V2000
    8.4981  -12.4291   20.1216 C   0  0  0  0  0  0  0  0  0  0  0  0
    7.9481  -13.3210   19.0438 C   0  0  1  0  0  0  0  0  0  0  0  0
    8.5066  -12.9000   17.8249 O   0  0  0  0  0  0  0  0  0  0  0  0
    8.4808  -14.7237   19.3008 C   0  0  2  0  0  0  0  0  0  0  0  0
    8.2655  -15.5057   18.1501 N   0  0  0  0  0  0  0  0  0  0  0  0
    7.9807  -15.2856   20.5570 C   0  0  0  0  0  0  0  0  0  0  0  0
    7.2331  -16.2957   20.5069 O   0  0  0  0  0  0  0  0  0  0  0  0
   10.5528  -18.8772   22.2664 N   0  0  0  0  0  0  0  0  0  0  0  0
   10.2353  -18.7471   23.6347 C   0  0  0  0  0  0  0  0  0  0  0  0
   10.4636  -19.6756   24.4208 O   0  0  0  0  0  0  0  0  0  0  0  0
    9.6216  -17.4691   24.1040 C   0  0  0  0  0  0  0  0  0  0  0  0
    9.4345  -16.5837   22.9084 C   0  0  0  0  0  0  0  0  0  0  0  0
    8.3877  -15.5156   23.0497 C   0  0  2  0  0  0  0  0  0  0  0  0
    8.3164  -14.7226   21.8181 N   0  0  0  0  0  0  0  0  0  0  0  0
    8.6830  -14.6425   24.2071 C   0  0  0  0  0  0  0  0  0  0  0  0
    9.8128  -14.1078   24.2808 O   0  0  0  0  0  0  0  0  0  0  0  0
    6.4046  -11.6551   25.7395 C   0  0  0  0  0  0  0  0  0  0  0  0
    6.8189  -12.6945   26.7464 C   0  0  1  0  0  0  0  0  0  0  0  0
    5.7796  -13.5944   26.9784 O   0  0  0  0  0  0  0  0  0  0  0  0
    8.0652  -13.4323   26.2785 C   0  0  2  0  0  0  0  0  0  0  0  0
    7.7531  -14.3793   25.2379 N   0  0  0  0  0  0  0  0  0  0  0  0
    8.6871  -14.1562   27.4158 C   0  0  0  0  0  0  0  0  0  0  0  0
    9.0251  -13.5495   28.4487 O   0  0  0  0  0  0  0  0  0  0  0  0
    8.8733  -15.5239   27.2789 O   0  0  0  0  0  0  0  0  0  0  0  0
  2  1  1  1
  2  3  1  0
  4  5  1  6
  4  2  1  0
  6  4  1  0
  7  6  2  0
  8  9  1  0
  9 11  1  0
  9 10  2  0
 11 12  1  0
 13 12  1  6
 13 14  1  0
 14  6  1  0
 15 21  1  0
 15 13  1  0
 16 15  2  0
 18 17  1  6
 18 20  1  0
 18 19  1  0
 20 21  1  6
 20 22  1  0
 22 24  1  0
 23 22  2  0
M  END
$$$$
