TQT.pdb
     RDKit          3D

 24 23  0  0  1  0  0  0  0  0999 V2000
    9.1441  -12.4570   20.3649 C   0  0  0  0  0  0  0  0  0  0  0  0
    8.1037  -13.0775   19.4750 C   0  0  1  0  0  0  0  0  0  0  0  0
    8.4403  -12.7569   18.1487 O   0  0  0  0  0  0  0  0  0  0  0  0
    8.2417  -14.5882   19.6018 C   0  0  2  0  0  0  0  0  0  0  0  0
    7.4433  -15.1984   18.6158 N   0  0  0  0  0  0  0  0  0  0  0  0
    8.0265  -15.0516   20.9740 C   0  0  0  0  0  0  0  0  0  0  0  0
    6.8527  -15.0650   21.4256 O   0  0  0  0  0  0  0  0  0  0  0  0
   11.9090  -18.7130   23.9270 N   0  0  0  0  0  0  0  0  0  0  0  0
   11.0209  -18.5521   25.0113 C   0  0  0  0  0  0  0  0  0  0  0  0
   11.1967  -19.1817   26.0623 O   0  0  0  0  0  0  0  0  0  0  0  0
    9.8732  -17.6093   24.8566 C   0  0  0  0  0  0  0  0  0  0  0  0
    9.9551  -17.0076   23.4856 C   0  0  0  0  0  0  0  0  0  0  0  0
    8.9052  -15.9828   23.1633 C   0  0  2  0  0  0  0  0  0  0  0  0
    9.1009  -15.4821   21.7988 N   0  0  0  0  0  0  0  0  0  0  0  0
    8.9487  -14.8655   24.1322 C   0  0  0  0  0  0  0  0  0  0  0  0
    9.9377  -14.0977   24.1166 O   0  0  0  0  0  0  0  0  0  0  0  0
    6.5244  -11.8754   25.1013 C   0  0  0  0  0  0  0  0  0  0  0  0
    6.7766  -12.8087   26.2551 C   0  0  1  0  0  0  0  0  0  0  0  0
    5.7123  -13.6958   26.4101 O   0  0  0  0  0  0  0  0  0  0  0  0
    8.0787  -13.5715   26.0572 C   0  0  2  0  0  0  0  0  0  0  0  0
    7.9285  -14.6183   25.0780 N   0  0  0  0  0  0  0  0  0  0  0  0
    8.5174  -14.1743   27.3411 C   0  0  0  0  0  0  0  0  0  0  0  0
    8.6491  -15.4068   27.4541 O   0  0  0  0  0  0  0  0  0  0  0  0
    8.7716  -13.3133   28.3986 O   0  0  0  0  0  0  0  0  0  0  0  0
  2  1  1  1
  2  3  1  0
  4  5  1  6
  4  2  1  0
  6  4  1  0
  7  6  2  0
  8  9  1  0
  9 11  1  0
  9 10  2  0
 11 12  1  0
 13 12  1  1
 13 14  1  0
 14  6  1  0
 15 21  1  0
 15 13  1  0
 16 15  2  0
 18 17  1  6
 18 20  1  0
 18 19  1  0
 20 21  1  6
 20 22  1  0
 22 24  1  0
 23 22  2  0
M  END
$$$$
