TQT.pdb
     RDKit          3D

 24 23  0  0  1  0  0  0  0  0999 V2000
    8.9466  -12.6090   18.5282 C   0  0  0  0  0  0  0  0  0  0  0  0
    8.7149  -13.0566   19.9443 C   0  0  1  0  0  0  0  0  0  0  0  0
    7.6764  -12.2685   20.4692 O   0  0  0  0  0  0  0  0  0  0  0  0
    8.1874  -14.4834   19.8879 C   0  0  2  0  0  0  0  0  0  0  0  0
    7.0543  -14.5126   19.0529 N   0  0  0  0  0  0  0  0  0  0  0  0
    8.0128  -15.0634   21.2210 C   0  0  0  0  0  0  0  0  0  0  0  0
    6.8628  -15.0613   21.7302 O   0  0  0  0  0  0  0  0  0  0  0  0
   11.8315  -19.1033   23.7571 N   0  0  0  0  0  0  0  0  0  0  0  0
   11.0108  -18.9521   24.8945 C   0  0  0  0  0  0  0  0  0  0  0  0
   11.2052  -19.6436   25.9025 O   0  0  0  0  0  0  0  0  0  0  0  0
    9.9107  -17.9433   24.8485 C   0  0  0  0  0  0  0  0  0  0  0  0
    9.9607  -17.2704   23.5094 C   0  0  0  0  0  0  0  0  0  0  0  0
    8.9565  -16.1736   23.2968 C   0  0  2  0  0  0  0  0  0  0  0  0
    9.1002  -15.6226   21.9452 N   0  0  0  0  0  0  0  0  0  0  0  0
    9.1241  -15.1064   24.3077 C   0  0  0  0  0  0  0  0  0  0  0  0
   10.1250  -14.3582   24.2281 O   0  0  0  0  0  0  0  0  0  0  0  0
    6.8277  -12.1332   25.2454 C   0  0  0  0  0  0  0  0  0  0  0  0
    7.1014  -12.9949   26.4489 C   0  0  1  0  0  0  0  0  0  0  0  0
    6.0349  -13.8614   26.6846 O   0  0  0  0  0  0  0  0  0  0  0  0
    8.3929  -13.7798   26.2679 C   0  0  2  0  0  0  0  0  0  0  0  0
    8.2103  -14.8864   25.3627 N   0  0  0  0  0  0  0  0  0  0  0  0
    8.8605  -14.3020   27.5766 C   0  0  0  0  0  0  0  0  0  0  0  0
    8.9444  -15.5270   27.7804 O   0  0  0  0  0  0  0  0  0  0  0  0
    9.1966  -13.3752   28.5524 O   0  0  0  0  0  0  0  0  0  0  0  0
  2  1  1  6
  2  3  1  0
  4  5  1  1
  4  2  1  0
  6  4  1  0
  7  6  2  0
  8  9  1  0
  9 11  1  0
  9 10  2  0
 11 12  1  0
 13 12  1  1
 13 14  1  0
 14  6  1  0
 15 21  1  0
 15 13  1  0
 16 15  2  0
 18 17  1  6
 18 20  1  0
 18 19  1  0
 20 21  1  6
 20 22  1  0
 22 24  1  0
 23 22  2  0
M  END
$$$$
