CTW.pdb
     RDKit          3D

 28 29  0  0  1  0  0  0  0  0999 V2000
    7.8779  -14.5712   17.7112 N   0  0  0  0  0  0  0  0  0  0  0  0
    8.6419  -14.3157   18.9146 C   0  0  1  0  0  0  0  0  0  0  0  0
    8.3418  -12.9109   19.4462 C   0  0  0  0  0  0  0  0  0  0  0  0
    9.3023  -11.7340   18.4676 S   0  0  0  0  0  0  0  0  0  0  0  0
    8.3783  -15.3515   19.9490 C   0  0  0  0  0  0  0  0  0  0  0  0
    7.1808  -15.6805   20.1517 O   0  0  0  0  0  0  0  0  0  0  0  0
    9.0809  -18.7558   19.9648 C   0  0  0  0  0  0  0  0  0  0  0  0
    9.7158  -18.2435   21.2122 C   0  0  1  0  0  0  0  0  0  0  0  0
   11.1185  -18.1334   21.0044 O   0  0  0  0  0  0  0  0  0  0  0  0
    9.1865  -16.9092   21.6950 C   0  0  2  0  0  0  0  0  0  0  0  0
    9.4612  -15.9132   20.6481 N   0  0  0  0  0  0  0  0  0  0  0  0
    9.8098  -16.4235   22.9377 C   0  0  0  0  0  0  0  0  0  0  0  0
   10.6856  -15.4818   22.8857 O   0  0  0  0  0  0  0  0  0  0  0  0
    9.5346  -16.9013   24.2456 N   0  0  0  0  0  0  0  0  0  0  0  0
   10.2621  -16.4247   25.4131 C   0  0  1  0  0  0  0  0  0  0  0  0
    9.8026  -15.0230   25.7458 C   0  0  0  0  0  0  0  0  0  0  0  0
    8.3560  -14.9752   26.0135 C   0  0  0  0  0  0  0  0  0  0  0  0
    7.4302  -16.0066   26.0038 C   0  0  0  0  0  0  0  0  0  0  0  0
    6.2286  -15.4872   26.3088 N   0  0  0  0  0  0  0  0  0  0  0  0
    6.3567  -14.1452   26.5152 C   0  0  0  0  0  0  0  0  0  0  0  0
    5.4001  -13.2088   26.8476 C   0  0  0  0  0  0  0  0  0  0  0  0
    5.7592  -11.8885   27.0089 C   0  0  0  0  0  0  0  0  0  0  0  0
    7.0760  -11.5152   26.8358 C   0  0  0  0  0  0  0  0  0  0  0  0
    8.0150  -12.4812   26.5016 C   0  0  0  0  0  0  0  0  0  0  0  0
    7.6870  -13.8038   26.3343 C   0  0  0  0  0  0  0  0  0  0  0  0
    9.9173  -17.2784   26.5614 C   0  0  0  0  0  0  0  0  0  0  0  0
   10.4697  -17.0336   27.7977 O   0  0  0  0  0  0  0  0  0  0  0  0
    9.1194  -18.2370   26.4334 O   0  0  0  0  0  0  0  0  0  0  0  0
  2  1  1  6
  3  2  1  0
  4  3  1  0
  5  2  1  0
  5  6  2  0
  8  7  1  6
  8 10  1  0
  9  8  1  0
 10 11  1  6
 10 12  1  0
 11  5  1  0
 12 14  1  0
 12 13  2  0
 14 15  1  0
 15 26  1  0
 15 16  1  1
 17 18  2  0
 17 16  1  0
 19 18  1  0
 20 25  2  0
 20 19  1  0
 21 20  1  0
 22 23  1  0
 22 21  2  0
 23 24  2  0
 24 25  1  0
 25 17  1  0
 26 27  1  0
 28 26  2  0
M  END
$$$$
