CTW.pdb
     RDKit          3D

 28 29  0  0  1  0  0  0  0  0999 V2000
    8.4196  -14.6939   17.3591 N   0  0  0  0  0  0  0  0  0  0  0  0
    8.6464  -14.2706   18.7254 C   0  0  1  0  0  0  0  0  0  0  0  0
    7.7258  -13.0984   19.0781 C   0  0  0  0  0  0  0  0  0  0  0  0
    8.0031  -12.6823   20.8146 S   0  0  0  0  0  0  0  0  0  0  0  0
    8.4683  -15.4011   19.6753 C   0  0  0  0  0  0  0  0  0  0  0  0
    7.7530  -16.3672   19.3032 O   0  0  0  0  0  0  0  0  0  0  0  0
    9.0836  -18.0425   19.7603 C   0  0  0  0  0  0  0  0  0  0  0  0
    9.7281  -17.6700   21.0516 C   0  0  1  0  0  0  0  0  0  0  0  0
   11.0839  -17.3174   20.8059 O   0  0  0  0  0  0  0  0  0  0  0  0
    9.0548  -16.5358   21.7959 C   0  0  2  0  0  0  0  0  0  0  0  0
    9.0967  -15.3461   20.9319 N   0  0  0  0  0  0  0  0  0  0  0  0
    9.7025  -16.1771   23.0689 C   0  0  0  0  0  0  0  0  0  0  0  0
   10.6876  -15.3488   23.0717 O   0  0  0  0  0  0  0  0  0  0  0  0
    9.3396  -16.6661   24.3511 N   0  0  0  0  0  0  0  0  0  0  0  0
    9.9879  -16.2015   25.5689 C   0  0  1  0  0  0  0  0  0  0  0  0
    8.9761  -16.1807   26.6926 C   0  0  0  0  0  0  0  0  0  0  0  0
    7.7839  -15.3952   26.3349 C   0  0  0  0  0  0  0  0  0  0  0  0
    6.5456  -15.8359   25.8951 C   0  0  0  0  0  0  0  0  0  0  0  0
    5.7696  -14.7571   25.6939 N   0  0  0  0  0  0  0  0  0  0  0  0
    6.4774  -13.6304   25.9933 C   0  0  0  0  0  0  0  0  0  0  0  0
    6.0933  -12.3068   25.9373 C   0  0  0  0  0  0  0  0  0  0  0  0
    6.9852  -11.3181   26.2911 C   0  0  0  0  0  0  0  0  0  0  0  0
    8.2572  -11.6629   26.6991 C   0  0  0  0  0  0  0  0  0  0  0  0
    8.6132  -13.0037   26.7447 C   0  0  0  0  0  0  0  0  0  0  0  0
    7.7464  -14.0105   26.3984 C   0  0  0  0  0  0  0  0  0  0  0  0
   11.0319  -17.1692   25.9431 C   0  0  0  0  0  0  0  0  0  0  0  0
   11.9229  -16.8732   26.9491 O   0  0  0  0  0  0  0  0  0  0  0  0
   11.1264  -18.2726   25.3552 O   0  0  0  0  0  0  0  0  0  0  0  0
  2  1  1  6
  3  2  1  0
  4  3  1  0
  5  2  1  0
  5  6  2  0
  8  7  1  6
  8 10  1  0
  9  8  1  0
 10 11  1  6
 10 12  1  0
 11  5  1  0
 12 14  1  0
 12 13  2  0
 14 15  1  0
 15 26  1  0
 15 16  1  1
 17 18  2  0
 17 16  1  0
 19 18  1  0
 20 25  2  0
 20 19  1  0
 21 20  1  0
 22 23  1  0
 22 21  2  0
 23 24  2  0
 24 25  1  0
 25 17  1  0
 26 27  1  0
 28 26  2  0
M  END
$$$$
