CTW.pdb
     RDKit          3D

 28 29  0  0  1  0  0  0  0  0999 V2000
    8.2901  -14.8134   17.4390 N   0  0  0  0  0  0  0  0  0  0  0  0
    8.6024  -14.4070   18.7935 C   0  0  1  0  0  0  0  0  0  0  0  0
    7.7209  -13.2258   19.2104 C   0  0  0  0  0  0  0  0  0  0  0  0
    8.3593  -11.7457   18.3935 S   0  0  0  0  0  0  0  0  0  0  0  0
    8.4638  -15.5445   19.7418 C   0  0  0  0  0  0  0  0  0  0  0  0
    7.8536  -16.5682   19.3379 O   0  0  0  0  0  0  0  0  0  0  0  0
    8.8502  -18.1403   19.9332 C   0  0  0  0  0  0  0  0  0  0  0  0
    9.5312  -17.7800   21.2091 C   0  0  1  0  0  0  0  0  0  0  0  0
   10.9031  -17.5165   20.9417 O   0  0  0  0  0  0  0  0  0  0  0  0
    8.9371  -16.5908   21.9348 C   0  0  2  0  0  0  0  0  0  0  0  0
    9.0119  -15.4322   21.0317 N   0  0  0  0  0  0  0  0  0  0  0  0
    9.6393  -16.2257   23.1767 C   0  0  0  0  0  0  0  0  0  0  0  0
   10.6653  -15.4504   23.1245 O   0  0  0  0  0  0  0  0  0  0  0  0
    9.2895  -16.6536   24.4841 N   0  0  0  0  0  0  0  0  0  0  0  0
   10.0525  -16.2570   25.6587 C   0  0  1  0  0  0  0  0  0  0  0  0
    9.1108  -16.0957   26.8308 C   0  0  0  0  0  0  0  0  0  0  0  0
    7.8501  -15.4507   26.4294 C   0  0  0  0  0  0  0  0  0  0  0  0
    6.6876  -16.0288   25.9444 C   0  0  0  0  0  0  0  0  0  0  0  0
    5.8007  -15.0453   25.7147 N   0  0  0  0  0  0  0  0  0  0  0  0
    6.3630  -13.8460   26.0399 C   0  0  0  0  0  0  0  0  0  0  0  0
    5.8319  -12.5751   25.9697 C   0  0  0  0  0  0  0  0  0  0  0  0
    6.5909  -11.4920   26.3560 C   0  0  0  0  0  0  0  0  0  0  0  0
    7.8783  -11.6903   26.8105 C   0  0  0  0  0  0  0  0  0  0  0  0
    8.3838  -12.9816   26.8694 C   0  0  0  0  0  0  0  0  0  0  0  0
    7.6516  -14.0797   26.4915 C   0  0  0  0  0  0  0  0  0  0  0  0
   10.9872  -17.3417   25.9992 C   0  0  0  0  0  0  0  0  0  0  0  0
   10.9082  -18.5534   25.3518 O   0  0  0  0  0  0  0  0  0  0  0  0
   11.8656  -17.1811   26.8794 O   0  0  0  0  0  0  0  0  0  0  0  0
  2  1  1  6
  3  2  1  0
  4  3  1  0
  5  2  1  0
  5  6  2  0
  8  7  1  6
  8 10  1  0
  9  8  1  0
 10 11  1  6
 10 12  1  0
 11  5  1  0
 12 14  1  0
 12 13  2  0
 14 15  1  0
 15 26  1  0
 15 16  1  1
 17 18  2  0
 17 16  1  0
 19 18  1  0
 20 25  2  0
 20 19  1  0
 21 20  1  0
 22 23  1  0
 22 21  2  0
 23 24  2  0
 24 25  1  0
 25 17  1  0
 26 27  1  0
 28 26  2  0
M  END
$$$$
