CTW.pdb
     RDKit          3D

 28 29  0  0  1  0  0  0  0  0999 V2000
    8.1884  -14.6786   17.0457 N   0  0  0  0  0  0  0  0  0  0  0  0
    8.8269  -14.3329   18.2987 C   0  0  1  0  0  0  0  0  0  0  0  0
    8.4840  -12.8922   18.6899 C   0  0  0  0  0  0  0  0  0  0  0  0
    9.3644  -12.5121   20.2215 S   0  0  0  0  0  0  0  0  0  0  0  0
    8.4512  -15.2881   19.3752 C   0  0  0  0  0  0  0  0  0  0  0  0
    7.2249  -15.4871   19.5752 O   0  0  0  0  0  0  0  0  0  0  0  0
    8.7145  -18.7319   19.6271 C   0  0  0  0  0  0  0  0  0  0  0  0
    9.4322  -18.2231   20.8303 C   0  0  1  0  0  0  0  0  0  0  0  0
   10.8335  -18.3049   20.6007 O   0  0  0  0  0  0  0  0  0  0  0  0
    9.0835  -16.8038   21.2275 C   0  0  2  0  0  0  0  0  0  0  0  0
    9.4658  -15.9209   20.1149 N   0  0  0  0  0  0  0  0  0  0  0  0
    9.7825  -16.3219   22.4307 C   0  0  0  0  0  0  0  0  0  0  0  0
   10.8849  -15.6690   22.3089 O   0  0  0  0  0  0  0  0  0  0  0  0
    9.3509  -16.5056   23.7704 N   0  0  0  0  0  0  0  0  0  0  0  0
   10.1560  -16.0845   24.9079 C   0  0  1  0  0  0  0  0  0  0  0  0
    9.7021  -14.7135   25.3564 C   0  0  0  0  0  0  0  0  0  0  0  0
    8.2796  -14.7095   25.7346 C   0  0  0  0  0  0  0  0  0  0  0  0
    7.3758  -15.7601   25.7504 C   0  0  0  0  0  0  0  0  0  0  0  0
    6.1913  -15.2810   26.1675 N   0  0  0  0  0  0  0  0  0  0  0  0
    6.3089  -13.9462   26.4213 C   0  0  0  0  0  0  0  0  0  0  0  0
    5.3626  -13.0462   26.8651 C   0  0  0  0  0  0  0  0  0  0  0  0
    5.7074  -11.7260   27.0555 C   0  0  0  0  0  0  0  0  0  0  0  0
    6.9997  -11.3162   26.7996 C   0  0  0  0  0  0  0  0  0  0  0  0
    7.9288  -12.2461   26.3540 C   0  0  0  0  0  0  0  0  0  0  0  0
    7.6146  -13.5677   26.1552 C   0  0  0  0  0  0  0  0  0  0  0  0
    9.9096  -17.0102   26.0254 C   0  0  0  0  0  0  0  0  0  0  0  0
   10.5876  -16.8588   27.2132 O   0  0  0  0  0  0  0  0  0  0  0  0
    9.0830  -17.9463   25.9145 O   0  0  0  0  0  0  0  0  0  0  0  0
  2  1  1  6
  3  2  1  0
  4  3  1  0
  5  2  1  0
  5  6  2  0
  8  7  1  6
  8 10  1  0
  9  8  1  0
 10 11  1  6
 10 12  1  0
 11  5  1  0
 12 14  1  0
 12 13  2  0
 14 15  1  0
 15 26  1  0
 15 16  1  1
 17 18  2  0
 17 16  1  0
 19 18  1  0
 20 25  2  0
 20 19  1  0
 21 20  1  0
 22 23  1  0
 22 21  2  0
 23 24  2  0
 24 25  1  0
 25 17  1  0
 26 27  1  0
 28 26  2  0
M  END
$$$$
