CTW.pdb
     RDKit          3D

 28 29  0  0  1  0  0  0  0  0999 V2000
    8.0915  -14.1754   17.8095 N   0  0  0  0  0  0  0  0  0  0  0  0
    8.5619  -13.9222   19.1556 C   0  0  1  0  0  0  0  0  0  0  0  0
    8.3119  -12.4607   19.5397 C   0  0  0  0  0  0  0  0  0  0  0  0
    8.8924  -12.2289   21.2352 S   0  0  0  0  0  0  0  0  0  0  0  0
    7.9301  -14.8517   20.1298 C   0  0  0  0  0  0  0  0  0  0  0  0
    6.7991  -15.3200   19.8385 O   0  0  0  0  0  0  0  0  0  0  0  0
   10.5280  -17.1944   20.5152 C   0  0  0  0  0  0  0  0  0  0  0  0
    9.1071  -17.4803   20.8627 C   0  0  1  0  0  0  0  0  0  0  0  0
    9.0142  -18.8048   21.3727 O   0  0  0  0  0  0  0  0  0  0  0  0
    8.4916  -16.5260   21.8647 C   0  0  2  0  0  0  0  0  0  0  0  0
    8.6115  -15.1653   21.3190 N   0  0  0  0  0  0  0  0  0  0  0  0
    9.1442  -16.5289   23.1848 C   0  0  0  0  0  0  0  0  0  0  0  0
    9.2760  -17.6357   23.8283 O   0  0  0  0  0  0  0  0  0  0  0  0
    9.6697  -15.3922   23.8530 N   0  0  0  0  0  0  0  0  0  0  0  0
   10.1882  -15.4635   25.2115 C   0  0  1  0  0  0  0  0  0  0  0  0
    9.1363  -16.0703   26.1127 C   0  0  0  0  0  0  0  0  0  0  0  0
    7.8401  -15.3878   25.9700 C   0  0  0  0  0  0  0  0  0  0  0  0
    6.6017  -15.9208   25.6486 C   0  0  0  0  0  0  0  0  0  0  0  0
    5.7094  -14.9157   25.6347 N   0  0  0  0  0  0  0  0  0  0  0  0
    6.3422  -13.7467   25.9397 C   0  0  0  0  0  0  0  0  0  0  0  0
    5.8329  -12.4690   26.0423 C   0  0  0  0  0  0  0  0  0  0  0  0
    6.6673  -11.4218   26.3670 C   0  0  0  0  0  0  0  0  0  0  0  0
    8.0079  -11.6625   26.5868 C   0  0  0  0  0  0  0  0  0  0  0  0
    8.4897  -12.9595   26.4758 C   0  0  0  0  0  0  0  0  0  0  0  0
    7.6827  -14.0225   26.1540 C   0  0  0  0  0  0  0  0  0  0  0  0
   11.3466  -16.3714   25.2243 C   0  0  0  0  0  0  0  0  0  0  0  0
   12.0835  -16.5385   26.3744 O   0  0  0  0  0  0  0  0  0  0  0  0
   11.6794  -17.0038   24.1941 O   0  0  0  0  0  0  0  0  0  0  0  0
  2  1  1  6
  3  2  1  0
  4  3  1  0
  5  2  1  0
  5  6  2  0
  8  7  1  1
  8 10  1  0
  9  8  1  0
 10 11  1  6
 10 12  1  0
 11  5  1  0
 12 14  1  0
 12 13  2  0
 14 15  1  0
 15 26  1  0
 15 16  1  1
 17 18  2  0
 17 16  1  0
 19 18  1  0
 20 25  2  0
 20 19  1  0
 21 20  1  0
 22 23  1  0
 22 21  2  0
 23 24  2  0
 24 25  1  0
 25 17  1  0
 26 27  1  0
 28 26  2  0
M  END
$$$$
