CTW.pdb
     RDKit          3D

 28 29  0  0  1  0  0  0  0  0999 V2000
    7.7763  -14.4854   17.8353 N   0  0  0  0  0  0  0  0  0  0  0  0
    8.4798  -14.2379   19.0767 C   0  0  1  0  0  0  0  0  0  0  0  0
    8.1145  -12.8564   19.6281 C   0  0  0  0  0  0  0  0  0  0  0  0
    9.2327  -11.6504   18.8795 S   0  0  0  0  0  0  0  0  0  0  0  0
    8.2038  -15.3067   20.0736 C   0  0  0  0  0  0  0  0  0  0  0  0
    7.0000  -15.5943   20.3008 O   0  0  0  0  0  0  0  0  0  0  0  0
    8.7110  -18.7410   20.0101 C   0  0  0  0  0  0  0  0  0  0  0  0
    9.4215  -18.2917   21.2409 C   0  0  1  0  0  0  0  0  0  0  0  0
   10.8203  -18.2691   20.9840 O   0  0  0  0  0  0  0  0  0  0  0  0
    8.9978  -16.9341   21.7616 C   0  0  2  0  0  0  0  0  0  0  0  0
    9.2825  -15.9434   20.7124 N   0  0  0  0  0  0  0  0  0  0  0  0
    9.7077  -16.5025   22.9775 C   0  0  0  0  0  0  0  0  0  0  0  0
   10.6938  -15.6809   22.8821 O   0  0  0  0  0  0  0  0  0  0  0  0
    9.4068  -16.9111   24.3031 N   0  0  0  0  0  0  0  0  0  0  0  0
   10.1359  -16.4005   25.4551 C   0  0  1  0  0  0  0  0  0  0  0  0
    9.7751  -14.9473   25.6662 C   0  0  0  0  0  0  0  0  0  0  0  0
    8.3169  -14.7475   25.6871 C   0  0  0  0  0  0  0  0  0  0  0  0
    7.3039  -15.6820   25.5405 C   0  0  0  0  0  0  0  0  0  0  0  0
    6.1287  -15.0362   25.6308 N   0  0  0  0  0  0  0  0  0  0  0  0
    6.3588  -13.7071   25.8322 C   0  0  0  0  0  0  0  0  0  0  0  0
    5.4623  -12.6698   25.9833 C   0  0  0  0  0  0  0  0  0  0  0  0
    5.9243  -11.3867   26.1792 C   0  0  0  0  0  0  0  0  0  0  0  0
    7.2830  -11.1516   26.2225 C   0  0  0  0  0  0  0  0  0  0  0  0
    8.1595  -12.2166   26.0673 C   0  0  0  0  0  0  0  0  0  0  0  0
    7.7287  -13.5053   25.8707 C   0  0  0  0  0  0  0  0  0  0  0  0
    9.6956  -17.1352   26.6521 C   0  0  0  0  0  0  0  0  0  0  0  0
   10.2396  -16.8452   27.8824 O   0  0  0  0  0  0  0  0  0  0  0  0
    8.8231  -18.0319   26.5715 O   0  0  0  0  0  0  0  0  0  0  0  0
  2  1  1  6
  3  2  1  0
  4  3  1  0
  5  2  1  0
  5  6  2  0
  8  7  1  6
  8 10  1  0
  9  8  1  0
 10 11  1  6
 10 12  1  0
 11  5  1  0
 12 14  1  0
 12 13  2  0
 14 15  1  0
 15 26  1  0
 15 16  1  1
 17 18  2  0
 17 16  1  0
 19 18  1  0
 20 25  2  0
 20 19  1  0
 21 20  1  0
 22 23  1  0
 22 21  2  0
 23 24  2  0
 24 25  1  0
 25 17  1  0
 26 27  1  0
 28 26  2  0
M  END
$$$$
