CTW.pdb
     RDKit          3D

 28 29  0  0  1  0  0  0  0  0999 V2000
    7.9293  -14.6104   17.7335 N   0  0  0  0  0  0  0  0  0  0  0  0
    8.4607  -14.2110   19.0201 C   0  0  1  0  0  0  0  0  0  0  0  0
    7.9568  -12.8133   19.3923 C   0  0  0  0  0  0  0  0  0  0  0  0
    9.3361  -11.6613   19.2034 S   0  0  0  0  0  0  0  0  0  0  0  0
    8.1221  -15.2048   20.0737 C   0  0  0  0  0  0  0  0  0  0  0  0
    7.0761  -15.8863   19.9167 O   0  0  0  0  0  0  0  0  0  0  0  0
    8.0132  -17.9290   20.2425 C   0  0  0  0  0  0  0  0  0  0  0  0
    8.8853  -17.7374   21.4360 C   0  0  1  0  0  0  0  0  0  0  0  0
   10.2454  -17.8602   21.0382 O   0  0  0  0  0  0  0  0  0  0  0  0
    8.7028  -16.4160   22.1531 C   0  0  2  0  0  0  0  0  0  0  0  0
    8.9714  -15.3409   21.1859 N   0  0  0  0  0  0  0  0  0  0  0  0
    9.6101  -16.2158   23.2957 C   0  0  0  0  0  0  0  0  0  0  0  0
   10.7678  -15.6867   23.1052 O   0  0  0  0  0  0  0  0  0  0  0  0
    9.3322  -16.5563   24.6453 N   0  0  0  0  0  0  0  0  0  0  0  0
   10.3089  -16.3679   25.7083 C   0  0  1  0  0  0  0  0  0  0  0  0
    9.6915  -15.5322   26.8069 C   0  0  0  0  0  0  0  0  0  0  0  0
    8.2730  -15.2452   26.5386 C   0  0  0  0  0  0  0  0  0  0  0  0
    7.2370  -16.1271   26.2741 C   0  0  0  0  0  0  0  0  0  0  0  0
    6.1164  -15.4073   26.0938 N   0  0  0  0  0  0  0  0  0  0  0  0
    6.4042  -14.0817   26.2355 C   0  0  0  0  0  0  0  0  0  0  0  0
    5.5749  -12.9840   26.1380 C   0  0  0  0  0  0  0  0  0  0  0  0
    6.0876  -11.7183   26.3213 C   0  0  0  0  0  0  0  0  0  0  0  0
    7.4293  -11.5614   26.6016 C   0  0  0  0  0  0  0  0  0  0  0  0
    8.2376  -12.6860   26.6933 C   0  0  0  0  0  0  0  0  0  0  0  0
    7.7553  -13.9590   26.5156 C   0  0  0  0  0  0  0  0  0  0  0  0
   10.6284  -17.6816   26.2900 C   0  0  0  0  0  0  0  0  0  0  0  0
   11.6298  -17.8000   27.2263 O   0  0  0  0  0  0  0  0  0  0  0  0
    9.9974  -18.7085   25.9444 O   0  0  0  0  0  0  0  0  0  0  0  0
  2  1  1  6
  3  2  1  0
  4  3  1  0
  5  2  1  0
  5  6  2  0
  8  7  1  6
  8 10  1  0
  9  8  1  0
 10 11  1  6
 10 12  1  0
 11  5  1  0
 12 14  1  0
 12 13  2  0
 14 15  1  0
 15 26  1  0
 15 16  1  1
 17 18  2  0
 17 16  1  0
 19 18  1  0
 20 25  2  0
 20 19  1  0
 21 20  1  0
 22 23  1  0
 22 21  2  0
 23 24  2  0
 24 25  1  0
 25 17  1  0
 26 27  1  0
 28 26  2  0
M  END
$$$$
