CTW.pdb
     RDKit          3D

 28 29  0  0  1  0  0  0  0  0999 V2000
    7.8119  -15.0491   18.3250 N   0  0  0  0  0  0  0  0  0  0  0  0
    8.3682  -14.5990   19.5840 C   0  0  1  0  0  0  0  0  0  0  0  0
    7.6014  -13.3762   20.0969 C   0  0  0  0  0  0  0  0  0  0  0  0
    8.3022  -12.9172   21.6979 S   0  0  0  0  0  0  0  0  0  0  0  0
    8.3740  -15.6934   20.5912 C   0  0  0  0  0  0  0  0  0  0  0  0
    7.3110  -16.3491   20.7448 O   0  0  0  0  0  0  0  0  0  0  0  0
    9.9929  -18.8209   20.6530 C   0  0  0  0  0  0  0  0  0  0  0  0
   10.4414  -18.1149   21.8867 C   0  0  1  0  0  0  0  0  0  0  0  0
   11.7425  -17.5837   21.6673 O   0  0  0  0  0  0  0  0  0  0  0  0
    9.5288  -16.9984   22.3496 C   0  0  2  0  0  0  0  0  0  0  0  0
    9.5490  -15.9479   21.3202 N   0  0  0  0  0  0  0  0  0  0  0  0
    9.9307  -16.3748   23.6216 C   0  0  0  0  0  0  0  0  0  0  0  0
   10.7132  -15.3529   23.6113 O   0  0  0  0  0  0  0  0  0  0  0  0
    9.5283  -16.7962   24.9159 N   0  0  0  0  0  0  0  0  0  0  0  0
    9.9904  -16.1308   26.1254 C   0  0  1  0  0  0  0  0  0  0  0  0
    8.8406  -16.0210   27.1014 C   0  0  0  0  0  0  0  0  0  0  0  0
    7.6838  -15.3357   26.5025 C   0  0  0  0  0  0  0  0  0  0  0  0
    6.5602  -15.8797   25.9006 C   0  0  0  0  0  0  0  0  0  0  0  0
    5.7721  -14.8664   25.5025 N   0  0  0  0  0  0  0  0  0  0  0  0
    6.3602  -13.6811   25.8330 C   0  0  0  0  0  0  0  0  0  0  0  0
    5.9213  -12.3903   25.6240 C   0  0  0  0  0  0  0  0  0  0  0  0
    6.6891  -11.3275   26.0473 C   0  0  0  0  0  0  0  0  0  0  0  0
    7.8928  -11.5658   26.6779 C   0  0  0  0  0  0  0  0  0  0  0  0
    8.3066  -12.8761   26.8734 C   0  0  0  0  0  0  0  0  0  0  0  0
    7.5633  -13.9548   26.4628 C   0  0  0  0  0  0  0  0  0  0  0  0
   11.0189  -16.9713   26.7594 C   0  0  0  0  0  0  0  0  0  0  0  0
   11.3269  -18.2050   26.2334 O   0  0  0  0  0  0  0  0  0  0  0  0
   11.6279  -16.5799   27.7831 O   0  0  0  0  0  0  0  0  0  0  0  0
  2  1  1  6
  3  2  1  0
  4  3  1  0
  5  2  1  0
  5  6  2  0
  8  7  1  6
  8 10  1  0
  9  8  1  0
 10 11  1  6
 10 12  1  0
 11  5  1  0
 12 14  1  0
 12 13  2  0
 14 15  1  0
 15 26  1  0
 15 16  1  1
 17 18  2  0
 17 16  1  0
 19 18  1  0
 20 25  2  0
 20 19  1  0
 21 20  1  0
 22 23  1  0
 22 21  2  0
 23 24  2  0
 24 25  1  0
 25 17  1  0
 26 27  1  0
 28 26  2  0
M  END
$$$$
