CTW.pdb
     RDKit          3D

 28 29  0  0  1  0  0  0  0  0999 V2000
    8.4278  -15.1682   17.0747 N   0  0  0  0  0  0  0  0  0  0  0  0
    8.6653  -14.6569   18.4086 C   0  0  1  0  0  0  0  0  0  0  0  0
    7.7962  -13.4224   18.6670 C   0  0  0  0  0  0  0  0  0  0  0  0
    8.8946  -12.0568   19.1074 S   0  0  0  0  0  0  0  0  0  0  0  0
    8.4309  -15.7062   19.4364 C   0  0  0  0  0  0  0  0  0  0  0  0
    7.6170  -16.6241   19.1564 O   0  0  0  0  0  0  0  0  0  0  0  0
    8.9046  -18.3937   19.6747 C   0  0  0  0  0  0  0  0  0  0  0  0
    9.5902  -17.9806   20.9321 C   0  0  1  0  0  0  0  0  0  0  0  0
   10.9635  -17.7395   20.6511 O   0  0  0  0  0  0  0  0  0  0  0  0
    9.0058  -16.7554   21.6037 C   0  0  2  0  0  0  0  0  0  0  0  0
    9.1178  -15.6319   20.6609 N   0  0  0  0  0  0  0  0  0  0  0  0
    9.6929  -16.3581   22.8441 C   0  0  0  0  0  0  0  0  0  0  0  0
   10.7075  -15.5684   22.7859 O   0  0  0  0  0  0  0  0  0  0  0  0
    9.3396  -16.7684   24.1562 N   0  0  0  0  0  0  0  0  0  0  0  0
   10.0817  -16.3320   25.3301 C   0  0  1  0  0  0  0  0  0  0  0  0
    9.6905  -14.9099   25.6638 C   0  0  0  0  0  0  0  0  0  0  0  0
    8.2302  -14.7595   25.7706 C   0  0  0  0  0  0  0  0  0  0  0  0
    7.2389  -15.7162   25.6188 C   0  0  0  0  0  0  0  0  0  0  0  0
    6.0515  -15.1156   25.8077 N   0  0  0  0  0  0  0  0  0  0  0  0
    6.2525  -13.7939   26.0778 C   0  0  0  0  0  0  0  0  0  0  0  0
    5.3349  -12.7973   26.3369 C   0  0  0  0  0  0  0  0  0  0  0  0
    5.7684  -11.5137   26.5871 C   0  0  0  0  0  0  0  0  0  0  0  0
    7.1200  -11.2373   26.5758 C   0  0  0  0  0  0  0  0  0  0  0  0
    8.0181  -12.2621   26.3118 C   0  0  0  0  0  0  0  0  0  0  0  0
    7.6160  -13.5502   26.0591 C   0  0  0  0  0  0  0  0  0  0  0  0
    9.6863  -17.1703   26.4734 C   0  0  0  0  0  0  0  0  0  0  0  0
   10.3155  -17.0265   27.6888 O   0  0  0  0  0  0  0  0  0  0  0  0
    8.7753  -18.0243   26.3600 O   0  0  0  0  0  0  0  0  0  0  0  0
  2  1  1  6
  3  2  1  0
  4  3  1  0
  5  2  1  0
  5  6  2  0
  8  7  1  6
  8 10  1  0
  9  8  1  0
 10 11  1  6
 10 12  1  0
 11  5  1  0
 12 14  1  0
 12 13  2  0
 14 15  1  0
 15 26  1  0
 15 16  1  1
 17 18  2  0
 17 16  1  0
 19 18  1  0
 20 25  2  0
 20 19  1  0
 21 20  1  0
 22 23  1  0
 22 21  2  0
 23 24  2  0
 24 25  1  0
 25 17  1  0
 26 27  1  0
 28 26  2  0
M  END
$$$$
