CTW.pdb
     RDKit          3D

 28 29  0  0  1  0  0  0  0  0999 V2000
    7.9448  -14.1884   17.3413 N   0  0  0  0  0  0  0  0  0  0  0  0
    8.8938  -14.1430   18.4343 C   0  0  1  0  0  0  0  0  0  0  0  0
    8.9905  -12.7210   18.9953 C   0  0  0  0  0  0  0  0  0  0  0  0
    7.9732  -12.6461   20.4869 S   0  0  0  0  0  0  0  0  0  0  0  0
    8.5363  -15.1193   19.4979 C   0  0  0  0  0  0  0  0  0  0  0  0
    7.3144  -15.3542   19.6859 O   0  0  0  0  0  0  0  0  0  0  0  0
    9.0878  -18.5241   19.4934 C   0  0  0  0  0  0  0  0  0  0  0  0
    9.6720  -18.0765   20.7895 C   0  0  1  0  0  0  0  0  0  0  0  0
   11.0894  -18.0541   20.6736 O   0  0  0  0  0  0  0  0  0  0  0  0
    9.1987  -16.7193   21.2669 C   0  0  2  0  0  0  0  0  0  0  0  0
    9.5621  -15.7316   20.2393 N   0  0  0  0  0  0  0  0  0  0  0  0
    9.8043  -16.2774   22.5345 C   0  0  0  0  0  0  0  0  0  0  0  0
   10.7026  -15.3558   22.5246 O   0  0  0  0  0  0  0  0  0  0  0  0
    9.4880  -16.7789   23.8242 N   0  0  0  0  0  0  0  0  0  0  0  0
   10.1990  -16.3465   25.0187 C   0  0  1  0  0  0  0  0  0  0  0  0
    9.7925  -14.9287   25.3521 C   0  0  0  0  0  0  0  0  0  0  0  0
    8.3543  -14.8323   25.6503 C   0  0  0  0  0  0  0  0  0  0  0  0
    7.3710  -15.8027   25.5391 C   0  0  0  0  0  0  0  0  0  0  0  0
    6.2048  -15.2564   25.9240 N   0  0  0  0  0  0  0  0  0  0  0  0
    6.4118  -13.9565   26.2809 C   0  0  0  0  0  0  0  0  0  0  0  0
    5.5143  -13.0134   26.7364 C   0  0  0  0  0  0  0  0  0  0  0  0
    5.9501  -11.7426   27.0417 C   0  0  0  0  0  0  0  0  0  0  0  0
    7.2839  -11.4252   26.8884 C   0  0  0  0  0  0  0  0  0  0  0  0
    8.1622  -12.3965   26.4280 C   0  0  0  0  0  0  0  0  0  0  0  0
    7.7572  -13.6706   26.1159 C   0  0  0  0  0  0  0  0  0  0  0  0
    9.7802  -17.1945   26.1465 C   0  0  0  0  0  0  0  0  0  0  0  0
    9.0461  -18.3362   25.9201 O   0  0  0  0  0  0  0  0  0  0  0  0
   10.0834  -16.8928   27.3251 O   0  0  0  0  0  0  0  0  0  0  0  0
  2  1  1  6
  3  2  1  0
  4  3  1  0
  5  2  1  0
  5  6  2  0
  8  7  1  6
  8 10  1  0
  9  8  1  0
 10 11  1  6
 10 12  1  0
 11  5  1  0
 12 14  1  0
 12 13  2  0
 14 15  1  0
 15 26  1  0
 15 16  1  1
 17 18  2  0
 17 16  1  0
 19 18  1  0
 20 25  2  0
 20 19  1  0
 21 20  1  0
 22 23  1  0
 22 21  2  0
 23 24  2  0
 24 25  1  0
 25 17  1  0
 26 27  1  0
 28 26  2  0
M  END
$$$$
