CTW.pdb
     RDKit          3D

 28 29  0  0  1  0  0  0  0  0999 V2000
    7.7969  -13.9312   18.0093 N   0  0  0  0  0  0  0  0  0  0  0  0
    8.8447  -14.2038   18.9711 C   0  0  1  0  0  0  0  0  0  0  0  0
    9.2032  -12.9295   19.7416 C   0  0  0  0  0  0  0  0  0  0  0  0
    8.9554  -11.5254   18.6315 S   0  0  0  0  0  0  0  0  0  0  0  0
    8.4537  -15.3012   19.8957 C   0  0  0  0  0  0  0  0  0  0  0  0
    7.2283  -15.4463   20.1420 O   0  0  0  0  0  0  0  0  0  0  0  0
    8.7451  -18.9111   19.8092 C   0  0  0  0  0  0  0  0  0  0  0  0
    9.4533  -18.4578   21.0399 C   0  0  1  0  0  0  0  0  0  0  0  0
   10.8561  -18.5072   20.8099 O   0  0  0  0  0  0  0  0  0  0  0  0
    9.0837  -17.0671   21.5122 C   0  0  2  0  0  0  0  0  0  0  0  0
    9.4536  -16.1202   20.4491 N   0  0  0  0  0  0  0  0  0  0  0  0
    9.7749  -16.6403   22.7406 C   0  0  0  0  0  0  0  0  0  0  0  0
   10.8266  -15.9031   22.6568 O   0  0  0  0  0  0  0  0  0  0  0  0
    9.3875  -16.9666   24.0665 N   0  0  0  0  0  0  0  0  0  0  0  0
   10.1595  -16.5419   25.2254 C   0  0  1  0  0  0  0  0  0  0  0  0
    9.8881  -15.0786   25.4931 C   0  0  0  0  0  0  0  0  0  0  0  0
    8.4461  -14.8058   25.6057 C   0  0  0  0  0  0  0  0  0  0  0  0
    7.3816  -15.6918   25.5536 C   0  0  0  0  0  0  0  0  0  0  0  0
    6.2477  -14.9860   25.7040 N   0  0  0  0  0  0  0  0  0  0  0  0
    6.5548  -13.6654   25.8520 C   0  0  0  0  0  0  0  0  0  0  0  0
    5.7217  -12.5813   26.0333 C   0  0  0  0  0  0  0  0  0  0  0  0
    6.2573  -11.3183   26.1617 C   0  0  0  0  0  0  0  0  0  0  0  0
    7.6255  -11.1504   26.1075 C   0  0  0  0  0  0  0  0  0  0  0  0
    8.4370  -12.2615   25.9241 C   0  0  0  0  0  0  0  0  0  0  0  0
    7.9323  -13.5315   25.7931 C   0  0  0  0  0  0  0  0  0  0  0  0
    9.6911  -17.2923   26.4017 C   0  0  0  0  0  0  0  0  0  0  0  0
    8.7170  -18.2550   26.2670 O   0  0  0  0  0  0  0  0  0  0  0  0
   10.1686  -17.0686   27.5392 O   0  0  0  0  0  0  0  0  0  0  0  0
  2  1  1  6
  3  2  1  0
  4  3  1  0
  5  2  1  0
  5  6  2  0
  8  7  1  6
  8 10  1  0
  9  8  1  0
 10 11  1  6
 10 12  1  0
 11  5  1  0
 12 14  1  0
 12 13  2  0
 14 15  1  0
 15 26  1  0
 15 16  1  1
 17 18  2  0
 17 16  1  0
 19 18  1  0
 20 25  2  0
 20 19  1  0
 21 20  1  0
 22 23  1  0
 22 21  2  0
 23 24  2  0
 24 25  1  0
 25 17  1  0
 26 27  1  0
 28 26  2  0
M  END
$$$$
