CTW.pdb
     RDKit          3D

 28 29  0  0  1  0  0  0  0  0999 V2000
    7.8262  -14.2950   16.9927 N   0  0  0  0  0  0  0  0  0  0  0  0
    8.4840  -14.0572   18.2608 C   0  0  1  0  0  0  0  0  0  0  0  0
    8.0932  -12.6828   18.8126 C   0  0  0  0  0  0  0  0  0  0  0  0
    8.9858  -12.4372   20.3644 S   0  0  0  0  0  0  0  0  0  0  0  0
    8.1775  -15.1372   19.2365 C   0  0  0  0  0  0  0  0  0  0  0  0
    7.1890  -15.8772   18.9945 O   0  0  0  0  0  0  0  0  0  0  0  0
    8.2167  -17.8388   19.2558 C   0  0  0  0  0  0  0  0  0  0  0  0
    8.9976  -17.6925   20.5170 C   0  0  1  0  0  0  0  0  0  0  0  0
   10.3848  -17.7712   20.2126 O   0  0  0  0  0  0  0  0  0  0  0  0
    8.7367  -16.4125   21.2833 C   0  0  2  0  0  0  0  0  0  0  0  0
    8.9921  -15.2858   20.3729 N   0  0  0  0  0  0  0  0  0  0  0  0
    9.5967  -16.2268   22.4641 C   0  0  0  0  0  0  0  0  0  0  0  0
   10.7826  -15.7480   22.3200 O   0  0  0  0  0  0  0  0  0  0  0  0
    9.2421  -16.5298   23.8047 N   0  0  0  0  0  0  0  0  0  0  0  0
   10.1649  -16.3325   24.9132 C   0  0  1  0  0  0  0  0  0  0  0  0
    9.8377  -15.0282   25.6049 C   0  0  0  0  0  0  0  0  0  0  0  0
    8.3864  -14.8556   25.7795 C   0  0  0  0  0  0  0  0  0  0  0  0
    7.3767  -15.8013   25.6955 C   0  0  0  0  0  0  0  0  0  0  0  0
    6.2077  -15.1807   25.9297 N   0  0  0  0  0  0  0  0  0  0  0  0
    6.4387  -13.8570   26.1631 C   0  0  0  0  0  0  0  0  0  0  0  0
    5.5477  -12.8429   26.4464 C   0  0  0  0  0  0  0  0  0  0  0  0
    6.0094  -11.5608   26.6493 C   0  0  0  0  0  0  0  0  0  0  0  0
    7.3623  -11.3034   26.5667 C   0  0  0  0  0  0  0  0  0  0  0  0
    8.2332  -12.3454   26.2799 C   0  0  0  0  0  0  0  0  0  0  0  0
    7.8027  -13.6325   26.0731 C   0  0  0  0  0  0  0  0  0  0  0  0
    9.9554  -17.4087   25.8952 C   0  0  0  0  0  0  0  0  0  0  0  0
   10.7693  -17.5067   27.0004 O   0  0  0  0  0  0  0  0  0  0  0  0
    9.0376  -18.2491   25.7422 O   0  0  0  0  0  0  0  0  0  0  0  0
  2  1  1  6
  3  2  1  0
  4  3  1  0
  5  2  1  0
  5  6  2  0
  8  7  1  6
  8 10  1  0
  9  8  1  0
 10 11  1  6
 10 12  1  0
 11  5  1  0
 12 14  1  0
 12 13  2  0
 14 15  1  0
 15 26  1  0
 15 16  1  1
 17 18  2  0
 17 16  1  0
 19 18  1  0
 20 25  2  0
 20 19  1  0
 21 20  1  0
 22 23  1  0
 22 21  2  0
 23 24  2  0
 24 25  1  0
 25 17  1  0
 26 27  1  0
 28 26  2  0
M  END
$$$$
