CTW.pdb
     RDKit          3D

 28 29  0  0  1  0  0  0  0  0999 V2000
    6.3248  -19.5151   19.5997 N   0  0  0  0  0  0  0  0  0  0  0  0
    7.0391  -19.1822   20.8148 C   0  0  1  0  0  0  0  0  0  0  0  0
    7.8918  -20.3696   21.2721 C   0  0  0  0  0  0  0  0  0  0  0  0
    8.7529  -19.8807   22.7837 S   0  0  0  0  0  0  0  0  0  0  0  0
    7.8682  -17.9607   20.6338 C   0  0  0  0  0  0  0  0  0  0  0  0
    8.1128  -17.5923   19.4558 O   0  0  0  0  0  0  0  0  0  0  0  0
    7.1491  -15.3573   19.8634 C   0  0  0  0  0  0  0  0  0  0  0  0
    7.7792  -15.0096   21.1686 C   0  0  1  0  0  0  0  0  0  0  0  0
    6.7773  -15.0049   22.1782 O   0  0  0  0  0  0  0  0  0  0  0  0
    8.9029  -15.9294   21.5989 C   0  0  2  0  0  0  0  0  0  0  0  0
    8.3382  -17.2769   21.7689 N   0  0  0  0  0  0  0  0  0  0  0  0
    9.5382  -15.5553   22.8737 C   0  0  0  0  0  0  0  0  0  0  0  0
   10.2310  -14.4732   22.9472 O   0  0  0  0  0  0  0  0  0  0  0  0
    9.4634  -16.2911   24.0852 N   0  0  0  0  0  0  0  0  0  0  0  0
   10.1788  -15.8817   25.2852 C   0  0  1  0  0  0  0  0  0  0  0  0
    9.2408  -15.9495   26.4693 C   0  0  0  0  0  0  0  0  0  0  0  0
    7.9270  -15.3651   26.1552 C   0  0  0  0  0  0  0  0  0  0  0  0
    6.7778  -15.9911   25.6988 C   0  0  0  0  0  0  0  0  0  0  0  0
    5.8254  -15.0538   25.5540 N   0  0  0  0  0  0  0  0  0  0  0  0
    6.3324  -13.8376   25.9061 C   0  0  0  0  0  0  0  0  0  0  0  0
    5.7258  -12.5990   25.9169 C   0  0  0  0  0  0  0  0  0  0  0  0
    6.4385  -11.4894   26.3158 C   0  0  0  0  0  0  0  0  0  0  0  0
    7.7557  -11.6289   26.7016 C   0  0  0  0  0  0  0  0  0  0  0  0
    8.3375  -12.8890   26.6797 C   0  0  0  0  0  0  0  0  0  0  0  0
    7.6527  -14.0123   26.2872 C   0  0  0  0  0  0  0  0  0  0  0  0
   11.2640  -16.8439   25.5356 C   0  0  0  0  0  0  0  0  0  0  0  0
   11.4660  -17.8999   24.6767 O   0  0  0  0  0  0  0  0  0  0  0  0
   12.0180  -16.7185   26.5295 O   0  0  0  0  0  0  0  0  0  0  0  0
  2  1  1  6
  3  2  1  0
  4  3  1  0
  5  2  1  0
  5  6  2  0
  8  7  1  6
  8 10  1  0
  9  8  1  0
 10 11  1  1
 10 12  1  0
 11  5  1  0
 12 14  1  0
 12 13  2  0
 14 15  1  0
 15 26  1  0
 15 16  1  1
 17 18  2  0
 17 16  1  0
 19 18  1  0
 20 25  2  0
 20 19  1  0
 21 20  1  0
 22 23  1  0
 22 21  2  0
 23 24  2  0
 24 25  1  0
 25 17  1  0
 26 27  1  0
 28 26  2  0
M  END
$$$$
