CTW.pdb
     RDKit          3D

 28 29  0  0  1  0  0  0  0  0999 V2000
    8.0846  -14.4038   17.0728 N   0  0  0  0  0  0  0  0  0  0  0  0
    8.6415  -14.1123   18.3775 C   0  0  1  0  0  0  0  0  0  0  0  0
    8.2036  -12.7203   18.8431 C   0  0  0  0  0  0  0  0  0  0  0  0
    8.8734  -12.4571   20.5007 S   0  0  0  0  0  0  0  0  0  0  0  0
    8.2650  -15.1557   19.3683 C   0  0  0  0  0  0  0  0  0  0  0  0
    7.0545  -15.4944   19.4258 O   0  0  0  0  0  0  0  0  0  0  0  0
    8.3133  -18.4146   19.5456 C   0  0  0  0  0  0  0  0  0  0  0  0
    9.0852  -18.0476   20.7667 C   0  0  1  0  0  0  0  0  0  0  0  0
   10.4721  -18.2274   20.5074 O   0  0  0  0  0  0  0  0  0  0  0  0
    8.8594  -16.6345   21.2626 C   0  0  2  0  0  0  0  0  0  0  0  0
    9.2615  -15.7135   20.1885 N   0  0  0  0  0  0  0  0  0  0  0  0
    9.6398  -16.2802   22.4601 C   0  0  0  0  0  0  0  0  0  0  0  0
   10.7624  -15.6643   22.3301 O   0  0  0  0  0  0  0  0  0  0  0  0
    9.2698  -16.5546   23.8027 N   0  0  0  0  0  0  0  0  0  0  0  0
   10.1322  -16.2212   24.9272 C   0  0  1  0  0  0  0  0  0  0  0  0
    9.7581  -14.8528   25.4507 C   0  0  0  0  0  0  0  0  0  0  0  0
    8.3047  -14.7245   25.6445 C   0  0  0  0  0  0  0  0  0  0  0  0
    7.3219  -15.6982   25.5614 C   0  0  0  0  0  0  0  0  0  0  0  0
    6.1383  -15.1147   25.8167 N   0  0  0  0  0  0  0  0  0  0  0  0
    6.3336  -13.7875   26.0627 C   0  0  0  0  0  0  0  0  0  0  0  0
    5.4171  -12.8032   26.3684 C   0  0  0  0  0  0  0  0  0  0  0  0
    5.8438  -11.5104   26.5807 C   0  0  0  0  0  0  0  0  0  0  0  0
    7.1875  -11.2128   26.4851 C   0  0  0  0  0  0  0  0  0  0  0  0
    8.0848  -12.2257   26.1759 C   0  0  0  0  0  0  0  0  0  0  0  0
    7.6893  -13.5224   25.9592 C   0  0  0  0  0  0  0  0  0  0  0  0
    9.8819  -17.1840   26.0119 C   0  0  0  0  0  0  0  0  0  0  0  0
    9.0640  -18.2701   25.7997 O   0  0  0  0  0  0  0  0  0  0  0  0
   10.4064  -17.0318   27.1405 O   0  0  0  0  0  0  0  0  0  0  0  0
  2  1  1  6
  3  2  1  0
  4  3  1  0
  5  2  1  0
  5  6  2  0
  8  7  1  6
  8 10  1  0
  9  8  1  0
 10 11  1  6
 10 12  1  0
 11  5  1  0
 12 14  1  0
 12 13  2  0
 14 15  1  0
 15 26  1  0
 15 16  1  1
 17 18  2  0
 17 16  1  0
 19 18  1  0
 20 25  2  0
 20 19  1  0
 21 20  1  0
 22 23  1  0
 22 21  2  0
 23 24  2  0
 24 25  1  0
 25 17  1  0
 26 27  1  0
 28 26  2  0
M  END
$$$$
