RIH.pdb
     RDKit          3D

 30 30  0  0  1  0  0  0  0  0999 V2000
   12.9944  -21.0614   15.5675 N   0  0  0  0  0  0  0  0  0  0  0  0
   12.2830  -22.1895   16.0928 C   0  0  0  0  0  0  0  0  0  0  0  0
   12.8877  -23.3006   16.2240 N   0  0  0  0  0  0  0  0  0  0  0  0
   10.9121  -22.0296   16.4546 N   0  0  0  0  0  0  0  0  0  0  0  0
   10.3170  -20.7388   16.3153 C   0  0  0  0  0  0  0  0  0  0  0  0
   11.0733  -19.5370   16.6623 C   0  0  0  0  0  0  0  0  0  0  0  0
   10.7381  -18.6382   17.7591 C   0  0  0  0  0  0  0  0  0  0  0  0
   10.3530  -17.2458   17.4233 C   0  0  2  0  0  0  0  0  0  0  0  0
   11.3229  -16.6346   16.5718 N   0  0  0  0  0  0  0  0  0  0  0  0
   10.3022  -16.4122   18.7081 C   0  0  0  0  0  0  0  0  0  0  0  0
   11.3874  -16.1651   19.2371 O   0  0  0  0  0  0  0  0  0  0  0  0
   12.4789  -24.1728   16.5787 C   0  0  0  0  0  0  0  0  0  0  0  0
    6.5971  -12.2987   19.8215 C   0  0  0  0  0  0  0  0  0  0  0  0
    7.8606  -13.1338   19.5403 C   0  0  2  0  0  0  0  0  0  0  0  0
    7.8859  -14.2162   20.5432 C   0  0  0  0  0  0  0  0  0  0  0  0
    8.0228  -13.5434   21.9195 C   0  0  2  0  0  0  0  0  0  0  0  0
    8.9493  -15.2355   20.4745 N   0  0  0  0  0  0  0  0  0  0  0  0
    9.0712  -15.9628   19.2380 C   0  0  0  0  0  0  0  0  0  0  0  0
    9.1376  -16.0696   21.6913 O   0  0  0  0  0  0  0  0  0  0  0  0
    8.2179  -16.8155   22.1368 N   0  0  0  0  0  0  0  0  0  0  0  0
   10.3447  -16.0679   22.4085 C   0  0  1  0  0  0  0  0  0  0  0  0
   10.5556  -16.7534   23.6679 C   0  0  0  0  0  0  0  0  0  0  0  0
   11.9774  -16.9801   23.9924 C   0  0  0  0  0  0  0  0  0  0  0  0
   12.5756  -17.9581   23.0700 C   0  0  0  0  0  0  0  0  0  0  0  0
   11.8473  -18.8113   22.2447 N   0  0  0  0  0  0  0  0  0  0  0  0
   12.6915  -19.5780   21.5287 C   0  0  0  0  0  0  0  0  0  0  0  0
   13.9368  -19.2270   21.8843 N   0  0  0  0  0  0  0  0  0  0  0  0
   13.8556  -18.2564   22.8075 C   0  0  0  0  0  0  0  0  0  0  0  0
    9.8777  -16.0282   24.7624 O   0  0  0  0  0  0  0  0  0  0  0  0
    9.9077  -16.5909   26.0572 O   0  0  0  0  0  0  0  0  0  0  0  0
  1  2  1  0
  2  4  1  0
  2  3  2  0
  4  5  1  0
  5  6  1  0
  7  8  1  0
  7  6  1  0
  8 10  1  0
  8  9  1  6
 10 11  2  0
 12 13  1  0
 14 13  1  0
 14 16  1  0
 14 15  1  6
 16 18  1  0
 16 17  1  1
 17 10  1  0
 18 20  1  0
 19 18  2  0
 20 21  1  0
 21 22  1  1
 22 23  1  0
 23 24  2  0
 24 25  1  0
 26 25  1  0
 27 23  1  0
 27 26  2  0
 28 29  1  0
 28 21  1  0
 30 28  2  0
M  END
$$$$
