RIH.pdb
     RDKit          3D

 30 30  0  0  1  0  0  0  0  0999 V2000
    9.8523  -14.8372   17.1243 N   0  0  0  0  0  0  0  0  0  0  0  0
    8.5232  -14.3024   17.1709 C   0  0  0  0  0  0  0  0  0  0  0  0
    8.3499  -13.0515   17.0208 N   0  0  0  0  0  0  0  0  0  0  0  0
    7.4306  -15.1949   17.3844 N   0  0  0  0  0  0  0  0  0  0  0  0
    7.1648  -15.6401   18.7151 C   0  0  0  0  0  0  0  0  0  0  0  0
    8.2106  -16.3005   19.4943 C   0  0  0  0  0  0  0  0  0  0  0  0
    8.6305  -15.8904   20.8279 C   0  0  0  0  0  0  0  0  0  0  0  0
    7.5835  -15.7208   21.8645 C   0  0  2  0  0  0  0  0  0  0  0  0
    6.5804  -14.7987   21.4370 N   0  0  0  0  0  0  0  0  0  0  0  0
    8.2164  -15.1327   23.1301 C   0  0  0  0  0  0  0  0  0  0  0  0
    9.3186  -14.6003   22.9877 O   0  0  0  0  0  0  0  0  0  0  0  0
    7.4456  -12.5684   16.9715 C   0  0  0  0  0  0  0  0  0  0  0  0
    5.8287  -11.6977   26.1498 C   0  0  0  0  0  0  0  0  0  0  0  0
    6.9527  -12.4218   25.3848 C   0  0  2  0  0  0  0  0  0  0  0  0
    7.3733  -13.5598   26.2250 C   0  0  0  0  0  0  0  0  0  0  0  0
    8.3049  -12.9913   27.3088 C   0  0  2  0  0  0  0  0  0  0  0  0
    8.0999  -14.6826   25.6037 N   0  0  0  0  0  0  0  0  0  0  0  0
    7.5566  -15.2073   24.3781 C   0  0  0  0  0  0  0  0  0  0  0  0
    8.6188  -15.7218   26.5325 O   0  0  0  0  0  0  0  0  0  0  0  0
    7.8446  -16.4315   27.2381 N   0  0  0  0  0  0  0  0  0  0  0  0
    9.9944  -15.9646   26.6752 C   0  0  1  0  0  0  0  0  0  0  0  0
   10.5652  -17.0070   27.5046 C   0  0  0  0  0  0  0  0  0  0  0  0
   11.8896  -17.4727   27.0493 C   0  0  0  0  0  0  0  0  0  0  0  0
   11.8158  -18.0021   25.6784 C   0  0  0  0  0  0  0  0  0  0  0  0
   10.9721  -19.0346   25.2764 N   0  0  0  0  0  0  0  0  0  0  0  0
   11.1487  -19.2783   23.9639 C   0  0  0  0  0  0  0  0  0  0  0  0
   12.0857  -18.4220   23.5290 N   0  0  0  0  0  0  0  0  0  0  0  0
   12.4780  -17.6626   24.5637 C   0  0  0  0  0  0  0  0  0  0  0  0
   10.6215  -16.5638   28.9131 O   0  0  0  0  0  0  0  0  0  0  0  0
   10.3226  -15.2145   29.2025 O   0  0  0  0  0  0  0  0  0  0  0  0
  1  2  1  0
  2  4  1  0
  2  3  2  0
  4  5  1  0
  5  6  1  0
  7  8  1  0
  7  6  1  0
  8 10  1  0
  8  9  1  6
 10 11  2  0
 12 13  1  0
 14 13  1  0
 14 16  1  0
 14 15  1  1
 16 18  1  0
 16 17  1  6
 17 10  1  0
 18 20  1  0
 19 18  2  0
 20 21  1  0
 21 22  1  1
 22 23  1  0
 23 24  2  0
 24 25  1  0
 26 25  1  0
 27 23  1  0
 27 26  2  0
 28 29  1  0
 28 21  1  0
 30 28  2  0
M  END
$$$$
