RIH.pdb
     RDKit          3D

 30 30  0  0  1  0  0  0  0  0999 V2000
    7.1937  -17.2435   16.8588 N   0  0  0  0  0  0  0  0  0  0  0  0
    7.7927  -16.1488   16.1534 C   0  0  0  0  0  0  0  0  0  0  0  0
    7.3779  -15.8586   14.9868 N   0  0  0  0  0  0  0  0  0  0  0  0
    8.8401  -15.4146   16.7858 N   0  0  0  0  0  0  0  0  0  0  0  0
    8.7413  -15.1571   18.1871 C   0  0  0  0  0  0  0  0  0  0  0  0
    7.4473  -15.2383   18.8622 C   0  0  0  0  0  0  0  0  0  0  0  0
    7.2615  -15.1532   20.3049 C   0  0  0  0  0  0  0  0  0  0  0  0
    7.3336  -13.8133   20.9367 C   0  0  2  0  0  0  0  0  0  0  0  0
    8.1159  -12.9145   20.1497 N   0  0  0  0  0  0  0  0  0  0  0  0
    8.0297  -13.9332   22.2967 C   0  0  0  0  0  0  0  0  0  0  0  0
    9.2439  -13.7232   22.3044 O   0  0  0  0  0  0  0  0  0  0  0  0
    7.7246  -15.0950   14.3948 C   0  0  0  0  0  0  0  0  0  0  0  0
    6.0679  -11.5338   26.6490 C   0  0  0  0  0  0  0  0  0  0  0  0
    6.9969  -12.0504   25.5341 C   0  0  2  0  0  0  0  0  0  0  0  0
    7.2434  -13.4782   25.8145 C   0  0  0  0  0  0  0  0  0  0  0  0
    8.1671  -13.5366   27.0429 C   0  0  2  0  0  0  0  0  0  0  0  0
    7.8790  -14.3150   24.7799 N   0  0  0  0  0  0  0  0  0  0  0  0
    7.3019  -14.2661   23.4619 C   0  0  0  0  0  0  0  0  0  0  0  0
    8.3052  -15.6744   25.2068 O   0  0  0  0  0  0  0  0  0  0  0  0
    7.4701  -16.5467   25.5843 N   0  0  0  0  0  0  0  0  0  0  0  0
    9.6564  -16.0562   25.2155 C   0  0  1  0  0  0  0  0  0  0  0  0
   10.1341  -17.3876   25.5311 C   0  0  0  0  0  0  0  0  0  0  0  0
   11.4587  -17.6968   24.9584 C   0  0  0  0  0  0  0  0  0  0  0  0
   11.4340  -17.5852   23.4913 C   0  0  0  0  0  0  0  0  0  0  0  0
   10.5497  -18.2720   22.6633 N   0  0  0  0  0  0  0  0  0  0  0  0
   10.7899  -17.9494   21.3782 C   0  0  0  0  0  0  0  0  0  0  0  0
   11.8067  -17.0740   21.3774 N   0  0  0  0  0  0  0  0  0  0  0  0
   12.1845  -16.8630   22.6478 C   0  0  0  0  0  0  0  0  0  0  0  0
   10.1345  -17.5954   26.9940 O   0  0  0  0  0  0  0  0  0  0  0  0
   10.4682  -18.8754   27.4880 O   0  0  0  0  0  0  0  0  0  0  0  0
  1  2  1  0
  2  4  1  0
  2  3  2  0
  4  5  1  0
  5  6  1  0
  7  8  1  0
  7  6  1  0
  8 10  1  0
  8  9  1  6
 10 11  2  0
 12 13  1  0
 14 13  1  0
 14 16  1  0
 14 15  1  6
 16 18  1  0
 16 17  1  6
 17 10  1  0
 18 20  1  0
 19 18  2  0
 20 21  1  0
 21 22  1  1
 22 23  1  0
 23 24  2  0
 24 25  1  0
 26 25  1  0
 27 23  1  0
 27 26  2  0
 28 29  1  0
 28 21  1  0
 30 28  2  0
M  END
$$$$
