RIH.pdb
     RDKit          3D

 30 30  0  0  1  0  0  0  0  0999 V2000
    7.6757  -23.1573   19.5527 N   0  0  0  0  0  0  0  0  0  0  0  0
    7.9738  -23.0130   18.1581 C   0  0  0  0  0  0  0  0  0  0  0  0
    8.3486  -24.0302   17.4932 N   0  0  0  0  0  0  0  0  0  0  0  0
    7.8391  -21.7263   17.5562 N   0  0  0  0  0  0  0  0  0  0  0  0
    7.9953  -20.5696   18.3793 C   0  0  0  0  0  0  0  0  0  0  0  0
    8.9722  -20.5652   19.4668 C   0  0  0  0  0  0  0  0  0  0  0  0
    9.3131  -19.3956   20.2660 C   0  0  0  0  0  0  0  0  0  0  0  0
    9.7101  -18.1578   19.5519 C   0  0  2  0  0  0  0  0  0  0  0  0
   11.0294  -18.2725   19.0175 N   0  0  0  0  0  0  0  0  0  0  0  0
    9.7326  -16.9886   20.5422 C   0  0  0  0  0  0  0  0  0  0  0  0
   10.7349  -16.9001   21.2535 O   0  0  0  0  0  0  0  0  0  0  0  0
    8.6013  -24.0423   16.4984 C   0  0  0  0  0  0  0  0  0  0  0  0
    7.0256  -12.0055   19.8507 C   0  0  0  0  0  0  0  0  0  0  0  0
    8.1375  -13.0512   20.0583 C   0  0  2  0  0  0  0  0  0  0  0  0
    7.7551  -13.8487   21.2398 C   0  0  0  0  0  0  0  0  0  0  0  0
    7.8092  -12.9023   22.4509 C   0  0  2  0  0  0  0  0  0  0  0  0
    8.5610  -15.0293   21.6021 N   0  0  0  0  0  0  0  0  0  0  0  0
    8.6555  -16.0763   20.6184 C   0  0  0  0  0  0  0  0  0  0  0  0
    8.4154  -15.5189   22.9988 O   0  0  0  0  0  0  0  0  0  0  0  0
    7.5226  -16.3551   23.3222 N   0  0  0  0  0  0  0  0  0  0  0  0
    9.2596  -15.0747   24.0291 C   0  0  2  0  0  0  0  0  0  0  0  0
    9.2627  -15.6051   25.3778 C   0  0  0  0  0  0  0  0  0  0  0  0
    7.9483  -15.5423   26.0461 C   0  0  0  0  0  0  0  0  0  0  0  0
    7.4190  -14.1694   26.0326 C   0  0  0  0  0  0  0  0  0  0  0  0
    8.1700  -13.0320   26.3188 N   0  0  0  0  0  0  0  0  0  0  0  0
    7.3909  -11.9383   26.2192 C   0  0  0  0  0  0  0  0  0  0  0  0
    6.1644  -12.3609   25.8763 N   0  0  0  0  0  0  0  0  0  0  0  0
    6.1927  -13.6982   25.7671 C   0  0  0  0  0  0  0  0  0  0  0  0
    9.7863  -16.9868   25.3808 O   0  0  0  0  0  0  0  0  0  0  0  0
   10.7007  -17.3538   26.3923 O   0  0  0  0  0  0  0  0  0  0  0  0
  1  2  1  0
  2  4  1  0
  2  3  2  0
  4  5  1  0
  5  6  1  0
  7  8  1  0
  7  6  1  0
  8 10  1  0
  8  9  1  1
 10 11  2  0
 12 13  1  0
 14 13  1  0
 14 16  1  0
 14 15  1  6
 16 18  1  0
 16 17  1  1
 17 10  1  0
 18 20  1  0
 19 18  2  0
 20 21  1  0
 21 22  1  6
 22 23  1  0
 23 24  2  0
 24 25  1  0
 26 25  1  0
 27 23  1  0
 27 26  2  0
 28 29  1  0
 28 21  1  0
 30 28  2  0
M  END
$$$$
