RIH.pdb
     RDKit          3D

 30 30  0  0  1  0  0  0  0  0999 V2000
    9.6765  -23.6268   19.1013 N   0  0  0  0  0  0  0  0  0  0  0  0
    8.3529  -23.8946   18.6207 C   0  0  0  0  0  0  0  0  0  0  0  0
    7.9456  -25.0976   18.5564 N   0  0  0  0  0  0  0  0  0  0  0  0
    7.5293  -22.7975   18.2285 N   0  0  0  0  0  0  0  0  0  0  0  0
    8.0890  -21.4837   18.2504 C   0  0  0  0  0  0  0  0  0  0  0  0
    7.9943  -20.6621   19.4559 C   0  0  0  0  0  0  0  0  0  0  0  0
    8.9926  -19.6850   19.8700 C   0  0  0  0  0  0  0  0  0  0  0  0
    9.1802  -18.4819   19.0232 C   0  0  2  0  0  0  0  0  0  0  0  0
   10.3243  -18.6194   18.1797 N   0  0  0  0  0  0  0  0  0  0  0  0
    9.4347  -17.2668   19.9215 C   0  0  0  0  0  0  0  0  0  0  0  0
   10.5742  -17.1595   20.3781 O   0  0  0  0  0  0  0  0  0  0  0  0
    6.9967  -25.4019   18.3102 C   0  0  0  0  0  0  0  0  0  0  0  0
    7.6003  -11.5401   20.5268 C   0  0  0  0  0  0  0  0  0  0  0  0
    8.2724  -12.6788   21.3171 C   0  0  2  0  0  0  0  0  0  0  0  0
    7.9381  -13.9352   20.6187 C   0  0  0  0  0  0  0  0  0  0  0  0
    6.4220  -14.1409   20.7758 C   0  0  2  0  0  0  0  0  0  0  0  0
    8.5727  -15.1922   21.0566 N   0  0  0  0  0  0  0  0  0  0  0  0
    8.4076  -16.3354   20.1971 C   0  0  0  0  0  0  0  0  0  0  0  0
    8.4776  -15.5040   22.5076 O   0  0  0  0  0  0  0  0  0  0  0  0
    7.5910  -16.2820   22.9654 N   0  0  0  0  0  0  0  0  0  0  0  0
    9.3650  -14.9473   23.4425 C   0  0  2  0  0  0  0  0  0  0  0  0
    9.3022  -15.1717   24.8729 C   0  0  0  0  0  0  0  0  0  0  0  0
    7.9554  -15.5252   25.3623 C   0  0  0  0  0  0  0  0  0  0  0  0
    7.1463  -14.3170   25.5877 C   0  0  0  0  0  0  0  0  0  0  0  0
    7.6003  -13.0156   25.3882 N   0  0  0  0  0  0  0  0  0  0  0  0
    6.6181  -12.1434   25.6842 C   0  0  0  0  0  0  0  0  0  0  0  0
    5.5541  -12.8661   26.0663 N   0  0  0  0  0  0  0  0  0  0  0  0
    5.8815  -14.1662   26.0045 C   0  0  0  0  0  0  0  0  0  0  0  0
   10.2899  -16.1957   25.2719 O   0  0  0  0  0  0  0  0  0  0  0  0
   10.4661  -16.4550   26.6487 O   0  0  0  0  0  0  0  0  0  0  0  0
  1  2  1  0
  2  4  1  0
  2  3  2  0
  4  5  1  0
  5  6  1  0
  7  8  1  0
  7  6  1  0
  8 10  1  0
  8  9  1  6
 10 11  2  0
 12 13  1  0
 14 13  1  0
 14 16  1  0
 14 15  1  6
 16 18  1  0
 16 17  1  1
 17 10  1  0
 18 20  1  0
 19 18  2  0
 20 21  1  0
 21 22  1  6
 22 23  1  0
 23 24  2  0
 24 25  1  0
 26 25  1  0
 27 23  1  0
 27 26  2  0
 28 29  1  0
 28 21  1  0
 30 28  2  0
M  END
$$$$
