RIH.pdb
     RDKit          3D

 30 30  0  0  1  0  0  0  0  0999 V2000
   10.2606  -20.2065   14.2195 N   0  0  0  0  0  0  0  0  0  0  0  0
    9.4378  -21.3797   14.2558 C   0  0  0  0  0  0  0  0  0  0  0  0
    9.7632  -22.3901   13.5554 N   0  0  0  0  0  0  0  0  0  0  0  0
    8.2742  -21.3776   15.0816 N   0  0  0  0  0  0  0  0  0  0  0  0
    8.1444  -20.3576   16.0729 C   0  0  0  0  0  0  0  0  0  0  0  0
    9.2445  -20.0816   16.9950 C   0  0  0  0  0  0  0  0  0  0  0  0
    9.1844  -19.1203   18.0883 C   0  0  0  0  0  0  0  0  0  0  0  0
    8.8922  -17.7052   17.7538 C   0  0  2  0  0  0  0  0  0  0  0  0
    9.7073  -17.2531   16.6719 N   0  0  0  0  0  0  0  0  0  0  0  0
    9.2264  -16.8217   18.9605 C   0  0  0  0  0  0  0  0  0  0  0  0
   10.4235  -16.6931   19.2230 O   0  0  0  0  0  0  0  0  0  0  0  0
    9.2511  -23.2780   13.5013 C   0  0  0  0  0  0  0  0  0  0  0  0
    8.1450  -12.5354   19.8913 C   0  0  0  0  0  0  0  0  0  0  0  0
    6.9657  -13.4744   20.2081 C   0  0  1  0  0  0  0  0  0  0  0  0
    7.4349  -14.4086   21.2498 C   0  0  0  0  0  0  0  0  0  0  0  0
    8.0503  -13.5525   22.3697 C   0  0  2  0  0  0  0  0  0  0  0  0
    8.4467  -15.4236   20.9027 N   0  0  0  0  0  0  0  0  0  0  0  0
    8.2052  -16.1998   19.7145 C   0  0  0  0  0  0  0  0  0  0  0  0
    9.0060  -16.2064   22.0368 O   0  0  0  0  0  0  0  0  0  0  0  0
    8.2888  -16.9915   22.7225 N   0  0  0  0  0  0  0  0  0  0  0  0
   10.3575  -16.1104   22.4053 C   0  0  1  0  0  0  0  0  0  0  0  0
   10.9377  -16.7332   23.5783 C   0  0  0  0  0  0  0  0  0  0  0  0
   12.3556  -17.1085   23.4141 C   0  0  0  0  0  0  0  0  0  0  0  0
   12.5167  -18.0821   22.3226 C   0  0  0  0  0  0  0  0  0  0  0  0
   11.9370  -19.3483   22.3038 N   0  0  0  0  0  0  0  0  0  0  0  0
   12.2800  -19.9861   21.1685 C   0  0  0  0  0  0  0  0  0  0  0  0
   13.0635  -19.1498   20.4706 N   0  0  0  0  0  0  0  0  0  0  0  0
   13.1984  -18.0129   21.1708 C   0  0  0  0  0  0  0  0  0  0  0  0
   10.7597  -15.8621   24.7584 O   0  0  0  0  0  0  0  0  0  0  0  0
   11.1722  -16.3491   26.0180 O   0  0  0  0  0  0  0  0  0  0  0  0
  1  2  1  0
  2  4  1  0
  2  3  2  0
  4  5  1  0
  5  6  1  0
  7  8  1  0
  7  6  1  0
  8 10  1  0
  8  9  1  6
 10 11  2  0
 12 13  1  0
 14 13  1  0
 14 16  1  0
 14 15  1  1
 16 18  1  0
 16 17  1  6
 17 10  1  0
 18 20  1  0
 19 18  2  0
 20 21  1  0
 21 22  1  1
 22 23  1  0
 23 24  2  0
 24 25  1  0
 26 25  1  0
 27 23  1  0
 27 26  2  0
 28 29  1  0
 28 21  1  0
 30 28  2  0
M  END
$$$$
