RIH.pdb
     RDKit          3D

 30 30  0  0  1  0  0  0  0  0999 V2000
    6.5010  -19.2450   17.4242 N   0  0  0  0  0  0  0  0  0  0  0  0
    7.6626  -18.6650   16.8169 C   0  0  0  0  0  0  0  0  0  0  0  0
    8.3905  -19.3797   16.0575 N   0  0  0  0  0  0  0  0  0  0  0  0
    7.9668  -17.2968   17.0838 N   0  0  0  0  0  0  0  0  0  0  0  0
    7.1509  -16.5871   18.0168 C   0  0  0  0  0  0  0  0  0  0  0  0
    7.7566  -15.9220   19.1691 C   0  0  0  0  0  0  0  0  0  0  0  0
    7.0070  -15.2631   20.2306 C   0  0  0  0  0  0  0  0  0  0  0  0
    7.3898  -13.8771   20.5940 C   0  0  2  0  0  0  0  0  0  0  0  0
    8.3789  -13.3650   19.7002 N   0  0  0  0  0  0  0  0  0  0  0  0
    8.0135  -13.8760   21.9938 C   0  0  0  0  0  0  0  0  0  0  0  0
    9.1230  -14.4029   22.0931 O   0  0  0  0  0  0  0  0  0  0  0  0
    9.3181  -19.1276   15.6975 C   0  0  0  0  0  0  0  0  0  0  0  0
    6.7545  -11.5568   27.6180 C   0  0  0  0  0  0  0  0  0  0  0  0
    7.6055  -12.5817   26.8446 C   0  0  2  0  0  0  0  0  0  0  0  0
    7.0850  -12.6100   25.4639 C   0  0  0  0  0  0  0  0  0  0  0  0
    5.6279  -13.0951   25.5484 C   0  0  2  0  0  0  0  0  0  0  0  0
    7.7478  -13.4663   24.4629 N   0  0  0  0  0  0  0  0  0  0  0  0
    7.3380  -13.2983   23.0930 C   0  0  0  0  0  0  0  0  0  0  0  0
    7.9775  -14.8812   24.8595 O   0  0  0  0  0  0  0  0  0  0  0  0
    7.2276  -15.8167   24.4552 N   0  0  0  0  0  0  0  0  0  0  0  0
    9.0362  -15.2487   25.7053 C   0  0  1  0  0  0  0  0  0  0  0  0
    9.5992  -16.5815   25.7889 C   0  0  0  0  0  0  0  0  0  0  0  0
   10.6443  -16.8513   24.7823 C   0  0  0  0  0  0  0  0  0  0  0  0
   11.1492  -18.2277   24.9076 C   0  0  0  0  0  0  0  0  0  0  0  0
   10.6552  -19.1699   25.8062 N   0  0  0  0  0  0  0  0  0  0  0  0
   11.3319  -20.3258   25.6677 C   0  0  0  0  0  0  0  0  0  0  0  0
   12.2424  -20.1334   24.7010 N   0  0  0  0  0  0  0  0  0  0  0  0
   12.1240  -18.8739   24.2529 C   0  0  0  0  0  0  0  0  0  0  0  0
   10.1078  -16.8352   27.1528 O   0  0  0  0  0  0  0  0  0  0  0  0
   10.4829  -18.1534   27.4928 O   0  0  0  0  0  0  0  0  0  0  0  0
  1  2  1  0
  2  4  1  0
  2  3  2  0
  4  5  1  0
  5  6  1  0
  7  8  1  0
  7  6  1  0
  8 10  1  0
  8  9  1  6
 10 11  2  0
 12 13  1  0
 14 13  1  0
 14 16  1  0
 14 15  1  6
 16 18  1  0
 16 17  1  1
 17 10  1  0
 18 20  1  0
 19 18  2  0
 20 21  1  0
 21 22  1  1
 22 23  1  0
 23 24  2  0
 24 25  1  0
 26 25  1  0
 27 23  1  0
 27 26  2  0
 28 29  1  0
 28 21  1  0
 30 28  2  0
M  END
$$$$
