RIH.pdb
     RDKit          3D

 30 30  0  0  1  0  0  0  0  0999 V2000
   10.3272  -21.8844   16.9266 N   0  0  0  0  0  0  0  0  0  0  0  0
   11.7406  -22.0358   17.1116 C   0  0  0  0  0  0  0  0  0  0  0  0
   12.2898  -23.1475   16.8293 N   0  0  0  0  0  0  0  0  0  0  0  0
   12.4910  -20.9284   17.6082 N   0  0  0  0  0  0  0  0  0  0  0  0
   11.8433  -20.0047   18.4840 C   0  0  0  0  0  0  0  0  0  0  0  0
   10.4601  -20.2292   18.9002 C   0  0  0  0  0  0  0  0  0  0  0  0
    9.7631  -19.4424   19.9092 C   0  0  0  0  0  0  0  0  0  0  0  0
    8.8729  -18.3504   19.4460 C   0  0  2  0  0  0  0  0  0  0  0  0
    9.0723  -18.0772   18.0585 N   0  0  0  0  0  0  0  0  0  0  0  0
    9.2148  -17.0639   20.2051 C   0  0  0  0  0  0  0  0  0  0  0  0
   10.4030  -16.7377   20.2112 O   0  0  0  0  0  0  0  0  0  0  0  0
   13.2885  -23.3677   16.9173 C   0  0  0  0  0  0  0  0  0  0  0  0
    7.3973  -12.2761   19.1350 C   0  0  0  0  0  0  0  0  0  0  0  0
    8.2685  -13.4811   19.5373 C   0  0  2  0  0  0  0  0  0  0  0  0
    7.8721  -13.8523   20.9096 C   0  0  0  0  0  0  0  0  0  0  0  0
    8.2638  -12.6753   21.8188 C   0  0  2  0  0  0  0  0  0  0  0  0
    8.4535  -15.0601   21.5243 N   0  0  0  0  0  0  0  0  0  0  0  0
    8.2097  -16.3104   20.8534 C   0  0  0  0  0  0  0  0  0  0  0  0
    8.3791  -15.1415   23.0074 O   0  0  0  0  0  0  0  0  0  0  0  0
    7.2864  -14.9970   23.6288 N   0  0  0  0  0  0  0  0  0  0  0  0
    9.5188  -15.3793   23.7923 C   0  0  2  0  0  0  0  0  0  0  0  0
    9.5200  -15.4622   25.2391 C   0  0  0  0  0  0  0  0  0  0  0  0
    8.1817  -15.6706   25.8254 C   0  0  0  0  0  0  0  0  0  0  0  0
    7.5319  -14.3833   26.1184 C   0  0  0  0  0  0  0  0  0  0  0  0
    8.1401  -13.1401   25.9639 N   0  0  0  0  0  0  0  0  0  0  0  0
    7.2783  -12.1676   26.3172 C   0  0  0  0  0  0  0  0  0  0  0  0
    6.1394  -12.7704   26.6913 N   0  0  0  0  0  0  0  0  0  0  0  0
    6.3023  -14.0968   26.5682 C   0  0  0  0  0  0  0  0  0  0  0  0
   10.4580  -16.5116   25.6887 O   0  0  0  0  0  0  0  0  0  0  0  0
   10.6405  -16.6961   27.0767 O   0  0  0  0  0  0  0  0  0  0  0  0
  1  2  1  0
  2  4  1  0
  2  3  2  0
  4  5  1  0
  5  6  1  0
  7  8  1  0
  7  6  1  0
  8 10  1  0
  8  9  1  6
 10 11  2  0
 12 13  1  0
 14 13  1  0
 14 16  1  0
 14 15  1  1
 16 18  1  0
 16 17  1  1
 17 10  1  0
 18 20  1  0
 19 18  2  0
 20 21  1  0
 21 22  1  6
 22 23  1  0
 23 24  2  0
 24 25  1  0
 26 25  1  0
 27 23  1  0
 27 26  2  0
 28 29  1  0
 28 21  1  0
 30 28  2  0
M  END
$$$$
