RIH.pdb
     RDKit          3D

 30 30  0  0  1  0  0  0  0  0999 V2000
    7.0931  -19.1365   19.2105 N   0  0  0  0  0  0  0  0  0  0  0  0
    6.9774  -18.8333   17.8143 C   0  0  0  0  0  0  0  0  0  0  0  0
    6.3008  -19.6054   17.0637 N   0  0  0  0  0  0  0  0  0  0  0  0
    7.6273  -17.6684   17.3080 N   0  0  0  0  0  0  0  0  0  0  0  0
    7.3950  -16.4202   17.9621 C   0  0  0  0  0  0  0  0  0  0  0  0
    7.9171  -16.1843   19.3070 C   0  0  0  0  0  0  0  0  0  0  0  0
    7.0914  -15.9414   20.4827 C   0  0  0  0  0  0  0  0  0  0  0  0
    6.9478  -14.5424   20.9537 C   0  0  2  0  0  0  0  0  0  0  0  0
    7.5642  -13.6280   20.0465 N   0  0  0  0  0  0  0  0  0  0  0  0
    7.6665  -14.3860   22.2981 C   0  0  0  0  0  0  0  0  0  0  0  0
    8.8865  -14.2216   22.2445 O   0  0  0  0  0  0  0  0  0  0  0  0
    6.1898  -19.5153   16.0473 C   0  0  0  0  0  0  0  0  0  0  0  0
    5.5128  -11.6017   26.5124 C   0  0  0  0  0  0  0  0  0  0  0  0
    6.4622  -12.1056   25.4089 C   0  0  2  0  0  0  0  0  0  0  0  0
    6.8868  -13.4633   25.8014 C   0  0  0  0  0  0  0  0  0  0  0  0
    7.8643  -13.3004   26.9776 C   0  0  2  0  0  0  0  0  0  0  0  0
    7.5699  -14.3174   24.8122 N   0  0  0  0  0  0  0  0  0  0  0  0
    6.9518  -14.4307   23.5169 C   0  0  0  0  0  0  0  0  0  0  0  0
    8.1390  -15.5911   25.3276 O   0  0  0  0  0  0  0  0  0  0  0  0
    7.4023  -16.5168   25.7765 N   0  0  0  0  0  0  0  0  0  0  0  0
    9.5228  -15.8284   25.3450 C   0  0  1  0  0  0  0  0  0  0  0  0
   10.1475  -17.0203   25.8830 C   0  0  0  0  0  0  0  0  0  0  0  0
   11.5162  -17.2536   25.3824 C   0  0  0  0  0  0  0  0  0  0  0  0
   11.5042  -17.5413   23.9394 C   0  0  0  0  0  0  0  0  0  0  0  0
   10.4434  -18.1392   23.2636 N   0  0  0  0  0  0  0  0  0  0  0  0
   10.7497  -18.2609   21.9580 C   0  0  0  0  0  0  0  0  0  0  0  0
   11.9809  -17.7527   21.7953 N   0  0  0  0  0  0  0  0  0  0  0  0
   12.4230  -17.3247   22.9880 C   0  0  0  0  0  0  0  0  0  0  0  0
   10.1292  -16.9827   27.3600 O   0  0  0  0  0  0  0  0  0  0  0  0
   10.5578  -18.1294   28.0639 O   0  0  0  0  0  0  0  0  0  0  0  0
  1  2  1  0
  2  4  1  0
  2  3  2  0
  4  5  1  0
  5  6  1  0
  7  8  1  0
  7  6  1  0
  8 10  1  0
  8  9  1  6
 10 11  2  0
 12 13  1  0
 14 13  1  0
 14 16  1  0
 14 15  1  6
 16 18  1  0
 16 17  1  6
 17 10  1  0
 18 20  1  0
 19 18  2  0
 20 21  1  0
 21 22  1  1
 22 23  1  0
 23 24  2  0
 24 25  1  0
 26 25  1  0
 27 23  1  0
 27 26  2  0
 28 29  1  0
 28 21  1  0
 30 28  2  0
M  END
$$$$
