RIH.pdb
     RDKit          3D

 30 30  0  0  1  0  0  0  0  0999 V2000
    6.3046  -20.3847   13.5911 N   0  0  0  0  0  0  0  0  0  0  0  0
    5.4389  -19.3000   13.9499 C   0  0  0  0  0  0  0  0  0  0  0  0
    4.8408  -18.6518   13.0337 N   0  0  0  0  0  0  0  0  0  0  0  0
    5.2737  -18.9806   15.3306 N   0  0  0  0  0  0  0  0  0  0  0  0
    6.0967  -19.6490   16.2876 C   0  0  0  0  0  0  0  0  0  0  0  0
    7.5523  -19.5346   16.2158 C   0  0  0  0  0  0  0  0  0  0  0  0
    8.3744  -18.8289   17.1901 C   0  0  0  0  0  0  0  0  0  0  0  0
    8.8302  -17.4587   16.8519 C   0  0  2  0  0  0  0  0  0  0  0  0
    9.9652  -17.4928   15.9859 N   0  0  0  0  0  0  0  0  0  0  0  0
    9.2708  -16.7425   18.1330 C   0  0  0  0  0  0  0  0  0  0  0  0
   10.4702  -16.8114   18.4072 O   0  0  0  0  0  0  0  0  0  0  0  0
    4.2591  -17.8164   13.1658 C   0  0  0  0  0  0  0  0  0  0  0  0
    6.6830  -12.1061   20.1861 C   0  0  0  0  0  0  0  0  0  0  0  0
    7.6991  -13.0846   19.5672 C   0  0  2  0  0  0  0  0  0  0  0  0
    7.8485  -14.2010   20.5207 C   0  0  0  0  0  0  0  0  0  0  0  0
    8.4656  -13.6123   21.8007 C   0  0  2  0  0  0  0  0  0  0  0  0
    8.6882  -15.3553   20.1507 N   0  0  0  0  0  0  0  0  0  0  0  0
    8.3389  -16.0490   18.9385 C   0  0  0  0  0  0  0  0  0  0  0  0
    9.1014  -16.2494   21.2651 O   0  0  0  0  0  0  0  0  0  0  0  0
    8.2797  -17.0202   21.8408 N   0  0  0  0  0  0  0  0  0  0  0  0
   10.4238  -16.2799   21.7361 C   0  0  1  0  0  0  0  0  0  0  0  0
   10.8770  -17.0623   22.8687 C   0  0  0  0  0  0  0  0  0  0  0  0
   12.3088  -17.4161   22.8142 C   0  0  0  0  0  0  0  0  0  0  0  0
   12.5603  -18.4219   21.7700 C   0  0  0  0  0  0  0  0  0  0  0  0
   11.5654  -19.0551   21.0293 N   0  0  0  0  0  0  0  0  0  0  0  0
   12.1272  -19.9168   20.1604 C   0  0  0  0  0  0  0  0  0  0  0  0
   13.4552  -19.8412   20.3368 N   0  0  0  0  0  0  0  0  0  0  0  0
   13.7033  -18.9431   21.3027 C   0  0  0  0  0  0  0  0  0  0  0  0
   10.5578  -16.3637   24.1310 O   0  0  0  0  0  0  0  0  0  0  0  0
   10.4392  -17.1321   25.3097 O   0  0  0  0  0  0  0  0  0  0  0  0
  1  2  1  0
  2  4  1  0
  2  3  2  0
  4  5  1  0
  5  6  1  0
  7  8  1  0
  7  6  1  0
  8 10  1  0
  8  9  1  6
 10 11  2  0
 12 13  1  0
 14 13  1  0
 14 16  1  0
 14 15  1  1
 16 18  1  0
 16 17  1  6
 17 10  1  0
 18 20  1  0
 19 18  2  0
 20 21  1  0
 21 22  1  1
 22 23  1  0
 23 24  2  0
 24 25  1  0
 26 25  1  0
 27 23  1  0
 27 26  2  0
 28 29  1  0
 28 21  1  0
 30 28  2  0
M  END
$$$$
