RIH.pdb
     RDKit          3D

 30 30  0  0  1  0  0  0  0  0999 V2000
    6.6635  -18.7757   15.5530 N   0  0  0  0  0  0  0  0  0  0  0  0
    7.2111  -17.9645   16.6003 C   0  0  0  0  0  0  0  0  0  0  0  0
    8.4584  -18.0189   16.8423 N   0  0  0  0  0  0  0  0  0  0  0  0
    6.3353  -17.1164   17.3416 N   0  0  0  0  0  0  0  0  0  0  0  0
    6.8893  -16.3033   18.3769 C   0  0  0  0  0  0  0  0  0  0  0  0
    7.4977  -16.9214   19.5537 C   0  0  0  0  0  0  0  0  0  0  0  0
    7.2878  -16.4727   20.9240 C   0  0  0  0  0  0  0  0  0  0  0  0
    7.3487  -15.0158   21.1949 C   0  0  2  0  0  0  0  0  0  0  0  0
    8.1382  -14.3423   20.2138 N   0  0  0  0  0  0  0  0  0  0  0  0
    8.0285  -14.7819   22.5482 C   0  0  0  0  0  0  0  0  0  0  0  0
    9.2581  -14.8606   22.5579 O   0  0  0  0  0  0  0  0  0  0  0  0
    9.1657  -18.4895   16.2662 C   0  0  0  0  0  0  0  0  0  0  0  0
    5.7456  -11.5494   26.5150 C   0  0  0  0  0  0  0  0  0  0  0  0
    6.7368  -12.1054   25.4751 C   0  0  2  0  0  0  0  0  0  0  0  0
    7.1451  -13.4417   25.9499 C   0  0  0  0  0  0  0  0  0  0  0  0
    8.1053  -13.2193   27.1307 C   0  0  2  0  0  0  0  0  0  0  0  0
    7.8374  -14.3544   25.0212 N   0  0  0  0  0  0  0  0  0  0  0  0
    7.2697  -14.4935   23.7056 C   0  0  0  0  0  0  0  0  0  0  0  0
    8.3386  -15.6272   25.6047 O   0  0  0  0  0  0  0  0  0  0  0  0
    7.5551  -16.4830   26.1095 N   0  0  0  0  0  0  0  0  0  0  0  0
    9.7070  -15.9410   25.6276 C   0  0  1  0  0  0  0  0  0  0  0  0
   10.2714  -17.1199   26.2537 C   0  0  0  0  0  0  0  0  0  0  0  0
   11.6115  -17.4785   25.7501 C   0  0  0  0  0  0  0  0  0  0  0  0
   11.5581  -17.8278   24.3217 C   0  0  0  0  0  0  0  0  0  0  0  0
   10.4114  -18.2558   23.6572 N   0  0  0  0  0  0  0  0  0  0  0  0
   10.7001  -18.4929   22.3635 C   0  0  0  0  0  0  0  0  0  0  0  0
   12.0041  -18.2238   22.1973 N   0  0  0  0  0  0  0  0  0  0  0  0
   12.5077  -17.8263   23.3760 C   0  0  0  0  0  0  0  0  0  0  0  0
   10.2899  -16.9574   27.7223 O   0  0  0  0  0  0  0  0  0  0  0  0
   10.6416  -18.0721   28.5145 O   0  0  0  0  0  0  0  0  0  0  0  0
  1  2  1  0
  2  4  1  0
  2  3  2  0
  4  5  1  0
  5  6  1  0
  7  8  1  0
  7  6  1  0
  8 10  1  0
  8  9  1  6
 10 11  2  0
 12 13  1  0
 14 13  1  0
 14 16  1  0
 14 15  1  6
 16 18  1  0
 16 17  1  6
 17 10  1  0
 18 20  1  0
 19 18  2  0
 20 21  1  0
 21 22  1  1
 22 23  1  0
 23 24  2  0
 24 25  1  0
 26 25  1  0
 27 23  1  0
 27 26  2  0
 28 29  1  0
 28 21  1  0
 30 28  2  0
M  END
$$$$
