RIH.pdb
     RDKit          3D

 30 30  0  0  1  0  0  0  0  0999 V2000
    7.4981  -13.0346   15.7469 N   0  0  0  0  0  0  0  0  0  0  0  0
    8.3613  -14.1426   15.4611 C   0  0  0  0  0  0  0  0  0  0  0  0
    8.9590  -14.1929   14.3397 N   0  0  0  0  0  0  0  0  0  0  0  0
    8.5245  -15.1591   16.4490 N   0  0  0  0  0  0  0  0  0  0  0  0
    7.6726  -15.1381   17.5952 C   0  0  0  0  0  0  0  0  0  0  0  0
    7.8613  -14.1286   18.6355 C   0  0  0  0  0  0  0  0  0  0  0  0
    8.5333  -14.3674   19.9060 C   0  0  0  0  0  0  0  0  0  0  0  0
    7.7929  -15.1105   20.9545 C   0  0  2  0  0  0  0  0  0  0  0  0
    6.4088  -14.7589   20.9546 N   0  0  0  0  0  0  0  0  0  0  0  0
    8.3477  -14.7288   22.3310 C   0  0  0  0  0  0  0  0  0  0  0  0
    9.4811  -14.2455   22.3436 O   0  0  0  0  0  0  0  0  0  0  0  0
    9.5996  -14.9324   14.0291 C   0  0  0  0  0  0  0  0  0  0  0  0
    5.8510  -11.7145   25.8762 C   0  0  0  0  0  0  0  0  0  0  0  0
    6.9443  -12.3476   24.9947 C   0  0  2  0  0  0  0  0  0  0  0  0
    7.2859  -13.6454   25.6086 C   0  0  0  0  0  0  0  0  0  0  0  0
    8.1173  -13.3372   26.8654 C   0  0  2  0  0  0  0  0  0  0  0  0
    8.0635  -14.6269   24.8298 N   0  0  0  0  0  0  0  0  0  0  0  0
    7.5863  -14.9279   23.5053 C   0  0  0  0  0  0  0  0  0  0  0  0
    8.5637  -15.8102   25.5791 O   0  0  0  0  0  0  0  0  0  0  0  0
    7.7766  -16.6129   26.1597 N   0  0  0  0  0  0  0  0  0  0  0  0
    9.9350  -16.0935   25.6825 C   0  0  1  0  0  0  0  0  0  0  0  0
   10.4857  -17.2895   26.2880 C   0  0  0  0  0  0  0  0  0  0  0  0
   11.8459  -17.6218   25.8213 C   0  0  0  0  0  0  0  0  0  0  0  0
   12.3281  -18.8605   26.4524 C   0  0  0  0  0  0  0  0  0  0  0  0
   11.5493  -19.9973   26.6543 N   0  0  0  0  0  0  0  0  0  0  0  0
   12.2873  -20.9507   27.2540 C   0  0  0  0  0  0  0  0  0  0  0  0
   13.5150  -20.4402   27.4348 N   0  0  0  0  0  0  0  0  0  0  0  0
   13.5282  -19.1884   26.9512 C   0  0  0  0  0  0  0  0  0  0  0  0
   10.4501  -17.1777   27.7609 O   0  0  0  0  0  0  0  0  0  0  0  0
   10.2367  -18.3515   28.5163 O   0  0  0  0  0  0  0  0  0  0  0  0
  1  2  1  0
  2  4  1  0
  2  3  2  0
  4  5  1  0
  5  6  1  0
  7  8  1  0
  7  6  1  0
  8 10  1  0
  8  9  1  1
 10 11  2  0
 12 13  1  0
 14 13  1  0
 14 16  1  0
 14 15  1  6
 16 18  1  0
 16 17  1  6
 17 10  1  0
 18 20  1  0
 19 18  2  0
 20 21  1  0
 21 22  1  1
 22 23  1  0
 23 24  2  0
 24 25  1  0
 26 25  1  0
 27 23  1  0
 27 26  2  0
 28 29  1  0
 28 21  1  0
 30 28  2  0
M  END
$$$$
