RIH.pdb
     RDKit          3D

 30 30  0  0  1  0  0  0  0  0999 V2000
    9.3762  -21.2171   13.9537 N   0  0  0  0  0  0  0  0  0  0  0  0
   10.7792  -21.4603   13.7892 C   0  0  0  0  0  0  0  0  0  0  0  0
   11.1876  -22.0706   12.7509 N   0  0  0  0  0  0  0  0  0  0  0  0
   11.6784  -21.0067   14.7999 N   0  0  0  0  0  0  0  0  0  0  0  0
   11.1613  -20.2015   15.8601 C   0  0  0  0  0  0  0  0  0  0  0  0
    9.7461  -19.8357   15.8852 C   0  0  0  0  0  0  0  0  0  0  0  0
    9.1100  -19.0689   16.9483 C   0  0  0  0  0  0  0  0  0  0  0  0
    8.8484  -17.6294   16.7055 C   0  0  2  0  0  0  0  0  0  0  0  0
    9.5824  -17.1562   15.5756 N   0  0  0  0  0  0  0  0  0  0  0  0
    9.3250  -16.8185   17.9154 C   0  0  0  0  0  0  0  0  0  0  0  0
   10.5444  -16.6858   18.0326 O   0  0  0  0  0  0  0  0  0  0  0  0
   12.1637  -22.2959   12.5271 C   0  0  0  0  0  0  0  0  0  0  0  0
    7.9716  -11.9040   20.9751 C   0  0  0  0  0  0  0  0  0  0  0  0
    8.7383  -13.2304   21.1352 C   0  0  2  0  0  0  0  0  0  0  0  0
    8.1827  -14.1651   20.1375 C   0  0  0  0  0  0  0  0  0  0  0  0
    6.7096  -14.3942   20.5154 C   0  0  2  0  0  0  0  0  0  0  0  0
    8.7846  -15.5035   19.9923 N   0  0  0  0  0  0  0  0  0  0  0  0
    8.4020  -16.2638   18.8312 C   0  0  0  0  0  0  0  0  0  0  0  0
    8.8977  -16.3099   21.2368 O   0  0  0  0  0  0  0  0  0  0  0  0
    8.2677  -17.3971   21.3860 N   0  0  0  0  0  0  0  0  0  0  0  0
    9.7067  -15.9030   22.3098 C   0  0  1  0  0  0  0  0  0  0  0  0
   10.6104  -16.7726   23.0361 C   0  0  0  0  0  0  0  0  0  0  0  0
   11.6883  -17.3412   22.2037 C   0  0  0  0  0  0  0  0  0  0  0  0
   12.4548  -18.3476   22.9551 C   0  0  0  0  0  0  0  0  0  0  0  0
   11.9622  -19.0621   24.0443 N   0  0  0  0  0  0  0  0  0  0  0  0
   12.9117  -19.8994   24.5031 C   0  0  0  0  0  0  0  0  0  0  0  0
   13.9929  -19.7288   23.7270 N   0  0  0  0  0  0  0  0  0  0  0  0
   13.7082  -18.7976   22.8035 C   0  0  0  0  0  0  0  0  0  0  0  0
   11.1702  -16.0634   24.2053 O   0  0  0  0  0  0  0  0  0  0  0  0
   11.3914  -16.7980   25.3908 O   0  0  0  0  0  0  0  0  0  0  0  0
  1  2  1  0
  2  4  1  0
  2  3  2  0
  4  5  1  0
  5  6  1  0
  7  8  1  0
  7  6  1  0
  8 10  1  0
  8  9  1  6
 10 11  2  0
 12 13  1  0
 14 13  1  0
 14 16  1  0
 14 15  1  6
 16 18  1  0
 16 17  1  1
 17 10  1  0
 18 20  1  0
 19 18  2  0
 20 21  1  0
 21 22  1  1
 22 23  1  0
 23 24  2  0
 24 25  1  0
 26 25  1  0
 27 23  1  0
 27 26  2  0
 28 29  1  0
 28 21  1  0
 30 28  2  0
M  END
$$$$
