HEV.pdb
     RDKit          3D

 27 27  0  0  1  0  0  0  0  0999 V2000
   26.2503  -16.4757  -18.6968 N   0  0  0  0  0  0  0  0  0  0  0  0
   26.8823  -17.0849  -17.5442 C   0  0  1  0  0  0  0  0  0  0  0  0
   27.8791  -16.0855  -17.0063 C   0  0  0  0  0  0  0  0  0  0  0  0
   29.0976  -16.1791  -17.8555 C   0  0  0  0  0  0  0  0  0  0  0  0
   29.2455  -17.0546  -18.9051 C   0  0  0  0  0  0  0  0  0  0  0  0
   30.4696  -16.8883  -19.4730 N   0  0  0  0  0  0  0  0  0  0  0  0
   31.0676  -15.9079  -18.7656 C   0  0  0  0  0  0  0  0  0  0  0  0
   30.2422  -15.4815  -17.7927 N   0  0  0  0  0  0  0  0  0  0  0  0
   25.8779  -17.4795  -16.5323 C   0  0  0  0  0  0  0  0  0  0  0  0
   25.2643  -16.5550  -15.9547 O   0  0  0  0  0  0  0  0  0  0  0  0
   25.5748  -18.7962  -16.1852 N   0  0  0  0  0  0  0  0  0  0  0  0
   24.6731  -19.2387  -15.1611 C   0  0  1  0  0  0  0  0  0  0  0  0
   23.4795  -19.9844  -15.6280 C   0  0  0  0  0  0  0  0  0  0  0  0
   22.5125  -20.4214  -14.5863 C   0  0  0  0  0  0  0  0  0  0  0  0
   21.2689  -19.6939  -14.4835 C   0  0  0  0  0  0  0  0  0  0  0  0
   20.7132  -19.3276  -15.5558 O   0  0  0  0  0  0  0  0  0  0  0  0
   25.4663  -20.1380  -14.2692 C   0  0  0  0  0  0  0  0  0  0  0  0
   26.2408  -21.0186  -14.6794 O   0  0  0  0  0  0  0  0  0  0  0  0
   20.5824  -19.3323  -13.3426 O   0  0  0  0  0  0  0  0  0  0  0  0
   24.2479  -20.5468  -10.1596 C   0  0  0  0  0  0  0  0  0  0  0  0
   25.6910  -20.2875  -10.5311 C   0  0  1  0  0  0  0  0  0  0  0  0
   26.5591  -20.9528   -9.4898 C   0  0  0  0  0  0  0  0  0  0  0  0
   25.9883  -20.8167  -11.9252 C   0  0  2  0  0  0  0  0  0  0  0  0
   25.3151  -19.9631  -12.8675 N   0  0  0  0  0  0  0  0  0  0  0  0
   25.5777  -22.2362  -12.0608 C   0  0  0  0  0  0  0  0  0  0  0  0
   24.3166  -22.5585  -12.5409 O   0  0  0  0  0  0  0  0  0  0  0  0
   26.3500  -23.1662  -11.7489 O   0  0  0  0  0  0  0  0  0  0  0  0
  2  3  1  0
  2  1  1  6
  4  3  1  0
  4  8  1  0
  5  6  1  0
  5  4  2  0
  6  7  1  0
  7  8  2  0
  9 11  1  0
  9  2  1  0
 10  9  2  0
 12 11  1  0
 12 13  1  6
 13 14  1  0
 14 15  1  0
 15 19  1  0
 16 15  2  0
 17 12  1  0
 18 17  2  0
 21 22  1  1
 21 20  1  0
 23 24  1  6
 23 21  1  0
 24 17  1  0
 25 23  1  0
 26 25  1  0
 27 25  2  0
M  END
$$$$
