HEV.pdb
     RDKit          3D

 27 27  0  0  1  0  0  0  0  0999 V2000
   17.2161  -13.8879  -16.5750 N   0  0  0  0  0  0  0  0  0  0  0  0
   16.9084  -12.5454  -16.1257 C   0  0  1  0  0  0  0  0  0  0  0  0
   16.5140  -12.6449  -14.6710 C   0  0  0  0  0  0  0  0  0  0  0  0
   15.1935  -13.3290  -14.6191 C   0  0  0  0  0  0  0  0  0  0  0  0
   14.0036  -12.7462  -14.9865 C   0  0  0  0  0  0  0  0  0  0  0  0
   12.9871  -13.6340  -14.8218 N   0  0  0  0  0  0  0  0  0  0  0  0
   13.5616  -14.7604  -14.3525 C   0  0  0  0  0  0  0  0  0  0  0  0
   14.8886  -14.5767  -14.2307 N   0  0  0  0  0  0  0  0  0  0  0  0
   18.0562  -11.6364  -16.3375 C   0  0  0  0  0  0  0  0  0  0  0  0
   19.1680  -12.0219  -15.9132 O   0  0  0  0  0  0  0  0  0  0  0  0
   17.9807  -10.3955  -16.9704 N   0  0  0  0  0  0  0  0  0  0  0  0
   19.0633   -9.4984  -17.2546 C   0  0  1  0  0  0  0  0  0  0  0  0
   18.7956   -8.4678  -18.2866 C   0  0  0  0  0  0  0  0  0  0  0  0
   19.9352   -7.5938  -18.6724 C   0  0  0  0  0  0  0  0  0  0  0  0
   19.6836   -6.5642  -19.6536 C   0  0  0  0  0  0  0  0  0  0  0  0
   18.7958   -5.7069  -19.3900 O   0  0  0  0  0  0  0  0  0  0  0  0
   19.3746   -8.8024  -15.9693 C   0  0  0  0  0  0  0  0  0  0  0  0
   18.5171   -8.4570  -15.1392 O   0  0  0  0  0  0  0  0  0  0  0  0
   20.2967   -6.3809  -20.8760 O   0  0  0  0  0  0  0  0  0  0  0  0
   21.8032   -9.9937  -13.4420 C   0  0  0  0  0  0  0  0  0  0  0  0
   22.2786   -8.6225  -13.8684 C   0  0  1  0  0  0  0  0  0  0  0  0
   23.4212   -8.8142  -14.8371 C   0  0  0  0  0  0  0  0  0  0  0  0
   21.1414   -7.8333  -14.4973 C   0  0  2  0  0  0  0  0  0  0  0  0
   20.7403   -8.5254  -15.6930 N   0  0  0  0  0  0  0  0  0  0  0  0
   21.5452   -6.4313  -14.7690 C   0  0  0  0  0  0  0  0  0  0  0  0
   21.6679   -5.9774  -16.0742 O   0  0  0  0  0  0  0  0  0  0  0  0
   21.7820   -5.6338  -13.8381 O   0  0  0  0  0  0  0  0  0  0  0  0
  2  3  1  0
  2  1  1  1
  4  3  1  0
  4  8  1  0
  5  6  1  0
  5  4  2  0
  6  7  1  0
  7  8  2  0
  9 11  1  0
  9  2  1  0
 10  9  2  0
 12 11  1  0
 12 13  1  6
 13 14  1  0
 14 15  1  0
 15 19  1  0
 16 15  2  0
 17 12  1  0
 18 17  2  0
 21 22  1  6
 21 20  1  0
 23 24  1  6
 23 21  1  0
 24 17  1  0
 25 23  1  0
 26 25  1  0
 27 25  2  0
M  END
$$$$
