HEV.pdb
     RDKit          3D

 27 27  0  0  1  0  0  0  0  0999 V2000
   14.1610  -10.0791  -12.2106 N   0  0  0  0  0  0  0  0  0  0  0  0
   15.2876   -9.9370  -11.3108 C   0  0  1  0  0  0  0  0  0  0  0  0
   16.1875  -11.1289  -11.5367 C   0  0  0  0  0  0  0  0  0  0  0  0
   15.4518  -12.3319  -11.0613 C   0  0  0  0  0  0  0  0  0  0  0  0
   14.7819  -13.2063  -11.8843 C   0  0  0  0  0  0  0  0  0  0  0  0
   14.2176  -14.1954  -11.1414 N   0  0  0  0  0  0  0  0  0  0  0  0
   14.5460  -13.9209   -9.8623 C   0  0  0  0  0  0  0  0  0  0  0  0
   15.2883  -12.8001   -9.8144 N   0  0  0  0  0  0  0  0  0  0  0  0
   15.9874   -8.6526  -11.5320 C   0  0  0  0  0  0  0  0  0  0  0  0
   16.0518   -8.2399  -12.7111 O   0  0  0  0  0  0  0  0  0  0  0  0
   16.5717   -7.8827  -10.5259 N   0  0  0  0  0  0  0  0  0  0  0  0
   17.0711   -6.5427  -10.6374 C   0  0  1  0  0  0  0  0  0  0  0  0
   16.7003   -5.6204   -9.5370 C   0  0  0  0  0  0  0  0  0  0  0  0
   15.2736   -5.2084   -9.4600 C   0  0  0  0  0  0  0  0  0  0  0  0
   14.9095   -4.2527   -8.4400 C   0  0  0  0  0  0  0  0  0  0  0  0
   14.8979   -3.0314   -8.7577 O   0  0  0  0  0  0  0  0  0  0  0  0
   18.5610   -6.6557  -10.6699 C   0  0  0  0  0  0  0  0  0  0  0  0
   19.2530   -7.0165   -9.7032 O   0  0  0  0  0  0  0  0  0  0  0  0
   14.5620   -4.4953   -7.1269 O   0  0  0  0  0  0  0  0  0  0  0  0
   20.3056   -8.8547  -12.8230 C   0  0  0  0  0  0  0  0  0  0  0  0
   20.8397   -7.4893  -13.1952 C   0  0  1  0  0  0  0  0  0  0  0  0
   20.1267   -7.0446  -14.4499 C   0  0  0  0  0  0  0  0  0  0  0  0
   20.6303   -6.5039  -12.0564 C   0  0  2  0  0  0  0  0  0  0  0  0
   19.2124   -6.3272  -11.8889 N   0  0  0  0  0  0  0  0  0  0  0  0
   21.3286   -5.2212  -12.3195 C   0  0  0  0  0  0  0  0  0  0  0  0
   20.6041   -4.0785  -12.6261 O   0  0  0  0  0  0  0  0  0  0  0  0
   22.5736   -5.1402  -12.2717 O   0  0  0  0  0  0  0  0  0  0  0  0
  2  3  1  0
  2  1  1  6
  4  3  1  0
  4  8  1  0
  5  6  1  0
  5  4  2  0
  6  7  1  0
  7  8  2  0
  9 11  1  0
  9  2  1  0
 10  9  2  0
 12 11  1  0
 12 13  1  1
 13 14  1  0
 14 15  1  0
 15 19  1  0
 16 15  2  0
 17 12  1  0
 18 17  2  0
 21 22  1  6
 21 20  1  0
 23 24  1  6
 23 21  1  0
 24 17  1  0
 25 23  1  0
 26 25  1  0
 27 25  2  0
M  END
$$$$
