HEV.pdb
     RDKit          3D

 27 27  0  0  1  0  0  0  0  0999 V2000
   14.4570  -17.5329    3.8802 N   0  0  0  0  0  0  0  0  0  0  0  0
   15.6596  -18.2330    4.2837 C   0  0  1  0  0  0  0  0  0  0  0  0
   16.5513  -18.3182    3.0675 C   0  0  0  0  0  0  0  0  0  0  0  0
   16.1408  -19.5286    2.3052 C   0  0  0  0  0  0  0  0  0  0  0  0
   15.2139  -20.4440    2.7447 C   0  0  0  0  0  0  0  0  0  0  0  0
   15.0659  -21.4285    1.8186 N   0  0  0  0  0  0  0  0  0  0  0  0
   15.9060  -21.1098    0.8128 C   0  0  0  0  0  0  0  0  0  0  0  0
   16.5525  -19.9671    1.1056 N   0  0  0  0  0  0  0  0  0  0  0  0
   16.3183  -17.5498    5.4186 C   0  0  0  0  0  0  0  0  0  0  0  0
   16.2587  -16.3004    5.4377 O   0  0  0  0  0  0  0  0  0  0  0  0
   16.9917  -18.1986    6.4539 N   0  0  0  0  0  0  0  0  0  0  0  0
   17.5506  -17.6035    7.6333 C   0  0  1  0  0  0  0  0  0  0  0  0
   17.1273  -18.2015    8.9225 C   0  0  0  0  0  0  0  0  0  0  0  0
   15.7295  -17.9385    9.3564 C   0  0  0  0  0  0  0  0  0  0  0  0
   15.2864  -18.5519   10.5868 C   0  0  0  0  0  0  0  0  0  0  0  0
   16.1184  -19.2544   11.2247 O   0  0  0  0  0  0  0  0  0  0  0  0
   19.0325  -17.7545    7.5128 C   0  0  0  0  0  0  0  0  0  0  0  0
   19.5898  -18.6075    6.8018 O   0  0  0  0  0  0  0  0  0  0  0  0
   14.0433  -18.4750   11.1804 O   0  0  0  0  0  0  0  0  0  0  0  0
   21.1691  -14.4051    7.7273 C   0  0  0  0  0  0  0  0  0  0  0  0
   21.7743  -15.4941    8.5851 C   0  0  1  0  0  0  0  0  0  0  0  0
   21.4048  -15.2053   10.0206 C   0  0  0  0  0  0  0  0  0  0  0  0
   21.2752  -16.8613    8.1454 C   0  0  2  0  0  0  0  0  0  0  0  0
   19.8414  -16.8599    8.2635 N   0  0  0  0  0  0  0  0  0  0  0  0
   21.9029  -17.9449    8.9417 C   0  0  0  0  0  0  0  0  0  0  0  0
   23.1833  -18.3852    8.6398 O   0  0  0  0  0  0  0  0  0  0  0  0
   21.2993  -18.4815    9.8938 O   0  0  0  0  0  0  0  0  0  0  0  0
  2  3  1  0
  2  1  1  6
  4  3  1  0
  4  8  1  0
  5  6  1  0
  5  4  2  0
  6  7  1  0
  7  8  2  0
  9 11  1  0
  9  2  1  0
 10  9  2  0
 12 11  1  0
 12 13  1  1
 13 14  1  0
 14 15  1  0
 15 19  1  0
 16 15  2  0
 17 12  1  0
 18 17  2  0
 21 22  1  1
 21 20  1  0
 23 24  1  1
 23 21  1  0
 24 17  1  0
 25 23  1  0
 26 25  1  0
 27 25  2  0
M  END
$$$$
