HEV.pdb
     RDKit          3D

 27 27  0  0  1  0  0  0  0  0999 V2000
   25.7499  -19.9903  -16.9575 N   0  0  0  0  0  0  0  0  0  0  0  0
   26.4917  -20.3614  -15.7696 C   0  0  1  0  0  0  0  0  0  0  0  0
   27.8882  -19.8083  -15.9292 C   0  0  0  0  0  0  0  0  0  0  0  0
   28.5570  -20.6033  -16.9946 C   0  0  0  0  0  0  0  0  0  0  0  0
   28.2240  -21.8967  -17.3212 C   0  0  0  0  0  0  0  0  0  0  0  0
   29.0207  -22.3348  -18.3320 N   0  0  0  0  0  0  0  0  0  0  0  0
   29.8409  -21.3038  -18.6207 C   0  0  0  0  0  0  0  0  0  0  0  0
   29.5618  -20.2624  -17.8161 N   0  0  0  0  0  0  0  0  0  0  0  0
   25.8242  -19.8624  -14.5473 C   0  0  0  0  0  0  0  0  0  0  0  0
   25.8599  -18.6281  -14.3477 O   0  0  0  0  0  0  0  0  0  0  0  0
   25.1672  -20.6671  -13.6161 N   0  0  0  0  0  0  0  0  0  0  0  0
   24.4897  -20.2416  -12.4256 C   0  0  1  0  0  0  0  0  0  0  0  0
   23.0348  -20.5236  -12.3733 C   0  0  0  0  0  0  0  0  0  0  0  0
   22.2823  -20.4023  -13.6501 C   0  0  0  0  0  0  0  0  0  0  0  0
   20.8501  -20.5836  -13.6000 C   0  0  0  0  0  0  0  0  0  0  0  0
   20.4141  -21.7249  -13.2836 O   0  0  0  0  0  0  0  0  0  0  0  0
   25.1462  -20.9630  -11.2933 C   0  0  0  0  0  0  0  0  0  0  0  0
   25.3273  -22.1918  -11.2624 O   0  0  0  0  0  0  0  0  0  0  0  0
   19.8620  -19.6557  -13.8574 O   0  0  0  0  0  0  0  0  0  0  0  0
   26.7064  -20.2961   -6.6320 C   0  0  0  0  0  0  0  0  0  0  0  0
   26.4131  -19.7186   -7.9989 C   0  0  1  0  0  0  0  0  0  0  0  0
   27.7275  -19.2916   -8.6078 C   0  0  0  0  0  0  0  0  0  0  0  0
   25.7013  -20.7410   -8.8705 C   0  0  2  0  0  0  0  0  0  0  0  0
   25.5856  -20.1819  -10.1910 N   0  0  0  0  0  0  0  0  0  0  0  0
   24.3820  -21.1095   -8.2995 C   0  0  0  0  0  0  0  0  0  0  0  0
   23.2346  -20.4371   -8.6942 O   0  0  0  0  0  0  0  0  0  0  0  0
   24.2740  -22.0252   -7.4578 O   0  0  0  0  0  0  0  0  0  0  0  0
  2  3  1  0
  2  1  1  6
  4  3  1  0
  4  8  1  0
  5  6  1  0
  5  4  2  0
  6  7  1  0
  7  8  2  0
  9 11  1  0
  9  2  1  0
 10  9  2  0
 12 11  1  0
 12 13  1  6
 13 14  1  0
 14 15  1  0
 15 19  1  0
 16 15  2  0
 17 12  1  0
 18 17  2  0
 21 22  1  6
 21 20  1  0
 23 24  1  6
 23 21  1  0
 24 17  1  0
 25 23  1  0
 26 25  1  0
 27 25  2  0
M  END
$$$$
