HEV.pdb
     RDKit          3D

 27 27  0  0  1  0  0  0  0  0999 V2000
   16.2341  -26.0237   -8.3154 N   0  0  0  0  0  0  0  0  0  0  0  0
   17.3500  -25.9476   -7.3945 C   0  0  1  0  0  0  0  0  0  0  0  0
   17.6865  -24.4847   -7.2268 C   0  0  0  0  0  0  0  0  0  0  0  0
   18.2395  -24.0091   -8.5239 C   0  0  0  0  0  0  0  0  0  0  0  0
   19.3308  -24.5626   -9.1509 C   0  0  0  0  0  0  0  0  0  0  0  0
   19.5778  -23.9006  -10.3125 N   0  0  0  0  0  0  0  0  0  0  0  0
   18.6329  -22.9414  -10.3916 C   0  0  0  0  0  0  0  0  0  0  0  0
   17.8281  -23.0068   -9.3157 N   0  0  0  0  0  0  0  0  0  0  0  0
   17.0247  -26.6021   -6.1082 C   0  0  0  0  0  0  0  0  0  0  0  0
   15.9695  -26.2411   -5.5415 O   0  0  0  0  0  0  0  0  0  0  0  0
   17.8065  -27.5813   -5.4950 N   0  0  0  0  0  0  0  0  0  0  0  0
   17.4866  -28.3371   -4.3186 C   0  0  1  0  0  0  0  0  0  0  0  0
   18.2456  -29.5974   -4.1330 C   0  0  0  0  0  0  0  0  0  0  0  0
   17.8715  -30.4393   -2.9657 C   0  0  0  0  0  0  0  0  0  0  0  0
   18.5527  -31.7034   -2.8096 C   0  0  0  0  0  0  0  0  0  0  0  0
   19.4448  -31.9970   -3.6524 O   0  0  0  0  0  0  0  0  0  0  0  0
   17.7768  -27.4419   -3.1577 C   0  0  0  0  0  0  0  0  0  0  0  0
   18.7901  -26.7290   -3.0646 O   0  0  0  0  0  0  0  0  0  0  0  0
   18.3586  -32.6642   -1.8385 O   0  0  0  0  0  0  0  0  0  0  0  0
   14.5978  -26.4000   -1.4547 C   0  0  0  0  0  0  0  0  0  0  0  0
   15.6558  -26.2359   -0.3862 C   0  0  1  0  0  0  0  0  0  0  0  0
   15.2668  -27.1100    0.7822 C   0  0  0  0  0  0  0  0  0  0  0  0
   17.0266  -26.6082   -0.9284 C   0  0  2  0  0  0  0  0  0  0  0  0
   16.8258  -27.4147   -2.1027 N   0  0  0  0  0  0  0  0  0  0  0  0
   17.8405  -27.3048    0.0985 C   0  0  0  0  0  0  0  0  0  0  0  0
   18.3196  -26.6129    1.2013 O   0  0  0  0  0  0  0  0  0  0  0  0
   18.1111  -28.5193   -0.0043 O   0  0  0  0  0  0  0  0  0  0  0  0
  2  3  1  0
  2  1  1  6
  4  3  1  0
  4  8  1  0
  5  6  1  0
  5  4  2  0
  6  7  1  0
  7  8  2  0
  9 11  1  0
  9  2  1  0
 10  9  2  0
 12 11  1  0
 12 13  1  1
 13 14  1  0
 14 15  1  0
 15 19  1  0
 16 15  2  0
 17 12  1  0
 18 17  2  0
 21 22  1  1
 21 20  1  0
 23 24  1  6
 23 21  1  0
 24 17  1  0
 25 23  1  0
 26 25  1  0
 27 25  2  0
M  END
$$$$
