HEV.pdb
     RDKit          3D

 27 27  0  0  1  0  0  0  0  0999 V2000
   18.9871  -13.3467  -17.7765 N   0  0  0  0  0  0  0  0  0  0  0  0
   18.4248  -12.4606  -16.7776 C   0  0  1  0  0  0  0  0  0  0  0  0
   18.7362  -13.0617  -15.4273 C   0  0  0  0  0  0  0  0  0  0  0  0
   17.8553  -14.2494  -15.2609 C   0  0  0  0  0  0  0  0  0  0  0  0
   18.2686  -15.5502  -15.4262 C   0  0  0  0  0  0  0  0  0  0  0  0
   17.2269  -16.3951  -15.2031 N   0  0  0  0  0  0  0  0  0  0  0  0
   16.1767  -15.6045  -14.9011 C   0  0  0  0  0  0  0  0  0  0  0  0
   16.5549  -14.3139  -14.9359 N   0  0  0  0  0  0  0  0  0  0  0  0
   18.9597  -11.0888  -16.9207 C   0  0  0  0  0  0  0  0  0  0  0  0
   20.1831  -10.9812  -17.1585 O   0  0  0  0  0  0  0  0  0  0  0  0
   18.1998   -9.9242  -16.8094 N   0  0  0  0  0  0  0  0  0  0  0  0
   18.6258   -8.5806  -17.0757 C   0  0  1  0  0  0  0  0  0  0  0  0
   17.6285   -7.7047  -17.7369 C   0  0  0  0  0  0  0  0  0  0  0  0
   17.2690   -8.0390  -19.1406 C   0  0  0  0  0  0  0  0  0  0  0  0
   16.0988   -7.4025  -19.6990 C   0  0  0  0  0  0  0  0  0  0  0  0
   15.5396   -6.5004  -19.0162 O   0  0  0  0  0  0  0  0  0  0  0  0
   18.9665   -7.9821  -15.7494 C   0  0  0  0  0  0  0  0  0  0  0  0
   18.3514   -8.2244  -14.6976 O   0  0  0  0  0  0  0  0  0  0  0  0
   15.4881   -7.6500  -20.9112 O   0  0  0  0  0  0  0  0  0  0  0  0
   22.3498   -5.4562  -15.7807 C   0  0  0  0  0  0  0  0  0  0  0  0
   21.9754   -6.2413  -14.5432 C   0  0  1  0  0  0  0  0  0  0  0  0
   22.4809   -5.4753  -13.3439 C   0  0  0  0  0  0  0  0  0  0  0  0
   20.4709   -6.4507  -14.4769 C   0  0  2  0  0  0  0  0  0  0  0  0
   20.0649   -7.0821  -15.7042 N   0  0  0  0  0  0  0  0  0  0  0  0
   19.7591   -5.1699  -14.2425 C   0  0  0  0  0  0  0  0  0  0  0  0
   19.1021   -4.5319  -15.2845 O   0  0  0  0  0  0  0  0  0  0  0  0
   19.7347   -4.6403  -13.1121 O   0  0  0  0  0  0  0  0  0  0  0  0
  2  3  1  0
  2  1  1  6
  4  3  1  0
  4  8  1  0
  5  6  1  0
  5  4  2  0
  6  7  1  0
  7  8  2  0
  9 11  1  0
  9  2  1  0
 10  9  2  0
 12 11  1  0
 12 13  1  1
 13 14  1  0
 14 15  1  0
 15 19  1  0
 16 15  2  0
 17 12  1  0
 18 17  2  0
 21 22  1  1
 21 20  1  0
 23 24  1  6
 23 21  1  0
 24 17  1  0
 25 23  1  0
 26 25  1  0
 27 25  2  0
M  END
$$$$
