HEV.pdb
     RDKit          3D

 27 27  0  0  1  0  0  0  0  0999 V2000
   17.5019  -12.4246  -17.5124 N   0  0  0  0  0  0  0  0  0  0  0  0
   18.3805  -11.9122  -16.4807 C   0  0  1  0  0  0  0  0  0  0  0  0
   19.6871  -12.6605  -16.6001 C   0  0  0  0  0  0  0  0  0  0  0  0
   19.4099  -14.0849  -16.2700 C   0  0  0  0  0  0  0  0  0  0  0  0
   18.4916  -14.4992  -15.3344 C   0  0  0  0  0  0  0  0  0  0  0  0
   18.4797  -15.8573  -15.2725 N   0  0  0  0  0  0  0  0  0  0  0  0
   19.3944  -16.2697  -16.1739 C   0  0  0  0  0  0  0  0  0  0  0  0
   19.9537  -15.2035  -16.7738 N   0  0  0  0  0  0  0  0  0  0  0  0
   18.5555  -10.4488  -16.6085 C   0  0  0  0  0  0  0  0  0  0  0  0
   18.7473  -10.0011  -17.7607 O   0  0  0  0  0  0  0  0  0  0  0  0
   18.5211   -9.5486  -15.5433 N   0  0  0  0  0  0  0  0  0  0  0  0
   18.5850   -8.1173  -15.6137 C   0  0  1  0  0  0  0  0  0  0  0  0
   17.3692   -7.3928  -15.1711 C   0  0  0  0  0  0  0  0  0  0  0  0
   17.4224   -5.9073  -15.2114 C   0  0  0  0  0  0  0  0  0  0  0  0
   16.2761   -5.1851  -14.7106 C   0  0  0  0  0  0  0  0  0  0  0  0
   15.3218   -5.8582  -14.2323 O   0  0  0  0  0  0  0  0  0  0  0  0
   19.7196   -7.7081  -14.7312 C   0  0  0  0  0  0  0  0  0  0  0  0
   19.8866   -8.1258  -13.5731 O   0  0  0  0  0  0  0  0  0  0  0  0
   16.0721   -3.8208  -14.6809 O   0  0  0  0  0  0  0  0  0  0  0  0
   23.2838   -7.8331  -15.8830 C   0  0  0  0  0  0  0  0  0  0  0  0
   23.0105   -6.4121  -15.4424 C   0  0  1  0  0  0  0  0  0  0  0  0
   22.7834   -5.5829  -16.6838 C   0  0  0  0  0  0  0  0  0  0  0  0
   21.8094   -6.3619  -14.5114 C   0  0  2  0  0  0  0  0  0  0  0  0
   20.6578   -6.7836  -15.2636 N   0  0  0  0  0  0  0  0  0  0  0  0
   21.6352   -5.0076  -13.9304 C   0  0  0  0  0  0  0  0  0  0  0  0
   22.4821   -4.5611  -12.9263 O   0  0  0  0  0  0  0  0  0  0  0  0
   20.7306   -4.2442  -14.3274 O   0  0  0  0  0  0  0  0  0  0  0  0
  2  3  1  0
  2  1  1  6
  4  3  1  0
  4  8  1  0
  5  6  1  0
  5  4  2  0
  6  7  1  0
  7  8  2  0
  9 11  1  0
  9  2  1  0
 10  9  2  0
 12 11  1  0
 12 13  1  1
 13 14  1  0
 14 15  1  0
 15 19  1  0
 16 15  2  0
 17 12  1  0
 18 17  2  0
 21 22  1  6
 21 20  1  0
 23 24  1  6
 23 21  1  0
 24 17  1  0
 25 23  1  0
 26 25  1  0
 27 25  2  0
M  END
$$$$
