HEV.pdb
     RDKit          3D

 27 27  0  0  1  0  0  0  0  0999 V2000
   17.2288  -14.2801  -17.6446 N   0  0  0  0  0  0  0  0  0  0  0  0
   17.3977  -13.4925  -16.4404 C   0  0  1  0  0  0  0  0  0  0  0  0
   18.1144  -14.3654  -15.4375 C   0  0  0  0  0  0  0  0  0  0  0  0
   17.1434  -15.3949  -14.9772 C   0  0  0  0  0  0  0  0  0  0  0  0
   15.8362  -15.4698  -15.3965 C   0  0  0  0  0  0  0  0  0  0  0  0
   15.2190  -16.5192  -14.7910 N   0  0  0  0  0  0  0  0  0  0  0  0
   16.1549  -17.0839  -14.0008 C   0  0  0  0  0  0  0  0  0  0  0  0
   17.3123  -16.4075  -14.1130 N   0  0  0  0  0  0  0  0  0  0  0  0
   18.1310  -12.2389  -16.7221 C   0  0  0  0  0  0  0  0  0  0  0  0
   19.2310  -12.3473  -17.3078 O   0  0  0  0  0  0  0  0  0  0  0  0
   17.6823  -10.9625  -16.3822 N   0  0  0  0  0  0  0  0  0  0  0  0
   18.3343   -9.7131  -16.6497 C   0  0  1  0  0  0  0  0  0  0  0  0
   17.4458   -8.5318  -16.7673 C   0  0  0  0  0  0  0  0  0  0  0  0
   18.1042   -7.2180  -16.9947 C   0  0  0  0  0  0  0  0  0  0  0  0
   17.2553   -6.0524  -17.0791 C   0  0  0  0  0  0  0  0  0  0  0  0
   16.0126   -6.2202  -16.9372 O   0  0  0  0  0  0  0  0  0  0  0  0
   19.2715   -9.4808  -15.5090 C   0  0  0  0  0  0  0  0  0  0  0  0
   18.9769   -9.6685  -14.3167 O   0  0  0  0  0  0  0  0  0  0  0  0
   17.6240   -4.7413  -17.3000 O   0  0  0  0  0  0  0  0  0  0  0  0
   22.7128  -10.8174  -15.0788 C   0  0  0  0  0  0  0  0  0  0  0  0
   22.8420   -9.3110  -15.1243 C   0  0  1  0  0  0  0  0  0  0  0  0
   23.3200   -8.9335  -16.5062 C   0  0  0  0  0  0  0  0  0  0  0  0
   21.5133   -8.6495  -14.7944 C   0  0  2  0  0  0  0  0  0  0  0  0
   20.5770   -9.0168  -15.8230 N   0  0  0  0  0  0  0  0  0  0  0  0
   21.6611   -7.1782  -14.6692 C   0  0  0  0  0  0  0  0  0  0  0  0
   22.2560   -6.6265  -13.5439 O   0  0  0  0  0  0  0  0  0  0  0  0
   21.2574   -6.4085  -15.5654 O   0  0  0  0  0  0  0  0  0  0  0  0
  2  3  1  0
  2  1  1  6
  4  3  1  0
  4  8  1  0
  5  6  1  0
  5  4  2  0
  6  7  1  0
  7  8  2  0
  9 11  1  0
  9  2  1  0
 10  9  2  0
 12 11  1  0
 12 13  1  1
 13 14  1  0
 14 15  1  0
 15 19  1  0
 16 15  2  0
 17 12  1  0
 18 17  2  0
 21 22  1  6
 21 20  1  0
 23 24  1  6
 23 21  1  0
 24 17  1  0
 25 23  1  0
 26 25  1  0
 27 25  2  0
M  END
$$$$
