HEV.pdb
     RDKit          3D

 27 27  0  0  1  0  0  0  0  0999 V2000
   14.6620  -19.8415    2.6294 N   0  0  0  0  0  0  0  0  0  0  0  0
   15.8281  -20.4511    3.2359 C   0  0  1  0  0  0  0  0  0  0  0  0
   16.8538  -20.6295    2.1417 C   0  0  0  0  0  0  0  0  0  0  0  0
   16.3460  -21.6920    1.2318 C   0  0  0  0  0  0  0  0  0  0  0  0
   16.4572  -23.0404    1.4765 C   0  0  0  0  0  0  0  0  0  0  0  0
   15.8951  -23.7404    0.4555 N   0  0  0  0  0  0  0  0  0  0  0  0
   15.4407  -22.8137   -0.4129 C   0  0  0  0  0  0  0  0  0  0  0  0
   15.7120  -21.5818    0.0543 N   0  0  0  0  0  0  0  0  0  0  0  0
   16.3365  -19.6299    4.3565 C   0  0  0  0  0  0  0  0  0  0  0  0
   16.2739  -18.3879    4.2208 O   0  0  0  0  0  0  0  0  0  0  0  0
   16.8734  -20.1428    5.5375 N   0  0  0  0  0  0  0  0  0  0  0  0
   17.2125  -19.4139    6.7255 C   0  0  1  0  0  0  0  0  0  0  0  0
   16.8447  -20.0603    8.0084 C   0  0  0  0  0  0  0  0  0  0  0  0
   17.1251  -19.2923    9.2505 C   0  0  0  0  0  0  0  0  0  0  0  0
   16.6882  -19.8657   10.5021 C   0  0  0  0  0  0  0  0  0  0  0  0
   16.0368  -20.9456   10.4569 O   0  0  0  0  0  0  0  0  0  0  0  0
   18.6968  -19.2418    6.6980 C   0  0  0  0  0  0  0  0  0  0  0  0
   19.4783  -20.0264    6.1348 O   0  0  0  0  0  0  0  0  0  0  0  0
   16.8893  -19.3835   11.7791 O   0  0  0  0  0  0  0  0  0  0  0  0
   20.2310  -16.0832    9.1200 C   0  0  0  0  0  0  0  0  0  0  0  0
   20.8672  -16.4170    7.7889 C   0  0  1  0  0  0  0  0  0  0  0  0
   22.3364  -16.0817    7.8862 C   0  0  0  0  0  0  0  0  0  0  0  0
   20.6516  -17.8822    7.4449 C   0  0  2  0  0  0  0  0  0  0  0  0
   19.2329  -18.1055    7.3612 N   0  0  0  0  0  0  0  0  0  0  0  0
   21.3017  -18.7700    8.4406 C   0  0  0  0  0  0  0  0  0  0  0  0
   22.6270  -19.1484    8.2829 O   0  0  0  0  0  0  0  0  0  0  0  0
   20.6774  -19.1938    9.4352 O   0  0  0  0  0  0  0  0  0  0  0  0
  2  3  1  0
  2  1  1  6
  4  3  1  0
  4  8  1  0
  5  6  1  0
  5  4  2  0
  6  7  1  0
  7  8  2  0
  9 11  1  0
  9  2  1  0
 10  9  2  0
 12 11  1  0
 12 13  1  1
 13 14  1  0
 14 15  1  0
 15 19  1  0
 16 15  2  0
 17 12  1  0
 18 17  2  0
 21 22  1  1
 21 20  1  0
 23 24  1  1
 23 21  1  0
 24 17  1  0
 25 23  1  0
 26 25  1  0
 27 25  2  0
M  END
$$$$
