HEV.pdb
     RDKit          3D

 27 27  0  0  1  0  0  0  0  0999 V2000
   18.2404  -13.0796  -18.9291 N   0  0  0  0  0  0  0  0  0  0  0  0
   19.3549  -13.5836  -18.1525 C   0  0  1  0  0  0  0  0  0  0  0  0
   20.0046  -14.6762  -18.9683 C   0  0  0  0  0  0  0  0  0  0  0  0
   18.9718  -15.7210  -19.2058 C   0  0  0  0  0  0  0  0  0  0  0  0
   18.3274  -16.4147  -18.2089 C   0  0  0  0  0  0  0  0  0  0  0  0
   17.4463  -17.2935  -18.7565 N   0  0  0  0  0  0  0  0  0  0  0  0
   17.5559  -17.1332  -20.0912 C   0  0  0  0  0  0  0  0  0  0  0  0
   18.4735  -16.1873  -20.3612 N   0  0  0  0  0  0  0  0  0  0  0  0
   20.2999  -12.4981  -17.8102 C   0  0  0  0  0  0  0  0  0  0  0  0
   21.3295  -12.8235  -17.1787 O   0  0  0  0  0  0  0  0  0  0  0  0
   20.1203  -11.1548  -18.1411 N   0  0  0  0  0  0  0  0  0  0  0  0
   20.9730  -10.0541  -17.7961 C   0  0  1  0  0  0  0  0  0  0  0  0
   21.5167   -9.2753  -18.9348 C   0  0  0  0  0  0  0  0  0  0  0  0
   22.4219   -8.1436  -18.6012 C   0  0  0  0  0  0  0  0  0  0  0  0
   22.8547   -7.2937  -19.6860 C   0  0  0  0  0  0  0  0  0  0  0  0
   23.6250   -6.3336  -19.4076 O   0  0  0  0  0  0  0  0  0  0  0  0
   20.1468   -9.1362  -16.9546 C   0  0  0  0  0  0  0  0  0  0  0  0
   18.9983   -8.7657  -17.2500 O   0  0  0  0  0  0  0  0  0  0  0  0
   22.5343   -7.3874  -21.0248 O   0  0  0  0  0  0  0  0  0  0  0  0
   18.8407   -9.6806  -13.8801 C   0  0  0  0  0  0  0  0  0  0  0  0
   19.6932   -8.4631  -13.5992 C   0  0  1  0  0  0  0  0  0  0  0  0
   20.9385   -8.9306  -12.8842 C   0  0  0  0  0  0  0  0  0  0  0  0
   20.0319   -7.7370  -14.8914 C   0  0  2  0  0  0  0  0  0  0  0  0
   20.7237   -8.6663  -15.7443 N   0  0  0  0  0  0  0  0  0  0  0  0
   20.8313   -6.5147  -14.6282 C   0  0  0  0  0  0  0  0  0  0  0  0
   20.2310   -5.3878  -14.0857 O   0  0  0  0  0  0  0  0  0  0  0  0
   22.0520   -6.4715  -14.8862 O   0  0  0  0  0  0  0  0  0  0  0  0
  2  3  1  0
  2  1  1  6
  4  3  1  0
  4  8  1  0
  5  6  1  0
  5  4  2  0
  6  7  1  0
  7  8  2  0
  9 11  1  0
  9  2  1  0
 10  9  2  0
 12 11  1  0
 12 13  1  6
 13 14  1  0
 14 15  1  0
 15 19  1  0
 16 15  2  0
 17 12  1  0
 18 17  2  0
 21 22  1  6
 21 20  1  0
 23 24  1  6
 23 21  1  0
 24 17  1  0
 25 23  1  0
 26 25  1  0
 27 25  2  0
M  END
$$$$
