HEV.pdb
     RDKit          3D

 27 27  0  0  1  0  0  0  0  0999 V2000
   25.2796  -18.3803  -18.0827 N   0  0  0  0  0  0  0  0  0  0  0  0
   25.5243  -18.4160  -16.6551 C   0  0  1  0  0  0  0  0  0  0  0  0
   25.3897  -16.9997  -16.1476 C   0  0  0  0  0  0  0  0  0  0  0  0
   26.7011  -16.3296  -16.3607 C   0  0  0  0  0  0  0  0  0  0  0  0
   27.7858  -16.9225  -16.9626 C   0  0  0  0  0  0  0  0  0  0  0  0
   28.8246  -16.0462  -17.0031 N   0  0  0  0  0  0  0  0  0  0  0  0
   28.3692  -14.9166  -16.4237 C   0  0  0  0  0  0  0  0  0  0  0  0
   27.0920  -15.0872  -16.0373 N   0  0  0  0  0  0  0  0  0  0  0  0
   24.5955  -19.3478  -15.9785 C   0  0  0  0  0  0  0  0  0  0  0  0
   23.3907  -19.2836  -16.3086 O   0  0  0  0  0  0  0  0  0  0  0  0
   24.9704  -20.2797  -15.0105 N   0  0  0  0  0  0  0  0  0  0  0  0
   24.1293  -21.2432  -14.3610 C   0  0  1  0  0  0  0  0  0  0  0  0
   24.7668  -22.5407  -14.0311 C   0  0  0  0  0  0  0  0  0  0  0  0
   23.8776  -23.6092  -13.5028 C   0  0  0  0  0  0  0  0  0  0  0  0
   23.0890  -24.3530  -14.4574 C   0  0  0  0  0  0  0  0  0  0  0  0
   22.0639  -24.9527  -14.0307 O   0  0  0  0  0  0  0  0  0  0  0  0
   23.6769  -20.6076  -13.0863 C   0  0  0  0  0  0  0  0  0  0  0  0
   24.4467  -20.1493  -12.2254 O   0  0  0  0  0  0  0  0  0  0  0  0
   23.3062  -24.5045  -15.8115 O   0  0  0  0  0  0  0  0  0  0  0  0
   20.9245  -18.0698  -12.8983 C   0  0  0  0  0  0  0  0  0  0  0  0
   20.5391  -19.1735  -11.9385 C   0  0  1  0  0  0  0  0  0  0  0  0
   19.4326  -19.9749  -12.5819 C   0  0  0  0  0  0  0  0  0  0  0  0
   21.7420  -20.0450  -11.6141 C   0  0  2  0  0  0  0  0  0  0  0  0
   22.2768  -20.5295  -12.8587 N   0  0  0  0  0  0  0  0  0  0  0  0
   21.3739  -21.1493  -10.6936 C   0  0  0  0  0  0  0  0  0  0  0  0
   21.2577  -22.4479  -11.1677 O   0  0  0  0  0  0  0  0  0  0  0  0
   21.1618  -20.9382   -9.4815 O   0  0  0  0  0  0  0  0  0  0  0  0
  2  3  1  0
  2  1  1  6
  4  3  1  0
  4  8  1  0
  5  6  1  0
  5  4  2  0
  6  7  1  0
  7  8  2  0
  9 11  1  0
  9  2  1  0
 10  9  2  0
 12 11  1  0
 12 13  1  1
 13 14  1  0
 14 15  1  0
 15 19  1  0
 16 15  2  0
 17 12  1  0
 18 17  2  0
 21 22  1  6
 21 20  1  0
 23 24  1  6
 23 21  1  0
 24 17  1  0
 25 23  1  0
 26 25  1  0
 27 25  2  0
M  END
$$$$
