GYP.pdb
     RDKit          3D

 24 25  0  0  1  0  0  0  0  0999 V2000
    5.2757  -20.3299   21.8560 N   0  0  0  0  0  0  0  0  0  0  0  0
    5.6774  -20.0624   23.2059 C   0  0  0  0  0  0  0  0  0  0  0  0
    6.0784  -18.6367   23.3951 C   0  0  0  0  0  0  0  0  0  0  0  0
    6.2522  -17.9468   22.3838 O   0  0  0  0  0  0  0  0  0  0  0  0
    7.4702  -10.6516   26.5759 O   0  0  0  0  0  0  0  0  0  0  0  0
    7.2523  -12.0198   26.4888 C   0  0  0  0  0  0  0  0  0  0  0  0
    8.2817  -12.8808   26.7530 C   0  0  0  0  0  0  0  0  0  0  0  0
    8.0923  -14.2621   26.6735 C   0  0  0  0  0  0  0  0  0  0  0  0
    6.8691  -14.7869   26.3286 C   0  0  0  0  0  0  0  0  0  0  0  0
    6.6182  -16.2229   26.2348 C   0  0  0  0  0  0  0  0  0  0  0  0
    6.8122  -16.7696   24.8023 C   0  0  2  0  0  0  0  0  0  0  0  0
    6.2622  -18.0624   24.6810 N   0  0  0  0  0  0  0  0  0  0  0  0
    8.2128  -16.5518   24.4771 C   0  0  0  0  0  0  0  0  0  0  0  0
    8.9885  -17.0080   25.4599 O   0  0  0  0  0  0  0  0  0  0  0  0
    5.8538  -13.8836   26.0690 C   0  0  0  0  0  0  0  0  0  0  0  0
    6.0304  -12.5175   26.1446 C   0  0  0  0  0  0  0  0  0  0  0  0
    8.9050  -16.0139   23.4344 N   0  0  0  0  0  0  0  0  0  0  0  0
    8.2036  -15.6851   22.1207 C   0  0  0  0  0  0  0  0  0  0  0  0
    8.6986  -14.2385   21.9254 C   0  0  0  0  0  0  0  0  0  0  0  0
    9.9380  -14.1021   22.8429 C   0  0  0  0  0  0  0  0  0  0  0  0
   10.2175  -15.5874   23.0706 C   0  0  1  0  0  0  0  0  0  0  0  0
   11.3850  -15.9445   23.7922 C   0  0  0  0  0  0  0  0  0  0  0  0
   12.4760  -16.2514   23.1922 O   0  0  0  0  0  0  0  0  0  0  0  0
   11.4572  -16.0044   25.1713 O   0  0  0  0  0  0  0  0  0  0  0  0
  2  1  1  0
  3  2  1  0
  3 12  1  0
  4  3  2  0
  6  7  2  0
  6  5  1  0
  8  7  1  0
  9  8  2  0
 10  9  1  0
 11 10  1  1
 11 12  1  0
 13 17  1  0
 13 11  1  0
 14 13  2  0
 15  9  1  0
 15 16  2  0
 16  6  1  0
 17 18  1  0
 19 18  1  0
 20 19  1  0
 20 21  1  0
 21 17  1  0
 21 22  1  1
 22 24  1  0
 23 22  2  0
M  END
$$$$
