GYP.pdb
     RDKit          3D

 24 25  0  0  1  0  0  0  0  0999 V2000
    6.1481  -19.4128   25.0473 N   0  0  0  0  0  0  0  0  0  0  0  0
    7.3790  -18.6795   25.0946 C   0  0  0  0  0  0  0  0  0  0  0  0
    7.2094  -17.2757   24.6152 C   0  0  0  0  0  0  0  0  0  0  0  0
    6.0954  -16.9389   24.1974 O   0  0  0  0  0  0  0  0  0  0  0  0
   10.2611  -15.2316   29.9573 O   0  0  0  0  0  0  0  0  0  0  0  0
    9.9324  -14.9257   28.6437 C   0  0  0  0  0  0  0  0  0  0  0  0
    8.6305  -14.6543   28.3241 C   0  0  0  0  0  0  0  0  0  0  0  0
    8.2700  -14.3434   27.0113 C   0  0  0  0  0  0  0  0  0  0  0  0
    9.2138  -14.3029   26.0122 C   0  0  0  0  0  0  0  0  0  0  0  0
    8.8894  -13.9797   24.6250 C   0  0  0  0  0  0  0  0  0  0  0  0
    8.1546  -15.1306   23.9011 C   0  0  2  0  0  0  0  0  0  0  0  0
    8.2729  -16.3344   24.6260 N   0  0  0  0  0  0  0  0  0  0  0  0
    8.5969  -15.0797   22.5168 C   0  0  0  0  0  0  0  0  0  0  0  0
    9.7819  -15.6764   22.3912 O   0  0  0  0  0  0  0  0  0  0  0  0
   10.5189  -14.5832   26.3756 C   0  0  0  0  0  0  0  0  0  0  0  0
   10.8856  -14.8916   27.6693 C   0  0  0  0  0  0  0  0  0  0  0  0
    8.1019  -14.5878   21.3468 N   0  0  0  0  0  0  0  0  0  0  0  0
    6.6458  -14.1471   21.2412 C   0  0  0  0  0  0  0  0  0  0  0  0
    6.8481  -12.7563   20.6083 C   0  0  0  0  0  0  0  0  0  0  0  0
    8.2778  -12.7802   20.0151 C   0  0  0  0  0  0  0  0  0  0  0  0
    8.4960  -14.2930   20.0072 C   0  0  1  0  0  0  0  0  0  0  0  0
    9.6816  -14.7937   19.4115 C   0  0  0  0  0  0  0  0  0  0  0  0
    9.8754  -14.7270   18.1456 O   0  0  0  0  0  0  0  0  0  0  0  0
   10.7098  -15.3937   20.1141 O   0  0  0  0  0  0  0  0  0  0  0  0
  2  1  1  0
  3  2  1  0
  3 12  1  0
  4  3  2  0
  6  7  2  0
  6  5  1  0
  8  7  1  0
  9  8  2  0
 10  9  1  0
 11 10  1  1
 11 12  1  0
 13 17  1  0
 13 11  1  0
 14 13  2  0
 15  9  1  0
 15 16  2  0
 16  6  1  0
 17 18  1  0
 19 18  1  0
 20 19  1  0
 20 21  1  0
 21 17  1  0
 21 22  1  1
 22 24  1  0
 23 22  2  0
M  END
$$$$
