GYP.pdb
     RDKit          3D

 24 25  0  0  1  0  0  0  0  0999 V2000
    5.1594  -19.3761   23.7598 N   0  0  0  0  0  0  0  0  0  0  0  0
    6.3873  -18.7711   24.1860 C   0  0  0  0  0  0  0  0  0  0  0  0
    6.5222  -17.3718   23.6832 C   0  0  0  0  0  0  0  0  0  0  0  0
    5.5863  -16.9017   23.0260 O   0  0  0  0  0  0  0  0  0  0  0  0
    5.4042  -11.7545   27.9774 O   0  0  0  0  0  0  0  0  0  0  0  0
    6.2001  -12.3849   27.0308 C   0  0  0  0  0  0  0  0  0  0  0  0
    6.3363  -13.7454   27.0682 C   0  0  0  0  0  0  0  0  0  0  0  0
    7.1303  -14.4072   26.1292 C   0  0  0  0  0  0  0  0  0  0  0  0
    7.7917  -13.7075   25.1475 C   0  0  0  0  0  0  0  0  0  0  0  0
    8.6308  -14.3520   24.1403 C   0  0  0  0  0  0  0  0  0  0  0  0
    7.8461  -15.3531   23.2626 C   0  0  2  0  0  0  0  0  0  0  0  0
    7.6747  -16.5809   23.9348 N   0  0  0  0  0  0  0  0  0  0  0  0
    8.4897  -15.3322   21.9587 C   0  0  0  0  0  0  0  0  0  0  0  0
    9.6139  -16.0470   21.9902 O   0  0  0  0  0  0  0  0  0  0  0  0
    7.6286  -12.3337   25.1434 C   0  0  0  0  0  0  0  0  0  0  0  0
    6.8467  -11.6703   26.0664 C   0  0  0  0  0  0  0  0  0  0  0  0
    8.2239  -14.7779   20.7430 N   0  0  0  0  0  0  0  0  0  0  0  0
    6.8391  -14.2235   20.4257 C   0  0  0  0  0  0  0  0  0  0  0  0
    7.2404  -12.8391   19.8796 C   0  0  0  0  0  0  0  0  0  0  0  0
    8.7405  -12.9608   19.5171 C   0  0  0  0  0  0  0  0  0  0  0  0
    8.8460  -14.4854   19.4924 C   0  0  1  0  0  0  0  0  0  0  0  0
   10.0713  -15.0634   19.0731 C   0  0  0  0  0  0  0  0  0  0  0  0
   10.3559  -15.2030   17.8305 O   0  0  0  0  0  0  0  0  0  0  0  0
   11.0459  -15.5282   19.9362 O   0  0  0  0  0  0  0  0  0  0  0  0
  2  1  1  0
  3  2  1  0
  3 12  1  0
  4  3  2  0
  6  7  2  0
  6  5  1  0
  8  7  1  0
  9  8  2  0
 10  9  1  0
 11 10  1  1
 11 12  1  0
 13 17  1  0
 13 11  1  0
 14 13  2  0
 15  9  1  0
 15 16  2  0
 16  6  1  0
 17 18  1  0
 19 18  1  0
 20 19  1  0
 20 21  1  0
 21 17  1  0
 21 22  1  1
 22 24  1  0
 23 22  2  0
M  END
$$$$
