GYP.pdb
     RDKit          3D

 24 25  0  0  1  0  0  0  0  0999 V2000
    6.4498  -19.4860   23.7700 N   0  0  0  0  0  0  0  0  0  0  0  0
    6.1317  -18.3874   24.6345 C   0  0  0  0  0  0  0  0  0  0  0  0
    6.3551  -17.0709   23.9668 C   0  0  0  0  0  0  0  0  0  0  0  0
    5.4264  -16.5950   23.3034 O   0  0  0  0  0  0  0  0  0  0  0  0
    5.6322  -11.7014   28.1869 O   0  0  0  0  0  0  0  0  0  0  0  0
    6.3649  -12.2983   27.1700 C   0  0  0  0  0  0  0  0  0  0  0  0
    6.9312  -13.5250   27.3829 C   0  0  0  0  0  0  0  0  0  0  0  0
    7.6737  -14.1500   26.3787 C   0  0  0  0  0  0  0  0  0  0  0  0
    7.8518  -13.5475   25.1557 C   0  0  0  0  0  0  0  0  0  0  0  0
    8.6160  -14.1600   24.0718 C   0  0  0  0  0  0  0  0  0  0  0  0
    7.7994  -15.2117   23.2871 C   0  0  2  0  0  0  0  0  0  0  0  0
    7.5823  -16.3636   24.0709 N   0  0  0  0  0  0  0  0  0  0  0  0
    8.4479  -15.3366   21.9915 C   0  0  0  0  0  0  0  0  0  0  0  0
    9.5258  -16.1139   22.0907 O   0  0  0  0  0  0  0  0  0  0  0  0
    7.2637  -12.3077   24.9797 C   0  0  0  0  0  0  0  0  0  0  0  0
    6.5284  -11.6817   25.9650 C   0  0  0  0  0  0  0  0  0  0  0  0
    8.2213  -14.8682   20.7325 N   0  0  0  0  0  0  0  0  0  0  0  0
    6.8623  -14.2927   20.3483 C   0  0  0  0  0  0  0  0  0  0  0  0
    7.3211  -12.9686   19.7064 C   0  0  0  0  0  0  0  0  0  0  0  0
    8.8215  -13.1687   19.3821 C   0  0  0  0  0  0  0  0  0  0  0  0
    8.8734  -14.6935   19.4751 C   0  0  1  0  0  0  0  0  0  0  0  0
   10.0840  -15.3433   19.1237 C   0  0  0  0  0  0  0  0  0  0  0  0
   10.8928  -15.7819   20.0169 O   0  0  0  0  0  0  0  0  0  0  0  0
   10.5033  -15.5531   17.8233 O   0  0  0  0  0  0  0  0  0  0  0  0
  2  1  1  0
  3  2  1  0
  3 12  1  0
  4  3  2  0
  6  7  2  0
  6  5  1  0
  8  7  1  0
  9  8  2  0
 10  9  1  0
 11 10  1  1
 11 12  1  0
 13 17  1  0
 13 11  1  0
 14 13  2  0
 15  9  1  0
 15 16  2  0
 16  6  1  0
 17 18  1  0
 19 18  1  0
 20 19  1  0
 20 21  1  0
 21 17  1  0
 21 22  1  1
 22 24  1  0
 23 22  2  0
M  END
$$$$
