GYP.pdb
     RDKit          3D

 24 25  0  0  1  0  0  0  0  0999 V2000
    4.6560  -19.8495   22.9064 N   0  0  0  0  0  0  0  0  0  0  0  0
    5.9690  -19.5052   23.3678 C   0  0  0  0  0  0  0  0  0  0  0  0
    6.1746  -18.0270   23.4094 C   0  0  0  0  0  0  0  0  0  0  0  0
    5.4750  -17.3258   22.6691 O   0  0  0  0  0  0  0  0  0  0  0  0
    5.9456  -10.6420   27.0700 O   0  0  0  0  0  0  0  0  0  0  0  0
    6.4955  -11.8410   26.6374 C   0  0  0  0  0  0  0  0  0  0  0  0
    7.7668  -11.8522   26.1330 C   0  0  0  0  0  0  0  0  0  0  0  0
    8.3463  -13.0431   25.6901 C   0  0  0  0  0  0  0  0  0  0  0  0
    7.6533  -14.2291   25.7512 C   0  0  0  0  0  0  0  0  0  0  0  0
    8.2149  -15.5016   25.3047 C   0  0  0  0  0  0  0  0  0  0  0  0
    7.4939  -16.0673   24.0601 C   0  0  2  0  0  0  0  0  0  0  0  0
    7.1338  -17.4160   24.2601 N   0  0  0  0  0  0  0  0  0  0  0  0
    8.3213  -15.7066   22.9199 C   0  0  0  0  0  0  0  0  0  0  0  0
    9.5379  -16.2348   23.0502 O   0  0  0  0  0  0  0  0  0  0  0  0
    6.3709  -14.1762   26.2674 C   0  0  0  0  0  0  0  0  0  0  0  0
    5.7892  -13.0052   26.7074 C   0  0  0  0  0  0  0  0  0  0  0  0
    8.1549  -14.9834   21.7775 N   0  0  0  0  0  0  0  0  0  0  0  0
    6.7690  -14.5139   21.3478 C   0  0  0  0  0  0  0  0  0  0  0  0
    7.0764  -13.0265   21.0852 C   0  0  0  0  0  0  0  0  0  0  0  0
    8.6150  -12.9466   20.9339 C   0  0  0  0  0  0  0  0  0  0  0  0
    8.8975  -14.4292   20.6922 C   0  0  1  0  0  0  0  0  0  0  0  0
   10.2254  -14.8130   20.3750 C   0  0  0  0  0  0  0  0  0  0  0  0
   10.6974  -14.6774   19.1903 O   0  0  0  0  0  0  0  0  0  0  0  0
   11.1119  -15.3635   21.2816 O   0  0  0  0  0  0  0  0  0  0  0  0
  2  1  1  0
  3  2  1  0
  3 12  1  0
  4  3  2  0
  6  7  2  0
  6  5  1  0
  8  7  1  0
  9  8  2  0
 10  9  1  0
 11 10  1  1
 11 12  1  0
 13 17  1  0
 13 11  1  0
 14 13  2  0
 15  9  1  0
 15 16  2  0
 16  6  1  0
 17 18  1  0
 19 18  1  0
 20 19  1  0
 20 21  1  0
 21 17  1  0
 21 22  1  1
 22 24  1  0
 23 22  2  0
M  END
$$$$
