GYP.pdb
     RDKit          3D

 24 25  0  0  1  0  0  0  0  0999 V2000
    6.2897  -20.8758   25.0182 N   0  0  0  0  0  0  0  0  0  0  0  0
    7.0356  -19.8262   25.6487 C   0  0  0  0  0  0  0  0  0  0  0  0
    6.6796  -18.4838   25.1006 C   0  0  0  0  0  0  0  0  0  0  0  0
    5.9051  -18.4402   24.1377 O   0  0  0  0  0  0  0  0  0  0  0  0
   11.2863  -15.0229   29.6288 O   0  0  0  0  0  0  0  0  0  0  0  0
   10.2532  -14.9888   28.7022 C   0  0  0  0  0  0  0  0  0  0  0  0
   10.1867  -13.9541   27.8100 C   0  0  0  0  0  0  0  0  0  0  0  0
    9.1590  -13.8931   26.8664 C   0  0  0  0  0  0  0  0  0  0  0  0
    8.1928  -14.8698   26.8128 C   0  0  0  0  0  0  0  0  0  0  0  0
    7.0999  -14.8543   25.8437 C   0  0  0  0  0  0  0  0  0  0  0  0
    7.1191  -16.0812   24.9039 C   0  0  2  0  0  0  0  0  0  0  0  0
    7.1968  -17.2783   25.6451 N   0  0  0  0  0  0  0  0  0  0  0  0
    8.1254  -15.7956   23.8937 C   0  0  0  0  0  0  0  0  0  0  0  0
    9.3431  -16.0414   24.3763 O   0  0  0  0  0  0  0  0  0  0  0  0
    8.2948  -15.8990   27.7317 C   0  0  0  0  0  0  0  0  0  0  0  0
    9.3058  -15.9687   28.6678 C   0  0  0  0  0  0  0  0  0  0  0  0
    8.1230  -15.3553   22.6045 N   0  0  0  0  0  0  0  0  0  0  0  0
    6.8124  -15.0380   21.8922 C   0  0  0  0  0  0  0  0  0  0  0  0
    7.1563  -13.6400   21.3417 C   0  0  0  0  0  0  0  0  0  0  0  0
    8.7009  -13.5493   21.3895 C   0  0  0  0  0  0  0  0  0  0  0  0
    9.0123  -15.0387   21.5341 C   0  0  1  0  0  0  0  0  0  0  0  0
   10.3710  -15.4436   21.4990 C   0  0  0  0  0  0  0  0  0  0  0  0
   11.0790  -15.5074   22.5663 O   0  0  0  0  0  0  0  0  0  0  0  0
   11.0483  -15.7895   20.3448 O   0  0  0  0  0  0  0  0  0  0  0  0
  2  1  1  0
  3  2  1  0
  3 12  1  0
  4  3  2  0
  6  7  2  0
  6  5  1  0
  8  7  1  0
  9  8  2  0
 10  9  1  0
 11 10  1  1
 11 12  1  0
 13 17  1  0
 13 11  1  0
 14 13  2  0
 15  9  1  0
 15 16  2  0
 16  6  1  0
 17 18  1  0
 19 18  1  0
 20 19  1  0
 20 21  1  0
 21 17  1  0
 21 22  1  1
 22 24  1  0
 23 22  2  0
M  END
$$$$
