GYP.pdb
     RDKit          3D

 24 25  0  0  1  0  0  0  0  0999 V2000
   11.8771  -16.9951   20.9493 N   0  0  0  0  0  0  0  0  0  0  0  0
   10.9550  -17.2650   22.0135 C   0  0  0  0  0  0  0  0  0  0  0  0
   10.3691  -16.0112   22.5736 C   0  0  0  0  0  0  0  0  0  0  0  0
   11.1395  -15.0792   22.8324 O   0  0  0  0  0  0  0  0  0  0  0  0
    7.7099  -13.4720   17.1496 O   0  0  0  0  0  0  0  0  0  0  0  0
    7.5743  -13.6679   18.5172 C   0  0  0  0  0  0  0  0  0  0  0  0
    8.0011  -12.6957   19.3794 C   0  0  0  0  0  0  0  0  0  0  0  0
    7.8777  -12.8647   20.7601 C   0  0  0  0  0  0  0  0  0  0  0  0
    7.3252  -14.0101   21.2831 C   0  0  0  0  0  0  0  0  0  0  0  0
    7.1704  -14.2343   22.7183 C   0  0  0  0  0  0  0  0  0  0  0  0
    8.4859  -14.6773   23.3977 C   0  0  2  0  0  0  0  0  0  0  0  0
    8.9770  -15.8627   22.8127 N   0  0  0  0  0  0  0  0  0  0  0  0
    8.2311  -14.6350   24.8288 C   0  0  0  0  0  0  0  0  0  0  0  0
    7.8031  -15.8233   25.2542 O   0  0  0  0  0  0  0  0  0  0  0  0
    6.9059  -14.9694   20.3787 C   0  0  0  0  0  0  0  0  0  0  0  0
    7.0234  -14.8123   19.0131 C   0  0  0  0  0  0  0  0  0  0  0  0
    8.3282  -13.7000   25.8147 N   0  0  0  0  0  0  0  0  0  0  0  0
    8.5431  -12.2289   25.4747 C   0  0  0  0  0  0  0  0  0  0  0  0
    7.4276  -11.6051   26.3363 C   0  0  0  0  0  0  0  0  0  0  0  0
    7.0578  -12.6905   27.3764 C   0  0  0  0  0  0  0  0  0  0  0  0
    8.2980  -13.5727   27.2359 C   0  0  1  0  0  0  0  0  0  0  0  0
    8.4417  -14.6694   28.1235 C   0  0  0  0  0  0  0  0  0  0  0  0
    8.4901  -14.5013   29.3940 O   0  0  0  0  0  0  0  0  0  0  0  0
    8.5501  -15.9866   27.7188 O   0  0  0  0  0  0  0  0  0  0  0  0
  2  1  1  0
  3  2  1  0
  3 12  1  0
  4  3  2  0
  6  7  2  0
  6  5  1  0
  8  7  1  0
  9  8  2  0
 10  9  1  0
 11 10  1  6
 11 12  1  0
 13 17  1  0
 13 11  1  0
 14 13  2  0
 15  9  1  0
 15 16  2  0
 16  6  1  0
 17 18  1  0
 19 18  1  0
 20 19  1  0
 20 21  1  0
 21 17  1  0
 21 22  1  1
 22 24  1  0
 23 22  2  0
M  END
$$$$
