GYP.pdb
     RDKit          3D

 24 25  0  0  1  0  0  0  0  0999 V2000
    5.0899  -20.5417   22.2185 N   0  0  0  0  0  0  0  0  0  0  0  0
    5.8701  -20.2155   23.3762 C   0  0  0  0  0  0  0  0  0  0  0  0
    6.0565  -18.7415   23.5244 C   0  0  0  0  0  0  0  0  0  0  0  0
    5.5802  -18.0086   22.6499 O   0  0  0  0  0  0  0  0  0  0  0  0
    7.1141  -10.6755   26.5805 O   0  0  0  0  0  0  0  0  0  0  0  0
    7.1573  -12.0580   26.4624 C   0  0  0  0  0  0  0  0  0  0  0  0
    5.9881  -12.7678   26.4630 C   0  0  0  0  0  0  0  0  0  0  0  0
    6.0003  -14.1593   26.3457 C   0  0  0  0  0  0  0  0  0  0  0  0
    7.1856  -14.8460   26.2269 C   0  0  0  0  0  0  0  0  0  0  0  0
    7.2526  -16.2996   26.0980 C   0  0  0  0  0  0  0  0  0  0  0  0
    7.0021  -16.7818   24.6511 C   0  0  2  0  0  0  0  0  0  0  0  0
    6.7529  -18.1694   24.6220 N   0  0  0  0  0  0  0  0  0  0  0  0
    8.0847  -16.2298   23.8523 C   0  0  0  0  0  0  0  0  0  0  0  0
    9.2613  -16.6195   24.3419 O   0  0  0  0  0  0  0  0  0  0  0  0
    8.3459  -14.0925   26.2305 C   0  0  0  0  0  0  0  0  0  0  0  0
    8.3449  -12.7178   26.3459 C   0  0  0  0  0  0  0  0  0  0  0  0
    8.1832  -15.4366   22.7492 N   0  0  0  0  0  0  0  0  0  0  0  0
    6.9333  -14.9771   22.0060 C   0  0  0  0  0  0  0  0  0  0  0  0
    7.2328  -13.4677   21.9174 C   0  0  0  0  0  0  0  0  0  0  0  0
    8.7544  -13.3363   22.1708 C   0  0  0  0  0  0  0  0  0  0  0  0
    9.1529  -14.7913   21.9245 C   0  0  1  0  0  0  0  0  0  0  0  0
   10.5330  -15.1171   21.9371 C   0  0  0  0  0  0  0  0  0  0  0  0
   11.3412  -14.6444   21.0607 O   0  0  0  0  0  0  0  0  0  0  0  0
   11.1236  -15.9584   22.8612 O   0  0  0  0  0  0  0  0  0  0  0  0
  2  1  1  0
  3  2  1  0
  3 12  1  0
  4  3  2  0
  6  7  2  0
  6  5  1  0
  8  7  1  0
  9  8  2  0
 10  9  1  0
 11 10  1  1
 11 12  1  0
 13 17  1  0
 13 11  1  0
 14 13  2  0
 15  9  1  0
 15 16  2  0
 16  6  1  0
 17 18  1  0
 19 18  1  0
 20 19  1  0
 20 21  1  0
 21 17  1  0
 21 22  1  1
 22 24  1  0
 23 22  2  0
M  END
$$$$
