GYP.pdb
     RDKit          3D

 24 25  0  0  1  0  0  0  0  0999 V2000
    4.7681  -20.4209   22.1262 N   0  0  0  0  0  0  0  0  0  0  0  0
    5.6124  -20.1491   23.2525 C   0  0  0  0  0  0  0  0  0  0  0  0
    5.8400  -18.6851   23.4370 C   0  0  0  0  0  0  0  0  0  0  0  0
    5.3082  -17.9121   22.6316 O   0  0  0  0  0  0  0  0  0  0  0  0
    6.9387  -10.7202   26.6175 O   0  0  0  0  0  0  0  0  0  0  0  0
    6.9909  -12.0996   26.4710 C   0  0  0  0  0  0  0  0  0  0  0  0
    5.8268  -12.8175   26.4628 C   0  0  0  0  0  0  0  0  0  0  0  0
    5.8480  -14.2062   26.3171 C   0  0  0  0  0  0  0  0  0  0  0  0
    7.0375  -14.8820   26.1787 C   0  0  0  0  0  0  0  0  0  0  0  0
    7.1140  -16.3321   26.0199 C   0  0  0  0  0  0  0  0  0  0  0  0
    6.9050  -16.7833   24.5566 C   0  0  2  0  0  0  0  0  0  0  0  0
    6.6359  -18.1660   24.4926 N   0  0  0  0  0  0  0  0  0  0  0  0
    8.0222  -16.2338   23.8050 C   0  0  0  0  0  0  0  0  0  0  0  0
    9.1757  -16.6390   24.3351 O   0  0  0  0  0  0  0  0  0  0  0  0
    8.1925  -14.1205   26.1920 C   0  0  0  0  0  0  0  0  0  0  0  0
    8.1825  -12.7484   26.3354 C   0  0  0  0  0  0  0  0  0  0  0  0
    8.1698  -15.4310   22.7143 N   0  0  0  0  0  0  0  0  0  0  0  0
    6.9508  -14.8908   21.9741 C   0  0  0  0  0  0  0  0  0  0  0  0
    7.3351  -13.3995   21.9093 C   0  0  0  0  0  0  0  0  0  0  0  0
    8.8605  -13.3578   22.1697 C   0  0  0  0  0  0  0  0  0  0  0  0
    9.1776  -14.8290   21.9028 C   0  0  1  0  0  0  0  0  0  0  0  0
   10.5372  -15.2322   21.9150 C   0  0  0  0  0  0  0  0  0  0  0  0
   11.0946  -15.6775   22.9806 O   0  0  0  0  0  0  0  0  0  0  0  0
   11.3730  -15.1775   20.8153 O   0  0  0  0  0  0  0  0  0  0  0  0
  2  1  1  0
  3  2  1  0
  3 12  1  0
  4  3  2  0
  6  7  2  0
  6  5  1  0
  8  7  1  0
  9  8  2  0
 10  9  1  0
 11 10  1  1
 11 12  1  0
 13 17  1  0
 13 11  1  0
 14 13  2  0
 15  9  1  0
 15 16  2  0
 16  6  1  0
 17 18  1  0
 19 18  1  0
 20 19  1  0
 20 21  1  0
 21 17  1  0
 21 22  1  1
 22 24  1  0
 23 22  2  0
M  END
$$$$
