GYP.pdb
     RDKit          3D

 24 25  0  0  1  0  0  0  0  0999 V2000
    4.9131  -19.2204   23.6119 N   0  0  0  0  0  0  0  0  0  0  0  0
    6.1470  -18.6797   24.1024 C   0  0  0  0  0  0  0  0  0  0  0  0
    6.3950  -17.3011   23.5857 C   0  0  0  0  0  0  0  0  0  0  0  0
    5.5491  -16.8064   22.8315 O   0  0  0  0  0  0  0  0  0  0  0  0
    5.6244  -11.6292   27.9576 O   0  0  0  0  0  0  0  0  0  0  0  0
    6.3818  -12.3218   27.0229 C   0  0  0  0  0  0  0  0  0  0  0  0
    6.4876  -11.8321   25.7501 C   0  0  0  0  0  0  0  0  0  0  0  0
    7.2425  -12.5069   24.7884 C   0  0  0  0  0  0  0  0  0  0  0  0
    7.8954  -13.6766   25.0987 C   0  0  0  0  0  0  0  0  0  0  0  0
    8.7000  -14.4184   24.1311 C   0  0  0  0  0  0  0  0  0  0  0  0
    7.8510  -15.3595   23.2467 C   0  0  2  0  0  0  0  0  0  0  0  0
    7.5542  -16.5565   23.9305 N   0  0  0  0  0  0  0  0  0  0  0  0
    8.5257  -15.4161   21.9598 C   0  0  0  0  0  0  0  0  0  0  0  0
    9.5760  -16.2336   22.0277 O   0  0  0  0  0  0  0  0  0  0  0  0
    7.7639  -14.1390   26.3959 C   0  0  0  0  0  0  0  0  0  0  0  0
    7.0206  -13.4801   27.3533 C   0  0  0  0  0  0  0  0  0  0  0  0
    8.3439  -14.8548   20.7319 N   0  0  0  0  0  0  0  0  0  0  0  0
    7.0076  -14.2249   20.3535 C   0  0  0  0  0  0  0  0  0  0  0  0
    7.5096  -12.8686   19.8205 C   0  0  0  0  0  0  0  0  0  0  0  0
    9.0145  -13.0767   19.5232 C   0  0  0  0  0  0  0  0  0  0  0  0
    9.0345  -14.6050   19.5082 C   0  0  1  0  0  0  0  0  0  0  0  0
   10.2419  -15.2537   19.1439 C   0  0  0  0  0  0  0  0  0  0  0  0
   11.1256  -15.5657   20.0193 O   0  0  0  0  0  0  0  0  0  0  0  0
   10.5794  -15.5945   17.8475 O   0  0  0  0  0  0  0  0  0  0  0  0
  2  1  1  0
  3  2  1  0
  3 12  1  0
  4  3  2  0
  6  7  2  0
  6  5  1  0
  8  7  1  0
  9  8  2  0
 10  9  1  0
 11 10  1  1
 11 12  1  0
 13 17  1  0
 13 11  1  0
 14 13  2  0
 15  9  1  0
 15 16  2  0
 16  6  1  0
 17 18  1  0
 19 18  1  0
 20 19  1  0
 20 21  1  0
 21 17  1  0
 21 22  1  1
 22 24  1  0
 23 22  2  0
M  END
$$$$
