GYP.pdb
     RDKit          3D

 24 25  0  0  1  0  0  0  0  0999 V2000
    4.8707  -20.6753   22.8055 N   0  0  0  0  0  0  0  0  0  0  0  0
    6.1200  -20.2168   23.3388 C   0  0  0  0  0  0  0  0  0  0  0  0
    6.1320  -18.7367   23.5346 C   0  0  0  0  0  0  0  0  0  0  0  0
    5.6304  -18.0333   22.6500 O   0  0  0  0  0  0  0  0  0  0  0  0
    6.9845  -10.6170   26.5295 O   0  0  0  0  0  0  0  0  0  0  0  0
    7.0675  -11.9989   26.4266 C   0  0  0  0  0  0  0  0  0  0  0  0
    5.9177  -12.7359   26.3521 C   0  0  0  0  0  0  0  0  0  0  0  0
    5.9699  -14.1276   26.2479 C   0  0  0  0  0  0  0  0  0  0  0  0
    7.1761  -14.7870   26.2180 C   0  0  0  0  0  0  0  0  0  0  0  0
    7.2852  -16.2395   26.1067 C   0  0  0  0  0  0  0  0  0  0  0  0
    7.0022  -16.7506   24.6759 C   0  0  2  0  0  0  0  0  0  0  0  0
    6.6933  -18.1264   24.6877 N   0  0  0  0  0  0  0  0  0  0  0  0
    8.1008  -16.2685   23.8541 C   0  0  0  0  0  0  0  0  0  0  0  0
    9.2637  -16.6939   24.3468 O   0  0  0  0  0  0  0  0  0  0  0  0
    8.3157  -14.0065   26.2958 C   0  0  0  0  0  0  0  0  0  0  0  0
    8.2751  -12.6314   26.3989 C   0  0  0  0  0  0  0  0  0  0  0  0
    8.2242  -15.5121   22.7278 N   0  0  0  0  0  0  0  0  0  0  0  0
    6.9976  -15.1389   21.9020 C   0  0  0  0  0  0  0  0  0  0  0  0
    7.2336  -13.6214   21.7710 C   0  0  0  0  0  0  0  0  0  0  0  0
    8.7314  -13.4097   22.0997 C   0  0  0  0  0  0  0  0  0  0  0  0
    9.2077  -14.8523   21.9316 C   0  0  1  0  0  0  0  0  0  0  0  0
   10.5984  -15.1124   22.0302 C   0  0  0  0  0  0  0  0  0  0  0  0
   11.1579  -15.3466   23.1601 O   0  0  0  0  0  0  0  0  0  0  0  0
   11.4634  -15.1291   20.9521 O   0  0  0  0  0  0  0  0  0  0  0  0
  2  1  1  0
  3  2  1  0
  3 12  1  0
  4  3  2  0
  6  7  2  0
  6  5  1  0
  8  7  1  0
  9  8  2  0
 10  9  1  0
 11 10  1  1
 11 12  1  0
 13 17  1  0
 13 11  1  0
 14 13  2  0
 15  9  1  0
 15 16  2  0
 16  6  1  0
 17 18  1  0
 19 18  1  0
 20 19  1  0
 20 21  1  0
 21 17  1  0
 21 22  1  1
 22 24  1  0
 23 22  2  0
M  END
$$$$
