QHI.pdb
     RDKit          3D

 28 28  0  0  1  0  0  0  0  0999 V2000
   29.6331  -20.2557  -18.5710 N   0  0  0  0  0  0  0  0  0  0  0  0
   29.3558  -19.1506  -19.4186 C   0  0  0  0  0  0  0  0  0  0  0  0
   29.7078  -19.2192  -20.6197 O   0  0  0  0  0  0  0  0  0  0  0  0
   28.6751  -17.9454  -18.9301 C   0  0  0  0  0  0  0  0  0  0  0  0
   27.7764  -18.1460  -17.7597 C   0  0  0  0  0  0  0  0  0  0  0  0
   26.8873  -19.3551  -17.8589 C   0  0  2  0  0  0  0  0  0  0  0  0
   26.1598  -19.3023  -19.1339 N   0  0  0  0  0  0  0  0  0  0  0  0
   25.8779  -19.3311  -16.7792 C   0  0  0  0  0  0  0  0  0  0  0  0
   26.1367  -18.8356  -15.6785 O   0  0  0  0  0  0  0  0  0  0  0  0
   24.5666  -19.8711  -16.9470 N   0  0  0  0  0  0  0  0  0  0  0  0
   23.5398  -19.7995  -15.9272 C   0  0  1  0  0  0  0  0  0  0  0  0
   22.1600  -19.9243  -16.4968 C   0  0  0  0  0  0  0  0  0  0  0  0
   21.0540  -19.8928  -15.5588 C   0  0  0  0  0  0  0  0  0  0  0  0
   21.0979  -19.6773  -14.1911 C   0  0  0  0  0  0  0  0  0  0  0  0
   19.8453  -19.7286  -13.6987 N   0  0  0  0  0  0  0  0  0  0  0  0
   19.0214  -19.9703  -14.7217 C   0  0  0  0  0  0  0  0  0  0  0  0
   19.7476  -20.0669  -15.8256 N   0  0  0  0  0  0  0  0  0  0  0  0
   23.8389  -20.5956  -14.7469 C   0  0  0  0  0  0  0  0  0  0  0  0
   23.9964  -21.8416  -14.8775 O   0  0  0  0  0  0  0  0  0  0  0  0
   28.0630  -20.4688  -12.0005 C   0  0  0  0  0  0  0  0  0  0  0  0
   26.7853  -20.9262  -12.6766 C   0  0  0  0  0  0  0  0  0  0  0  0
   25.6597  -20.6825  -11.7041 C   0  0  2  0  0  0  0  0  0  0  0  0
   25.8996  -21.4530  -10.4239 C   0  0  0  0  0  0  0  0  0  0  0  0
   24.3038  -20.9809  -12.2973 C   0  0  2  0  0  0  0  0  0  0  0  0
   23.9820  -20.1294  -13.4130 N   0  0  0  0  0  0  0  0  0  0  0  0
   23.2755  -20.8358  -11.2455 C   0  0  0  0  0  0  0  0  0  0  0  0
   22.7918  -21.8690  -10.7382 O   0  0  0  0  0  0  0  0  0  0  0  0
   22.8370  -19.6053  -10.8101 O   0  0  0  0  0  0  0  0  0  0  0  0
  2  1  1  0
  2  3  2  0
  4  5  1  0
  4  2  1  0
  5  6  1  0
  6  8  1  0
  6  7  1  6
  8  9  2  0
 10  8  1  0
 10 11  1  0
 11 12  1  6
 13 12  1  0
 14 13  2  0
 15 14  1  0
 16 15  1  0
 16 17  2  0
 17 13  1  0
 18 19  2  0
 18 11  1  0
 21 20  1  0
 21 22  1  0
 22 24  1  0
 22 23  1  1
 24 25  1  6
 25 18  1  0
 26 24  1  0
 26 28  1  0
 27 26  2  0
M  END
$$$$
