QHI.pdb
     RDKit          3D

 28 28  0  0  1  0  0  0  0  0999 V2000
   22.3381  -15.5819  -18.4699 N   0  0  0  0  0  0  0  0  0  0  0  0
   21.0649  -15.1588  -18.0047 C   0  0  0  0  0  0  0  0  0  0  0  0
   20.5352  -14.1606  -18.5470 O   0  0  0  0  0  0  0  0  0  0  0  0
   20.3619  -15.8526  -16.9190 C   0  0  0  0  0  0  0  0  0  0  0  0
   21.0848  -17.0104  -16.3234 C   0  0  0  0  0  0  0  0  0  0  0  0
   21.3417  -18.1417  -17.2807 C   0  0  2  0  0  0  0  0  0  0  0  0
   20.0738  -18.8361  -17.5415 N   0  0  0  0  0  0  0  0  0  0  0  0
   22.2596  -19.1250  -16.6676 C   0  0  0  0  0  0  0  0  0  0  0  0
   22.0090  -19.6289  -15.5688 O   0  0  0  0  0  0  0  0  0  0  0  0
   23.4690  -19.5410  -17.3030 N   0  0  0  0  0  0  0  0  0  0  0  0
   24.4178  -20.4493  -16.6912 C   0  0  1  0  0  0  0  0  0  0  0  0
   25.3268  -21.0871  -17.6965 C   0  0  0  0  0  0  0  0  0  0  0  0
   26.2936  -22.0460  -17.1966 C   0  0  0  0  0  0  0  0  0  0  0  0
   26.4313  -22.5283  -15.9053 C   0  0  0  0  0  0  0  0  0  0  0  0
   27.4542  -23.4039  -15.8709 N   0  0  0  0  0  0  0  0  0  0  0  0
   27.9583  -23.4809  -17.1053 C   0  0  0  0  0  0  0  0  0  0  0  0
   27.2628  -22.6700  -17.8890 N   0  0  0  0  0  0  0  0  0  0  0  0
   25.0381  -19.9155  -15.4884 C   0  0  0  0  0  0  0  0  0  0  0  0
   25.2938  -18.6803  -15.4328 O   0  0  0  0  0  0  0  0  0  0  0  0
   25.6857  -20.7397   -9.4494 C   0  0  0  0  0  0  0  0  0  0  0  0
   26.2155  -20.0119  -10.6694 C   0  0  0  0  0  0  0  0  0  0  0  0
   25.6708  -20.7257  -11.8803 C   0  0  2  0  0  0  0  0  0  0  0  0
   26.1030  -22.1759  -11.8700 C   0  0  0  0  0  0  0  0  0  0  0  0
   26.0344  -20.0371  -13.1737 C   0  0  2  0  0  0  0  0  0  0  0  0
   25.4069  -20.6375  -14.3223 N   0  0  0  0  0  0  0  0  0  0  0  0
   27.5032  -20.0629  -13.3367 C   0  0  0  0  0  0  0  0  0  0  0  0
   28.1951  -19.3030  -12.6276 O   0  0  0  0  0  0  0  0  0  0  0  0
   28.1288  -20.8932  -14.2397 O   0  0  0  0  0  0  0  0  0  0  0  0
  2  1  1  0
  2  3  2  0
  4  5  1  0
  4  2  1  0
  5  6  1  0
  6  8  1  0
  6  7  1  1
  8  9  2  0
 10  8  1  0
 10 11  1  0
 11 12  1  6
 13 12  1  0
 14 13  2  0
 15 14  1  0
 16 15  1  0
 16 17  2  0
 17 13  1  0
 18 19  2  0
 18 11  1  0
 21 20  1  0
 21 22  1  0
 22 24  1  0
 22 23  1  6
 24 25  1  6
 25 18  1  0
 26 24  1  0
 26 28  1  0
 27 26  2  0
M  END
$$$$
