QHI.pdb
     RDKit          3D

 28 28  0  0  1  0  0  0  0  0999 V2000
   27.0945  -24.3373  -16.4899 N   0  0  0  0  0  0  0  0  0  0  0  0
   28.4563  -24.3683  -16.8915 C   0  0  0  0  0  0  0  0  0  0  0  0
   28.9301  -25.4529  -17.3040 O   0  0  0  0  0  0  0  0  0  0  0  0
   29.3120  -23.1770  -16.8372 C   0  0  0  0  0  0  0  0  0  0  0  0
   28.6639  -21.9450  -16.3082 C   0  0  0  0  0  0  0  0  0  0  0  0
   27.5415  -21.4186  -17.1598 C   0  0  2  0  0  0  0  0  0  0  0  0
   28.1032  -20.5221  -18.1789 N   0  0  0  0  0  0  0  0  0  0  0  0
   26.6143  -20.6151  -16.3351 C   0  0  0  0  0  0  0  0  0  0  0  0
   27.0158  -19.6364  -15.6987 O   0  0  0  0  0  0  0  0  0  0  0  0
   25.2234  -20.9213  -16.2308 N   0  0  0  0  0  0  0  0  0  0  0  0
   24.3016  -20.1651  -15.4075 C   0  0  1  0  0  0  0  0  0  0  0  0
   23.1304  -19.6507  -16.1871 C   0  0  0  0  0  0  0  0  0  0  0  0
   23.3632  -18.5083  -17.0502 C   0  0  0  0  0  0  0  0  0  0  0  0
   24.5259  -17.7698  -17.1971 C   0  0  0  0  0  0  0  0  0  0  0  0
   24.3145  -16.7944  -18.1016 N   0  0  0  0  0  0  0  0  0  0  0  0
   23.0519  -16.9044  -18.5229 C   0  0  0  0  0  0  0  0  0  0  0  0
   22.4916  -17.9264  -17.8928 N   0  0  0  0  0  0  0  0  0  0  0  0
   24.0146  -20.7967  -14.1288 C   0  0  0  0  0  0  0  0  0  0  0  0
   23.6279  -21.9987  -14.1173 O   0  0  0  0  0  0  0  0  0  0  0  0
   26.6841  -20.1377   -9.4003 C   0  0  0  0  0  0  0  0  0  0  0  0
   25.9698  -20.7442  -10.5923 C   0  0  0  0  0  0  0  0  0  0  0  0
   24.5014  -20.4483  -10.4243 C   0  0  2  0  0  0  0  0  0  0  0  0
   23.9836  -21.0805   -9.1506 C   0  0  0  0  0  0  0  0  0  0  0  0
   23.6851  -20.8532  -11.6282 C   0  0  2  0  0  0  0  0  0  0  0  0
   24.1190  -20.2085  -12.8404 N   0  0  0  0  0  0  0  0  0  0  0  0
   22.2638  -20.5361  -11.3751 C   0  0  0  0  0  0  0  0  0  0  0  0
   21.8714  -19.3659  -11.5636 O   0  0  0  0  0  0  0  0  0  0  0  0
   21.3644  -21.4842  -10.9409 O   0  0  0  0  0  0  0  0  0  0  0  0
  2  1  1  0
  2  3  2  0
  4  5  1  0
  4  2  1  0
  5  6  1  0
  6  8  1  0
  6  7  1  6
  8  9  2  0
 10  8  1  0
 10 11  1  0
 11 12  1  6
 13 12  1  0
 14 13  2  0
 15 14  1  0
 16 15  1  0
 16 17  2  0
 17 13  1  0
 18 19  2  0
 18 11  1  0
 21 20  1  0
 21 22  1  0
 22 24  1  0
 22 23  1  1
 24 25  1  6
 25 18  1  0
 26 24  1  0
 26 28  1  0
 27 26  2  0
M  END
$$$$
