QHI.pdb
     RDKit          3D

 28 28  0  0  1  0  0  0  0  0999 V2000
   24.0707  -15.0250  -17.5258 N   0  0  0  0  0  0  0  0  0  0  0  0
   22.7931  -15.6035  -17.7489 C   0  0  0  0  0  0  0  0  0  0  0  0
   22.7366  -16.7185  -18.3189 O   0  0  0  0  0  0  0  0  0  0  0  0
   21.5529  -14.9377  -17.3334 C   0  0  0  0  0  0  0  0  0  0  0  0
   21.7267  -13.6262  -16.6495 C   0  0  0  0  0  0  0  0  0  0  0  0
   21.1717  -12.4517  -17.4076 C   0  0  2  0  0  0  0  0  0  0  0  0
   21.8405  -12.3743  -18.7131 N   0  0  0  0  0  0  0  0  0  0  0  0
   21.4734  -11.1964  -16.6877 C   0  0  0  0  0  0  0  0  0  0  0  0
   21.1565  -11.0513  -15.5033 O   0  0  0  0  0  0  0  0  0  0  0  0
   22.1389  -10.0981  -17.3125 N   0  0  0  0  0  0  0  0  0  0  0  0
   22.4026   -8.8413  -16.6416 C   0  0  1  0  0  0  0  0  0  0  0  0
   23.8533   -8.4693  -16.6763 C   0  0  0  0  0  0  0  0  0  0  0  0
   24.7885   -9.4049  -16.0812 C   0  0  0  0  0  0  0  0  0  0  0  0
   24.5074  -10.5436  -15.3442 C   0  0  0  0  0  0  0  0  0  0  0  0
   25.6653  -11.1268  -14.9793 N   0  0  0  0  0  0  0  0  0  0  0  0
   26.6610  -10.3831  -15.4686 C   0  0  0  0  0  0  0  0  0  0  0  0
   26.1318   -9.3598  -16.1231 N   0  0  0  0  0  0  0  0  0  0  0  0
   21.4470   -7.7957  -16.9732 C   0  0  0  0  0  0  0  0  0  0  0  0
   21.2552   -7.5101  -18.1882 O   0  0  0  0  0  0  0  0  0  0  0  0
   16.3761   -7.5664  -16.1295 C   0  0  0  0  0  0  0  0  0  0  0  0
   17.7366   -7.3476  -16.7620 C   0  0  0  0  0  0  0  0  0  0  0  0
   18.3664   -6.1725  -16.0587 C   0  0  2  0  0  0  0  0  0  0  0  0
   17.5226   -4.9320  -16.2564 C   0  0  0  0  0  0  0  0  0  0  0  0
   19.8022   -5.9502  -16.4695 C   0  0  2  0  0  0  0  0  0  0  0  0
   20.6717   -7.0251  -16.0666 N   0  0  0  0  0  0  0  0  0  0  0  0
   20.2782   -4.6779  -15.8872 C   0  0  0  0  0  0  0  0  0  0  0  0
   20.7942   -4.6987  -14.7504 O   0  0  0  0  0  0  0  0  0  0  0  0
   20.1716   -3.4780  -16.5543 O   0  0  0  0  0  0  0  0  0  0  0  0
  2  1  1  0
  2  3  2  0
  4  5  1  0
  4  2  1  0
  5  6  1  0
  6  8  1  0
  6  7  1  6
  8  9  2  0
 10  8  1  0
 10 11  1  0
 11 12  1  6
 13 12  1  0
 14 13  2  0
 15 14  1  0
 16 15  1  0
 16 17  2  0
 17 13  1  0
 18 19  2  0
 18 11  1  0
 21 20  1  0
 21 22  1  0
 22 24  1  0
 22 23  1  6
 24 25  1  1
 25 18  1  0
 26 24  1  0
 26 28  1  0
 27 26  2  0
M  END
$$$$
