QHI.pdb
     RDKit          3D

 28 28  0  0  1  0  0  0  0  0999 V2000
   27.5748  -28.3228  -22.6412 N   0  0  0  0  0  0  0  0  0  0  0  0
   28.6548  -27.9839  -23.4986 C   0  0  0  0  0  0  0  0  0  0  0  0
   28.3908  -27.5328  -24.6379 O   0  0  0  0  0  0  0  0  0  0  0  0
   30.0551  -28.1456  -23.0893 C   0  0  0  0  0  0  0  0  0  0  0  0
   30.2643  -28.6565  -21.7062 C   0  0  0  0  0  0  0  0  0  0  0  0
   30.1383  -27.6113  -20.6320 C   0  0  2  0  0  0  0  0  0  0  0  0
   31.4090  -26.8810  -20.5331 N   0  0  0  0  0  0  0  0  0  0  0  0
   29.9029  -28.2566  -19.3230 C   0  0  0  0  0  0  0  0  0  0  0  0
   30.8353  -28.7480  -18.6802 O   0  0  0  0  0  0  0  0  0  0  0  0
   28.6034  -28.3456  -18.7376 N   0  0  0  0  0  0  0  0  0  0  0  0
   28.3706  -28.8020  -17.3823 C   0  0  1  0  0  0  0  0  0  0  0  0
   27.9661  -27.6877  -16.4665 C   0  0  0  0  0  0  0  0  0  0  0  0
   28.9015  -26.5901  -16.3102 C   0  0  0  0  0  0  0  0  0  0  0  0
   28.8670  -25.3439  -16.9141 C   0  0  0  0  0  0  0  0  0  0  0  0
   29.9248  -24.6236  -16.4941 N   0  0  0  0  0  0  0  0  0  0  0  0
   30.6181  -25.3864  -15.6448 C   0  0  0  0  0  0  0  0  0  0  0  0
   30.0034  -26.5554  -15.5402 N   0  0  0  0  0  0  0  0  0  0  0  0
   27.5921  -30.0289  -17.3097 C   0  0  0  0  0  0  0  0  0  0  0  0
   26.6897  -30.2284  -18.1701 O   0  0  0  0  0  0  0  0  0  0  0  0
   28.6012  -34.6069  -16.9048 C   0  0  0  0  0  0  0  0  0  0  0  0
   28.7167  -33.7679  -15.6472 C   0  0  0  0  0  0  0  0  0  0  0  0
   27.3326  -33.2674  -15.3218 C   0  0  2  0  0  0  0  0  0  0  0  0
   26.3675  -34.4287  -15.2215 C   0  0  0  0  0  0  0  0  0  0  0  0
   26.8516  -32.2154  -16.2921 C   0  0  2  0  0  0  0  0  0  0  0  0
   27.7246  -31.0720  -16.3552 N   0  0  0  0  0  0  0  0  0  0  0  0
   25.4926  -31.7851  -15.9012 C   0  0  0  0  0  0  0  0  0  0  0  0
   24.5138  -32.3999  -16.3732 O   0  0  0  0  0  0  0  0  0  0  0  0
   25.2733  -30.7346  -15.0383 O   0  0  0  0  0  0  0  0  0  0  0  0
  2  1  1  0
  2  3  2  0
  4  5  1  0
  4  2  1  0
  5  6  1  0
  6  8  1  0
  6  7  1  1
  8  9  2  0
 10  8  1  0
 10 11  1  0
 11 12  1  1
 13 12  1  0
 14 13  2  0
 15 14  1  0
 16 15  1  0
 16 17  2  0
 17 13  1  0
 18 19  2  0
 18 11  1  0
 21 20  1  0
 21 22  1  0
 22 24  1  0
 22 23  1  6
 24 25  1  1
 25 18  1  0
 26 24  1  0
 26 28  1  0
 27 26  2  0
M  END
$$$$
