QHI.pdb
     RDKit          3D

 28 28  0  0  1  0  0  0  0  0999 V2000
   14.8998  -10.3609  -10.9053 N   0  0  0  0  0  0  0  0  0  0  0  0
   13.9729  -10.9131  -11.8286 C   0  0  0  0  0  0  0  0  0  0  0  0
   12.8501  -11.2715  -11.4018 O   0  0  0  0  0  0  0  0  0  0  0  0
   14.2920  -11.0720  -13.2524 C   0  0  0  0  0  0  0  0  0  0  0  0
   15.5960  -10.4979  -13.6856 C   0  0  0  0  0  0  0  0  0  0  0  0
   16.1948  -11.1598  -14.8962 C   0  0  2  0  0  0  0  0  0  0  0  0
   16.3278  -12.5983  -14.6300 N   0  0  0  0  0  0  0  0  0  0  0  0
   17.5546  -10.6337  -15.1402 C   0  0  0  0  0  0  0  0  0  0  0  0
   18.5421  -11.1587  -14.6173 O   0  0  0  0  0  0  0  0  0  0  0  0
   17.7980   -9.5062  -15.9821 N   0  0  0  0  0  0  0  0  0  0  0  0
   19.1248   -9.0015  -16.2724 C   0  0  1  0  0  0  0  0  0  0  0  0
   19.4285   -9.0054  -17.7393 C   0  0  0  0  0  0  0  0  0  0  0  0
   19.6761  -10.2938  -18.3581 C   0  0  0  0  0  0  0  0  0  0  0  0
   19.7302  -11.5380  -17.7515 C   0  0  0  0  0  0  0  0  0  0  0  0
   19.9839  -12.4719  -18.6883 N   0  0  0  0  0  0  0  0  0  0  0  0
   20.0896  -11.8443  -19.8625 C   0  0  0  0  0  0  0  0  0  0  0  0
   19.9054  -10.5482  -19.6584 N   0  0  0  0  0  0  0  0  0  0  0  0
   19.4595   -7.7933  -15.5344 C   0  0  0  0  0  0  0  0  0  0  0  0
   18.5641   -6.9205  -15.3582 O   0  0  0  0  0  0  0  0  0  0  0  0
   20.7823   -7.6121  -10.6465 C   0  0  0  0  0  0  0  0  0  0  0  0
   20.2472   -7.3111  -12.0329 C   0  0  0  0  0  0  0  0  0  0  0  0
   21.3205   -6.5454  -12.7636 C   0  0  2  0  0  0  0  0  0  0  0  0
   21.6674   -5.2816  -12.0070 C   0  0  0  0  0  0  0  0  0  0  0  0
   20.9559   -6.2612  -14.2009 C   0  0  2  0  0  0  0  0  0  0  0  0
   20.7163   -7.4585  -14.9641 N   0  0  0  0  0  0  0  0  0  0  0  0
   22.0420   -5.4786  -14.8274 C   0  0  0  0  0  0  0  0  0  0  0  0
   22.8295   -6.0638  -15.5996 O   0  0  0  0  0  0  0  0  0  0  0  0
   22.2118   -4.1331  -14.5883 O   0  0  0  0  0  0  0  0  0  0  0  0
  2  1  1  0
  2  3  2  0
  4  5  1  0
  4  2  1  0
  5  6  1  0
  6  8  1  0
  6  7  1  1
  8  9  2  0
 10  8  1  0
 10 11  1  0
 11 12  1  6
 13 12  1  0
 14 13  2  0
 15 14  1  0
 16 15  1  0
 16 17  2  0
 17 13  1  0
 18 19  2  0
 18 11  1  0
 21 20  1  0
 21 22  1  0
 22 24  1  0
 22 23  1  1
 24 25  1  6
 25 18  1  0
 26 24  1  0
 26 28  1  0
 27 26  2  0
M  END
$$$$
