QHI.pdb
     RDKit          3D

 28 28  0  0  1  0  0  0  0  0999 V2000
   12.8223  -18.4192   -7.1378 N   0  0  0  0  0  0  0  0  0  0  0  0
   12.0041  -19.0265   -6.1487 C   0  0  0  0  0  0  0  0  0  0  0  0
   11.7035  -18.3571   -5.1325 O   0  0  0  0  0  0  0  0  0  0  0  0
   11.5072  -20.4009   -6.2849 C   0  0  0  0  0  0  0  0  0  0  0  0
   11.7666  -21.2951   -5.1227 C   0  0  0  0  0  0  0  0  0  0  0  0
   13.2220  -21.5759   -4.8674 C   0  0  2  0  0  0  0  0  0  0  0  0
   13.7258  -22.4568   -5.9295 N   0  0  0  0  0  0  0  0  0  0  0  0
   13.3811  -22.2996   -3.5883 C   0  0  0  0  0  0  0  0  0  0  0  0
   12.3971  -22.6595   -2.9354 O   0  0  0  0  0  0  0  0  0  0  0  0
   14.6627  -22.6185   -3.0450 N   0  0  0  0  0  0  0  0  0  0  0  0
   14.8428  -23.3552   -1.8105 C   0  0  1  0  0  0  0  0  0  0  0  0
   15.9563  -24.3534   -1.8989 C   0  0  0  0  0  0  0  0  0  0  0  0
   15.8949  -25.3156   -2.9828 C   0  0  0  0  0  0  0  0  0  0  0  0
   15.2074  -26.5175   -3.0220 C   0  0  0  0  0  0  0  0  0  0  0  0
   15.4170  -27.1038   -4.2163 N   0  0  0  0  0  0  0  0  0  0  0  0
   16.2164  -26.3006   -4.9230 C   0  0  0  0  0  0  0  0  0  0  0  0
   16.4970  -25.2382   -4.1827 N   0  0  0  0  0  0  0  0  0  0  0  0
   14.8051  -22.5150   -0.6235 C   0  0  0  0  0  0  0  0  0  0  0  0
   15.2802  -21.3469   -0.6898 O   0  0  0  0  0  0  0  0  0  0  0  0
   11.1879  -20.8279    3.8475 C   0  0  0  0  0  0  0  0  0  0  0  0
   12.6557  -20.9148    3.4778 C   0  0  0  0  0  0  0  0  0  0  0  0
   12.7548  -21.8147    2.2726 C   0  0  2  0  0  0  0  0  0  0  0  0
   12.1567  -23.1699    2.5821 C   0  0  0  0  0  0  0  0  0  0  0  0
   14.1650  -21.9269    1.7449 C   0  0  2  0  0  0  0  0  0  0  0  0
   14.2803  -22.8565    0.6513 N   0  0  0  0  0  0  0  0  0  0  0  0
   15.0601  -22.3386    2.8467 C   0  0  0  0  0  0  0  0  0  0  0  0
   15.4361  -23.5281    2.8965 O   0  0  0  0  0  0  0  0  0  0  0  0
   15.4899  -21.4574    3.8137 O   0  0  0  0  0  0  0  0  0  0  0  0
  2  1  1  0
  2  3  2  0
  4  5  1  0
  4  2  1  0
  5  6  1  0
  6  8  1  0
  6  7  1  6
  8  9  2  0
 10  8  1  0
 10 11  1  0
 11 12  1  6
 13 12  1  0
 14 13  2  0
 15 14  1  0
 16 15  1  0
 16 17  2  0
 17 13  1  0
 18 19  2  0
 18 11  1  0
 21 20  1  0
 21 22  1  0
 22 24  1  0
 22 23  1  1
 24 25  1  6
 25 18  1  0
 26 24  1  0
 26 28  1  0
 27 26  2  0
M  END
$$$$
