QHI.pdb
     RDKit          3D

 28 28  0  0  1  0  0  0  0  0999 V2000
   30.2675  -19.6363  -18.9982 N   0  0  0  0  0  0  0  0  0  0  0  0
   30.2797  -18.2225  -19.1305 C   0  0  0  0  0  0  0  0  0  0  0  0
   31.3740  -17.6562  -19.3606 O   0  0  0  0  0  0  0  0  0  0  0  0
   29.0585  -17.4178  -19.0068 C   0  0  0  0  0  0  0  0  0  0  0  0
   27.8015  -18.1876  -18.7943 C   0  0  0  0  0  0  0  0  0  0  0  0
   27.8269  -19.1014  -17.5998 C   0  0  2  0  0  0  0  0  0  0  0  0
   27.8370  -20.4928  -18.0706 N   0  0  0  0  0  0  0  0  0  0  0  0
   26.5981  -18.9208  -16.7982 C   0  0  0  0  0  0  0  0  0  0  0  0
   26.6294  -18.3391  -15.7098 O   0  0  0  0  0  0  0  0  0  0  0  0
   25.3253  -19.4015  -17.2320 N   0  0  0  0  0  0  0  0  0  0  0  0
   24.1101  -19.2462  -16.4583 C   0  0  1  0  0  0  0  0  0  0  0  0
   22.8963  -19.1036  -17.3247 C   0  0  0  0  0  0  0  0  0  0  0  0
   21.6210  -18.9443  -16.6521 C   0  0  0  0  0  0  0  0  0  0  0  0
   21.2909  -18.0539  -15.6435 C   0  0  0  0  0  0  0  0  0  0  0  0
   20.0009  -18.2366  -15.3022 N   0  0  0  0  0  0  0  0  0  0  0  0
   19.5173  -19.2164  -16.0702 C   0  0  0  0  0  0  0  0  0  0  0  0
   20.4870  -19.6330  -16.8711 N   0  0  0  0  0  0  0  0  0  0  0  0
   24.0142  -20.1697  -15.3383 C   0  0  0  0  0  0  0  0  0  0  0  0
   24.3573  -21.3726  -15.5108 O   0  0  0  0  0  0  0  0  0  0  0  0
   26.5898  -20.0120  -10.9097 C   0  0  0  0  0  0  0  0  0  0  0  0
   25.8410  -20.4759  -12.1437 C   0  0  0  0  0  0  0  0  0  0  0  0
   24.3764  -20.5005  -11.7880 C   0  0  2  0  0  0  0  0  0  0  0  0
   24.1402  -21.4216  -10.6108 C   0  0  0  0  0  0  0  0  0  0  0  0
   23.4979  -20.8513  -12.9648 C   0  0  2  0  0  0  0  0  0  0  0  0
   23.5656  -19.8771  -14.0230 N   0  0  0  0  0  0  0  0  0  0  0  0
   22.1015  -20.9871  -12.4997 C   0  0  0  0  0  0  0  0  0  0  0  0
   21.6126  -22.1323  -12.4077 O   0  0  0  0  0  0  0  0  0  0  0  0
   21.3277  -19.8978  -12.1666 O   0  0  0  0  0  0  0  0  0  0  0  0
  2  1  1  0
  2  3  2  0
  4  5  1  0
  4  2  1  0
  5  6  1  0
  6  8  1  0
  6  7  1  6
  8  9  2  0
 10  8  1  0
 10 11  1  0
 11 12  1  6
 13 12  1  0
 14 13  2  0
 15 14  1  0
 16 15  1  0
 16 17  2  0
 17 13  1  0
 18 19  2  0
 18 11  1  0
 21 20  1  0
 21 22  1  0
 22 24  1  0
 22 23  1  1
 24 25  1  6
 25 18  1  0
 26 24  1  0
 26 28  1  0
 27 26  2  0
M  END
$$$$
