QHI.pdb
     RDKit          3D

 28 28  0  0  1  0  0  0  0  0999 V2000
   29.0601  -16.1479  -16.9439 N   0  0  0  0  0  0  0  0  0  0  0  0
   28.6651  -17.4885  -17.1954 C   0  0  0  0  0  0  0  0  0  0  0  0
   29.5569  -18.3367  -17.4332 O   0  0  0  0  0  0  0  0  0  0  0  0
   27.2565  -17.9011  -17.1832 C   0  0  0  0  0  0  0  0  0  0  0  0
   26.6244  -17.9861  -15.8375 C   0  0  0  0  0  0  0  0  0  0  0  0
   27.2225  -19.0300  -14.9348 C   0  0  2  0  0  0  0  0  0  0  0  0
   27.1770  -20.3284  -15.6203 N   0  0  0  0  0  0  0  0  0  0  0  0
   26.4141  -19.1579  -13.7038 C   0  0  0  0  0  0  0  0  0  0  0  0
   26.1031  -18.1633  -13.0419 O   0  0  0  0  0  0  0  0  0  0  0  0
   25.9542  -20.4201  -13.2194 N   0  0  0  0  0  0  0  0  0  0  0  0
   25.0485  -20.5598  -12.0970 C   0  0  1  0  0  0  0  0  0  0  0  0
   23.7827  -21.2688  -12.4700 C   0  0  0  0  0  0  0  0  0  0  0  0
   22.9123  -20.6069  -13.4231 C   0  0  0  0  0  0  0  0  0  0  0  0
   22.1426  -19.4709  -13.2335 C   0  0  0  0  0  0  0  0  0  0  0  0
   21.4837  -19.1922  -14.3746 N   0  0  0  0  0  0  0  0  0  0  0  0
   21.8214  -20.1231  -15.2708 C   0  0  0  0  0  0  0  0  0  0  0  0
   22.6719  -20.9619  -14.6977 N   0  0  0  0  0  0  0  0  0  0  0  0
   25.7059  -20.9876  -10.8718 C   0  0  0  0  0  0  0  0  0  0  0  0
   26.3636  -22.0654  -10.8789 O   0  0  0  0  0  0  0  0  0  0  0  0
   28.5997  -19.4226   -5.7871 C   0  0  0  0  0  0  0  0  0  0  0  0
   27.7010  -20.4806   -6.3967 C   0  0  0  0  0  0  0  0  0  0  0  0
   27.1222  -19.8942   -7.6590 C   0  0  2  0  0  0  0  0  0  0  0  0
   26.3840  -18.6104   -7.3477 C   0  0  0  0  0  0  0  0  0  0  0  0
   26.2563  -20.8752   -8.4122 C   0  0  2  0  0  0  0  0  0  0  0  0
   25.7010  -20.3191   -9.6188 N   0  0  0  0  0  0  0  0  0  0  0  0
   25.1661  -21.3344   -7.5261 C   0  0  0  0  0  0  0  0  0  0  0  0
   24.0102  -20.9109   -7.7345 O   0  0  0  0  0  0  0  0  0  0  0  0
   25.3832  -22.2090   -6.4849 O   0  0  0  0  0  0  0  0  0  0  0  0
  2  1  1  0
  2  3  2  0
  4  5  1  0
  4  2  1  0
  5  6  1  0
  6  8  1  0
  6  7  1  6
  8  9  2  0
 10  8  1  0
 10 11  1  0
 11 12  1  6
 13 12  1  0
 14 13  2  0
 15 14  1  0
 16 15  1  0
 16 17  2  0
 17 13  1  0
 18 19  2  0
 18 11  1  0
 21 20  1  0
 21 22  1  0
 22 24  1  0
 22 23  1  1
 24 25  1  6
 25 18  1  0
 26 24  1  0
 26 28  1  0
 27 26  2  0
M  END
$$$$
