QHI.pdb
     RDKit          3D

 28 28  0  0  1  0  0  0  0  0999 V2000
   26.0508  -19.5590  -17.1509 N   0  0  0  0  0  0  0  0  0  0  0  0
   27.2303  -18.9147  -17.6094 C   0  0  0  0  0  0  0  0  0  0  0  0
   27.6259  -19.1567  -18.7739 O   0  0  0  0  0  0  0  0  0  0  0  0
   27.9880  -17.9836  -16.7648 C   0  0  0  0  0  0  0  0  0  0  0  0
   27.4245  -17.7450  -15.4071 C   0  0  0  0  0  0  0  0  0  0  0  0
   27.8862  -18.7232  -14.3620 C   0  0  2  0  0  0  0  0  0  0  0  0
   28.0608  -20.0388  -14.9917 N   0  0  0  0  0  0  0  0  0  0  0  0
   26.8514  -18.8734  -13.3171 C   0  0  0  0  0  0  0  0  0  0  0  0
   26.3922  -17.8884  -12.7315 O   0  0  0  0  0  0  0  0  0  0  0  0
   26.3326  -20.1472  -12.9331 N   0  0  0  0  0  0  0  0  0  0  0  0
   25.2996  -20.3167  -11.9312 C   0  0  1  0  0  0  0  0  0  0  0  0
   24.0625  -20.9511  -12.4888 C   0  0  0  0  0  0  0  0  0  0  0  0
   23.4022  -20.2612  -13.5807 C   0  0  0  0  0  0  0  0  0  0  0  0
   23.6222  -20.4043  -14.9408 C   0  0  0  0  0  0  0  0  0  0  0  0
   22.7954  -19.5766  -15.6082 N   0  0  0  0  0  0  0  0  0  0  0  0
   22.0658  -18.9212  -14.7017 C   0  0  0  0  0  0  0  0  0  0  0  0
   22.4323  -19.3335  -13.4971 N   0  0  0  0  0  0  0  0  0  0  0  0
   25.7971  -20.8422  -10.6691 C   0  0  0  0  0  0  0  0  0  0  0  0
   26.5833  -21.8301  -10.6893 O   0  0  0  0  0  0  0  0  0  0  0  0
   28.6010  -18.7319   -6.8109 C   0  0  0  0  0  0  0  0  0  0  0  0
   27.9819  -19.6962   -7.8037 C   0  0  0  0  0  0  0  0  0  0  0  0
   26.6714  -20.1539   -7.2159 C   0  0  2  0  0  0  0  0  0  0  0  0
   26.9032  -20.8154   -5.8748 C   0  0  0  0  0  0  0  0  0  0  0  0
   25.8906  -21.0407   -8.1558 C   0  0  2  0  0  0  0  0  0  0  0  0
   25.4981  -20.3651   -9.3654 N   0  0  0  0  0  0  0  0  0  0  0  0
   24.6918  -21.5474   -7.4553 C   0  0  0  0  0  0  0  0  0  0  0  0
   23.5830  -21.0440   -7.7310 O   0  0  0  0  0  0  0  0  0  0  0  0
   24.7585  -22.5507   -6.5145 O   0  0  0  0  0  0  0  0  0  0  0  0
  2  1  1  0
  2  3  2  0
  4  5  1  0
  4  2  1  0
  5  6  1  0
  6  8  1  0
  6  7  1  6
  8  9  2  0
 10  8  1  0
 10 11  1  0
 11 12  1  6
 13 12  1  0
 14 13  2  0
 15 14  1  0
 16 15  1  0
 16 17  2  0
 17 13  1  0
 18 19  2  0
 18 11  1  0
 21 20  1  0
 21 22  1  0
 22 24  1  0
 22 23  1  1
 24 25  1  6
 25 18  1  0
 26 24  1  0
 26 28  1  0
 27 26  2  0
M  END
$$$$
