QHI.pdb
     RDKit          3D

 28 28  0  0  1  0  0  0  0  0999 V2000
   25.2144  -24.9696  -14.8564 N   0  0  0  0  0  0  0  0  0  0  0  0
   24.6947  -24.1960  -15.9278 C   0  0  0  0  0  0  0  0  0  0  0  0
   24.8296  -22.9506  -15.8823 O   0  0  0  0  0  0  0  0  0  0  0  0
   24.0128  -24.8102  -17.0733 C   0  0  0  0  0  0  0  0  0  0  0  0
   24.0216  -26.2991  -17.1024 C   0  0  0  0  0  0  0  0  0  0  0  0
   24.9616  -26.8953  -18.1139 C   0  0  2  0  0  0  0  0  0  0  0  0
   24.3530  -26.7841  -19.4462 N   0  0  0  0  0  0  0  0  0  0  0  0
   25.1526  -28.3353  -17.8402 C   0  0  0  0  0  0  0  0  0  0  0  0
   24.2838  -29.1596  -18.1400 O   0  0  0  0  0  0  0  0  0  0  0  0
   26.3353  -28.8457  -17.2237 N   0  0  0  0  0  0  0  0  0  0  0  0
   26.5431  -30.2519  -16.9430 C   0  0  1  0  0  0  0  0  0  0  0  0
   27.9726  -30.5645  -16.6223 C   0  0  0  0  0  0  0  0  0  0  0  0
   28.3055  -31.9558  -16.3818 C   0  0  0  0  0  0  0  0  0  0  0  0
   27.4703  -33.0590  -16.4473 C   0  0  0  0  0  0  0  0  0  0  0  0
   28.1807  -34.1648  -16.1530 N   0  0  0  0  0  0  0  0  0  0  0  0
   29.4360  -33.7816  -15.9058 C   0  0  0  0  0  0  0  0  0  0  0  0
   29.5030  -32.4656  -16.0436 N   0  0  0  0  0  0  0  0  0  0  0  0
   25.5320  -30.8236  -16.0671 C   0  0  0  0  0  0  0  0  0  0  0  0
   25.3666  -30.3218  -14.9203 O   0  0  0  0  0  0  0  0  0  0  0  0
   20.6109  -31.1676  -17.3405 C   0  0  0  0  0  0  0  0  0  0  0  0
   21.8802  -31.0014  -16.5282 C   0  0  0  0  0  0  0  0  0  0  0  0
   22.2772  -32.3726  -16.0442 C   0  0  2  0  0  0  0  0  0  0  0  0
   21.2357  -32.9103  -15.0870 C   0  0  0  0  0  0  0  0  0  0  0  0
   23.6626  -32.3993  -15.4446 C   0  0  2  0  0  0  0  0  0  0  0  0
   24.6732  -31.9186  -16.3507 N   0  0  0  0  0  0  0  0  0  0  0  0
   23.9810  -33.7815  -15.0291 C   0  0  0  0  0  0  0  0  0  0  0  0
   23.7091  -34.1307  -13.8617 O   0  0  0  0  0  0  0  0  0  0  0  0
   24.5642  -34.6906  -15.8833 O   0  0  0  0  0  0  0  0  0  0  0  0
  2  1  1  0
  2  3  2  0
  4  5  1  0
  4  2  1  0
  5  6  1  0
  6  8  1  0
  6  7  1  6
  8  9  2  0
 10  8  1  0
 10 11  1  0
 11 12  1  1
 13 12  1  0
 14 13  2  0
 15 14  1  0
 16 15  1  0
 16 17  2  0
 17 13  1  0
 18 19  2  0
 18 11  1  0
 21 20  1  0
 21 22  1  0
 22 24  1  0
 22 23  1  1
 24 25  1  6
 25 18  1  0
 26 24  1  0
 26 28  1  0
 27 26  2  0
M  END
$$$$
