QHI.pdb
     RDKit          3D

 28 28  0  0  1  0  0  0  0  0999 V2000
   26.7525  -36.8308  -15.9586 N   0  0  0  0  0  0  0  0  0  0  0  0
   25.7711  -36.7642  -16.9828 C   0  0  0  0  0  0  0  0  0  0  0  0
   25.8777  -37.5417  -17.9602 O   0  0  0  0  0  0  0  0  0  0  0  0
   24.6485  -35.8202  -16.9261 C   0  0  0  0  0  0  0  0  0  0  0  0
   24.6010  -34.9516  -15.7173 C   0  0  0  0  0  0  0  0  0  0  0  0
   24.4820  -33.4817  -16.0127 C   0  0  2  0  0  0  0  0  0  0  0  0
   25.7627  -33.0033  -16.5500 N   0  0  0  0  0  0  0  0  0  0  0  0
   24.2261  -32.7336  -14.7637 C   0  0  0  0  0  0  0  0  0  0  0  0
   25.1242  -32.5527  -13.9362 O   0  0  0  0  0  0  0  0  0  0  0  0
   22.9451  -32.1859  -14.4497 N   0  0  0  0  0  0  0  0  0  0  0  0
   22.6625  -31.4780  -13.2175 C   0  0  1  0  0  0  0  0  0  0  0  0
   21.4275  -30.6356  -13.3138 C   0  0  0  0  0  0  0  0  0  0  0  0
   21.0912  -29.8241  -12.1594 C   0  0  0  0  0  0  0  0  0  0  0  0
   21.7461  -29.7570  -10.9406 C   0  0  0  0  0  0  0  0  0  0  0  0
   21.1056  -28.8777  -10.1464 N   0  0  0  0  0  0  0  0  0  0  0  0
   20.0692  -28.3945  -10.8365 C   0  0  0  0  0  0  0  0  0  0  0  0
   20.0667  -28.9622  -12.0336 N   0  0  0  0  0  0  0  0  0  0  0  0
   22.8041  -32.3046  -12.0288 C   0  0  0  0  0  0  0  0  0  0  0  0
   22.4835  -33.5242  -12.0943 O   0  0  0  0  0  0  0  0  0  0  0  0
   26.8482  -33.6611   -7.9361 C   0  0  0  0  0  0  0  0  0  0  0  0
   25.3470  -33.7129   -8.1421 C   0  0  0  0  0  0  0  0  0  0  0  0
   25.0141  -32.7091   -9.2162 C   0  0  2  0  0  0  0  0  0  0  0  0
   25.3610  -31.3116   -8.7507 C   0  0  0  0  0  0  0  0  0  0  0  0
   23.5816  -32.8098   -9.6824 C   0  0  2  0  0  0  0  0  0  0  0  0
   23.2766  -31.8965  -10.7532 N   0  0  0  0  0  0  0  0  0  0  0  0
   22.6832  -32.5540   -8.5369 C   0  0  0  0  0  0  0  0  0  0  0  0
   22.6263  -33.4027   -7.6229 O   0  0  0  0  0  0  0  0  0  0  0  0
   21.9122  -31.4167   -8.4461 O   0  0  0  0  0  0  0  0  0  0  0  0
  2  1  1  0
  2  3  2  0
  4  5  1  0
  4  2  1  0
  5  6  1  0
  6  8  1  0
  6  7  1  1
  8  9  2  0
 10  8  1  0
 10 11  1  0
 11 12  1  6
 13 12  1  0
 14 13  2  0
 15 14  1  0
 16 15  1  0
 16 17  2  0
 17 13  1  0
 18 19  2  0
 18 11  1  0
 21 20  1  0
 21 22  1  0
 22 24  1  0
 22 23  1  1
 24 25  1  6
 25 18  1  0
 26 24  1  0
 26 28  1  0
 27 26  2  0
M  END
$$$$
