QHI.pdb
     RDKit          3D

 28 28  0  0  1  0  0  0  0  0999 V2000
   34.3892  -25.8993  -14.2715 N   0  0  0  0  0  0  0  0  0  0  0  0
   35.2730  -25.9637  -15.3811 C   0  0  0  0  0  0  0  0  0  0  0  0
   34.8314  -25.6518  -16.5120 O   0  0  0  0  0  0  0  0  0  0  0  0
   36.6732  -26.3803  -15.2388 C   0  0  0  0  0  0  0  0  0  0  0  0
   37.2456  -27.1142  -16.4013 C   0  0  0  0  0  0  0  0  0  0  0  0
   36.8937  -28.5757  -16.4480 C   0  0  2  0  0  0  0  0  0  0  0  0
   37.5810  -29.2618  -15.3458 N   0  0  0  0  0  0  0  0  0  0  0  0
   37.3835  -29.1744  -17.7076 C   0  0  0  0  0  0  0  0  0  0  0  0
   38.4799  -29.7397  -17.7581 O   0  0  0  0  0  0  0  0  0  0  0  0
   36.6268  -29.1334  -18.9181 N   0  0  0  0  0  0  0  0  0  0  0  0
   37.0171  -29.8342  -20.1247 C   0  0  1  0  0  0  0  0  0  0  0  0
   35.9911  -30.8349  -20.5605 C   0  0  0  0  0  0  0  0  0  0  0  0
   35.8574  -32.0351  -19.7569 C   0  0  0  0  0  0  0  0  0  0  0  0
   36.7278  -32.5225  -18.7957 C   0  0  0  0  0  0  0  0  0  0  0  0
   36.2253  -33.6643  -18.2877 N   0  0  0  0  0  0  0  0  0  0  0  0
   35.0654  -33.9023  -18.9057 C   0  0  0  0  0  0  0  0  0  0  0  0
   34.8529  -32.9287  -19.7788 N   0  0  0  0  0  0  0  0  0  0  0  0
   37.5616  -28.9600  -21.1522 C   0  0  0  0  0  0  0  0  0  0  0  0
   37.3267  -27.7212  -21.0838 O   0  0  0  0  0  0  0  0  0  0  0  0
   42.5083  -27.7377  -24.2882 C   0  0  0  0  0  0  0  0  0  0  0  0
   41.0013  -27.5816  -24.3438 C   0  0  0  0  0  0  0  0  0  0  0  0
   40.4228  -28.5096  -23.3064 C   0  0  2  0  0  0  0  0  0  0  0  0
   40.8727  -29.9306  -23.5679 C   0  0  0  0  0  0  0  0  0  0  0  0
   38.9202  -28.4028  -23.2037 C   0  0  2  0  0  0  0  0  0  0  0  0
   38.3559  -29.3394  -22.2667 N   0  0  0  0  0  0  0  0  0  0  0  0
   38.3296  -28.6177  -24.5415 C   0  0  0  0  0  0  0  0  0  0  0  0
   37.8947  -29.7530  -24.8258 O   0  0  0  0  0  0  0  0  0  0  0  0
   38.2442  -27.6119  -25.4782 O   0  0  0  0  0  0  0  0  0  0  0  0
  2  1  1  0
  2  3  2  0
  4  5  1  0
  4  2  1  0
  5  6  1  0
  6  8  1  0
  6  7  1  1
  8  9  2  0
 10  8  1  0
 10 11  1  0
 11 12  1  6
 13 12  1  0
 14 13  2  0
 15 14  1  0
 16 15  1  0
 16 17  2  0
 17 13  1  0
 18 19  2  0
 18 11  1  0
 21 20  1  0
 21 22  1  0
 22 24  1  0
 22 23  1  6
 24 25  1  1
 25 18  1  0
 26 24  1  0
 26 28  1  0
 27 26  2  0
M  END
$$$$
