AYV.pdb
     RDKit          3D

 25 25  0  0  1  0  0  0  0  0999 V2000
   11.1292  -16.7008   19.2461 C   0  0  0  0  0  0  0  0  0  0  0  0
   11.2500  -17.2759   20.6306 C   0  0  2  0  0  0  0  0  0  0  0  0
   10.5358  -18.5145   20.7852 N   0  0  0  0  0  0  0  0  0  0  0  0
   10.7934  -16.2704   21.6529 C   0  0  0  0  0  0  0  0  0  0  0  0
   11.4132  -15.1696   21.7200 O   0  0  0  0  0  0  0  0  0  0  0  0
    5.6451  -11.7241   27.0483 O   0  0  0  0  0  0  0  0  0  0  0  0
    6.1794  -12.6618   26.1655 C   0  0  0  0  0  0  0  0  0  0  0  0
    5.9407  -14.0031   26.3349 C   0  0  0  0  0  0  0  0  0  0  0  0
    6.4872  -14.8883   25.4413 C   0  0  0  0  0  0  0  0  0  0  0  0
    7.2705  -14.4832   24.3745 C   0  0  0  0  0  0  0  0  0  0  0  0
    7.8148  -15.5268   23.4720 C   0  0  0  0  0  0  0  0  0  0  0  0
    9.3258  -15.6233   23.5068 C   0  0  2  0  0  0  0  0  0  0  0  0
    9.6972  -16.5931   22.4924 N   0  0  0  0  0  0  0  0  0  0  0  0
    9.8308  -16.1476   24.7961 C   0  0  0  0  0  0  0  0  0  0  0  0
   10.0948  -17.3812   24.9499 O   0  0  0  0  0  0  0  0  0  0  0  0
    7.4946  -13.1451   24.2257 C   0  0  0  0  0  0  0  0  0  0  0  0
    6.9582  -12.2281   25.1089 C   0  0  0  0  0  0  0  0  0  0  0  0
   11.7069  -13.6420   27.5149 C   0  0  0  0  0  0  0  0  0  0  0  0
   10.9400  -14.7776   28.1563 C   0  0  1  0  0  0  0  0  0  0  0  0
    9.6933  -14.2060   28.7684 C   0  0  0  0  0  0  0  0  0  0  0  0
   10.6398  -15.8567   27.1396 C   0  0  2  0  0  0  0  0  0  0  0  0
   10.0555  -15.3310   25.9385 N   0  0  0  0  0  0  0  0  0  0  0  0
    9.7660  -16.8616   27.7933 C   0  0  0  0  0  0  0  0  0  0  0  0
   10.2930  -17.7466   28.7020 O   0  0  0  0  0  0  0  0  0  0  0  0
    8.5340  -16.9420   27.5473 O   0  0  0  0  0  0  0  0  0  0  0  0
  2  1  1  6
  2  3  1  0
  4  5  2  0
  4  2  1  0
  6  7  1  0
  7 17  2  0
  8  9  2  0
  8  7  1  0
  9 10  1  0
 10 11  1  0
 10 16  2  0
 12 11  1  1
 12 13  1  0
 13  4  1  0
 14 12  1  0
 15 14  2  0
 17 16  1  0
 19 18  1  6
 19 21  1  0
 19 20  1  0
 21 23  1  0
 21 22  1  6
 22 14  1  0
 23 24  1  0
 25 23  2  0
M  END
$$$$
