AYV.pdb
     RDKit          3D

 25 25  0  0  1  0  0  0  0  0999 V2000
    6.6008  -14.7646   20.0118 C   0  0  0  0  0  0  0  0  0  0  0  0
    7.0468  -13.4476   20.5853 C   0  0  2  0  0  0  0  0  0  0  0  0
    7.6461  -12.5850   19.6031 N   0  0  0  0  0  0  0  0  0  0  0  0
    7.9893  -13.6743   21.7364 C   0  0  0  0  0  0  0  0  0  0  0  0
    9.2317  -13.6040   21.5082 O   0  0  0  0  0  0  0  0  0  0  0  0
   10.6804  -15.1368   30.0015 O   0  0  0  0  0  0  0  0  0  0  0  0
    9.9325  -14.8371   28.8635 C   0  0  0  0  0  0  0  0  0  0  0  0
    9.1827  -15.8034   28.2400 C   0  0  0  0  0  0  0  0  0  0  0  0
    8.4632  -15.4619   27.1236 C   0  0  0  0  0  0  0  0  0  0  0  0
    8.4628  -14.1807   26.5997 C   0  0  0  0  0  0  0  0  0  0  0  0
    7.6517  -13.9234   25.3850 C   0  0  0  0  0  0  0  0  0  0  0  0
    8.3946  -14.2035   24.0954 C   0  0  2  0  0  0  0  0  0  0  0  0
    7.4532  -13.9550   23.0186 N   0  0  0  0  0  0  0  0  0  0  0  0
    8.8077  -15.6203   23.9754 C   0  0  0  0  0  0  0  0  0  0  0  0
    7.9528  -16.5462   23.8102 O   0  0  0  0  0  0  0  0  0  0  0  0
    9.2155  -13.2364   27.2358 C   0  0  0  0  0  0  0  0  0  0  0  0
    9.9512  -13.5489   28.3626 C   0  0  0  0  0  0  0  0  0  0  0  0
   10.7424  -17.4199   21.4651 C   0  0  0  0  0  0  0  0  0  0  0  0
   11.4406  -17.7169   22.7741 C   0  0  1  0  0  0  0  0  0  0  0  0
   12.6977  -16.8966   22.8240 C   0  0  0  0  0  0  0  0  0  0  0  0
   10.5220  -17.4344   23.9421 C   0  0  2  0  0  0  0  0  0  0  0  0
   10.1627  -16.0478   24.0342 N   0  0  0  0  0  0  0  0  0  0  0  0
   11.1937  -17.9210   25.1720 C   0  0  0  0  0  0  0  0  0  0  0  0
   11.5386  -17.0371   26.1652 O   0  0  0  0  0  0  0  0  0  0  0  0
   11.4686  -19.1364   25.3511 O   0  0  0  0  0  0  0  0  0  0  0  0
  2  1  1  6
  2  3  1  0
  4  5  2  0
  4  2  1  0
  6  7  1  0
  7 17  2  0
  8  9  2  0
  8  7  1  0
  9 10  1  0
 10 11  1  0
 10 16  2  0
 12 11  1  1
 12 13  1  0
 13  4  1  0
 14 12  1  0
 15 14  2  0
 17 16  1  0
 19 18  1  6
 19 21  1  0
 19 20  1  0
 21 23  1  0
 21 22  1  1
 22 14  1  0
 23 24  1  0
 25 23  2  0
M  END
$$$$
