AYV.pdb
     RDKit          3D

 25 25  0  0  1  0  0  0  0  0999 V2000
    9.1907  -18.1428   19.3519 C   0  0  0  0  0  0  0  0  0  0  0  0
    8.8981  -18.3729   20.8092 C   0  0  2  0  0  0  0  0  0  0  0  0
    7.5379  -18.7731   21.0494 N   0  0  0  0  0  0  0  0  0  0  0  0
    9.2370  -17.1433   21.6079 C   0  0  0  0  0  0  0  0  0  0  0  0
   10.4349  -16.7366   21.5910 O   0  0  0  0  0  0  0  0  0  0  0  0
    7.6865  -12.6450   17.2917 O   0  0  0  0  0  0  0  0  0  0  0  0
    7.6398  -13.0422   18.6274 C   0  0  0  0  0  0  0  0  0  0  0  0
    8.5206  -12.5268   19.5457 C   0  0  0  0  0  0  0  0  0  0  0  0
    8.4366  -12.9474   20.8484 C   0  0  0  0  0  0  0  0  0  0  0  0
    7.4985  -13.8715   21.2747 C   0  0  0  0  0  0  0  0  0  0  0  0
    7.5005  -14.2588   22.7064 C   0  0  0  0  0  0  0  0  0  0  0  0
    8.5642  -15.2799   23.0517 C   0  0  2  0  0  0  0  0  0  0  0  0
    8.2107  -16.4953   22.3408 N   0  0  0  0  0  0  0  0  0  0  0  0
    8.5750  -15.6222   24.4921 C   0  0  0  0  0  0  0  0  0  0  0  0
    7.7885  -15.0533   25.3125 O   0  0  0  0  0  0  0  0  0  0  0  0
    6.6332  -14.3705   20.3446 C   0  0  0  0  0  0  0  0  0  0  0  0
    6.6921  -13.9669   19.0246 C   0  0  0  0  0  0  0  0  0  0  0  0
    8.1237  -19.3071   25.1439 C   0  0  0  0  0  0  0  0  0  0  0  0
    7.8592  -18.1526   26.0853 C   0  0  1  0  0  0  0  0  0  0  0  0
    7.3720  -18.7203   27.3876 C   0  0  0  0  0  0  0  0  0  0  0  0
    9.1035  -17.3093   26.2544 C   0  0  2  0  0  0  0  0  0  0  0  0
    9.4466  -16.5924   25.0591 N   0  0  0  0  0  0  0  0  0  0  0  0
   10.1977  -18.2049   26.7030 C   0  0  0  0  0  0  0  0  0  0  0  0
   10.1767  -18.7389   27.9683 O   0  0  0  0  0  0  0  0  0  0  0  0
   11.1678  -18.5049   25.9589 O   0  0  0  0  0  0  0  0  0  0  0  0
  2  1  1  6
  2  3  1  0
  4  5  2  0
  4  2  1  0
  6  7  1  0
  7 17  2  0
  8  9  2  0
  8  7  1  0
  9 10  1  0
 10 11  1  0
 10 16  2  0
 12 11  1  1
 12 13  1  0
 13  4  1  0
 14 12  1  0
 15 14  2  0
 17 16  1  0
 19 18  1  6
 19 21  1  0
 19 20  1  0
 21 23  1  0
 21 22  1  6
 22 14  1  0
 23 24  1  0
 25 23  2  0
M  END
$$$$
