AYV.pdb
     RDKit          3D

 25 25  0  0  1  0  0  0  0  0999 V2000
   11.2103  -16.5687   19.4165 C   0  0  0  0  0  0  0  0  0  0  0  0
   11.3211  -17.2819   20.7360 C   0  0  2  0  0  0  0  0  0  0  0  0
   10.5258  -18.4787   20.7926 N   0  0  0  0  0  0  0  0  0  0  0  0
   10.9585  -16.3516   21.8619 C   0  0  0  0  0  0  0  0  0  0  0  0
   11.6824  -15.3301   22.0437 O   0  0  0  0  0  0  0  0  0  0  0  0
    5.6119  -11.7211   26.9925 O   0  0  0  0  0  0  0  0  0  0  0  0
    6.1780  -12.6885   26.1633 C   0  0  0  0  0  0  0  0  0  0  0  0
    6.0550  -14.0244   26.4551 C   0  0  0  0  0  0  0  0  0  0  0  0
    6.6285  -14.9397   25.6101 C   0  0  0  0  0  0  0  0  0  0  0  0
    7.3271  -14.5703   24.4738 C   0  0  0  0  0  0  0  0  0  0  0  0
    7.9107  -15.6438   23.6331 C   0  0  0  0  0  0  0  0  0  0  0  0
    9.4249  -15.6610   23.6454 C   0  0  2  0  0  0  0  0  0  0  0  0
    9.8308  -16.6534   22.6667 N   0  0  0  0  0  0  0  0  0  0  0  0
    9.9763  -16.1023   24.9467 C   0  0  0  0  0  0  0  0  0  0  0  0
   10.4032  -17.2875   25.1158 O   0  0  0  0  0  0  0  0  0  0  0  0
    7.4368  -13.2370   24.2035 C   0  0  0  0  0  0  0  0  0  0  0  0
    6.8702  -12.2902   25.0350 C   0  0  0  0  0  0  0  0  0  0  0  0
   11.4044  -13.3914   27.7753 C   0  0  0  0  0  0  0  0  0  0  0  0
   10.7254  -14.6119   28.3572 C   0  0  1  0  0  0  0  0  0  0  0  0
    9.3766  -14.1917   28.8667 C   0  0  0  0  0  0  0  0  0  0  0  0
   10.6332  -15.7121   27.3231 C   0  0  2  0  0  0  0  0  0  0  0  0
   10.0698  -15.2547   26.0847 N   0  0  0  0  0  0  0  0  0  0  0  0
    9.8511  -16.8242   27.9165 C   0  0  0  0  0  0  0  0  0  0  0  0
    8.6146  -17.1441   27.4112 O   0  0  0  0  0  0  0  0  0  0  0  0
   10.2795  -17.5045   28.8852 O   0  0  0  0  0  0  0  0  0  0  0  0
  2  1  1  6
  2  3  1  0
  4  5  2  0
  4  2  1  0
  6  7  1  0
  7 17  2  0
  8  9  2  0
  8  7  1  0
  9 10  1  0
 10 11  1  0
 10 16  2  0
 12 11  1  1
 12 13  1  0
 13  4  1  0
 14 12  1  0
 15 14  2  0
 17 16  1  0
 19 18  1  6
 19 21  1  0
 19 20  1  0
 21 23  1  0
 21 22  1  6
 22 14  1  0
 23 24  1  0
 25 23  2  0
M  END
$$$$
