AYV.pdb
     RDKit          3D

 25 25  0  0  1  0  0  0  0  0999 V2000
    7.7421  -12.0064   19.3122 C   0  0  0  0  0  0  0  0  0  0  0  0
    8.5117  -13.2588   18.9939 C   0  0  2  0  0  0  0  0  0  0  0  0
    8.1858  -13.8016   17.7027 N   0  0  0  0  0  0  0  0  0  0  0  0
    8.2976  -14.2883   20.0704 C   0  0  0  0  0  0  0  0  0  0  0  0
    7.6358  -15.3255   19.7759 O   0  0  0  0  0  0  0  0  0  0  0  0
   14.4569  -14.6424   19.7960 O   0  0  0  0  0  0  0  0  0  0  0  0
   13.2406  -15.0328   20.3549 C   0  0  0  0  0  0  0  0  0  0  0  0
   12.2420  -15.5556   19.5712 C   0  0  0  0  0  0  0  0  0  0  0  0
   11.0627  -15.9258   20.1654 C   0  0  0  0  0  0  0  0  0  0  0  0
   10.8388  -15.7934   21.5248 C   0  0  0  0  0  0  0  0  0  0  0  0
    9.5239  -16.2216   22.0608 C   0  0  0  0  0  0  0  0  0  0  0  0
    8.5976  -15.0656   22.3758 C   0  0  2  0  0  0  0  0  0  0  0  0
    8.8408  -14.0578   21.3596 N   0  0  0  0  0  0  0  0  0  0  0  0
    8.9039  -14.4326   23.6789 C   0  0  0  0  0  0  0  0  0  0  0  0
   10.0393  -13.9100   23.9090 O   0  0  0  0  0  0  0  0  0  0  0  0
   11.8454  -15.2712   22.2844 C   0  0  0  0  0  0  0  0  0  0  0  0
   13.0451  -14.8889   21.7158 C   0  0  0  0  0  0  0  0  0  0  0  0
    7.3023  -11.5396   25.6882 C   0  0  0  0  0  0  0  0  0  0  0  0
    7.2811  -12.8062   26.5156 C   0  0  1  0  0  0  0  0  0  0  0  0
    5.8917  -13.3735   26.4571 C   0  0  0  0  0  0  0  0  0  0  0  0
    8.3234  -13.7831   26.0182 C   0  0  2  0  0  0  0  0  0  0  0  0
    7.9732  -14.3608   24.7517 N   0  0  0  0  0  0  0  0  0  0  0  0
    8.5143  -14.8127   27.0690 C   0  0  0  0  0  0  0  0  0  0  0  0
    8.2613  -16.1344   26.7935 O   0  0  0  0  0  0  0  0  0  0  0  0
    8.9071  -14.5232   28.2294 O   0  0  0  0  0  0  0  0  0  0  0  0
  2  1  1  1
  2  3  1  0
  4  5  2  0
  4  2  1  0
  6  7  1  0
  7 17  2  0
  8  9  2  0
  8  7  1  0
  9 10  1  0
 10 11  1  0
 10 16  2  0
 12 11  1  6
 12 13  1  0
 13  4  1  0
 14 12  1  0
 15 14  2  0
 17 16  1  0
 19 18  1  6
 19 21  1  0
 19 20  1  0
 21 23  1  0
 21 22  1  6
 22 14  1  0
 23 24  1  0
 25 23  2  0
M  END
$$$$
