AYV.pdb
     RDKit          3D

 25 25  0  0  1  0  0  0  0  0999 V2000
    8.8294  -18.4894   19.5263 C   0  0  0  0  0  0  0  0  0  0  0  0
    9.2087  -17.0399   19.3942 C   0  0  2  0  0  0  0  0  0  0  0  0
   10.4068  -16.8440   18.6232 N   0  0  0  0  0  0  0  0  0  0  0  0
    9.3465  -16.4126   20.7552 C   0  0  0  0  0  0  0  0  0  0  0  0
   10.4972  -16.3812   21.2800 O   0  0  0  0  0  0  0  0  0  0  0  0
    7.1494  -11.6949   27.8661 O   0  0  0  0  0  0  0  0  0  0  0  0
    7.1408  -12.3681   26.6452 C   0  0  0  0  0  0  0  0  0  0  0  0
    7.8002  -11.8565   25.5552 C   0  0  0  0  0  0  0  0  0  0  0  0
    7.7639  -12.5542   24.3750 C   0  0  0  0  0  0  0  0  0  0  0  0
    7.0885  -13.7546   24.2388 C   0  0  0  0  0  0  0  0  0  0  0  0
    7.1112  -14.4221   22.9146 C   0  0  0  0  0  0  0  0  0  0  0  0
    8.3803  -15.2078   22.6589 C   0  0  2  0  0  0  0  0  0  0  0  0
    8.1927  -15.8865   21.3895 N   0  0  0  0  0  0  0  0  0  0  0  0
    8.6071  -16.2637   23.6718 C   0  0  0  0  0  0  0  0  0  0  0  0
    7.8401  -17.2736   23.7567 O   0  0  0  0  0  0  0  0  0  0  0  0
    6.4400  -14.2442   25.3354 C   0  0  0  0  0  0  0  0  0  0  0  0
    6.4577  -13.5652   26.5385 C   0  0  0  0  0  0  0  0  0  0  0  0
   11.3025  -18.5799   23.9006 C   0  0  0  0  0  0  0  0  0  0  0  0
   11.2422  -17.9897   25.2925 C   0  0  1  0  0  0  0  0  0  0  0  0
   12.3988  -17.0436   25.4439 C   0  0  0  0  0  0  0  0  0  0  0  0
    9.9099  -17.3123   25.5250 C   0  0  2  0  0  0  0  0  0  0  0  0
    9.6766  -16.2324   24.6086 N   0  0  0  0  0  0  0  0  0  0  0  0
    9.8726  -16.8641   26.9386 C   0  0  0  0  0  0  0  0  0  0  0  0
    9.7942  -15.5254   27.2358 O   0  0  0  0  0  0  0  0  0  0  0  0
    9.9102  -17.6744   27.9013 O   0  0  0  0  0  0  0  0  0  0  0  0
  2  1  1  1
  2  3  1  0
  4  5  2  0
  4  2  1  0
  6  7  1  0
  7 17  2  0
  8  9  2  0
  8  7  1  0
  9 10  1  0
 10 11  1  0
 10 16  2  0
 12 11  1  1
 12 13  1  0
 13  4  1  0
 14 12  1  0
 15 14  2  0
 17 16  1  0
 19 18  1  6
 19 21  1  0
 19 20  1  0
 21 23  1  0
 21 22  1  6
 22 14  1  0
 23 24  1  0
 25 23  2  0
M  END
$$$$
