AYV.pdb
     RDKit          3D

 25 25  0  0  1  0  0  0  0  0999 V2000
    6.1856  -18.5262   21.0441 C   0  0  0  0  0  0  0  0  0  0  0  0
    6.4340  -17.9387   22.4061 C   0  0  2  0  0  0  0  0  0  0  0  0
    5.2571  -17.3459   22.9820 N   0  0  0  0  0  0  0  0  0  0  0  0
    7.5550  -16.9365   22.3434 C   0  0  0  0  0  0  0  0  0  0  0  0
    8.6787  -17.3297   21.9156 O   0  0  0  0  0  0  0  0  0  0  0  0
    7.9345  -13.8178   16.4142 O   0  0  0  0  0  0  0  0  0  0  0  0
    7.9311  -13.7191   17.8049 C   0  0  0  0  0  0  0  0  0  0  0  0
    9.0948  -13.4905   18.4967 C   0  0  0  0  0  0  0  0  0  0  0  0
    9.0424  -13.4009   19.8642 C   0  0  0  0  0  0  0  0  0  0  0  0
    7.8623  -13.5317   20.5755 C   0  0  0  0  0  0  0  0  0  0  0  0
    7.9220  -13.4217   22.0534 C   0  0  0  0  0  0  0  0  0  0  0  0
    8.4278  -14.6786   22.7299 C   0  0  2  0  0  0  0  0  0  0  0  0
    7.3099  -15.6042   22.7621 N   0  0  0  0  0  0  0  0  0  0  0  0
    8.8222  -14.4451   24.1378 C   0  0  0  0  0  0  0  0  0  0  0  0
    9.8228  -13.7187   24.4320 O   0  0  0  0  0  0  0  0  0  0  0  0
    6.7179  -13.7586   19.8672 C   0  0  0  0  0  0  0  0  0  0  0  0
    6.7375  -13.8540   18.4890 C   0  0  0  0  0  0  0  0  0  0  0  0
    7.9902  -12.2413   26.5851 C   0  0  0  0  0  0  0  0  0  0  0  0
    7.6168  -13.5822   27.1782 C   0  0  1  0  0  0  0  0  0  0  0  0
    6.1555  -13.8117   26.9186 C   0  0  0  0  0  0  0  0  0  0  0  0
    8.4836  -14.6787   26.5999 C   0  0  2  0  0  0  0  0  0  0  0  0
    8.1287  -15.0022   25.2473 N   0  0  0  0  0  0  0  0  0  0  0  0
    8.3851  -15.8535   27.5004 C   0  0  0  0  0  0  0  0  0  0  0  0
    7.9457  -17.0604   27.0136 O   0  0  0  0  0  0  0  0  0  0  0  0
    8.6932  -15.7930   28.7194 O   0  0  0  0  0  0  0  0  0  0  0  0
  2  1  1  6
  2  3  1  0
  4  5  2  0
  4  2  1  0
  6  7  1  0
  7 17  2  0
  8  9  2  0
  8  7  1  0
  9 10  1  0
 10 11  1  0
 10 16  2  0
 12 11  1  1
 12 13  1  0
 13  4  1  0
 14 12  1  0
 15 14  2  0
 17 16  1  0
 19 18  1  6
 19 21  1  0
 19 20  1  0
 21 23  1  0
 21 22  1  6
 22 14  1  0
 23 24  1  0
 25 23  2  0
M  END
$$$$
