AYV.pdb
     RDKit          3D

 25 25  0  0  1  0  0  0  0  0999 V2000
    7.4815  -17.4831   19.1033 C   0  0  0  0  0  0  0  0  0  0  0  0
    8.3293  -16.8455   20.1696 C   0  0  2  0  0  0  0  0  0  0  0  0
    9.4236  -17.6802   20.5865 N   0  0  0  0  0  0  0  0  0  0  0  0
    7.4780  -16.4602   21.3493 C   0  0  0  0  0  0  0  0  0  0  0  0
    6.5143  -15.6651   21.1507 O   0  0  0  0  0  0  0  0  0  0  0  0
   10.2040  -18.9687   28.7472 O   0  0  0  0  0  0  0  0  0  0  0  0
    9.3228  -18.6942   27.7023 C   0  0  0  0  0  0  0  0  0  0  0  0
    8.0293  -18.3098   27.9555 C   0  0  0  0  0  0  0  0  0  0  0  0
    7.1988  -18.0503   26.8955 C   0  0  0  0  0  0  0  0  0  0  0  0
    7.6127  -18.1604   25.5794 C   0  0  0  0  0  0  0  0  0  0  0  0
    6.6292  -17.8600   24.5106 C   0  0  0  0  0  0  0  0  0  0  0  0
    6.9473  -16.5965   23.7387 C   0  0  2  0  0  0  0  0  0  0  0  0
    7.7865  -16.9983   22.6243 N   0  0  0  0  0  0  0  0  0  0  0  0
    7.7377  -15.6299   24.5344 C   0  0  0  0  0  0  0  0  0  0  0  0
    9.0065  -15.5989   24.4662 O   0  0  0  0  0  0  0  0  0  0  0  0
    8.9025  -18.5441   25.3513 C   0  0  0  0  0  0  0  0  0  0  0  0
    9.7639  -18.8127   26.3975 C   0  0  0  0  0  0  0  0  0  0  0  0
    6.8577  -11.8001   24.8399 C   0  0  0  0  0  0  0  0  0  0  0  0
    7.1981  -12.3599   26.2037 C   0  0  1  0  0  0  0  0  0  0  0  0
    5.9187  -12.5023   26.9775 C   0  0  0  0  0  0  0  0  0  0  0  0
    7.9389  -13.6719   26.0696 C   0  0  2  0  0  0  0  0  0  0  0  0
    7.1533  -14.6810   25.4178 N   0  0  0  0  0  0  0  0  0  0  0  0
    8.3689  -14.0878   27.4271 C   0  0  0  0  0  0  0  0  0  0  0  0
    9.2824  -13.3336   28.1224 O   0  0  0  0  0  0  0  0  0  0  0  0
    7.9239  -15.1253   27.9841 O   0  0  0  0  0  0  0  0  0  0  0  0
  2  1  1  6
  2  3  1  0
  4  5  2  0
  4  2  1  0
  6  7  1  0
  7 17  2  0
  8  9  2  0
  8  7  1  0
  9 10  1  0
 10 11  1  0
 10 16  2  0
 12 11  1  1
 12 13  1  0
 13  4  1  0
 14 12  1  0
 15 14  2  0
 17 16  1  0
 19 18  1  6
 19 21  1  0
 19 20  1  0
 21 23  1  0
 21 22  1  1
 22 14  1  0
 23 24  1  0
 25 23  2  0
M  END
$$$$
