AYV.pdb
     RDKit          3D

 25 25  0  0  1  0  0  0  0  0999 V2000
    6.0791  -20.0166   22.2860 C   0  0  0  0  0  0  0  0  0  0  0  0
    6.5692  -19.0344   21.2578 C   0  0  2  0  0  0  0  0  0  0  0  0
    7.0209  -19.6696   20.0492 N   0  0  0  0  0  0  0  0  0  0  0  0
    7.6556  -18.1709   21.8399 C   0  0  0  0  0  0  0  0  0  0  0  0
    8.8567  -18.5161   21.6434 O   0  0  0  0  0  0  0  0  0  0  0  0
    7.9606  -12.1754   18.3124 O   0  0  0  0  0  0  0  0  0  0  0  0
    7.9418  -12.8298   19.5434 C   0  0  0  0  0  0  0  0  0  0  0  0
    9.0922  -12.9810   20.2772 C   0  0  0  0  0  0  0  0  0  0  0  0
    9.0249  -13.6318   21.4826 C   0  0  0  0  0  0  0  0  0  0  0  0
    7.8425  -14.1426   21.9893 C   0  0  0  0  0  0  0  0  0  0  0  0
    7.8857  -14.8326   23.3015 C   0  0  0  0  0  0  0  0  0  0  0  0
    8.3640  -16.2666   23.2114 C   0  0  2  0  0  0  0  0  0  0  0  0
    7.2938  -17.0159   22.5785 N   0  0  0  0  0  0  0  0  0  0  0  0
    8.5763  -16.8781   24.5430 C   0  0  0  0  0  0  0  0  0  0  0  0
    7.6062  -17.0843   25.3378 O   0  0  0  0  0  0  0  0  0  0  0  0
    6.7115  -13.9808   21.2427 C   0  0  0  0  0  0  0  0  0  0  0  0
    6.7463  -13.3299   20.0246 C   0  0  0  0  0  0  0  0  0  0  0  0
   10.7737  -19.9832   27.4877 C   0  0  0  0  0  0  0  0  0  0  0  0
   10.5507  -19.3475   26.1329 C   0  0  1  0  0  0  0  0  0  0  0  0
    9.6240  -20.2352   25.3526 C   0  0  0  0  0  0  0  0  0  0  0  0
   10.0089  -17.9437   26.2875 C   0  0  2  0  0  0  0  0  0  0  0  0
    9.8533  -17.2742   25.0274 N   0  0  0  0  0  0  0  0  0  0  0  0
   10.9156  -17.2088   27.2032 C   0  0  0  0  0  0  0  0  0  0  0  0
   10.9007  -17.4769   28.5503 O   0  0  0  0  0  0  0  0  0  0  0  0
   11.7173  -16.3297   26.7920 O   0  0  0  0  0  0  0  0  0  0  0  0
  2  1  1  1
  2  3  1  0
  4  5  2  0
  4  2  1  0
  6  7  1  0
  7 17  2  0
  8  9  2  0
  8  7  1  0
  9 10  1  0
 10 11  1  0
 10 16  2  0
 12 11  1  1
 12 13  1  0
 13  4  1  0
 14 12  1  0
 15 14  2  0
 17 16  1  0
 19 18  1  1
 19 21  1  0
 19 20  1  0
 21 23  1  0
 21 22  1  6
 22 14  1  0
 23 24  1  0
 25 23  2  0
M  END
$$$$
