AYV.pdb
     RDKit          3D

 25 25  0  0  1  0  0  0  0  0999 V2000
    7.5886  -20.4104   20.8005 C   0  0  0  0  0  0  0  0  0  0  0  0
    6.8542  -19.1078   20.6387 C   0  0  2  0  0  0  0  0  0  0  0  0
    6.8130  -18.6556   19.2741 N   0  0  0  0  0  0  0  0  0  0  0  0
    7.4605  -18.0553   21.5271 C   0  0  0  0  0  0  0  0  0  0  0  0
    8.5649  -17.5476   21.1765 O   0  0  0  0  0  0  0  0  0  0  0  0
    7.7305  -11.6531   27.5640 O   0  0  0  0  0  0  0  0  0  0  0  0
    7.3593  -12.7382   26.7711 C   0  0  0  0  0  0  0  0  0  0  0  0
    6.7802  -12.5454   25.5413 C   0  0  0  0  0  0  0  0  0  0  0  0
    6.4319  -13.6431   24.7968 C   0  0  0  0  0  0  0  0  0  0  0  0
    6.6410  -14.9390   25.2359 C   0  0  0  0  0  0  0  0  0  0  0  0
    6.2213  -16.0525   24.3507 C   0  0  0  0  0  0  0  0  0  0  0  0
    7.3451  -16.5947   23.4924 C   0  0  2  0  0  0  0  0  0  0  0  0
    6.7768  -17.6777   22.7105 N   0  0  0  0  0  0  0  0  0  0  0  0
    8.4389  -17.1848   24.2972 C   0  0  0  0  0  0  0  0  0  0  0  0
    8.2750  -18.2680   24.9415 O   0  0  0  0  0  0  0  0  0  0  0  0
    7.2179  -15.1069   26.4614 C   0  0  0  0  0  0  0  0  0  0  0  0
    7.5802  -14.0214   27.2355 C   0  0  0  0  0  0  0  0  0  0  0  0
   12.1202  -17.5456   22.9949 C   0  0  0  0  0  0  0  0  0  0  0  0
   12.1421  -17.0349   24.4190 C   0  0  1  0  0  0  0  0  0  0  0  0
   12.5179  -15.5812   24.3830 C   0  0  0  0  0  0  0  0  0  0  0  0
   10.8053  -17.2678   25.0874 C   0  0  2  0  0  0  0  0  0  0  0  0
    9.7301  -16.5998   24.4105 N   0  0  0  0  0  0  0  0  0  0  0  0
   10.9278  -16.8389   26.5022 C   0  0  0  0  0  0  0  0  0  0  0  0
   10.1839  -15.7830   26.9696 O   0  0  0  0  0  0  0  0  0  0  0  0
   11.7010  -17.4124   27.3133 O   0  0  0  0  0  0  0  0  0  0  0  0
  2  1  1  6
  2  3  1  0
  4  5  2  0
  4  2  1  0
  6  7  1  0
  7 17  2  0
  8  9  2  0
  8  7  1  0
  9 10  1  0
 10 11  1  0
 10 16  2  0
 12 11  1  1
 12 13  1  0
 13  4  1  0
 14 12  1  0
 15 14  2  0
 17 16  1  0
 19 18  1  6
 19 21  1  0
 19 20  1  0
 21 23  1  0
 21 22  1  6
 22 14  1  0
 23 24  1  0
 25 23  2  0
M  END
$$$$
