AYV.pdb
     RDKit          3D

 25 25  0  0  1  0  0  0  0  0999 V2000
   11.6314  -18.7215   21.3799 C   0  0  0  0  0  0  0  0  0  0  0  0
   11.2047  -17.3821   20.8449 C   0  0  2  0  0  0  0  0  0  0  0  0
   12.1975  -16.7766   19.9989 N   0  0  0  0  0  0  0  0  0  0  0  0
   10.8420  -16.4610   21.9784 C   0  0  0  0  0  0  0  0  0  0  0  0
   11.7028  -15.6123   22.3515 O   0  0  0  0  0  0  0  0  0  0  0  0
    5.6060  -11.6533   27.1514 O   0  0  0  0  0  0  0  0  0  0  0  0
    6.1245  -12.5722   26.2400 C   0  0  0  0  0  0  0  0  0  0  0  0
    5.8680  -13.9146   26.3714 C   0  0  0  0  0  0  0  0  0  0  0  0
    6.3994  -14.7809   25.4506 C   0  0  0  0  0  0  0  0  0  0  0  0
    7.1848  -14.3558   24.3932 C   0  0  0  0  0  0  0  0  0  0  0  0
    7.7119  -15.3800   23.4590 C   0  0  0  0  0  0  0  0  0  0  0  0
    9.2050  -15.5985   23.5863 C   0  0  2  0  0  0  0  0  0  0  0  0
    9.5625  -16.5794   22.5777 N   0  0  0  0  0  0  0  0  0  0  0  0
    9.5831  -16.1816   24.8938 C   0  0  0  0  0  0  0  0  0  0  0  0
    9.7279  -17.4356   25.0411 O   0  0  0  0  0  0  0  0  0  0  0  0
    7.4268  -13.0171   24.2824 C   0  0  0  0  0  0  0  0  0  0  0  0
    6.9058  -12.1188   25.1936 C   0  0  0  0  0  0  0  0  0  0  0  0
   11.5763  -13.9758   28.0430 C   0  0  0  0  0  0  0  0  0  0  0  0
   10.4825  -14.9661   28.3777 C   0  0  1  0  0  0  0  0  0  0  0  0
    9.2187  -14.1931   28.6248 C   0  0  0  0  0  0  0  0  0  0  0  0
   10.3282  -15.9823   27.2679 C   0  0  2  0  0  0  0  0  0  0  0  0
    9.8090  -15.4025   26.0618 N   0  0  0  0  0  0  0  0  0  0  0  0
    9.4681  -17.0786   27.7767 C   0  0  0  0  0  0  0  0  0  0  0  0
    9.9393  -17.9324   28.7440 O   0  0  0  0  0  0  0  0  0  0  0  0
    8.2979  -17.2665   27.3522 O   0  0  0  0  0  0  0  0  0  0  0  0
  2  1  1  1
  2  3  1  0
  4  5  2  0
  4  2  1  0
  6  7  1  0
  7 17  2  0
  8  9  2  0
  8  7  1  0
  9 10  1  0
 10 11  1  0
 10 16  2  0
 12 11  1  1
 12 13  1  0
 13  4  1  0
 14 12  1  0
 15 14  2  0
 17 16  1  0
 19 18  1  6
 19 21  1  0
 19 20  1  0
 21 23  1  0
 21 22  1  6
 22 14  1  0
 23 24  1  0
 25 23  2  0
M  END
$$$$
