AYV.pdb
     RDKit          3D

 25 25  0  0  1  0  0  0  0  0999 V2000
    9.2661  -18.6638   19.8477 C   0  0  0  0  0  0  0  0  0  0  0  0
    9.4912  -17.2026   19.5714 C   0  0  2  0  0  0  0  0  0  0  0  0
   10.6420  -16.9615   18.7434 N   0  0  0  0  0  0  0  0  0  0  0  0
    9.5999  -16.4398   20.8641 C   0  0  0  0  0  0  0  0  0  0  0  0
   10.7572  -16.1685   21.2971 O   0  0  0  0  0  0  0  0  0  0  0  0
    6.7949  -12.1477   28.0694 O   0  0  0  0  0  0  0  0  0  0  0  0
    6.9079  -12.7440   26.8142 C   0  0  0  0  0  0  0  0  0  0  0  0
    6.2713  -13.9287   26.5384 C   0  0  0  0  0  0  0  0  0  0  0  0
    6.4114  -14.4777   25.2895 C   0  0  0  0  0  0  0  0  0  0  0  0
    7.1696  -13.8846   24.2950 C   0  0  0  0  0  0  0  0  0  0  0  0
    7.2561  -14.5682   22.9816 C   0  0  0  0  0  0  0  0  0  0  0  0
    8.5587  -15.3127   22.7759 C   0  0  2  0  0  0  0  0  0  0  0  0
    8.4126  -16.0588   21.5392 N   0  0  0  0  0  0  0  0  0  0  0  0
    8.8167  -16.3085   23.8408 C   0  0  0  0  0  0  0  0  0  0  0  0
    8.0546  -17.3122   24.0058 O   0  0  0  0  0  0  0  0  0  0  0  0
    7.7935  -12.7074   24.5914 C   0  0  0  0  0  0  0  0  0  0  0  0
    7.6720  -12.1289   25.8401 C   0  0  0  0  0  0  0  0  0  0  0  0
   11.5131  -18.6990   24.2745 C   0  0  0  0  0  0  0  0  0  0  0  0
   11.4851  -17.9128   25.5669 C   0  0  1  0  0  0  0  0  0  0  0  0
   12.6288  -16.9398   25.5411 C   0  0  0  0  0  0  0  0  0  0  0  0
   10.1487  -17.2262   25.7421 C   0  0  2  0  0  0  0  0  0  0  0  0
    9.9126  -16.2230   24.7430 N   0  0  0  0  0  0  0  0  0  0  0  0
   10.1050  -16.6685   27.1160 C   0  0  0  0  0  0  0  0  0  0  0  0
   10.1142  -17.5093   28.2022 O   0  0  0  0  0  0  0  0  0  0  0  0
   10.0587  -15.4300   27.3370 O   0  0  0  0  0  0  0  0  0  0  0  0
  2  1  1  1
  2  3  1  0
  4  5  2  0
  4  2  1  0
  6  7  1  0
  7 17  2  0
  8  9  2  0
  8  7  1  0
  9 10  1  0
 10 11  1  0
 10 16  2  0
 12 11  1  1
 12 13  1  0
 13  4  1  0
 14 12  1  0
 15 14  2  0
 17 16  1  0
 19 18  1  6
 19 21  1  0
 19 20  1  0
 21 23  1  0
 21 22  1  6
 22 14  1  0
 23 24  1  0
 25 23  2  0
M  END
$$$$
