AYV.pdb
     RDKit          3D

 25 25  0  0  1  0  0  0  0  0999 V2000
    6.5147  -16.6451   20.5783 C   0  0  0  0  0  0  0  0  0  0  0  0
    6.6853  -17.7910   21.5375 C   0  0  2  0  0  0  0  0  0  0  0  0
    5.7457  -18.8554   21.3088 N   0  0  0  0  0  0  0  0  0  0  0  0
    6.5929  -17.2991   22.9567 C   0  0  0  0  0  0  0  0  0  0  0  0
    5.4436  -17.0576   23.4271 O   0  0  0  0  0  0  0  0  0  0  0  0
    6.2127  -22.5699   27.2853 O   0  0  0  0  0  0  0  0  0  0  0  0
    6.7983  -21.3526   26.9399 C   0  0  0  0  0  0  0  0  0  0  0  0
    6.5221  -20.2119   27.6522 C   0  0  0  0  0  0  0  0  0  0  0  0
    7.1219  -19.0376   27.2754 C   0  0  0  0  0  0  0  0  0  0  0  0
    7.9954  -18.9563   26.2048 C   0  0  0  0  0  0  0  0  0  0  0  0
    8.5835  -17.6334   25.8825 C   0  0  0  0  0  0  0  0  0  0  0  0
    7.6512  -16.7366   25.0952 C   0  0  2  0  0  0  0  0  0  0  0  0
    7.7859  -17.1274   23.7036 N   0  0  0  0  0  0  0  0  0  0  0  0
    8.0386  -15.3096   25.1715 C   0  0  0  0  0  0  0  0  0  0  0  0
    9.0349  -14.8597   24.5232 O   0  0  0  0  0  0  0  0  0  0  0  0
    8.2552  -20.1026   25.5111 C   0  0  0  0  0  0  0  0  0  0  0  0
    7.6669  -21.3013   25.8657 C   0  0  0  0  0  0  0  0  0  0  0  0
    5.8630  -11.9191   25.3243 C   0  0  0  0  0  0  0  0  0  0  0  0
    6.8165  -12.0181   26.4949 C   0  0  1  0  0  0  0  0  0  0  0  0
    6.0115  -12.3416   27.7208 C   0  0  0  0  0  0  0  0  0  0  0  0
    7.8885  -13.0497   26.2210 C   0  0  2  0  0  0  0  0  0  0  0  0
    7.3427  -14.3510   25.9584 N   0  0  0  0  0  0  0  0  0  0  0  0
    8.8153  -13.0552   27.3793 C   0  0  0  0  0  0  0  0  0  0  0  0
    8.9511  -14.1850   28.1485 O   0  0  0  0  0  0  0  0  0  0  0  0
    9.4995  -12.0473   27.6968 O   0  0  0  0  0  0  0  0  0  0  0  0
  2  1  1  6
  2  3  1  0
  4  5  2  0
  4  2  1  0
  6  7  1  0
  7 17  2  0
  8  9  2  0
  8  7  1  0
  9 10  1  0
 10 11  1  0
 10 16  2  0
 12 11  1  1
 12 13  1  0
 13  4  1  0
 14 12  1  0
 15 14  2  0
 17 16  1  0
 19 18  1  6
 19 21  1  0
 19 20  1  0
 21 23  1  0
 21 22  1  1
 22 14  1  0
 23 24  1  0
 25 23  2  0
M  END
$$$$
