LLS.pdb
     RDKit          3D

 23 22  0  0  1  0  0  0  0  0999 V2000
    8.5021  -12.6627   20.1178 C   0  0  0  0  0  0  0  0  0  0  0  0
    7.7664  -13.8837   19.6640 C   0  0  2  0  0  0  0  0  0  0  0  0
    6.3370  -13.4802   19.3704 C   0  0  0  0  0  0  0  0  0  0  0  0
    7.7616  -15.0023   20.6486 C   0  0  0  0  0  0  0  0  0  0  0  0
    9.1117  -15.2376   21.2861 C   0  0  2  0  0  0  0  0  0  0  0  0
    9.5208  -16.5930   21.0023 N   0  0  0  0  0  0  0  0  0  0  0  0
    9.0456  -15.0729   22.7586 C   0  0  0  0  0  0  0  0  0  0  0  0
    9.9495  -15.5029   23.5281 O   0  0  0  0  0  0  0  0  0  0  0  0
    5.3471  -12.4199   27.0318 C   0  0  0  0  0  0  0  0  0  0  0  0
    6.7218  -12.9299   26.6852 C   0  0  2  0  0  0  0  0  0  0  0  0
    7.7109  -11.8485   27.1597 C   0  0  0  0  0  0  0  0  0  0  0  0
    6.9515  -13.1416   25.2444 C   0  0  0  0  0  0  0  0  0  0  0  0
    7.9324  -14.1686   24.8111 C   0  0  2  0  0  0  0  0  0  0  0  0
    7.9492  -14.4137   23.4042 N   0  0  0  0  0  0  0  0  0  0  0  0
    7.8404  -15.4280   25.6076 C   0  0  0  0  0  0  0  0  0  0  0  0
    8.0845  -15.4530   26.8421 O   0  0  0  0  0  0  0  0  0  0  0  0
    7.4071  -19.5273   24.0310 O   0  0  0  0  0  0  0  0  0  0  0  0
    6.5666  -18.9188   24.9603 C   0  0  0  0  0  0  0  0  0  0  0  0
    7.3157  -17.8958   25.7851 C   0  0  2  0  0  0  0  0  0  0  0  0
    7.4720  -16.6583   25.0065 N   0  0  0  0  0  0  0  0  0  0  0  0
    8.5971  -18.3904   26.2820 C   0  0  0  0  0  0  0  0  0  0  0  0
    9.7776  -17.7580   25.9523 O   0  0  0  0  0  0  0  0  0  0  0  0
    8.6509  -19.4020   27.0199 O   0  0  0  0  0  0  0  0  0  0  0  0
  2  1  1  1
  2  3  1  0
  4  5  1  0
  4  2  1  0
  5  7  1  0
  5  6  1  1
  7  8  2  0
 10  9  1  6
 11 10  1  0
 12 10  1  0
 13 12  1  6
 14 13  1  0
 14  7  1  0
 15 13  1  0
 15 16  2  0
 17 18  1  0
 19 18  1  6
 19 20  1  0
 19 21  1  0
 20 15  1  0
 21 22  1  0
 23 21  2  0
M  END
$$$$
