LLS.pdb
     RDKit          3D

 23 22  0  0  1  0  0  0  0  0999 V2000
    6.4044  -16.9411   19.2485 C   0  0  0  0  0  0  0  0  0  0  0  0
    7.6413  -17.6380   19.7199 C   0  0  2  0  0  0  0  0  0  0  0  0
    7.3732  -19.1278   19.6895 C   0  0  0  0  0  0  0  0  0  0  0  0
    8.0820  -17.2527   21.0903 C   0  0  0  0  0  0  0  0  0  0  0  0
    8.1873  -15.7571   21.2813 C   0  0  2  0  0  0  0  0  0  0  0  0
    9.2388  -15.2603   20.4255 N   0  0  0  0  0  0  0  0  0  0  0  0
    8.5330  -15.4184   22.6833 C   0  0  0  0  0  0  0  0  0  0  0  0
    9.7208  -15.4394   23.1105 O   0  0  0  0  0  0  0  0  0  0  0  0
    7.8795  -11.7424   25.7122 C   0  0  0  0  0  0  0  0  0  0  0  0
    6.6877  -12.6145   25.4143 C   0  0  2  0  0  0  0  0  0  0  0  0
    5.5293  -12.0603   26.2650 C   0  0  0  0  0  0  0  0  0  0  0  0
    6.8626  -14.0341   25.7717 C   0  0  0  0  0  0  0  0  0  0  0  0
    7.8520  -14.8518   25.0253 C   0  0  2  0  0  0  0  0  0  0  0  0
    7.5388  -15.0446   23.6453 N   0  0  0  0  0  0  0  0  0  0  0  0
    8.1841  -16.1319   25.7183 C   0  0  0  0  0  0  0  0  0  0  0  0
    7.2949  -16.9595   26.0475 O   0  0  0  0  0  0  0  0  0  0  0  0
   10.7671  -18.6231   24.4492 O   0  0  0  0  0  0  0  0  0  0  0  0
    9.7700  -18.8128   25.4033 C   0  0  0  0  0  0  0  0  0  0  0  0
    9.8944  -17.8098   26.5286 C   0  0  2  0  0  0  0  0  0  0  0  0
    9.5224  -16.4745   26.0379 N   0  0  0  0  0  0  0  0  0  0  0  0
   11.2157  -17.8110   27.1513 C   0  0  0  0  0  0  0  0  0  0  0  0
   11.9986  -16.6755   27.1560 O   0  0  0  0  0  0  0  0  0  0  0  0
   11.6667  -18.8461   27.6953 O   0  0  0  0  0  0  0  0  0  0  0  0
  2  1  1  1
  2  3  1  0
  4  5  1  0
  4  2  1  0
  5  7  1  0
  5  6  1  6
  7  8  2  0
 10  9  1  1
 11 10  1  0
 12 10  1  0
 13 12  1  1
 14 13  1  0
 14  7  1  0
 15 13  1  0
 15 16  2  0
 17 18  1  0
 19 18  1  6
 19 20  1  0
 19 21  1  0
 20 15  1  0
 21 22  1  0
 23 21  2  0
M  END
$$$$
