LLS.pdb
     RDKit          3D

 23 22  0  0  1  0  0  0  0  0999 V2000
    8.0651  -14.3349   18.5681 C   0  0  0  0  0  0  0  0  0  0  0  0
    7.9217  -13.4082   19.7336 C   0  0  2  0  0  0  0  0  0  0  0  0
    8.1005  -11.9935   19.2246 C   0  0  0  0  0  0  0  0  0  0  0  0
    8.8918  -13.6519   20.8384 C   0  0  0  0  0  0  0  0  0  0  0  0
    8.6927  -14.9865   21.5192 C   0  0  2  0  0  0  0  0  0  0  0  0
    7.3182  -15.3905   21.3392 N   0  0  0  0  0  0  0  0  0  0  0  0
    8.9601  -14.8912   22.9750 C   0  0  0  0  0  0  0  0  0  0  0  0
   10.1156  -14.6792   23.4375 O   0  0  0  0  0  0  0  0  0  0  0  0
    8.2013  -12.0772   26.5398 C   0  0  0  0  0  0  0  0  0  0  0  0
    7.0453  -12.8975   26.0292 C   0  0  2  0  0  0  0  0  0  0  0  0
    5.8188  -12.4692   26.8570 C   0  0  0  0  0  0  0  0  0  0  0  0
    7.2070  -14.3535   26.1942 C   0  0  0  0  0  0  0  0  0  0  0  0
    8.1977  -15.0716   25.3532 C   0  0  2  0  0  0  0  0  0  0  0  0
    7.9220  -15.0338   23.9523 N   0  0  0  0  0  0  0  0  0  0  0  0
    8.4761  -16.4547   25.8418 C   0  0  0  0  0  0  0  0  0  0  0  0
    7.5508  -17.2724   26.0853 O   0  0  0  0  0  0  0  0  0  0  0  0
   12.1280  -18.2538   25.1719 O   0  0  0  0  0  0  0  0  0  0  0  0
   10.9426  -18.9550   25.3804 C   0  0  0  0  0  0  0  0  0  0  0  0
   10.1002  -18.2958   26.4499 C   0  0  2  0  0  0  0  0  0  0  0  0
    9.8017  -16.9115   26.0541 N   0  0  0  0  0  0  0  0  0  0  0  0
   10.7072  -18.3624   27.7768 C   0  0  0  0  0  0  0  0  0  0  0  0
   10.9451  -17.2164   28.5063 O   0  0  0  0  0  0  0  0  0  0  0  0
   11.0253  -19.4647   28.2813 O   0  0  0  0  0  0  0  0  0  0  0  0
  2  1  1  6
  2  3  1  0
  4  5  1  0
  4  2  1  0
  5  7  1  0
  5  6  1  1
  7  8  2  0
 10  9  1  1
 11 10  1  0
 12 10  1  0
 13 12  1  1
 14 13  1  0
 14  7  1  0
 15 13  1  0
 15 16  2  0
 17 18  1  0
 19 18  1  6
 19 20  1  0
 19 21  1  0
 20 15  1  0
 21 22  1  0
 23 21  2  0
M  END
$$$$
