LLS.pdb
     RDKit          3D

 23 22  0  0  1  0  0  0  0  0999 V2000
    6.2819  -12.4478   25.9931 C   0  0  0  0  0  0  0  0  0  0  0  0
    6.8899  -13.4437   26.9292 C   0  0  2  0  0  0  0  0  0  0  0  0
    7.9123  -12.7173   27.7774 C   0  0  0  0  0  0  0  0  0  0  0  0
    7.5500  -14.5986   26.2574 C   0  0  0  0  0  0  0  0  0  0  0  0
    6.6793  -15.2523   25.2092 C   0  0  2  0  0  0  0  0  0  0  0  0
    6.0771  -16.4310   25.7861 N   0  0  0  0  0  0  0  0  0  0  0  0
    7.4790  -15.6702   24.0321 C   0  0  0  0  0  0  0  0  0  0  0  0
    7.6904  -16.8837   23.7549 O   0  0  0  0  0  0  0  0  0  0  0  0
    6.5540  -14.0575   19.9424 C   0  0  0  0  0  0  0  0  0  0  0  0
    7.6753  -13.3147   20.6213 C   0  0  2  0  0  0  0  0  0  0  0  0
    8.0908  -12.1906   19.6535 C   0  0  0  0  0  0  0  0  0  0  0  0
    8.8723  -14.1302   20.8961 C   0  0  0  0  0  0  0  0  0  0  0  0
    8.8330  -15.1252   21.9975 C   0  0  2  0  0  0  0  0  0  0  0  0
    8.0645  -14.7216   23.1317 N   0  0  0  0  0  0  0  0  0  0  0  0
   10.1890  -15.6224   22.3759 C   0  0  0  0  0  0  0  0  0  0  0  0
   11.0164  -16.0176   21.5138 O   0  0  0  0  0  0  0  0  0  0  0  0
   11.1565  -16.7412   26.3262 O   0  0  0  0  0  0  0  0  0  0  0  0
   12.1097  -16.0150   25.6160 C   0  0  0  0  0  0  0  0  0  0  0  0
   11.9267  -16.1879   24.1245 C   0  0  2  0  0  0  0  0  0  0  0  0
   10.6076  -15.6717   23.7298 N   0  0  0  0  0  0  0  0  0  0  0  0
   12.1261  -17.5651   23.6805 C   0  0  0  0  0  0  0  0  0  0  0  0
   13.3379  -18.1992   23.8583 O   0  0  0  0  0  0  0  0  0  0  0  0
   11.1983  -18.2007   23.1274 O   0  0  0  0  0  0  0  0  0  0  0  0
  2  1  1  6
  2  3  1  0
  4  5  1  0
  4  2  1  0
  5  7  1  0
  5  6  1  1
  7  8  2  0
 10  9  1  6
 11 10  1  0
 12 10  1  0
 13 12  1  6
 14 13  1  0
 14  7  1  0
 15 13  1  0
 15 16  2  0
 17 18  1  0
 19 18  1  1
 19 20  1  0
 19 21  1  0
 20 15  1  0
 21 22  1  0
 23 21  2  0
M  END
$$$$
