LLS.pdb
     RDKit          3D

 23 22  0  0  1  0  0  0  0  0999 V2000
    8.6378  -12.8445   18.3702 C   0  0  0  0  0  0  0  0  0  0  0  0
    8.0310  -13.6907   19.4443 C   0  0  2  0  0  0  0  0  0  0  0  0
    6.5795  -13.2847   19.5886 C   0  0  0  0  0  0  0  0  0  0  0  0
    8.7002  -13.5768   20.7710 C   0  0  0  0  0  0  0  0  0  0  0  0
    8.7050  -14.8741   21.5466 C   0  0  2  0  0  0  0  0  0  0  0  0
    7.4090  -15.4950   21.4059 N   0  0  0  0  0  0  0  0  0  0  0  0
    8.9495  -14.6353   22.9898 C   0  0  0  0  0  0  0  0  0  0  0  0
   10.0580  -14.2189   23.4277 O   0  0  0  0  0  0  0  0  0  0  0  0
    5.9539  -12.2009   27.4136 C   0  0  0  0  0  0  0  0  0  0  0  0
    7.1129  -12.6503   26.5623 C   0  0  2  0  0  0  0  0  0  0  0  0
    7.0969  -11.7527   25.3105 C   0  0  0  0  0  0  0  0  0  0  0  0
    7.0323  -14.0502   26.1070 C   0  0  0  0  0  0  0  0  0  0  0  0
    8.1802  -14.6397   25.3726 C   0  0  2  0  0  0  0  0  0  0  0  0
    7.9411  -14.8623   23.9823 N   0  0  0  0  0  0  0  0  0  0  0  0
    8.7454  -15.8424   26.0531 C   0  0  0  0  0  0  0  0  0  0  0  0
    8.9094  -15.8847   27.3003 O   0  0  0  0  0  0  0  0  0  0  0  0
    9.7684  -19.2888   23.8449 O   0  0  0  0  0  0  0  0  0  0  0  0
    9.3309  -19.4179   25.1610 C   0  0  0  0  0  0  0  0  0  0  0  0
    9.6799  -18.1913   25.9743 C   0  0  2  0  0  0  0  0  0  0  0  0
    9.1244  -16.9965   25.3217 N   0  0  0  0  0  0  0  0  0  0  0  0
   11.1135  -18.0585   26.2209 C   0  0  0  0  0  0  0  0  0  0  0  0
   11.8067  -19.0282   26.9147 O   0  0  0  0  0  0  0  0  0  0  0  0
   11.7450  -17.0584   25.8064 O   0  0  0  0  0  0  0  0  0  0  0  0
  2  1  1  6
  2  3  1  0
  4  5  1  0
  4  2  1  0
  5  7  1  0
  5  6  1  1
  7  8  2  0
 10  9  1  1
 11 10  1  0
 12 10  1  0
 13 12  1  1
 14 13  1  0
 14  7  1  0
 15 13  1  0
 15 16  2  0
 17 18  1  0
 19 18  1  6
 19 20  1  0
 19 21  1  0
 20 15  1  0
 21 22  1  0
 23 21  2  0
M  END
$$$$
