LLS.pdb
     RDKit          3D

 23 22  0  0  1  0  0  0  0  0999 V2000
    7.1020  -13.7345   19.0867 C   0  0  0  0  0  0  0  0  0  0  0  0
    7.7379  -13.1777   20.3210 C   0  0  2  0  0  0  0  0  0  0  0  0
    8.1653  -11.7567   20.0205 C   0  0  0  0  0  0  0  0  0  0  0  0
    8.9186  -13.9464   20.8069 C   0  0  0  0  0  0  0  0  0  0  0  0
    8.5420  -15.2249   21.5197 C   0  0  2  0  0  0  0  0  0  0  0  0
    7.1542  -15.5108   21.2418 N   0  0  0  0  0  0  0  0  0  0  0  0
    8.7011  -15.0875   22.9878 C   0  0  0  0  0  0  0  0  0  0  0  0
    9.8263  -14.9087   23.5319 O   0  0  0  0  0  0  0  0  0  0  0  0
    8.0239  -12.2089   26.4670 C   0  0  0  0  0  0  0  0  0  0  0  0
    6.7919  -12.8648   25.8997 C   0  0  2  0  0  0  0  0  0  0  0  0
    5.6006  -12.2940   26.6921 C   0  0  0  0  0  0  0  0  0  0  0  0
    6.7584  -14.3319   26.0413 C   0  0  0  0  0  0  0  0  0  0  0  0
    7.7516  -15.1531   25.3038 C   0  0  2  0  0  0  0  0  0  0  0  0
    7.5857  -15.1487   23.8852 N   0  0  0  0  0  0  0  0  0  0  0  0
    7.8855  -16.5332   25.8574 C   0  0  0  0  0  0  0  0  0  0  0  0
    6.8817  -17.2193   26.1823 O   0  0  0  0  0  0  0  0  0  0  0  0
   11.2214  -18.8227   25.1750 O   0  0  0  0  0  0  0  0  0  0  0  0
    9.9982  -19.3688   25.5568 C   0  0  0  0  0  0  0  0  0  0  0  0
    9.3074  -18.4958   26.5808 C   0  0  2  0  0  0  0  0  0  0  0  0
    9.1556  -17.1359   26.0426 N   0  0  0  0  0  0  0  0  0  0  0  0
    9.9801  -18.4948   27.8774 C   0  0  0  0  0  0  0  0  0  0  0  0
   10.1502  -19.6639   28.5891 O   0  0  0  0  0  0  0  0  0  0  0  0
   10.4176  -17.4294   28.3714 O   0  0  0  0  0  0  0  0  0  0  0  0
  2  1  1  6
  2  3  1  0
  4  5  1  0
  4  2  1  0
  5  7  1  0
  5  6  1  1
  7  8  2  0
 10  9  1  1
 11 10  1  0
 12 10  1  0
 13 12  1  1
 14 13  1  0
 14  7  1  0
 15 13  1  0
 15 16  2  0
 17 18  1  0
 19 18  1  6
 19 20  1  0
 19 21  1  0
 20 15  1  0
 21 22  1  0
 23 21  2  0
M  END
$$$$
