LLS.pdb
     RDKit          3D

 23 22  0  0  1  0  0  0  0  0999 V2000
    6.9652  -18.5119   20.0613 C   0  0  0  0  0  0  0  0  0  0  0  0
    8.3291  -18.8370   20.5825 C   0  0  2  0  0  0  0  0  0  0  0  0
    8.3192  -20.2817   21.0352 C   0  0  0  0  0  0  0  0  0  0  0  0
    8.7780  -17.9775   21.7142 C   0  0  0  0  0  0  0  0  0  0  0  0
    8.7101  -16.5005   21.4008 C   0  0  2  0  0  0  0  0  0  0  0  0
    9.7663  -16.1823   20.4691 N   0  0  0  0  0  0  0  0  0  0  0  0
    8.9091  -15.6833   22.6225 C   0  0  0  0  0  0  0  0  0  0  0  0
   10.0564  -15.3999   23.0666 O   0  0  0  0  0  0  0  0  0  0  0  0
    7.7087  -13.0954   27.1466 C   0  0  0  0  0  0  0  0  0  0  0  0
    6.9374  -12.5252   25.9848 C   0  0  2  0  0  0  0  0  0  0  0  0
    5.4978  -12.3136   26.4904 C   0  0  0  0  0  0  0  0  0  0  0  0
    6.8694  -13.4048   24.8036 C   0  0  0  0  0  0  0  0  0  0  0  0
    8.0018  -14.3215   24.5178 C   0  0  2  0  0  0  0  0  0  0  0  0
    7.8095  -15.1616   23.3789 N   0  0  0  0  0  0  0  0  0  0  0  0
    8.4444  -15.0862   25.7214 C   0  0  0  0  0  0  0  0  0  0  0  0
    8.7459  -14.5117   26.7999 O   0  0  0  0  0  0  0  0  0  0  0  0
    9.3969  -19.3030   25.6585 O   0  0  0  0  0  0  0  0  0  0  0  0
    8.6546  -18.7261   26.6865 C   0  0  0  0  0  0  0  0  0  0  0  0
    9.0143  -17.2680   26.8666 C   0  0  2  0  0  0  0  0  0  0  0  0
    8.5452  -16.5004   25.7035 N   0  0  0  0  0  0  0  0  0  0  0  0
   10.4378  -17.0578   27.1178 C   0  0  0  0  0  0  0  0  0  0  0  0
   11.2102  -16.3185   26.2466 O   0  0  0  0  0  0  0  0  0  0  0  0
   10.9883  -17.5460   28.1324 O   0  0  0  0  0  0  0  0  0  0  0  0
  2  1  1  1
  2  3  1  0
  4  5  1  0
  4  2  1  0
  5  7  1  0
  5  6  1  6
  7  8  2  0
 10  9  1  1
 11 10  1  0
 12 10  1  0
 13 12  1  1
 14 13  1  0
 14  7  1  0
 15 13  1  0
 15 16  2  0
 17 18  1  0
 19 18  1  6
 19 20  1  0
 19 21  1  0
 20 15  1  0
 21 22  1  0
 23 21  2  0
M  END
$$$$
