LLS.pdb
     RDKit          3D

 23 22  0  0  1  0  0  0  0  0999 V2000
    8.3747  -12.3055   18.6179 C   0  0  0  0  0  0  0  0  0  0  0  0
    8.1039  -13.5577   19.3902 C   0  0  2  0  0  0  0  0  0  0  0  0
    6.6164  -13.6190   19.6656 C   0  0  0  0  0  0  0  0  0  0  0  0
    8.8404  -13.6571   20.6819 C   0  0  0  0  0  0  0  0  0  0  0  0
    8.6365  -14.9816   21.3810 C   0  0  2  0  0  0  0  0  0  0  0  0
    7.2452  -15.3498   21.2647 N   0  0  0  0  0  0  0  0  0  0  0  0
    8.9704  -14.8841   22.8228 C   0  0  0  0  0  0  0  0  0  0  0  0
   10.1391  -14.6358   23.2306 O   0  0  0  0  0  0  0  0  0  0  0  0
    8.0851  -12.0318   26.3883 C   0  0  0  0  0  0  0  0  0  0  0  0
    6.9753  -12.9461   25.9384 C   0  0  2  0  0  0  0  0  0  0  0  0
    5.7648  -12.6217   26.8340 C   0  0  0  0  0  0  0  0  0  0  0  0
    7.2671  -14.3835   26.0880 C   0  0  0  0  0  0  0  0  0  0  0  0
    8.3143  -15.0019   25.2364 C   0  0  2  0  0  0  0  0  0  0  0  0
    7.9858  -15.0659   23.8479 N   0  0  0  0  0  0  0  0  0  0  0  0
    8.7935  -16.3117   25.7692 C   0  0  0  0  0  0  0  0  0  0  0  0
    8.0146  -17.2860   25.9370 O   0  0  0  0  0  0  0  0  0  0  0  0
   12.5530  -19.2846   26.3825 O   0  0  0  0  0  0  0  0  0  0  0  0
   12.0168  -18.0775   25.9399 C   0  0  0  0  0  0  0  0  0  0  0  0
   10.6606  -17.8236   26.5597 C   0  0  2  0  0  0  0  0  0  0  0  0
   10.1540  -16.5180   26.1116 N   0  0  0  0  0  0  0  0  0  0  0  0
   10.6691  -17.9320   28.0164 C   0  0  0  0  0  0  0  0  0  0  0  0
   10.9988  -19.1186   28.6374 O   0  0  0  0  0  0  0  0  0  0  0  0
   10.3763  -16.9471   28.7338 O   0  0  0  0  0  0  0  0  0  0  0  0
  2  1  1  1
  2  3  1  0
  4  5  1  0
  4  2  1  0
  5  7  1  0
  5  6  1  1
  7  8  2  0
 10  9  1  1
 11 10  1  0
 12 10  1  0
 13 12  1  1
 14 13  1  0
 14  7  1  0
 15 13  1  0
 15 16  2  0
 17 18  1  0
 19 18  1  1
 19 20  1  0
 19 21  1  0
 20 15  1  0
 21 22  1  0
 23 21  2  0
M  END
$$$$
