LLS.pdb
     RDKit          3D

 23 22  0  0  1  0  0  0  0  0999 V2000
    8.6781  -14.6074   18.7313 C   0  0  0  0  0  0  0  0  0  0  0  0
    7.8460  -13.7480   19.6295 C   0  0  2  0  0  0  0  0  0  0  0  0
    7.7193  -12.3863   18.9799 C   0  0  0  0  0  0  0  0  0  0  0  0
    8.3953  -13.5797   21.0045 C   0  0  0  0  0  0  0  0  0  0  0  0
    8.4759  -14.8778   21.7744 C   0  0  2  0  0  0  0  0  0  0  0  0
    7.2146  -15.5676   21.6400 N   0  0  0  0  0  0  0  0  0  0  0  0
    8.7173  -14.6319   23.2170 C   0  0  0  0  0  0  0  0  0  0  0  0
    9.8283  -14.2239   23.6565 O   0  0  0  0  0  0  0  0  0  0  0  0
    7.9512  -11.5538   26.3791 C   0  0  0  0  0  0  0  0  0  0  0  0
    6.8181  -12.4507   25.9532 C   0  0  2  0  0  0  0  0  0  0  0  0
    5.5606  -11.9185   26.6663 C   0  0  0  0  0  0  0  0  0  0  0  0
    6.9802  -13.8657   26.3342 C   0  0  0  0  0  0  0  0  0  0  0  0
    7.9648  -14.7035   25.6041 C   0  0  2  0  0  0  0  0  0  0  0  0
    7.7028  -14.8418   24.2070 N   0  0  0  0  0  0  0  0  0  0  0  0
    8.2124  -16.0168   26.2698 C   0  0  0  0  0  0  0  0  0  0  0  0
    8.4827  -16.0997   27.4963 O   0  0  0  0  0  0  0  0  0  0  0  0
    7.6164  -19.6220   24.1853 O   0  0  0  0  0  0  0  0  0  0  0  0
    7.4346  -19.5622   25.5651 C   0  0  0  0  0  0  0  0  0  0  0  0
    8.3569  -18.5407   26.1927 C   0  0  2  0  0  0  0  0  0  0  0  0
    8.1537  -17.2353   25.5470 N   0  0  0  0  0  0  0  0  0  0  0  0
    9.7599  -18.9464   26.1677 C   0  0  0  0  0  0  0  0  0  0  0  0
   10.1937  -20.0438   26.8818 O   0  0  0  0  0  0  0  0  0  0  0  0
   10.6006  -18.3045   25.4955 O   0  0  0  0  0  0  0  0  0  0  0  0
  2  1  1  6
  2  3  1  0
  4  5  1  0
  4  2  1  0
  5  7  1  0
  5  6  1  1
  7  8  2  0
 10  9  1  1
 11 10  1  0
 12 10  1  0
 13 12  1  1
 14 13  1  0
 14  7  1  0
 15 13  1  0
 15 16  2  0
 17 18  1  0
 19 18  1  6
 19 20  1  0
 19 21  1  0
 20 15  1  0
 21 22  1  0
 23 21  2  0
M  END
$$$$
