LLS.pdb
     RDKit          3D

 23 22  0  0  1  0  0  0  0  0999 V2000
  -11.5387  -25.8050   24.9807 C   0  0  0  0  0  0  0  0  0  0  0  0
  -10.4496  -24.8495   24.6084 C   0  0  2  0  0  0  0  0  0  0  0  0
  -10.3798  -24.7935   23.0970 C   0  0  0  0  0  0  0  0  0  0  0  0
   -9.1054  -25.2080   25.1426 C   0  0  0  0  0  0  0  0  0  0  0  0
   -8.0616  -24.1457   24.8848 C   0  0  2  0  0  0  0  0  0  0  0  0
   -7.5881  -24.2903   23.5284 N   0  0  0  0  0  0  0  0  0  0  0  0
   -6.9032  -24.2990   25.7981 C   0  0  0  0  0  0  0  0  0  0  0  0
   -6.0225  -25.1878   25.6294 O   0  0  0  0  0  0  0  0  0  0  0  0
   -2.8831  -22.6125   26.5235 C   0  0  0  0  0  0  0  0  0  0  0  0
   -4.0526  -21.7848   26.9894 C   0  0  2  0  0  0  0  0  0  0  0  0
   -3.4596  -20.4605   27.5067 C   0  0  0  0  0  0  0  0  0  0  0  0
   -4.8282  -22.3850   28.0901 C   0  0  0  0  0  0  0  0  0  0  0  0
   -5.6132  -23.6189   27.8336 C   0  0  2  0  0  0  0  0  0  0  0  0
   -6.7084  -23.4465   26.9333 N   0  0  0  0  0  0  0  0  0  0  0  0
   -6.0130  -24.3210   29.0891 C   0  0  0  0  0  0  0  0  0  0  0  0
   -6.8737  -23.8425   29.8729 O   0  0  0  0  0  0  0  0  0  0  0  0
   -4.1143  -27.9162   30.4324 O   0  0  0  0  0  0  0  0  0  0  0  0
   -5.4991  -27.7731   30.4807 C   0  0  0  0  0  0  0  0  0  0  0  0
   -5.8919  -26.3205   30.6332 C   0  0  2  0  0  0  0  0  0  0  0  0
   -5.4385  -25.5642   29.4565 N   0  0  0  0  0  0  0  0  0  0  0  0
   -5.4118  -25.7267   31.8785 C   0  0  0  0  0  0  0  0  0  0  0  0
   -5.7671  -26.2579   33.1007 O   0  0  0  0  0  0  0  0  0  0  0  0
   -4.6653  -24.7201   31.8622 O   0  0  0  0  0  0  0  0  0  0  0  0
  2  1  1  6
  2  3  1  0
  4  5  1  0
  4  2  1  0
  5  7  1  0
  5  6  1  6
  7  8  2  0
 10  9  1  1
 11 10  1  0
 12 10  1  0
 13 12  1  1
 14 13  1  0
 14  7  1  0
 15 13  1  0
 15 16  2  0
 17 18  1  0
 19 18  1  6
 19 20  1  0
 19 21  1  0
 20 15  1  0
 21 22  1  0
 23 21  2  0
M  END
$$$$
