LLS.pdb
     RDKit          3D

 23 22  0  0  1  0  0  0  0  0999 V2000
    6.7350  -15.8404   19.2652 C   0  0  0  0  0  0  0  0  0  0  0  0
    7.5393  -17.0045   19.7506 C   0  0  2  0  0  0  0  0  0  0  0  0
    6.7560  -18.2651   19.4511 C   0  0  0  0  0  0  0  0  0  0  0  0
    7.8612  -16.9681   21.2052 C   0  0  0  0  0  0  0  0  0  0  0  0
    8.4633  -15.6540   21.6470 C   0  0  2  0  0  0  0  0  0  0  0  0
    9.7969  -15.5566   21.1023 N   0  0  0  0  0  0  0  0  0  0  0  0
    8.5606  -15.5786   23.1251 C   0  0  0  0  0  0  0  0  0  0  0  0
    9.5708  -15.9943   23.7580 O   0  0  0  0  0  0  0  0  0  0  0  0
    7.9756  -12.0360   26.3664 C   0  0  0  0  0  0  0  0  0  0  0  0
    6.7364  -12.6611   25.7802 C   0  0  2  0  0  0  0  0  0  0  0  0
    5.5434  -11.9726   26.4698 C   0  0  0  0  0  0  0  0  0  0  0  0
    6.6109  -14.1109   26.0166 C   0  0  0  0  0  0  0  0  0  0  0  0
    7.5670  -15.0369   25.3587 C   0  0  2  0  0  0  0  0  0  0  0  0
    7.5120  -15.0278   23.9316 N   0  0  0  0  0  0  0  0  0  0  0  0
    7.5139  -16.4186   25.9220 C   0  0  0  0  0  0  0  0  0  0  0  0
    6.4320  -17.0537   26.0236 O   0  0  0  0  0  0  0  0  0  0  0  0
   10.3211  -19.2431   25.4151 O   0  0  0  0  0  0  0  0  0  0  0  0
    9.0167  -19.4396   25.8627 C   0  0  0  0  0  0  0  0  0  0  0  0
    8.6516  -18.4374   26.9352 C   0  0  2  0  0  0  0  0  0  0  0  0
    8.6852  -17.0806   26.3696 N   0  0  0  0  0  0  0  0  0  0  0  0
    9.4860  -18.5490   28.1290 C   0  0  0  0  0  0  0  0  0  0  0  0
    9.5107  -19.7114   28.8709 O   0  0  0  0  0  0  0  0  0  0  0  0
   10.1984  -17.5888   28.5047 O   0  0  0  0  0  0  0  0  0  0  0  0
  2  1  1  1
  2  3  1  0
  4  5  1  0
  4  2  1  0
  5  7  1  0
  5  6  1  6
  7  8  2  0
 10  9  1  1
 11 10  1  0
 12 10  1  0
 13 12  1  1
 14 13  1  0
 14  7  1  0
 15 13  1  0
 15 16  2  0
 17 18  1  0
 19 18  1  6
 19 20  1  0
 19 21  1  0
 20 15  1  0
 21 22  1  0
 23 21  2  0
M  END
$$$$
