LLS.pdb
     RDKit          3D

 23 22  0  0  1  0  0  0  0  0999 V2000
    8.5624  -14.5377   18.5381 C   0  0  0  0  0  0  0  0  0  0  0  0
    7.9559  -13.5828   19.5170 C   0  0  2  0  0  0  0  0  0  0  0  0
    8.1214  -12.1839   18.9622 C   0  0  0  0  0  0  0  0  0  0  0  0
    8.5524  -13.6367   20.8816 C   0  0  0  0  0  0  0  0  0  0  0  0
    8.4071  -14.9895   21.5399 C   0  0  2  0  0  0  0  0  0  0  0  0
    7.0746  -15.4821   21.2820 N   0  0  0  0  0  0  0  0  0  0  0  0
    8.5887  -14.8935   23.0088 C   0  0  0  0  0  0  0  0  0  0  0  0
    9.7049  -14.6284   23.5359 O   0  0  0  0  0  0  0  0  0  0  0  0
    8.0297  -12.1493   26.5634 C   0  0  0  0  0  0  0  0  0  0  0  0
    6.7942  -12.7622   25.9569 C   0  0  2  0  0  0  0  0  0  0  0  0
    5.6001  -12.1687   26.7281 C   0  0  0  0  0  0  0  0  0  0  0  0
    6.7161  -14.2295   26.0766 C   0  0  0  0  0  0  0  0  0  0  0  0
    7.6958  -15.0688   25.3415 C   0  0  2  0  0  0  0  0  0  0  0  0
    7.5067  -15.0960   23.9261 N   0  0  0  0  0  0  0  0  0  0  0  0
    7.8369  -16.4364   25.9237 C   0  0  0  0  0  0  0  0  0  0  0  0
    6.8409  -17.0961   26.3198 O   0  0  0  0  0  0  0  0  0  0  0  0
   11.1907  -18.7289   25.1841 O   0  0  0  0  0  0  0  0  0  0  0  0
    9.9589  -19.2769   25.5346 C   0  0  0  0  0  0  0  0  0  0  0  0
    9.2585  -18.4258   26.5704 C   0  0  2  0  0  0  0  0  0  0  0  0
    9.1051  -17.0565   26.0568 N   0  0  0  0  0  0  0  0  0  0  0  0
    9.9232  -18.4467   27.8710 C   0  0  0  0  0  0  0  0  0  0  0  0
   10.0706  -19.6246   28.5732 O   0  0  0  0  0  0  0  0  0  0  0  0
   10.3742  -17.3926   28.3771 O   0  0  0  0  0  0  0  0  0  0  0  0
  2  1  1  6
  2  3  1  0
  4  5  1  0
  4  2  1  0
  5  7  1  0
  5  6  1  1
  7  8  2  0
 10  9  1  1
 11 10  1  0
 12 10  1  0
 13 12  1  1
 14 13  1  0
 14  7  1  0
 15 13  1  0
 15 16  2  0
 17 18  1  0
 19 18  1  6
 19 20  1  0
 19 21  1  0
 20 15  1  0
 21 22  1  0
 23 21  2  0
M  END
$$$$
