LLS.pdb
     RDKit          3D

 23 22  0  0  1  0  0  0  0  0999 V2000
    7.0883  -20.4384   27.8766 C   0  0  0  0  0  0  0  0  0  0  0  0
    7.7553  -20.7476   26.5738 C   0  0  2  0  0  0  0  0  0  0  0  0
    9.1489  -21.2558   26.8766 C   0  0  0  0  0  0  0  0  0  0  0  0
    7.8538  -19.5893   25.6412 C   0  0  0  0  0  0  0  0  0  0  0  0
    6.5130  -18.9699   25.3205 C   0  0  2  0  0  0  0  0  0  0  0  0
    5.8799  -19.7594   24.2905 N   0  0  0  0  0  0  0  0  0  0  0  0
    6.6695  -17.5855   24.8118 C   0  0  0  0  0  0  0  0  0  0  0  0
    6.8467  -17.3311   23.5880 O   0  0  0  0  0  0  0  0  0  0  0  0
    7.9633  -12.1824   25.8152 C   0  0  0  0  0  0  0  0  0  0  0  0
    6.5340  -12.6381   25.6766 C   0  0  2  0  0  0  0  0  0  0  0  0
    5.7107  -11.7616   26.6394 C   0  0  0  0  0  0  0  0  0  0  0  0
    6.3010  -14.0459   26.0471 C   0  0  0  0  0  0  0  0  0  0  0  0
    6.8817  -15.1217   25.2045 C   0  0  2  0  0  0  0  0  0  0  0  0
    6.6296  -16.4452   25.6786 N   0  0  0  0  0  0  0  0  0  0  0  0
    8.3233  -14.8945   24.8895 C   0  0  0  0  0  0  0  0  0  0  0  0
    8.7279  -13.8257   24.3622 O   0  0  0  0  0  0  0  0  0  0  0  0
   12.9427  -16.2771   25.4745 O   0  0  0  0  0  0  0  0  0  0  0  0
   11.6007  -16.3416   25.8425 C   0  0  0  0  0  0  0  0  0  0  0  0
   10.7164  -15.7072   24.7921 C   0  0  2  0  0  0  0  0  0  0  0  0
    9.3060  -15.8770   25.1716 N   0  0  0  0  0  0  0  0  0  0  0  0
   10.9804  -16.2074   23.4453 C   0  0  0  0  0  0  0  0  0  0  0  0
   12.1809  -15.9516   22.8164 O   0  0  0  0  0  0  0  0  0  0  0  0
   10.1197  -16.8808   22.8318 O   0  0  0  0  0  0  0  0  0  0  0  0
  2  1  1  1
  2  3  1  0
  4  5  1  0
  4  2  1  0
  5  7  1  0
  5  6  1  6
  7  8  2  0
 10  9  1  1
 11 10  1  0
 12 10  1  0
 13 12  1  1
 14 13  1  0
 14  7  1  0
 15 13  1  0
 15 16  2  0
 17 18  1  0
 19 18  1  1
 19 20  1  0
 19 21  1  0
 20 15  1  0
 21 22  1  0
 23 21  2  0
M  END
$$$$
