LLS.pdb
     RDKit          3D

 23 22  0  0  1  0  0  0  0  0999 V2000
    8.5226  -14.2531   18.4394 C   0  0  0  0  0  0  0  0  0  0  0  0
    7.7650  -13.4178   19.4223 C   0  0  2  0  0  0  0  0  0  0  0  0
    7.7062  -12.0052   18.8808 C   0  0  0  0  0  0  0  0  0  0  0  0
    8.3550  -13.3881   20.7905 C   0  0  0  0  0  0  0  0  0  0  0  0
    8.4517  -14.7565   21.4249 C   0  0  2  0  0  0  0  0  0  0  0  0
    7.1518  -15.3821   21.3616 N   0  0  0  0  0  0  0  0  0  0  0  0
    8.8497  -14.6600   22.8504 C   0  0  0  0  0  0  0  0  0  0  0  0
    9.9975  -14.2734   23.2069 O   0  0  0  0  0  0  0  0  0  0  0  0
    7.9152  -11.8336   26.2932 C   0  0  0  0  0  0  0  0  0  0  0  0
    6.8610  -12.8440   25.9220 C   0  0  2  0  0  0  0  0  0  0  0  0
    5.6516  -12.5532   26.8307 C   0  0  0  0  0  0  0  0  0  0  0  0
    7.2541  -14.2480   26.1403 C   0  0  0  0  0  0  0  0  0  0  0  0
    8.3160  -14.8428   25.2900 C   0  0  2  0  0  0  0  0  0  0  0  0
    7.9553  -15.0000   23.9170 N   0  0  0  0  0  0  0  0  0  0  0  0
    8.8929  -16.0901   25.8737 C   0  0  0  0  0  0  0  0  0  0  0  0
    9.0359  -16.2384   27.1153 O   0  0  0  0  0  0  0  0  0  0  0  0
    8.3673  -19.4961   24.2066 O   0  0  0  0  0  0  0  0  0  0  0  0
    9.6660  -19.5529   24.7072 C   0  0  0  0  0  0  0  0  0  0  0  0
    9.9583  -18.3676   25.6003 C   0  0  2  0  0  0  0  0  0  0  0  0
    9.3072  -17.1687   25.0518 N   0  0  0  0  0  0  0  0  0  0  0  0
   11.3869  -18.1571   25.8207 C   0  0  0  0  0  0  0  0  0  0  0  0
   12.1707  -19.1432   26.3823 O   0  0  0  0  0  0  0  0  0  0  0  0
   11.9313  -17.0737   25.5036 O   0  0  0  0  0  0  0  0  0  0  0  0
  2  1  1  6
  2  3  1  0
  4  5  1  0
  4  2  1  0
  5  7  1  0
  5  6  1  1
  7  8  2  0
 10  9  1  1
 11 10  1  0
 12 10  1  0
 13 12  1  1
 14 13  1  0
 14  7  1  0
 15 13  1  0
 15 16  2  0
 17 18  1  0
 19 18  1  6
 19 20  1  0
 19 21  1  0
 20 15  1  0
 21 22  1  0
 23 21  2  0
M  END
$$$$
