NGP.pdb
     RDKit          3D

 20 20  0  0  1  0  0  0  0  0999 V2000
    9.3605  -22.2192   28.3682 N   0  0  0  0  0  0  0  0  0  0  0  0
    9.8491  -20.9459   27.9068 C   0  0  0  0  0  0  0  0  0  0  0  0
   10.9493  -20.9316   27.3296 O   0  0  0  0  0  0  0  0  0  0  0  0
    9.0048  -19.7753   28.1586 C   0  0  0  0  0  0  0  0  0  0  0  0
    8.2413  -19.3310   26.9341 C   0  0  2  0  0  0  0  0  0  0  0  0
    9.2106  -18.8073   25.9506 N   0  0  0  0  0  0  0  0  0  0  0  0
    7.3888  -18.1742   27.2868 C   0  0  0  0  0  0  0  0  0  0  0  0
    6.6725  -18.2060   28.3278 O   0  0  0  0  0  0  0  0  0  0  0  0
    7.3792  -17.0284   26.4516 N   0  0  0  0  0  0  0  0  0  0  0  0
    6.1828  -16.7119   25.6966 C   0  0  0  0  0  0  0  0  0  0  0  0
    6.3742  -15.4444   24.9400 C   0  0  0  0  0  0  0  0  0  0  0  0
    6.3325  -15.4446   23.6768 O   0  0  0  0  0  0  0  0  0  0  0  0
    6.6051  -14.2252   25.6331 N   0  0  0  0  0  0  0  0  0  0  0  0
    5.8591  -13.8325   26.8413 C   0  0  0  0  0  0  0  0  0  0  0  0
    6.0428  -12.3028   26.8552 C   0  0  0  0  0  0  0  0  0  0  0  0
    7.4909  -12.2355   26.4314 C   0  0  0  0  0  0  0  0  0  0  0  0
    7.5569  -13.1974   25.2811 C   0  0  1  0  0  0  0  0  0  0  0  0
    8.9172  -13.7371   25.0808 C   0  0  0  0  0  0  0  0  0  0  0  0
    9.7901  -13.0015   24.5716 O   0  0  0  0  0  0  0  0  0  0  0  0
    9.2655  -15.0275   25.4350 O   0  0  0  0  0  0  0  0  0  0  0  0
  2  1  1  0
  3  2  2  0
  4  5  1  0
  4  2  1  0
  5  6  1  6
  7  5  1  0
  7  8  2  0
  9  7  1  0
 10  9  1  0
 11 10  1  0
 12 11  2  0
 13 17  1  0
 13 11  1  0
 14 13  1  0
 15 14  1  0
 15 16  1  0
 16 17  1  0
 17 18  1  1
 18 19  2  0
 18 20  1  0
M  END
$$$$
