NGP.pdb
     RDKit          3D

 20 20  0  0  1  0  0  0  0  0999 V2000
   11.3075  -18.9598   19.5205 N   0  0  0  0  0  0  0  0  0  0  0  0
   10.3378  -17.9376   19.2242 C   0  0  0  0  0  0  0  0  0  0  0  0
    9.9839  -17.8124   18.0397 O   0  0  0  0  0  0  0  0  0  0  0  0
    9.8517  -17.1322   20.3474 C   0  0  0  0  0  0  0  0  0  0  0  0
   10.4715  -17.5322   21.6649 C   0  0  2  0  0  0  0  0  0  0  0  0
    9.7667  -18.7312   22.1616 N   0  0  0  0  0  0  0  0  0  0  0  0
   10.1968  -16.4813   22.6696 C   0  0  0  0  0  0  0  0  0  0  0  0
   10.8933  -15.4267   22.6935 O   0  0  0  0  0  0  0  0  0  0  0  0
    9.1476  -16.6620   23.6060 N   0  0  0  0  0  0  0  0  0  0  0  0
    8.9351  -15.6620   24.6338 C   0  0  0  0  0  0  0  0  0  0  0  0
    9.8742  -15.8839   25.7672 C   0  0  0  0  0  0  0  0  0  0  0  0
   10.7257  -16.8166   25.7151 O   0  0  0  0  0  0  0  0  0  0  0  0
    9.8196  -15.0486   26.9158 N   0  0  0  0  0  0  0  0  0  0  0  0
    8.9083  -13.8966   27.0306 C   0  0  0  0  0  0  0  0  0  0  0  0
    9.5985  -13.0411   28.1102 C   0  0  0  0  0  0  0  0  0  0  0  0
   10.0374  -14.1462   29.0416 C   0  0  0  0  0  0  0  0  0  0  0  0
   10.6225  -15.1677   28.1105 C   0  0  1  0  0  0  0  0  0  0  0  0
   10.5835  -16.5302   28.6794 C   0  0  0  0  0  0  0  0  0  0  0  0
   11.5296  -16.9105   29.4022 O   0  0  0  0  0  0  0  0  0  0  0  0
    9.5391  -17.4053   28.4441 O   0  0  0  0  0  0  0  0  0  0  0  0
  2  1  1  0
  3  2  2  0
  4  5  1  0
  4  2  1  0
  5  6  1  1
  7  5  1  0
  7  8  2  0
  9  7  1  0
 10  9  1  0
 11 10  1  0
 12 11  2  0
 13 17  1  0
 13 11  1  0
 14 13  1  0
 15 14  1  0
 15 16  1  0
 16 17  1  0
 17 18  1  1
 18 19  2  0
 18 20  1  0
M  END
$$$$
