NGP.pdb
     RDKit          3D

 20 20  0  0  1  0  0  0  0  0999 V2000
    9.8152  -13.2821   17.6944 N   0  0  0  0  0  0  0  0  0  0  0  0
    8.5028  -13.8380   17.4909 C   0  0  0  0  0  0  0  0  0  0  0  0
    8.2175  -14.2236   16.3447 O   0  0  0  0  0  0  0  0  0  0  0  0
    7.6159  -13.9008   18.6554 C   0  0  0  0  0  0  0  0  0  0  0  0
    8.0885  -14.8858   19.6976 C   0  0  2  0  0  0  0  0  0  0  0  0
    7.8675  -16.2501   19.1771 N   0  0  0  0  0  0  0  0  0  0  0  0
    7.2195  -14.7844   20.8909 C   0  0  0  0  0  0  0  0  0  0  0  0
    5.9653  -14.8905   20.7751 O   0  0  0  0  0  0  0  0  0  0  0  0
    7.8003  -14.5679   22.1662 N   0  0  0  0  0  0  0  0  0  0  0  0
    6.9450  -14.2237   23.2849 C   0  0  0  0  0  0  0  0  0  0  0  0
    7.7701  -13.9083   24.4830 C   0  0  0  0  0  0  0  0  0  0  0  0
    8.9857  -14.2518   24.5273 O   0  0  0  0  0  0  0  0  0  0  0  0
    7.1965  -13.2187   25.5856 N   0  0  0  0  0  0  0  0  0  0  0  0
    5.8276  -12.6743   25.5704 C   0  0  0  0  0  0  0  0  0  0  0  0
    5.8932  -11.5959   26.6688 C   0  0  0  0  0  0  0  0  0  0  0  0
    6.7294  -12.3417   27.6816 C   0  0  0  0  0  0  0  0  0  0  0  0
    7.8318  -12.9299   26.8501 C   0  0  1  0  0  0  0  0  0  0  0  0
    8.4188  -14.1346   27.4713 C   0  0  0  0  0  0  0  0  0  0  0  0
    9.4571  -14.0159   28.1571 O   0  0  0  0  0  0  0  0  0  0  0  0
    7.8645  -15.3928   27.3246 O   0  0  0  0  0  0  0  0  0  0  0  0
  2  1  1  0
  3  2  2  0
  4  5  1  0
  4  2  1  0
  5  6  1  6
  7  5  1  0
  7  8  2  0
  9  7  1  0
 10  9  1  0
 11 10  1  0
 12 11  2  0
 13 17  1  0
 13 11  1  0
 14 13  1  0
 15 14  1  0
 15 16  1  0
 16 17  1  0
 17 18  1  1
 18 19  2  0
 18 20  1  0
M  END
$$$$
