NGP.pdb
     RDKit          3D

 20 20  0  0  1  0  0  0  0  0999 V2000
    7.9614  -12.5297   18.1007 N   0  0  0  0  0  0  0  0  0  0  0  0
    8.7719  -13.6857   18.3830 C   0  0  0  0  0  0  0  0  0  0  0  0
    9.2647  -14.2879   17.4143 O   0  0  0  0  0  0  0  0  0  0  0  0
    8.9454  -14.0523   19.7909 C   0  0  0  0  0  0  0  0  0  0  0  0
    8.1098  -15.2443   20.1918 C   0  0  2  0  0  0  0  0  0  0  0  0
    6.7149  -14.9900   19.7789 N   0  0  0  0  0  0  0  0  0  0  0  0
    8.0640  -15.3305   21.6682 C   0  0  0  0  0  0  0  0  0  0  0  0
    9.0940  -15.6697   22.3178 O   0  0  0  0  0  0  0  0  0  0  0  0
    6.8587  -15.0303   22.3521 N   0  0  0  0  0  0  0  0  0  0  0  0
    6.7578  -15.3177   23.7694 C   0  0  0  0  0  0  0  0  0  0  0  0
    7.7118  -14.4686   24.5340 C   0  0  0  0  0  0  0  0  0  0  0  0
    8.9563  -14.5777   24.3417 O   0  0  0  0  0  0  0  0  0  0  0  0
    7.2298  -13.5294   25.4857 N   0  0  0  0  0  0  0  0  0  0  0  0
    5.8644  -12.9772   25.4510 C   0  0  0  0  0  0  0  0  0  0  0  0
    6.0193  -11.6733   26.2572 C   0  0  0  0  0  0  0  0  0  0  0  0
    6.9344  -12.1779   27.3476 C   0  0  0  0  0  0  0  0  0  0  0  0
    7.9656  -12.9655   26.5932 C   0  0  1  0  0  0  0  0  0  0  0  0
    8.6005  -14.0028   27.4314 C   0  0  0  0  0  0  0  0  0  0  0  0
    9.5811  -13.6901   28.1405 O   0  0  0  0  0  0  0  0  0  0  0  0
    8.1524  -15.3106   27.4637 O   0  0  0  0  0  0  0  0  0  0  0  0
  2  1  1  0
  3  2  2  0
  4  5  1  0
  4  2  1  0
  5  6  1  1
  7  5  1  0
  7  8  2  0
  9  7  1  0
 10  9  1  0
 11 10  1  0
 12 11  2  0
 13 17  1  0
 13 11  1  0
 14 13  1  0
 15 14  1  0
 15 16  1  0
 16 17  1  0
 17 18  1  1
 18 19  2  0
 18 20  1  0
M  END
$$$$
