NGP.pdb
     RDKit          3D

 20 20  0  0  1  0  0  0  0  0999 V2000
    8.0513  -12.8316   17.6785 N   0  0  0  0  0  0  0  0  0  0  0  0
    8.9139  -13.6849   18.4534 C   0  0  0  0  0  0  0  0  0  0  0  0
    9.8505  -14.2429   17.8573 O   0  0  0  0  0  0  0  0  0  0  0  0
    8.6117  -13.8216   19.8805 C   0  0  0  0  0  0  0  0  0  0  0  0
    7.8545  -15.0885   20.1989 C   0  0  2  0  0  0  0  0  0  0  0  0
    6.4661  -14.9290   19.7213 N   0  0  0  0  0  0  0  0  0  0  0  0
    7.7416  -15.2306   21.6674 C   0  0  0  0  0  0  0  0  0  0  0  0
    8.7002  -15.7134   22.3351 O   0  0  0  0  0  0  0  0  0  0  0  0
    6.5528  -14.8220   22.3232 N   0  0  0  0  0  0  0  0  0  0  0  0
    6.3971  -15.0893   23.7394 C   0  0  0  0  0  0  0  0  0  0  0  0
    7.4259  -14.3464   24.5176 C   0  0  0  0  0  0  0  0  0  0  0  0
    8.6545  -14.5221   24.2787 O   0  0  0  0  0  0  0  0  0  0  0  0
    7.0334  -13.4345   25.5347 N   0  0  0  0  0  0  0  0  0  0  0  0
    5.7034  -12.8025   25.5794 C   0  0  0  0  0  0  0  0  0  0  0  0
    5.9635  -11.5562   26.4473 C   0  0  0  0  0  0  0  0  0  0  0  0
    6.8826  -12.1726   27.4752 C   0  0  0  0  0  0  0  0  0  0  0  0
    7.8386  -12.9763   26.6428 C   0  0  1  0  0  0  0  0  0  0  0  0
    8.4375  -14.0935   27.4011 C   0  0  0  0  0  0  0  0  0  0  0  0
    7.8963  -15.2189   27.3474 O   0  0  0  0  0  0  0  0  0  0  0  0
    9.5766  -13.9445   28.1706 O   0  0  0  0  0  0  0  0  0  0  0  0
  2  1  1  0
  3  2  2  0
  4  5  1  0
  4  2  1  0
  5  6  1  6
  7  5  1  0
  7  8  2  0
  9  7  1  0
 10  9  1  0
 11 10  1  0
 12 11  2  0
 13 17  1  0
 13 11  1  0
 14 13  1  0
 15 14  1  0
 15 16  1  0
 16 17  1  0
 17 18  1  1
 18 19  2  0
 18 20  1  0
M  END
$$$$
