NGP.pdb
     RDKit          3D

 20 20  0  0  1  0  0  0  0  0999 V2000
    8.5712  -12.5886   17.1102 N   0  0  0  0  0  0  0  0  0  0  0  0
    7.9407  -13.7829   17.6092 C   0  0  0  0  0  0  0  0  0  0  0  0
    7.9408  -14.7806   16.8687 O   0  0  0  0  0  0  0  0  0  0  0  0
    7.3525  -13.7177   18.9495 C   0  0  0  0  0  0  0  0  0  0  0  0
    8.3357  -14.0778   20.0374 C   0  0  2  0  0  0  0  0  0  0  0  0
    8.5791  -15.5332   19.9764 N   0  0  0  0  0  0  0  0  0  0  0  0
    7.7057  -13.8486   21.3565 C   0  0  0  0  0  0  0  0  0  0  0  0
    7.4502  -12.6727   21.7435 O   0  0  0  0  0  0  0  0  0  0  0  0
    7.3888  -14.9547   22.1851 N   0  0  0  0  0  0  0  0  0  0  0  0
    6.7343  -14.7222   23.4575 C   0  0  0  0  0  0  0  0  0  0  0  0
    7.7373  -14.3346   24.4868 C   0  0  0  0  0  0  0  0  0  0  0  0
    8.9150  -14.7901   24.4313 O   0  0  0  0  0  0  0  0  0  0  0  0
    7.3774  -13.4497   25.5392 N   0  0  0  0  0  0  0  0  0  0  0  0
    6.1323  -12.6620   25.5379 C   0  0  0  0  0  0  0  0  0  0  0  0
    6.4697  -11.5172   26.5123 C   0  0  0  0  0  0  0  0  0  0  0  0
    7.2257  -12.3086   27.5530 C   0  0  0  0  0  0  0  0  0  0  0  0
    8.1419  -13.1684   26.7318 C   0  0  1  0  0  0  0  0  0  0  0  0
    8.5426  -14.3984   27.4447 C   0  0  0  0  0  0  0  0  0  0  0  0
    7.8556  -15.4323   27.2989 O   0  0  0  0  0  0  0  0  0  0  0  0
    9.6509  -14.4528   28.2697 O   0  0  0  0  0  0  0  0  0  0  0  0
  2  1  1  0
  3  2  2  0
  4  5  1  0
  4  2  1  0
  5  6  1  6
  7  5  1  0
  7  8  2  0
  9  7  1  0
 10  9  1  0
 11 10  1  0
 12 11  2  0
 13 17  1  0
 13 11  1  0
 14 13  1  0
 15 14  1  0
 15 16  1  0
 16 17  1  0
 17 18  1  1
 18 19  2  0
 18 20  1  0
M  END
$$$$
