NGP.pdb
     RDKit          3D

 20 20  0  0  1  0  0  0  0  0999 V2000
    7.5096  -14.0841   16.4452 N   0  0  0  0  0  0  0  0  0  0  0  0
    8.4252  -13.8519   17.5318 C   0  0  0  0  0  0  0  0  0  0  0  0
    9.6363  -14.0060   17.3008 O   0  0  0  0  0  0  0  0  0  0  0  0
    7.8480  -13.4531   18.8181 C   0  0  0  0  0  0  0  0  0  0  0  0
    8.3731  -14.2715   19.9732 C   0  0  2  0  0  0  0  0  0  0  0  0
    7.8302  -15.6398   19.8540 N   0  0  0  0  0  0  0  0  0  0  0  0
    7.8118  -13.7441   21.2366 C   0  0  0  0  0  0  0  0  0  0  0  0
    8.1801  -12.6169   21.6744 O   0  0  0  0  0  0  0  0  0  0  0  0
    6.8578  -14.5089   21.9544 N   0  0  0  0  0  0  0  0  0  0  0  0
    6.2813  -13.9642   23.1679 C   0  0  0  0  0  0  0  0  0  0  0  0
    7.3117  -13.8977   24.2401 C   0  0  0  0  0  0  0  0  0  0  0  0
    8.3930  -14.5418   24.1248 O   0  0  0  0  0  0  0  0  0  0  0  0
    7.0864  -13.1094   25.4011 N   0  0  0  0  0  0  0  0  0  0  0  0
    5.9270  -12.2130   25.5528 C   0  0  0  0  0  0  0  0  0  0  0  0
    6.4175  -11.2244   26.6279 C   0  0  0  0  0  0  0  0  0  0  0  0
    7.1342  -12.1977   27.5335 C   0  0  0  0  0  0  0  0  0  0  0  0
    7.9248  -13.0399   26.5752 C   0  0  1  0  0  0  0  0  0  0  0  0
    8.2308  -14.3758   27.1260 C   0  0  0  0  0  0  0  0  0  0  0  0
    7.4266  -15.3112   26.9247 O   0  0  0  0  0  0  0  0  0  0  0  0
    9.3750  -14.6347   27.8579 O   0  0  0  0  0  0  0  0  0  0  0  0
  2  1  1  0
  3  2  2  0
  4  5  1  0
  4  2  1  0
  5  6  1  6
  7  5  1  0
  7  8  2  0
  9  7  1  0
 10  9  1  0
 11 10  1  0
 12 11  2  0
 13 17  1  0
 13 11  1  0
 14 13  1  0
 15 14  1  0
 15 16  1  0
 16 17  1  0
 17 18  1  1
 18 19  2  0
 18 20  1  0
M  END
$$$$
