NGP.pdb
     RDKit          3D

 20 20  0  0  1  0  0  0  0  0999 V2000
    7.7068  -12.9590   17.6471 N   0  0  0  0  0  0  0  0  0  0  0  0
    8.5109  -13.6120   18.6471 C   0  0  0  0  0  0  0  0  0  0  0  0
    9.5881  -14.1094   18.2782 O   0  0  0  0  0  0  0  0  0  0  0  0
    7.9880  -13.6331   20.0156 C   0  0  0  0  0  0  0  0  0  0  0  0
    7.8973  -15.0285   20.5851 C   0  0  2  0  0  0  0  0  0  0  0  0
    6.8013  -15.7383   19.8953 N   0  0  0  0  0  0  0  0  0  0  0  0
    7.4726  -14.9486   22.0003 C   0  0  0  0  0  0  0  0  0  0  0  0
    6.2669  -14.7028   22.2895 O   0  0  0  0  0  0  0  0  0  0  0  0
    8.4246  -15.1497   23.0316 N   0  0  0  0  0  0  0  0  0  0  0  0
    7.9785  -15.1856   24.4104 C   0  0  0  0  0  0  0  0  0  0  0  0
    9.1485  -15.2826   25.3256 C   0  0  0  0  0  0  0  0  0  0  0  0
   10.1283  -16.0244   25.0298 O   0  0  0  0  0  0  0  0  0  0  0  0
    9.1718  -14.5419   26.5384 N   0  0  0  0  0  0  0  0  0  0  0  0
    8.1278  -13.5704   26.9081 C   0  0  0  0  0  0  0  0  0  0  0  0
    8.8589  -12.6793   27.9305 C   0  0  0  0  0  0  0  0  0  0  0  0
    9.6250  -13.7498   28.6709 C   0  0  0  0  0  0  0  0  0  0  0  0
   10.1851  -14.5973   27.5661 C   0  0  1  0  0  0  0  0  0  0  0  0
   10.4620  -15.9795   28.0072 C   0  0  0  0  0  0  0  0  0  0  0  0
   11.5702  -16.2382   28.5242 O   0  0  0  0  0  0  0  0  0  0  0  0
    9.5419  -17.0026   27.8709 O   0  0  0  0  0  0  0  0  0  0  0  0
  2  1  1  0
  3  2  2  0
  4  5  1  0
  4  2  1  0
  5  6  1  6
  7  5  1  0
  7  8  2  0
  9  7  1  0
 10  9  1  0
 11 10  1  0
 12 11  2  0
 13 17  1  0
 13 11  1  0
 14 13  1  0
 15 14  1  0
 15 16  1  0
 16 17  1  0
 17 18  1  1
 18 19  2  0
 18 20  1  0
M  END
$$$$
