NGP.pdb
     RDKit          3D

 20 20  0  0  1  0  0  0  0  0999 V2000
    6.6047  -12.9536   19.3222 N   0  0  0  0  0  0  0  0  0  0  0  0
    7.4701  -14.0954   19.1804 C   0  0  0  0  0  0  0  0  0  0  0  0
    7.0050  -15.0972   18.6112 O   0  0  0  0  0  0  0  0  0  0  0  0
    8.8268  -13.9766   19.7207 C   0  0  0  0  0  0  0  0  0  0  0  0
    9.1530  -15.0566   20.7242 C   0  0  2  0  0  0  0  0  0  0  0  0
    8.2222  -16.1829   20.5092 N   0  0  0  0  0  0  0  0  0  0  0  0
    8.8499  -14.5621   22.0854 C   0  0  0  0  0  0  0  0  0  0  0  0
    9.3784  -13.4937   22.5063 O   0  0  0  0  0  0  0  0  0  0  0  0
    7.9627  -15.2921   22.9164 N   0  0  0  0  0  0  0  0  0  0  0  0
    7.6684  -14.7964   24.2465 C   0  0  0  0  0  0  0  0  0  0  0  0
    8.8417  -14.9978   25.1401 C   0  0  0  0  0  0  0  0  0  0  0  0
    9.7349  -15.8395   24.8380 O   0  0  0  0  0  0  0  0  0  0  0  0
    8.9656  -14.2448   26.3392 N   0  0  0  0  0  0  0  0  0  0  0  0
    8.0982  -13.0989   26.6631 C   0  0  0  0  0  0  0  0  0  0  0  0
    8.9494  -12.3250   27.6880 C   0  0  0  0  0  0  0  0  0  0  0  0
    9.5004  -13.4950   28.4681 C   0  0  0  0  0  0  0  0  0  0  0  0
    9.9299  -14.4518   27.3944 C   0  0  1  0  0  0  0  0  0  0  0  0
    9.9520  -15.8506   27.8680 C   0  0  0  0  0  0  0  0  0  0  0  0
    8.9283  -16.5533   27.7249 O   0  0  0  0  0  0  0  0  0  0  0  0
   11.0632  -16.4166   28.4654 O   0  0  0  0  0  0  0  0  0  0  0  0
  2  1  1  0
  3  2  2  0
  4  5  1  0
  4  2  1  0
  5  6  1  6
  7  5  1  0
  7  8  2  0
  9  7  1  0
 10  9  1  0
 11 10  1  0
 12 11  2  0
 13 17  1  0
 13 11  1  0
 14 13  1  0
 15 14  1  0
 15 16  1  0
 16 17  1  0
 17 18  1  1
 18 19  2  0
 18 20  1  0
M  END
$$$$
