NGP.pdb
     RDKit          3D

 20 20  0  0  1  0  0  0  0  0999 V2000
    7.1312  -20.5544   20.1333 N   0  0  0  0  0  0  0  0  0  0  0  0
    6.4050  -19.3396   20.3974 C   0  0  0  0  0  0  0  0  0  0  0  0
    5.1867  -19.4395   20.6199 O   0  0  0  0  0  0  0  0  0  0  0  0
    7.1674  -18.0885   20.3808 C   0  0  0  0  0  0  0  0  0  0  0  0
    7.8242  -17.7866   21.7064 C   0  0  2  0  0  0  0  0  0  0  0  0
    7.0657  -18.4813   22.7663 N   0  0  0  0  0  0  0  0  0  0  0  0
    7.6721  -16.3458   22.0066 C   0  0  0  0  0  0  0  0  0  0  0  0
    8.2924  -15.4843   21.3204 O   0  0  0  0  0  0  0  0  0  0  0  0
    6.8263  -15.9350   23.0680 N   0  0  0  0  0  0  0  0  0  0  0  0
    6.6843  -14.5210   23.3541 C   0  0  0  0  0  0  0  0  0  0  0  0
    7.5880  -14.1305   24.4707 C   0  0  0  0  0  0  0  0  0  0  0  0
    8.7694  -14.5771   24.5194 O   0  0  0  0  0  0  0  0  0  0  0  0
    7.1283  -13.2527   25.4897 N   0  0  0  0  0  0  0  0  0  0  0  0
    5.8083  -12.5995   25.4540 C   0  0  0  0  0  0  0  0  0  0  0  0
    6.0159  -11.3934   26.3901 C   0  0  0  0  0  0  0  0  0  0  0  0
    6.8403  -12.0662   27.4619 C   0  0  0  0  0  0  0  0  0  0  0  0
    7.8484  -12.8532   26.6763 C   0  0  1  0  0  0  0  0  0  0  0  0
    8.3681  -14.0100   27.4335 C   0  0  0  0  0  0  0  0  0  0  0  0
    7.8144  -15.1218   27.2936 O   0  0  0  0  0  0  0  0  0  0  0  0
    9.4461  -13.9126   28.2940 O   0  0  0  0  0  0  0  0  0  0  0  0
  2  1  1  0
  3  2  2  0
  4  5  1  0
  4  2  1  0
  5  6  1  1
  7  5  1  0
  7  8  2  0
  9  7  1  0
 10  9  1  0
 11 10  1  0
 12 11  2  0
 13 17  1  0
 13 11  1  0
 14 13  1  0
 15 14  1  0
 15 16  1  0
 16 17  1  0
 17 18  1  1
 18 19  2  0
 18 20  1  0
M  END
$$$$
