NGP.pdb
     RDKit          3D

 20 20  0  0  1  0  0  0  0  0999 V2000
    9.1234  -12.4219   17.9973 N   0  0  0  0  0  0  0  0  0  0  0  0
    8.3088  -13.6066   17.9224 C   0  0  0  0  0  0  0  0  0  0  0  0
    8.3997  -14.2980   16.8940 O   0  0  0  0  0  0  0  0  0  0  0  0
    7.4415  -13.8945   19.0676 C   0  0  0  0  0  0  0  0  0  0  0  0
    7.9552  -15.0309   19.9188 C   0  0  2  0  0  0  0  0  0  0  0  0
    7.6098  -16.3014   19.2498 N   0  0  0  0  0  0  0  0  0  0  0  0
    7.2106  -15.0551   21.1972 C   0  0  0  0  0  0  0  0  0  0  0  0
    6.0563  -15.5674   21.2513 O   0  0  0  0  0  0  0  0  0  0  0  0
    7.7981  -14.5010   22.3626 N   0  0  0  0  0  0  0  0  0  0  0  0
    7.0244  -14.4433   23.5872 C   0  0  0  0  0  0  0  0  0  0  0  0
    7.8794  -13.9756   24.7124 C   0  0  0  0  0  0  0  0  0  0  0  0
    9.1186  -14.2243   24.7164 O   0  0  0  0  0  0  0  0  0  0  0  0
    7.3079  -13.2461   25.7901 N   0  0  0  0  0  0  0  0  0  0  0  0
    5.9598  -12.6543   25.7360 C   0  0  0  0  0  0  0  0  0  0  0  0
    6.0409  -11.5588   26.8164 C   0  0  0  0  0  0  0  0  0  0  0  0
    6.8288  -12.3149   27.8598 C   0  0  0  0  0  0  0  0  0  0  0  0
    7.9266  -12.9567   27.0627 C   0  0  1  0  0  0  0  0  0  0  0  0
    8.4573  -14.1698   27.7174 C   0  0  0  0  0  0  0  0  0  0  0  0
    7.9153  -15.2707   27.4800 O   0  0  0  0  0  0  0  0  0  0  0  0
    9.5332  -14.1368   28.5852 O   0  0  0  0  0  0  0  0  0  0  0  0
  2  1  1  0
  3  2  2  0
  4  5  1  0
  4  2  1  0
  5  6  1  6
  7  5  1  0
  7  8  2  0
  9  7  1  0
 10  9  1  0
 11 10  1  0
 12 11  2  0
 13 17  1  0
 13 11  1  0
 14 13  1  0
 15 14  1  0
 15 16  1  0
 16 17  1  0
 17 18  1  1
 18 19  2  0
 18 20  1  0
M  END
$$$$
