NGP.pdb
     RDKit          3D

 20 20  0  0  1  0  0  0  0  0999 V2000
    7.0736  -20.5477   22.1442 N   0  0  0  0  0  0  0  0  0  0  0  0
    6.3425  -19.7237   21.2173 C   0  0  0  0  0  0  0  0  0  0  0  0
    5.4416  -20.2680   20.5570 O   0  0  0  0  0  0  0  0  0  0  0  0
    6.7253  -18.3119   21.1328 C   0  0  0  0  0  0  0  0  0  0  0  0
    7.8148  -17.9422   22.1107 C   0  0  2  0  0  0  0  0  0  0  0  0
    7.4473  -18.4798   23.4362 N   0  0  0  0  0  0  0  0  0  0  0  0
    7.8337  -16.4728   22.2837 C   0  0  0  0  0  0  0  0  0  0  0  0
    8.6905  -15.7716   21.6738 O   0  0  0  0  0  0  0  0  0  0  0  0
    6.8853  -15.8540   23.1370 N   0  0  0  0  0  0  0  0  0  0  0  0
    6.8924  -14.4110   23.2755 C   0  0  0  0  0  0  0  0  0  0  0  0
    7.7587  -14.0097   24.4176 C   0  0  0  0  0  0  0  0  0  0  0  0
    8.9689  -14.3722   24.4567 O   0  0  0  0  0  0  0  0  0  0  0  0
    7.2307  -13.2163   25.4721 N   0  0  0  0  0  0  0  0  0  0  0  0
    5.8773  -12.6351   25.4418 C   0  0  0  0  0  0  0  0  0  0  0  0
    5.9987  -11.4734   26.4466 C   0  0  0  0  0  0  0  0  0  0  0  0
    6.8379  -12.1587   27.4989 C   0  0  0  0  0  0  0  0  0  0  0  0
    7.9036  -12.8447   26.6948 C   0  0  1  0  0  0  0  0  0  0  0  0
    8.4719  -14.0117   27.3998 C   0  0  0  0  0  0  0  0  0  0  0  0
    9.5099  -13.8605   28.0794 O   0  0  0  0  0  0  0  0  0  0  0  0
    7.9001  -15.2691   27.3382 O   0  0  0  0  0  0  0  0  0  0  0  0
  2  1  1  0
  3  2  2  0
  4  5  1  0
  4  2  1  0
  5  6  1  1
  7  5  1  0
  7  8  2  0
  9  7  1  0
 10  9  1  0
 11 10  1  0
 12 11  2  0
 13 17  1  0
 13 11  1  0
 14 13  1  0
 15 14  1  0
 15 16  1  0
 16 17  1  0
 17 18  1  1
 18 19  2  0
 18 20  1  0
M  END
$$$$
