NGP.pdb
     RDKit          3D

 20 20  0  0  1  0  0  0  0  0999 V2000
   10.9748  -17.3037   18.4776 N   0  0  0  0  0  0  0  0  0  0  0  0
    9.9621  -18.0102   19.2182 C   0  0  0  0  0  0  0  0  0  0  0  0
    9.9532  -19.2497   19.1337 O   0  0  0  0  0  0  0  0  0  0  0  0
    9.0282  -17.2042   20.0087 C   0  0  0  0  0  0  0  0  0  0  0  0
    9.5216  -16.9463   21.4122 C   0  0  2  0  0  0  0  0  0  0  0  0
    9.3251  -18.1773   22.2041 N   0  0  0  0  0  0  0  0  0  0  0  0
    8.6537  -15.9341   22.0536 C   0  0  0  0  0  0  0  0  0  0  0  0
    8.6652  -14.7372   21.6474 O   0  0  0  0  0  0  0  0  0  0  0  0
    7.8077  -16.3129   23.1266 N   0  0  0  0  0  0  0  0  0  0  0  0
    7.0368  -15.2958   23.8141 C   0  0  0  0  0  0  0  0  0  0  0  0
    7.8795  -14.6173   24.8365 C   0  0  0  0  0  0  0  0  0  0  0  0
    9.0892  -14.9509   24.9877 O   0  0  0  0  0  0  0  0  0  0  0  0
    7.3294  -13.5897   25.6499 N   0  0  0  0  0  0  0  0  0  0  0  0
    5.9909  -13.0162   25.4263 C   0  0  0  0  0  0  0  0  0  0  0  0
    6.0994  -11.6505   26.1312 C   0  0  0  0  0  0  0  0  0  0  0  0
    6.8835  -12.0759   27.3499 C   0  0  0  0  0  0  0  0  0  0  0  0
    7.9637  -12.9460   26.7766 C   0  0  1  0  0  0  0  0  0  0  0  0
    8.4799  -13.9186   27.7611 C   0  0  0  0  0  0  0  0  0  0  0  0
    7.9741  -15.0608   27.8044 O   0  0  0  0  0  0  0  0  0  0  0  0
    9.5035  -13.6159   28.6399 O   0  0  0  0  0  0  0  0  0  0  0  0
  2  1  1  0
  3  2  2  0
  4  5  1  0
  4  2  1  0
  5  6  1  1
  7  5  1  0
  7  8  2  0
  9  7  1  0
 10  9  1  0
 11 10  1  0
 12 11  2  0
 13 17  1  0
 13 11  1  0
 14 13  1  0
 15 14  1  0
 15 16  1  0
 16 17  1  0
 17 18  1  1
 18 19  2  0
 18 20  1  0
M  END
$$$$
