IFT.pdb
     RDKit          3D

 27 27  0  0  1  0  0  0  0  0999 V2000
   17.6419  -12.6268  -21.5444 C   0  0  0  0  0  0  0  0  0  0  0  0
   18.6210  -12.7949  -20.3984 C   0  0  0  0  0  0  0  0  0  0  0  0
   18.5589  -11.6053  -19.4437 C   0  0  2  0  0  0  0  0  0  0  0  0
   18.9820  -10.3945  -20.2281 C   0  0  0  0  0  0  0  0  0  0  0  0
   19.4768  -11.9161  -18.2997 C   0  0  2  0  0  0  0  0  0  0  0  0
   19.0963  -13.2044  -17.7555 N   0  0  0  0  0  0  0  0  0  0  0  0
   19.4586  -10.8514  -17.2565 C   0  0  0  0  0  0  0  0  0  0  0  0
   18.5250  -10.6836  -16.4694 O   0  0  0  0  0  0  0  0  0  0  0  0
   20.5916   -9.9988  -17.1892 N   0  0  0  0  0  0  0  0  0  0  0  0
   20.7445   -8.8913  -16.2943 C   0  0  1  0  0  0  0  0  0  0  0  0
   22.0268   -8.9307  -15.5233 C   0  0  0  0  0  0  0  0  0  0  0  0
   22.1309   -7.8602  -14.5180 C   0  0  0  0  0  0  0  0  0  0  0  0
   22.6484   -6.6312  -14.8539 C   0  0  0  0  0  0  0  0  0  0  0  0
   22.7566   -5.6054  -13.9220 C   0  0  0  0  0  0  0  0  0  0  0  0
   22.3445   -5.7894  -12.6189 C   0  0  0  0  0  0  0  0  0  0  0  0
   21.8264   -7.0169  -12.2785 C   0  0  0  0  0  0  0  0  0  0  0  0
   21.7253   -8.0244  -13.2130 C   0  0  0  0  0  0  0  0  0  0  0  0
   20.5424   -7.5605  -16.8922 C   0  0  0  0  0  0  0  0  0  0  0  0
   21.2182   -7.1271  -17.8461 O   0  0  0  0  0  0  0  0  0  0  0  0
   17.4172   -6.0499  -18.4080 C   0  0  0  0  0  0  0  0  0  0  0  0
   17.7757   -5.2266  -17.1858 C   0  0  1  0  0  0  0  0  0  0  0  0
   17.0083   -5.6405  -16.1092 O   0  0  0  0  0  0  0  0  0  0  0  0
   19.2751   -5.3884  -16.9038 C   0  0  2  0  0  0  0  0  0  0  0  0
   19.5281   -6.7246  -16.3617 N   0  0  0  0  0  0  0  0  0  0  0  0
   19.6282   -4.3637  -15.8980 C   0  0  0  0  0  0  0  0  0  0  0  0
   19.8454   -4.7359  -14.5840 O   0  0  0  0  0  0  0  0  0  0  0  0
   19.7276   -3.1762  -16.2386 O   0  0  0  0  0  0  0  0  0  0  0  0
  2  1  1  0
  3  2  1  0
  3  4  1  6
  5  3  1  0
  5  6  1  1
  7  8  2  0
  7  5  1  0
  9  7  1  0
 10  9  1  0
 11 12  1  0
 10 11  1  6
 12 13  2  0
 12 17  1  0
 13 14  1  0
 14 15  2  0
 16 15  1  0
 17 16  2  0
 18 24  1  0
 18 10  1  0
 19 18  2  0
 21 20  1  6
 22 21  1  0
 23 24  1  1
 23 21  1  0
 25 23  1  0
 26 25  1  0
 27 25  2  0
M  END
$$$$
