IFT.pdb
     RDKit          3D

 27 27  0  0  1  0  0  0  0  0999 V2000
   26.3353  -22.5945  -19.9478 C   0  0  0  0  0  0  0  0  0  0  0  0
   27.0040  -23.0370  -18.6605 C   0  0  0  0  0  0  0  0  0  0  0  0
   26.0802  -22.8312  -17.4627 C   0  0  2  0  0  0  0  0  0  0  0  0
   25.8374  -21.3518  -17.3485 C   0  0  0  0  0  0  0  0  0  0  0  0
   26.7803  -23.4069  -16.2683 C   0  0  2  0  0  0  0  0  0  0  0  0
   26.9355  -24.8320  -16.4820 N   0  0  0  0  0  0  0  0  0  0  0  0
   26.0580  -23.1169  -14.9970 C   0  0  0  0  0  0  0  0  0  0  0  0
   25.0329  -23.7042  -14.6457 O   0  0  0  0  0  0  0  0  0  0  0  0
   26.6033  -22.1041  -14.1651 N   0  0  0  0  0  0  0  0  0  0  0  0
   26.0120  -21.6163  -12.9555 C   0  0  1  0  0  0  0  0  0  0  0  0
   27.0150  -21.0637  -11.9916 C   0  0  0  0  0  0  0  0  0  0  0  0
   26.4257  -20.6857  -10.6965 C   0  0  0  0  0  0  0  0  0  0  0  0
   25.8672  -21.6376   -9.8760 C   0  0  0  0  0  0  0  0  0  0  0  0
   25.3051  -21.3046   -8.6491 C   0  0  0  0  0  0  0  0  0  0  0  0
   25.2895  -19.9968   -8.2116 C   0  0  0  0  0  0  0  0  0  0  0  0
   25.8469  -19.0416   -9.0288 C   0  0  0  0  0  0  0  0  0  0  0  0
   26.4006  -19.3866  -10.2425 C   0  0  0  0  0  0  0  0  0  0  0  0
   24.8925  -20.6755  -13.1316 C   0  0  0  0  0  0  0  0  0  0  0  0
   25.0341  -19.5130  -13.5595 O   0  0  0  0  0  0  0  0  0  0  0  0
   21.5865  -21.8852  -14.6984 C   0  0  0  0  0  0  0  0  0  0  0  0
   21.9257  -20.4251  -14.4678 C   0  0  1  0  0  0  0  0  0  0  0  0
   20.8084  -19.6461  -14.7213 O   0  0  0  0  0  0  0  0  0  0  0  0
   22.4157  -20.2540  -13.0240 C   0  0  2  0  0  0  0  0  0  0  0  0
   23.5838  -21.1077  -12.8008 N   0  0  0  0  0  0  0  0  0  0  0  0
   21.3050  -20.6841  -12.1478 C   0  0  0  0  0  0  0  0  0  0  0  0
   20.1326  -19.9513  -12.1137 O   0  0  0  0  0  0  0  0  0  0  0  0
   21.4311  -21.6995  -11.4485 O   0  0  0  0  0  0  0  0  0  0  0  0
  2  1  1  0
  3  2  1  0
  3  4  1  1
  5  3  1  0
  5  6  1  6
  7  8  2  0
  7  5  1  0
  9  7  1  0
 10  9  1  0
 11 12  1  0
 10 11  1  1
 12 13  2  0
 12 17  1  0
 13 14  1  0
 14 15  2  0
 16 15  1  0
 17 16  2  0
 18 24  1  0
 18 10  1  0
 19 18  2  0
 21 20  1  1
 22 21  1  0
 23 24  1  6
 23 21  1  0
 25 23  1  0
 26 25  1  0
 27 25  2  0
M  END
$$$$
