IFT.pdb
     RDKit          3D

 27 27  0  0  1  0  0  0  0  0999 V2000
   28.6925  -17.6028  -16.5807 C   0  0  0  0  0  0  0  0  0  0  0  0
   28.9296  -18.6157  -15.4770 C   0  0  0  0  0  0  0  0  0  0  0  0
   27.6160  -19.2394  -15.0122 C   0  0  2  0  0  0  0  0  0  0  0  0
   26.7269  -18.1083  -14.5757 C   0  0  0  0  0  0  0  0  0  0  0  0
   27.9529  -20.1866  -13.8998 C   0  0  2  0  0  0  0  0  0  0  0  0
   28.8811  -21.1731  -14.4152 N   0  0  0  0  0  0  0  0  0  0  0  0
   26.7391  -20.8257  -13.3163 C   0  0  0  0  0  0  0  0  0  0  0  0
   26.1837  -21.8104  -13.8074 O   0  0  0  0  0  0  0  0  0  0  0  0
   26.2161  -20.2474  -12.1300 N   0  0  0  0  0  0  0  0  0  0  0  0
   25.0822  -20.7310  -11.4013 C   0  0  1  0  0  0  0  0  0  0  0  0
   25.1129  -20.3604   -9.9515 C   0  0  0  0  0  0  0  0  0  0  0  0
   26.4333  -20.5588   -9.3312 C   0  0  0  0  0  0  0  0  0  0  0  0
   27.3658  -21.3831   -9.9163 C   0  0  0  0  0  0  0  0  0  0  0  0
   28.6186  -21.5858   -9.3493 C   0  0  0  0  0  0  0  0  0  0  0  0
   28.9695  -20.9610   -8.1710 C   0  0  0  0  0  0  0  0  0  0  0  0
   28.0402  -20.1359   -7.5825 C   0  0  0  0  0  0  0  0  0  0  0  0
   26.8020  -19.9444   -8.1561 C   0  0  0  0  0  0  0  0  0  0  0  0
   23.7691  -20.4127  -11.9877 C   0  0  0  0  0  0  0  0  0  0  0  0
   23.2409  -19.2855  -11.9168 O   0  0  0  0  0  0  0  0  0  0  0  0
   22.8815  -21.5840  -15.6255 C   0  0  0  0  0  0  0  0  0  0  0  0
   21.7894  -22.0328  -14.6735 C   0  0  1  0  0  0  0  0  0  0  0  0
   21.9683  -23.3714  -14.3642 O   0  0  0  0  0  0  0  0  0  0  0  0
   21.8372  -21.1533  -13.4172 C   0  0  2  0  0  0  0  0  0  0  0  0
   23.0644  -21.4355  -12.6705 N   0  0  0  0  0  0  0  0  0  0  0  0
   20.6586  -21.5177  -12.6021 C   0  0  0  0  0  0  0  0  0  0  0  0
   19.3952  -21.1274  -13.0068 O   0  0  0  0  0  0  0  0  0  0  0  0
   20.8099  -22.1713  -11.5600 O   0  0  0  0  0  0  0  0  0  0  0  0
  2  1  1  0
  3  2  1  0
  3  4  1  1
  5  3  1  0
  5  6  1  6
  7  8  2  0
  7  5  1  0
  9  7  1  0
 10  9  1  0
 11 12  1  0
 10 11  1  1
 12 13  2  0
 12 17  1  0
 13 14  1  0
 14 15  2  0
 16 15  1  0
 17 16  2  0
 18 24  1  0
 18 10  1  0
 19 18  2  0
 21 20  1  6
 22 21  1  0
 23 24  1  1
 23 21  1  0
 25 23  1  0
 26 25  1  0
 27 25  2  0
M  END
$$$$
