IFT.pdb
     RDKit          3D

 27 27  0  0  1  0  0  0  0  0999 V2000
   21.6768  -15.2840  -19.9061 C   0  0  0  0  0  0  0  0  0  0  0  0
   22.5748  -14.0632  -19.8457 C   0  0  0  0  0  0  0  0  0  0  0  0
   22.1532  -13.1264  -18.7165 C   0  0  2  0  0  0  0  0  0  0  0  0
   20.7267  -12.7346  -18.9849 C   0  0  0  0  0  0  0  0  0  0  0  0
   23.0980  -11.9624  -18.7402 C   0  0  2  0  0  0  0  0  0  0  0  0
   24.4495  -12.4819  -18.8029 N   0  0  0  0  0  0  0  0  0  0  0  0
   22.9097  -11.0592  -17.5693 C   0  0  0  0  0  0  0  0  0  0  0  0
   22.4276  -11.4257  -16.4957 O   0  0  0  0  0  0  0  0  0  0  0  0
   23.3168   -9.7086  -17.7280 N   0  0  0  0  0  0  0  0  0  0  0  0
   23.1274   -8.6663  -16.7644 C   0  0  1  0  0  0  0  0  0  0  0  0
   24.3921   -7.9401  -16.4271 C   0  0  0  0  0  0  0  0  0  0  0  0
   25.5064   -8.8426  -16.0935 C   0  0  0  0  0  0  0  0  0  0  0  0
   25.4804   -9.5918  -14.9405 C   0  0  0  0  0  0  0  0  0  0  0  0
   26.5206  -10.4504  -14.6046 C   0  0  0  0  0  0  0  0  0  0  0  0
   27.6220  -10.5795  -15.4245 C   0  0  0  0  0  0  0  0  0  0  0  0
   27.6522   -9.8323  -16.5784 C   0  0  0  0  0  0  0  0  0  0  0  0
   26.6136   -8.9852  -16.8985 C   0  0  0  0  0  0  0  0  0  0  0  0
   22.0487   -7.7105  -17.0681 C   0  0  0  0  0  0  0  0  0  0  0  0
   21.8598   -7.2264  -18.2015 O   0  0  0  0  0  0  0  0  0  0  0  0
   17.7195   -5.9278  -15.4346 C   0  0  0  0  0  0  0  0  0  0  0  0
   18.9213   -6.8241  -15.2053 C   0  0  1  0  0  0  0  0  0  0  0  0
   18.5198   -8.1498  -15.2308 O   0  0  0  0  0  0  0  0  0  0  0  0
   19.9688   -6.5320  -16.2876 C   0  0  2  0  0  0  0  0  0  0  0  0
   21.1756   -7.3174  -16.0231 N   0  0  0  0  0  0  0  0  0  0  0  0
   20.2789   -5.0892  -16.1962 C   0  0  0  0  0  0  0  0  0  0  0  0
   19.5397   -4.1791  -16.9294 O   0  0  0  0  0  0  0  0  0  0  0  0
   21.2002   -4.7034  -15.4624 O   0  0  0  0  0  0  0  0  0  0  0  0
  2  1  1  0
  3  2  1  0
  3  4  1  6
  5  3  1  0
  5  6  1  1
  7  8  2  0
  7  5  1  0
  9  7  1  0
 10  9  1  0
 11 12  1  0
 10 11  1  6
 12 13  2  0
 12 17  1  0
 13 14  1  0
 14 15  2  0
 16 15  1  0
 17 16  2  0
 18 24  1  0
 18 10  1  0
 19 18  2  0
 21 20  1  6
 22 21  1  0
 23 24  1  1
 23 21  1  0
 25 23  1  0
 26 25  1  0
 27 25  2  0
M  END
$$$$
