IFT.pdb
     RDKit          3D

 27 27  0  0  1  0  0  0  0  0999 V2000
   19.5389  -14.4414  -18.0312 C   0  0  0  0  0  0  0  0  0  0  0  0
   19.5488  -12.9991  -18.5000 C   0  0  0  0  0  0  0  0  0  0  0  0
   19.3798  -12.0385  -17.3256 C   0  0  2  0  0  0  0  0  0  0  0  0
   18.1185  -12.4396  -16.6125 C   0  0  0  0  0  0  0  0  0  0  0  0
   19.3171  -10.6548  -17.8998 C   0  0  2  0  0  0  0  0  0  0  0  0
   20.5421  -10.4185  -18.6375 N   0  0  0  0  0  0  0  0  0  0  0  0
   19.0980   -9.6184  -16.8511 C   0  0  0  0  0  0  0  0  0  0  0  0
   18.1782   -9.6609  -16.0316 O   0  0  0  0  0  0  0  0  0  0  0  0
   20.0141   -8.5345  -16.8179 N   0  0  0  0  0  0  0  0  0  0  0  0
   19.9522   -7.4231  -15.9170 C   0  0  1  0  0  0  0  0  0  0  0  0
   21.2716   -7.1018  -15.2875 C   0  0  0  0  0  0  0  0  0  0  0  0
   21.7581   -8.1625  -14.3898 C   0  0  0  0  0  0  0  0  0  0  0  0
   21.2726   -8.2731  -13.1079 C   0  0  0  0  0  0  0  0  0  0  0  0
   21.7167   -9.2660  -12.2424 C   0  0  0  0  0  0  0  0  0  0  0  0
   22.6673  -10.1802  -12.6455 C   0  0  0  0  0  0  0  0  0  0  0  0
   23.1557  -10.0733  -13.9265 C   0  0  0  0  0  0  0  0  0  0  0  0
   22.7059   -9.0838  -14.7735 C   0  0  0  0  0  0  0  0  0  0  0  0
   19.3273   -6.2035  -16.4569 C   0  0  0  0  0  0  0  0  0  0  0  0
   19.6181   -5.7176  -17.5677 O   0  0  0  0  0  0  0  0  0  0  0  0
   15.7629   -2.7937  -15.7936 C   0  0  0  0  0  0  0  0  0  0  0  0
   16.4199   -4.0733  -15.3126 C   0  0  1  0  0  0  0  0  0  0  0  0
   15.5171   -5.1198  -15.4081 O   0  0  0  0  0  0  0  0  0  0  0  0
   17.6739   -4.3324  -16.1578 C   0  0  2  0  0  0  0  0  0  0  0  0
   18.3428   -5.5437  -15.6796 N   0  0  0  0  0  0  0  0  0  0  0  0
   18.5587   -3.1628  -15.9695 C   0  0  0  0  0  0  0  0  0  0  0  0
   18.3778   -2.0317  -16.7443 O   0  0  0  0  0  0  0  0  0  0  0  0
   19.4581   -3.2029  -15.1177 O   0  0  0  0  0  0  0  0  0  0  0  0
  2  1  1  0
  3  2  1  0
  3  4  1  6
  5  3  1  0
  5  6  1  1
  7  8  2  0
  7  5  1  0
  9  7  1  0
 10  9  1  0
 11 12  1  0
 10 11  1  6
 12 13  2  0
 12 17  1  0
 13 14  1  0
 14 15  2  0
 16 15  1  0
 17 16  2  0
 18 24  1  0
 18 10  1  0
 19 18  2  0
 21 20  1  6
 22 21  1  0
 23 24  1  1
 23 21  1  0
 25 23  1  0
 26 25  1  0
 27 25  2  0
M  END
$$$$
