IFT.pdb
     RDKit          3D

 27 27  0  0  1  0  0  0  0  0999 V2000
   29.8317  -20.7754   -9.2273 C   0  0  0  0  0  0  0  0  0  0  0  0
   29.3915  -20.9881  -10.6630 C   0  0  0  0  0  0  0  0  0  0  0  0
   28.0215  -20.3638  -10.9157 C   0  0  2  0  0  0  0  0  0  0  0  0
   27.0311  -21.1373  -10.0903 C   0  0  0  0  0  0  0  0  0  0  0  0
   27.7633  -20.4612  -12.3895 C   0  0  2  0  0  0  0  0  0  0  0  0
   28.9594  -20.0294  -13.0847 N   0  0  0  0  0  0  0  0  0  0  0  0
   26.5696  -19.6717  -12.8064 C   0  0  0  0  0  0  0  0  0  0  0  0
   26.4052  -18.4832  -12.5240 O   0  0  0  0  0  0  0  0  0  0  0  0
   25.5843  -20.3516  -13.5694 N   0  0  0  0  0  0  0  0  0  0  0  0
   24.4279  -19.7467  -14.1587 C   0  0  1  0  0  0  0  0  0  0  0  0
   24.6240  -19.3799  -15.5966 C   0  0  0  0  0  0  0  0  0  0  0  0
   25.7365  -18.4389  -15.8073 C   0  0  0  0  0  0  0  0  0  0  0  0
   25.5757  -17.0962  -15.5570 C   0  0  0  0  0  0  0  0  0  0  0  0
   26.6113  -16.1890  -15.7486 C   0  0  0  0  0  0  0  0  0  0  0  0
   27.8444  -16.6105  -16.2000 C   0  0  0  0  0  0  0  0  0  0  0  0
   28.0096  -17.9522  -16.4517 C   0  0  0  0  0  0  0  0  0  0  0  0
   26.9739  -18.8400  -16.2572 C   0  0  0  0  0  0  0  0  0  0  0  0
   23.1662  -20.4858  -13.9821 C   0  0  0  0  0  0  0  0  0  0  0  0
   23.0863  -21.7290  -14.0332 O   0  0  0  0  0  0  0  0  0  0  0  0
   18.3745  -20.0947  -12.6784 C   0  0  0  0  0  0  0  0  0  0  0  0
   19.7030  -19.3994  -12.9060 C   0  0  1  0  0  0  0  0  0  0  0  0
   20.1388  -18.8364  -11.7176 O   0  0  0  0  0  0  0  0  0  0  0  0
   20.7098  -20.4230  -13.4468 C   0  0  2  0  0  0  0  0  0  0  0  0
   21.9777  -19.7524  -13.7397 N   0  0  0  0  0  0  0  0  0  0  0  0
   20.1300  -20.9671  -14.6935 C   0  0  0  0  0  0  0  0  0  0  0  0
   19.4967  -22.1963  -14.6782 O   0  0  0  0  0  0  0  0  0  0  0  0
   20.2150  -20.3178  -15.7457 O   0  0  0  0  0  0  0  0  0  0  0  0
  2  1  1  0
  3  2  1  0
  3  4  1  1
  5  3  1  0
  5  6  1  6
  7  8  2  0
  7  5  1  0
  9  7  1  0
 10  9  1  0
 11 12  1  0
 10 11  1  6
 12 13  2  0
 12 17  1  0
 13 14  1  0
 14 15  2  0
 16 15  1  0
 17 16  2  0
 18 24  1  0
 18 10  1  0
 19 18  2  0
 21 20  1  1
 22 21  1  0
 23 24  1  6
 23 21  1  0
 25 23  1  0
 26 25  1  0
 27 25  2  0
M  END
$$$$
