IFT.pdb
     RDKit          3D

 27 27  0  0  1  0  0  0  0  0999 V2000
   27.4082  -20.5782  -19.3124 C   0  0  0  0  0  0  0  0  0  0  0  0
   27.8084  -20.6206  -17.8501 C   0  0  0  0  0  0  0  0  0  0  0  0
   26.6757  -21.1695  -16.9863 C   0  0  2  0  0  0  0  0  0  0  0  0
   25.4921  -20.2660  -17.1940 C   0  0  0  0  0  0  0  0  0  0  0  0
   27.1707  -21.1755  -15.5710 C   0  0  2  0  0  0  0  0  0  0  0  0
   28.3060  -22.0733  -15.4958 N   0  0  0  0  0  0  0  0  0  0  0  0
   26.1037  -21.5559  -14.6019 C   0  0  0  0  0  0  0  0  0  0  0  0
   25.7299  -22.7162  -14.4196 O   0  0  0  0  0  0  0  0  0  0  0  0
   25.5028  -20.5035  -13.8625 N   0  0  0  0  0  0  0  0  0  0  0  0
   24.4796  -20.6635  -12.8735 C   0  0  1  0  0  0  0  0  0  0  0  0
   24.6698  -19.7782  -11.6817 C   0  0  0  0  0  0  0  0  0  0  0  0
   25.6933  -20.2765  -10.7480 C   0  0  0  0  0  0  0  0  0  0  0  0
   26.9629  -20.5671  -11.1897 C   0  0  0  0  0  0  0  0  0  0  0  0
   27.9455  -21.0386  -10.3270 C   0  0  0  0  0  0  0  0  0  0  0  0
   27.6760  -21.2318   -8.9884 C   0  0  0  0  0  0  0  0  0  0  0  0
   26.4079  -20.9425   -8.5424 C   0  0  0  0  0  0  0  0  0  0  0  0
   25.4438  -20.4757   -9.4092 C   0  0  0  0  0  0  0  0  0  0  0  0
   23.0966  -20.5690  -13.3712 C   0  0  0  0  0  0  0  0  0  0  0  0
   22.5991  -19.5173  -13.8198 O   0  0  0  0  0  0  0  0  0  0  0  0
   18.9966  -23.1464  -14.5304 C   0  0  0  0  0  0  0  0  0  0  0  0
   20.4435  -23.1685  -14.0761 C   0  0  1  0  0  0  0  0  0  0  0  0
   21.2126  -23.8333  -15.0174 O   0  0  0  0  0  0  0  0  0  0  0  0
   20.9208  -21.7241  -13.8773 C   0  0  2  0  0  0  0  0  0  0  0  0
   22.2839  -21.7299  -13.3431 N   0  0  0  0  0  0  0  0  0  0  0  0
   20.0007  -21.1066  -12.8982 C   0  0  0  0  0  0  0  0  0  0  0  0
   18.7154  -20.7687  -13.2806 O   0  0  0  0  0  0  0  0  0  0  0  0
   20.3869  -20.8954  -11.7397 O   0  0  0  0  0  0  0  0  0  0  0  0
  2  1  1  0
  3  2  1  0
  3  4  1  1
  5  3  1  0
  5  6  1  6
  7  8  2  0
  7  5  1  0
  9  7  1  0
 10  9  1  0
 11 12  1  0
 10 11  1  1
 12 13  2  0
 12 17  1  0
 13 14  1  0
 14 15  2  0
 16 15  1  0
 17 16  2  0
 18 24  1  0
 18 10  1  0
 19 18  2  0
 21 20  1  6
 22 21  1  0
 23 24  1  1
 23 21  1  0
 25 23  1  0
 26 25  1  0
 27 25  2  0
M  END
$$$$
