IFT.pdb
     RDKit          3D

 27 27  0  0  1  0  0  0  0  0999 V2000
   27.8811  -20.3981  -19.5396 C   0  0  0  0  0  0  0  0  0  0  0  0
   28.3898  -21.1394  -18.3181 C   0  0  0  0  0  0  0  0  0  0  0  0
   27.3309  -21.1793  -17.2192 C   0  0  2  0  0  0  0  0  0  0  0  0
   26.9685  -19.7531  -16.9112 C   0  0  0  0  0  0  0  0  0  0  0  0
   27.9404  -21.8972  -16.0525 C   0  0  2  0  0  0  0  0  0  0  0  0
   28.3336  -23.2202  -16.4945 N   0  0  0  0  0  0  0  0  0  0  0  0
   27.0171  -21.9597  -14.8838 C   0  0  0  0  0  0  0  0  0  0  0  0
   25.9250  -22.5306  -14.9070 O   0  0  0  0  0  0  0  0  0  0  0  0
   27.4451  -21.3177  -13.6922 N   0  0  0  0  0  0  0  0  0  0  0  0
   26.6515  -21.1426  -12.5131 C   0  0  1  0  0  0  0  0  0  0  0  0
   27.4470  -20.6828  -11.3315 C   0  0  0  0  0  0  0  0  0  0  0  0
   26.6378  -20.5370  -10.1103 C   0  0  0  0  0  0  0  0  0  0  0  0
   26.8301  -19.4689   -9.2655 C   0  0  0  0  0  0  0  0  0  0  0  0
   26.0784  -19.3102   -8.1071 C   0  0  0  0  0  0  0  0  0  0  0  0
   25.1069  -20.2273   -7.7649 C   0  0  0  0  0  0  0  0  0  0  0  0
   24.9113  -21.2968   -8.6067 C   0  0  0  0  0  0  0  0  0  0  0  0
   25.6641  -21.4412   -9.7518 C   0  0  0  0  0  0  0  0  0  0  0  0
   25.4458  -20.3129  -12.6780 C   0  0  0  0  0  0  0  0  0  0  0  0
   25.4776  -19.0722  -12.7970 O   0  0  0  0  0  0  0  0  0  0  0  0
   23.1649  -19.7574  -15.2445 C   0  0  0  0  0  0  0  0  0  0  0  0
   22.3054  -20.4260  -14.1888 C   0  0  1  0  0  0  0  0  0  0  0  0
   22.1983  -21.7784  -14.4696 O   0  0  0  0  0  0  0  0  0  0  0  0
   22.9378  -20.1851  -12.8119 C   0  0  2  0  0  0  0  0  0  0  0  0
   24.1806  -20.9514  -12.7050 N   0  0  0  0  0  0  0  0  0  0  0  0
   21.9632  -20.6671  -11.8098 C   0  0  0  0  0  0  0  0  0  0  0  0
   20.7675  -19.9949  -11.6346 O   0  0  0  0  0  0  0  0  0  0  0  0
   22.2237  -21.6716  -11.1322 O   0  0  0  0  0  0  0  0  0  0  0  0
  2  1  1  0
  3  2  1  0
  3  4  1  1
  5  3  1  0
  5  6  1  6
  7  8  2  0
  7  5  1  0
  9  7  1  0
 10  9  1  0
 11 12  1  0
 10 11  1  1
 12 13  2  0
 12 17  1  0
 13 14  1  0
 14 15  2  0
 16 15  1  0
 17 16  2  0
 18 24  1  0
 18 10  1  0
 19 18  2  0
 21 20  1  6
 22 21  1  0
 23 24  1  6
 23 21  1  0
 25 23  1  0
 26 25  1  0
 27 25  2  0
M  END
$$$$
