IFT.pdb
     RDKit          3D

 27 27  0  0  1  0  0  0  0  0999 V2000
   15.0877  -13.2341  -19.3768 C   0  0  0  0  0  0  0  0  0  0  0  0
   16.4887  -13.2172  -18.7962 C   0  0  0  0  0  0  0  0  0  0  0  0
   16.6674  -12.0518  -17.8264 C   0  0  2  0  0  0  0  0  0  0  0  0
   16.4694  -10.7902  -18.6199 C   0  0  0  0  0  0  0  0  0  0  0  0
   18.0454  -12.1735  -17.2480 C   0  0  2  0  0  0  0  0  0  0  0  0
   18.1824  -13.5037  -16.6893 N   0  0  0  0  0  0  0  0  0  0  0  0
   18.3260  -11.1189  -16.2326 C   0  0  0  0  0  0  0  0  0  0  0  0
   17.7789  -11.0717  -15.1291 O   0  0  0  0  0  0  0  0  0  0  0  0
   19.2799  -10.1276  -16.5828 N   0  0  0  0  0  0  0  0  0  0  0  0
   19.6368   -8.9984  -15.7777 C   0  0  1  0  0  0  0  0  0  0  0  0
   21.1062   -8.9099  -15.5067 C   0  0  0  0  0  0  0  0  0  0  0  0
   21.4646   -7.7922  -14.6181 C   0  0  0  0  0  0  0  0  0  0  0  0
   21.8787   -6.5883  -15.1382 C   0  0  0  0  0  0  0  0  0  0  0  0
   22.2222   -5.5190  -14.3193 C   0  0  0  0  0  0  0  0  0  0  0  0
   22.1582   -5.6324  -12.9463 C   0  0  0  0  0  0  0  0  0  0  0  0
   21.7446   -6.8344  -12.4219 C   0  0  0  0  0  0  0  0  0  0  0  0
   21.4072   -7.8858  -13.2461 C   0  0  0  0  0  0  0  0  0  0  0  0
   19.1183   -7.7001  -16.2413 C   0  0  0  0  0  0  0  0  0  0  0  0
   19.4050   -7.2023  -17.3479 O   0  0  0  0  0  0  0  0  0  0  0  0
   15.3538   -6.2608  -15.8723 C   0  0  0  0  0  0  0  0  0  0  0  0
   16.3724   -5.4218  -15.1248 C   0  0  1  0  0  0  0  0  0  0  0  0
   16.3629   -5.7705  -13.7841 O   0  0  0  0  0  0  0  0  0  0  0  0
   17.7535   -5.6446  -15.7548 C   0  0  2  0  0  0  0  0  0  0  0  0
   18.2468   -6.9742  -15.3913 N   0  0  0  0  0  0  0  0  0  0  0  0
   18.6456   -4.6076  -15.1934 C   0  0  0  0  0  0  0  0  0  0  0  0
   18.4758   -3.2842  -15.5570 O   0  0  0  0  0  0  0  0  0  0  0  0
   19.5410   -4.9305  -14.3997 O   0  0  0  0  0  0  0  0  0  0  0  0
  2  1  1  0
  3  2  1  0
  3  4  1  6
  5  3  1  0
  5  6  1  1
  7  8  2  0
  7  5  1  0
  9  7  1  0
 10  9  1  0
 11 12  1  0
 10 11  1  6
 12 13  2  0
 12 17  1  0
 13 14  1  0
 14 15  2  0
 16 15  1  0
 17 16  2  0
 18 24  1  0
 18 10  1  0
 19 18  2  0
 21 20  1  6
 22 21  1  0
 23 24  1  1
 23 21  1  0
 25 23  1  0
 26 25  1  0
 27 25  2  0
M  END
$$$$
