IFT.pdb
     RDKit          3D

 27 27  0  0  1  0  0  0  0  0999 V2000
   29.5752  -17.9638  -16.6307 C   0  0  0  0  0  0  0  0  0  0  0  0
   28.4276  -17.6672  -15.6846 C   0  0  0  0  0  0  0  0  0  0  0  0
   27.6368  -18.9335  -15.3661 C   0  0  2  0  0  0  0  0  0  0  0  0
   27.1842  -19.5068  -16.6802 C   0  0  0  0  0  0  0  0  0  0  0  0
   26.4992  -18.5255  -14.4786 C   0  0  2  0  0  0  0  0  0  0  0  0
   27.0400  -18.2097  -13.1716 N   0  0  0  0  0  0  0  0  0  0  0  0
   25.4426  -19.5738  -14.3980 C   0  0  0  0  0  0  0  0  0  0  0  0
   24.8113  -19.9826  -15.3746 O   0  0  0  0  0  0  0  0  0  0  0  0
   25.1694  -20.1130  -13.1136 N   0  0  0  0  0  0  0  0  0  0  0  0
   24.1377  -21.0597  -12.8134 C   0  0  1  0  0  0  0  0  0  0  0  0
   24.4332  -21.8875  -11.6019 C   0  0  0  0  0  0  0  0  0  0  0  0
   25.5034  -21.3237  -10.7626 C   0  0  0  0  0  0  0  0  0  0  0  0
   25.2003  -20.5844   -9.6433 C   0  0  0  0  0  0  0  0  0  0  0  0
   26.1934  -20.0422   -8.8358 C   0  0  0  0  0  0  0  0  0  0  0  0
   27.5266  -20.2303   -9.1343 C   0  0  0  0  0  0  0  0  0  0  0  0
   27.8343  -20.9690  -10.2526 C   0  0  0  0  0  0  0  0  0  0  0  0
   26.8391  -21.5004  -11.0437 C   0  0  0  0  0  0  0  0  0  0  0  0
   22.7734  -20.5092  -12.7422 C   0  0  0  0  0  0  0  0  0  0  0  0
   22.4097  -19.6865  -11.8788 O   0  0  0  0  0  0  0  0  0  0  0  0
   20.7574  -19.1541  -15.8715 C   0  0  0  0  0  0  0  0  0  0  0  0
   19.9894  -20.2685  -15.1870 C   0  0  1  0  0  0  0  0  0  0  0  0
   20.1861  -21.4548  -15.8752 O   0  0  0  0  0  0  0  0  0  0  0  0
   20.4658  -20.3757  -13.7325 C   0  0  2  0  0  0  0  0  0  0  0  0
   21.8200  -20.9310  -13.7024 N   0  0  0  0  0  0  0  0  0  0  0  0
   19.5310  -21.2951  -13.0491 C   0  0  0  0  0  0  0  0  0  0  0  0
   18.2371  -20.8868  -12.7815 O   0  0  0  0  0  0  0  0  0  0  0  0
   19.9126  -22.4273  -12.7197 O   0  0  0  0  0  0  0  0  0  0  0  0
  2  1  1  0
  3  2  1  0
  3  4  1  6
  5  3  1  0
  5  6  1  1
  7  8  2  0
  7  5  1  0
  9  7  1  0
 10  9  1  0
 11 12  1  0
 10 11  1  1
 12 13  2  0
 12 17  1  0
 13 14  1  0
 14 15  2  0
 16 15  1  0
 17 16  2  0
 18 24  1  0
 18 10  1  0
 19 18  2  0
 21 20  1  6
 22 21  1  0
 23 24  1  6
 23 21  1  0
 25 23  1  0
 26 25  1  0
 27 25  2  0
M  END
$$$$
