IFT.pdb
     RDKit          3D

 27 27  0  0  1  0  0  0  0  0999 V2000
   20.3854  -14.6665  -18.4360 C   0  0  0  0  0  0  0  0  0  0  0  0
   20.4308  -13.2115  -18.8617 C   0  0  0  0  0  0  0  0  0  0  0  0
   19.8374  -12.3055  -17.7857 C   0  0  2  0  0  0  0  0  0  0  0  0
   18.4404  -12.7962  -17.5246 C   0  0  0  0  0  0  0  0  0  0  0  0
   19.8793  -10.9061  -18.3225 C   0  0  2  0  0  0  0  0  0  0  0  0
   21.2140  -10.6595  -18.8306 N   0  0  0  0  0  0  0  0  0  0  0  0
   19.4856   -9.8971  -17.2983 C   0  0  0  0  0  0  0  0  0  0  0  0
   18.4801   -9.9981  -16.5926 O   0  0  0  0  0  0  0  0  0  0  0  0
   20.3337   -8.7685  -17.1493 N   0  0  0  0  0  0  0  0  0  0  0  0
   20.1296   -7.6936  -16.2255 C   0  0  1  0  0  0  0  0  0  0  0  0
   21.3655   -7.3303  -15.4633 C   0  0  0  0  0  0  0  0  0  0  0  0
   21.8256   -8.4001  -14.5627 C   0  0  0  0  0  0  0  0  0  0  0  0
   21.3152   -8.5132  -13.2906 C   0  0  0  0  0  0  0  0  0  0  0  0
   21.7341   -9.5148  -12.4226 C   0  0  0  0  0  0  0  0  0  0  0  0
   22.6838  -10.4355  -12.8130 C   0  0  0  0  0  0  0  0  0  0  0  0
   23.1968  -10.3262  -14.0841 C   0  0  0  0  0  0  0  0  0  0  0  0
   22.7720   -9.3280  -14.9337 C   0  0  0  0  0  0  0  0  0  0  0  0
   19.4956   -6.4879  -16.7857 C   0  0  0  0  0  0  0  0  0  0  0  0
   19.9258   -5.8912  -17.7924 O   0  0  0  0  0  0  0  0  0  0  0  0
   15.8326   -6.3374  -17.7947 C   0  0  0  0  0  0  0  0  0  0  0  0
   16.0674   -5.2674  -16.7459 C   0  0  1  0  0  0  0  0  0  0  0  0
   15.6664   -5.7398  -15.5068 O   0  0  0  0  0  0  0  0  0  0  0  0
   17.5545   -4.8896  -16.7502 C   0  0  2  0  0  0  0  0  0  0  0  0
   18.3353   -5.9748  -16.1538 N   0  0  0  0  0  0  0  0  0  0  0  0
   17.6818   -3.6683  -15.9264 C   0  0  0  0  0  0  0  0  0  0  0  0
   17.2280   -2.4575  -16.4169 O   0  0  0  0  0  0  0  0  0  0  0  0
   18.1949   -3.7367  -14.8004 O   0  0  0  0  0  0  0  0  0  0  0  0
  2  1  1  0
  3  2  1  0
  3  4  1  6
  5  3  1  0
  5  6  1  1
  7  8  2  0
  7  5  1  0
  9  7  1  0
 10  9  1  0
 11 12  1  0
 10 11  1  6
 12 13  2  0
 12 17  1  0
 13 14  1  0
 14 15  2  0
 16 15  1  0
 17 16  2  0
 18 24  1  0
 18 10  1  0
 19 18  2  0
 21 20  1  6
 22 21  1  0
 23 24  1  1
 23 21  1  0
 25 23  1  0
 26 25  1  0
 27 25  2  0
M  END
$$$$
