TCE.pdb
     RDKit          3D

 23 22  0  0  1  0  0  0  0  0999 V2000
    6.8365  -15.8658   20.3289 C   0  0  0  0  0  0  0  0  0  0  0  0
    7.5700  -14.7067   19.7070 C   0  0  1  0  0  0  0  0  0  0  0  0
    7.0180  -14.5077   18.4237 O   0  0  0  0  0  0  0  0  0  0  0  0
    7.3972  -13.4055   20.5017 C   0  0  2  0  0  0  0  0  0  0  0  0
    8.0656  -12.3823   19.6824 N   0  0  0  0  0  0  0  0  0  0  0  0
    8.1253  -13.4571   21.8021 C   0  0  0  0  0  0  0  0  0  0  0  0
    9.3930  -13.3445   21.8088 O   0  0  0  0  0  0  0  0  0  0  0  0
    7.4173  -13.6273   23.0171 N   0  0  0  0  0  0  0  0  0  0  0  0
    8.1130  -13.8017   24.2854 C   0  0  1  0  0  0  0  0  0  0  0  0
    7.2413  -13.3130   25.4202 C   0  0  0  0  0  0  0  0  0  0  0  0
    5.5835  -14.0008   25.4143 S   0  0  0  0  0  0  0  0  0  0  0  0
    8.4280  -15.2310   24.5167 C   0  0  0  0  0  0  0  0  0  0  0  0
    7.5593  -16.1353   24.2354 O   0  0  0  0  0  0  0  0  0  0  0  0
    9.6378  -15.7450   25.0354 N   0  0  0  0  0  0  0  0  0  0  0  0
    9.8650  -17.1555   25.2808 C   0  0  1  0  0  0  0  0  0  0  0  0
   11.0012  -17.6914   24.4294 C   0  0  0  0  0  0  0  0  0  0  0  0
   11.8720  -16.5688   23.9276 C   0  0  0  0  0  0  0  0  0  0  0  0
   12.9469  -17.0373   23.0460 C   0  0  0  0  0  0  0  0  0  0  0  0
   13.7576  -16.2123   22.5522 O   0  0  0  0  0  0  0  0  0  0  0  0
   10.1192  -17.3451   26.7207 C   0  0  0  0  0  0  0  0  0  0  0  0
   10.3086  -18.6144   27.2292 O   0  0  0  0  0  0  0  0  0  0  0  0
   13.1011  -18.3757   22.7351 O   0  0  0  0  0  0  0  0  0  0  0  0
   10.1723  -16.3794   27.5240 O   0  0  0  0  0  0  0  0  0  0  0  0
  2  1  1  1
  3  2  1  0
  4  2  1  0
  4  5  1  6
  6  8  1  0
  6  4  1  0
  7  6  2  0
  9 12  1  0
  9  8  1  0
  9 10  1  1
 11 10  1  0
 12 14  1  0
 13 12  2  0
 14 15  1  0
 15 20  1  0
 15 16  1  6
 16 17  1  0
 18 22  1  0
 18 17  1  0
 19 18  2  0
 20 21  1  0
 23 20  2  0
M  END
$$$$
