TCE.pdb
     RDKit          3D

 23 22  0  0  1  0  0  0  0  0999 V2000
    7.2739  -16.3353   19.2787 C   0  0  0  0  0  0  0  0  0  0  0  0
    7.9847  -15.0755   18.8595 C   0  0  1  0  0  0  0  0  0  0  0  0
    7.5318  -14.7567   17.5616 O   0  0  0  0  0  0  0  0  0  0  0  0
    7.6659  -13.8865   19.7755 C   0  0  2  0  0  0  0  0  0  0  0  0
    8.3174  -12.7374   19.1274 N   0  0  0  0  0  0  0  0  0  0  0  0
    8.3021  -14.0412   21.1153 C   0  0  0  0  0  0  0  0  0  0  0  0
    9.5645  -13.9190   21.2210 O   0  0  0  0  0  0  0  0  0  0  0  0
    7.5136  -14.3191   22.2588 N   0  0  0  0  0  0  0  0  0  0  0  0
    8.1114  -14.4563   23.5805 C   0  0  1  0  0  0  0  0  0  0  0  0
    7.0334  -14.4000   24.6394 C   0  0  0  0  0  0  0  0  0  0  0  0
    6.5618  -12.7338   25.1116 S   0  0  0  0  0  0  0  0  0  0  0  0
    8.8217  -15.7510   23.7013 C   0  0  0  0  0  0  0  0  0  0  0  0
    8.3115  -16.8150   23.1924 O   0  0  0  0  0  0  0  0  0  0  0  0
   10.0630  -15.9646   24.3420 N   0  0  0  0  0  0  0  0  0  0  0  0
   10.6822  -17.2694   24.4666 C   0  0  1  0  0  0  0  0  0  0  0  0
   11.9474  -17.3654   23.6341 C   0  0  0  0  0  0  0  0  0  0  0  0
   12.8198  -16.1546   23.8412 C   0  0  0  0  0  0  0  0  0  0  0  0
   14.0290  -16.1796   23.0110 C   0  0  0  0  0  0  0  0  0  0  0  0
   13.9796  -15.7833   21.8185 O   0  0  0  0  0  0  0  0  0  0  0  0
   10.9415  -17.5300   25.8944 C   0  0  0  0  0  0  0  0  0  0  0  0
   10.5980  -16.5884   26.8437 O   0  0  0  0  0  0  0  0  0  0  0  0
   15.2397  -16.6313   23.5030 O   0  0  0  0  0  0  0  0  0  0  0  0
   11.4738  -18.5964   26.2944 O   0  0  0  0  0  0  0  0  0  0  0  0
  2  1  1  1
  3  2  1  0
  4  2  1  0
  4  5  1  6
  6  8  1  0
  6  4  1  0
  7  6  2  0
  9 12  1  0
  9  8  1  0
  9 10  1  1
 11 10  1  0
 12 14  1  0
 13 12  2  0
 14 15  1  0
 15 20  1  0
 15 16  1  6
 16 17  1  0
 18 22  1  0
 18 17  1  0
 19 18  2  0
 20 21  1  0
 23 20  2  0
M  END
$$$$
