TCE.pdb
     RDKit          3D

 23 22  0  0  1  0  0  0  0  0999 V2000
    7.6166  -16.2786   19.0093 C   0  0  0  0  0  0  0  0  0  0  0  0
    8.1592  -14.9483   18.5573 C   0  0  1  0  0  0  0  0  0  0  0  0
    7.7076  -14.7441   17.2361 O   0  0  0  0  0  0  0  0  0  0  0  0
    7.6503  -13.7823   19.4152 C   0  0  2  0  0  0  0  0  0  0  0  0
    8.1719  -12.5792   18.7477 N   0  0  0  0  0  0  0  0  0  0  0  0
    8.2460  -13.8072   20.7820 C   0  0  0  0  0  0  0  0  0  0  0  0
    9.4752  -13.5120   20.9291 O   0  0  0  0  0  0  0  0  0  0  0  0
    7.4556  -14.1530   21.9055 N   0  0  0  0  0  0  0  0  0  0  0  0
    8.0189  -14.1949   23.2486 C   0  0  1  0  0  0  0  0  0  0  0  0
    6.9070  -14.2975   24.2683 C   0  0  0  0  0  0  0  0  0  0  0  0
    7.4786  -14.6083   25.9411 S   0  0  0  0  0  0  0  0  0  0  0  0
    8.9101  -15.3682   23.4054 C   0  0  0  0  0  0  0  0  0  0  0  0
    8.5720  -16.5043   22.9090 O   0  0  0  0  0  0  0  0  0  0  0  0
   10.1572  -15.3853   24.0697 N   0  0  0  0  0  0  0  0  0  0  0  0
   11.0469  -16.5298   24.0669 C   0  0  1  0  0  0  0  0  0  0  0  0
   12.4243  -16.1611   23.5475 C   0  0  0  0  0  0  0  0  0  0  0  0
   13.3820  -17.3144   23.6994 C   0  0  0  0  0  0  0  0  0  0  0  0
   14.7223  -17.0081   23.1878 C   0  0  0  0  0  0  0  0  0  0  0  0
   15.2612  -17.7700   22.3447 O   0  0  0  0  0  0  0  0  0  0  0  0
   11.1032  -17.0822   25.4328 C   0  0  0  0  0  0  0  0  0  0  0  0
   11.6469  -18.3320   25.6523 O   0  0  0  0  0  0  0  0  0  0  0  0
   15.4237  -15.8930   23.6078 O   0  0  0  0  0  0  0  0  0  0  0  0
   10.6680  -16.4506   26.4288 O   0  0  0  0  0  0  0  0  0  0  0  0
  2  1  1  1
  3  2  1  0
  4  2  1  0
  4  5  1  6
  6  8  1  0
  6  4  1  0
  7  6  2  0
  9 12  1  0
  9  8  1  0
  9 10  1  1
 11 10  1  0
 12 14  1  0
 13 12  2  0
 14 15  1  0
 15 20  1  0
 15 16  1  1
 16 17  1  0
 18 22  1  0
 18 17  1  0
 19 18  2  0
 20 21  1  0
 23 20  2  0
M  END
$$$$
