TCE.pdb
     RDKit          3D

 23 22  0  0  1  0  0  0  0  0999 V2000
    6.4731  -14.7549   18.6641 C   0  0  0  0  0  0  0  0  0  0  0  0
    7.1327  -14.7646   20.0180 C   0  0  1  0  0  0  0  0  0  0  0  0
    8.4613  -15.2007   19.8283 O   0  0  0  0  0  0  0  0  0  0  0  0
    7.1806  -13.3718   20.6599 C   0  0  2  0  0  0  0  0  0  0  0  0
    7.9115  -12.5434   19.6880 N   0  0  0  0  0  0  0  0  0  0  0  0
    7.9872  -13.3742   21.9141 C   0  0  0  0  0  0  0  0  0  0  0  0
    9.2397  -13.1584   21.8474 O   0  0  0  0  0  0  0  0  0  0  0  0
    7.3697  -13.6118   23.1667 N   0  0  0  0  0  0  0  0  0  0  0  0
    8.1456  -13.6732   24.3984 C   0  0  1  0  0  0  0  0  0  0  0  0
    7.2776  -13.2777   25.5717 C   0  0  0  0  0  0  0  0  0  0  0  0
    5.6994  -14.1307   25.6311 S   0  0  0  0  0  0  0  0  0  0  0  0
    8.6514  -15.0464   24.6298 C   0  0  0  0  0  0  0  0  0  0  0  0
    8.0747  -16.0481   24.0680 O   0  0  0  0  0  0  0  0  0  0  0  0
    9.7552  -15.4038   25.4366 N   0  0  0  0  0  0  0  0  0  0  0  0
   10.5899  -16.5607   25.1795 C   0  0  1  0  0  0  0  0  0  0  0  0
   11.8756  -16.1720   24.4732 C   0  0  0  0  0  0  0  0  0  0  0  0
   12.7475  -17.3789   24.2421 C   0  0  0  0  0  0  0  0  0  0  0  0
   14.0230  -17.0411   23.6010 C   0  0  0  0  0  0  0  0  0  0  0  0
   14.1218  -17.0684   22.3476 O   0  0  0  0  0  0  0  0  0  0  0  0
   10.8500  -17.2440   26.4599 C   0  0  0  0  0  0  0  0  0  0  0  0
   11.4530  -18.4857   26.4720 O   0  0  0  0  0  0  0  0  0  0  0  0
   15.1372  -16.6884   24.3399 O   0  0  0  0  0  0  0  0  0  0  0  0
   10.5397  -16.7338   27.5661 O   0  0  0  0  0  0  0  0  0  0  0  0
  2  1  1  6
  3  2  1  0
  4  2  1  0
  4  5  1  6
  6  8  1  0
  6  4  1  0
  7  6  2  0
  9 12  1  0
  9  8  1  0
  9 10  1  1
 11 10  1  0
 12 14  1  0
 13 12  2  0
 14 15  1  0
 15 20  1  0
 15 16  1  1
 16 17  1  0
 18 22  1  0
 18 17  1  0
 19 18  2  0
 20 21  1  0
 23 20  2  0
M  END
$$$$
