TCE.pdb
     RDKit          3D

 23 22  0  0  1  0  0  0  0  0999 V2000
    6.8845  -19.2032   19.0869 C   0  0  0  0  0  0  0  0  0  0  0  0
    7.5128  -18.8424   17.7666 C   0  0  1  0  0  0  0  0  0  0  0  0
    6.7736  -19.5025   16.7621 O   0  0  0  0  0  0  0  0  0  0  0  0
    7.4574  -17.3360   17.4799 C   0  0  2  0  0  0  0  0  0  0  0  0
    8.1074  -17.1868   16.1683 N   0  0  0  0  0  0  0  0  0  0  0  0
    8.2775  -16.5622   18.4559 C   0  0  0  0  0  0  0  0  0  0  0  0
    9.5439  -16.6883   18.4405 O   0  0  0  0  0  0  0  0  0  0  0  0
    7.6578  -15.6951   19.3890 N   0  0  0  0  0  0  0  0  0  0  0  0
    8.4397  -14.9184   20.3420 C   0  0  1  0  0  0  0  0  0  0  0  0
    7.5731  -13.8466   20.9638 C   0  0  0  0  0  0  0  0  0  0  0  0
    7.4497  -12.3488   19.9825 S   0  0  0  0  0  0  0  0  0  0  0  0
    8.9601  -15.7879   21.4230 C   0  0  0  0  0  0  0  0  0  0  0  0
    8.1559  -16.5342   22.0922 O   0  0  0  0  0  0  0  0  0  0  0  0
   10.3101  -15.9018   21.8247 N   0  0  0  0  0  0  0  0  0  0  0  0
   10.7484  -16.7458   22.9186 C   0  0  1  0  0  0  0  0  0  0  0  0
   11.8086  -17.7336   22.4677 C   0  0  0  0  0  0  0  0  0  0  0  0
   11.2514  -18.6900   21.4453 C   0  0  0  0  0  0  0  0  0  0  0  0
   12.2441  -19.6665   20.9839 C   0  0  0  0  0  0  0  0  0  0  0  0
   11.9899  -20.8966   21.0457 O   0  0  0  0  0  0  0  0  0  0  0  0
   11.2302  -15.8821   24.0122 C   0  0  0  0  0  0  0  0  0  0  0  0
   11.5249  -16.4267   25.2460 O   0  0  0  0  0  0  0  0  0  0  0  0
   13.4686  -19.2740   20.4755 O   0  0  0  0  0  0  0  0  0  0  0  0
   11.3881  -14.6434   23.8669 O   0  0  0  0  0  0  0  0  0  0  0  0
  2  1  1  1
  3  2  1  0
  4  2  1  0
  4  5  1  6
  6  8  1  0
  6  4  1  0
  7  6  2  0
  9 12  1  0
  9  8  1  0
  9 10  1  1
 11 10  1  0
 12 14  1  0
 13 12  2  0
 14 15  1  0
 15 20  1  0
 15 16  1  6
 16 17  1  0
 18 22  1  0
 18 17  1  0
 19 18  2  0
 20 21  1  0
 23 20  2  0
M  END
$$$$
