TCE.pdb
     RDKit          3D

 23 22  0  0  1  0  0  0  0  0999 V2000
    6.4924  -15.8755   20.7665 C   0  0  0  0  0  0  0  0  0  0  0  0
    7.4335  -14.8805   20.1402 C   0  0  1  0  0  0  0  0  0  0  0  0
    7.0520  -14.7435   18.7886 O   0  0  0  0  0  0  0  0  0  0  0  0
    7.3493  -13.4961   20.7966 C   0  0  2  0  0  0  0  0  0  0  0  0
    8.2125  -12.6417   19.9659 N   0  0  0  0  0  0  0  0  0  0  0  0
    7.9408  -13.5020   22.1654 C   0  0  0  0  0  0  0  0  0  0  0  0
    9.2055  -13.5612   22.2951 O   0  0  0  0  0  0  0  0  0  0  0  0
    7.1081  -13.4408   23.3097 N   0  0  0  0  0  0  0  0  0  0  0  0
    7.6599  -13.5027   24.6568 C   0  0  1  0  0  0  0  0  0  0  0  0
    6.6413  -12.9948   25.6523 C   0  0  0  0  0  0  0  0  0  0  0  0
    7.3317  -11.9334   26.9245 S   0  0  0  0  0  0  0  0  0  0  0  0
    8.0116  -14.8969   25.0142 C   0  0  0  0  0  0  0  0  0  0  0  0
    7.1194  -15.8202   24.9593 O   0  0  0  0  0  0  0  0  0  0  0  0
    9.2823  -15.3567   25.4277 N   0  0  0  0  0  0  0  0  0  0  0  0
    9.5623  -16.7410   25.7541 C   0  0  1  0  0  0  0  0  0  0  0  0
   10.7940  -17.2452   25.0248 C   0  0  0  0  0  0  0  0  0  0  0  0
   10.6025  -17.1709   23.5322 C   0  0  0  0  0  0  0  0  0  0  0  0
   11.7919  -17.5975   22.7871 C   0  0  0  0  0  0  0  0  0  0  0  0
   12.5924  -18.4202   23.3009 O   0  0  0  0  0  0  0  0  0  0  0  0
    9.7024  -16.8579   27.2172 C   0  0  0  0  0  0  0  0  0  0  0  0
    9.8914  -18.0959   27.7979 O   0  0  0  0  0  0  0  0  0  0  0  0
   12.0667  -17.1182   21.5196 O   0  0  0  0  0  0  0  0  0  0  0  0
    9.6562  -15.8568   27.9762 O   0  0  0  0  0  0  0  0  0  0  0  0
  2  1  1  1
  3  2  1  0
  4  2  1  0
  4  5  1  6
  6  8  1  0
  6  4  1  0
  7  6  2  0
  9 12  1  0
  9  8  1  0
  9 10  1  1
 11 10  1  0
 12 14  1  0
 13 12  2  0
 14 15  1  0
 15 20  1  0
 15 16  1  6
 16 17  1  0
 18 22  1  0
 18 17  1  0
 19 18  2  0
 20 21  1  0
 23 20  2  0
M  END
$$$$
