TCE.pdb
     RDKit          3D

 23 22  0  0  1  0  0  0  0  0999 V2000
    7.9971  -11.7538   19.1845 C   0  0  0  0  0  0  0  0  0  0  0  0
    8.4342  -12.9358   20.0091 C   0  0  1  0  0  0  0  0  0  0  0  0
    7.8383  -12.7968   21.2807 O   0  0  0  0  0  0  0  0  0  0  0  0
    7.9707  -14.2724   19.4147 C   0  0  2  0  0  0  0  0  0  0  0  0
    6.5016  -14.2094   19.4683 N   0  0  0  0  0  0  0  0  0  0  0  0
    8.3823  -15.4236   20.2685 C   0  0  0  0  0  0  0  0  0  0  0  0
    7.5564  -15.8965   21.1136 O   0  0  0  0  0  0  0  0  0  0  0  0
    9.6756  -15.9875   20.1419 N   0  0  0  0  0  0  0  0  0  0  0  0
   10.1068  -17.0987   20.9799 C   0  0  1  0  0  0  0  0  0  0  0  0
   10.6488  -18.2139   20.1144 C   0  0  0  0  0  0  0  0  0  0  0  0
    9.3931  -19.3488   19.5171 S   0  0  0  0  0  0  0  0  0  0  0  0
   11.1740  -16.6667   21.9126 C   0  0  0  0  0  0  0  0  0  0  0  0
   12.0664  -15.8270   21.5252 O   0  0  0  0  0  0  0  0  0  0  0  0
   11.3330  -17.0897   23.2515 N   0  0  0  0  0  0  0  0  0  0  0  0
   12.4160  -16.6439   24.1057 C   0  0  1  0  0  0  0  0  0  0  0  0
   12.1340  -16.9493   25.5652 C   0  0  0  0  0  0  0  0  0  0  0  0
   12.4946  -18.3746   25.8951 C   0  0  0  0  0  0  0  0  0  0  0  0
   12.1296  -18.7479   27.2660 C   0  0  0  0  0  0  0  0  0  0  0  0
   13.0047  -18.7517   28.1692 O   0  0  0  0  0  0  0  0  0  0  0  0
   13.6665  -17.2734   23.6431 C   0  0  0  0  0  0  0  0  0  0  0  0
   14.8854  -16.7136   23.9695 O   0  0  0  0  0  0  0  0  0  0  0  0
   10.8361  -19.1010   27.6037 O   0  0  0  0  0  0  0  0  0  0  0  0
   13.6714  -18.3214   22.9488 O   0  0  0  0  0  0  0  0  0  0  0  0
  2  1  1  6
  3  2  1  0
  4  2  1  0
  4  5  1  1
  6  8  1  0
  6  4  1  0
  7  6  2  0
  9 12  1  0
  9  8  1  0
  9 10  1  6
 11 10  1  0
 12 14  1  0
 13 12  2  0
 14 15  1  0
 15 20  1  0
 15 16  1  1
 16 17  1  0
 18 22  1  0
 18 17  1  0
 19 18  2  0
 20 21  1  0
 23 20  2  0
M  END
$$$$
