TCE.pdb
     RDKit          3D

 23 22  0  0  1  0  0  0  0  0999 V2000
    8.7210  -16.0238   18.2239 C   0  0  0  0  0  0  0  0  0  0  0  0
    8.5393  -14.5568   17.9360 C   0  0  1  0  0  0  0  0  0  0  0  0
    7.7070  -14.4574   16.8008 O   0  0  0  0  0  0  0  0  0  0  0  0
    7.8552  -13.8105   19.0890 C   0  0  2  0  0  0  0  0  0  0  0  0
    7.7139  -12.4295   18.6013 N   0  0  0  0  0  0  0  0  0  0  0  0
    8.7272  -13.7518   20.2973 C   0  0  0  0  0  0  0  0  0  0  0  0
    9.7697  -13.0221   20.2758 O   0  0  0  0  0  0  0  0  0  0  0  0
    8.4011  -14.4967   21.4572 N   0  0  0  0  0  0  0  0  0  0  0  0
    9.3486  -14.6524   22.5531 C   0  0  1  0  0  0  0  0  0  0  0  0
    8.6642  -15.3023   23.7346 C   0  0  0  0  0  0  0  0  0  0  0  0
    9.7903  -15.8354   25.0265 S   0  0  0  0  0  0  0  0  0  0  0  0
   10.4879  -15.5058   22.1421 C   0  0  0  0  0  0  0  0  0  0  0  0
   10.2734  -16.6119   21.5239 O   0  0  0  0  0  0  0  0  0  0  0  0
   11.8569  -15.2305   22.3586 N   0  0  0  0  0  0  0  0  0  0  0  0
   12.9296  -15.9788   21.7336 C   0  0  1  0  0  0  0  0  0  0  0  0
   13.5639  -15.1970   20.5981 C   0  0  0  0  0  0  0  0  0  0  0  0
   14.7767  -15.9141   20.0640 C   0  0  0  0  0  0  0  0  0  0  0  0
   15.5054  -15.1259   19.0641 C   0  0  0  0  0  0  0  0  0  0  0  0
   16.6064  -15.5402   18.6196 O   0  0  0  0  0  0  0  0  0  0  0  0
   13.9138  -16.3404   22.7702 C   0  0  0  0  0  0  0  0  0  0  0  0
   13.7779  -15.8526   24.0544 O   0  0  0  0  0  0  0  0  0  0  0  0
   15.0149  -13.9245   18.5867 O   0  0  0  0  0  0  0  0  0  0  0  0
   14.8937  -17.0907   22.5303 O   0  0  0  0  0  0  0  0  0  0  0  0
  2  1  1  1
  3  2  1  0
  4  2  1  0
  4  5  1  6
  6  8  1  0
  6  4  1  0
  7  6  2  0
  9 12  1  0
  9  8  1  0
  9 10  1  1
 11 10  1  0
 12 14  1  0
 13 12  2  0
 14 15  1  0
 15 20  1  0
 15 16  1  6
 16 17  1  0
 18 22  1  0
 18 17  1  0
 19 18  2  0
 20 21  1  0
 23 20  2  0
M  END
$$$$
