TCE.pdb
     RDKit          3D

 23 22  0  0  1  0  0  0  0  0999 V2000
    8.3804  -12.5148   19.1713 C   0  0  0  0  0  0  0  0  0  0  0  0
    7.6450  -13.2151   18.0591 C   0  0  1  0  0  0  0  0  0  0  0  0
    7.5895  -12.3188   16.9706 O   0  0  0  0  0  0  0  0  0  0  0  0
    8.3630  -14.4864   17.5871 C   0  0  2  0  0  0  0  0  0  0  0  0
    7.4741  -15.0512   16.5595 N   0  0  0  0  0  0  0  0  0  0  0  0
    8.4566  -15.4994   18.6774 C   0  0  0  0  0  0  0  0  0  0  0  0
    7.4332  -16.1996   18.9640 O   0  0  0  0  0  0  0  0  0  0  0  0
    9.6690  -15.6839   19.3863 N   0  0  0  0  0  0  0  0  0  0  0  0
    9.7870  -16.6754   20.4474 C   0  0  1  0  0  0  0  0  0  0  0  0
    9.9859  -18.0487   19.8465 C   0  0  0  0  0  0  0  0  0  0  0  0
   10.0026  -19.3770   21.0535 S   0  0  0  0  0  0  0  0  0  0  0  0
   10.9454  -16.3721   21.3201 C   0  0  0  0  0  0  0  0  0  0  0  0
   11.9889  -15.8040   20.8304 O   0  0  0  0  0  0  0  0  0  0  0  0
   11.0419  -16.6457   22.7031 N   0  0  0  0  0  0  0  0  0  0  0  0
   12.2019  -16.3080   23.5040 C   0  0  1  0  0  0  0  0  0  0  0  0
   12.0886  -16.8686   24.9097 C   0  0  0  0  0  0  0  0  0  0  0  0
   10.6520  -16.8951   25.3631 C   0  0  0  0  0  0  0  0  0  0  0  0
   10.5042  -17.3550   26.7483 C   0  0  0  0  0  0  0  0  0  0  0  0
   11.5155  -17.7257   27.3975 O   0  0  0  0  0  0  0  0  0  0  0  0
   13.4078  -16.7982   22.8114 C   0  0  0  0  0  0  0  0  0  0  0  0
   13.3590  -17.9683   22.0806 O   0  0  0  0  0  0  0  0  0  0  0  0
    9.2716  -17.3952   27.3736 O   0  0  0  0  0  0  0  0  0  0  0  0
   14.5032  -16.1831   22.8582 O   0  0  0  0  0  0  0  0  0  0  0  0
  2  1  1  1
  3  2  1  0
  4  2  1  0
  4  5  1  6
  6  8  1  0
  6  4  1  0
  7  6  2  0
  9 12  1  0
  9  8  1  0
  9 10  1  6
 11 10  1  0
 12 14  1  0
 13 12  2  0
 14 15  1  0
 15 20  1  0
 15 16  1  1
 16 17  1  0
 18 22  1  0
 18 17  1  0
 19 18  2  0
 20 21  1  0
 23 20  2  0
M  END
$$$$
