RIL.pdb
     RDKit          3D

 28 27  0  0  1  0  0  0  0  0999 V2000
   12.7372  -11.5696  -19.8215 N   0  0  0  0  0  0  0  0  0  0  0  0
   12.5860  -12.0149  -18.4898 C   0  0  0  0  0  0  0  0  0  0  0  0
   11.5151  -12.6605  -18.1922 N   0  0  0  0  0  0  0  0  0  0  0  0
   13.5668  -11.7751  -17.4835 N   0  0  0  0  0  0  0  0  0  0  0  0
   14.9522  -11.8237  -17.7760 C   0  0  0  0  0  0  0  0  0  0  0  0
   15.7852  -10.8551  -17.0195 C   0  0  0  0  0  0  0  0  0  0  0  0
   17.2246  -10.8041  -17.3475 C   0  0  0  0  0  0  0  0  0  0  0  0
   18.1840  -11.3970  -16.3946 C   0  0  2  0  0  0  0  0  0  0  0  0
   17.4609  -12.2010  -15.4225 N   0  0  0  0  0  0  0  0  0  0  0  0
   19.0147  -10.3674  -15.6964 C   0  0  0  0  0  0  0  0  0  0  0  0
   18.6206   -9.8866  -14.6034 O   0  0  0  0  0  0  0  0  0  0  0  0
   11.3185  -13.0184  -17.2410 C   0  0  0  0  0  0  0  0  0  0  0  0
   24.1374  -11.2151  -14.8327 C   0  0  0  0  0  0  0  0  0  0  0  0
   22.7002  -10.7586  -14.7462 C   0  0  2  0  0  0  0  0  0  0  0  0
   22.4487   -9.5237  -15.5211 C   0  0  0  0  0  0  0  0  0  0  0  0
   23.4380   -8.4427  -15.1269 C   0  0  2  0  0  0  0  0  0  0  0  0
   21.0854   -8.9306  -15.4667 N   0  0  0  0  0  0  0  0  0  0  0  0
   20.2422   -9.8971  -16.2097 C   0  0  0  0  0  0  0  0  0  0  0  0
   20.9809   -7.6365  -16.1773 O   0  0  0  0  0  0  0  0  0  0  0  0
   21.2462   -7.5586  -17.4355 C   0  0  0  0  0  0  0  0  0  0  0  0
   17.3321   -3.4000  -17.3776 C   0  0  1  0  0  0  0  0  0  0  0  0
   18.8550   -3.6032  -17.3740 C   0  0  0  0  0  0  0  0  0  0  0  0
   19.2641   -3.6724  -18.8275 C   0  0  0  0  0  0  0  0  0  0  0  0
   19.1064   -4.8684  -16.6352 C   0  0  2  0  0  0  0  0  0  0  0  0
   20.5493   -5.1544  -16.3249 N   0  0  0  0  0  0  0  0  0  0  0  0
   20.5973   -6.4251  -15.5726 C   0  0  0  0  0  0  0  0  0  0  0  0
   21.2228   -4.1100  -15.5734 O   0  0  0  0  0  0  0  0  0  0  0  0
   21.1451   -4.0768  -14.3268 O   0  0  0  0  0  0  0  0  0  0  0  0
  1  2  1  0
  2  3  2  0
  4  2  1  0
  4  5  1  0
  6  5  1  0
  7  6  1  0
  8 10  1  0
  8  7  1  0
  8  9  1  1
 10 11  2  0
 13 12  1  0
 14 13  1  0
 14 16  1  0
 14 15  1  6
 16 18  1  0
 16 17  1  1
 17 10  1  0
 18 25  1  0
 18 19  2  0
 21 20  1  6
 21 22  1  0
 23 21  1  0
 24 23  1  6
 24 26  1  0
 25 24  1  0
 26 27  2  0
 26 28  1  0
M  END
$$$$
