RIL.pdb
     RDKit          3D

 28 27  0  0  1  0  0  0  0  0999 V2000
   23.0545  -22.6739  -15.7380 N   0  0  0  0  0  0  0  0  0  0  0  0
   22.6286  -21.3721  -16.0820 C   0  0  0  0  0  0  0  0  0  0  0  0
   21.4333  -21.2329  -16.5341 N   0  0  0  0  0  0  0  0  0  0  0  0
   23.4679  -20.2280  -15.9458 N   0  0  0  0  0  0  0  0  0  0  0  0
   24.4846  -20.1710  -14.9606 C   0  0  0  0  0  0  0  0  0  0  0  0
   24.1362  -19.3898  -13.7472 C   0  0  0  0  0  0  0  0  0  0  0  0
   24.1783  -20.1007  -12.4530 C   0  0  0  0  0  0  0  0  0  0  0  0
   25.4913  -20.3216  -11.8149 C   0  0  2  0  0  0  0  0  0  0  0  0
   26.3283  -21.1150  -12.7003 N   0  0  0  0  0  0  0  0  0  0  0  0
   25.3792  -20.9854  -10.4791 C   0  0  0  0  0  0  0  0  0  0  0  0
   25.2626  -22.2358  -10.4135 O   0  0  0  0  0  0  0  0  0  0  0  0
   21.0699  -20.3355  -16.9002 C   0  0  0  0  0  0  0  0  0  0  0  0
   28.2396  -18.8760   -6.6386 C   0  0  0  0  0  0  0  0  0  0  0  0
   27.5793  -20.0691   -7.2882 C   0  0  2  0  0  0  0  0  0  0  0  0
   26.1212  -20.1154   -7.0423 C   0  0  0  0  0  0  0  0  0  0  0  0
   25.8400  -20.5618   -5.6194 C   0  0  2  0  0  0  0  0  0  0  0  0
   25.2859  -20.9466   -7.9504 N   0  0  0  0  0  0  0  0  0  0  0  0
   25.3976  -20.2686   -9.2637 C   0  0  0  0  0  0  0  0  0  0  0  0
   23.8506  -20.9469   -7.5893 O   0  0  0  0  0  0  0  0  0  0  0  0
   23.1615  -19.8600   -7.6488 C   0  0  0  0  0  0  0  0  0  0  0  0
   19.3061  -24.9714   -7.4750 C   0  0  1  0  0  0  0  0  0  0  0  0
   19.6472  -23.5215   -7.0986 C   0  0  0  0  0  0  0  0  0  0  0  0
   18.8059  -22.6524   -8.0052 C   0  0  0  0  0  0  0  0  0  0  0  0
   21.1075  -23.3626   -7.3268 C   0  0  2  0  0  0  0  0  0  0  0  0
   21.6837  -22.0414   -6.8995 N   0  0  0  0  0  0  0  0  0  0  0  0
   23.1360  -22.0837   -7.1681 C   0  0  0  0  0  0  0  0  0  0  0  0
   21.4490  -21.7035   -5.5068 O   0  0  0  0  0  0  0  0  0  0  0  0
   22.2810  -22.0194   -4.6299 O   0  0  0  0  0  0  0  0  0  0  0  0
  1  2  1  0
  2  3  2  0
  4  2  1  0
  4  5  1  0
  6  5  1  0
  7  6  1  0
  8 10  1  0
  8  7  1  0
  8  9  1  6
 10 11  2  0
 13 12  1  0
 14 13  1  0
 14 16  1  0
 14 15  1  6
 16 18  1  0
 16 17  1  6
 17 10  1  0
 18 25  1  0
 18 19  2  0
 21 20  1  1
 21 22  1  0
 23 21  1  0
 24 23  1  6
 24 26  1  0
 25 24  1  0
 26 27  2  0
 26 28  1  0
M  END
$$$$
