RIL.pdb
     RDKit          3D

 28 27  0  0  1  0  0  0  0  0999 V2000
   29.9957  -16.7114  -18.6258 N   0  0  0  0  0  0  0  0  0  0  0  0
   28.8506  -16.9948  -19.4023 C   0  0  0  0  0  0  0  0  0  0  0  0
   28.8709  -16.6608  -20.6434 N   0  0  0  0  0  0  0  0  0  0  0  0
   27.6936  -17.6287  -18.8622 N   0  0  0  0  0  0  0  0  0  0  0  0
   27.4902  -17.7263  -17.4634 C   0  0  0  0  0  0  0  0  0  0  0  0
   28.2655  -18.8000  -16.7925 C   0  0  0  0  0  0  0  0  0  0  0  0
   27.5331  -19.6736  -15.8530 C   0  0  0  0  0  0  0  0  0  0  0  0
   26.6027  -19.0485  -14.8921 C   0  0  2  0  0  0  0  0  0  0  0  0
   27.3440  -18.1532  -14.0186 N   0  0  0  0  0  0  0  0  0  0  0  0
   25.8497  -20.0544  -14.0805 C   0  0  0  0  0  0  0  0  0  0  0  0
   25.4855  -21.1349  -14.6107 O   0  0  0  0  0  0  0  0  0  0  0  0
   28.0709  -16.8147  -21.2819 C   0  0  0  0  0  0  0  0  0  0  0  0
   26.7014  -20.3533   -8.6620 C   0  0  0  0  0  0  0  0  0  0  0  0
   26.4558  -20.8131  -10.0798 C   0  0  2  0  0  0  0  0  0  0  0  0
   25.0731  -20.5450  -10.5325 C   0  0  0  0  0  0  0  0  0  0  0  0
   24.0784  -21.2829   -9.6555 C   0  0  2  0  0  0  0  0  0  0  0  0
   24.7327  -20.8411  -11.9502 N   0  0  0  0  0  0  0  0  0  0  0  0
   25.5192  -19.8511  -12.7237 C   0  0  0  0  0  0  0  0  0  0  0  0
   23.3081  -20.6023  -12.2725 O   0  0  0  0  0  0  0  0  0  0  0  0
   22.7904  -19.4327  -12.1190 C   0  0  0  0  0  0  0  0  0  0  0  0
   19.0080  -23.0961  -15.7785 C   0  0  1  0  0  0  0  0  0  0  0  0
   19.2459  -21.9785  -14.7516 C   0  0  0  0  0  0  0  0  0  0  0  0
   19.0353  -20.6816  -15.4991 C   0  0  0  0  0  0  0  0  0  0  0  0
   20.6385  -22.1507  -14.2609 C   0  0  2  0  0  0  0  0  0  0  0  0
   21.0210  -21.2798  -13.0967 N   0  0  0  0  0  0  0  0  0  0  0  0
   22.4259  -21.5859  -12.7571 C   0  0  0  0  0  0  0  0  0  0  0  0
   20.1826  -21.4414  -11.9219 O   0  0  0  0  0  0  0  0  0  0  0  0
   20.3753  -22.3906  -11.1326 O   0  0  0  0  0  0  0  0  0  0  0  0
  1  2  1  0
  2  3  2  0
  4  2  1  0
  4  5  1  0
  6  5  1  0
  7  6  1  0
  8 10  1  0
  8  7  1  0
  8  9  1  1
 10 11  2  0
 13 12  1  0
 14 13  1  0
 14 16  1  0
 14 15  1  6
 16 18  1  0
 16 17  1  6
 17 10  1  0
 18 25  1  0
 18 19  2  0
 21 20  1  1
 21 22  1  0
 23 21  1  0
 24 23  1  6
 24 26  1  0
 25 24  1  0
 26 27  2  0
 26 28  1  0
M  END
$$$$
