RIL.pdb
     RDKit          3D

 28 27  0  0  1  0  0  0  0  0999 V2000
   23.2077  -25.4086  -20.3005 N   0  0  0  0  0  0  0  0  0  0  0  0
   24.2957  -24.8155  -20.9780 C   0  0  0  0  0  0  0  0  0  0  0  0
   24.4043  -25.0311  -22.2406 N   0  0  0  0  0  0  0  0  0  0  0  0
   25.2599  -23.9997  -20.3170 N   0  0  0  0  0  0  0  0  0  0  0  0
   25.1475  -23.6935  -18.9383 C   0  0  0  0  0  0  0  0  0  0  0  0
   25.4568  -24.8189  -18.0207 C   0  0  0  0  0  0  0  0  0  0  0  0
   26.4112  -24.5524  -16.9252 C   0  0  0  0  0  0  0  0  0  0  0  0
   27.6368  -23.7882  -17.2312 C   0  0  2  0  0  0  0  0  0  0  0  0
   28.7784  -24.6888  -17.2257 N   0  0  0  0  0  0  0  0  0  0  0  0
   27.8661  -22.6591  -16.2771 C   0  0  0  0  0  0  0  0  0  0  0  0
   28.7374  -22.7720  -15.3775 O   0  0  0  0  0  0  0  0  0  0  0  0
   25.1870  -24.6640  -22.8099 C   0  0  0  0  0  0  0  0  0  0  0  0
   28.3561  -19.3799  -18.1877 C   0  0  0  0  0  0  0  0  0  0  0  0
   28.0351  -18.5183  -16.9893 C   0  0  2  0  0  0  0  0  0  0  0  0
   27.0062  -19.1223  -16.1146 C   0  0  0  0  0  0  0  0  0  0  0  0
   26.4987  -18.1007  -15.1137 C   0  0  2  0  0  0  0  0  0  0  0  0
   27.3656  -20.3537  -15.3611 N   0  0  0  0  0  0  0  0  0  0  0  0
   27.1418  -21.4494  -16.3339 C   0  0  0  0  0  0  0  0  0  0  0  0
   26.4750  -20.6158  -14.2084 O   0  0  0  0  0  0  0  0  0  0  0  0
   25.2856  -21.0753  -14.3927 C   0  0  0  0  0  0  0  0  0  0  0  0
   24.8927  -21.8839   -9.5568 C   0  0  1  0  0  0  0  0  0  0  0  0
   25.8851  -20.7584   -9.2271 C   0  0  0  0  0  0  0  0  0  0  0  0
   25.0416  -19.5759   -8.8084 C   0  0  0  0  0  0  0  0  0  0  0  0
   26.6639  -20.5103  -10.4687 C   0  0  1  0  0  0  0  0  0  0  0  0
   25.9035  -20.6995  -11.7517 N   0  0  0  0  0  0  0  0  0  0  0  0
   26.8289  -20.3994  -12.8637 C   0  0  0  0  0  0  0  0  0  0  0  0
   24.7083  -19.8831  -11.8701 O   0  0  0  0  0  0  0  0  0  0  0  0
   24.7911  -18.6870  -12.2217 O   0  0  0  0  0  0  0  0  0  0  0  0
  1  2  1  0
  2  3  2  0
  4  2  1  0
  4  5  1  0
  6  5  1  0
  7  6  1  0
  8 10  1  0
  8  7  1  0
  8  9  1  1
 10 11  2  0
 13 12  1  0
 14 13  1  0
 14 16  1  0
 14 15  1  1
 16 18  1  0
 16 17  1  1
 17 10  1  0
 18 25  1  0
 18 19  2  0
 21 20  1  1
 21 22  1  0
 23 21  1  0
 24 23  1  6
 24 26  1  0
 25 24  1  0
 26 27  2  0
 26 28  1  0
M  END
$$$$
