RIL.pdb
     RDKit          3D

 28 27  0  0  1  0  0  0  0  0999 V2000
   20.7463  -17.1992  -17.1208 N   0  0  0  0  0  0  0  0  0  0  0  0
   21.1639  -18.4819  -17.5389 C   0  0  0  0  0  0  0  0  0  0  0  0
   21.5066  -18.6288  -18.7691 N   0  0  0  0  0  0  0  0  0  0  0  0
   21.2162  -19.5990  -16.6548 N   0  0  0  0  0  0  0  0  0  0  0  0
   20.8140  -19.4886  -15.3007 C   0  0  0  0  0  0  0  0  0  0  0  0
   21.8401  -18.9246  -14.3879 C   0  0  0  0  0  0  0  0  0  0  0  0
   22.1665  -19.7049  -13.1768 C   0  0  0  0  0  0  0  0  0  0  0  0
   23.5833  -19.8263  -12.7796 C   0  0  2  0  0  0  0  0  0  0  0  0
   24.3528  -20.3471  -13.8981 N   0  0  0  0  0  0  0  0  0  0  0  0
   23.7726  -20.6931  -11.5753 C   0  0  0  0  0  0  0  0  0  0  0  0
   23.8596  -21.9399  -11.7135 O   0  0  0  0  0  0  0  0  0  0  0  0
   21.8814  -19.5162  -19.1478 C   0  0  0  0  0  0  0  0  0  0  0  0
   26.6435  -20.3732   -6.3468 C   0  0  0  0  0  0  0  0  0  0  0  0
   25.4593  -21.0468   -6.9991 C   0  0  2  0  0  0  0  0  0  0  0  0
   25.1174  -20.4509   -8.3093 C   0  0  0  0  0  0  0  0  0  0  0  0
   24.8237  -18.9701   -8.1550 C   0  0  2  0  0  0  0  0  0  0  0  0
   23.9984  -21.0558   -9.0809 N   0  0  0  0  0  0  0  0  0  0  0  0
   23.8605  -20.1756  -10.2654 C   0  0  0  0  0  0  0  0  0  0  0  0
   22.7040  -21.0156   -8.3643 O   0  0  0  0  0  0  0  0  0  0  0  0
   22.1474  -19.8882   -8.0834 C   0  0  0  0  0  0  0  0  0  0  0  0
   18.7126  -21.3134   -9.1962 C   0  0  2  0  0  0  0  0  0  0  0  0
   19.4139  -22.6802   -9.1747 C   0  0  0  0  0  0  0  0  0  0  0  0
   18.4251  -23.6591   -9.7656 C   0  0  0  0  0  0  0  0  0  0  0  0
   19.7364  -22.9625   -7.7514 C   0  0  2  0  0  0  0  0  0  0  0  0
   20.7605  -22.0523   -7.1327 N   0  0  0  0  0  0  0  0  0  0  0  0
   21.9913  -22.1538   -7.9437 C   0  0  0  0  0  0  0  0  0  0  0  0
   21.0610  -22.3404   -5.7414 O   0  0  0  0  0  0  0  0  0  0  0  0
   22.0724  -23.0080   -5.4374 O   0  0  0  0  0  0  0  0  0  0  0  0
  1  2  1  0
  2  3  2  0
  4  2  1  0
  4  5  1  0
  6  5  1  0
  7  6  1  0
  8 10  1  0
  8  7  1  0
  8  9  1  6
 10 11  2  0
 13 12  1  0
 14 13  1  0
 14 16  1  0
 14 15  1  6
 16 18  1  0
 16 17  1  1
 17 10  1  0
 18 25  1  0
 18 19  2  0
 21 20  1  6
 21 22  1  0
 23 21  1  0
 24 23  1  6
 24 26  1  0
 25 24  1  0
 26 27  2  0
 26 28  1  0
M  END
$$$$
