RIL.pdb
     RDKit          3D

 28 27  0  0  1  0  0  0  0  0999 V2000
   31.1493  -23.9640  -15.0176 N   0  0  0  0  0  0  0  0  0  0  0  0
   30.4967  -23.8620  -16.2658 C   0  0  0  0  0  0  0  0  0  0  0  0
   30.7620  -24.7516  -17.1549 N   0  0  0  0  0  0  0  0  0  0  0  0
   29.5693  -22.8215  -16.5651 N   0  0  0  0  0  0  0  0  0  0  0  0
   28.8245  -22.1800  -15.5447 C   0  0  0  0  0  0  0  0  0  0  0  0
   29.6329  -21.3842  -14.5870 C   0  0  0  0  0  0  0  0  0  0  0  0
   28.8973  -20.5507  -13.6142 C   0  0  0  0  0  0  0  0  0  0  0  0
   27.4281  -20.4647  -13.7316 C   0  0  2  0  0  0  0  0  0  0  0  0
   27.0854  -19.6114  -14.8579 N   0  0  0  0  0  0  0  0  0  0  0  0
   26.7783  -19.9571  -12.4835 C   0  0  0  0  0  0  0  0  0  0  0  0
   26.7277  -18.7193  -12.2676 O   0  0  0  0  0  0  0  0  0  0  0  0
   30.2956  -24.7824  -18.0785 C   0  0  0  0  0  0  0  0  0  0  0  0
   23.4327  -20.6358  -12.7721 C   0  0  0  0  0  0  0  0  0  0  0  0
   23.1483  -20.3274  -11.3210 C   0  0  2  0  0  0  0  0  0  0  0  0
   24.1482  -20.9224  -10.4072 C   0  0  0  0  0  0  0  0  0  0  0  0
   23.5931  -21.0013   -8.9970 C   0  0  2  0  0  0  0  0  0  0  0  0
   25.4901  -20.2848  -10.3300 N   0  0  0  0  0  0  0  0  0  0  0  0
   26.2075  -20.8107  -11.5156 C   0  0  0  0  0  0  0  0  0  0  0  0
   26.2676  -20.6989   -9.1405 O   0  0  0  0  0  0  0  0  0  0  0  0
   26.6583  -21.9192   -9.0075 C   0  0  0  0  0  0  0  0  0  0  0  0
   27.7841  -19.5721   -4.0732 C   0  0  1  0  0  0  0  0  0  0  0  0
   28.8996  -19.3829   -5.1125 C   0  0  0  0  0  0  0  0  0  0  0  0
   29.6987  -18.1878   -4.6453 C   0  0  0  0  0  0  0  0  0  0  0  0
   28.2226  -19.1595   -6.4168 C   0  0  1  0  0  0  0  0  0  0  0  0
   27.3972  -20.3122   -6.9172 N   0  0  0  0  0  0  0  0  0  0  0  0
   26.6378  -19.8365   -8.0919 C   0  0  0  0  0  0  0  0  0  0  0  0
   26.4866  -20.8729   -5.9346 O   0  0  0  0  0  0  0  0  0  0  0  0
   25.3559  -20.3707   -5.7605 O   0  0  0  0  0  0  0  0  0  0  0  0
  1  2  1  0
  2  3  2  0
  4  2  1  0
  4  5  1  0
  6  5  1  0
  7  6  1  0
  8 10  1  0
  8  7  1  0
  8  9  1  6
 10 11  2  0
 13 12  1  0
 14 13  1  0
 14 16  1  0
 14 15  1  1
 16 18  1  0
 16 17  1  1
 17 10  1  0
 18 25  1  0
 18 19  2  0
 21 20  1  1
 21 22  1  0
 23 21  1  0
 24 23  1  6
 24 26  1  0
 25 24  1  0
 26 27  2  0
 26 28  1  0
M  END
$$$$
