RIL.pdb
     RDKit          3D

 28 27  0  0  1  0  0  0  0  0999 V2000
   29.4355  -25.4301  -15.9309 N   0  0  0  0  0  0  0  0  0  0  0  0
   28.2319  -25.0361  -16.5559 C   0  0  0  0  0  0  0  0  0  0  0  0
   27.2831  -25.9004  -16.6269 N   0  0  0  0  0  0  0  0  0  0  0  0
   28.0400  -23.7328  -17.1008 N   0  0  0  0  0  0  0  0  0  0  0  0
   29.0268  -22.7247  -16.9693 C   0  0  0  0  0  0  0  0  0  0  0  0
   29.0214  -22.0107  -15.6676 C   0  0  0  0  0  0  0  0  0  0  0  0
   28.2654  -20.7435  -15.5974 C   0  0  0  0  0  0  0  0  0  0  0  0
   26.7941  -20.7958  -15.7076 C   0  0  2  0  0  0  0  0  0  0  0  0
   26.3813  -20.1471  -16.9417 N   0  0  0  0  0  0  0  0  0  0  0  0
   26.1052  -20.1661  -14.5386 C   0  0  0  0  0  0  0  0  0  0  0  0
   26.0866  -18.9137  -14.4281 O   0  0  0  0  0  0  0  0  0  0  0  0
   26.3465  -25.6794  -17.0083 C   0  0  0  0  0  0  0  0  0  0  0  0
   21.2965  -20.3434  -14.5477 C   0  0  0  0  0  0  0  0  0  0  0  0
   22.7453  -20.0297  -14.2574 C   0  0  2  0  0  0  0  0  0  0  0  0
   23.2077  -20.6129  -12.9788 C   0  0  0  0  0  0  0  0  0  0  0  0
   22.2498  -20.2536  -11.8580 C   0  0  2  0  0  0  0  0  0  0  0  0
   24.5843  -20.2856  -12.5193 N   0  0  0  0  0  0  0  0  0  0  0  0
   25.4620  -20.9181  -13.5325 C   0  0  0  0  0  0  0  0  0  0  0  0
   24.9270  -20.8957  -11.2151 O   0  0  0  0  0  0  0  0  0  0  0  0
   24.8567  -22.1716  -11.0519 C   0  0  0  0  0  0  0  0  0  0  0  0
   28.4946  -20.7459   -8.3120 C   0  0  1  0  0  0  0  0  0  0  0  0
   27.6381  -19.4726   -8.3856 C   0  0  0  0  0  0  0  0  0  0  0  0
   28.3301  -18.4599   -7.5020 C   0  0  0  0  0  0  0  0  0  0  0  0
   26.2862  -19.8489   -7.8955 C   0  0  2  0  0  0  0  0  0  0  0  0
   25.5339  -20.8159   -8.7668 N   0  0  0  0  0  0  0  0  0  0  0  0
   25.3448  -20.1717  -10.0830 C   0  0  0  0  0  0  0  0  0  0  0  0
   24.2499  -21.2349   -8.2332 O   0  0  0  0  0  0  0  0  0  0  0  0
   23.2056  -20.6227   -8.5427 O   0  0  0  0  0  0  0  0  0  0  0  0
  1  2  1  0
  2  3  2  0
  4  2  1  0
  4  5  1  0
  6  5  1  0
  7  6  1  0
  8 10  1  0
  8  7  1  0
  8  9  1  6
 10 11  2  0
 13 12  1  0
 14 13  1  0
 14 16  1  0
 14 15  1  6
 16 18  1  0
 16 17  1  1
 17 10  1  0
 18 25  1  0
 18 19  2  0
 21 20  1  6
 21 22  1  0
 23 21  1  0
 24 23  1  6
 24 26  1  0
 25 24  1  0
 26 27  2  0
 26 28  1  0
M  END
$$$$
