RIL.pdb
     RDKit          3D

 28 27  0  0  1  0  0  0  0  0999 V2000
   19.6940  -20.3267  -14.5200 N   0  0  0  0  0  0  0  0  0  0  0  0
   19.8384  -18.9262  -14.4093 C   0  0  0  0  0  0  0  0  0  0  0  0
   18.7753  -18.2070  -14.4805 N   0  0  0  0  0  0  0  0  0  0  0  0
   21.1039  -18.2965  -14.2242 N   0  0  0  0  0  0  0  0  0  0  0  0
   22.2948  -19.0541  -14.1013 C   0  0  0  0  0  0  0  0  0  0  0  0
   22.2758  -20.0786  -13.0270 C   0  0  0  0  0  0  0  0  0  0  0  0
   23.4283  -20.1080  -12.1034 C   0  0  0  0  0  0  0  0  0  0  0  0
   24.6419  -20.8400  -12.5171 C   0  0  2  0  0  0  0  0  0  0  0  0
   24.2566  -22.0184  -13.2767 N   0  0  0  0  0  0  0  0  0  0  0  0
   25.5024  -21.2322  -11.3580 C   0  0  0  0  0  0  0  0  0  0  0  0
   25.1156  -22.1356  -10.5736 O   0  0  0  0  0  0  0  0  0  0  0  0
   18.7918  -17.1724  -14.4551 C   0  0  0  0  0  0  0  0  0  0  0  0
   30.5620  -22.1820  -12.2723 C   0  0  0  0  0  0  0  0  0  0  0  0
   29.1472  -22.1565  -11.7438 C   0  0  2  0  0  0  0  0  0  0  0  0
   28.9742  -21.1984  -10.6298 C   0  0  0  0  0  0  0  0  0  0  0  0
   29.9826  -21.4790   -9.5311 C   0  0  2  0  0  0  0  0  0  0  0  0
   27.6316  -21.0988   -9.9967 N   0  0  0  0  0  0  0  0  0  0  0  0
   26.7506  -20.6298  -11.0925 C   0  0  0  0  0  0  0  0  0  0  0  0
   27.5632  -20.0792   -8.9260 O   0  0  0  0  0  0  0  0  0  0  0  0
   26.6049  -19.2186   -8.9033 C   0  0  0  0  0  0  0  0  0  0  0  0
   26.0873  -18.8215   -4.6036 C   0  0  1  0  0  0  0  0  0  0  0  0
   26.5231  -20.2928   -4.6783 C   0  0  0  0  0  0  0  0  0  0  0  0
   27.5957  -20.4580   -3.6260 C   0  0  0  0  0  0  0  0  0  0  0  0
   27.0225  -20.5115   -6.0612 C   0  0  1  0  0  0  0  0  0  0  0  0
   28.0948  -19.5601   -6.5141 N   0  0  0  0  0  0  0  0  0  0  0  0
   28.4956  -19.9612   -7.8785 C   0  0  0  0  0  0  0  0  0  0  0  0
   29.2618  -19.5118   -5.6510 O   0  0  0  0  0  0  0  0  0  0  0  0
   30.0666  -20.4670   -5.6206 O   0  0  0  0  0  0  0  0  0  0  0  0
  1  2  1  0
  2  3  2  0
  4  2  1  0
  4  5  1  0
  6  5  1  0
  7  6  1  0
  8 10  1  0
  8  7  1  0
  8  9  1  1
 10 11  2  0
 13 12  1  0
 14 13  1  0
 14 16  1  0
 14 15  1  6
 16 18  1  0
 16 17  1  1
 17 10  1  0
 18 25  1  0
 18 19  2  0
 21 20  1  1
 21 22  1  0
 23 21  1  0
 24 23  1  6
 24 26  1  0
 25 24  1  0
 26 27  2  0
 26 28  1  0
M  END
$$$$
