RIL.pdb
     RDKit          3D

 28 27  0  0  1  0  0  0  0  0999 V2000
   20.2992  -26.7736  -14.2638 N   0  0  0  0  0  0  0  0  0  0  0  0
   19.7263  -25.5732  -14.7383 C   0  0  0  0  0  0  0  0  0  0  0  0
   19.1737  -25.5911  -15.8988 N   0  0  0  0  0  0  0  0  0  0  0  0
   19.7414  -24.3638  -13.9838 N   0  0  0  0  0  0  0  0  0  0  0  0
   20.9442  -23.8453  -13.4437 C   0  0  0  0  0  0  0  0  0  0  0  0
   21.7729  -23.0658  -14.3976 C   0  0  0  0  0  0  0  0  0  0  0  0
   23.1098  -22.6391  -13.9363 C   0  0  0  0  0  0  0  0  0  0  0  0
   23.2195  -21.9650  -12.6273 C   0  0  2  0  0  0  0  0  0  0  0  0
   21.9532  -21.3254  -12.3087 N   0  0  0  0  0  0  0  0  0  0  0  0
   24.3286  -20.9622  -12.5860 C   0  0  0  0  0  0  0  0  0  0  0  0
   24.0588  -19.7344  -12.6181 O   0  0  0  0  0  0  0  0  0  0  0  0
   18.9550  -26.4668  -16.4057 C   0  0  0  0  0  0  0  0  0  0  0  0
   29.1358  -21.9542  -10.1378 C   0  0  0  0  0  0  0  0  0  0  0  0
   27.8997  -21.2536  -10.6504 C   0  0  2  0  0  0  0  0  0  0  0  0
   27.9669  -20.9717  -12.1012 C   0  0  0  0  0  0  0  0  0  0  0  0
   29.1698  -20.1011  -12.4143 C   0  0  2  0  0  0  0  0  0  0  0  0
   26.7792  -20.3515  -12.7478 N   0  0  0  0  0  0  0  0  0  0  0  0
   25.6895  -21.3280  -12.5115 C   0  0  0  0  0  0  0  0  0  0  0  0
   26.9176  -20.2109  -14.2146 O   0  0  0  0  0  0  0  0  0  0  0  0
   26.7821  -21.2345  -14.9849 C   0  0  0  0  0  0  0  0  0  0  0  0
   24.7610  -19.2873  -18.3710 C   0  0  2  0  0  0  0  0  0  0  0  0
   24.3648  -19.3077  -16.8867 C   0  0  0  0  0  0  0  0  0  0  0  0
   22.9210  -18.8624  -16.8403 C   0  0  0  0  0  0  0  0  0  0  0  0
   25.2880  -18.3705  -16.1945 C   0  0  2  0  0  0  0  0  0  0  0  0
   26.7439  -18.7399  -16.2579 N   0  0  0  0  0  0  0  0  0  0  0  0
   27.1957  -18.9999  -14.8755 C   0  0  0  0  0  0  0  0  0  0  0  0
   27.5940  -17.7369  -16.8747 O   0  0  0  0  0  0  0  0  0  0  0  0
   28.1684  -16.8765  -16.1741 O   0  0  0  0  0  0  0  0  0  0  0  0
  1  2  1  0
  2  3  2  0
  4  2  1  0
  4  5  1  0
  6  5  1  0
  7  6  1  0
  8 10  1  0
  8  7  1  0
  8  9  1  6
 10 11  2  0
 13 12  1  0
 14 13  1  0
 14 16  1  0
 14 15  1  6
 16 18  1  0
 16 17  1  1
 17 10  1  0
 18 25  1  0
 18 19  2  0
 21 20  1  6
 21 22  1  0
 23 21  1  0
 24 23  1  6
 24 26  1  0
 25 24  1  0
 26 27  2  0
 26 28  1  0
M  END
$$$$
