RIL.pdb
     RDKit          3D

 28 27  0  0  1  0  0  0  0  0999 V2000
   17.8789  -26.2446   -4.0667 N   0  0  0  0  0  0  0  0  0  0  0  0
   17.0257  -27.0824   -4.8181 C   0  0  0  0  0  0  0  0  0  0  0  0
   17.5310  -27.7062   -5.8220 N   0  0  0  0  0  0  0  0  0  0  0  0
   15.6460  -27.2547   -4.5034 N   0  0  0  0  0  0  0  0  0  0  0  0
   15.0720  -26.6635   -3.3509 C   0  0  0  0  0  0  0  0  0  0  0  0
   15.0068  -25.1805   -3.3756 C   0  0  0  0  0  0  0  0  0  0  0  0
   14.2949  -24.5187   -2.2633 C   0  0  0  0  0  0  0  0  0  0  0  0
   14.1785  -23.0469   -2.2801 C   0  0  2  0  0  0  0  0  0  0  0  0
   14.6122  -22.5455   -3.5742 N   0  0  0  0  0  0  0  0  0  0  0  0
   14.9611  -22.3937   -1.1854 C   0  0  0  0  0  0  0  0  0  0  0  0
   16.1707  -22.1054   -1.3720 O   0  0  0  0  0  0  0  0  0  0  0  0
   16.9764  -28.3266   -6.4377 C   0  0  0  0  0  0  0  0  0  0  0  0
   12.4377  -18.7271    2.0089 C   0  0  0  0  0  0  0  0  0  0  0  0
   13.4434  -19.4389    1.1352 C   0  0  2  0  0  0  0  0  0  0  0  0
   14.1067  -20.5628    1.8321 C   0  0  0  0  0  0  0  0  0  0  0  0
   14.7104  -20.0891    3.1413 C   0  0  2  0  0  0  0  0  0  0  0  0
   15.1567  -21.3181    1.0970 N   0  0  0  0  0  0  0  0  0  0  0  0
   14.4028  -22.0776    0.0715 C   0  0  0  0  0  0  0  0  0  0  0  0
   15.8586  -22.3139    1.9375 O   0  0  0  0  0  0  0  0  0  0  0  0
   15.2485  -23.3742    2.3414 C   0  0  0  0  0  0  0  0  0  0  0  0
   21.4352  -24.3148    2.7388 C   0  0  1  0  0  0  0  0  0  0  0  0
   19.9684  -24.6778    3.0164 C   0  0  0  0  0  0  0  0  0  0  0  0
   19.7540  -26.0346    2.3856 C   0  0  0  0  0  0  0  0  0  0  0  0
   19.1473  -23.6070    2.3928 C   0  0  2  0  0  0  0  0  0  0  0  0
   17.8738  -23.2707    3.1175 N   0  0  0  0  0  0  0  0  0  0  0  0
   17.1983  -22.2016    2.3535 C   0  0  0  0  0  0  0  0  0  0  0  0
   18.0571  -22.8520    4.4960 O   0  0  0  0  0  0  0  0  0  0  0  0
   18.1956  -21.6425    4.7770 O   0  0  0  0  0  0  0  0  0  0  0  0
  1  2  1  0
  2  3  2  0
  4  2  1  0
  4  5  1  0
  6  5  1  0
  7  6  1  0
  8 10  1  0
  8  7  1  0
  8  9  1  6
 10 11  2  0
 13 12  1  0
 14 13  1  0
 14 16  1  0
 14 15  1  1
 16 18  1  0
 16 17  1  6
 17 10  1  0
 18 25  1  0
 18 19  2  0
 21 20  1  1
 21 22  1  0
 23 21  1  0
 24 23  1  6
 24 26  1  0
 25 24  1  0
 26 27  2  0
 26 28  1  0
M  END
$$$$
