RIL.pdb
     RDKit          3D

 28 27  0  0  1  0  0  0  0  0999 V2000
   19.1631  -31.5898  -10.2225 N   0  0  0  0  0  0  0  0  0  0  0  0
   19.9762  -31.4719   -9.0739 C   0  0  0  0  0  0  0  0  0  0  0  0
   19.4385  -31.0016   -8.0052 N   0  0  0  0  0  0  0  0  0  0  0  0
   21.3502  -31.8515   -9.0629 N   0  0  0  0  0  0  0  0  0  0  0  0
   21.9774  -32.3883  -10.2145 C   0  0  0  0  0  0  0  0  0  0  0  0
   23.3550  -32.8969   -9.9963 C   0  0  0  0  0  0  0  0  0  0  0  0
   24.3612  -31.9303   -9.5113 C   0  0  0  0  0  0  0  0  0  0  0  0
   25.7698  -32.3647   -9.4275 C   0  0  2  0  0  0  0  0  0  0  0  0
   26.1948  -32.8692  -10.7232 N   0  0  0  0  0  0  0  0  0  0  0  0
   25.9920  -33.4013   -8.3722 C   0  0  0  0  0  0  0  0  0  0  0  0
   25.5865  -34.5768   -8.5596 O   0  0  0  0  0  0  0  0  0  0  0  0
   19.9577  -30.8845   -7.1174 C   0  0  0  0  0  0  0  0  0  0  0  0
   30.7885  -34.4805   -6.8408 C   0  0  0  0  0  0  0  0  0  0  0  0
   29.3150  -34.5179   -7.1706 C   0  0  2  0  0  0  0  0  0  0  0  0
   28.4681  -34.0833   -6.0381 C   0  0  0  0  0  0  0  0  0  0  0  0
   28.8609  -34.8216   -4.7718 C   0  0  2  0  0  0  0  0  0  0  0  0
   26.9920  -34.1946   -6.1870 N   0  0  0  0  0  0  0  0  0  0  0  0
   26.6457  -33.1247   -7.1526 C   0  0  0  0  0  0  0  0  0  0  0  0
   26.2536  -33.9002   -4.9385 O   0  0  0  0  0  0  0  0  0  0  0  0
   26.4238  -32.7788   -4.3276 C   0  0  0  0  0  0  0  0  0  0  0  0
   21.6439  -36.3198   -1.6701 C   0  0  1  0  0  0  0  0  0  0  0  0
   22.6563  -35.1647   -1.7015 C   0  0  0  0  0  0  0  0  0  0  0  0
   21.8332  -33.8970   -1.7251 C   0  0  0  0  0  0  0  0  0  0  0  0
   23.4708  -35.3555   -2.9302 C   0  0  2  0  0  0  0  0  0  0  0  0
   24.6620  -34.4473   -3.0580 N   0  0  0  0  0  0  0  0  0  0  0  0
   25.3364  -34.7773   -4.3305 C   0  0  0  0  0  0  0  0  0  0  0  0
   25.6085  -34.5363   -1.9602 O   0  0  0  0  0  0  0  0  0  0  0  0
   25.5900  -33.6929   -1.0386 O   0  0  0  0  0  0  0  0  0  0  0  0
  1  2  1  0
  2  3  2  0
  4  2  1  0
  4  5  1  0
  6  5  1  0
  7  6  1  0
  8 10  1  0
  8  7  1  0
  8  9  1  6
 10 11  2  0
 13 12  1  0
 14 13  1  0
 14 16  1  0
 14 15  1  1
 16 18  1  0
 16 17  1  6
 17 10  1  0
 18 25  1  0
 18 19  2  0
 21 20  1  1
 21 22  1  0
 23 21  1  0
 24 23  1  6
 24 26  1  0
 25 24  1  0
 26 27  2  0
 26 28  1  0
M  END
$$$$
