RIL.pdb
     RDKit          3D

 28 27  0  0  1  0  0  0  0  0999 V2000
   26.8820  -24.9604  -18.0938 N   0  0  0  0  0  0  0  0  0  0  0  0
   28.2848  -25.0722  -17.9757 C   0  0  0  0  0  0  0  0  0  0  0  0
   28.7830  -26.2501  -17.8462 N   0  0  0  0  0  0  0  0  0  0  0  0
   29.1502  -23.9395  -17.9953 N   0  0  0  0  0  0  0  0  0  0  0  0
   28.6395  -22.6215  -18.0932 C   0  0  0  0  0  0  0  0  0  0  0  0
   28.8876  -21.7653  -16.9060 C   0  0  0  0  0  0  0  0  0  0  0  0
   28.0635  -22.0206  -15.7069 C   0  0  0  0  0  0  0  0  0  0  0  0
   27.1938  -20.9369  -15.2080 C   0  0  2  0  0  0  0  0  0  0  0  0
   28.0190  -19.8720  -14.6610 N   0  0  0  0  0  0  0  0  0  0  0  0
   26.2144  -21.4097  -14.1810 C   0  0  0  0  0  0  0  0  0  0  0  0
   25.4166  -22.3397  -14.4636 O   0  0  0  0  0  0  0  0  0  0  0  0
   29.7977  -26.4245  -17.7392 C   0  0  0  0  0  0  0  0  0  0  0  0
   25.4682  -20.6638   -8.1256 C   0  0  0  0  0  0  0  0  0  0  0  0
   24.8066  -21.1327   -9.4000 C   0  0  2  0  0  0  0  0  0  0  0  0
   25.6184  -20.8413  -10.6020 C   0  0  0  0  0  0  0  0  0  0  0  0
   25.9441  -19.3608  -10.6726 C   0  0  2  0  0  0  0  0  0  0  0  0
   25.0765  -21.2488  -11.9262 N   0  0  0  0  0  0  0  0  0  0  0  0
   26.1363  -20.8562  -12.8853 C   0  0  0  0  0  0  0  0  0  0  0  0
   23.8543  -20.5083  -12.3118 O   0  0  0  0  0  0  0  0  0  0  0  0
   23.8230  -19.2219  -12.2508 C   0  0  0  0  0  0  0  0  0  0  0  0
   22.0006  -18.5988  -15.4417 C   0  0  2  0  0  0  0  0  0  0  0  0
   22.0200  -20.1345  -15.4849 C   0  0  0  0  0  0  0  0  0  0  0  0
   21.6226  -20.5113  -16.8938 C   0  0  0  0  0  0  0  0  0  0  0  0
   21.0462  -20.5941  -14.4602 C   0  0  2  0  0  0  0  0  0  0  0  0
   21.4428  -20.3306  -13.0342 N   0  0  0  0  0  0  0  0  0  0  0  0
   22.6663  -21.1131  -12.7627 C   0  0  0  0  0  0  0  0  0  0  0  0
   20.4213  -20.6558  -12.0544 O   0  0  0  0  0  0  0  0  0  0  0  0
   20.4790  -21.7254  -11.4112 O   0  0  0  0  0  0  0  0  0  0  0  0
  1  2  1  0
  2  3  2  0
  4  2  1  0
  4  5  1  0
  6  5  1  0
  7  6  1  0
  8 10  1  0
  8  7  1  0
  8  9  1  1
 10 11  2  0
 13 12  1  0
 14 13  1  0
 14 16  1  0
 14 15  1  6
 16 18  1  0
 16 17  1  6
 17 10  1  0
 18 25  1  0
 18 19  2  0
 21 20  1  6
 21 22  1  0
 23 21  1  0
 24 23  1  6
 24 26  1  0
 25 24  1  0
 26 27  2  0
 26 28  1  0
M  END
$$$$
