RIL.pdb
     RDKit          3D

 28 27  0  0  1  0  0  0  0  0999 V2000
   13.3491  -18.4226    4.0836 N   0  0  0  0  0  0  0  0  0  0  0  0
   13.3811  -19.0587    2.8231 C   0  0  0  0  0  0  0  0  0  0  0  0
   12.2653  -19.4576    2.3250 N   0  0  0  0  0  0  0  0  0  0  0  0
   14.5909  -19.2683    2.0988 N   0  0  0  0  0  0  0  0  0  0  0  0
   15.8405  -18.8350    2.6070 C   0  0  0  0  0  0  0  0  0  0  0  0
   15.8994  -17.3994    2.9807 C   0  0  0  0  0  0  0  0  0  0  0  0
   17.1641  -16.9061    3.5633 C   0  0  0  0  0  0  0  0  0  0  0  0
   17.1931  -15.5420    4.1274 C   0  0  2  0  0  0  0  0  0  0  0  0
   16.9412  -14.5786    3.0678 N   0  0  0  0  0  0  0  0  0  0  0  0
   18.4851  -15.2285    4.8130 C   0  0  0  0  0  0  0  0  0  0  0  0
   19.5329  -15.0886    4.1319 O   0  0  0  0  0  0  0  0  0  0  0  0
   12.1925  -19.9155    1.3996 C   0  0  0  0  0  0  0  0  0  0  0  0
   19.6339  -11.0718    7.3834 C   0  0  0  0  0  0  0  0  0  0  0  0
   19.7295  -12.3716    6.6198 C   0  0  2  0  0  0  0  0  0  0  0  0
   19.8006  -13.5502    7.5111 C   0  0  0  0  0  0  0  0  0  0  0  0
   20.9565  -13.4071    8.4839 C   0  0  2  0  0  0  0  0  0  0  0  0
   19.9016  -14.8953    6.8835 N   0  0  0  0  0  0  0  0  0  0  0  0
   18.5930  -15.0786    6.2120 C   0  0  0  0  0  0  0  0  0  0  0  0
   20.0352  -15.9923    7.8679 O   0  0  0  0  0  0  0  0  0  0  0  0
   19.0680  -16.2700    8.6723 C   0  0  0  0  0  0  0  0  0  0  0  0
   19.6682  -20.1879    7.7857 C   0  0  2  0  0  0  0  0  0  0  0  0
   20.9422  -19.6377    7.1266 C   0  0  0  0  0  0  0  0  0  0  0  0
   21.5671  -20.8068    6.4001 C   0  0  0  0  0  0  0  0  0  0  0  0
   21.7906  -19.1136    8.2289 C   0  0  2  0  0  0  0  0  0  0  0  0
   21.2290  -17.9277    8.9627 N   0  0  0  0  0  0  0  0  0  0  0  0
   21.1790  -16.7998    8.0095 C   0  0  0  0  0  0  0  0  0  0  0  0
   21.9771  -17.5413   10.1459 O   0  0  0  0  0  0  0  0  0  0  0  0
   22.8324  -16.6325   10.0853 O   0  0  0  0  0  0  0  0  0  0  0  0
  1  2  1  0
  2  3  2  0
  4  2  1  0
  4  5  1  0
  6  5  1  0
  7  6  1  0
  8 10  1  0
  8  7  1  0
  8  9  1  6
 10 11  2  0
 13 12  1  0
 14 13  1  0
 14 16  1  0
 14 15  1  1
 16 18  1  0
 16 17  1  6
 17 10  1  0
 18 25  1  0
 18 19  2  0
 21 20  1  6
 21 22  1  0
 23 21  1  0
 24 23  1  6
 24 26  1  0
 25 24  1  0
 26 27  2  0
 26 28  1  0
M  END
$$$$
