RIL.pdb
     RDKit          3D

 28 27  0  0  1  0  0  0  0  0999 V2000
   22.9132  -19.1349  -18.5921 N   0  0  0  0  0  0  0  0  0  0  0  0
   21.8279  -19.4796  -17.7568 C   0  0  0  0  0  0  0  0  0  0  0  0
   21.5013  -18.6536  -16.8276 N   0  0  0  0  0  0  0  0  0  0  0  0
   21.0962  -20.6935  -17.9095 N   0  0  0  0  0  0  0  0  0  0  0  0
   21.7474  -21.9517  -17.9223 C   0  0  0  0  0  0  0  0  0  0  0  0
   21.7878  -22.6481  -16.6117 C   0  0  0  0  0  0  0  0  0  0  0  0
   23.0865  -23.2095  -16.1867 C   0  0  0  0  0  0  0  0  0  0  0  0
   24.3148  -22.7075  -16.8341 C   0  0  2  0  0  0  0  0  0  0  0  0
   25.0374  -23.8231  -17.4236 N   0  0  0  0  0  0  0  0  0  0  0  0
   25.2013  -21.9605  -15.8887 C   0  0  0  0  0  0  0  0  0  0  0  0
   26.1260  -22.5682  -15.2913 O   0  0  0  0  0  0  0  0  0  0  0  0
   20.6677  -18.7809  -16.2274 C   0  0  0  0  0  0  0  0  0  0  0  0
   26.3121  -16.5467  -16.4203 C   0  0  0  0  0  0  0  0  0  0  0  0
   26.3749  -18.0408  -16.2069 C   0  0  2  0  0  0  0  0  0  0  0  0
   25.7532  -18.4590  -14.9313 C   0  0  0  0  0  0  0  0  0  0  0  0
   26.3259  -17.6571  -13.7773 C   0  0  2  0  0  0  0  0  0  0  0  0
   25.8216  -19.8980  -14.5599 N   0  0  0  0  0  0  0  0  0  0  0  0
   25.0520  -20.5821  -15.6260 C   0  0  0  0  0  0  0  0  0  0  0  0
   25.1457  -20.2052  -13.2795 O   0  0  0  0  0  0  0  0  0  0  0  0
   24.1454  -21.0163  -13.2467 C   0  0  0  0  0  0  0  0  0  0  0  0
   27.6849  -22.0527   -9.6114 C   0  0  1  0  0  0  0  0  0  0  0  0
   28.4820  -21.6905  -10.8738 C   0  0  0  0  0  0  0  0  0  0  0  0
   29.7266  -20.9849  -10.3859 C   0  0  0  0  0  0  0  0  0  0  0  0
   27.5980  -20.8184  -11.6908 C   0  0  1  0  0  0  0  0  0  0  0  0
   26.2941  -20.4409  -11.0446 N   0  0  0  0  0  0  0  0  0  0  0  0
   25.5172  -19.6658  -12.0339 C   0  0  0  0  0  0  0  0  0  0  0  0
   26.4287  -19.6786   -9.8158 O   0  0  0  0  0  0  0  0  0  0  0  0
   27.3796  -18.8821   -9.6660 O   0  0  0  0  0  0  0  0  0  0  0  0
  1  2  1  0
  2  3  2  0
  4  2  1  0
  4  5  1  0
  6  5  1  0
  7  6  1  0
  8 10  1  0
  8  7  1  0
  8  9  1  1
 10 11  2  0
 13 12  1  0
 14 13  1  0
 14 16  1  0
 14 15  1  6
 16 18  1  0
 16 17  1  1
 17 10  1  0
 18 25  1  0
 18 19  2  0
 21 20  1  1
 21 22  1  0
 23 21  1  0
 24 23  1  6
 24 26  1  0
 25 24  1  0
 26 27  2  0
 26 28  1  0
M  END
$$$$
