TTY.pdb
     RDKit          3D

 27 27  0  0  1  0  0  0  0  0999 V2000
    9.2921  -18.2065   18.4597 C   0  0  0  0  0  0  0  0  0  0  0  0
    9.9693  -17.0130   17.8500 C   0  0  1  0  0  0  0  0  0  0  0  0
    9.1257  -16.3534   16.9733 O   0  0  0  0  0  0  0  0  0  0  0  0
   10.5809  -16.0880   18.8587 C   0  0  2  0  0  0  0  0  0  0  0  0
   11.7133  -16.7047   19.4829 N   0  0  0  0  0  0  0  0  0  0  0  0
    9.6169  -15.5313   19.8234 C   0  0  0  0  0  0  0  0  0  0  0  0
    8.6823  -14.8036   19.4007 O   0  0  0  0  0  0  0  0  0  0  0  0
    6.9456  -15.2505   20.3431 C   0  0  0  0  0  0  0  0  0  0  0  0
    7.2732  -15.8141   21.7095 C   0  0  1  0  0  0  0  0  0  0  0  0
    7.2571  -17.2111   21.5841 O   0  0  0  0  0  0  0  0  0  0  0  0
    8.6374  -15.3403   22.1398 C   0  0  2  0  0  0  0  0  0  0  0  0
    9.6755  -15.7681   21.2315 N   0  0  0  0  0  0  0  0  0  0  0  0
    8.9850  -15.7608   23.5093 C   0  0  0  0  0  0  0  0  0  0  0  0
   10.1484  -16.1839   23.6925 O   0  0  0  0  0  0  0  0  0  0  0  0
    6.5560  -10.0474   26.6123 O   0  0  0  0  0  0  0  0  0  0  0  0
    6.7524  -11.4246   26.6966 C   0  0  0  0  0  0  0  0  0  0  0  0
    7.9823  -11.9527   27.0282 C   0  0  0  0  0  0  0  0  0  0  0  0
    8.2063  -13.3022   27.1190 C   0  0  0  0  0  0  0  0  0  0  0  0
    7.1921  -14.2002   26.8779 C   0  0  0  0  0  0  0  0  0  0  0  0
    7.3702  -15.6700   26.9609 C   0  0  0  0  0  0  0  0  0  0  0  0
    8.4103  -16.0616   25.9464 C   0  0  2  0  0  0  0  0  0  0  0  0
    8.0848  -15.7106   24.6074 N   0  0  0  0  0  0  0  0  0  0  0  0
    8.8014  -17.4877   26.0309 C   0  0  0  0  0  0  0  0  0  0  0  0
    9.5736  -18.0220   27.0463 O   0  0  0  0  0  0  0  0  0  0  0  0
    5.9622  -13.6954   26.5469 C   0  0  0  0  0  0  0  0  0  0  0  0
    5.7374  -12.3170   26.4552 C   0  0  0  0  0  0  0  0  0  0  0  0
    8.4196  -18.2903   25.1316 O   0  0  0  0  0  0  0  0  0  0  0  0
  2  1  1  1
  2  4  1  0
  3  2  1  0
  4  5  1  1
  4  6  1  0
  6 12  1  0
  7  6  2  0
  9  8  1  6
  9 10  1  0
 11  9  1  0
 11 12  1  6
 13 11  1  0
 13 14  2  0
 16 15  1  0
 16 17  2  0
 18 17  1  0
 19 18  2  0
 20 19  1  0
 21 20  1  1
 21 22  1  0
 22 13  1  0
 23 24  1  0
 23 21  1  0
 25 26  2  0
 25 19  1  0
 26 16  1  0
 27 23  2  0
M  END
$$$$
