TTY.pdb
     RDKit          3D

 27 27  0  0  1  0  0  0  0  0999 V2000
   11.0321  -19.4975   20.3842 C   0  0  0  0  0  0  0  0  0  0  0  0
   11.2721  -18.7429   19.1084 C   0  0  1  0  0  0  0  0  0  0  0  0
   11.5145  -19.6070   18.0548 O   0  0  0  0  0  0  0  0  0  0  0  0
   10.2022  -17.7419   18.7913 C   0  0  2  0  0  0  0  0  0  0  0  0
   10.3559  -17.2502   17.4546 N   0  0  0  0  0  0  0  0  0  0  0  0
   10.0681  -16.6703   19.7931 C   0  0  0  0  0  0  0  0  0  0  0  0
   10.9206  -15.7460   19.8153 O   0  0  0  0  0  0  0  0  0  0  0  0
    7.2148  -14.3015   20.4680 C   0  0  0  0  0  0  0  0  0  0  0  0
    7.5344  -14.9580   21.7942 C   0  0  1  0  0  0  0  0  0  0  0  0
    6.5708  -15.9581   21.9918 O   0  0  0  0  0  0  0  0  0  0  0  0
    8.9147  -15.5603   21.7423 C   0  0  2  0  0  0  0  0  0  0  0  0
    9.0149  -16.6118   20.7573 N   0  0  0  0  0  0  0  0  0  0  0  0
    9.3665  -16.0724   23.0488 C   0  0  0  0  0  0  0  0  0  0  0  0
    9.6037  -17.2989   23.1237 O   0  0  0  0  0  0  0  0  0  0  0  0
    6.1732  -10.3057   27.1157 O   0  0  0  0  0  0  0  0  0  0  0  0
    6.5514  -11.6090   26.7983 C   0  0  0  0  0  0  0  0  0  0  0  0
    7.8443  -12.0465   26.9946 C   0  0  0  0  0  0  0  0  0  0  0  0
    8.2462  -13.3219   26.6922 C   0  0  0  0  0  0  0  0  0  0  0  0
    7.3572  -14.2333   26.1705 C   0  0  0  0  0  0  0  0  0  0  0  0
    7.7295  -15.6262   25.8241 C   0  0  0  0  0  0  0  0  0  0  0  0
    9.2049  -15.6441   25.5288 C   0  0  2  0  0  0  0  0  0  0  0  0
    9.5420  -15.2608   24.2017 N   0  0  0  0  0  0  0  0  0  0  0  0
    9.8562  -16.9267   25.8821 C   0  0  0  0  0  0  0  0  0  0  0  0
    9.3251  -18.1714   25.5969 O   0  0  0  0  0  0  0  0  0  0  0  0
    6.0675  -13.8180   25.9679 C   0  0  0  0  0  0  0  0  0  0  0  0
    5.6609  -12.5151   26.2779 C   0  0  0  0  0  0  0  0  0  0  0  0
   10.9684  -16.9130   26.4832 O   0  0  0  0  0  0  0  0  0  0  0  0
  2  1  1  1
  2  4  1  0
  3  2  1  0
  4  5  1  6
  4  6  1  0
  6 12  1  0
  7  6  2  0
  9  8  1  6
  9 10  1  0
 11  9  1  0
 11 12  1  6
 13 11  1  0
 13 14  2  0
 16 15  1  0
 16 17  2  0
 18 17  1  0
 19 18  2  0
 20 19  1  0
 21 20  1  6
 21 22  1  0
 22 13  1  0
 23 24  1  0
 23 21  1  0
 25 26  2  0
 25 19  1  0
 26 16  1  0
 27 23  2  0
M  END
$$$$
