TTY.pdb
     RDKit          3D

 27 27  0  0  1  0  0  0  0  0999 V2000
   14.0803  -17.3066   17.6959 C   0  0  0  0  0  0  0  0  0  0  0  0
   13.0470  -16.7495   18.6322 C   0  0  1  0  0  0  0  0  0  0  0  0
   13.3159  -17.1057   19.9423 O   0  0  0  0  0  0  0  0  0  0  0  0
   12.8257  -15.2752   18.4754 C   0  0  2  0  0  0  0  0  0  0  0  0
   14.0781  -14.5802   18.4479 N   0  0  0  0  0  0  0  0  0  0  0  0
   11.8668  -14.7073   19.4387 C   0  0  0  0  0  0  0  0  0  0  0  0
   12.3031  -14.0503   20.4184 O   0  0  0  0  0  0  0  0  0  0  0  0
    8.0802  -13.1898   18.6924 C   0  0  0  0  0  0  0  0  0  0  0  0
    8.1264  -14.2302   19.7912 C   0  0  1  0  0  0  0  0  0  0  0  0
    7.7195  -15.4430   19.2158 O   0  0  0  0  0  0  0  0  0  0  0  0
    9.5321  -14.3452   20.3219 C   0  0  2  0  0  0  0  0  0  0  0  0
   10.4496  -14.8568   19.3308 N   0  0  0  0  0  0  0  0  0  0  0  0
    9.6197  -15.1720   21.5392 C   0  0  0  0  0  0  0  0  0  0  0  0
   10.7677  -15.4359   21.9618 O   0  0  0  0  0  0  0  0  0  0  0  0
    6.9800  -12.3907   29.0459 O   0  0  0  0  0  0  0  0  0  0  0  0
    7.2018  -12.7132   27.7083 C   0  0  0  0  0  0  0  0  0  0  0  0
    6.2004  -12.5930   26.7680 C   0  0  0  0  0  0  0  0  0  0  0  0
    6.3881  -12.9024   25.4457 C   0  0  0  0  0  0  0  0  0  0  0  0
    7.6077  -13.3541   24.9963 C   0  0  0  0  0  0  0  0  0  0  0  0
    7.8741  -13.7039   23.5802 C   0  0  0  0  0  0  0  0  0  0  0  0
    8.0364  -15.1978   23.5019 C   0  0  2  0  0  0  0  0  0  0  0  0
    8.4906  -15.6731   22.2411 N   0  0  0  0  0  0  0  0  0  0  0  0
    6.8299  -15.9402   23.9349 C   0  0  0  0  0  0  0  0  0  0  0  0
    6.7335  -16.6384   25.1247 O   0  0  0  0  0  0  0  0  0  0  0  0
    8.6159  -13.4804   25.9152 C   0  0  0  0  0  0  0  0  0  0  0  0
    8.4204  -13.1635   27.2644 C   0  0  0  0  0  0  0  0  0  0  0  0
    5.8089  -15.9539   23.1892 O   0  0  0  0  0  0  0  0  0  0  0  0
  2  1  1  6
  2  4  1  0
  3  2  1  0
  4  5  1  1
  4  6  1  0
  6 12  1  0
  7  6  2  0
  9  8  1  6
  9 10  1  0
 11  9  1  0
 11 12  1  6
 13 11  1  0
 13 14  2  0
 16 15  1  0
 16 17  2  0
 18 17  1  0
 19 18  2  0
 20 19  1  0
 21 20  1  6
 21 22  1  0
 22 13  1  0
 23 24  1  0
 23 21  1  0
 25 26  2  0
 25 19  1  0
 26 16  1  0
 27 23  2  0
M  END
$$$$
