TTY.pdb
     RDKit          3D

 27 27  0  0  1  0  0  0  0  0999 V2000
   10.0257  -20.7930   18.9257 C   0  0  0  0  0  0  0  0  0  0  0  0
   10.0399  -19.5477   19.7646 C   0  0  1  0  0  0  0  0  0  0  0  0
   11.0928  -19.5622   20.6627 O   0  0  0  0  0  0  0  0  0  0  0  0
    9.9905  -18.2819   18.9632 C   0  0  2  0  0  0  0  0  0  0  0  0
   11.0674  -18.2436   18.0193 N   0  0  0  0  0  0  0  0  0  0  0  0
    9.8888  -17.0595   19.7789 C   0  0  0  0  0  0  0  0  0  0  0  0
   10.8390  -16.2358   19.7644 O   0  0  0  0  0  0  0  0  0  0  0  0
    7.3202  -13.6177   22.1206 C   0  0  0  0  0  0  0  0  0  0  0  0
    7.2966  -14.9656   21.4317 C   0  0  1  0  0  0  0  0  0  0  0  0
    6.8255  -14.7447   20.1291 O   0  0  0  0  0  0  0  0  0  0  0  0
    8.6886  -15.5419   21.3970 C   0  0  2  0  0  0  0  0  0  0  0  0
    8.7621  -16.7437   20.5995 N   0  0  0  0  0  0  0  0  0  0  0  0
    9.2298  -15.8153   22.7407 C   0  0  0  0  0  0  0  0  0  0  0  0
    9.0142  -16.9526   23.2161 O   0  0  0  0  0  0  0  0  0  0  0  0
   10.7424  -15.2974   31.1839 O   0  0  0  0  0  0  0  0  0  0  0  0
   10.3235  -15.1742   29.8603 C   0  0  0  0  0  0  0  0  0  0  0  0
    9.9111  -16.2722   29.1354 C   0  0  0  0  0  0  0  0  0  0  0  0
    9.4938  -16.1827   27.8326 C   0  0  0  0  0  0  0  0  0  0  0  0
    9.4698  -14.9691   27.1846 C   0  0  0  0  0  0  0  0  0  0  0  0
    9.0285  -14.8064   25.7784 C   0  0  0  0  0  0  0  0  0  0  0  0
   10.2360  -14.9824   24.8979 C   0  0  2  0  0  0  0  0  0  0  0  0
    9.9678  -14.8727   23.5058 N   0  0  0  0  0  0  0  0  0  0  0  0
   10.9941  -16.2219   25.1865 C   0  0  0  0  0  0  0  0  0  0  0  0
   10.4811  -17.4977   25.0389 O   0  0  0  0  0  0  0  0  0  0  0  0
    9.8758  -13.8657   27.8878 C   0  0  0  0  0  0  0  0  0  0  0  0
   10.3012  -13.9611   29.2178 C   0  0  0  0  0  0  0  0  0  0  0  0
   12.1876  -16.1383   25.5954 O   0  0  0  0  0  0  0  0  0  0  0  0
  2  1  1  6
  2  4  1  0
  3  2  1  0
  4  5  1  1
  4  6  1  0
  6 12  1  0
  7  6  2  0
  9  8  1  1
  9 10  1  0
 11  9  1  0
 11 12  1  6
 13 11  1  0
 13 14  2  0
 16 15  1  0
 16 17  2  0
 18 17  1  0
 19 18  2  0
 20 19  1  0
 21 20  1  1
 21 22  1  0
 22 13  1  0
 23 24  1  0
 23 21  1  0
 25 26  2  0
 25 19  1  0
 26 16  1  0
 27 23  2  0
M  END
$$$$
