TTY.pdb
     RDKit          3D

 27 27  0  0  1  0  0  0  0  0999 V2000
    8.1108  -11.8317   19.6375 C   0  0  0  0  0  0  0  0  0  0  0  0
    8.1104  -13.0538   20.5100 C   0  0  1  0  0  0  0  0  0  0  0  0
    6.8774  -13.2382   21.1110 O   0  0  0  0  0  0  0  0  0  0  0  0
    8.5972  -14.2895   19.8149 C   0  0  2  0  0  0  0  0  0  0  0  0
    7.9051  -14.4723   18.5740 N   0  0  0  0  0  0  0  0  0  0  0  0
    8.5976  -15.4937   20.6632 C   0  0  0  0  0  0  0  0  0  0  0  0
    8.1236  -16.5639   20.2032 O   0  0  0  0  0  0  0  0  0  0  0  0
   11.2561  -17.4099   21.6953 C   0  0  0  0  0  0  0  0  0  0  0  0
    9.8623  -17.8554   22.0838 C   0  0  1  0  0  0  0  0  0  0  0  0
   10.0146  -18.9547   22.9416 O   0  0  0  0  0  0  0  0  0  0  0  0
    9.1492  -16.7316   22.7905 C   0  0  2  0  0  0  0  0  0  0  0  0
    9.1099  -15.5255   21.9970 N   0  0  0  0  0  0  0  0  0  0  0  0
    9.7273  -16.4264   24.1118 C   0  0  0  0  0  0  0  0  0  0  0  0
   10.8088  -15.7970   24.1237 O   0  0  0  0  0  0  0  0  0  0  0  0
    6.2508  -11.2869   25.4437 O   0  0  0  0  0  0  0  0  0  0  0  0
    6.8265  -12.4407   25.9726 C   0  0  0  0  0  0  0  0  0  0  0  0
    8.0559  -12.4054   26.5961 C   0  0  0  0  0  0  0  0  0  0  0  0
    8.6475  -13.5229   27.1258 C   0  0  0  0  0  0  0  0  0  0  0  0
    8.0250  -14.7479   27.0545 C   0  0  0  0  0  0  0  0  0  0  0  0
    8.6116  -15.9919   27.6086 C   0  0  0  0  0  0  0  0  0  0  0  0
    9.6452  -16.4835   26.6317 C   0  0  2  0  0  0  0  0  0  0  0  0
    9.1309  -16.8031   25.3451 N   0  0  0  0  0  0  0  0  0  0  0  0
   10.4625  -17.6009   27.1584 C   0  0  0  0  0  0  0  0  0  0  0  0
   10.6020  -18.8245   26.5292 O   0  0  0  0  0  0  0  0  0  0  0  0
    6.8024  -14.8040   26.4389 C   0  0  0  0  0  0  0  0  0  0  0  0
    6.2016  -13.6609   25.8992 C   0  0  0  0  0  0  0  0  0  0  0  0
   11.0825  -17.4551   28.2507 O   0  0  0  0  0  0  0  0  0  0  0  0
  2  1  1  6
  2  4  1  0
  3  2  1  0
  4  5  1  6
  4  6  1  0
  6 12  1  0
  7  6  2  0
  9  8  1  1
  9 10  1  0
 11  9  1  0
 11 12  1  6
 13 11  1  0
 13 14  2  0
 16 15  1  0
 16 17  2  0
 18 17  1  0
 19 18  2  0
 20 19  1  0
 21 20  1  1
 21 22  1  0
 22 13  1  0
 23 24  1  0
 23 21  1  0
 25 26  2  0
 25 19  1  0
 26 16  1  0
 27 23  2  0
M  END
$$$$
