TTY.pdb
     RDKit          3D

 27 27  0  0  1  0  0  0  0  0999 V2000
    9.4135  -20.4089   18.5070 C   0  0  0  0  0  0  0  0  0  0  0  0
    9.4647  -19.2093   19.4087 C   0  0  1  0  0  0  0  0  0  0  0  0
   10.2128  -19.4690   20.5438 O   0  0  0  0  0  0  0  0  0  0  0  0
    9.8977  -17.9532   18.7146 C   0  0  2  0  0  0  0  0  0  0  0  0
   11.1749  -18.1385   18.0928 N   0  0  0  0  0  0  0  0  0  0  0  0
    9.8319  -16.7483   19.5596 C   0  0  0  0  0  0  0  0  0  0  0  0
   10.8916  -16.3021   20.0690 O   0  0  0  0  0  0  0  0  0  0  0  0
    7.4393  -12.7543   21.2483 C   0  0  0  0  0  0  0  0  0  0  0  0
    7.3628  -14.0232   20.4260 C   0  0  1  0  0  0  0  0  0  0  0  0
    7.3202  -13.6298   19.0802 O   0  0  0  0  0  0  0  0  0  0  0  0
    8.5805  -14.8715   20.6879 C   0  0  2  0  0  0  0  0  0  0  0  0
    8.6223  -16.0420   19.8429 N   0  0  0  0  0  0  0  0  0  0  0  0
    8.6993  -15.2844   22.0980 C   0  0  0  0  0  0  0  0  0  0  0  0
    8.2866  -16.4296   22.3883 O   0  0  0  0  0  0  0  0  0  0  0  0
   10.4921  -15.9936   30.5976 O   0  0  0  0  0  0  0  0  0  0  0  0
   10.3940  -15.4644   29.3120 C   0  0  0  0  0  0  0  0  0  0  0  0
   11.1903  -15.9267   28.2856 C   0  0  0  0  0  0  0  0  0  0  0  0
   11.1168  -15.4264   27.0113 C   0  0  0  0  0  0  0  0  0  0  0  0
   10.2277  -14.4232   26.7008 C   0  0  0  0  0  0  0  0  0  0  0  0
   10.0996  -13.8413   25.3429 C   0  0  0  0  0  0  0  0  0  0  0  0
    9.3488  -14.8295   24.4920 C   0  0  2  0  0  0  0  0  0  0  0  0
    9.2471  -14.4650   23.1214 N   0  0  0  0  0  0  0  0  0  0  0  0
    8.0171  -15.1784   25.0387 C   0  0  0  0  0  0  0  0  0  0  0  0
    6.8742  -14.4260   24.8382 O   0  0  0  0  0  0  0  0  0  0  0  0
    9.4274  -13.9501   27.7070 C   0  0  0  0  0  0  0  0  0  0  0  0
    9.5052  -14.4635   29.0067 C   0  0  0  0  0  0  0  0  0  0  0  0
    7.8876  -16.2246   25.7368 O   0  0  0  0  0  0  0  0  0  0  0  0
  2  1  1  6
  2  4  1  0
  3  2  1  0
  4  5  1  1
  4  6  1  0
  6 12  1  0
  7  6  2  0
  9  8  1  1
  9 10  1  0
 11  9  1  0
 11 12  1  6
 13 11  1  0
 13 14  2  0
 16 15  1  0
 16 17  2  0
 18 17  1  0
 19 18  2  0
 20 19  1  0
 21 20  1  1
 21 22  1  0
 22 13  1  0
 23 24  1  0
 23 21  1  0
 25 26  2  0
 25 19  1  0
 26 16  1  0
 27 23  2  0
M  END
$$$$
