TTY.pdb
     RDKit          3D

 27 27  0  0  1  0  0  0  0  0999 V2000
    9.9073  -20.2522   17.4482 C   0  0  0  0  0  0  0  0  0  0  0  0
    9.9286  -19.0289   18.3187 C   0  0  1  0  0  0  0  0  0  0  0  0
   10.7248  -19.2231   19.4340 O   0  0  0  0  0  0  0  0  0  0  0  0
   10.2767  -17.7714   17.5806 C   0  0  2  0  0  0  0  0  0  0  0  0
   11.5414  -17.9102   16.9223 N   0  0  0  0  0  0  0  0  0  0  0  0
   10.1776  -16.5499   18.3979 C   0  0  0  0  0  0  0  0  0  0  0  0
   11.2336  -15.9985   18.8011 O   0  0  0  0  0  0  0  0  0  0  0  0
    7.7676  -12.6675   20.2015 C   0  0  0  0  0  0  0  0  0  0  0  0
    7.6626  -13.9466   19.3985 C   0  0  1  0  0  0  0  0  0  0  0  0
    7.6295  -13.5729   18.0469 O   0  0  0  0  0  0  0  0  0  0  0  0
    8.8607  -14.8182   19.6741 C   0  0  2  0  0  0  0  0  0  0  0  0
    8.9392  -15.9404   18.7685 N   0  0  0  0  0  0  0  0  0  0  0  0
    8.9052  -15.3095   21.0633 C   0  0  0  0  0  0  0  0  0  0  0  0
    8.3424  -16.4031   21.2943 O   0  0  0  0  0  0  0  0  0  0  0  0
    6.3050  -12.4736   28.7987 O   0  0  0  0  0  0  0  0  0  0  0  0
    6.6801  -12.6956   27.4748 C   0  0  0  0  0  0  0  0  0  0  0  0
    5.9081  -13.4677   26.6326 C   0  0  0  0  0  0  0  0  0  0  0  0
    6.2507  -13.7039   25.3263 C   0  0  0  0  0  0  0  0  0  0  0  0
    7.4013  -13.1689   24.7942 C   0  0  0  0  0  0  0  0  0  0  0  0
    7.8257  -13.3863   23.3901 C   0  0  0  0  0  0  0  0  0  0  0  0
    8.9614  -14.3734   23.4043 C   0  0  2  0  0  0  0  0  0  0  0  0
    9.5413  -14.6185   22.1294 N   0  0  0  0  0  0  0  0  0  0  0  0
    8.6187  -15.6489   24.0749 C   0  0  0  0  0  0  0  0  0  0  0  0
    7.8820  -16.6613   23.4875 O   0  0  0  0  0  0  0  0  0  0  0  0
    8.1821  -12.3986   25.6150 C   0  0  0  0  0  0  0  0  0  0  0  0
    7.8291  -12.1597   26.9481 C   0  0  0  0  0  0  0  0  0  0  0  0
    9.0111  -15.8521   25.2596 O   0  0  0  0  0  0  0  0  0  0  0  0
  2  1  1  6
  2  4  1  0
  3  2  1  0
  4  5  1  1
  4  6  1  0
  6 12  1  0
  7  6  2  0
  9  8  1  1
  9 10  1  0
 11  9  1  0
 11 12  1  6
 13 11  1  0
 13 14  2  0
 16 15  1  0
 16 17  2  0
 18 17  1  0
 19 18  2  0
 20 19  1  0
 21 20  1  6
 21 22  1  0
 22 13  1  0
 23 24  1  0
 23 21  1  0
 25 26  2  0
 25 19  1  0
 26 16  1  0
 27 23  2  0
M  END
$$$$
