TTY.pdb
     RDKit          3D

 27 27  0  0  1  0  0  0  0  0999 V2000
    8.3269  -15.8852   16.0087 C   0  0  0  0  0  0  0  0  0  0  0  0
    8.7813  -15.5513   17.4004 C   0  0  1  0  0  0  0  0  0  0  0  0
   10.1315  -15.2482   17.4260 O   0  0  0  0  0  0  0  0  0  0  0  0
    7.9476  -14.5005   18.0695 C   0  0  2  0  0  0  0  0  0  0  0  0
    7.8809  -13.3215   17.2585 N   0  0  0  0  0  0  0  0  0  0  0  0
    8.3353  -14.2257   19.4638 C   0  0  0  0  0  0  0  0  0  0  0  0
    8.9552  -13.1634   19.7264 O   0  0  0  0  0  0  0  0  0  0  0  0
    6.1355  -13.8009   22.3312 C   0  0  0  0  0  0  0  0  0  0  0  0
    7.1543  -14.8094   22.8177 C   0  0  1  0  0  0  0  0  0  0  0  0
    6.5374  -16.0676   22.7569 O   0  0  0  0  0  0  0  0  0  0  0  0
    8.3682  -14.7750   21.9253 C   0  0  2  0  0  0  0  0  0  0  0  0
    8.0481  -15.1021   20.5556 N   0  0  0  0  0  0  0  0  0  0  0  0
    9.4514  -15.6570   22.3962 C   0  0  0  0  0  0  0  0  0  0  0  0
    9.3821  -16.8624   22.0671 O   0  0  0  0  0  0  0  0  0  0  0  0
   10.7232  -15.5359   30.9238 O   0  0  0  0  0  0  0  0  0  0  0  0
   10.4620  -15.3124   29.5731 C   0  0  0  0  0  0  0  0  0  0  0  0
   10.3323  -16.3606   28.6867 C   0  0  0  0  0  0  0  0  0  0  0  0
   10.0756  -16.1725   27.3532 C   0  0  0  0  0  0  0  0  0  0  0  0
    9.9346  -14.9048   26.8371 C   0  0  0  0  0  0  0  0  0  0  0  0
    9.6555  -14.6356   25.4058 C   0  0  0  0  0  0  0  0  0  0  0  0
   10.6641  -15.4010   24.5925 C   0  0  2  0  0  0  0  0  0  0  0  0
   10.5461  -15.2165   23.1876 N   0  0  0  0  0  0  0  0  0  0  0  0
   10.7110  -16.8433   24.9266 C   0  0  0  0  0  0  0  0  0  0  0  0
    9.6225  -17.6931   24.8523 O   0  0  0  0  0  0  0  0  0  0  0  0
   10.0600  -13.8496   27.7017 C   0  0  0  0  0  0  0  0  0  0  0  0
   10.3221  -14.0457   29.0626 C   0  0  0  0  0  0  0  0  0  0  0  0
   11.8019  -17.3571   25.3069 O   0  0  0  0  0  0  0  0  0  0  0  0
  2  1  1  6
  2  4  1  0
  3  2  1  0
  4  5  1  6
  4  6  1  0
  6 12  1  0
  7  6  2  0
  9  8  1  6
  9 10  1  0
 11  9  1  0
 11 12  1  6
 13 11  1  0
 13 14  2  0
 16 15  1  0
 16 17  2  0
 18 17  1  0
 19 18  2  0
 20 19  1  0
 21 20  1  1
 21 22  1  0
 22 13  1  0
 23 24  1  0
 23 21  1  0
 25 26  2  0
 25 19  1  0
 26 16  1  0
 27 23  2  0
M  END
$$$$
