TTY.pdb
     RDKit          3D

 27 27  0  0  1  0  0  0  0  0999 V2000
    7.9692  -12.3678   17.1608 C   0  0  0  0  0  0  0  0  0  0  0  0
    7.7467  -13.5215   18.0958 C   0  0  1  0  0  0  0  0  0  0  0  0
    7.5029  -14.6911   17.3971 O   0  0  0  0  0  0  0  0  0  0  0  0
    8.8294  -13.6833   19.1198 C   0  0  2  0  0  0  0  0  0  0  0  0
   10.0908  -13.9192   18.4829 N   0  0  0  0  0  0  0  0  0  0  0  0
    8.5170  -14.6654   20.1723 C   0  0  0  0  0  0  0  0  0  0  0  0
    7.5138  -14.4742   20.9064 O   0  0  0  0  0  0  0  0  0  0  0  0
    8.7380  -18.6441   19.9160 C   0  0  0  0  0  0  0  0  0  0  0  0
    9.4354  -18.1669   21.1722 C   0  0  1  0  0  0  0  0  0  0  0  0
   10.8124  -18.2040   20.9079 O   0  0  0  0  0  0  0  0  0  0  0  0
    8.9987  -16.7604   21.4916 C   0  0  2  0  0  0  0  0  0  0  0  0
    9.2924  -15.8405   20.4177 N   0  0  0  0  0  0  0  0  0  0  0  0
    9.5833  -16.2489   22.7445 C   0  0  0  0  0  0  0  0  0  0  0  0
   10.7082  -15.7067   22.6632 O   0  0  0  0  0  0  0  0  0  0  0  0
   11.3853  -14.6356   31.1372 O   0  0  0  0  0  0  0  0  0  0  0  0
   10.6889  -14.8410   29.9476 C   0  0  0  0  0  0  0  0  0  0  0  0
   10.5385  -13.8292   29.0229 C   0  0  0  0  0  0  0  0  0  0  0  0
    9.8593  -14.0008   27.8445 C   0  0  0  0  0  0  0  0  0  0  0  0
    9.2898  -15.2138   27.5323 C   0  0  0  0  0  0  0  0  0  0  0  0
    8.5444  -15.4629   26.2748 C   0  0  0  0  0  0  0  0  0  0  0  0
    9.5315  -15.9481   25.2478 C   0  0  2  0  0  0  0  0  0  0  0  0
    8.9473  -16.3389   24.0118 N   0  0  0  0  0  0  0  0  0  0  0  0
   10.4312  -17.0087   25.7574 C   0  0  0  0  0  0  0  0  0  0  0  0
   10.0670  -18.3357   25.8952 O   0  0  0  0  0  0  0  0  0  0  0  0
    9.4281  -16.2322   28.4381 C   0  0  0  0  0  0  0  0  0  0  0  0
   10.1223  -16.0532   29.6402 C   0  0  0  0  0  0  0  0  0  0  0  0
   11.6125  -16.7107   26.0956 O   0  0  0  0  0  0  0  0  0  0  0  0
  2  1  1  6
  2  4  1  0
  3  2  1  0
  4  5  1  6
  4  6  1  0
  6 12  1  0
  7  6  2  0
  9  8  1  6
  9 10  1  0
 11  9  1  0
 11 12  1  6
 13 11  1  0
 13 14  2  0
 16 15  1  0
 16 17  2  0
 18 17  1  0
 19 18  2  0
 20 19  1  0
 21 20  1  1
 21 22  1  0
 22 13  1  0
 23 24  1  0
 23 21  1  0
 25 26  2  0
 25 19  1  0
 26 16  1  0
 27 23  2  0
M  END
$$$$
