TTY.pdb
     RDKit          3D

 27 27  0  0  1  0  0  0  0  0999 V2000
   10.2834  -19.4630   18.9749 C   0  0  0  0  0  0  0  0  0  0  0  0
   10.7232  -18.7431   17.7327 C   0  0  1  0  0  0  0  0  0  0  0  0
   10.8088  -19.6095   16.6568 O   0  0  0  0  0  0  0  0  0  0  0  0
    9.9057  -17.5257   17.4217 C   0  0  2  0  0  0  0  0  0  0  0  0
   10.2202  -17.0310   16.1146 N   0  0  0  0  0  0  0  0  0  0  0  0
    9.9574  -16.4866   18.4645 C   0  0  0  0  0  0  0  0  0  0  0  0
   11.0031  -15.7991   18.5891 O   0  0  0  0  0  0  0  0  0  0  0  0
    7.6976  -13.5302   19.1465 C   0  0  0  0  0  0  0  0  0  0  0  0
    7.7810  -14.3029   20.4456 C   0  0  1  0  0  0  0  0  0  0  0  0
    6.5949  -15.0442   20.5510 O   0  0  0  0  0  0  0  0  0  0  0  0
    8.9747  -15.2222   20.4132 C   0  0  2  0  0  0  0  0  0  0  0  0
    8.8789  -16.2043   19.3587 N   0  0  0  0  0  0  0  0  0  0  0  0
    9.2056  -15.9079   21.6976 C   0  0  0  0  0  0  0  0  0  0  0  0
    8.7882  -17.0837   21.7936 O   0  0  0  0  0  0  0  0  0  0  0  0
    6.3435  -11.6400   28.5812 O   0  0  0  0  0  0  0  0  0  0  0  0
    6.7791  -12.1670   27.3667 C   0  0  0  0  0  0  0  0  0  0  0  0
    6.1147  -11.8947   26.1895 C   0  0  0  0  0  0  0  0  0  0  0  0
    6.5188  -12.3982   24.9801 C   0  0  0  0  0  0  0  0  0  0  0  0
    7.6254  -13.2111   24.8921 C   0  0  0  0  0  0  0  0  0  0  0  0
    8.1135  -13.7854   23.6151 C   0  0  0  0  0  0  0  0  0  0  0  0
    9.2114  -14.7606   23.9435 C   0  0  2  0  0  0  0  0  0  0  0  0
    9.8640  -15.3133   22.8075 N   0  0  0  0  0  0  0  0  0  0  0  0
    8.7824  -15.8329   24.8710 C   0  0  0  0  0  0  0  0  0  0  0  0
    7.7656  -16.7309   24.6023 O   0  0  0  0  0  0  0  0  0  0  0  0
    8.2996  -13.4935   26.0508 C   0  0  0  0  0  0  0  0  0  0  0  0
    7.8839  -12.9777   27.2837 C   0  0  0  0  0  0  0  0  0  0  0  0
    9.3648  -15.9584   25.9863 O   0  0  0  0  0  0  0  0  0  0  0  0
  2  1  1  1
  2  4  1  0
  3  2  1  0
  4  5  1  6
  4  6  1  0
  6 12  1  0
  7  6  2  0
  9  8  1  6
  9 10  1  0
 11  9  1  0
 11 12  1  6
 13 11  1  0
 13 14  2  0
 16 15  1  0
 16 17  2  0
 18 17  1  0
 19 18  2  0
 20 19  1  0
 21 20  1  6
 21 22  1  0
 22 13  1  0
 23 24  1  0
 23 21  1  0
 25 26  2  0
 25 19  1  0
 26 16  1  0
 27 23  2  0
M  END
$$$$
