TTY.pdb
     RDKit          3D

 27 27  0  0  1  0  0  0  0  0999 V2000
    5.9710  -20.3513   20.6649 C   0  0  0  0  0  0  0  0  0  0  0  0
    6.8705  -19.1650   20.8616 C   0  0  1  0  0  0  0  0  0  0  0  0
    8.0690  -19.5379   21.4446 O   0  0  0  0  0  0  0  0  0  0  0  0
    7.0691  -18.3484   19.6203 C   0  0  2  0  0  0  0  0  0  0  0  0
    7.6049  -19.1587   18.5674 N   0  0  0  0  0  0  0  0  0  0  0  0
    7.8246  -17.1026   19.8370 C   0  0  0  0  0  0  0  0  0  0  0  0
    9.0415  -17.0647   19.5217 O   0  0  0  0  0  0  0  0  0  0  0  0
    8.2935  -12.2926   20.4202 C   0  0  0  0  0  0  0  0  0  0  0  0
    7.4239  -13.4886   20.0955 C   0  0  1  0  0  0  0  0  0  0  0  0
    7.3691  -13.5797   18.6968 O   0  0  0  0  0  0  0  0  0  0  0  0
    8.0368  -14.7349   20.6802 C   0  0  2  0  0  0  0  0  0  0  0  0
    7.2555  -15.9147   20.3914 N   0  0  0  0  0  0  0  0  0  0  0  0
    8.2542  -14.6390   22.1351 C   0  0  0  0  0  0  0  0  0  0  0  0
    7.4368  -13.9488   22.7843 O   0  0  0  0  0  0  0  0  0  0  0  0
    6.1502  -10.8880   27.2245 O   0  0  0  0  0  0  0  0  0  0  0  0
    6.6580  -12.0645   26.6763 C   0  0  0  0  0  0  0  0  0  0  0  0
    5.9214  -12.8136   25.7832 C   0  0  0  0  0  0  0  0  0  0  0  0
    6.3936  -13.9745   25.2274 C   0  0  0  0  0  0  0  0  0  0  0  0
    7.6461  -14.4468   25.5456 C   0  0  0  0  0  0  0  0  0  0  0  0
    8.2137  -15.6936   24.9781 C   0  0  0  0  0  0  0  0  0  0  0  0
    9.4697  -15.3263   24.2351 C   0  0  2  0  0  0  0  0  0  0  0  0
    9.3218  -15.2772   22.8217 N   0  0  0  0  0  0  0  0  0  0  0  0
   10.6349  -16.1611   24.6085 C   0  0  0  0  0  0  0  0  0  0  0  0
   11.4343  -16.8295   23.6991 O   0  0  0  0  0  0  0  0  0  0  0  0
    8.3940  -13.7166   26.4312 C   0  0  0  0  0  0  0  0  0  0  0  0
    7.9085  -12.5319   26.9966 C   0  0  0  0  0  0  0  0  0  0  0  0
   10.9412  -16.2890   25.8285 O   0  0  0  0  0  0  0  0  0  0  0  0
  2  1  1  6
  2  4  1  0
  3  2  1  0
  4  5  1  6
  4  6  1  0
  6 12  1  0
  7  6  2  0
  9  8  1  6
  9 10  1  0
 11  9  1  0
 11 12  1  1
 13 11  1  0
 13 14  2  0
 16 15  1  0
 16 17  2  0
 18 17  1  0
 19 18  2  0
 20 19  1  0
 21 20  1  1
 21 22  1  0
 22 13  1  0
 23 24  1  0
 23 21  1  0
 25 26  2  0
 25 19  1  0
 26 16  1  0
 27 23  2  0
M  END
$$$$
