TTY.pdb
     RDKit          3D

 27 27  0  0  1  0  0  0  0  0999 V2000
    7.1290  -12.3722   18.5975 C   0  0  0  0  0  0  0  0  0  0  0  0
    7.8220  -13.5551   17.9848 C   0  0  1  0  0  0  0  0  0  0  0  0
    8.0354  -13.3632   16.6309 O   0  0  0  0  0  0  0  0  0  0  0  0
    9.0709  -13.9613   18.7076 C   0  0  2  0  0  0  0  0  0  0  0  0
    9.9406  -14.6916   17.8344 N   0  0  0  0  0  0  0  0  0  0  0  0
    8.8263  -14.6448   19.9893 C   0  0  0  0  0  0  0  0  0  0  0  0
    8.0927  -14.0891   20.8466 O   0  0  0  0  0  0  0  0  0  0  0  0
    8.2368  -18.5865   20.2488 C   0  0  0  0  0  0  0  0  0  0  0  0
    9.1398  -18.1227   21.3720 C   0  0  1  0  0  0  0  0  0  0  0  0
   10.4484  -18.4736   21.0085 O   0  0  0  0  0  0  0  0  0  0  0  0
    9.0214  -16.6292   21.5340 C   0  0  2  0  0  0  0  0  0  0  0  0
    9.3773  -15.9192   20.3277 N   0  0  0  0  0  0  0  0  0  0  0  0
    9.8202  -16.1092   22.6586 C   0  0  0  0  0  0  0  0  0  0  0  0
   10.9267  -15.5971   22.3767 O   0  0  0  0  0  0  0  0  0  0  0  0
   11.0793  -15.4728   31.3435 O   0  0  0  0  0  0  0  0  0  0  0  0
   10.6485  -15.2828   30.0317 C   0  0  0  0  0  0  0  0  0  0  0  0
   11.0332  -14.1754   29.3058 C   0  0  0  0  0  0  0  0  0  0  0  0
   10.6260  -13.9610   28.0144 C   0  0  0  0  0  0  0  0  0  0  0  0
    9.8009  -14.8607   27.3796 C   0  0  0  0  0  0  0  0  0  0  0  0
    9.3272  -14.6865   25.9853 C   0  0  0  0  0  0  0  0  0  0  0  0
   10.1292  -15.6128   25.1118 C   0  0  2  0  0  0  0  0  0  0  0  0
    9.4054  -16.1593   24.0166 N   0  0  0  0  0  0  0  0  0  0  0  0
   10.8141  -16.6848   25.8707 C   0  0  0  0  0  0  0  0  0  0  0  0
   12.0204  -16.5219   26.5271 O   0  0  0  0  0  0  0  0  0  0  0  0
    9.4074  -15.9679   28.0839 C   0  0  0  0  0  0  0  0  0  0  0  0
    9.8252  -16.1833   29.4023 C   0  0  0  0  0  0  0  0  0  0  0  0
   10.2857  -17.8314   25.9392 O   0  0  0  0  0  0  0  0  0  0  0  0
  2  1  1  1
  2  4  1  0
  3  2  1  0
  4  5  1  6
  4  6  1  0
  6 12  1  0
  7  6  2  0
  9  8  1  6
  9 10  1  0
 11  9  1  0
 11 12  1  6
 13 11  1  0
 13 14  2  0
 16 15  1  0
 16 17  2  0
 18 17  1  0
 19 18  2  0
 20 19  1  0
 21 20  1  1
 21 22  1  0
 22 13  1  0
 23 24  1  0
 23 21  1  0
 25 26  2  0
 25 19  1  0
 26 16  1  0
 27 23  2  0
M  END
$$$$
