VVG.pdb
     RDKit          3D

 19 18  0  0  1  0  0  0  0  0999 V2000
   15.4212   22.8099  -35.1943 C   0  0  0  0  0  0  0  0  0  0  0  0
   15.4139   24.0481  -36.0213 C   0  0  1  0  0  0  0  0  0  0  0  0
   14.0294   24.4876  -36.3343 C   0  0  0  0  0  0  0  0  0  0  0  0
   16.2663   25.1643  -35.4945 C   0  0  2  0  0  0  0  0  0  0  0  0
   16.6623   26.0223  -36.6324 N   0  0  0  0  0  0  0  0  0  0  0  0
   17.5261   24.7299  -34.8512 C   0  0  0  0  0  0  0  0  0  0  0  0
   17.6921   23.5032  -34.5603 O   0  0  0  0  0  0  0  0  0  0  0  0
   16.6145   28.6431  -34.2349 C   0  0  0  0  0  0  0  0  0  0  0  0
   17.1789   27.3618  -33.6256 C   0  0  1  0  0  0  0  0  0  0  0  0
   16.1421   26.2955  -33.7530 C   0  0  0  0  0  0  0  0  0  0  0  0
   18.4928   26.9960  -34.2985 C   0  0  2  0  0  0  0  0  0  0  0  0
   18.6036   25.5803  -34.5175 N   0  0  0  0  0  0  0  0  0  0  0  0
   19.5839   27.5059  -33.4133 C   0  0  0  0  0  0  0  0  0  0  0  0
   19.3405   28.1923  -32.3871 O   0  0  0  0  0  0  0  0  0  0  0  0
   20.9413   27.2185  -33.7219 N   0  0  0  0  0  0  0  0  0  0  0  0
   21.7881   26.4006  -32.9151 C   0  0  0  0  0  0  0  0  0  0  0  0
   23.1786   26.4233  -33.4220 C   0  0  0  0  0  0  0  0  0  0  0  0
   24.1076   26.1281  -32.6336 O   0  0  0  0  0  0  0  0  0  0  0  0
   23.5134   26.7538  -34.7246 O   0  0  0  0  0  0  0  0  0  0  0  0
  2  1  1  1
  3  2  1  0
  4  2  1  0
  4  5  1  6
  6  4  1  0
  7  6  2  0
  9  8  1  6
  9 11  1  0
 10  9  1  0
 11 13  1  0
 11 12  1  1
 12  6  1  0
 13 15  1  0
 14 13  2  0
 15 16  1  0
 17 16  1  0
 18 17  2  0
 19 17  1  0
M  END
$$$$
