VVG.pdb
     RDKit          3D

 19 18  0  0  1  0  0  0  0  0999 V2000
   24.2178  -38.2252   -7.8380 C   0  0  0  0  0  0  0  0  0  0  0  0
   24.8595  -38.0338   -9.1679 C   0  0  1  0  0  0  0  0  0  0  0  0
   24.2507  -38.9129  -10.1997 C   0  0  0  0  0  0  0  0  0  0  0  0
   24.9657  -36.6070   -9.6182 C   0  0  2  0  0  0  0  0  0  0  0  0
   25.7104  -36.5780  -10.8958 N   0  0  0  0  0  0  0  0  0  0  0  0
   25.7048  -35.7197   -8.6931 C   0  0  0  0  0  0  0  0  0  0  0  0
   26.9691  -35.8214   -8.6014 O   0  0  0  0  0  0  0  0  0  0  0  0
   26.0209  -32.0326   -8.6967 C   0  0  0  0  0  0  0  0  0  0  0  0
   25.5506  -32.3926   -7.2893 C   0  0  1  0  0  0  0  0  0  0  0  0
   24.0989  -32.0597   -7.1894 C   0  0  0  0  0  0  0  0  0  0  0  0
   25.8459  -33.8554   -6.9962 C   0  0  2  0  0  0  0  0  0  0  0  0
   25.1178  -34.7320   -7.8712 N   0  0  0  0  0  0  0  0  0  0  0  0
   25.4911  -34.0850   -5.5625 C   0  0  0  0  0  0  0  0  0  0  0  0
   24.2951  -34.1442   -5.1755 O   0  0  0  0  0  0  0  0  0  0  0  0
   26.5187  -34.2435   -4.5932 N   0  0  0  0  0  0  0  0  0  0  0  0
   26.2906  -34.2725   -3.1847 C   0  0  0  0  0  0  0  0  0  0  0  0
   27.5720  -34.3323   -2.4462 C   0  0  0  0  0  0  0  0  0  0  0  0
   28.6348  -34.4487   -3.1009 O   0  0  0  0  0  0  0  0  0  0  0  0
   27.6641  -34.2668   -1.0659 O   0  0  0  0  0  0  0  0  0  0  0  0
  2  1  1  1
  3  2  1  0
  4  2  1  0
  4  5  1  6
  6  4  1  0
  7  6  2  0
  9  8  1  6
  9 11  1  0
 10  9  1  0
 11 13  1  0
 11 12  1  6
 12  6  1  0
 13 15  1  0
 14 13  2  0
 15 16  1  0
 17 16  1  0
 18 17  2  0
 19 17  1  0
M  END
$$$$
