VVG.pdb
     RDKit          3D

 19 18  0  0  1  0  0  0  0  0999 V2000
   18.9721  -14.3364  -17.7442 C   0  0  0  0  0  0  0  0  0  0  0  0
   19.2724  -15.5914  -17.0011 C   0  0  1  0  0  0  0  0  0  0  0  0
   18.8382  -16.7927  -17.7603 C   0  0  0  0  0  0  0  0  0  0  0  0
   20.6812  -15.7064  -16.4994 C   0  0  2  0  0  0  0  0  0  0  0  0
   20.7780  -16.9225  -15.6631 N   0  0  0  0  0  0  0  0  0  0  0  0
   21.1267  -14.5844  -15.6438 C   0  0  0  0  0  0  0  0  0  0  0  0
   20.5779  -14.4020  -14.5113 O   0  0  0  0  0  0  0  0  0  0  0  0
   24.7670  -12.5742  -16.2576 C   0  0  0  0  0  0  0  0  0  0  0  0
   24.0138  -12.4746  -14.9331 C   0  0  1  0  0  0  0  0  0  0  0  0
   24.4494  -11.2217  -14.2484 C   0  0  0  0  0  0  0  0  0  0  0  0
   22.5138  -12.5266  -15.1780 C   0  0  2  0  0  0  0  0  0  0  0  0
   22.1430  -13.6616  -15.9772 N   0  0  0  0  0  0  0  0  0  0  0  0
   22.1430  -11.2390  -15.8402 C   0  0  0  0  0  0  0  0  0  0  0  0
   22.4514  -10.9937  -17.0353 O   0  0  0  0  0  0  0  0  0  0  0  0
   21.4216  -10.2505  -15.1169 N   0  0  0  0  0  0  0  0  0  0  0  0
   21.0031   -9.0028  -15.6694 C   0  0  0  0  0  0  0  0  0  0  0  0
   21.2499   -7.8972  -14.7168 C   0  0  0  0  0  0  0  0  0  0  0  0
   21.6725   -8.1785  -13.5704 O   0  0  0  0  0  0  0  0  0  0  0  0
   21.0394   -6.5627  -15.0213 O   0  0  0  0  0  0  0  0  0  0  0  0
  2  1  1  6
  3  2  1  0
  4  2  1  0
  4  5  1  1
  6  4  1  0
  7  6  2  0
  9  8  1  6
  9 11  1  0
 10  9  1  0
 11 13  1  0
 11 12  1  6
 12  6  1  0
 13 15  1  0
 14 13  2  0
 15 16  1  0
 17 16  1  0
 18 17  2  0
 19 17  1  0
M  END
$$$$
