VVG.pdb
     RDKit          3D

 19 18  0  0  1  0  0  0  0  0999 V2000
   24.2233  -17.3930  -16.5968 C   0  0  0  0  0  0  0  0  0  0  0  0
   25.0125  -18.1724  -17.5902 C   0  0  1  0  0  0  0  0  0  0  0  0
   25.5079  -17.3085  -18.6931 C   0  0  0  0  0  0  0  0  0  0  0  0
   26.0926  -19.0323  -17.0039 C   0  0  2  0  0  0  0  0  0  0  0  0
   26.6724  -19.8531  -18.0892 N   0  0  0  0  0  0  0  0  0  0  0  0
   25.6317  -19.9859  -15.9707 C   0  0  0  0  0  0  0  0  0  0  0  0
   24.8046  -20.8997  -16.2839 O   0  0  0  0  0  0  0  0  0  0  0  0
   26.8445  -19.6470  -11.8580 C   0  0  0  0  0  0  0  0  0  0  0  0
   26.4988  -21.0130  -12.4462 C   0  0  1  0  0  0  0  0  0  0  0  0
   25.9633  -21.8668  -11.3450 C   0  0  0  0  0  0  0  0  0  0  0  0
   25.5236  -20.8543  -13.6023 C   0  0  2  0  0  0  0  0  0  0  0  0
   26.0389  -19.9784  -14.6180 N   0  0  0  0  0  0  0  0  0  0  0  0
   24.2488  -20.3357  -13.0192 C   0  0  0  0  0  0  0  0  0  0  0  0
   24.0466  -19.1048  -12.8535 O   0  0  0  0  0  0  0  0  0  0  0  0
   23.2235  -21.2420  -12.6345 N   0  0  0  0  0  0  0  0  0  0  0  0
   21.9968  -20.8469  -12.0215 C   0  0  0  0  0  0  0  0  0  0  0  0
   20.9190  -20.7318  -13.0294 C   0  0  0  0  0  0  0  0  0  0  0  0
   21.1380  -20.0605  -14.0653 O   0  0  0  0  0  0  0  0  0  0  0  0
   19.6759  -21.3267  -12.8925 O   0  0  0  0  0  0  0  0  0  0  0  0
  2  1  1  1
  3  2  1  0
  4  2  1  0
  4  5  1  6
  6  4  1  0
  7  6  2  0
  9  8  1  1
  9 11  1  0
 10  9  1  0
 11 13  1  0
 11 12  1  6
 12  6  1  0
 13 15  1  0
 14 13  2  0
 15 16  1  0
 17 16  1  0
 18 17  2  0
 19 17  1  0
M  END
$$$$
