VVG.pdb
     RDKit          3D

 19 18  0  0  1  0  0  0  0  0999 V2000
   27.6755  -12.1111  -15.6147 C   0  0  0  0  0  0  0  0  0  0  0  0
   26.6509  -11.0544  -15.8402 C   0  0  1  0  0  0  0  0  0  0  0  0
   27.1524   -9.9930  -16.7512 C   0  0  0  0  0  0  0  0  0  0  0  0
   25.2972  -11.5625  -16.2394 C   0  0  2  0  0  0  0  0  0  0  0  0
   25.4385  -12.3130  -17.5061 N   0  0  0  0  0  0  0  0  0  0  0  0
   24.2922  -10.5077  -16.4982 C   0  0  0  0  0  0  0  0  0  0  0  0
   24.2236   -9.9750  -17.6508 O   0  0  0  0  0  0  0  0  0  0  0  0
   19.9310   -8.4832  -15.9528 C   0  0  0  0  0  0  0  0  0  0  0  0
   20.9613   -9.5534  -15.5999 C   0  0  1  0  0  0  0  0  0  0  0  0
   20.6633  -10.7670  -16.4165 C   0  0  0  0  0  0  0  0  0  0  0  0
   22.3681   -9.0197  -15.8210 C   0  0  2  0  0  0  0  0  0  0  0  0
   23.3656  -10.0179  -15.5511 N   0  0  0  0  0  0  0  0  0  0  0  0
   22.5201   -7.8303  -14.9286 C   0  0  0  0  0  0  0  0  0  0  0  0
   22.5172   -7.9359  -13.6747 O   0  0  0  0  0  0  0  0  0  0  0  0
   22.6736   -6.5345  -15.4925 N   0  0  0  0  0  0  0  0  0  0  0  0
   22.9021   -5.3520  -14.7268 C   0  0  0  0  0  0  0  0  0  0  0  0
   21.6321   -4.8309  -14.1733 C   0  0  0  0  0  0  0  0  0  0  0  0
   20.5594   -5.3812  -14.5172 O   0  0  0  0  0  0  0  0  0  0  0  0
   21.5611   -3.7646  -13.2925 O   0  0  0  0  0  0  0  0  0  0  0  0
  2  1  1  6
  3  2  1  0
  4  2  1  0
  4  5  1  6
  6  4  1  0
  7  6  2  0
  9  8  1  6
  9 11  1  0
 10  9  1  0
 11 13  1  0
 11 12  1  1
 12  6  1  0
 13 15  1  0
 14 13  2  0
 15 16  1  0
 17 16  1  0
 18 17  2  0
 19 17  1  0
M  END
$$$$
