VVG.pdb
     RDKit          3D

 19 18  0  0  1  0  0  0  0  0999 V2000
   16.2340   -8.1973  -16.1939 C   0  0  0  0  0  0  0  0  0  0  0  0
   16.0928   -9.6795  -16.1734 C   0  0  1  0  0  0  0  0  0  0  0  0
   15.0320  -10.1400  -17.1064 C   0  0  0  0  0  0  0  0  0  0  0  0
   17.3757  -10.4383  -16.3418 C   0  0  2  0  0  0  0  0  0  0  0  0
   17.1073  -11.8682  -16.0753 N   0  0  0  0  0  0  0  0  0  0  0  0
   18.4550  -10.0434  -15.4097 C   0  0  0  0  0  0  0  0  0  0  0  0
   18.3940  -10.4010  -14.1909 O   0  0  0  0  0  0  0  0  0  0  0  0
   22.0985  -10.8279  -14.9955 C   0  0  0  0  0  0  0  0  0  0  0  0
   21.9816   -9.3235  -15.2296 C   0  0  1  0  0  0  0  0  0  0  0  0
   22.3054   -9.0536  -16.6616 C   0  0  0  0  0  0  0  0  0  0  0  0
   20.5966   -8.8372  -14.8321 C   0  0  2  0  0  0  0  0  0  0  0  0
   19.5904   -9.2787  -15.7580 N   0  0  0  0  0  0  0  0  0  0  0  0
   20.6695   -7.3459  -14.7639 C   0  0  0  0  0  0  0  0  0  0  0  0
   20.4356   -6.6228  -15.7669 O   0  0  0  0  0  0  0  0  0  0  0  0
   21.0110   -6.7069  -13.5409 N   0  0  0  0  0  0  0  0  0  0  0  0
   21.0139   -5.2922  -13.3524 C   0  0  0  0  0  0  0  0  0  0  0  0
   22.1697   -4.6731  -14.0393 C   0  0  0  0  0  0  0  0  0  0  0  0
   23.0175   -5.4233  -14.5780 O   0  0  0  0  0  0  0  0  0  0  0  0
   22.3689   -3.3050  -14.1212 O   0  0  0  0  0  0  0  0  0  0  0  0
  2  1  1  6
  3  2  1  0
  4  2  1  0
  4  5  1  1
  6  4  1  0
  7  6  2  0
  9  8  1  6
  9 11  1  0
 10  9  1  0
 11 13  1  0
 11 12  1  6
 12  6  1  0
 13 15  1  0
 14 13  2  0
 15 16  1  0
 17 16  1  0
 18 17  2  0
 19 17  1  0
M  END
$$$$
