VVG.pdb
     RDKit          3D

 19 18  0  0  1  0  0  0  0  0999 V2000
   16.9583   -9.3217  -17.7031 C   0  0  0  0  0  0  0  0  0  0  0  0
   16.7901  -10.6408  -17.0330 C   0  0  1  0  0  0  0  0  0  0  0  0
   16.1704  -11.6399  -17.9416 C   0  0  0  0  0  0  0  0  0  0  0  0
   18.0206  -11.1658  -16.3546 C   0  0  2  0  0  0  0  0  0  0  0  0
   17.6515  -12.3851  -15.6032 N   0  0  0  0  0  0  0  0  0  0  0  0
   18.6241  -10.2433  -15.3676 C   0  0  0  0  0  0  0  0  0  0  0  0
   17.9933   -9.9673  -14.2985 O   0  0  0  0  0  0  0  0  0  0  0  0
   22.2001  -10.5950  -14.8322 C   0  0  0  0  0  0  0  0  0  0  0  0
   21.9348   -9.2181  -14.2279 C   0  0  1  0  0  0  0  0  0  0  0  0
   22.9420   -8.2682  -14.7862 C   0  0  0  0  0  0  0  0  0  0  0  0
   20.5009   -8.7925  -14.5028 C   0  0  2  0  0  0  0  0  0  0  0  0
   19.8827   -9.6166  -15.5043 N   0  0  0  0  0  0  0  0  0  0  0  0
   20.5525   -7.3584  -14.9211 C   0  0  0  0  0  0  0  0  0  0  0  0
   20.8072   -7.0209  -16.1063 O   0  0  0  0  0  0  0  0  0  0  0  0
   20.3100   -6.3317  -13.9684 N   0  0  0  0  0  0  0  0  0  0  0  0
   20.2002   -4.9471  -14.2966 C   0  0  0  0  0  0  0  0  0  0  0  0
   21.5344   -4.3069  -14.3268 C   0  0  0  0  0  0  0  0  0  0  0  0
   22.5332   -4.9901  -13.9991 O   0  0  0  0  0  0  0  0  0  0  0  0
   21.7432   -2.9892  -14.6984 O   0  0  0  0  0  0  0  0  0  0  0  0
  2  1  1  6
  3  2  1  0
  4  2  1  0
  4  5  1  1
  6  4  1  0
  7  6  2  0
  9  8  1  6
  9 11  1  0
 10  9  1  0
 11 13  1  0
 11 12  1  6
 12  6  1  0
 13 15  1  0
 14 13  2  0
 15 16  1  0
 17 16  1  0
 18 17  2  0
 19 17  1  0
M  END
$$$$
