VVG.pdb
     RDKit          3D

 19 18  0  0  1  0  0  0  0  0999 V2000
   15.3925   -9.3727  -18.2320 C   0  0  0  0  0  0  0  0  0  0  0  0
   16.4395   -9.0335  -17.2290 C   0  0  1  0  0  0  0  0  0  0  0  0
   15.8987   -8.1740  -16.1442 C   0  0  0  0  0  0  0  0  0  0  0  0
   17.2127  -10.2059  -16.7021 C   0  0  2  0  0  0  0  0  0  0  0  0
   16.2751  -11.0932  -15.9801 N   0  0  0  0  0  0  0  0  0  0  0  0
   18.2773   -9.8605  -15.7342 C   0  0  0  0  0  0  0  0  0  0  0  0
   18.0345   -9.9168  -14.4873 O   0  0  0  0  0  0  0  0  0  0  0  0
   23.0231   -9.4659  -14.4900 C   0  0  0  0  0  0  0  0  0  0  0  0
   21.9463   -9.8104  -15.5163 C   0  0  1  0  0  0  0  0  0  0  0  0
   21.8585  -11.2976  -15.6106 C   0  0  0  0  0  0  0  0  0  0  0  0
   20.6267   -9.1609  -15.1296 C   0  0  2  0  0  0  0  0  0  0  0  0
   19.5879   -9.4596  -16.0762 N   0  0  0  0  0  0  0  0  0  0  0  0
   20.8838   -7.6915  -15.0357 C   0  0  0  0  0  0  0  0  0  0  0  0
   20.9486   -6.9617  -16.0588 O   0  0  0  0  0  0  0  0  0  0  0  0
   21.0630   -7.0818  -13.7642 N   0  0  0  0  0  0  0  0  0  0  0  0
   21.1758   -5.6734  -13.5623 C   0  0  0  0  0  0  0  0  0  0  0  0
   22.3837   -5.1417  -14.2325 C   0  0  0  0  0  0  0  0  0  0  0  0
   23.2915   -5.9444  -14.5542 O   0  0  0  0  0  0  0  0  0  0  0  0
   22.5691   -3.8010  -14.5259 O   0  0  0  0  0  0  0  0  0  0  0  0
  2  1  1  1
  3  2  1  0
  4  2  1  0
  4  5  1  1
  6  4  1  0
  7  6  2  0
  9  8  1  1
  9 11  1  0
 10  9  1  0
 11 13  1  0
 11 12  1  6
 12  6  1  0
 13 15  1  0
 14 13  2  0
 15 16  1  0
 17 16  1  0
 18 17  2  0
 19 17  1  0
M  END
$$$$
