VVG.pdb
     RDKit          3D

 19 18  0  0  1  0  0  0  0  0999 V2000
   21.3519  -10.5187  -19.5934 C   0  0  0  0  0  0  0  0  0  0  0  0
   20.1683  -11.4110  -19.4519 C   0  0  1  0  0  0  0  0  0  0  0  0
   20.3871  -12.7190  -20.1222 C   0  0  0  0  0  0  0  0  0  0  0  0
   19.6552  -11.5618  -18.0505 C   0  0  2  0  0  0  0  0  0  0  0  0
   18.4093  -12.3577  -18.0959 N   0  0  0  0  0  0  0  0  0  0  0  0
   19.3047  -10.2902  -17.3799 C   0  0  0  0  0  0  0  0  0  0  0  0
   18.4099   -9.5403  -17.8839 O   0  0  0  0  0  0  0  0  0  0  0  0
   17.6304   -9.8960  -14.5080 C   0  0  0  0  0  0  0  0  0  0  0  0
   18.7361   -8.8777  -14.2398 C   0  0  1  0  0  0  0  0  0  0  0  0
   19.5947   -9.4088  -13.1401 C   0  0  0  0  0  0  0  0  0  0  0  0
   19.5126   -8.5985  -15.5172 C   0  0  2  0  0  0  0  0  0  0  0  0
   19.8911   -9.8118  -16.1871 N   0  0  0  0  0  0  0  0  0  0  0  0
   20.7056   -7.7879  -15.1248 C   0  0  0  0  0  0  0  0  0  0  0  0
   21.7947   -8.3254  -14.7954 O   0  0  0  0  0  0  0  0  0  0  0  0
   20.6283   -6.3686  -15.1169 N   0  0  0  0  0  0  0  0  0  0  0  0
   21.7123   -5.5115  -14.7601 C   0  0  0  0  0  0  0  0  0  0  0  0
   21.7901   -5.3464  -13.2913 C   0  0  0  0  0  0  0  0  0  0  0  0
   20.9578   -5.9530  -12.5763 O   0  0  0  0  0  0  0  0  0  0  0  0
   22.7349   -4.5559  -12.6585 O   0  0  0  0  0  0  0  0  0  0  0  0
  2  1  1  1
  3  2  1  0
  4  2  1  0
  4  5  1  6
  6  4  1  0
  7  6  2  0
  9  8  1  6
  9 11  1  0
 10  9  1  0
 11 13  1  0
 11 12  1  1
 12  6  1  0
 13 15  1  0
 14 13  2  0
 15 16  1  0
 17 16  1  0
 18 17  2  0
 19 17  1  0
M  END
$$$$
