QFK.pdb
     RDKit          3D

 30 30  0  0  1  0  0  0  0  0999 V2000
    7.9983  -12.9437   16.9912 N   0  0  0  0  0  0  0  0  0  0  0  0
    7.8741  -14.3425   16.7219 C   0  0  0  0  0  0  0  0  0  0  0  0
    7.3577  -14.6822   15.6325 O   0  0  0  0  0  0  0  0  0  0  0  0
    8.3304  -15.3705   17.6745 C   0  0  0  0  0  0  0  0  0  0  0  0
    8.9744  -14.8149   18.9114 C   0  0  0  0  0  0  0  0  0  0  0  0
    9.3692  -15.8572   19.9256 C   0  0  2  0  0  0  0  0  0  0  0  0
    8.3509  -16.8938   19.8764 N   0  0  0  0  0  0  0  0  0  0  0  0
    9.3400  -15.1624   21.2566 C   0  0  0  0  0  0  0  0  0  0  0  0
   10.3205  -14.4311   21.5472 O   0  0  0  0  0  0  0  0  0  0  0  0
    8.2298  -15.3309   22.1607 N   0  0  0  0  0  0  0  0  0  0  0  0
    8.3277  -14.7075   23.4390 C   0  0  1  0  0  0  0  0  0  0  0  0
    7.0870  -13.9934   23.8713 C   0  0  0  0  0  0  0  0  0  0  0  0
    7.1329  -13.3990   25.1955 C   0  0  0  0  0  0  0  0  0  0  0  0
    7.9434  -12.3501   25.5557 C   0  0  0  0  0  0  0  0  0  0  0  0
    7.9142  -11.8608   26.8278 C   0  0  0  0  0  0  0  0  0  0  0  0
    7.0888  -12.3745   27.8122 C   0  0  0  0  0  0  0  0  0  0  0  0
    6.2686  -13.4292   27.4637 C   0  0  0  0  0  0  0  0  0  0  0  0
    6.2898  -13.9355   26.1722 C   0  0  0  0  0  0  0  0  0  0  0  0
    8.5433  -15.8155   24.4422 C   0  0  0  0  0  0  0  0  0  0  0  0
    7.7151  -16.7622   24.5362 O   0  0  0  0  0  0  0  0  0  0  0  0
    9.6643  -15.8368   25.3035 N   0  0  0  0  0  0  0  0  0  0  0  0
    9.9449  -16.9542   26.2013 C   0  0  1  0  0  0  0  0  0  0  0  0
   10.9858  -17.8561   25.6290 C   0  0  0  0  0  0  0  0  0  0  0  0
   10.4370  -19.2379   25.4422 C   0  0  0  0  0  0  0  0  0  0  0  0
   11.4506  -20.2172   24.8780 C   0  0  0  0  0  0  0  0  0  0  0  0
   10.7848  -21.5406   24.6037 C   0  0  0  0  0  0  0  0  0  0  0  0
   11.8588  -22.4113   24.0827 N   0  0  0  0  0  0  0  0  0  0  0  0
   10.2717  -16.3778   27.5188 C   0  0  0  0  0  0  0  0  0  0  0  0
   10.4154  -15.1040   27.6272 O   0  0  0  0  0  0  0  0  0  0  0  0
   10.4451  -17.0806   28.6978 O   0  0  0  0  0  0  0  0  0  0  0  0
  1  2  1  0
  2  4  1  0
  3  2  2  0
  4  5  1  0
  6  5  1  0
  6  7  1  1
  8  6  1  0
  8  9  2  0
 10  8  1  0
 11 10  1  0
 11 12  1  1
 13 12  1  0
 13 18  2  0
 14 13  1  0
 15 14  2  0
 15 16  1  0
 16 17  2  0
 17 18  1  0
 19 11  1  0
 20 19  2  0
 21 19  1  0
 22 28  1  0
 22 21  1  0
 22 23  1  6
 24 25  1  0
 24 23  1  0
 26 25  1  0
 26 27  1  0
 28 30  1  0
 29 28  2  0
M  END
$$$$
