QFK.pdb
     RDKit          3D

 30 30  0  0  1  0  0  0  0  0999 V2000
    8.5430  -12.8168   16.4970 N   0  0  0  0  0  0  0  0  0  0  0  0
    7.6922  -13.9615   16.3955 C   0  0  0  0  0  0  0  0  0  0  0  0
    7.2205  -14.2384   15.2687 O   0  0  0  0  0  0  0  0  0  0  0  0
    7.3660  -14.8047   17.5595 C   0  0  0  0  0  0  0  0  0  0  0  0
    8.0587  -14.3928   18.8260 C   0  0  0  0  0  0  0  0  0  0  0  0
    8.7389  -15.5225   19.5554 C   0  0  2  0  0  0  0  0  0  0  0  0
    7.8248  -16.6526   19.5193 N   0  0  0  0  0  0  0  0  0  0  0  0
    8.9201  -15.0452   20.9677 C   0  0  0  0  0  0  0  0  0  0  0  0
   10.0530  -14.6025   21.2860 O   0  0  0  0  0  0  0  0  0  0  0  0
    7.8354  -15.0949   21.9158 N   0  0  0  0  0  0  0  0  0  0  0  0
    8.0844  -14.5791   23.2213 C   0  0  1  0  0  0  0  0  0  0  0  0
    6.9429  -13.8109   23.8068 C   0  0  0  0  0  0  0  0  0  0  0  0
    7.1534  -13.2972   25.1488 C   0  0  0  0  0  0  0  0  0  0  0  0
    7.9951  -12.2594   25.4672 C   0  0  0  0  0  0  0  0  0  0  0  0
    8.1252  -11.8487   26.7606 C   0  0  0  0  0  0  0  0  0  0  0  0
    7.4370  -12.4341   27.8083 C   0  0  0  0  0  0  0  0  0  0  0  0
    6.5874  -13.4787   27.5023 C   0  0  0  0  0  0  0  0  0  0  0  0
    6.4468  -13.9053   26.1897 C   0  0  0  0  0  0  0  0  0  0  0  0
    8.2910  -15.7729   24.1230 C   0  0  0  0  0  0  0  0  0  0  0  0
    7.5199  -16.7685   24.0515 O   0  0  0  0  0  0  0  0  0  0  0  0
    9.3405  -15.8227   25.0691 N   0  0  0  0  0  0  0  0  0  0  0  0
    9.7121  -17.0507   25.7671 C   0  0  1  0  0  0  0  0  0  0  0  0
   10.7281  -17.8223   24.9947 C   0  0  0  0  0  0  0  0  0  0  0  0
   11.0621  -19.1016   25.6999 C   0  0  0  0  0  0  0  0  0  0  0  0
   12.0699  -19.9561   24.9522 C   0  0  0  0  0  0  0  0  0  0  0  0
   12.3482  -21.2162   25.7296 C   0  0  0  0  0  0  0  0  0  0  0  0
   13.3392  -21.9563   24.9214 N   0  0  0  0  0  0  0  0  0  0  0  0
   10.1222  -16.6651   27.1302 C   0  0  0  0  0  0  0  0  0  0  0  0
   10.6571  -15.5107   27.3206 O   0  0  0  0  0  0  0  0  0  0  0  0
    9.9885  -17.4347   28.2721 O   0  0  0  0  0  0  0  0  0  0  0  0
  1  2  1  0
  2  4  1  0
  3  2  2  0
  4  5  1  0
  6  5  1  0
  6  7  1  1
  8  6  1  0
  8  9  2  0
 10  8  1  0
 11 10  1  0
 11 12  1  1
 13 12  1  0
 13 18  2  0
 14 13  1  0
 15 14  2  0
 15 16  1  0
 16 17  2  0
 17 18  1  0
 19 11  1  0
 20 19  2  0
 21 19  1  0
 22 28  1  0
 22 21  1  0
 22 23  1  6
 24 25  1  0
 24 23  1  0
 26 25  1  0
 26 27  1  0
 28 30  1  0
 29 28  2  0
M  END
$$$$
