QFK.pdb
     RDKit          3D

 30 30  0  0  1  0  0  0  0  0999 V2000
    8.5770  -12.8723   16.9115 N   0  0  0  0  0  0  0  0  0  0  0  0
    8.6679  -14.2154   16.4293 C   0  0  0  0  0  0  0  0  0  0  0  0
    8.3259  -14.4330   15.2441 O   0  0  0  0  0  0  0  0  0  0  0  0
    9.1451  -15.3241   17.2751 C   0  0  0  0  0  0  0  0  0  0  0  0
    9.4122  -14.9348   18.7000 C   0  0  0  0  0  0  0  0  0  0  0  0
    9.1873  -16.0422   19.6971 C   0  0  2  0  0  0  0  0  0  0  0  0
    7.8432  -16.5458   19.4649 N   0  0  0  0  0  0  0  0  0  0  0  0
    9.2740  -15.3962   21.0500 C   0  0  0  0  0  0  0  0  0  0  0  0
   10.3942  -14.9495   21.4051 O   0  0  0  0  0  0  0  0  0  0  0  0
    8.1162  -15.2953   21.9029 N   0  0  0  0  0  0  0  0  0  0  0  0
    8.2984  -14.6967   23.1838 C   0  0  1  0  0  0  0  0  0  0  0  0
    7.2010  -13.7650   23.5887 C   0  0  0  0  0  0  0  0  0  0  0  0
    7.3335  -13.1734   24.9083 C   0  0  0  0  0  0  0  0  0  0  0  0
    6.5456  -13.4854   25.9894 C   0  0  0  0  0  0  0  0  0  0  0  0
    6.7485  -12.8735   27.1905 C   0  0  0  0  0  0  0  0  0  0  0  0
    7.7342  -11.9242   27.3937 C   0  0  0  0  0  0  0  0  0  0  0  0
    8.5336  -11.6010   26.3152 C   0  0  0  0  0  0  0  0  0  0  0  0
    8.3364  -12.2172   25.0881 C   0  0  0  0  0  0  0  0  0  0  0  0
    8.2836  -15.8223   24.1905 C   0  0  0  0  0  0  0  0  0  0  0  0
    7.3698  -16.6913   24.1637 O   0  0  0  0  0  0  0  0  0  0  0  0
    9.2775  -15.9463   25.1883 N   0  0  0  0  0  0  0  0  0  0  0  0
    9.5581  -17.2095   25.8657 C   0  0  1  0  0  0  0  0  0  0  0  0
   10.4943  -18.0522   25.0671 C   0  0  0  0  0  0  0  0  0  0  0  0
   10.8203  -19.3158   25.8035 C   0  0  0  0  0  0  0  0  0  0  0  0
   11.8756  -20.1605   25.1123 C   0  0  0  0  0  0  0  0  0  0  0  0
   12.1586  -21.3942   25.9294 C   0  0  0  0  0  0  0  0  0  0  0  0
   13.0701  -22.2065   25.0974 N   0  0  0  0  0  0  0  0  0  0  0  0
   10.0211  -16.8763   27.2258 C   0  0  0  0  0  0  0  0  0  0  0  0
   10.7151  -15.8085   27.4074 O   0  0  0  0  0  0  0  0  0  0  0  0
    9.7808  -17.6107   28.3734 O   0  0  0  0  0  0  0  0  0  0  0  0
  1  2  1  0
  2  4  1  0
  3  2  2  0
  4  5  1  0
  6  5  1  0
  6  7  1  6
  8  6  1  0
  8  9  2  0
 10  8  1  0
 11 10  1  0
 11 12  1  1
 13 12  1  0
 13 18  2  0
 14 13  1  0
 15 14  2  0
 15 16  1  0
 16 17  2  0
 17 18  1  0
 19 11  1  0
 20 19  2  0
 21 19  1  0
 22 28  1  0
 22 21  1  0
 22 23  1  6
 24 25  1  0
 24 23  1  0
 26 25  1  0
 26 27  1  0
 28 30  1  0
 29 28  2  0
M  END
$$$$
