QFK.pdb
     RDKit          3D

 30 30  0  0  1  0  0  0  0  0999 V2000
    8.6066  -12.8441   16.1676 N   0  0  0  0  0  0  0  0  0  0  0  0
    8.1045  -14.1260   16.5537 C   0  0  0  0  0  0  0  0  0  0  0  0
    7.8738  -14.9584   15.6466 O   0  0  0  0  0  0  0  0  0  0  0  0
    7.8588  -14.4828   17.9625 C   0  0  0  0  0  0  0  0  0  0  0  0
    9.0917  -14.4758   18.8188 C   0  0  0  0  0  0  0  0  0  0  0  0
    9.2340  -15.6832   19.7093 C   0  0  2  0  0  0  0  0  0  0  0  0
    8.0300  -16.4782   19.5298 N   0  0  0  0  0  0  0  0  0  0  0  0
    9.3007  -15.1498   21.1116 C   0  0  0  0  0  0  0  0  0  0  0  0
   10.3721  -14.5969   21.4680 O   0  0  0  0  0  0  0  0  0  0  0  0
    8.1784  -15.2698   22.0083 N   0  0  0  0  0  0  0  0  0  0  0  0
    8.3266  -14.7246   23.3172 C   0  0  1  0  0  0  0  0  0  0  0  0
    7.1155  -14.0105   23.8264 C   0  0  0  0  0  0  0  0  0  0  0  0
    7.2598  -13.3748   25.1242 C   0  0  0  0  0  0  0  0  0  0  0  0
    8.0843  -12.3080   25.3866 C   0  0  0  0  0  0  0  0  0  0  0  0
    8.1507  -11.7797   26.6416 C   0  0  0  0  0  0  0  0  0  0  0  0
    7.4124  -12.2701   27.7039 C   0  0  0  0  0  0  0  0  0  0  0  0
    6.5793  -13.3426   27.4540 C   0  0  0  0  0  0  0  0  0  0  0  0
    6.5034  -13.8885   26.1809 C   0  0  0  0  0  0  0  0  0  0  0  0
    8.5444  -15.8939   24.2478 C   0  0  0  0  0  0  0  0  0  0  0  0
    7.7245  -16.8520   24.2725 O   0  0  0  0  0  0  0  0  0  0  0  0
    9.6585  -15.9615   25.1157 N   0  0  0  0  0  0  0  0  0  0  0  0
    9.9422  -17.1326   25.9410 C   0  0  1  0  0  0  0  0  0  0  0  0
   11.0327  -17.9585   25.3466 C   0  0  0  0  0  0  0  0  0  0  0  0
   10.5334  -18.6983   24.1430 C   0  0  0  0  0  0  0  0  0  0  0  0
   11.5798  -19.6001   23.5134 C   0  0  0  0  0  0  0  0  0  0  0  0
   10.9951  -20.3032   22.3161 C   0  0  0  0  0  0  0  0  0  0  0  0
   12.1176  -21.0649   21.7306 N   0  0  0  0  0  0  0  0  0  0  0  0
   10.2010  -16.6446   27.3084 C   0  0  0  0  0  0  0  0  0  0  0  0
   10.4706  -15.3998   27.4889 O   0  0  0  0  0  0  0  0  0  0  0  0
   10.1828  -17.4047   28.4643 O   0  0  0  0  0  0  0  0  0  0  0  0
  1  2  1  0
  2  4  1  0
  3  2  2  0
  4  5  1  0
  6  5  1  0
  6  7  1  1
  8  6  1  0
  8  9  2  0
 10  8  1  0
 11 10  1  0
 11 12  1  1
 13 12  1  0
 13 18  2  0
 14 13  1  0
 15 14  2  0
 15 16  1  0
 16 17  2  0
 17 18  1  0
 19 11  1  0
 20 19  2  0
 21 19  1  0
 22 28  1  0
 22 21  1  0
 22 23  1  6
 24 25  1  0
 24 23  1  0
 26 25  1  0
 26 27  1  0
 28 30  1  0
 29 28  2  0
M  END
$$$$
