QFK.pdb
     RDKit          3D

 30 30  0  0  1  0  0  0  0  0999 V2000
    8.9419  -12.6311   16.7629 N   0  0  0  0  0  0  0  0  0  0  0  0
    8.4729  -13.9318   16.3985 C   0  0  0  0  0  0  0  0  0  0  0  0
    8.0139  -14.0827   15.2428 O   0  0  0  0  0  0  0  0  0  0  0  0
    8.5171  -15.0733   17.3298 C   0  0  0  0  0  0  0  0  0  0  0  0
    9.0793  -14.7387   18.6807 C   0  0  0  0  0  0  0  0  0  0  0  0
    9.1202  -15.9005   19.6397 C   0  0  2  0  0  0  0  0  0  0  0  0
    7.9020  -16.6638   19.4222 N   0  0  0  0  0  0  0  0  0  0  0  0
    9.1162  -15.2951   21.0139 C   0  0  0  0  0  0  0  0  0  0  0  0
   10.0983  -14.5770   21.3307 O   0  0  0  0  0  0  0  0  0  0  0  0
    8.0274  -15.5312   21.9288 N   0  0  0  0  0  0  0  0  0  0  0  0
    8.1027  -14.9081   23.2088 C   0  0  1  0  0  0  0  0  0  0  0  0
    6.8069  -14.3402   23.6932 C   0  0  0  0  0  0  0  0  0  0  0  0
    6.8630  -13.6417   24.9652 C   0  0  0  0  0  0  0  0  0  0  0  0
    7.6635  -12.5570   25.2286 C   0  0  0  0  0  0  0  0  0  0  0  0
    7.6453  -11.9685   26.4582 C   0  0  0  0  0  0  0  0  0  0  0  0
    6.8414  -12.4130   27.4927 C   0  0  0  0  0  0  0  0  0  0  0  0
    6.0314  -13.5028   27.2415 C   0  0  0  0  0  0  0  0  0  0  0  0
    6.0415  -14.1098   25.9941 C   0  0  0  0  0  0  0  0  0  0  0  0
    8.4783  -15.9906   24.1925 C   0  0  0  0  0  0  0  0  0  0  0  0
    7.6945  -16.9541   24.4122 O   0  0  0  0  0  0  0  0  0  0  0  0
    9.7043  -15.9689   24.8963 N   0  0  0  0  0  0  0  0  0  0  0  0
   10.0955  -17.0246   25.8267 C   0  0  1  0  0  0  0  0  0  0  0  0
   11.4597  -17.5398   25.5134 C   0  0  0  0  0  0  0  0  0  0  0  0
   11.5110  -18.0697   24.1127 C   0  0  0  0  0  0  0  0  0  0  0  0
   12.8542  -18.6752   23.7467 C   0  0  0  0  0  0  0  0  0  0  0  0
   12.8634  -19.0555   22.2890 C   0  0  0  0  0  0  0  0  0  0  0  0
   14.2080  -19.6177   22.0460 N   0  0  0  0  0  0  0  0  0  0  0  0
    9.9281  -16.4837   27.1884 C   0  0  0  0  0  0  0  0  0  0  0  0
    9.9837  -17.2860   28.1925 O   0  0  0  0  0  0  0  0  0  0  0  0
    9.7123  -15.1580   27.5201 O   0  0  0  0  0  0  0  0  0  0  0  0
  1  2  1  0
  2  4  1  0
  3  2  2  0
  4  5  1  0
  6  5  1  0
  6  7  1  1
  8  6  1  0
  8  9  2  0
 10  8  1  0
 11 10  1  0
 11 12  1  1
 13 12  1  0
 13 18  2  0
 14 13  1  0
 15 14  2  0
 15 16  1  0
 16 17  2  0
 17 18  1  0
 19 11  1  0
 20 19  2  0
 21 19  1  0
 22 28  1  0
 22 21  1  0
 22 23  1  6
 24 25  1  0
 24 23  1  0
 26 25  1  0
 26 27  1  0
 28 30  1  0
 29 28  2  0
M  END
$$$$
