QFK.pdb
     RDKit          3D

 30 30  0  0  1  0  0  0  0  0999 V2000
    7.7661  -13.1341   16.1930 N   0  0  0  0  0  0  0  0  0  0  0  0
    8.3440  -13.2018   17.4992 C   0  0  0  0  0  0  0  0  0  0  0  0
    9.5918  -13.1398   17.5879 O   0  0  0  0  0  0  0  0  0  0  0  0
    7.5236  -13.3386   18.7160 C   0  0  0  0  0  0  0  0  0  0  0  0
    7.1402  -14.7535   19.0389 C   0  0  0  0  0  0  0  0  0  0  0  0
    8.2400  -15.5633   19.6758 C   0  0  2  0  0  0  0  0  0  0  0  0
    7.7540  -16.9308   19.7630 N   0  0  0  0  0  0  0  0  0  0  0  0
    8.4253  -14.9886   21.0508 C   0  0  0  0  0  0  0  0  0  0  0  0
    9.3712  -14.1767   21.2139 O   0  0  0  0  0  0  0  0  0  0  0  0
    7.5508  -15.3568   22.1362 N   0  0  0  0  0  0  0  0  0  0  0  0
    7.8370  -14.8085   23.4206 C   0  0  1  0  0  0  0  0  0  0  0  0
    6.6373  -14.2962   24.1515 C   0  0  0  0  0  0  0  0  0  0  0  0
    6.9048  -13.6515   25.4250 C   0  0  0  0  0  0  0  0  0  0  0  0
    7.3614  -12.3643   25.5708 C   0  0  0  0  0  0  0  0  0  0  0  0
    7.5833  -11.8474   26.8126 C   0  0  0  0  0  0  0  0  0  0  0  0
    7.3689  -12.5658   27.9754 C   0  0  0  0  0  0  0  0  0  0  0  0
    6.9097  -13.8613   27.8433 C   0  0  0  0  0  0  0  0  0  0  0  0
    6.6804  -14.3980   26.5848 C   0  0  0  0  0  0  0  0  0  0  0  0
    8.3853  -15.9392   24.2582 C   0  0  0  0  0  0  0  0  0  0  0  0
    7.8331  -17.0731   24.2409 O   0  0  0  0  0  0  0  0  0  0  0  0
    9.5220  -15.7758   25.0830 N   0  0  0  0  0  0  0  0  0  0  0  0
   10.2912  -16.9071   25.5947 C   0  0  1  0  0  0  0  0  0  0  0  0
   11.6322  -16.9834   24.9465 C   0  0  0  0  0  0  0  0  0  0  0  0
   12.3966  -18.1652   25.4608 C   0  0  0  0  0  0  0  0  0  0  0  0
   12.1306  -19.4403   24.6808 C   0  0  0  0  0  0  0  0  0  0  0  0
   12.9831  -20.5581   25.2227 C   0  0  0  0  0  0  0  0  0  0  0  0
   12.7452  -21.6989   24.3144 N   0  0  0  0  0  0  0  0  0  0  0  0
   10.3123  -16.7852   27.0643 C   0  0  0  0  0  0  0  0  0  0  0  0
   10.5503  -15.6375   27.5945 O   0  0  0  0  0  0  0  0  0  0  0  0
   10.0935  -17.8061   27.9721 O   0  0  0  0  0  0  0  0  0  0  0  0
  1  2  1  0
  2  4  1  0
  3  2  2  0
  4  5  1  0
  6  5  1  0
  6  7  1  1
  8  6  1  0
  8  9  2  0
 10  8  1  0
 11 10  1  0
 11 12  1  1
 13 12  1  0
 13 18  2  0
 14 13  1  0
 15 14  2  0
 15 16  1  0
 16 17  2  0
 17 18  1  0
 19 11  1  0
 20 19  2  0
 21 19  1  0
 22 28  1  0
 22 21  1  0
 22 23  1  6
 24 25  1  0
 24 23  1  0
 26 25  1  0
 26 27  1  0
 28 30  1  0
 29 28  2  0
M  END
$$$$
