QFK.pdb
     RDKit          3D

 30 30  0  0  1  0  0  0  0  0999 V2000
    7.9532  -21.1561   18.2459 N   0  0  0  0  0  0  0  0  0  0  0  0
    8.5825  -20.2253   19.1303 C   0  0  0  0  0  0  0  0  0  0  0  0
    9.1501  -20.6823   20.1491 O   0  0  0  0  0  0  0  0  0  0  0  0
    8.5798  -18.7735   18.8759 C   0  0  0  0  0  0  0  0  0  0  0  0
    7.9701  -17.9604   19.9805 C   0  0  0  0  0  0  0  0  0  0  0  0
    7.8535  -16.4893   19.6750 C   0  0  2  0  0  0  0  0  0  0  0  0
    8.8184  -16.2036   18.6256 N   0  0  0  0  0  0  0  0  0  0  0  0
    8.2366  -15.7785   20.9412 C   0  0  0  0  0  0  0  0  0  0  0  0
    9.4519  -15.4986   21.1004 O   0  0  0  0  0  0  0  0  0  0  0  0
    7.2465  -15.4334   21.9305 N   0  0  0  0  0  0  0  0  0  0  0  0
    7.6877  -14.6923   23.0656 C   0  0  1  0  0  0  0  0  0  0  0  0
    6.6150  -13.8909   23.7313 C   0  0  0  0  0  0  0  0  0  0  0  0
    7.0136  -13.1856   24.9366 C   0  0  0  0  0  0  0  0  0  0  0  0
    7.9792  -12.2101   24.9904 C   0  0  0  0  0  0  0  0  0  0  0  0
    8.2833  -11.6048   26.1735 C   0  0  0  0  0  0  0  0  0  0  0  0
    7.6565  -11.9247   27.3646 C   0  0  0  0  0  0  0  0  0  0  0  0
    6.6837  -12.9038   27.3249 C   0  0  0  0  0  0  0  0  0  0  0  0
    6.3658  -13.5267   26.1268 C   0  0  0  0  0  0  0  0  0  0  0  0
    8.1481  -15.7045   24.0874 C   0  0  0  0  0  0  0  0  0  0  0  0
    7.3669  -16.6114   24.4853 O   0  0  0  0  0  0  0  0  0  0  0  0
    9.4529  -15.6777   24.6313 N   0  0  0  0  0  0  0  0  0  0  0  0
    9.9714  -16.7443   25.4839 C   0  0  1  0  0  0  0  0  0  0  0  0
   11.3763  -17.0886   25.1207 C   0  0  0  0  0  0  0  0  0  0  0  0
   11.4930  -17.3279   23.6460 C   0  0  0  0  0  0  0  0  0  0  0  0
   12.0586  -18.6937   23.3005 C   0  0  0  0  0  0  0  0  0  0  0  0
   12.0398  -18.8919   21.8071 C   0  0  0  0  0  0  0  0  0  0  0  0
   12.5462  -20.2634   21.5941 N   0  0  0  0  0  0  0  0  0  0  0  0
    9.7732  -16.3150   26.8809 C   0  0  0  0  0  0  0  0  0  0  0  0
    9.9656  -15.0813   27.1905 O   0  0  0  0  0  0  0  0  0  0  0  0
    9.3858  -17.1214   27.9362 O   0  0  0  0  0  0  0  0  0  0  0  0
  1  2  1  0
  2  4  1  0
  3  2  2  0
  4  5  1  0
  6  5  1  0
  6  7  1  6
  8  6  1  0
  8  9  2  0
 10  8  1  0
 11 10  1  0
 11 12  1  1
 13 12  1  0
 13 18  2  0
 14 13  1  0
 15 14  2  0
 15 16  1  0
 16 17  2  0
 17 18  1  0
 19 11  1  0
 20 19  2  0
 21 19  1  0
 22 28  1  0
 22 21  1  0
 22 23  1  6
 24 25  1  0
 24 23  1  0
 26 25  1  0
 26 27  1  0
 28 30  1  0
 29 28  2  0
M  END
$$$$
