QFK.pdb
     RDKit          3D

 30 30  0  0  1  0  0  0  0  0999 V2000
    8.7297  -13.5366   16.8310 N   0  0  0  0  0  0  0  0  0  0  0  0
    8.7778  -14.9125   17.2173 C   0  0  0  0  0  0  0  0  0  0  0  0
    7.7321  -15.5901   17.0896 O   0  0  0  0  0  0  0  0  0  0  0  0
   10.0019  -15.5378   17.7490 C   0  0  0  0  0  0  0  0  0  0  0  0
   10.2168  -15.3097   19.2170 C   0  0  0  0  0  0  0  0  0  0  0  0
    9.4992  -16.2907   20.1078 C   0  0  2  0  0  0  0  0  0  0  0  0
    8.1340  -16.3798   19.6154 N   0  0  0  0  0  0  0  0  0  0  0  0
    9.5180  -15.6836   21.4812 C   0  0  0  0  0  0  0  0  0  0  0  0
   10.6403  -15.3964   21.9695 O   0  0  0  0  0  0  0  0  0  0  0  0
    8.2953  -15.4422   22.2058 N   0  0  0  0  0  0  0  0  0  0  0  0
    8.4044  -14.8112   23.4794 C   0  0  1  0  0  0  0  0  0  0  0  0
    7.1767  -14.0717   23.9061 C   0  0  0  0  0  0  0  0  0  0  0  0
    7.2629  -13.3979   25.1898 C   0  0  0  0  0  0  0  0  0  0  0  0
    8.2241  -12.4768   25.5280 C   0  0  0  0  0  0  0  0  0  0  0  0
    8.2207  -11.8976   26.7621 C   0  0  0  0  0  0  0  0  0  0  0  0
    7.2750  -12.1917   27.7281 C   0  0  0  0  0  0  0  0  0  0  0  0
    6.3029  -13.1162   27.4014 C   0  0  0  0  0  0  0  0  0  0  0  0
    6.2962  -13.7121   26.1486 C   0  0  0  0  0  0  0  0  0  0  0  0
    8.5998  -15.9154   24.4909 C   0  0  0  0  0  0  0  0  0  0  0  0
    7.7845  -16.8758   24.5538 O   0  0  0  0  0  0  0  0  0  0  0  0
    9.6872  -15.9180   25.3945 N   0  0  0  0  0  0  0  0  0  0  0  0
   10.0321  -17.0822   26.2063 C   0  0  1  0  0  0  0  0  0  0  0  0
   11.0694  -17.9179   25.5354 C   0  0  0  0  0  0  0  0  0  0  0  0
   11.4294  -19.0939   26.3915 C   0  0  0  0  0  0  0  0  0  0  0  0
   12.5120  -19.9699   25.7870 C   0  0  0  0  0  0  0  0  0  0  0  0
   12.8222  -21.1140   26.7168 C   0  0  0  0  0  0  0  0  0  0  0  0
   13.7438  -21.9863   25.9601 N   0  0  0  0  0  0  0  0  0  0  0  0
   10.4002  -16.5819   27.5439 C   0  0  0  0  0  0  0  0  0  0  0  0
   10.3240  -17.3764   28.5528 O   0  0  0  0  0  0  0  0  0  0  0  0
   10.8380  -15.3049   27.8466 O   0  0  0  0  0  0  0  0  0  0  0  0
  1  2  1  0
  2  4  1  0
  3  2  2  0
  4  5  1  0
  6  5  1  0
  6  7  1  6
  8  6  1  0
  8  9  2  0
 10  8  1  0
 11 10  1  0
 11 12  1  1
 13 12  1  0
 13 18  2  0
 14 13  1  0
 15 14  2  0
 15 16  1  0
 16 17  2  0
 17 18  1  0
 19 11  1  0
 20 19  2  0
 21 19  1  0
 22 28  1  0
 22 21  1  0
 22 23  1  6
 24 25  1  0
 24 23  1  0
 26 25  1  0
 26 27  1  0
 28 30  1  0
 29 28  2  0
M  END
$$$$
