QFK.pdb
     RDKit          3D

 30 30  0  0  1  0  0  0  0  0999 V2000
   13.6480  -17.4785   19.9844 N   0  0  0  0  0  0  0  0  0  0  0  0
   12.7653  -18.1102   19.0536 C   0  0  0  0  0  0  0  0  0  0  0  0
   13.2538  -18.5253   17.9774 O   0  0  0  0  0  0  0  0  0  0  0  0
   11.3269  -18.2814   19.3256 C   0  0  0  0  0  0  0  0  0  0  0  0
   10.9130  -17.8692   20.7083 C   0  0  0  0  0  0  0  0  0  0  0  0
    9.5162  -17.3103   20.7959 C   0  0  2  0  0  0  0  0  0  0  0  0
    9.2812  -16.5796   19.5611 N   0  0  0  0  0  0  0  0  0  0  0  0
    9.5271  -16.3669   21.9643 C   0  0  0  0  0  0  0  0  0  0  0  0
   10.6242  -16.1898   22.5523 O   0  0  0  0  0  0  0  0  0  0  0  0
    8.3253  -15.6943   22.3900 N   0  0  0  0  0  0  0  0  0  0  0  0
    8.3977  -14.9212   23.5855 C   0  0  1  0  0  0  0  0  0  0  0  0
    7.2052  -14.0523   23.8288 C   0  0  0  0  0  0  0  0  0  0  0  0
    7.1982  -13.3332   25.0905 C   0  0  0  0  0  0  0  0  0  0  0  0
    8.0118  -12.2676   25.3894 C   0  0  0  0  0  0  0  0  0  0  0  0
    7.9302  -11.6570   26.6055 C   0  0  0  0  0  0  0  0  0  0  0  0
    7.0469  -12.0596   27.5912 C   0  0  0  0  0  0  0  0  0  0  0  0
    6.2230  -13.1299   27.3041 C   0  0  0  0  0  0  0  0  0  0  0  0
    6.2971  -13.7591   26.0699 C   0  0  0  0  0  0  0  0  0  0  0  0
    8.4392  -15.9042   24.7312 C   0  0  0  0  0  0  0  0  0  0  0  0
    7.5738  -16.8174   24.8212 O   0  0  0  0  0  0  0  0  0  0  0  0
    9.4340  -15.8422   25.7340 N   0  0  0  0  0  0  0  0  0  0  0  0
    9.7068  -16.9545   26.6405 C   0  0  1  0  0  0  0  0  0  0  0  0
   10.4837  -18.0281   25.9564 C   0  0  0  0  0  0  0  0  0  0  0  0
   10.7657  -19.1553   26.9027 C   0  0  0  0  0  0  0  0  0  0  0  0
   11.4976  -20.3168   26.2547 C   0  0  0  0  0  0  0  0  0  0  0  0
   11.7905  -21.3755   27.2858 C   0  0  0  0  0  0  0  0  0  0  0  0
   12.4903  -22.4479   26.5487 N   0  0  0  0  0  0  0  0  0  0  0  0
   10.3479  -16.3857   27.8408 C   0  0  0  0  0  0  0  0  0  0  0  0
   10.2405  -17.0067   28.9623 O   0  0  0  0  0  0  0  0  0  0  0  0
   11.0829  -15.2150   27.8974 O   0  0  0  0  0  0  0  0  0  0  0  0
  1  2  1  0
  2  4  1  0
  3  2  2  0
  4  5  1  0
  6  5  1  0
  6  7  1  6
  8  6  1  0
  8  9  2  0
 10  8  1  0
 11 10  1  0
 11 12  1  1
 13 12  1  0
 13 18  2  0
 14 13  1  0
 15 14  2  0
 15 16  1  0
 16 17  2  0
 17 18  1  0
 19 11  1  0
 20 19  2  0
 21 19  1  0
 22 28  1  0
 22 21  1  0
 22 23  1  6
 24 25  1  0
 24 23  1  0
 26 25  1  0
 26 27  1  0
 28 30  1  0
 29 28  2  0
M  END
$$$$
