QFK.pdb
     RDKit          3D

 30 30  0  0  1  0  0  0  0  0999 V2000
    8.3734  -12.2705   17.4041 N   0  0  0  0  0  0  0  0  0  0  0  0
    8.6511  -13.6572   17.1929 C   0  0  0  0  0  0  0  0  0  0  0  0
    8.4872  -14.1148   16.0385 O   0  0  0  0  0  0  0  0  0  0  0  0
    9.1164  -14.5402   18.2775 C   0  0  0  0  0  0  0  0  0  0  0  0
    8.1004  -15.5529   18.7195 C   0  0  0  0  0  0  0  0  0  0  0  0
    8.5889  -16.4931   19.7912 C   0  0  2  0  0  0  0  0  0  0  0  0
    7.5401  -17.4804   19.9896 N   0  0  0  0  0  0  0  0  0  0  0  0
    8.7532  -15.6539   21.0257 C   0  0  0  0  0  0  0  0  0  0  0  0
    9.8065  -14.9748   21.1255 O   0  0  0  0  0  0  0  0  0  0  0  0
    7.7406  -15.6317   22.0516 N   0  0  0  0  0  0  0  0  0  0  0  0
    8.0288  -14.8960   23.2382 C   0  0  1  0  0  0  0  0  0  0  0  0
    6.8649  -14.1340   23.7868 C   0  0  0  0  0  0  0  0  0  0  0  0
    7.1107  -13.4167   25.0255 C   0  0  0  0  0  0  0  0  0  0  0  0
    8.1355  -12.5239   25.2236 C   0  0  0  0  0  0  0  0  0  0  0  0
    8.2835  -11.8992   26.4263 C   0  0  0  0  0  0  0  0  0  0  0  0
    7.4345  -12.1177   27.4965 C   0  0  0  0  0  0  0  0  0  0  0  0
    6.3997  -13.0130   27.3110 C   0  0  0  0  0  0  0  0  0  0  0  0
    6.2392  -13.6547   26.0916 C   0  0  0  0  0  0  0  0  0  0  0  0
    8.3990  -15.9105   24.2938 C   0  0  0  0  0  0  0  0  0  0  0  0
    7.6019  -16.8411   24.5930 O   0  0  0  0  0  0  0  0  0  0  0  0
    9.6346  -15.8596   24.9792 N   0  0  0  0  0  0  0  0  0  0  0  0
   10.1348  -16.9726   25.7819 C   0  0  1  0  0  0  0  0  0  0  0  0
   11.4988  -17.3840   25.3407 C   0  0  0  0  0  0  0  0  0  0  0  0
   12.0282  -18.4743   26.2219 C   0  0  0  0  0  0  0  0  0  0  0  0
   12.2872  -19.7743   25.4819 C   0  0  0  0  0  0  0  0  0  0  0  0
   12.7358  -20.8348   26.4534 C   0  0  0  0  0  0  0  0  0  0  0  0
   12.7589  -22.0884   25.6716 N   0  0  0  0  0  0  0  0  0  0  0  0
   10.0302  -16.5663   27.1958 C   0  0  0  0  0  0  0  0  0  0  0  0
   10.3643  -15.3699   27.5303 O   0  0  0  0  0  0  0  0  0  0  0  0
    9.5933  -17.3577   28.2431 O   0  0  0  0  0  0  0  0  0  0  0  0
  1  2  1  0
  2  4  1  0
  3  2  2  0
  4  5  1  0
  6  5  1  0
  6  7  1  1
  8  6  1  0
  8  9  2  0
 10  8  1  0
 11 10  1  0
 11 12  1  1
 13 12  1  0
 13 18  2  0
 14 13  1  0
 15 14  2  0
 15 16  1  0
 16 17  2  0
 17 18  1  0
 19 11  1  0
 20 19  2  0
 21 19  1  0
 22 28  1  0
 22 21  1  0
 22 23  1  6
 24 25  1  0
 24 23  1  0
 26 25  1  0
 26 27  1  0
 28 30  1  0
 29 28  2  0
M  END
$$$$
