QFK.pdb
     RDKit          3D

 30 30  0  0  1  0  0  0  0  0999 V2000
   10.9377  -16.5639   16.6292 N   0  0  0  0  0  0  0  0  0  0  0  0
    9.5238  -16.3915   16.5041 C   0  0  0  0  0  0  0  0  0  0  0  0
    9.0088  -16.5995   15.3814 O   0  0  0  0  0  0  0  0  0  0  0  0
    8.6774  -15.9849   17.6403 C   0  0  0  0  0  0  0  0  0  0  0  0
    9.4121  -15.8872   18.9456 C   0  0  0  0  0  0  0  0  0  0  0  0
    8.8369  -16.7416   20.0456 C   0  0  2  0  0  0  0  0  0  0  0  0
    7.4236  -16.9089   19.7479 N   0  0  0  0  0  0  0  0  0  0  0  0
    9.0118  -15.9505   21.3100 C   0  0  0  0  0  0  0  0  0  0  0  0
   10.1884  -15.7291   21.6937 O   0  0  0  0  0  0  0  0  0  0  0  0
    7.8729  -15.4669   22.0497 N   0  0  0  0  0  0  0  0  0  0  0  0
    8.1287  -14.8203   23.2942 C   0  0  1  0  0  0  0  0  0  0  0  0
    7.0336  -13.9100   23.7506 C   0  0  0  0  0  0  0  0  0  0  0  0
    7.2276  -13.2965   25.0525 C   0  0  0  0  0  0  0  0  0  0  0  0
    8.4376  -12.8750   25.5474 C   0  0  0  0  0  0  0  0  0  0  0  0
    8.5175  -12.3093   26.7852 C   0  0  0  0  0  0  0  0  0  0  0  0
    7.4153  -12.1277   27.6014 C   0  0  0  0  0  0  0  0  0  0  0  0
    6.1925  -12.5471   27.1163 C   0  0  0  0  0  0  0  0  0  0  0  0
    6.0990  -13.1241   25.8582 C   0  0  0  0  0  0  0  0  0  0  0  0
    8.2255  -15.9115   24.3337 C   0  0  0  0  0  0  0  0  0  0  0  0
    7.2170  -16.6132   24.6191 O   0  0  0  0  0  0  0  0  0  0  0  0
    9.4312  -16.1869   25.0188 N   0  0  0  0  0  0  0  0  0  0  0  0
    9.6073  -17.3713   25.8551 C   0  0  1  0  0  0  0  0  0  0  0  0
   10.4399  -18.3985   25.1650 C   0  0  0  0  0  0  0  0  0  0  0  0
   10.6115  -19.6058   26.0360 C   0  0  0  0  0  0  0  0  0  0  0  0
   11.4975  -20.6727   25.4185 C   0  0  0  0  0  0  0  0  0  0  0  0
   11.5964  -21.8551   26.3469 C   0  0  0  0  0  0  0  0  0  0  0  0
   12.3662  -22.8697   25.5978 N   0  0  0  0  0  0  0  0  0  0  0  0
   10.1326  -16.9088   27.1533 C   0  0  0  0  0  0  0  0  0  0  0  0
   10.3175  -17.7651   28.0954 O   0  0  0  0  0  0  0  0  0  0  0  0
   10.4642  -15.6069   27.4834 O   0  0  0  0  0  0  0  0  0  0  0  0
  1  2  1  0
  2  4  1  0
  3  2  2  0
  4  5  1  0
  6  5  1  0
  6  7  1  6
  8  6  1  0
  8  9  2  0
 10  8  1  0
 11 10  1  0
 11 12  1  1
 13 12  1  0
 13 18  2  0
 14 13  1  0
 15 14  2  0
 15 16  1  0
 16 17  2  0
 17 18  1  0
 19 11  1  0
 20 19  2  0
 21 19  1  0
 22 28  1  0
 22 21  1  0
 22 23  1  6
 24 25  1  0
 24 23  1  0
 26 25  1  0
 26 27  1  0
 28 30  1  0
 29 28  2  0
M  END
$$$$
