QFK.pdb
     RDKit          3D

 30 30  0  0  1  0  0  0  0  0999 V2000
   11.9893  -19.7758   21.8940 N   0  0  0  0  0  0  0  0  0  0  0  0
   11.8782  -19.5835   20.4815 C   0  0  0  0  0  0  0  0  0  0  0  0
   12.7173  -20.1552   19.7481 O   0  0  0  0  0  0  0  0  0  0  0  0
   10.8222  -18.7480   19.8822 C   0  0  0  0  0  0  0  0  0  0  0  0
    9.7848  -18.2790   20.8604 C   0  0  0  0  0  0  0  0  0  0  0  0
    9.1247  -16.9769   20.4865 C   0  0  2  0  0  0  0  0  0  0  0  0
    9.9150  -16.4028   19.4095 N   0  0  0  0  0  0  0  0  0  0  0  0
    9.2080  -16.1113   21.7109 C   0  0  0  0  0  0  0  0  0  0  0  0
   10.3517  -15.7397   22.0778 O   0  0  0  0  0  0  0  0  0  0  0  0
    8.0212  -15.7253   22.4325 N   0  0  0  0  0  0  0  0  0  0  0  0
    8.1922  -14.8766   23.5651 C   0  0  1  0  0  0  0  0  0  0  0  0
    6.9587  -14.1339   23.9685 C   0  0  0  0  0  0  0  0  0  0  0  0
    7.0854  -13.2997   25.1505 C   0  0  0  0  0  0  0  0  0  0  0  0
    7.8730  -12.1776   25.2366 C   0  0  0  0  0  0  0  0  0  0  0  0
    7.9255  -11.4587   26.3938 C   0  0  0  0  0  0  0  0  0  0  0  0
    7.2087  -11.8028   27.5259 C   0  0  0  0  0  0  0  0  0  0  0  0
    6.4127  -12.9288   27.4532 C   0  0  0  0  0  0  0  0  0  0  0  0
    6.3513  -13.6682   26.2810 C   0  0  0  0  0  0  0  0  0  0  0  0
    8.5375  -15.7761   24.7280 C   0  0  0  0  0  0  0  0  0  0  0  0
    7.8508  -16.8074   24.9639 O   0  0  0  0  0  0  0  0  0  0  0  0
    9.6274  -15.5034   25.5864 N   0  0  0  0  0  0  0  0  0  0  0  0
   10.1072  -16.4634   26.5771 C   0  0  1  0  0  0  0  0  0  0  0  0
   11.4251  -17.0359   26.1775 C   0  0  0  0  0  0  0  0  0  0  0  0
   11.8345  -18.1212   27.1261 C   0  0  0  0  0  0  0  0  0  0  0  0
   13.1683  -18.7561   26.7754 C   0  0  0  0  0  0  0  0  0  0  0  0
   13.4932  -19.8431   27.7666 C   0  0  0  0  0  0  0  0  0  0  0  0
   14.7977  -20.3836   27.3315 N   0  0  0  0  0  0  0  0  0  0  0  0
   10.0920  -15.7793   27.8836 C   0  0  0  0  0  0  0  0  0  0  0  0
    9.2538  -16.1619   28.7814 O   0  0  0  0  0  0  0  0  0  0  0  0
   10.9120  -14.7334   28.2678 O   0  0  0  0  0  0  0  0  0  0  0  0
  1  2  1  0
  2  4  1  0
  3  2  2  0
  4  5  1  0
  6  5  1  0
  6  7  1  6
  8  6  1  0
  8  9  2  0
 10  8  1  0
 11 10  1  0
 11 12  1  1
 13 12  1  0
 13 18  2  0
 14 13  1  0
 15 14  2  0
 15 16  1  0
 16 17  2  0
 17 18  1  0
 19 11  1  0
 20 19  2  0
 21 19  1  0
 22 28  1  0
 22 21  1  0
 22 23  1  6
 24 25  1  0
 24 23  1  0
 26 25  1  0
 26 27  1  0
 28 30  1  0
 29 28  2  0
M  END
$$$$
