QFK.pdb
     RDKit          3D

 30 30  0  0  1  0  0  0  0  0999 V2000
    8.7762  -12.7522   16.7647 N   0  0  0  0  0  0  0  0  0  0  0  0
    8.3781  -14.0830   16.4253 C   0  0  0  0  0  0  0  0  0  0  0  0
    7.9369  -14.2821   15.2701 O   0  0  0  0  0  0  0  0  0  0  0  0
    8.4739  -15.2006   17.3815 C   0  0  0  0  0  0  0  0  0  0  0  0
    9.0374  -14.8149   18.7182 C   0  0  0  0  0  0  0  0  0  0  0  0
    9.0505  -15.9313   19.7303 C   0  0  2  0  0  0  0  0  0  0  0  0
    7.7928  -16.6452   19.5801 N   0  0  0  0  0  0  0  0  0  0  0  0
    9.1119  -15.2630   21.0737 C   0  0  0  0  0  0  0  0  0  0  0  0
   10.1874  -14.6909   21.3847 O   0  0  0  0  0  0  0  0  0  0  0  0
    7.9802  -15.2799   21.9665 N   0  0  0  0  0  0  0  0  0  0  0  0
    8.1403  -14.6518   23.2363 C   0  0  1  0  0  0  0  0  0  0  0  0
    6.9939  -13.7806   23.6399 C   0  0  0  0  0  0  0  0  0  0  0  0
    7.1098  -13.1537   24.9448 C   0  0  0  0  0  0  0  0  0  0  0  0
    8.1333  -12.3204   25.3254 C   0  0  0  0  0  0  0  0  0  0  0  0
    8.1534  -11.7793   26.5765 C   0  0  0  0  0  0  0  0  0  0  0  0
    7.1712  -12.0272   27.5188 C   0  0  0  0  0  0  0  0  0  0  0  0
    6.1363  -12.8633   27.1494 C   0  0  0  0  0  0  0  0  0  0  0  0
    6.1052  -13.4198   25.8789 C   0  0  0  0  0  0  0  0  0  0  0  0
    8.2030  -15.7607   24.2596 C   0  0  0  0  0  0  0  0  0  0  0  0
    7.3529  -16.6924   24.2449 O   0  0  0  0  0  0  0  0  0  0  0  0
    9.2012  -15.7993   25.2601 N   0  0  0  0  0  0  0  0  0  0  0  0
    9.6186  -17.0407   25.9067 C   0  0  1  0  0  0  0  0  0  0  0  0
   10.7641  -17.6651   25.1840 C   0  0  0  0  0  0  0  0  0  0  0  0
   10.3075  -18.8705   24.4198 C   0  0  0  0  0  0  0  0  0  0  0  0
   11.2983  -20.0201   24.4602 C   0  0  0  0  0  0  0  0  0  0  0  0
   10.8595  -21.1065   23.5132 C   0  0  0  0  0  0  0  0  0  0  0  0
   11.9397  -22.1137   23.5555 N   0  0  0  0  0  0  0  0  0  0  0  0
    9.8705  -16.7251   27.3251 C   0  0  0  0  0  0  0  0  0  0  0  0
   10.1121  -17.6846   28.1472 O   0  0  0  0  0  0  0  0  0  0  0  0
    9.8791  -15.4632   27.8923 O   0  0  0  0  0  0  0  0  0  0  0  0
  1  2  1  0
  2  4  1  0
  3  2  2  0
  4  5  1  0
  6  5  1  0
  6  7  1  1
  8  6  1  0
  8  9  2  0
 10  8  1  0
 11 10  1  0
 11 12  1  1
 13 12  1  0
 13 18  2  0
 14 13  1  0
 15 14  2  0
 15 16  1  0
 16 17  2  0
 17 18  1  0
 19 11  1  0
 20 19  2  0
 21 19  1  0
 22 28  1  0
 22 21  1  0
 22 23  1  6
 24 25  1  0
 24 23  1  0
 26 25  1  0
 26 27  1  0
 28 30  1  0
 29 28  2  0
M  END
$$$$
