NKH.pdb
     RDKit          3D

 28 28  0  0  1  0  0  0  0  0999 V2000
   18.8220  -15.6659  -16.0849 N   0  0  0  0  0  0  0  0  0  0  0  0
   19.8456  -14.7370  -15.7163 C   0  0  0  0  0  0  0  0  0  0  0  0
   20.7963  -15.1799  -15.0470 O   0  0  0  0  0  0  0  0  0  0  0  0
   19.7348  -13.3441  -16.1296 C   0  0  0  0  0  0  0  0  0  0  0  0
   18.4701  -13.0835  -16.9010 C   0  0  2  0  0  0  0  0  0  0  0  0
   18.6353  -13.7765  -18.2075 N   0  0  0  0  0  0  0  0  0  0  0  0
   18.2492  -11.6709  -17.2372 C   0  0  0  0  0  0  0  0  0  0  0  0
   19.1877  -10.9692  -17.7576 O   0  0  0  0  0  0  0  0  0  0  0  0
   17.0087  -10.9774  -17.0268 N   0  0  0  0  0  0  0  0  0  0  0  0
   16.8963   -9.5770  -17.3420 C   0  0  1  0  0  0  0  0  0  0  0  0
   15.4555   -9.1305  -17.2842 C   0  0  0  0  0  0  0  0  0  0  0  0
   15.2921   -7.6698  -17.6236 C   0  0  0  0  0  0  0  0  0  0  0  0
   13.8633   -7.5015  -18.1062 C   0  0  0  0  0  0  0  0  0  0  0  0
   13.5773   -6.0672  -18.4917 C   0  0  0  0  0  0  0  0  0  0  0  0
   12.2163   -6.0087  -18.9816 N   0  0  0  0  0  0  0  0  0  0  0  0
   17.6455   -8.7773  -16.3563 C   0  0  0  0  0  0  0  0  0  0  0  0
   17.6996   -9.0555  -15.1232 O   0  0  0  0  0  0  0  0  0  0  0  0
   18.3527   -7.6143  -16.8323 N   0  0  0  0  0  0  0  0  0  0  0  0
   19.0543   -6.7898  -15.9077 C   0  0  1  0  0  0  0  0  0  0  0  0
   20.3926   -6.4469  -16.5267 C   0  0  0  0  0  0  0  0  0  0  0  0
   21.1919   -5.5048  -15.7396 C   0  0  0  0  0  0  0  0  0  0  0  0
   21.9445   -5.8537  -14.6310 C   0  0  0  0  0  0  0  0  0  0  0  0
   22.5425   -4.7415  -14.1659 N   0  0  0  0  0  0  0  0  0  0  0  0
   22.1826   -3.7104  -14.9538 C   0  0  0  0  0  0  0  0  0  0  0  0
   21.3661   -4.1813  -15.9022 N   0  0  0  0  0  0  0  0  0  0  0  0
   18.2700   -5.5781  -15.5868 C   0  0  0  0  0  0  0  0  0  0  0  0
   17.4936   -5.1218  -16.4574 O   0  0  0  0  0  0  0  0  0  0  0  0
   18.3458   -4.9177  -14.3740 O   0  0  0  0  0  0  0  0  0  0  0  0
  1  2  1  0
  2  3  2  0
  4  2  1  0
  4  5  1  0
  5  6  1  6
  7  8  2  0
  7  5  1  0
  9  7  1  0
 10  9  1  0
 10 11  1  1
 11 12  1  0
 13 12  1  0
 14 15  1  0
 14 13  1  0
 16 17  2  0
 16 10  1  0
 18 16  1  0
 19 18  1  0
 19 20  1  6
 20 21  1  0
 21 22  2  0
 21 25  1  0
 22 23  1  0
 24 23  1  0
 25 24  2  0
 26 19  1  0
 27 26  2  0
 28 26  1  0
M  END
$$$$
