NKH.pdb
     RDKit          3D

 28 28  0  0  1  0  0  0  0  0999 V2000
   27.3861  -27.1166  -17.8104 N   0  0  0  0  0  0  0  0  0  0  0  0
   27.8554  -26.7620  -16.5064 C   0  0  0  0  0  0  0  0  0  0  0  0
   28.6349  -27.5569  -15.9510 O   0  0  0  0  0  0  0  0  0  0  0  0
   27.4113  -25.5151  -15.8972 C   0  0  0  0  0  0  0  0  0  0  0  0
   26.4462  -24.7695  -16.7776 C   0  0  2  0  0  0  0  0  0  0  0  0
   27.2453  -24.2614  -17.9254 N   0  0  0  0  0  0  0  0  0  0  0  0
   25.8608  -23.5752  -16.1545 C   0  0  0  0  0  0  0  0  0  0  0  0
   25.1251  -23.6781  -15.1094 O   0  0  0  0  0  0  0  0  0  0  0  0
   26.0570  -22.2365  -16.6377 N   0  0  0  0  0  0  0  0  0  0  0  0
   25.5097  -21.1163  -15.9176 C   0  0  1  0  0  0  0  0  0  0  0  0
   26.1204  -19.8223  -16.3984 C   0  0  0  0  0  0  0  0  0  0  0  0
   25.6023  -18.6253  -15.6406 C   0  0  0  0  0  0  0  0  0  0  0  0
   26.3915  -17.4297  -16.1409 C   0  0  0  0  0  0  0  0  0  0  0  0
   26.0086  -16.1678  -15.4002 C   0  0  0  0  0  0  0  0  0  0  0  0
   26.8101  -15.0868  -15.9338 N   0  0  0  0  0  0  0  0  0  0  0  0
   24.0565  -21.0305  -16.1490 C   0  0  0  0  0  0  0  0  0  0  0  0
   23.5406  -20.7296  -17.2644 O   0  0  0  0  0  0  0  0  0  0  0  0
   23.1813  -21.3059  -15.0364 N   0  0  0  0  0  0  0  0  0  0  0  0
   21.7785  -21.1098  -15.1792 C   0  0  1  0  0  0  0  0  0  0  0  0
   21.0834  -22.1544  -14.3322 C   0  0  0  0  0  0  0  0  0  0  0  0
   19.6227  -22.0441  -14.3258 C   0  0  0  0  0  0  0  0  0  0  0  0
   18.7725  -22.8779  -15.0324 C   0  0  0  0  0  0  0  0  0  0  0  0
   17.5080  -22.4862  -14.7905 N   0  0  0  0  0  0  0  0  0  0  0  0
   17.5477  -21.4319  -13.9538 C   0  0  0  0  0  0  0  0  0  0  0  0
   18.8301  -21.1718  -13.6784 N   0  0  0  0  0  0  0  0  0  0  0  0
   21.3985  -19.7373  -14.7814 C   0  0  0  0  0  0  0  0  0  0  0  0
   20.4051  -19.2095  -15.3324 O   0  0  0  0  0  0  0  0  0  0  0  0
   22.0813  -19.0006  -13.8306 O   0  0  0  0  0  0  0  0  0  0  0  0
  1  2  1  0
  2  3  2  0
  4  2  1  0
  4  5  1  0
  5  6  1  6
  7  8  2  0
  7  5  1  0
  9  7  1  0
 10  9  1  0
 10 11  1  6
 11 12  1  0
 13 12  1  0
 14 15  1  0
 14 13  1  0
 16 17  2  0
 16 10  1  0
 18 16  1  0
 19 18  1  0
 19 20  1  1
 20 21  1  0
 21 22  2  0
 21 25  1  0
 22 23  1  0
 24 23  1  0
 25 24  2  0
 26 19  1  0
 27 26  2  0
 28 26  1  0
M  END
$$$$
