NKH.pdb
     RDKit          3D

 28 28  0  0  1  0  0  0  0  0999 V2000
   29.0080  -19.8399  -17.7627 N   0  0  0  0  0  0  0  0  0  0  0  0
   28.8702  -18.4206  -17.6481 C   0  0  0  0  0  0  0  0  0  0  0  0
   29.8278  -17.7269  -18.0350 O   0  0  0  0  0  0  0  0  0  0  0  0
   27.6440  -17.8599  -17.0958 C   0  0  0  0  0  0  0  0  0  0  0  0
   26.7267  -18.9258  -16.5620 C   0  0  2  0  0  0  0  0  0  0  0  0
   26.3109  -19.7370  -17.7382 N   0  0  0  0  0  0  0  0  0  0  0  0
   25.4775  -18.4124  -15.9848 C   0  0  0  0  0  0  0  0  0  0  0  0
   25.5020  -17.5989  -14.9940 O   0  0  0  0  0  0  0  0  0  0  0  0
   24.1676  -18.7577  -16.4632 N   0  0  0  0  0  0  0  0  0  0  0  0
   22.9948  -18.2257  -15.8192 C   0  0  1  0  0  0  0  0  0  0  0  0
   22.1694  -17.4206  -16.7933 C   0  0  0  0  0  0  0  0  0  0  0  0
   23.0212  -16.6756  -17.7907 C   0  0  0  0  0  0  0  0  0  0  0  0
   22.0617  -16.0333  -18.7752 C   0  0  0  0  0  0  0  0  0  0  0  0
   22.8044  -15.2935  -19.8655 C   0  0  0  0  0  0  0  0  0  0  0  0
   21.8275  -14.8504  -20.8376 N   0  0  0  0  0  0  0  0  0  0  0  0
   22.1470  -19.3268  -15.3278 C   0  0  0  0  0  0  0  0  0  0  0  0
   21.0317  -19.6350  -15.8395 O   0  0  0  0  0  0  0  0  0  0  0  0
   22.6227  -20.0896  -14.2003 N   0  0  0  0  0  0  0  0  0  0  0  0
   21.6940  -20.5730  -13.2355 C   0  0  1  0  0  0  0  0  0  0  0  0
   22.3094  -20.3680  -11.8676 C   0  0  0  0  0  0  0  0  0  0  0  0
   23.6777  -20.8765  -11.7450 C   0  0  0  0  0  0  0  0  0  0  0  0
   24.3814  -21.4830  -12.7718 C   0  0  0  0  0  0  0  0  0  0  0  0
   25.5971  -21.8191  -12.3026 N   0  0  0  0  0  0  0  0  0  0  0  0
   25.6692  -21.4391  -11.0128 C   0  0  0  0  0  0  0  0  0  0  0  0
   24.5044  -20.8705  -10.6844 N   0  0  0  0  0  0  0  0  0  0  0  0
   20.3955  -19.8775  -13.3643 C   0  0  0  0  0  0  0  0  0  0  0  0
   19.3553  -20.5686  -13.4610 O   0  0  0  0  0  0  0  0  0  0  0  0
   20.2646  -18.5008  -13.3838 O   0  0  0  0  0  0  0  0  0  0  0  0
  1  2  1  0
  2  3  2  0
  4  2  1  0
  4  5  1  0
  5  6  1  6
  7  8  2  0
  7  5  1  0
  9  7  1  0
 10  9  1  0
 10 11  1  6
 11 12  1  0
 13 12  1  0
 14 15  1  0
 14 13  1  0
 16 17  2  0
 16 10  1  0
 18 16  1  0
 19 18  1  0
 19 20  1  1
 20 21  1  0
 21 22  2  0
 21 25  1  0
 22 23  1  0
 24 23  1  0
 25 24  2  0
 26 19  1  0
 27 26  2  0
 28 26  1  0
M  END
$$$$
