NKH.pdb
     RDKit          3D

 28 28  0  0  1  0  0  0  0  0999 V2000
   29.0905  -17.8106  -17.7225 N   0  0  0  0  0  0  0  0  0  0  0  0
   27.8384  -18.0491  -18.3719 C   0  0  0  0  0  0  0  0  0  0  0  0
   27.4698  -17.2106  -19.2138 O   0  0  0  0  0  0  0  0  0  0  0  0
   27.0650  -19.2353  -18.0283 C   0  0  0  0  0  0  0  0  0  0  0  0
   27.7347  -20.0554  -16.9600 C   0  0  2  0  0  0  0  0  0  0  0  0
   28.2456  -21.2769  -17.6393 N   0  0  0  0  0  0  0  0  0  0  0  0
   26.8246  -20.5449  -15.9163 C   0  0  0  0  0  0  0  0  0  0  0  0
   25.9418  -21.4353  -16.1849 O   0  0  0  0  0  0  0  0  0  0  0  0
   26.8446  -20.0921  -14.5530 N   0  0  0  0  0  0  0  0  0  0  0  0
   25.8645  -20.5712  -13.6134 C   0  0  1  0  0  0  0  0  0  0  0  0
   26.3222  -20.3315  -12.1951 C   0  0  0  0  0  0  0  0  0  0  0  0
   25.2771  -20.7216  -11.1798 C   0  0  0  0  0  0  0  0  0  0  0  0
   25.8932  -20.4711   -9.8159 C   0  0  0  0  0  0  0  0  0  0  0  0
   24.9429  -20.8540   -8.7032 C   0  0  0  0  0  0  0  0  0  0  0  0
   25.6310  -20.6416   -7.4474 N   0  0  0  0  0  0  0  0  0  0  0  0
   24.5950  -19.8446  -13.7956 C   0  0  0  0  0  0  0  0  0  0  0  0
   24.5253  -18.6045  -14.0369 O   0  0  0  0  0  0  0  0  0  0  0  0
   23.3691  -20.5966  -13.6908 N   0  0  0  0  0  0  0  0  0  0  0  0
   22.1303  -19.9708  -14.0080 C   0  0  1  0  0  0  0  0  0  0  0  0
   22.1259  -19.6967  -15.4968 C   0  0  0  0  0  0  0  0  0  0  0  0
   20.8583  -19.1653  -16.0035 C   0  0  0  0  0  0  0  0  0  0  0  0
   19.7672  -18.8553  -15.2093 C   0  0  0  0  0  0  0  0  0  0  0  0
   18.7874  -18.3941  -16.0082 N   0  0  0  0  0  0  0  0  0  0  0  0
   19.2381  -18.4091  -17.2770 C   0  0  0  0  0  0  0  0  0  0  0  0
   20.4907  -18.8768  -17.2644 N   0  0  0  0  0  0  0  0  0  0  0  0
   20.9933  -20.8248  -13.6026 C   0  0  0  0  0  0  0  0  0  0  0  0
   21.1848  -22.0571  -13.4846 O   0  0  0  0  0  0  0  0  0  0  0  0
   19.7250  -20.3372  -13.3451 O   0  0  0  0  0  0  0  0  0  0  0  0
  1  2  1  0
  2  3  2  0
  4  2  1  0
  4  5  1  0
  5  6  1  6
  7  8  2  0
  7  5  1  0
  9  7  1  0
 10  9  1  0
 10 11  1  1
 11 12  1  0
 13 12  1  0
 14 15  1  0
 14 13  1  0
 16 17  2  0
 16 10  1  0
 18 16  1  0
 19 18  1  0
 19 20  1  6
 20 21  1  0
 21 22  2  0
 21 25  1  0
 22 23  1  0
 24 23  1  0
 25 24  2  0
 26 19  1  0
 27 26  2  0
 28 26  1  0
M  END
$$$$
