NKH.pdb
     RDKit          3D

 28 28  0  0  1  0  0  0  0  0999 V2000
   28.6600  -20.5049  -18.3971 N   0  0  0  0  0  0  0  0  0  0  0  0
   29.0677  -21.3891  -17.3491 C   0  0  0  0  0  0  0  0  0  0  0  0
   30.2213  -21.8502  -17.4156 O   0  0  0  0  0  0  0  0  0  0  0  0
   28.1372  -21.7059  -16.2734 C   0  0  0  0  0  0  0  0  0  0  0  0
   26.7983  -21.0507  -16.4746 C   0  0  2  0  0  0  0  0  0  0  0  0
   26.9521  -19.6479  -16.0025 N   0  0  0  0  0  0  0  0  0  0  0  0
   25.7199  -21.6189  -15.6552 C   0  0  0  0  0  0  0  0  0  0  0  0
   25.3992  -22.8555  -15.7643 O   0  0  0  0  0  0  0  0  0  0  0  0
   24.9611  -20.8708  -14.6915 N   0  0  0  0  0  0  0  0  0  0  0  0
   23.9858  -21.5310  -13.8632 C   0  0  1  0  0  0  0  0  0  0  0  0
   23.9925  -20.9552  -12.4678 C   0  0  0  0  0  0  0  0  0  0  0  0
   25.1719  -21.4294  -11.6556 C   0  0  0  0  0  0  0  0  0  0  0  0
   25.0559  -20.7546  -10.3015 C   0  0  0  0  0  0  0  0  0  0  0  0
   26.2246  -21.1071   -9.4084 C   0  0  0  0  0  0  0  0  0  0  0  0
   26.0228  -20.4398   -8.1397 N   0  0  0  0  0  0  0  0  0  0  0  0
   22.6350  -21.3284  -14.4171 C   0  0  0  0  0  0  0  0  0  0  0  0
   22.1955  -20.2057  -14.8008 O   0  0  0  0  0  0  0  0  0  0  0  0
   21.7726  -22.4792  -14.5235 N   0  0  0  0  0  0  0  0  0  0  0  0
   20.4348  -22.3162  -14.9825 C   0  0  1  0  0  0  0  0  0  0  0  0
   19.8414  -23.6977  -15.1584 C   0  0  0  0  0  0  0  0  0  0  0  0
   18.4865  -23.7003  -15.7152 C   0  0  0  0  0  0  0  0  0  0  0  0
   17.7959  -22.5625  -16.0971 C   0  0  0  0  0  0  0  0  0  0  0  0
   16.5912  -22.9421  -16.5615 N   0  0  0  0  0  0  0  0  0  0  0  0
   16.5128  -24.2838  -16.4787 C   0  0  0  0  0  0  0  0  0  0  0  0
   17.6629  -24.7334  -15.9660 N   0  0  0  0  0  0  0  0  0  0  0  0
   19.6513  -21.4979  -14.0322 C   0  0  0  0  0  0  0  0  0  0  0  0
   19.8889  -21.6137  -12.8078 O   0  0  0  0  0  0  0  0  0  0  0  0
   18.6668  -20.6078  -14.4213 O   0  0  0  0  0  0  0  0  0  0  0  0
  1  2  1  0
  2  3  2  0
  4  2  1  0
  4  5  1  0
  5  6  1  1
  7  8  2  0
  7  5  1  0
  9  7  1  0
 10  9  1  0
 10 11  1  1
 11 12  1  0
 13 12  1  0
 14 15  1  0
 14 13  1  0
 16 17  2  0
 16 10  1  0
 18 16  1  0
 19 18  1  0
 19 20  1  1
 20 21  1  0
 21 22  2  0
 21 25  1  0
 22 23  1  0
 24 23  1  0
 25 24  2  0
 26 19  1  0
 27 26  2  0
 28 26  1  0
M  END
$$$$
