NKH.pdb
     RDKit          3D

 28 28  0  0  1  0  0  0  0  0999 V2000
   43.2748  -16.7674   -9.3945 N   0  0  0  0  0  0  0  0  0  0  0  0
   43.0303  -15.4301   -9.8398 C   0  0  0  0  0  0  0  0  0  0  0  0
   43.1233  -15.2157  -11.0618 O   0  0  0  0  0  0  0  0  0  0  0  0
   42.6913  -14.3994   -8.8672 C   0  0  0  0  0  0  0  0  0  0  0  0
   43.0335  -13.0213   -9.3634 C   0  0  2  0  0  0  0  0  0  0  0  0
   44.5108  -12.8943   -9.2377 N   0  0  0  0  0  0  0  0  0  0  0  0
   42.4806  -11.9323   -8.5475 C   0  0  0  0  0  0  0  0  0  0  0  0
   41.2134  -11.8087   -8.3959 O   0  0  0  0  0  0  0  0  0  0  0  0
   43.2788  -10.9498   -7.8681 N   0  0  0  0  0  0  0  0  0  0  0  0
   42.6510   -9.8448   -7.1913 C   0  0  1  0  0  0  0  0  0  0  0  0
   43.6780   -9.0096   -6.4660 C   0  0  0  0  0  0  0  0  0  0  0  0
   43.0524   -7.8874   -5.6755 C   0  0  0  0  0  0  0  0  0  0  0  0
   44.1829   -7.2201   -4.9145 C   0  0  0  0  0  0  0  0  0  0  0  0
   43.6828   -6.0463   -4.1022 C   0  0  0  0  0  0  0  0  0  0  0  0
   44.8307   -5.4291   -3.4723 N   0  0  0  0  0  0  0  0  0  0  0  0
   41.9825   -8.9690   -8.1705 C   0  0  0  0  0  0  0  0  0  0  0  0
   42.4614   -8.6967   -9.3095 O   0  0  0  0  0  0  0  0  0  0  0  0
   40.7125   -8.3942   -7.8011 N   0  0  0  0  0  0  0  0  0  0  0  0
   40.0663   -7.4868   -8.6876 C   0  0  1  0  0  0  0  0  0  0  0  0
   38.7347   -8.0955   -9.0724 C   0  0  0  0  0  0  0  0  0  0  0  0
   38.8047   -9.0185  -10.2078 C   0  0  0  0  0  0  0  0  0  0  0  0
   38.8306  -10.3982  -10.0934 C   0  0  0  0  0  0  0  0  0  0  0  0
   38.8945  -10.9183  -11.3330 N   0  0  0  0  0  0  0  0  0  0  0  0
   38.9097   -9.9010  -12.2150 C   0  0  0  0  0  0  0  0  0  0  0  0
   38.8552   -8.7565  -11.5258 N   0  0  0  0  0  0  0  0  0  0  0  0
   39.9023   -6.1617   -8.0524 C   0  0  0  0  0  0  0  0  0  0  0  0
   39.8209   -6.1042   -6.8037 O   0  0  0  0  0  0  0  0  0  0  0  0
   39.8338   -4.9770   -8.7627 O   0  0  0  0  0  0  0  0  0  0  0  0
  1  2  1  0
  2  3  2  0
  4  2  1  0
  4  5  1  0
  5  6  1  1
  7  8  2  0
  7  5  1  0
  9  7  1  0
 10  9  1  0
 10 11  1  6
 11 12  1  0
 13 12  1  0
 14 15  1  0
 14 13  1  0
 16 17  2  0
 16 10  1  0
 18 16  1  0
 19 18  1  0
 19 20  1  1
 20 21  1  0
 21 22  2  0
 21 25  1  0
 22 23  1  0
 24 23  1  0
 25 24  2  0
 26 19  1  0
 27 26  2  0
 28 26  1  0
M  END
$$$$
