NKH.pdb
     RDKit          3D

 28 28  0  0  1  0  0  0  0  0999 V2000
   30.1142  -10.0665  -17.0251 N   0  0  0  0  0  0  0  0  0  0  0  0
   28.8913   -9.4420  -17.4264 C   0  0  0  0  0  0  0  0  0  0  0  0
   28.8900   -8.2003  -17.5040 O   0  0  0  0  0  0  0  0  0  0  0  0
   27.7260  -10.2660  -17.7199 C   0  0  0  0  0  0  0  0  0  0  0  0
   28.0039  -11.7299  -17.5140 C   0  0  2  0  0  0  0  0  0  0  0  0
   28.8391  -12.1561  -18.6695 N   0  0  0  0  0  0  0  0  0  0  0  0
   26.8095  -12.5831  -17.5640 C   0  0  0  0  0  0  0  0  0  0  0  0
   25.8402  -12.3038  -18.3554 O   0  0  0  0  0  0  0  0  0  0  0  0
   26.6295  -13.7643  -16.7661 N   0  0  0  0  0  0  0  0  0  0  0  0
   25.4838  -14.6121  -16.9706 C   0  0  1  0  0  0  0  0  0  0  0  0
   25.6756  -15.9436  -16.2860 C   0  0  0  0  0  0  0  0  0  0  0  0
   25.6895  -17.0947  -17.2607 C   0  0  0  0  0  0  0  0  0  0  0  0
   26.9089  -17.9298  -16.9170 C   0  0  0  0  0  0  0  0  0  0  0  0
   27.0501  -19.1098  -17.8525 C   0  0  0  0  0  0  0  0  0  0  0  0
   28.2323  -19.8447  -17.4549 N   0  0  0  0  0  0  0  0  0  0  0  0
   24.2836  -13.9857  -16.3878 C   0  0  0  0  0  0  0  0  0  0  0  0
   24.3044  -13.2593  -15.3521 O   0  0  0  0  0  0  0  0  0  0  0  0
   23.0192  -14.2196  -17.0406 N   0  0  0  0  0  0  0  0  0  0  0  0
   21.8377  -13.6172  -16.5228 C   0  0  1  0  0  0  0  0  0  0  0  0
   21.9981  -12.1171  -16.6483 C   0  0  0  0  0  0  0  0  0  0  0  0
   20.7848  -11.3576  -16.3368 C   0  0  0  0  0  0  0  0  0  0  0  0
   20.0791  -11.4636  -15.1502 C   0  0  0  0  0  0  0  0  0  0  0  0
   19.0295  -10.6237  -15.2128 N   0  0  0  0  0  0  0  0  0  0  0  0
   19.0622   -9.9986  -16.4050 C   0  0  0  0  0  0  0  0  0  0  0  0
   20.1266  -10.4487  -17.0777 N   0  0  0  0  0  0  0  0  0  0  0  0
   20.6423  -14.1047  -17.2435 C   0  0  0  0  0  0  0  0  0  0  0  0
   20.8005  -14.6581  -18.3561 O   0  0  0  0  0  0  0  0  0  0  0  0
   19.3537  -13.9838  -16.7558 O   0  0  0  0  0  0  0  0  0  0  0  0
  1  2  1  0
  2  3  2  0
  4  2  1  0
  4  5  1  0
  5  6  1  6
  7  8  2  0
  7  5  1  0
  9  7  1  0
 10  9  1  0
 10 11  1  1
 11 12  1  0
 13 12  1  0
 14 15  1  0
 14 13  1  0
 16 17  2  0
 16 10  1  0
 18 16  1  0
 19 18  1  0
 19 20  1  6
 20 21  1  0
 21 22  2  0
 21 25  1  0
 22 23  1  0
 24 23  1  0
 25 24  2  0
 26 19  1  0
 27 26  2  0
 28 26  1  0
M  END
$$$$
