NKH.pdb
     RDKit          3D

 28 28  0  0  1  0  0  0  0  0999 V2000
   16.0148  -15.5596  -15.8070 N   0  0  0  0  0  0  0  0  0  0  0  0
   16.9086  -15.2311  -14.7395 C   0  0  0  0  0  0  0  0  0  0  0  0
   16.5892  -15.6101  -13.5983 O   0  0  0  0  0  0  0  0  0  0  0  0
   18.1263  -14.4839  -15.0259 C   0  0  0  0  0  0  0  0  0  0  0  0
   18.2515  -14.1477  -16.4866 C   0  0  2  0  0  0  0  0  0  0  0  0
   19.1581  -15.1743  -17.0684 N   0  0  0  0  0  0  0  0  0  0  0  0
   18.9031  -12.8590  -16.7550 C   0  0  0  0  0  0  0  0  0  0  0  0
   20.0958  -12.8155  -17.2236 O   0  0  0  0  0  0  0  0  0  0  0  0
   18.2848  -11.5817  -16.5307 N   0  0  0  0  0  0  0  0  0  0  0  0
   18.9657  -10.3690  -16.9032 C   0  0  1  0  0  0  0  0  0  0  0  0
   18.0270   -9.1886  -16.8412 C   0  0  0  0  0  0  0  0  0  0  0  0
   18.6924   -7.9019  -17.2619 C   0  0  0  0  0  0  0  0  0  0  0  0
   17.6121   -6.8365  -17.2406 C   0  0  0  0  0  0  0  0  0  0  0  0
   18.1189   -5.5268  -17.8023 C   0  0  0  0  0  0  0  0  0  0  0  0
   16.9977   -4.6130  -17.8619 N   0  0  0  0  0  0  0  0  0  0  0  0
   20.0706  -10.1034  -15.9644 C   0  0  0  0  0  0  0  0  0  0  0  0
   20.2601  -10.7611  -14.9003 O   0  0  0  0  0  0  0  0  0  0  0  0
   20.9811   -9.0318  -16.2839 N   0  0  0  0  0  0  0  0  0  0  0  0
   22.3015   -9.0480  -15.7517 C   0  0  1  0  0  0  0  0  0  0  0  0
   22.9991  -10.2746  -16.2999 C   0  0  0  0  0  0  0  0  0  0  0  0
   24.4060  -10.3879  -15.9077 C   0  0  0  0  0  0  0  0  0  0  0  0
   25.0552   -9.5054  -15.0609 C   0  0  0  0  0  0  0  0  0  0  0  0
   26.3287   -9.9184  -14.9248 N   0  0  0  0  0  0  0  0  0  0  0  0
   26.4901  -11.0326  -15.6636 C   0  0  0  0  0  0  0  0  0  0  0  0
   25.3227  -11.3088  -16.2541 N   0  0  0  0  0  0  0  0  0  0  0  0
   23.0215   -7.8042  -16.0995 C   0  0  0  0  0  0  0  0  0  0  0  0
   22.9214   -7.3633  -17.2677 O   0  0  0  0  0  0  0  0  0  0  0  0
   23.8023   -7.0971  -15.2033 O   0  0  0  0  0  0  0  0  0  0  0  0
  1  2  1  0
  2  3  2  0
  4  2  1  0
  4  5  1  0
  5  6  1  6
  7  8  2  0
  7  5  1  0
  9  7  1  0
 10  9  1  0
 10 11  1  1
 11 12  1  0
 13 12  1  0
 14 15  1  0
 14 13  1  0
 16 17  2  0
 16 10  1  0
 18 16  1  0
 19 18  1  0
 19 20  1  6
 20 21  1  0
 21 22  2  0
 21 25  1  0
 22 23  1  0
 24 23  1  0
 25 24  2  0
 26 19  1  0
 27 26  2  0
 28 26  1  0
M  END
$$$$
