NKH.pdb
     RDKit          3D

 28 28  0  0  1  0  0  0  0  0999 V2000
   14.1743  -12.5968  -14.4176 N   0  0  0  0  0  0  0  0  0  0  0  0
   15.2723  -12.1638  -13.6092 C   0  0  0  0  0  0  0  0  0  0  0  0
   15.8533  -13.0320  -12.9335 O   0  0  0  0  0  0  0  0  0  0  0  0
   15.6551  -10.7579  -13.6104 C   0  0  0  0  0  0  0  0  0  0  0  0
   15.2166  -10.0528  -12.3561 C   0  0  2  0  0  0  0  0  0  0  0  0
   13.7482   -9.8515  -12.4898 N   0  0  0  0  0  0  0  0  0  0  0  0
   15.7788   -8.7058  -12.1938 C   0  0  0  0  0  0  0  0  0  0  0  0
   15.3893   -7.7409  -12.9430 O   0  0  0  0  0  0  0  0  0  0  0  0
   16.7727   -8.3604  -11.2155 N   0  0  0  0  0  0  0  0  0  0  0  0
   17.2492   -7.0057  -11.1102 C   0  0  1  0  0  0  0  0  0  0  0  0
   16.9363   -6.4337   -9.7488 C   0  0  0  0  0  0  0  0  0  0  0  0
   15.4679   -6.1360   -9.5737 C   0  0  0  0  0  0  0  0  0  0  0  0
   15.3318   -5.4348   -8.2348 C   0  0  0  0  0  0  0  0  0  0  0  0
   13.8949   -5.0535   -7.9562 C   0  0  0  0  0  0  0  0  0  0  0  0
   13.8337   -4.5341   -6.6064 N   0  0  0  0  0  0  0  0  0  0  0  0
   18.7134   -6.9727  -11.2762 C   0  0  0  0  0  0  0  0  0  0  0  0
   19.5261   -7.4404  -10.4268 O   0  0  0  0  0  0  0  0  0  0  0  0
   19.2403   -6.3715  -12.4764 N   0  0  0  0  0  0  0  0  0  0  0  0
   20.6403   -6.1394  -12.5910 C   0  0  1  0  0  0  0  0  0  0  0  0
   21.0613   -6.5679  -13.9806 C   0  0  0  0  0  0  0  0  0  0  0  0
   20.9784   -8.0120  -14.2121 C   0  0  0  0  0  0  0  0  0  0  0  0
   20.7664   -8.9523  -13.2180 C   0  0  0  0  0  0  0  0  0  0  0  0
   20.7474  -10.1693  -13.7923 N   0  0  0  0  0  0  0  0  0  0  0  0
   20.9421  -10.0124  -15.1154 C   0  0  0  0  0  0  0  0  0  0  0  0
   21.0808   -8.7052  -15.3599 N   0  0  0  0  0  0  0  0  0  0  0  0
   20.9583   -4.7185  -12.3336 C   0  0  0  0  0  0  0  0  0  0  0  0
   20.0187   -3.8903  -12.3164 O   0  0  0  0  0  0  0  0  0  0  0  0
   22.2404   -4.2509  -12.1093 O   0  0  0  0  0  0  0  0  0  0  0  0
  1  2  1  0
  2  3  2  0
  4  2  1  0
  4  5  1  0
  5  6  1  6
  7  8  2  0
  7  5  1  0
  9  7  1  0
 10  9  1  0
 10 11  1  1
 11 12  1  0
 13 12  1  0
 14 15  1  0
 14 13  1  0
 16 17  2  0
 16 10  1  0
 18 16  1  0
 19 18  1  0
 19 20  1  6
 20 21  1  0
 21 22  2  0
 21 25  1  0
 22 23  1  0
 24 23  1  0
 25 24  2  0
 26 19  1  0
 27 26  2  0
 28 26  1  0
M  END
$$$$
