NKH.pdb
     RDKit          3D

 28 28  0  0  1  0  0  0  0  0999 V2000
   29.5774  -11.3721  -18.0531 N   0  0  0  0  0  0  0  0  0  0  0  0
   28.8920  -10.5544  -17.1001 C   0  0  0  0  0  0  0  0  0  0  0  0
   29.4506  -10.3766  -16.0027 O   0  0  0  0  0  0  0  0  0  0  0  0
   27.5991   -9.9781  -17.4457 C   0  0  0  0  0  0  0  0  0  0  0  0
   26.5788  -10.1907  -16.3611 C   0  0  2  0  0  0  0  0  0  0  0  0
   26.3318  -11.6573  -16.3109 N   0  0  0  0  0  0  0  0  0  0  0  0
   25.2690   -9.5868  -16.6388 C   0  0  0  0  0  0  0  0  0  0  0  0
   25.0986   -8.8416  -17.6682 O   0  0  0  0  0  0  0  0  0  0  0  0
   24.1053   -9.7741  -15.8173 N   0  0  0  0  0  0  0  0  0  0  0  0
   22.8291   -9.2552  -16.2355 C   0  0  1  0  0  0  0  0  0  0  0  0
   21.7208  -10.2197  -15.8891 C   0  0  0  0  0  0  0  0  0  0  0  0
   21.6498  -11.3825  -16.8474 C   0  0  0  0  0  0  0  0  0  0  0  0
   20.5291  -12.2767  -16.3505 C   0  0  0  0  0  0  0  0  0  0  0  0
   20.3453  -13.4801  -17.2481 C   0  0  0  0  0  0  0  0  0  0  0  0
   19.3168  -14.3119  -16.6599 N   0  0  0  0  0  0  0  0  0  0  0  0
   22.5464   -7.9892  -15.5356 C   0  0  0  0  0  0  0  0  0  0  0  0
   22.7457   -7.8122  -14.2987 O   0  0  0  0  0  0  0  0  0  0  0  0
   22.0127   -6.8970  -16.3112 N   0  0  0  0  0  0  0  0  0  0  0  0
   21.7919   -5.6349  -15.6905 C   0  0  1  0  0  0  0  0  0  0  0  0
   21.9764   -4.5679  -16.7484 C   0  0  0  0  0  0  0  0  0  0  0  0
   21.7359   -3.2041  -16.2708 C   0  0  0  0  0  0  0  0  0  0  0  0
   22.7213   -2.3593  -15.7885 C   0  0  0  0  0  0  0  0  0  0  0  0
   22.1408   -1.1951  -15.4441 N   0  0  0  0  0  0  0  0  0  0  0  0
   20.8220   -1.2921  -15.6981 C   0  0  0  0  0  0  0  0  0  0  0  0
   20.5865   -2.5099  -16.1975 N   0  0  0  0  0  0  0  0  0  0  0  0
   20.4455   -5.5791  -15.0819 C   0  0  0  0  0  0  0  0  0  0  0  0
   20.2864   -4.8922  -14.0466 O   0  0  0  0  0  0  0  0  0  0  0  0
   19.3471   -6.2454  -15.5942 O   0  0  0  0  0  0  0  0  0  0  0  0
  1  2  1  0
  2  3  2  0
  4  2  1  0
  4  5  1  0
  5  6  1  6
  7  8  2  0
  7  5  1  0
  9  7  1  0
 10  9  1  0
 10 11  1  1
 11 12  1  0
 13 12  1  0
 14 15  1  0
 14 13  1  0
 16 17  2  0
 16 10  1  0
 18 16  1  0
 19 18  1  0
 19 20  1  6
 20 21  1  0
 21 22  2  0
 21 25  1  0
 22 23  1  0
 24 23  1  0
 25 24  2  0
 26 19  1  0
 27 26  2  0
 28 26  1  0
M  END
$$$$
