NKH.pdb
     RDKit          3D

 28 28  0  0  1  0  0  0  0  0999 V2000
   23.5849  -16.6432  -20.7291 N   0  0  0  0  0  0  0  0  0  0  0  0
   22.5604  -16.7734  -19.7392 C   0  0  0  0  0  0  0  0  0  0  0  0
   21.5907  -15.9987  -19.8244 O   0  0  0  0  0  0  0  0  0  0  0  0
   22.6923  -17.7832  -18.6970 C   0  0  0  0  0  0  0  0  0  0  0  0
   23.7052  -17.3910  -17.6565 C   0  0  2  0  0  0  0  0  0  0  0  0
   24.7392  -16.5931  -18.3696 N   0  0  0  0  0  0  0  0  0  0  0  0
   24.4300  -18.5227  -17.0640 C   0  0  0  0  0  0  0  0  0  0  0  0
   23.7939  -19.5357  -16.6021 O   0  0  0  0  0  0  0  0  0  0  0  0
   25.8609  -18.5960  -16.9580 N   0  0  0  0  0  0  0  0  0  0  0  0
   26.4860  -19.7294  -16.3273 C   0  0  1  0  0  0  0  0  0  0  0  0
   27.9565  -19.7842  -16.6637 C   0  0  0  0  0  0  0  0  0  0  0  0
   28.6572  -20.9394  -15.9930 C   0  0  0  0  0  0  0  0  0  0  0  0
   28.9814  -21.9364  -17.0901 C   0  0  0  0  0  0  0  0  0  0  0  0
   29.6327  -23.1808  -16.5289 C   0  0  0  0  0  0  0  0  0  0  0  0
   29.8445  -24.0980  -17.6286 N   0  0  0  0  0  0  0  0  0  0  0  0
   26.3731  -19.6158  -14.8620 C   0  0  0  0  0  0  0  0  0  0  0  0
   26.3659  -18.5126  -14.2427 O   0  0  0  0  0  0  0  0  0  0  0  0
   26.2658  -20.8351  -14.0997 N   0  0  0  0  0  0  0  0  0  0  0  0
   25.8941  -20.7763  -12.7266 C   0  0  1  0  0  0  0  0  0  0  0  0
   24.4404  -20.3582  -12.6652 C   0  0  0  0  0  0  0  0  0  0  0  0
   23.8636  -20.3959  -11.3191 C   0  0  0  0  0  0  0  0  0  0  0  0
   24.5851  -20.6562  -10.1663 C   0  0  0  0  0  0  0  0  0  0  0  0
   23.7361  -20.6083   -9.1232 N   0  0  0  0  0  0  0  0  0  0  0  0
   22.5068  -20.3260   -9.5949 C   0  0  0  0  0  0  0  0  0  0  0  0
   22.5936  -20.1994  -10.9232 N   0  0  0  0  0  0  0  0  0  0  0  0
   26.1199  -22.0801  -12.0667 C   0  0  0  0  0  0  0  0  0  0  0  0
   25.7376  -23.1195  -12.6521 O   0  0  0  0  0  0  0  0  0  0  0  0
   26.7324  -22.2169  -10.8343 O   0  0  0  0  0  0  0  0  0  0  0  0
  1  2  1  0
  2  3  2  0
  4  2  1  0
  4  5  1  0
  5  6  1  6
  7  8  2  0
  7  5  1  0
  9  7  1  0
 10  9  1  0
 10 11  1  1
 11 12  1  0
 13 12  1  0
 14 15  1  0
 14 13  1  0
 16 17  2  0
 16 10  1  0
 18 16  1  0
 19 18  1  0
 19 20  1  6
 20 21  1  0
 21 22  2  0
 21 25  1  0
 22 23  1  0
 24 23  1  0
 25 24  2  0
 26 19  1  0
 27 26  2  0
 28 26  1  0
M  END
$$$$
