NKH.pdb
     RDKit          3D

 28 28  0  0  1  0  0  0  0  0999 V2000
   28.4924  -19.6634  -19.5639 N   0  0  0  0  0  0  0  0  0  0  0  0
   28.6870  -20.2165  -18.2590 C   0  0  0  0  0  0  0  0  0  0  0  0
   29.8365  -20.5962  -17.9720 O   0  0  0  0  0  0  0  0  0  0  0  0
   27.5581  -20.3105  -17.3426 C   0  0  0  0  0  0  0  0  0  0  0  0
   27.6665  -21.5049  -16.4347 C   0  0  2  0  0  0  0  0  0  0  0  0
   27.4306  -22.6968  -17.2938 N   0  0  0  0  0  0  0  0  0  0  0  0
   26.6320  -21.5669  -15.3940 C   0  0  0  0  0  0  0  0  0  0  0  0
   25.5013  -22.1238  -15.6297 O   0  0  0  0  0  0  0  0  0  0  0  0
   26.7899  -21.0351  -14.0687 N   0  0  0  0  0  0  0  0  0  0  0  0
   25.7040  -21.0996  -13.1254 C   0  0  1  0  0  0  0  0  0  0  0  0
   26.1994  -20.8456  -11.7224 C   0  0  0  0  0  0  0  0  0  0  0  0
   25.1190  -21.0373  -10.6874 C   0  0  0  0  0  0  0  0  0  0  0  0
   25.7671  -20.7744   -9.3408 C   0  0  0  0  0  0  0  0  0  0  0  0
   24.8221  -21.0916   -8.2032 C   0  0  0  0  0  0  0  0  0  0  0  0
   25.4677  -20.6873   -6.9722 N   0  0  0  0  0  0  0  0  0  0  0  0
   24.7056  -20.0605  -13.4352 C   0  0  0  0  0  0  0  0  0  0  0  0
   25.0053  -18.8867  -13.8002 O   0  0  0  0  0  0  0  0  0  0  0  0
   23.3118  -20.4095  -13.3121 N   0  0  0  0  0  0  0  0  0  0  0  0
   22.3253  -19.6004  -13.9437 C   0  0  1  0  0  0  0  0  0  0  0  0
   22.6138  -19.6061  -15.4298 C   0  0  0  0  0  0  0  0  0  0  0  0
   21.6189  -18.8936  -16.2350 C   0  0  0  0  0  0  0  0  0  0  0  0
   20.5366  -18.2062  -15.7120 C   0  0  0  0  0  0  0  0  0  0  0  0
   19.8428  -17.6784  -16.7372 N   0  0  0  0  0  0  0  0  0  0  0  0
   20.4628  -18.0186  -17.8832 C   0  0  0  0  0  0  0  0  0  0  0  0
   21.5352  -18.7531  -17.5698 N   0  0  0  0  0  0  0  0  0  0  0  0
   20.9669  -20.1024  -13.6452 C   0  0  0  0  0  0  0  0  0  0  0  0
   20.8094  -21.3334  -13.4754 O   0  0  0  0  0  0  0  0  0  0  0  0
   19.8558  -19.2853  -13.5422 O   0  0  0  0  0  0  0  0  0  0  0  0
  1  2  1  0
  2  3  2  0
  4  2  1  0
  4  5  1  0
  5  6  1  6
  7  8  2  0
  7  5  1  0
  9  7  1  0
 10  9  1  0
 10 11  1  1
 11 12  1  0
 13 12  1  0
 14 15  1  0
 14 13  1  0
 16 17  2  0
 16 10  1  0
 18 16  1  0
 19 18  1  0
 19 20  1  6
 20 21  1  0
 21 22  2  0
 21 25  1  0
 22 23  1  0
 24 23  1  0
 25 24  2  0
 26 19  1  0
 27 26  2  0
 28 26  1  0
M  END
$$$$
