NRE.pdb
     RDKit          3D

 29 28  0  0  1  0  0  0  0  0999 V2000
    7.3608  -13.7152   13.7187 N   0  0  0  0  0  0  0  0  0  0  0  0
    7.5007  -15.0740   14.1052 C   0  0  0  0  0  0  0  0  0  0  0  0
    7.3741  -15.9857   13.2783 O   0  0  0  0  0  0  0  0  0  0  0  0
    7.8023  -15.3916   15.5200 C   0  0  0  0  0  0  0  0  0  0  0  0
    9.2848  -15.4453   15.7274 C   0  0  2  0  0  0  0  0  0  0  0  0
    9.7984  -16.5729   14.9699 N   0  0  0  0  0  0  0  0  0  0  0  0
    9.5769  -15.6622   17.1871 C   0  0  0  0  0  0  0  0  0  0  0  0
    9.1602  -14.8581   18.0602 O   0  0  0  0  0  0  0  0  0  0  0  0
    8.2908  -21.6756   21.3779 N   0  0  0  0  0  0  0  0  0  0  0  0
    8.1636  -22.0637   20.0166 C   0  0  0  0  0  0  0  0  0  0  0  0
    7.2546  -22.9268   19.6931 N   0  0  0  0  0  0  0  0  0  0  0  0
    8.9833  -21.5546   18.9852 N   0  0  0  0  0  0  0  0  0  0  0  0
   10.0428  -20.6282   19.2575 C   0  0  0  0  0  0  0  0  0  0  0  0
    9.6177  -19.1874   19.0219 C   0  0  0  0  0  0  0  0  0  0  0  0
   10.8519  -18.3646   19.2838 C   0  0  0  0  0  0  0  0  0  0  0  0
   10.6771  -16.8837   19.0656 C   0  0  2  0  0  0  0  0  0  0  0  0
   10.3262  -16.7700   17.6403 N   0  0  0  0  0  0  0  0  0  0  0  0
   11.9396  -16.1832   19.3494 C   0  0  0  0  0  0  0  0  0  0  0  0
   12.9017  -16.1479   18.5660 O   0  0  0  0  0  0  0  0  0  0  0  0
    7.1755  -23.2914   18.7229 N   0  0  0  0  0  0  0  0  0  0  0  0
   12.1077  -15.4929   20.5847 C   0  0  2  0  0  0  0  0  0  0  0  0
   13.4388  -15.3448   21.2076 C   0  0  0  0  0  0  0  0  0  0  0  0
   13.4584  -16.3524   22.3204 C   0  0  0  0  0  0  0  0  0  0  0  0
   12.6624  -16.0086   23.5220 C   0  0  0  0  0  0  0  0  0  0  0  0
   12.7893  -16.9916   24.6109 O   0  0  0  0  0  0  0  0  0  0  0  0
   13.5681  -16.8529   25.5780 C   0  0  0  0  0  0  0  0  0  0  0  0
   14.4431  -15.6227   20.1683 O   0  0  0  0  0  0  0  0  0  0  0  0
   14.8717  -16.9072   19.8891 O   0  0  0  0  0  0  0  0  0  0  0  0
   12.0174  -18.1545   24.6025 O   0  0  0  0  0  0  0  0  0  0  0  0
  2  1  1  0
  2  3  2  0
  4  5  1  0
  4  2  1  0
  5  7  1  0
  5  6  1  6
  7  8  2  0
 10  9  1  0
 11 10  2  0
 12 10  1  0
 13 14  1  0
 13 12  1  0
 16 15  1  6
 15 14  1  0
 16 17  1  0
 17  7  1  0
 18 19  2  0
 18 16  1  0
 20 18  1  0
 21 22  1  1
 21 20  1  0
 22 23  1  0
 23 24  1  0
 24 25  2  0
 26 21  1  0
 27 26  1  0
 28 24  1  0
 29 26  2  0
M  END
$$$$
