NRE.pdb
     RDKit          3D

 29 28  0  0  1  0  0  0  0  0999 V2000
   18.5818  -11.0384   14.7879 N   0  0  0  0  0  0  0  0  0  0  0  0
   18.4121  -12.3415   15.3248 C   0  0  0  0  0  0  0  0  0  0  0  0
   18.9285  -13.3251   14.7801 O   0  0  0  0  0  0  0  0  0  0  0  0
   17.6037  -12.5130   16.5540 C   0  0  0  0  0  0  0  0  0  0  0  0
   16.4048  -13.3627   16.2633 C   0  0  2  0  0  0  0  0  0  0  0  0
   15.5197  -12.6010   15.4000 N   0  0  0  0  0  0  0  0  0  0  0  0
   15.6883  -13.6712   17.5497 C   0  0  0  0  0  0  0  0  0  0  0  0
   15.0962  -12.7695   18.1966 O   0  0  0  0  0  0  0  0  0  0  0  0
   12.0539  -20.1801   16.0120 N   0  0  0  0  0  0  0  0  0  0  0  0
   13.0843  -20.1611   16.9907 C   0  0  0  0  0  0  0  0  0  0  0  0
   14.2463  -20.6442   16.6870 N   0  0  0  0  0  0  0  0  0  0  0  0
   12.9091  -19.6388   18.2912 N   0  0  0  0  0  0  0  0  0  0  0  0
   12.7624  -18.2314   18.5207 C   0  0  0  0  0  0  0  0  0  0  0  0
   14.0932  -17.5583   18.8176 C   0  0  0  0  0  0  0  0  0  0  0  0
   13.7719  -16.0931   18.9540 C   0  0  0  0  0  0  0  0  0  0  0  0
   14.9404  -15.2285   19.3516 C   0  0  2  0  0  0  0  0  0  0  0  0
   15.6481  -14.9772   18.0852 N   0  0  0  0  0  0  0  0  0  0  0  0
   15.8034  -15.9559   20.2958 C   0  0  0  0  0  0  0  0  0  0  0  0
   16.2033  -17.1166   20.1132 O   0  0  0  0  0  0  0  0  0  0  0  0
   15.0193  -20.6712   17.3813 N   0  0  0  0  0  0  0  0  0  0  0  0
   16.2266  -15.3265   21.5022 C   0  0  1  0  0  0  0  0  0  0  0  0
   17.0992  -16.0243   22.4683 C   0  0  0  0  0  0  0  0  0  0  0  0
   18.1783  -15.0343   22.7988 C   0  0  0  0  0  0  0  0  0  0  0  0
   19.1287  -14.7205   21.7062 C   0  0  0  0  0  0  0  0  0  0  0  0
   20.2001  -13.7940   22.1084 O   0  0  0  0  0  0  0  0  0  0  0  0
   20.2507  -13.2427   23.2284 C   0  0  0  0  0  0  0  0  0  0  0  0
   16.2710  -16.3761   23.6330 O   0  0  0  0  0  0  0  0  0  0  0  0
   14.9428  -16.0040   23.7261 O   0  0  0  0  0  0  0  0  0  0  0  0
   21.2342  -13.4870   21.2226 O   0  0  0  0  0  0  0  0  0  0  0  0
  2  1  1  0
  2  3  2  0
  4  5  1  0
  4  2  1  0
  5  7  1  0
  5  6  1  6
  7  8  2  0
 10  9  1  0
 11 10  2  0
 12 10  1  0
 13 14  1  0
 13 12  1  0
 16 15  1  6
 15 14  1  0
 16 17  1  0
 17  7  1  0
 18 19  2  0
 18 16  1  0
 20 18  1  0
 21 22  1  1
 21 20  1  0
 22 23  1  0
 23 24  1  0
 24 25  2  0
 26 21  1  0
 27 26  1  0
 28 24  1  0
 29 26  2  0
M  END
$$$$
