NRE.pdb
     RDKit          3D

 29 28  0  0  1  0  0  0  0  0999 V2000
    3.8006  -21.8214   24.9034 N   0  0  0  0  0  0  0  0  0  0  0  0
    4.7937  -22.6237   24.2826 C   0  0  0  0  0  0  0  0  0  0  0  0
    4.6041  -23.8307   24.0871 O   0  0  0  0  0  0  0  0  0  0  0  0
    6.0695  -21.9960   23.8681 C   0  0  0  0  0  0  0  0  0  0  0  0
    6.1035  -20.5656   24.3117 C   0  0  2  0  0  0  0  0  0  0  0  0
    4.8377  -19.9565   23.9436 N   0  0  0  0  0  0  0  0  0  0  0  0
    7.2176  -19.8487   23.5988 C   0  0  0  0  0  0  0  0  0  0  0  0
    8.3305  -20.4030   23.4081 O   0  0  0  0  0  0  0  0  0  0  0  0
    6.6767  -12.1676   19.1346 N   0  0  0  0  0  0  0  0  0  0  0  0
    7.8021  -12.9019   18.6716 C   0  0  0  0  0  0  0  0  0  0  0  0
    8.2983  -12.6218   17.5092 N   0  0  0  0  0  0  0  0  0  0  0  0
    8.4163  -13.9321   19.4176 N   0  0  0  0  0  0  0  0  0  0  0  0
    7.6614  -14.7687   20.3036 C   0  0  0  0  0  0  0  0  0  0  0  0
    8.5205  -15.8499   20.9404 C   0  0  0  0  0  0  0  0  0  0  0  0
    7.5696  -16.6693   21.7729 C   0  0  0  0  0  0  0  0  0  0  0  0
    8.1969  -17.8570   22.4562 C   0  0  2  0  0  0  0  0  0  0  0  0
    7.0656  -18.5308   23.1149 N   0  0  0  0  0  0  0  0  0  0  0  0
    9.1822  -17.4007   23.4493 C   0  0  0  0  0  0  0  0  0  0  0  0
    8.8869  -16.7693   24.4764 O   0  0  0  0  0  0  0  0  0  0  0  0
    9.1206  -13.1351   17.1340 N   0  0  0  0  0  0  0  0  0  0  0  0
   10.5665  -17.6795   23.2577 C   0  0  2  0  0  0  0  0  0  0  0  0
   11.5914  -17.1568   24.1840 C   0  0  0  0  0  0  0  0  0  0  0  0
   12.1014  -18.3639   24.9165 C   0  0  0  0  0  0  0  0  0  0  0  0
   11.8413  -18.3968   26.3748 C   0  0  0  0  0  0  0  0  0  0  0  0
   12.4484  -19.5540   27.0533 O   0  0  0  0  0  0  0  0  0  0  0  0
   13.6772  -19.6754   27.2434 C   0  0  0  0  0  0  0  0  0  0  0  0
   12.6279  -16.5038   23.3683 O   0  0  0  0  0  0  0  0  0  0  0  0
   12.8188  -16.8207   22.0362 O   0  0  0  0  0  0  0  0  0  0  0  0
   11.6456  -20.5938   27.5252 O   0  0  0  0  0  0  0  0  0  0  0  0
  2  1  1  0
  2  3  2  0
  4  5  1  0
  4  2  1  0
  5  7  1  0
  5  6  1  6
  7  8  2  0
 10  9  1  0
 11 10  2  0
 12 10  1  0
 13 14  1  0
 13 12  1  0
 16 15  1  1
 15 14  1  0
 16 17  1  0
 17  7  1  0
 18 19  2  0
 18 16  1  0
 20 18  1  0
 21 22  1  6
 21 20  1  0
 22 23  1  0
 23 24  1  0
 24 25  2  0
 26 21  1  0
 27 26  1  0
 28 24  1  0
 29 26  2  0
M  END
$$$$
