NRE.pdb
     RDKit          3D

 29 28  0  0  1  0  0  0  0  0999 V2000
   15.6186  -15.8299   16.6782 N   0  0  0  0  0  0  0  0  0  0  0  0
   15.0021  -14.5711   16.9031 C   0  0  0  0  0  0  0  0  0  0  0  0
   15.4734  -13.5368   16.4142 O   0  0  0  0  0  0  0  0  0  0  0  0
   13.7789  -14.5082   17.7358 C   0  0  0  0  0  0  0  0  0  0  0  0
   13.4863  -15.8571   18.3176 C   0  0  2  0  0  0  0  0  0  0  0  0
   12.5485  -16.5275   17.4345 N   0  0  0  0  0  0  0  0  0  0  0  0
   12.8505  -15.6895   19.6708 C   0  0  0  0  0  0  0  0  0  0  0  0
   13.3960  -14.9913   20.5636 O   0  0  0  0  0  0  0  0  0  0  0  0
    9.4451  -12.2279   19.8666 N   0  0  0  0  0  0  0  0  0  0  0  0
    8.2079  -12.6620   19.3182 C   0  0  0  0  0  0  0  0  0  0  0  0
    7.3756  -11.7770   18.8708 N   0  0  0  0  0  0  0  0  0  0  0  0
    7.8313  -14.0206   19.2333 N   0  0  0  0  0  0  0  0  0  0  0  0
    8.7411  -15.0738   19.5762 C   0  0  0  0  0  0  0  0  0  0  0  0
    8.7160  -15.3900   21.0634 C   0  0  0  0  0  0  0  0  0  0  0  0
    9.6398  -16.5678   21.2315 C   0  0  0  0  0  0  0  0  0  0  0  0
   11.0967  -16.2082   21.3698 C   0  0  2  0  0  0  0  0  0  0  0  0
   11.6216  -16.3037   19.9976 N   0  0  0  0  0  0  0  0  0  0  0  0
   11.7692  -17.1735   22.2537 C   0  0  0  0  0  0  0  0  0  0  0  0
   11.8266  -18.3929   22.0291 O   0  0  0  0  0  0  0  0  0  0  0  0
    6.4710  -12.0539   18.4402 N   0  0  0  0  0  0  0  0  0  0  0  0
   12.4035  -16.7226   23.4474 C   0  0  2  0  0  0  0  0  0  0  0  0
   13.1310  -17.6560   24.3312 C   0  0  0  0  0  0  0  0  0  0  0  0
   14.4417  -16.9798   24.6116 C   0  0  0  0  0  0  0  0  0  0  0  0
   15.2992  -16.7113   23.4333 C   0  0  0  0  0  0  0  0  0  0  0  0
   16.5852  -16.0809   23.7750 O   0  0  0  0  0  0  0  0  0  0  0  0
   16.9731  -15.8971   24.9483 C   0  0  0  0  0  0  0  0  0  0  0  0
   12.3140  -17.8414   25.5413 O   0  0  0  0  0  0  0  0  0  0  0  0
   12.6362  -18.7782   26.5058 O   0  0  0  0  0  0  0  0  0  0  0  0
   17.4480  -15.6505   22.7656 O   0  0  0  0  0  0  0  0  0  0  0  0
  2  1  1  0
  2  3  2  0
  4  5  1  0
  4  2  1  0
  5  7  1  0
  5  6  1  6
  7  8  2  0
 10  9  1  0
 11 10  2  0
 12 10  1  0
 13 14  1  0
 13 12  1  0
 16 15  1  6
 15 14  1  0
 16 17  1  0
 17  7  1  0
 18 19  2  0
 18 16  1  0
 20 18  1  0
 21 22  1  6
 21 20  1  0
 22 23  1  0
 23 24  1  0
 24 25  2  0
 26 21  1  0
 27 26  1  0
 28 24  1  0
 29 26  2  0
M  END
$$$$
