NRE.pdb
     RDKit          3D

 29 28  0  0  1  0  0  0  0  0999 V2000
   17.8186  -19.3963   15.7050 N   0  0  0  0  0  0  0  0  0  0  0  0
   16.4338  -19.4452   16.0135 C   0  0  0  0  0  0  0  0  0  0  0  0
   15.6705  -20.1940   15.3909 O   0  0  0  0  0  0  0  0  0  0  0  0
   15.9078  -18.5836   17.0973 C   0  0  0  0  0  0  0  0  0  0  0  0
   14.6730  -17.8740   16.6328 C   0  0  2  0  0  0  0  0  0  0  0  0
   15.0814  -16.8330   15.7062 N   0  0  0  0  0  0  0  0  0  0  0  0
   13.9891  -17.2388   17.8126 C   0  0  0  0  0  0  0  0  0  0  0  0
   14.6047  -16.4484   18.5732 O   0  0  0  0  0  0  0  0  0  0  0  0
    7.0381  -12.9568   18.1659 N   0  0  0  0  0  0  0  0  0  0  0  0
    7.6550  -12.9888   19.4459 C   0  0  0  0  0  0  0  0  0  0  0  0
    7.6430  -11.9188   20.1746 N   0  0  0  0  0  0  0  0  0  0  0  0
    8.2879  -14.1361   19.9733 N   0  0  0  0  0  0  0  0  0  0  0  0
    9.1708  -14.9378   19.1781 C   0  0  0  0  0  0  0  0  0  0  0  0
    9.6111  -16.1982   19.9061 C   0  0  0  0  0  0  0  0  0  0  0  0
   10.5107  -16.9193   18.9368 C   0  0  0  0  0  0  0  0  0  0  0  0
   11.9832  -16.7838   19.2272 C   0  0  2  0  0  0  0  0  0  0  0  0
   12.6350  -17.4989   18.1174 N   0  0  0  0  0  0  0  0  0  0  0  0
   12.3004  -17.4203   20.5154 C   0  0  0  0  0  0  0  0  0  0  0  0
   12.1213  -18.6252   20.7537 O   0  0  0  0  0  0  0  0  0  0  0  0
    8.1565  -11.8731   21.0772 N   0  0  0  0  0  0  0  0  0  0  0  0
   12.8462  -16.6427   21.5775 C   0  0  2  0  0  0  0  0  0  0  0  0
   13.0762  -17.2234   22.9160 C   0  0  0  0  0  0  0  0  0  0  0  0
   14.2335  -16.4502   23.4786 C   0  0  0  0  0  0  0  0  0  0  0  0
   15.5531  -16.7122   22.8577 C   0  0  0  0  0  0  0  0  0  0  0  0
   16.6530  -15.9515   23.4737 O   0  0  0  0  0  0  0  0  0  0  0  0
   17.4082  -16.4197   24.3520 C   0  0  0  0  0  0  0  0  0  0  0  0
   11.8382  -17.0429   23.6912 O   0  0  0  0  0  0  0  0  0  0  0  0
   11.6468  -17.6520   24.9175 O   0  0  0  0  0  0  0  0  0  0  0  0
   16.9009  -14.6338   23.0857 O   0  0  0  0  0  0  0  0  0  0  0  0
  2  1  1  0
  2  3  2  0
  4  5  1  0
  4  2  1  0
  5  7  1  0
  5  6  1  6
  7  8  2  0
 10  9  1  0
 11 10  2  0
 12 10  1  0
 13 14  1  0
 13 12  1  0
 16 15  1  6
 15 14  1  0
 16 17  1  0
 17  7  1  0
 18 19  2  0
 18 16  1  0
 20 18  1  0
 21 22  1  6
 21 20  1  0
 22 23  1  0
 23 24  1  0
 24 25  2  0
 26 21  1  0
 27 26  1  0
 28 24  1  0
 29 26  2  0
M  END
$$$$
