NRE.pdb
     RDKit          3D

 29 28  0  0  1  0  0  0  0  0999 V2000
    6.9166  -12.8580   18.6832 N   0  0  0  0  0  0  0  0  0  0  0  0
    7.7759  -12.5706   19.7760 C   0  0  0  0  0  0  0  0  0  0  0  0
    7.4696  -11.7167   20.6174 O   0  0  0  0  0  0  0  0  0  0  0  0
    9.0535  -13.3096   19.8996 C   0  0  0  0  0  0  0  0  0  0  0  0
    9.2423  -14.2064   18.7147 C   0  0  2  0  0  0  0  0  0  0  0  0
    8.1542  -15.1682   18.7081 N   0  0  0  0  0  0  0  0  0  0  0  0
   10.5467  -14.9437   18.8499 C   0  0  0  0  0  0  0  0  0  0  0  0
   10.6694  -15.9069   19.6495 O   0  0  0  0  0  0  0  0  0  0  0  0
   12.4930  -17.7295   14.0927 N   0  0  0  0  0  0  0  0  0  0  0  0
   12.4925  -16.6537   13.1640 C   0  0  0  0  0  0  0  0  0  0  0  0
   11.7772  -16.7533   12.0896 N   0  0  0  0  0  0  0  0  0  0  0  0
   13.2377  -15.4683   13.3499 N   0  0  0  0  0  0  0  0  0  0  0  0
   13.8400  -15.1512   14.6114 C   0  0  0  0  0  0  0  0  0  0  0  0
   12.9701  -15.5766   15.7839 C   0  0  0  0  0  0  0  0  0  0  0  0
   13.7059  -15.1069   17.0113 C   0  0  0  0  0  0  0  0  0  0  0  0
   12.9566  -15.2995   18.3046 C   0  0  2  0  0  0  0  0  0  0  0  0
   11.6840  -14.5906   18.0909 N   0  0  0  0  0  0  0  0  0  0  0  0
   13.7100  -14.6954   19.4148 C   0  0  0  0  0  0  0  0  0  0  0  0
   13.5061  -13.5494   19.8458 O   0  0  0  0  0  0  0  0  0  0  0  0
   11.7027  -15.9667   11.4143 N   0  0  0  0  0  0  0  0  0  0  0  0
   14.7426  -15.4362   20.0596 C   0  0  1  0  0  0  0  0  0  0  0  0
   15.3598  -14.9620   21.3149 C   0  0  0  0  0  0  0  0  0  0  0  0
   14.2549  -15.0094   22.3303 C   0  0  0  0  0  0  0  0  0  0  0  0
   13.8281  -16.3606   22.7632 C   0  0  0  0  0  0  0  0  0  0  0  0
   12.8653  -16.3431   23.8771 O   0  0  0  0  0  0  0  0  0  0  0  0
   12.5349  -15.3039   24.4868 C   0  0  0  0  0  0  0  0  0  0  0  0
   16.4669  -15.8781   21.6330 O   0  0  0  0  0  0  0  0  0  0  0  0
   17.3919  -15.5938   22.6204 O   0  0  0  0  0  0  0  0  0  0  0  0
   12.2656  -17.5278   24.3075 O   0  0  0  0  0  0  0  0  0  0  0  0
  2  1  1  0
  2  3  2  0
  4  5  1  0
  4  2  1  0
  5  7  1  0
  5  6  1  1
  7  8  2  0
 10  9  1  0
 11 10  2  0
 12 10  1  0
 13 14  1  0
 13 12  1  0
 16 15  1  6
 15 14  1  0
 16 17  1  0
 17  7  1  0
 18 19  2  0
 18 16  1  0
 20 18  1  0
 21 22  1  6
 21 20  1  0
 22 23  1  0
 23 24  1  0
 24 25  2  0
 26 21  1  0
 27 26  1  0
 28 24  1  0
 29 26  2  0
M  END
$$$$
