NRE.pdb
     RDKit          3D

 29 28  0  0  1  0  0  0  0  0999 V2000
   12.6859  -15.9444   15.3551 N   0  0  0  0  0  0  0  0  0  0  0  0
   13.5429  -15.3416   16.3129 C   0  0  0  0  0  0  0  0  0  0  0  0
   14.7559  -15.2277   16.0971 O   0  0  0  0  0  0  0  0  0  0  0  0
   12.9653  -14.8465   17.5837 C   0  0  0  0  0  0  0  0  0  0  0  0
   13.8972  -15.1423   18.7185 C   0  0  2  0  0  0  0  0  0  0  0  0
   14.3363  -16.5201   18.5848 N   0  0  0  0  0  0  0  0  0  0  0  0
   13.1615  -14.9872   20.0216 C   0  0  0  0  0  0  0  0  0  0  0  0
   13.5486  -14.1672   20.8934 O   0  0  0  0  0  0  0  0  0  0  0  0
    8.4086  -13.9183   16.8757 N   0  0  0  0  0  0  0  0  0  0  0  0
    8.0516  -12.9676   17.8700 C   0  0  0  0  0  0  0  0  0  0  0  0
    8.0057  -11.7138   17.5508 N   0  0  0  0  0  0  0  0  0  0  0  0
    7.7407  -13.3184   19.2023 N   0  0  0  0  0  0  0  0  0  0  0  0
    8.1694  -14.5630   19.7697 C   0  0  0  0  0  0  0  0  0  0  0  0
    9.6779  -14.6188   19.9532 C   0  0  0  0  0  0  0  0  0  0  0  0
    9.8901  -15.3521   21.2516 C   0  0  0  0  0  0  0  0  0  0  0  0
   11.3348  -15.5736   21.6187 C   0  0  2  0  0  0  0  0  0  0  0  0
   12.0114  -15.7491   20.3229 N   0  0  0  0  0  0  0  0  0  0  0  0
   11.4622  -16.7865   22.4421 C   0  0  0  0  0  0  0  0  0  0  0  0
   11.6055  -17.9273   21.9746 O   0  0  0  0  0  0  0  0  0  0  0  0
    7.7939  -10.9826   18.2585 N   0  0  0  0  0  0  0  0  0  0  0  0
   11.4234  -16.6886   23.8632 C   0  0  1  0  0  0  0  0  0  0  0  0
   11.6560  -17.8678   24.7216 C   0  0  0  0  0  0  0  0  0  0  0  0
   13.0661  -18.2892   24.4249 C   0  0  0  0  0  0  0  0  0  0  0  0
   14.1293  -17.3562   24.8662 C   0  0  0  0  0  0  0  0  0  0  0  0
   15.4608  -17.6894   24.3332 O   0  0  0  0  0  0  0  0  0  0  0  0
   16.0280  -17.0325   23.4345 C   0  0  0  0  0  0  0  0  0  0  0  0
   11.4702  -17.4383   26.1170 O   0  0  0  0  0  0  0  0  0  0  0  0
   11.5407  -18.3283   27.1726 O   0  0  0  0  0  0  0  0  0  0  0  0
   16.1623  -18.7894   24.8294 O   0  0  0  0  0  0  0  0  0  0  0  0
  2  1  1  0
  2  3  2  0
  4  5  1  0
  4  2  1  0
  5  7  1  0
  5  6  1  6
  7  8  2  0
 10  9  1  0
 11 10  2  0
 12 10  1  0
 13 14  1  0
 13 12  1  0
 16 15  1  6
 15 14  1  0
 16 17  1  0
 17  7  1  0
 18 19  2  0
 18 16  1  0
 20 18  1  0
 21 22  1  6
 21 20  1  0
 22 23  1  0
 23 24  1  0
 24 25  2  0
 26 21  1  0
 27 26  1  0
 28 24  1  0
 29 26  2  0
M  END
$$$$
