NRE.pdb
     RDKit          3D

 29 28  0  0  1  0  0  0  0  0999 V2000
   12.3506  -19.8303   15.4968 N   0  0  0  0  0  0  0  0  0  0  0  0
   13.7699  -19.8397   15.5212 C   0  0  0  0  0  0  0  0  0  0  0  0
   14.3926  -20.8529   15.8626 O   0  0  0  0  0  0  0  0  0  0  0  0
   14.5038  -18.6139   15.1305 C   0  0  0  0  0  0  0  0  0  0  0  0
   13.5345  -17.5174   14.8111 C   0  0  2  0  0  0  0  0  0  0  0  0
   14.1171  -16.7021   13.7600 N   0  0  0  0  0  0  0  0  0  0  0  0
   13.3254  -16.6649   16.0330 C   0  0  0  0  0  0  0  0  0  0  0  0
   14.2912  -16.0908   16.5985 O   0  0  0  0  0  0  0  0  0  0  0  0
    9.1009  -12.4193   21.1756 N   0  0  0  0  0  0  0  0  0  0  0  0
    8.1588  -12.1925   20.1359 C   0  0  0  0  0  0  0  0  0  0  0  0
    7.2306  -11.3076   20.3131 N   0  0  0  0  0  0  0  0  0  0  0  0
    8.1787  -12.8869   18.9062 N   0  0  0  0  0  0  0  0  0  0  0  0
    8.4928  -14.2839   18.8388 C   0  0  0  0  0  0  0  0  0  0  0  0
    9.9748  -14.5482   19.0533 C   0  0  0  0  0  0  0  0  0  0  0  0
   10.4217  -15.3035   17.8292 C   0  0  0  0  0  0  0  0  0  0  0  0
   11.8915  -15.6349   17.7977 C   0  0  2  0  0  0  0  0  0  0  0  0
   12.0449  -16.4719   16.5962 N   0  0  0  0  0  0  0  0  0  0  0  0
   12.2615  -16.3864   19.0075 C   0  0  0  0  0  0  0  0  0  0  0  0
   11.9179  -17.5591   19.2249 O   0  0  0  0  0  0  0  0  0  0  0  0
    6.4745  -11.1691   19.6135 N   0  0  0  0  0  0  0  0  0  0  0  0
   13.0599  -15.7676   20.0127 C   0  0  2  0  0  0  0  0  0  0  0  0
   13.5566  -16.5289   21.1768 C   0  0  0  0  0  0  0  0  0  0  0  0
   14.8715  -15.8920   21.5221 C   0  0  0  0  0  0  0  0  0  0  0  0
   15.5279  -16.3847   22.7557 C   0  0  0  0  0  0  0  0  0  0  0  0
   16.8151  -15.7278   23.0381 O   0  0  0  0  0  0  0  0  0  0  0  0
   17.0465  -15.0850   24.0841 C   0  0  0  0  0  0  0  0  0  0  0  0
   12.5575  -16.3929   22.2489 O   0  0  0  0  0  0  0  0  0  0  0  0
   12.4599  -17.3095   23.2793 O   0  0  0  0  0  0  0  0  0  0  0  0
   17.8601  -15.8017   22.1157 O   0  0  0  0  0  0  0  0  0  0  0  0
  2  1  1  0
  2  3  2  0
  4  5  1  0
  4  2  1  0
  5  7  1  0
  5  6  1  6
  7  8  2  0
 10  9  1  0
 11 10  2  0
 12 10  1  0
 13 14  1  0
 13 12  1  0
 16 15  1  1
 15 14  1  0
 16 17  1  0
 17  7  1  0
 18 19  2  0
 18 16  1  0
 20 18  1  0
 21 22  1  6
 21 20  1  0
 22 23  1  0
 23 24  1  0
 24 25  2  0
 26 21  1  0
 27 26  1  0
 28 24  1  0
 29 26  2  0
M  END
$$$$
