NRE.pdb
     RDKit          3D

 29 28  0  0  1  0  0  0  0  0999 V2000
    7.2120  -12.9403   16.4985 N   0  0  0  0  0  0  0  0  0  0  0  0
    8.4107  -13.1219   17.2370 C   0  0  0  0  0  0  0  0  0  0  0  0
    9.5109  -13.1268   16.6709 O   0  0  0  0  0  0  0  0  0  0  0  0
    8.3301  -13.3069   18.7043 C   0  0  0  0  0  0  0  0  0  0  0  0
    8.8790  -14.6486   19.0815 C   0  0  2  0  0  0  0  0  0  0  0  0
    8.5526  -15.5778   18.0142 N   0  0  0  0  0  0  0  0  0  0  0  0
    8.2256  -15.1151   20.3538 C   0  0  0  0  0  0  0  0  0  0  0  0
    8.3676  -14.4782   21.4292 O   0  0  0  0  0  0  0  0  0  0  0  0
    1.8263  -21.0897   21.2599 N   0  0  0  0  0  0  0  0  0  0  0  0
    1.9388  -20.1875   22.3523 C   0  0  0  0  0  0  0  0  0  0  0  0
    0.8594  -19.7461   22.9144 N   0  0  0  0  0  0  0  0  0  0  0  0
    3.1767  -19.7403   22.8646 N   0  0  0  0  0  0  0  0  0  0  0  0
    4.2149  -19.2575   22.0021 C   0  0  0  0  0  0  0  0  0  0  0  0
    4.6953  -17.8721   22.4048 C   0  0  0  0  0  0  0  0  0  0  0  0
    5.5542  -17.4044   21.2593 C   0  0  0  0  0  0  0  0  0  0  0  0
    6.8249  -16.7068   21.6714 C   0  0  2  0  0  0  0  0  0  0  0  0
    7.4291  -16.2803   20.3983 N   0  0  0  0  0  0  0  0  0  0  0  0
    7.7073  -17.6492   22.3775 C   0  0  0  0  0  0  0  0  0  0  0  0
    8.2700  -18.6111   21.8310 O   0  0  0  0  0  0  0  0  0  0  0  0
    0.8971  -19.1533   23.7675 N   0  0  0  0  0  0  0  0  0  0  0  0
    7.9558  -17.4828   23.7708 C   0  0  1  0  0  0  0  0  0  0  0  0
    9.2353  -17.9011   24.3788 C   0  0  0  0  0  0  0  0  0  0  0  0
   10.2802  -17.0756   23.6855 C   0  0  0  0  0  0  0  0  0  0  0  0
   11.5361  -17.7791   23.3342 C   0  0  0  0  0  0  0  0  0  0  0  0
   12.5549  -16.8987   22.7384 O   0  0  0  0  0  0  0  0  0  0  0  0
   13.3357  -17.2615   21.8329 C   0  0  0  0  0  0  0  0  0  0  0  0
    9.1489  -17.6189   25.8207 O   0  0  0  0  0  0  0  0  0  0  0  0
   10.0953  -18.0828   26.7155 O   0  0  0  0  0  0  0  0  0  0  0  0
   12.6906  -15.5810   23.1784 O   0  0  0  0  0  0  0  0  0  0  0  0
  2  1  1  0
  2  3  2  0
  4  5  1  0
  4  2  1  0
  5  7  1  0
  5  6  1  6
  7  8  2  0
 10  9  1  0
 11 10  2  0
 12 10  1  0
 13 14  1  0
 13 12  1  0
 16 15  1  6
 15 14  1  0
 16 17  1  0
 17  7  1  0
 18 19  2  0
 18 16  1  0
 20 18  1  0
 21 22  1  1
 21 20  1  0
 22 23  1  0
 23 24  1  0
 24 25  2  0
 26 21  1  0
 27 26  1  0
 28 24  1  0
 29 26  2  0
M  END
$$$$
