NRE.pdb
     RDKit          3D

 29 28  0  0  1  0  0  0  0  0999 V2000
   13.5061  -18.8333   14.3417 N   0  0  0  0  0  0  0  0  0  0  0  0
   12.1953  -18.8937   14.8832 C   0  0  0  0  0  0  0  0  0  0  0  0
   11.3481  -19.6622   14.4114 O   0  0  0  0  0  0  0  0  0  0  0  0
   11.8493  -18.0200   16.0280 C   0  0  0  0  0  0  0  0  0  0  0  0
   11.4951  -18.8553   17.2200 C   0  0  2  0  0  0  0  0  0  0  0  0
   10.2149  -19.4874   16.9545 N   0  0  0  0  0  0  0  0  0  0  0  0
   11.3624  -17.9690   18.4284 C   0  0  0  0  0  0  0  0  0  0  0  0
   12.3310  -17.2792   18.8385 O   0  0  0  0  0  0  0  0  0  0  0  0
    7.0826  -11.5273   23.2310 N   0  0  0  0  0  0  0  0  0  0  0  0
    7.4507  -12.4442   22.2094 C   0  0  0  0  0  0  0  0  0  0  0  0
    7.5642  -12.0152   20.9932 N   0  0  0  0  0  0  0  0  0  0  0  0
    7.7024  -13.8130   22.4497 N   0  0  0  0  0  0  0  0  0  0  0  0
    8.0347  -14.7128   21.3844 C   0  0  0  0  0  0  0  0  0  0  0  0
    8.2748  -16.1284   21.8850 C   0  0  0  0  0  0  0  0  0  0  0  0
    8.6135  -16.9291   20.6550 C   0  0  0  0  0  0  0  0  0  0  0  0
   10.0877  -17.0332   20.3600 C   0  0  2  0  0  0  0  0  0  0  0  0
   10.1534  -17.8719   19.1517 N   0  0  0  0  0  0  0  0  0  0  0  0
   10.7789  -17.6836   21.4844 C   0  0  0  0  0  0  0  0  0  0  0  0
   10.6485  -18.8832   21.7753 O   0  0  0  0  0  0  0  0  0  0  0  0
    7.8457  -12.6499   20.2197 N   0  0  0  0  0  0  0  0  0  0  0  0
   11.6579  -16.9269   22.3124 C   0  0  2  0  0  0  0  0  0  0  0  0
   12.4480  -17.5682   23.3830 C   0  0  0  0  0  0  0  0  0  0  0  0
   13.8009  -16.9223   23.3039 C   0  0  0  0  0  0  0  0  0  0  0  0
   14.7445  -17.2552   24.3968 C   0  0  0  0  0  0  0  0  0  0  0  0
   16.0651  -16.6220   24.2452 O   0  0  0  0  0  0  0  0  0  0  0  0
   16.4191  -16.0021   23.2198 C   0  0  0  0  0  0  0  0  0  0  0  0
   11.7607  -17.2996   24.6564 O   0  0  0  0  0  0  0  0  0  0  0  0
   11.9733  -18.0754   25.7809 O   0  0  0  0  0  0  0  0  0  0  0  0
   17.0024  -16.6935   25.2770 O   0  0  0  0  0  0  0  0  0  0  0  0
  2  1  1  0
  2  3  2  0
  4  5  1  0
  4  2  1  0
  5  7  1  0
  5  6  1  6
  7  8  2  0
 10  9  1  0
 11 10  2  0
 12 10  1  0
 13 14  1  0
 13 12  1  0
 16 15  1  1
 15 14  1  0
 16 17  1  0
 17  7  1  0
 18 19  2  0
 18 16  1  0
 20 18  1  0
 21 22  1  6
 21 20  1  0
 22 23  1  0
 23 24  1  0
 24 25  2  0
 26 21  1  0
 27 26  1  0
 28 24  1  0
 29 26  2  0
M  END
$$$$
