NRE.pdb
     RDKit          3D

 29 28  0  0  1  0  0  0  0  0999 V2000
   13.2330  -21.6386   15.1898 N   0  0  0  0  0  0  0  0  0  0  0  0
   12.1721  -20.9656   15.8508 C   0  0  0  0  0  0  0  0  0  0  0  0
   10.9924  -21.2570   15.6179 O   0  0  0  0  0  0  0  0  0  0  0  0
   12.4947  -19.9023   16.8301 C   0  0  0  0  0  0  0  0  0  0  0  0
   11.7525  -18.6476   16.4857 C   0  0  2  0  0  0  0  0  0  0  0  0
   12.4139  -18.0397   15.3446 N   0  0  0  0  0  0  0  0  0  0  0  0
   11.8126  -17.6969   17.6501 C   0  0  0  0  0  0  0  0  0  0  0  0
   12.8904  -17.1372   17.9778 O   0  0  0  0  0  0  0  0  0  0  0  0
    6.1471  -13.1254   18.0947 N   0  0  0  0  0  0  0  0  0  0  0  0
    6.9343  -13.3860   19.2490 C   0  0  0  0  0  0  0  0  0  0  0  0
    7.5693  -12.4065   19.8089 N   0  0  0  0  0  0  0  0  0  0  0  0
    7.0641  -14.6686   19.8259 N   0  0  0  0  0  0  0  0  0  0  0  0
    7.6953  -14.8580   21.0989 C   0  0  0  0  0  0  0  0  0  0  0  0
    9.1951  -15.0719   20.9678 C   0  0  0  0  0  0  0  0  0  0  0  0
    9.3544  -16.0745   19.8551 C   0  0  0  0  0  0  0  0  0  0  0  0
   10.7803  -16.4604   19.5572 C   0  0  2  0  0  0  0  0  0  0  0  0
   10.6703  -17.3919   18.4223 N   0  0  0  0  0  0  0  0  0  0  0  0
   11.3726  -17.1301   20.7260 C   0  0  0  0  0  0  0  0  0  0  0  0
   10.9384  -18.1870   21.2107 O   0  0  0  0  0  0  0  0  0  0  0  0
    8.2315  -12.5692   20.5935 N   0  0  0  0  0  0  0  0  0  0  0  0
   12.5121  -16.5644   21.3680 C   0  0  2  0  0  0  0  0  0  0  0  0
   13.1338  -17.2115   22.5412 C   0  0  0  0  0  0  0  0  0  0  0  0
   14.4863  -16.5714   22.6635 C   0  0  0  0  0  0  0  0  0  0  0  0
   15.2895  -16.9705   23.8430 C   0  0  0  0  0  0  0  0  0  0  0  0
   16.6606  -16.4338   23.8281 O   0  0  0  0  0  0  0  0  0  0  0  0
   17.6809  -17.1505   23.7486 C   0  0  0  0  0  0  0  0  0  0  0  0
   12.2681  -16.9426   23.7007 O   0  0  0  0  0  0  0  0  0  0  0  0
   11.3807  -15.8826   23.7217 O   0  0  0  0  0  0  0  0  0  0  0  0
   16.8783  -15.0572   23.9049 O   0  0  0  0  0  0  0  0  0  0  0  0
  2  1  1  0
  2  3  2  0
  4  5  1  0
  4  2  1  0
  5  7  1  0
  5  6  1  6
  7  8  2  0
 10  9  1  0
 11 10  2  0
 12 10  1  0
 13 14  1  0
 13 12  1  0
 16 15  1  1
 15 14  1  0
 16 17  1  0
 17  7  1  0
 18 19  2  0
 18 16  1  0
 20 18  1  0
 21 22  1  6
 21 20  1  0
 22 23  1  0
 23 24  1  0
 24 25  2  0
 26 21  1  0
 27 26  1  0
 28 24  1  0
 29 26  2  0
M  END
$$$$
