NRE.pdb
     RDKit          3D

 29 28  0  0  1  0  0  0  0  0999 V2000
   17.5939  -17.3273   15.2084 N   0  0  0  0  0  0  0  0  0  0  0  0
   16.2437  -16.8887   15.2024 C   0  0  0  0  0  0  0  0  0  0  0  0
   15.5409  -17.0106   14.1914 O   0  0  0  0  0  0  0  0  0  0  0  0
   15.6805  -16.2786   16.4288 C   0  0  0  0  0  0  0  0  0  0  0  0
   14.9592  -15.0116   16.0850 C   0  0  2  0  0  0  0  0  0  0  0  0
   15.9537  -14.0235   15.7062 N   0  0  0  0  0  0  0  0  0  0  0  0
   14.2141  -14.5176   17.2950 C   0  0  0  0  0  0  0  0  0  0  0  0
   14.8231  -14.0071   18.2701 O   0  0  0  0  0  0  0  0  0  0  0  0
    6.1019  -12.6792   21.6521 N   0  0  0  0  0  0  0  0  0  0  0  0
    7.0211  -13.4147   20.8559 C   0  0  0  0  0  0  0  0  0  0  0  0
    7.4637  -14.5490   21.2956 N   0  0  0  0  0  0  0  0  0  0  0  0
    7.4841  -12.9719   19.5971 N   0  0  0  0  0  0  0  0  0  0  0  0
    8.3629  -13.7733   18.7970 C   0  0  0  0  0  0  0  0  0  0  0  0
    9.7423  -13.9087   19.4224 C   0  0  0  0  0  0  0  0  0  0  0  0
   10.6817  -14.1173   18.2636 C   0  0  0  0  0  0  0  0  0  0  0  0
   12.1345  -14.2344   18.6464 C   0  0  2  0  0  0  0  0  0  0  0  0
   12.8079  -14.6039   17.3903 N   0  0  0  0  0  0  0  0  0  0  0  0
   12.3024  -15.2897   19.6581 C   0  0  0  0  0  0  0  0  0  0  0  0
   11.9961  -16.4784   19.4743 O   0  0  0  0  0  0  0  0  0  0  0  0
    7.1777  -14.9181   22.2243 N   0  0  0  0  0  0  0  0  0  0  0  0
   12.8447  -14.9696   20.9364 C   0  0  2  0  0  0  0  0  0  0  0  0
   13.3678  -16.0191   21.8344 C   0  0  0  0  0  0  0  0  0  0  0  0
   14.8177  -15.6781   22.0232 C   0  0  0  0  0  0  0  0  0  0  0  0
   15.5656  -16.5277   22.9794 C   0  0  0  0  0  0  0  0  0  0  0  0
   17.0039  -16.2181   23.0389 O   0  0  0  0  0  0  0  0  0  0  0  0
   17.5411  -15.3063   22.3747 C   0  0  0  0  0  0  0  0  0  0  0  0
   12.5974  -15.9496   23.0864 O   0  0  0  0  0  0  0  0  0  0  0  0
   11.7586  -14.8882   23.3720 O   0  0  0  0  0  0  0  0  0  0  0  0
   17.8491  -16.9573   23.8680 O   0  0  0  0  0  0  0  0  0  0  0  0
  2  1  1  0
  2  3  2  0
  4  5  1  0
  4  2  1  0
  5  7  1  0
  5  6  1  1
  7  8  2  0
 10  9  1  0
 11 10  2  0
 12 10  1  0
 13 14  1  0
 13 12  1  0
 16 15  1  6
 15 14  1  0
 16 17  1  0
 17  7  1  0
 18 19  2  0
 18 16  1  0
 20 18  1  0
 21 22  1  1
 21 20  1  0
 22 23  1  0
 23 24  1  0
 24 25  2  0
 26 21  1  0
 27 26  1  0
 28 24  1  0
 29 26  2  0
M  END
$$$$
