GCT.pdb
     RDKit          3D

 18 17  0  0  1  0  0  0  0  0999 V2000
    6.8723  -18.0979   17.5131 N   0  0  0  0  0  0  0  0  0  0  0  0
    7.9208  -18.2477   18.5029 C   0  0  0  0  0  0  0  0  0  0  0  0
    7.3827  -17.9262   19.8393 C   0  0  0  0  0  0  0  0  0  0  0  0
    6.4687  -17.0757   19.9609 O   0  0  0  0  0  0  0  0  0  0  0  0
    7.8748  -18.5618   21.0267 N   0  0  0  0  0  0  0  0  0  0  0  0
    7.3484  -18.2120   22.3385 C   0  0  1  0  0  0  0  0  0  0  0  0
    7.4836  -19.4439   23.2011 C   0  0  0  0  0  0  0  0  0  0  0  0
    6.8399  -19.0508   24.8481 S   0  0  0  0  0  0  0  0  0  0  0  0
    8.1728  -17.1253   22.9104 C   0  0  0  0  0  0  0  0  0  0  0  0
    9.4338  -17.1523   22.7296 O   0  0  0  0  0  0  0  0  0  0  0  0
    7.1062  -13.3244   22.7295 C   0  0  0  0  0  0  0  0  0  0  0  0
    7.5151  -13.7320   24.1219 C   0  0  1  0  0  0  0  0  0  0  0  0
    6.3494  -14.0108   24.8306 O   0  0  0  0  0  0  0  0  0  0  0  0
    8.3705  -14.9682   24.1348 C   0  0  2  0  0  0  0  0  0  0  0  0
    7.5729  -16.0727   23.6481 N   0  0  0  0  0  0  0  0  0  0  0  0
    8.9310  -15.2858   25.4652 C   0  0  0  0  0  0  0  0  0  0  0  0
    9.6843  -14.5020   26.0793 O   0  0  0  0  0  0  0  0  0  0  0  0
    8.6221  -16.4947   26.0739 O   0  0  0  0  0  0  0  0  0  0  0  0
  1  2  1  0
  3  2  1  0
  4  3  2  0
  5  3  1  0
  6  5  1  0
  7  8  1  0
  6  7  1  1
  9  6  1  0
  9 15  1  0
 10  9  2  0
 12 11  1  6
 12 14  1  0
 12 13  1  0
 14 15  1  1
 14 16  1  0
 16 18  1  0
 17 16  2  0
M  END
$$$$
