GCT.pdb
     RDKit          3D

 18 17  0  0  1  0  0  0  0  0999 V2000
    8.2554  -19.5527   20.6955 N   0  0  0  0  0  0  0  0  0  0  0  0
    8.3425  -19.0550   22.0543 C   0  0  0  0  0  0  0  0  0  0  0  0
    9.3694  -17.9969   22.1237 C   0  0  0  0  0  0  0  0  0  0  0  0
   10.0321  -17.6962   21.1021 O   0  0  0  0  0  0  0  0  0  0  0  0
    9.6433  -17.2861   23.3386 N   0  0  0  0  0  0  0  0  0  0  0  0
   10.6629  -16.2476   23.3870 C   0  0  1  0  0  0  0  0  0  0  0  0
   10.3425  -15.3827   24.5825 C   0  0  0  0  0  0  0  0  0  0  0  0
    8.8580  -14.4187   24.1977 S   0  0  0  0  0  0  0  0  0  0  0  0
   11.9835  -16.8831   23.5867 C   0  0  0  0  0  0  0  0  0  0  0  0
   12.1266  -17.7123   24.5435 O   0  0  0  0  0  0  0  0  0  0  0  0
   16.2469  -18.1924   21.5588 C   0  0  0  0  0  0  0  0  0  0  0  0
   14.8985  -17.5201   21.5152 C   0  0  1  0  0  0  0  0  0  0  0  0
   14.0253  -18.3862   20.8622 O   0  0  0  0  0  0  0  0  0  0  0  0
   14.3426  -17.2498   22.8855 C   0  0  2  0  0  0  0  0  0  0  0  0
   13.0721  -16.5752   22.7310 N   0  0  0  0  0  0  0  0  0  0  0  0
   15.2458  -16.4547   23.7440 C   0  0  0  0  0  0  0  0  0  0  0  0
   15.2980  -15.2084   23.6884 O   0  0  0  0  0  0  0  0  0  0  0  0
   16.0760  -17.0958   24.6533 O   0  0  0  0  0  0  0  0  0  0  0  0
  1  2  1  0
  3  2  1  0
  4  3  2  0
  5  3  1  0
  6  5  1  0
  7  8  1  0
  6  7  1  1
  9  6  1  0
  9 15  1  0
 10  9  2  0
 12 11  1  1
 12 14  1  0
 12 13  1  0
 14 15  1  6
 14 16  1  0
 16 18  1  0
 17 16  2  0
M  END
$$$$
