GCT.pdb
     RDKit          3D

 18 17  0  0  1  0  0  0  0  0999 V2000
    5.3437  -19.3638   21.3699 N   0  0  0  0  0  0  0  0  0  0  0  0
    5.0426  -18.6683   22.6056 C   0  0  0  0  0  0  0  0  0  0  0  0
    6.2843  -18.0938   23.1597 C   0  0  0  0  0  0  0  0  0  0  0  0
    7.3855  -18.3235   22.6046 O   0  0  0  0  0  0  0  0  0  0  0  0
    6.2791  -17.2671   24.3313 N   0  0  0  0  0  0  0  0  0  0  0  0
    7.5234  -16.7958   24.9229 C   0  0  1  0  0  0  0  0  0  0  0  0
    7.2027  -15.5007   25.6298 C   0  0  0  0  0  0  0  0  0  0  0  0
    8.7109  -14.9167   26.4457 S   0  0  0  0  0  0  0  0  0  0  0  0
    7.9874  -17.7893   25.9155 C   0  0  0  0  0  0  0  0  0  0  0  0
    7.1746  -18.1847   26.8134 O   0  0  0  0  0  0  0  0  0  0  0  0
    9.0172  -21.1732   25.3399 C   0  0  0  0  0  0  0  0  0  0  0  0
   10.1701  -20.5149   26.0537 C   0  0  1  0  0  0  0  0  0  0  0  0
   11.0862  -20.1189   25.0826 O   0  0  0  0  0  0  0  0  0  0  0  0
    9.7524  -19.2915   26.8210 C   0  0  2  0  0  0  0  0  0  0  0  0
    9.3129  -18.2926   25.8712 N   0  0  0  0  0  0  0  0  0  0  0  0
   10.8179  -18.7439   27.6869 C   0  0  0  0  0  0  0  0  0  0  0  0
   11.3526  -17.6362   27.4722 O   0  0  0  0  0  0  0  0  0  0  0  0
   11.2565  -19.4706   28.7854 O   0  0  0  0  0  0  0  0  0  0  0  0
  1  2  1  0
  3  2  1  0
  4  3  2  0
  5  3  1  0
  6  5  1  0
  7  8  1  0
  6  7  1  1
  9  6  1  0
  9 15  1  0
 10  9  2  0
 12 11  1  6
 12 14  1  0
 12 13  1  0
 14 15  1  6
 14 16  1  0
 16 18  1  0
 17 16  2  0
M  END
$$$$
