GCT.pdb
     RDKit          3D

 18 17  0  0  1  0  0  0  0  0999 V2000
    7.2803  -12.9782   20.1156 N   0  0  0  0  0  0  0  0  0  0  0  0
    6.4806  -13.1980   21.3046 C   0  0  0  0  0  0  0  0  0  0  0  0
    7.3681  -13.3038   22.4794 C   0  0  0  0  0  0  0  0  0  0  0  0
    8.6120  -13.2297   22.3361 O   0  0  0  0  0  0  0  0  0  0  0  0
    6.8518  -13.4918   23.8038 N   0  0  0  0  0  0  0  0  0  0  0  0
    7.7446  -13.7055   24.9342 C   0  0  1  0  0  0  0  0  0  0  0  0
    6.9473  -13.3982   26.1790 C   0  0  0  0  0  0  0  0  0  0  0  0
    6.7254  -11.6030   26.2760 S   0  0  0  0  0  0  0  0  0  0  0  0
    8.1543  -15.1266   24.9578 C   0  0  0  0  0  0  0  0  0  0  0  0
    7.3116  -16.0013   25.3426 O   0  0  0  0  0  0  0  0  0  0  0  0
    9.0093  -17.4027   22.4278 C   0  0  0  0  0  0  0  0  0  0  0  0
   10.2081  -17.4233   23.3413 C   0  0  1  0  0  0  0  0  0  0  0  0
   11.1809  -16.6101   22.7657 O   0  0  0  0  0  0  0  0  0  0  0  0
    9.9021  -16.8801   24.7092 C   0  0  2  0  0  0  0  0  0  0  0  0
    9.4611  -15.5102   24.5613 N   0  0  0  0  0  0  0  0  0  0  0  0
   11.0445  -16.9543   25.6443 C   0  0  0  0  0  0  0  0  0  0  0  0
   11.6480  -15.9381   26.0468 O   0  0  0  0  0  0  0  0  0  0  0  0
   11.4803  -18.1891   26.1054 O   0  0  0  0  0  0  0  0  0  0  0  0
  1  2  1  0
  3  2  1  0
  4  3  2  0
  5  3  1  0
  6  5  1  0
  7  8  1  0
  6  7  1  1
  9  6  1  0
  9 15  1  0
 10  9  2  0
 12 11  1  6
 12 14  1  0
 12 13  1  0
 14 15  1  6
 14 16  1  0
 16 18  1  0
 17 16  2  0
M  END
$$$$
