GCT.pdb
     RDKit          3D

 18 17  0  0  1  0  0  0  0  0999 V2000
    1.9775  -20.9092   14.6116 N   0  0  0  0  0  0  0  0  0  0  0  0
    2.4736  -19.6292   14.1458 C   0  0  0  0  0  0  0  0  0  0  0  0
    3.9084  -19.5115   14.4721 C   0  0  0  0  0  0  0  0  0  0  0  0
    4.5722  -20.5345   14.7655 O   0  0  0  0  0  0  0  0  0  0  0  0
    4.5850  -18.2473   14.4661 N   0  0  0  0  0  0  0  0  0  0  0  0
    6.0246  -18.1655   14.6697 C   0  0  1  0  0  0  0  0  0  0  0  0
    6.4631  -16.8280   14.1232 C   0  0  0  0  0  0  0  0  0  0  0  0
    6.8419  -17.0360   12.3640 S   0  0  0  0  0  0  0  0  0  0  0  0
    6.3058  -18.2134   16.1210 C   0  0  0  0  0  0  0  0  0  0  0  0
    6.0166  -17.1989   16.8354 O   0  0  0  0  0  0  0  0  0  0  0  0
    5.0711  -20.6311   18.6296 C   0  0  0  0  0  0  0  0  0  0  0  0
    6.5765  -20.6391   18.7054 C   0  0  1  0  0  0  0  0  0  0  0  0
    7.0225  -21.7278   17.9605 O   0  0  0  0  0  0  0  0  0  0  0  0
    7.1914  -19.3973   18.1224 C   0  0  2  0  0  0  0  0  0  0  0  0
    6.8880  -19.3660   16.7082 N   0  0  0  0  0  0  0  0  0  0  0  0
    8.6508  -19.3031   18.3372 C   0  0  0  0  0  0  0  0  0  0  0  0
    9.1568  -19.2263   19.4761 O   0  0  0  0  0  0  0  0  0  0  0  0
    9.5104  -19.2980   17.2470 O   0  0  0  0  0  0  0  0  0  0  0  0
  1  2  1  0
  3  2  1  0
  4  3  2  0
  5  3  1  0
  6  5  1  0
  7  8  1  0
  6  7  1  1
  9  6  1  0
  9 15  1  0
 10  9  2  0
 12 11  1  6
 12 14  1  0
 12 13  1  0
 14 15  1  6
 14 16  1  0
 16 18  1  0
 17 16  2  0
M  END
$$$$
