GCT.pdb
     RDKit          3D

 18 17  0  0  1  0  0  0  0  0999 V2000
    4.9801  -19.9108   24.0197 N   0  0  0  0  0  0  0  0  0  0  0  0
    5.4388  -19.0633   25.1027 C   0  0  0  0  0  0  0  0  0  0  0  0
    6.0653  -17.8494   24.5435 C   0  0  0  0  0  0  0  0  0  0  0  0
    6.1640  -17.7085   23.3010 O   0  0  0  0  0  0  0  0  0  0  0  0
    6.5751  -16.8050   25.3833 N   0  0  0  0  0  0  0  0  0  0  0  0
    7.2969  -15.6731   24.8190 C   0  0  1  0  0  0  0  0  0  0  0  0
    7.3709  -14.6240   25.9024 C   0  0  0  0  0  0  0  0  0  0  0  0
    5.7285  -13.8805   26.0785 S   0  0  0  0  0  0  0  0  0  0  0  0
    8.6667  -16.1066   24.4678 C   0  0  0  0  0  0  0  0  0  0  0  0
    9.2901  -16.8774   25.2682 O   0  0  0  0  0  0  0  0  0  0  0  0
   10.8405  -14.4877   21.0835 C   0  0  0  0  0  0  0  0  0  0  0  0
   10.6634  -15.9626   21.3395 C   0  0  1  0  0  0  0  0  0  0  0  0
   11.8131  -16.6026   20.8840 O   0  0  0  0  0  0  0  0  0  0  0  0
   10.5053  -16.2810   22.8002 C   0  0  2  0  0  0  0  0  0  0  0  0
    9.2773  -15.6722   23.2634 N   0  0  0  0  0  0  0  0  0  0  0  0
   11.6448  -15.8351   23.6295 C   0  0  0  0  0  0  0  0  0  0  0  0
   11.5264  -14.9683   24.5204 O   0  0  0  0  0  0  0  0  0  0  0  0
   12.9029  -16.3865   23.4281 O   0  0  0  0  0  0  0  0  0  0  0  0
  1  2  1  0
  3  2  1  0
  4  3  2  0
  5  3  1  0
  6  5  1  0
  7  8  1  0
  6  7  1  1
  9  6  1  0
  9 15  1  0
 10  9  2  0
 12 11  1  1
 12 14  1  0
 12 13  1  0
 14 15  1  1
 14 16  1  0
 16 18  1  0
 17 16  2  0
M  END
$$$$
