GCT.pdb
     RDKit          3D

 18 17  0  0  1  0  0  0  0  0999 V2000
    4.5070  -18.9686   20.7913 N   0  0  0  0  0  0  0  0  0  0  0  0
    4.4097  -18.6049   22.1913 C   0  0  0  0  0  0  0  0  0  0  0  0
    5.6492  -17.9196   22.6069 C   0  0  0  0  0  0  0  0  0  0  0  0
    6.6296  -17.8657   21.8263 O   0  0  0  0  0  0  0  0  0  0  0  0
    5.7772  -17.3011   23.8942 N   0  0  0  0  0  0  0  0  0  0  0  0
    7.0214  -16.6623   24.2996 C   0  0  1  0  0  0  0  0  0  0  0  0
    6.6821  -15.7470   25.4516 C   0  0  0  0  0  0  0  0  0  0  0  0
    8.2126  -14.9560   26.0112 S   0  0  0  0  0  0  0  0  0  0  0  0
    7.9631  -17.7028   24.7665 C   0  0  0  0  0  0  0  0  0  0  0  0
    7.5631  -18.5481   25.6319 O   0  0  0  0  0  0  0  0  0  0  0  0
    9.7209  -20.1470   22.6348 C   0  0  0  0  0  0  0  0  0  0  0  0
   10.7696  -19.4568   23.4692 C   0  0  1  0  0  0  0  0  0  0  0  0
   11.3390  -18.4622   22.6782 O   0  0  0  0  0  0  0  0  0  0  0  0
   10.1948  -18.8009   24.6936 C   0  0  2  0  0  0  0  0  0  0  0  0
    9.2880  -17.7593   24.2628 N   0  0  0  0  0  0  0  0  0  0  0  0
   11.2192  -18.2466   25.6037 C   0  0  0  0  0  0  0  0  0  0  0  0
   11.3056  -17.0258   25.8512 O   0  0  0  0  0  0  0  0  0  0  0  0
   12.1299  -19.0959   26.2175 O   0  0  0  0  0  0  0  0  0  0  0  0
  1  2  1  0
  3  2  1  0
  4  3  2  0
  5  3  1  0
  6  5  1  0
  7  8  1  0
  6  7  1  1
  9  6  1  0
  9 15  1  0
 10  9  2  0
 12 11  1  6
 12 14  1  0
 12 13  1  0
 14 15  1  6
 14 16  1  0
 16 18  1  0
 17 16  2  0
M  END
$$$$
