GCT.pdb
     RDKit          3D

 18 17  0  0  1  0  0  0  0  0999 V2000
    6.8400  -16.2984   18.9715 N   0  0  0  0  0  0  0  0  0  0  0  0
    7.8360  -15.8560   19.9275 C   0  0  0  0  0  0  0  0  0  0  0  0
    7.2980  -15.9940   21.2951 C   0  0  0  0  0  0  0  0  0  0  0  0
    6.0658  -16.1469   21.4733 O   0  0  0  0  0  0  0  0  0  0  0  0
    8.1472  -15.9592   22.4499 N   0  0  0  0  0  0  0  0  0  0  0  0
    7.5960  -16.0911   23.7912 C   0  0  1  0  0  0  0  0  0  0  0  0
    8.1446  -17.3780   24.3595 C   0  0  0  0  0  0  0  0  0  0  0  0
    7.4901  -17.5763   26.0369 S   0  0  0  0  0  0  0  0  0  0  0  0
    8.0663  -14.9564   24.6152 C   0  0  0  0  0  0  0  0  0  0  0  0
    9.2716  -14.5635   24.4869 O   0  0  0  0  0  0  0  0  0  0  0  0
    6.0404  -11.6057   25.3652 C   0  0  0  0  0  0  0  0  0  0  0  0
    6.5131  -12.3001   26.6168 C   0  0  1  0  0  0  0  0  0  0  0  0
    5.4489  -13.0598   27.0955 O   0  0  0  0  0  0  0  0  0  0  0  0
    7.6666  -13.2297   26.3617 C   0  0  2  0  0  0  0  0  0  0  0  0
    7.1937  -14.3171   25.5329 N   0  0  0  0  0  0  0  0  0  0  0  0
    8.2862  -13.7562   27.5962 C   0  0  0  0  0  0  0  0  0  0  0  0
    8.3483  -14.9779   27.8463 O   0  0  0  0  0  0  0  0  0  0  0  0
    8.8256  -12.8783   28.5267 O   0  0  0  0  0  0  0  0  0  0  0  0
  1  2  1  0
  3  2  1  0
  4  3  2  0
  5  3  1  0
  6  5  1  0
  7  8  1  0
  6  7  1  1
  9  6  1  0
  9 15  1  0
 10  9  2  0
 12 11  1  6
 12 14  1  0
 12 13  1  0
 14 15  1  6
 14 16  1  0
 16 18  1  0
 17 16  2  0
M  END
$$$$
