GCT.pdb
     RDKit          3D

 18 17  0  0  1  0  0  0  0  0999 V2000
    7.7125  -18.3643   17.3193 N   0  0  0  0  0  0  0  0  0  0  0  0
    6.9813  -17.4083   18.1274 C   0  0  0  0  0  0  0  0  0  0  0  0
    7.9296  -16.6476   18.9646 C   0  0  0  0  0  0  0  0  0  0  0  0
    9.1068  -17.0555   19.1100 O   0  0  0  0  0  0  0  0  0  0  0  0
    7.5484  -15.4365   19.6310 N   0  0  0  0  0  0  0  0  0  0  0  0
    8.5219  -14.6522   20.3777 C   0  0  1  0  0  0  0  0  0  0  0  0
    7.8898  -13.3042   20.6290 C   0  0  0  0  0  0  0  0  0  0  0  0
    7.7153  -12.4591   19.0362 S   0  0  0  0  0  0  0  0  0  0  0  0
    8.7791  -15.3176   21.6734 C   0  0  0  0  0  0  0  0  0  0  0  0
    7.8687  -15.2972   22.5646 O   0  0  0  0  0  0  0  0  0  0  0  0
    9.0432  -18.6572   22.6220 C   0  0  0  0  0  0  0  0  0  0  0  0
   10.3638  -18.0543   23.0275 C   0  0  1  0  0  0  0  0  0  0  0  0
   11.2693  -18.3135   22.0019 O   0  0  0  0  0  0  0  0  0  0  0  0
   10.2872  -16.5642   23.2107 C   0  0  2  0  0  0  0  0  0  0  0  0
   10.0163  -15.9655   21.9218 N   0  0  0  0  0  0  0  0  0  0  0  0
   11.5076  -15.9776   23.8037 C   0  0  0  0  0  0  0  0  0  0  0  0
   12.2743  -15.2323   23.1589 O   0  0  0  0  0  0  0  0  0  0  0  0
   11.8337  -16.2517   25.1250 O   0  0  0  0  0  0  0  0  0  0  0  0
  1  2  1  0
  3  2  1  0
  4  3  2  0
  5  3  1  0
  6  5  1  0
  7  8  1  0
  6  7  1  1
  9  6  1  0
  9 15  1  0
 10  9  2  0
 12 11  1  6
 12 14  1  0
 12 13  1  0
 14 15  1  6
 14 16  1  0
 16 18  1  0
 17 16  2  0
M  END
$$$$
