GCT.pdb
     RDKit          3D

 18 17  0  0  1  0  0  0  0  0999 V2000
    4.6952  -18.5046   22.3715 N   0  0  0  0  0  0  0  0  0  0  0  0
    4.9285  -18.0512   23.7285 C   0  0  0  0  0  0  0  0  0  0  0  0
    5.9843  -17.0197   23.7259 C   0  0  0  0  0  0  0  0  0  0  0  0
    6.6442  -16.7983   22.6824 O   0  0  0  0  0  0  0  0  0  0  0  0
    6.2901  -16.2462   24.8940 N   0  0  0  0  0  0  0  0  0  0  0  0
    7.4345  -15.3462   24.9198 C   0  0  1  0  0  0  0  0  0  0  0  0
    7.2979  -14.5090   26.1690 C   0  0  0  0  0  0  0  0  0  0  0  0
    5.8438  -13.4459   25.9775 S   0  0  0  0  0  0  0  0  0  0  0  0
    8.6731  -16.1499   25.0063 C   0  0  0  0  0  0  0  0  0  0  0  0
    8.7000  -17.1523   25.7924 O   0  0  0  0  0  0  0  0  0  0  0  0
   12.8459  -17.2805   22.5876 C   0  0  0  0  0  0  0  0  0  0  0  0
   11.6383  -16.4064   22.8108 C   0  0  1  0  0  0  0  0  0  0  0  0
   10.7732  -16.6146   21.7397 O   0  0  0  0  0  0  0  0  0  0  0  0
   10.9006  -16.7511   24.0744 C   0  0  2  0  0  0  0  0  0  0  0  0
    9.8115  -15.8117   24.2305 N   0  0  0  0  0  0  0  0  0  0  0  0
   11.7575  -16.7495   25.2789 C   0  0  0  0  0  0  0  0  0  0  0  0
   12.4442  -17.7370   25.6139 O   0  0  0  0  0  0  0  0  0  0  0  0
   11.8169  -15.6191   26.0826 O   0  0  0  0  0  0  0  0  0  0  0  0
  1  2  1  0
  3  2  1  0
  4  3  2  0
  5  3  1  0
  6  5  1  0
  7  8  1  0
  6  7  1  1
  9  6  1  0
  9 15  1  0
 10  9  2  0
 12 11  1  6
 12 14  1  0
 12 13  1  0
 14 15  1  1
 14 16  1  0
 16 18  1  0
 17 16  2  0
M  END
$$$$
