GCT.pdb
     RDKit          3D

 18 17  0  0  1  0  0  0  0  0999 V2000
    4.4683  -20.5765   23.2089 N   0  0  0  0  0  0  0  0  0  0  0  0
    5.4677  -20.1552   24.1708 C   0  0  0  0  0  0  0  0  0  0  0  0
    5.7847  -18.7297   23.9556 C   0  0  0  0  0  0  0  0  0  0  0  0
    5.1151  -18.0532   23.1386 O   0  0  0  0  0  0  0  0  0  0  0  0
    6.8498  -18.0763   24.6590 N   0  0  0  0  0  0  0  0  0  0  0  0
    7.1358  -16.6647   24.4449 C   0  0  1  0  0  0  0  0  0  0  0  0
    7.7753  -16.1558   25.7145 C   0  0  0  0  0  0  0  0  0  0  0  0
    8.0402  -14.3728   25.5353 S   0  0  0  0  0  0  0  0  0  0  0  0
    8.0990  -16.5357   23.3299 C   0  0  0  0  0  0  0  0  0  0  0  0
    9.0903  -17.3346   23.2804 O   0  0  0  0  0  0  0  0  0  0  0  0
    6.7325  -14.8825   19.9231 C   0  0  0  0  0  0  0  0  0  0  0  0
    8.1881  -14.5746   20.1651 C   0  0  1  0  0  0  0  0  0  0  0  0
    8.2604  -13.2709   20.6489 O   0  0  0  0  0  0  0  0  0  0  0  0
    8.8085  -15.4828   21.1899 C   0  0  2  0  0  0  0  0  0  0  0  0
    7.9249  -15.5406   22.3340 N   0  0  0  0  0  0  0  0  0  0  0  0
   10.1635  -15.0650   21.6075 C   0  0  0  0  0  0  0  0  0  0  0  0
   10.4204  -14.6900   22.7704 O   0  0  0  0  0  0  0  0  0  0  0  0
   11.2049  -15.0821   20.6896 O   0  0  0  0  0  0  0  0  0  0  0  0
  1  2  1  0
  3  2  1  0
  4  3  2  0
  5  3  1  0
  6  5  1  0
  7  8  1  0
  6  7  1  1
  9  6  1  0
  9 15  1  0
 10  9  2  0
 12 11  1  1
 12 14  1  0
 12 13  1  0
 14 15  1  1
 14 16  1  0
 16 18  1  0
 17 16  2  0
M  END
$$$$
