GCT.pdb
     RDKit          3D

 18 17  0  0  1  0  0  0  0  0999 V2000
    7.6181  -13.1289   20.2609 N   0  0  0  0  0  0  0  0  0  0  0  0
    6.6937  -13.1595   21.3773 C   0  0  0  0  0  0  0  0  0  0  0  0
    7.4327  -13.4678   22.6173 C   0  0  0  0  0  0  0  0  0  0  0  0
    8.6507  -13.7634   22.5661 O   0  0  0  0  0  0  0  0  0  0  0  0
    6.7986  -13.4417   23.9030 N   0  0  0  0  0  0  0  0  0  0  0  0
    7.5712  -13.6176   25.1247 C   0  0  1  0  0  0  0  0  0  0  0  0
    6.6898  -13.1621   26.2630 C   0  0  0  0  0  0  0  0  0  0  0  0
    6.5664  -11.3563   26.1910 S   0  0  0  0  0  0  0  0  0  0  0  0
    7.8788  -15.0545   25.2931 C   0  0  0  0  0  0  0  0  0  0  0  0
    6.9153  -15.8741   25.4454 O   0  0  0  0  0  0  0  0  0  0  0  0
    9.4186  -17.0887   22.8639 C   0  0  0  0  0  0  0  0  0  0  0  0
   10.2407  -17.3219   24.1056 C   0  0  1  0  0  0  0  0  0  0  0  0
   11.3801  -16.5281   24.0025 O   0  0  0  0  0  0  0  0  0  0  0  0
    9.5151  -16.9278   25.3619 C   0  0  2  0  0  0  0  0  0  0  0  0
    9.2211  -15.5133   25.2871 N   0  0  0  0  0  0  0  0  0  0  0  0
   10.2655  -17.2323   26.5985 C   0  0  0  0  0  0  0  0  0  0  0  0
   10.6340  -16.3437   27.3945 O   0  0  0  0  0  0  0  0  0  0  0  0
   10.5835  -18.5479   26.9070 O   0  0  0  0  0  0  0  0  0  0  0  0
  1  2  1  0
  3  2  1  0
  4  3  2  0
  5  3  1  0
  6  5  1  0
  7  8  1  0
  6  7  1  1
  9  6  1  0
  9 15  1  0
 10  9  2  0
 12 11  1  6
 12 14  1  0
 12 13  1  0
 14 15  1  6
 14 16  1  0
 16 18  1  0
 17 16  2  0
M  END
$$$$
