GCT.pdb
     RDKit          3D

 18 17  0  0  1  0  0  0  0  0999 V2000
    7.5610  -14.4253   20.0949 N   0  0  0  0  0  0  0  0  0  0  0  0
    6.6865  -14.2727   21.2410 C   0  0  0  0  0  0  0  0  0  0  0  0
    7.5012  -14.0920   22.4585 C   0  0  0  0  0  0  0  0  0  0  0  0
    8.7515  -14.1717   22.3956 O   0  0  0  0  0  0  0  0  0  0  0  0
    6.9059  -13.8238   23.7351 N   0  0  0  0  0  0  0  0  0  0  0  0
    7.7209  -13.7271   24.9379 C   0  0  1  0  0  0  0  0  0  0  0  0
    6.9476  -12.8763   25.9168 C   0  0  0  0  0  0  0  0  0  0  0  0
    7.9420  -12.7052   27.4212 S   0  0  0  0  0  0  0  0  0  0  0  0
    7.8983  -15.0814   25.5054 C   0  0  0  0  0  0  0  0  0  0  0  0
    6.8637  -15.7813   25.7567 O   0  0  0  0  0  0  0  0  0  0  0  0
    9.3845  -17.9509   24.1049 C   0  0  0  0  0  0  0  0  0  0  0  0
   10.1146  -17.7686   25.4110 C   0  0  1  0  0  0  0  0  0  0  0  0
   11.3268  -17.1465   25.1240 O   0  0  0  0  0  0  0  0  0  0  0  0
    9.3636  -16.8943   26.3761 C   0  0  2  0  0  0  0  0  0  0  0  0
    9.1953  -15.5927   25.7673 N   0  0  0  0  0  0  0  0  0  0  0  0
   10.0227  -16.7645   27.6928 C   0  0  0  0  0  0  0  0  0  0  0  0
   10.4096  -15.6660   28.1430 O   0  0  0  0  0  0  0  0  0  0  0  0
   10.2299  -17.8923   28.4754 O   0  0  0  0  0  0  0  0  0  0  0  0
  1  2  1  0
  3  2  1  0
  4  3  2  0
  5  3  1  0
  6  5  1  0
  7  8  1  0
  6  7  1  1
  9  6  1  0
  9 15  1  0
 10  9  2  0
 12 11  1  6
 12 14  1  0
 12 13  1  0
 14 15  1  6
 14 16  1  0
 16 18  1  0
 17 16  2  0
M  END
$$$$
