GCT.pdb
     RDKit          3D

 18 17  0  0  1  0  0  0  0  0999 V2000
    5.9053  -18.4291   18.2456 N   0  0  0  0  0  0  0  0  0  0  0  0
    6.7231  -19.2344   19.1313 C   0  0  0  0  0  0  0  0  0  0  0  0
    7.1250  -18.4250   20.2984 C   0  0  0  0  0  0  0  0  0  0  0  0
    7.9099  -17.4576   20.1521 O   0  0  0  0  0  0  0  0  0  0  0  0
    6.6425  -18.7083   21.6186 N   0  0  0  0  0  0  0  0  0  0  0  0
    7.0571  -17.9023   22.7583 C   0  0  1  0  0  0  0  0  0  0  0  0
    6.0495  -18.1531   23.8546 C   0  0  0  0  0  0  0  0  0  0  0  0
    6.5744  -17.2310   25.3227 S   0  0  0  0  0  0  0  0  0  0  0  0
    8.3894  -18.3603   23.2086 C   0  0  0  0  0  0  0  0  0  0  0  0
    8.5941  -19.6104   23.3455 O   0  0  0  0  0  0  0  0  0  0  0  0
   11.6947  -17.4976   21.7564 C   0  0  0  0  0  0  0  0  0  0  0  0
   11.7865  -17.2089   23.2330 C   0  0  1  0  0  0  0  0  0  0  0  0
   11.6590  -15.8317   23.3940 O   0  0  0  0  0  0  0  0  0  0  0  0
   10.6897  -17.8696   24.0206 C   0  0  2  0  0  0  0  0  0  0  0  0
    9.4210  -17.4266   23.4849 N   0  0  0  0  0  0  0  0  0  0  0  0
   10.7578  -17.5982   25.4720 C   0  0  0  0  0  0  0  0  0  0  0  0
    9.8557  -16.9880   26.0826 O   0  0  0  0  0  0  0  0  0  0  0  0
   11.8561  -18.0283   26.2042 O   0  0  0  0  0  0  0  0  0  0  0  0
  1  2  1  0
  3  2  1  0
  4  3  2  0
  5  3  1  0
  6  5  1  0
  7  8  1  0
  6  7  1  1
  9  6  1  0
  9 15  1  0
 10  9  2  0
 12 11  1  6
 12 14  1  0
 12 13  1  0
 14 15  1  6
 14 16  1  0
 16 18  1  0
 17 16  2  0
M  END
$$$$
