EIK.pdb
     RDKit          3D

 27 26  0  0  1  0  0  0  0  0999 V2000
    7.7091  -14.4252   20.1117 N   0  0  0  0  0  0  0  0  0  0  0  0
    7.4484  -15.1896   21.3066 C   0  0  1  0  0  0  0  0  0  0  0  0
    7.6888  -16.6612   21.0921 C   0  0  0  0  0  0  0  0  0  0  0  0
    6.8947  -17.1757   19.9280 C   0  0  0  0  0  0  0  0  0  0  0  0
    7.0437  -18.6533   19.8671 C   0  0  0  0  0  0  0  0  0  0  0  0
    7.3752  -19.3268   20.8809 O   0  0  0  0  0  0  0  0  0  0  0  0
    8.1558  -14.6933   22.4935 C   0  0  0  0  0  0  0  0  0  0  0  0
    9.3833  -14.3918   22.5022 O   0  0  0  0  0  0  0  0  0  0  0  0
    6.8207  -19.3595   18.6683 O   0  0  0  0  0  0  0  0  0  0  0  0
    5.5299  -11.4425   25.8030 C   0  0  0  0  0  0  0  0  0  0  0  0
    6.6276  -12.0592   24.9207 C   0  0  0  0  0  0  0  0  0  0  0  0
    7.1247  -13.2557   25.6420 C   0  0  2  0  0  0  0  0  0  0  0  0
    7.6646  -12.8198   26.9996 C   0  0  0  0  0  0  0  0  0  0  0  0
    8.1230  -14.1151   24.9372 C   0  0  2  0  0  0  0  0  0  0  0  0
    7.4363  -14.5386   23.6952 N   0  0  0  0  0  0  0  0  0  0  0  0
    8.5301  -15.3397   25.6483 C   0  0  0  0  0  0  0  0  0  0  0  0
    7.6782  -16.2835   25.8146 O   0  0  0  0  0  0  0  0  0  0  0  0
    9.8157  -15.5849   26.1841 N   0  0  0  0  0  0  0  0  0  0  0  0
   10.1640  -16.8953   26.7556 C   0  0  1  0  0  0  0  0  0  0  0  0
   11.4322  -17.3669   26.1093 C   0  0  0  0  0  0  0  0  0  0  0  0
   11.9721  -18.6272   26.6913 C   0  0  0  0  0  0  0  0  0  0  0  0
   13.2524  -19.1071   26.0428 C   0  0  0  0  0  0  0  0  0  0  0  0
   13.7443  -20.3918   26.7209 C   0  0  0  0  0  0  0  0  0  0  0  0
   14.9849  -20.7623   26.0676 N   0  0  0  0  0  0  0  0  0  0  0  0
   10.3053  -16.7376   28.2011 C   0  0  0  0  0  0  0  0  0  0  0  0
   10.3926  -15.5849   28.7588 O   0  0  0  0  0  0  0  0  0  0  0  0
   10.3501  -17.8167   29.0480 O   0  0  0  0  0  0  0  0  0  0  0  0
  2  1  1  6
  3  2  1  0
  4  3  1  0
  5  4  1  0
  5  6  2  0
  7  2  1  0
  7  8  2  0
  9  5  1  0
 10 11  1  0
 12 11  1  0
 12 14  1  0
 12 13  1  1
 14 15  1  6
 15  7  1  0
 16 14  1  0
 17 16  2  0
 18 16  1  0
 19 25  1  0
 19 18  1  0
 19 20  1  6
 21 20  1  0
 22 21  1  0
 23 24  1  0
 23 22  1  0
 25 27  1  0
 26 25  2  0
M  END
$$$$
