EIK.pdb
     RDKit          3D

 27 26  0  0  1  0  0  0  0  0999 V2000
    6.6055  -16.3537   22.0371 N   0  0  0  0  0  0  0  0  0  0  0  0
    8.0450  -16.3617   21.9482 C   0  0  1  0  0  0  0  0  0  0  0  0
    8.5258  -15.8333   20.6219 C   0  0  0  0  0  0  0  0  0  0  0  0
    8.0612  -16.7033   19.4916 C   0  0  0  0  0  0  0  0  0  0  0  0
    8.6773  -16.2136   18.2307 C   0  0  0  0  0  0  0  0  0  0  0  0
    8.1383  -16.4178   17.1086 O   0  0  0  0  0  0  0  0  0  0  0  0
    8.7117  -15.6915   23.0714 C   0  0  0  0  0  0  0  0  0  0  0  0
    9.9574  -15.4833   23.1231 O   0  0  0  0  0  0  0  0  0  0  0  0
    9.8930  -15.5013   18.2423 O   0  0  0  0  0  0  0  0  0  0  0  0
    5.7692  -11.9877   25.5029 C   0  0  0  0  0  0  0  0  0  0  0  0
    6.9816  -12.6527   24.8310 C   0  0  0  0  0  0  0  0  0  0  0  0
    7.5241  -13.6257   25.8097 C   0  0  2  0  0  0  0  0  0  0  0  0
    8.0395  -12.8623   27.0248 C   0  0  0  0  0  0  0  0  0  0  0  0
    8.5601  -14.5846   25.3205 C   0  0  2  0  0  0  0  0  0  0  0  0
    7.9296  -15.2497   24.1571 N   0  0  0  0  0  0  0  0  0  0  0  0
    8.9516  -15.6434   26.2674 C   0  0  0  0  0  0  0  0  0  0  0  0
    8.0724  -16.4871   26.6667 O   0  0  0  0  0  0  0  0  0  0  0  0
   10.2497  -15.8271   26.7975 N   0  0  0  0  0  0  0  0  0  0  0  0
   10.5530  -16.9551   27.6923 C   0  0  1  0  0  0  0  0  0  0  0  0
   11.6284  -17.7834   27.0552 C   0  0  0  0  0  0  0  0  0  0  0  0
   12.1161  -18.8996   27.9123 C   0  0  0  0  0  0  0  0  0  0  0  0
   13.1618  -19.7722   27.2526 C   0  0  0  0  0  0  0  0  0  0  0  0
   13.5701  -20.9157   28.1897 C   0  0  0  0  0  0  0  0  0  0  0  0
   14.5868  -21.6831   27.4966 N   0  0  0  0  0  0  0  0  0  0  0  0
   10.9656  -16.4120   28.9844 C   0  0  0  0  0  0  0  0  0  0  0  0
   11.1339  -17.1552   30.0172 O   0  0  0  0  0  0  0  0  0  0  0  0
   11.2000  -15.0722   29.1670 O   0  0  0  0  0  0  0  0  0  0  0  0
  2  1  1  1
  3  2  1  0
  4  3  1  0
  5  4  1  0
  5  6  2  0
  7  2  1  0
  7  8  2  0
  9  5  1  0
 10 11  1  0
 12 11  1  0
 12 14  1  0
 12 13  1  1
 14 15  1  6
 15  7  1  0
 16 14  1  0
 17 16  2  0
 18 16  1  0
 19 25  1  0
 19 18  1  0
 19 20  1  6
 21 20  1  0
 22 21  1  0
 23 24  1  0
 23 22  1  0
 25 27  1  0
 26 25  2  0
M  END
$$$$
