EIK.pdb
     RDKit          3D

 27 26  0  0  1  0  0  0  0  0999 V2000
    7.7713  -14.0913   20.3232 N   0  0  0  0  0  0  0  0  0  0  0  0
    7.2314  -14.7122   21.5077 C   0  0  1  0  0  0  0  0  0  0  0  0
    6.8579  -16.1511   21.2635 C   0  0  0  0  0  0  0  0  0  0  0  0
    7.9085  -16.8538   20.4557 C   0  0  0  0  0  0  0  0  0  0  0  0
    7.4358  -18.2309   20.1565 C   0  0  0  0  0  0  0  0  0  0  0  0
    7.1652  -18.5961   18.9797 O   0  0  0  0  0  0  0  0  0  0  0  0
    8.0851  -14.5687   22.6934 C   0  0  0  0  0  0  0  0  0  0  0  0
    9.3483  -14.5922   22.6540 O   0  0  0  0  0  0  0  0  0  0  0  0
    7.2699  -19.1834   21.1816 O   0  0  0  0  0  0  0  0  0  0  0  0
    5.9926  -11.4290   26.5622 C   0  0  0  0  0  0  0  0  0  0  0  0
    6.9673  -12.0035   25.5213 C   0  0  0  0  0  0  0  0  0  0  0  0
    7.4129  -13.3184   26.0425 C   0  0  2  0  0  0  0  0  0  0  0  0
    8.0725  -13.1085   27.4010 C   0  0  0  0  0  0  0  0  0  0  0  0
    8.2918  -14.1433   25.1598 C   0  0  2  0  0  0  0  0  0  0  0  0
    7.4736  -14.3925   23.9507 N   0  0  0  0  0  0  0  0  0  0  0  0
    8.6866  -15.4576   25.6963 C   0  0  0  0  0  0  0  0  0  0  0  0
    7.7885  -16.3502   25.8987 O   0  0  0  0  0  0  0  0  0  0  0  0
   10.0073  -15.8449   26.0210 N   0  0  0  0  0  0  0  0  0  0  0  0
   10.3075  -17.2087   26.4846 C   0  0  1  0  0  0  0  0  0  0  0  0
   11.5234  -17.6956   25.7543 C   0  0  0  0  0  0  0  0  0  0  0  0
   12.0379  -19.0038   26.2465 C   0  0  0  0  0  0  0  0  0  0  0  0
   13.3327  -19.4411   25.5968 C   0  0  0  0  0  0  0  0  0  0  0  0
   13.8063  -20.7717   26.1948 C   0  0  0  0  0  0  0  0  0  0  0  0
   15.0492  -21.1118   25.5294 N   0  0  0  0  0  0  0  0  0  0  0  0
   10.5124  -17.1625   27.9304 C   0  0  0  0  0  0  0  0  0  0  0  0
   10.7412  -16.0647   28.5547 O   0  0  0  0  0  0  0  0  0  0  0  0
   10.4688  -18.2939   28.7061 O   0  0  0  0  0  0  0  0  0  0  0  0
  2  1  1  6
  3  2  1  0
  4  3  1  0
  5  4  1  0
  5  6  2  0
  7  2  1  0
  7  8  2  0
  9  5  1  0
 10 11  1  0
 12 11  1  0
 12 14  1  0
 12 13  1  1
 14 15  1  6
 15  7  1  0
 16 14  1  0
 17 16  2  0
 18 16  1  0
 19 25  1  0
 19 18  1  0
 19 20  1  6
 21 20  1  0
 22 21  1  0
 23 24  1  0
 23 22  1  0
 25 27  1  0
 26 25  2  0
M  END
$$$$
