EIK.pdb
     RDKit          3D

 27 26  0  0  1  0  0  0  0  0999 V2000
    8.0728  -15.3360   20.4842 N   0  0  0  0  0  0  0  0  0  0  0  0
    7.3787  -15.5994   21.7207 C   0  0  1  0  0  0  0  0  0  0  0  0
    6.7782  -16.9809   21.7411 C   0  0  0  0  0  0  0  0  0  0  0  0
    7.7226  -17.9906   21.1589 C   0  0  0  0  0  0  0  0  0  0  0  0
    7.0601  -19.3211   21.1676 C   0  0  0  0  0  0  0  0  0  0  0  0
    5.8879  -19.4733   21.6082 O   0  0  0  0  0  0  0  0  0  0  0  0
    8.1860  -15.3426   22.9197 C   0  0  0  0  0  0  0  0  0  0  0  0
    9.4427  -15.4734   22.9591 O   0  0  0  0  0  0  0  0  0  0  0  0
    7.7210  -20.4675   20.6832 O   0  0  0  0  0  0  0  0  0  0  0  0
    6.0104  -11.6120   26.1349 C   0  0  0  0  0  0  0  0  0  0  0  0
    7.0371  -12.3443   25.2555 C   0  0  0  0  0  0  0  0  0  0  0  0
    7.4484  -13.5544   26.0073 C   0  0  2  0  0  0  0  0  0  0  0  0
    8.1011  -13.1200   27.3151 C   0  0  0  0  0  0  0  0  0  0  0  0
    8.3160  -14.5411   25.2962 C   0  0  2  0  0  0  0  0  0  0  0  0
    7.5351  -14.9250   24.0977 N   0  0  0  0  0  0  0  0  0  0  0  0
    8.6162  -15.7801   26.0349 C   0  0  0  0  0  0  0  0  0  0  0  0
    7.6634  -16.5900   26.3190 O   0  0  0  0  0  0  0  0  0  0  0  0
    9.8992  -16.1781   26.4767 N   0  0  0  0  0  0  0  0  0  0  0  0
   10.1050  -17.4711   27.1482 C   0  0  1  0  0  0  0  0  0  0  0  0
   11.1328  -18.2427   26.3756 C   0  0  0  0  0  0  0  0  0  0  0  0
   11.5308  -19.5262   27.0181 C   0  0  0  0  0  0  0  0  0  0  0  0
   12.5440  -20.3240   26.2263 C   0  0  0  0  0  0  0  0  0  0  0  0
   12.7684  -21.6950   26.8763 C   0  0  0  0  0  0  0  0  0  0  0  0
   13.6506  -22.4369   25.9963 N   0  0  0  0  0  0  0  0  0  0  0  0
   10.5282  -17.2077   28.5215 C   0  0  0  0  0  0  0  0  0  0  0  0
   10.9766  -16.0638   28.8924 O   0  0  0  0  0  0  0  0  0  0  0  0
   10.4674  -18.1712   29.4971 O   0  0  0  0  0  0  0  0  0  0  0  0
  2  1  1  6
  3  2  1  0
  4  3  1  0
  5  4  1  0
  5  6  2  0
  7  2  1  0
  7  8  2  0
  9  5  1  0
 10 11  1  0
 12 11  1  0
 12 14  1  0
 12 13  1  1
 14 15  1  6
 15  7  1  0
 16 14  1  0
 17 16  2  0
 18 16  1  0
 19 25  1  0
 19 18  1  0
 19 20  1  6
 21 20  1  0
 22 21  1  0
 23 24  1  0
 23 22  1  0
 25 27  1  0
 26 25  2  0
M  END
$$$$
