EIK.pdb
     RDKit          3D

 27 26  0  0  1  0  0  0  0  0999 V2000
   11.2457  -17.8404   17.6209 N   0  0  0  0  0  0  0  0  0  0  0  0
   10.1059  -17.8540   18.5044 C   0  0  1  0  0  0  0  0  0  0  0  0
    9.7166  -19.2566   18.8926 C   0  0  0  0  0  0  0  0  0  0  0  0
   10.5830  -20.2694   18.2042 C   0  0  0  0  0  0  0  0  0  0  0  0
    9.8959  -21.5869   18.2422 C   0  0  0  0  0  0  0  0  0  0  0  0
    8.9082  -21.7959   18.9985 O   0  0  0  0  0  0  0  0  0  0  0  0
   10.2581  -16.9895   19.6812 C   0  0  0  0  0  0  0  0  0  0  0  0
   11.3631  -16.7797   20.2579 O   0  0  0  0  0  0  0  0  0  0  0  0
   10.3259  -22.6567   17.4322 O   0  0  0  0  0  0  0  0  0  0  0  0
    6.8868  -12.7275   19.9141 C   0  0  0  0  0  0  0  0  0  0  0  0
    8.1984  -13.5289   19.9464 C   0  0  0  0  0  0  0  0  0  0  0  0
    8.1115  -14.4313   21.1199 C   0  0  2  0  0  0  0  0  0  0  0  0
    7.8966  -13.5875   22.3715 C   0  0  0  0  0  0  0  0  0  0  0  0
    9.2347  -15.3941   21.3287 C   0  0  2  0  0  0  0  0  0  0  0  0
    9.1160  -16.3514   20.2049 N   0  0  0  0  0  0  0  0  0  0  0  0
    9.1836  -16.1781   22.5751 C   0  0  0  0  0  0  0  0  0  0  0  0
    8.1830  -16.9501   22.7924 O   0  0  0  0  0  0  0  0  0  0  0  0
   10.1663  -16.1623   23.5919 N   0  0  0  0  0  0  0  0  0  0  0  0
   10.0762  -17.0646   24.7507 C   0  0  1  0  0  0  0  0  0  0  0  0
   11.3905  -17.7709   24.8988 C   0  0  0  0  0  0  0  0  0  0  0  0
   11.2630  -19.2310   25.1639 C   0  0  0  0  0  0  0  0  0  0  0  0
   12.5788  -19.9244   25.4428 C   0  0  0  0  0  0  0  0  0  0  0  0
   12.3598  -21.4322   25.6193 C   0  0  0  0  0  0  0  0  0  0  0  0
   13.6732  -22.0357   25.7381 N   0  0  0  0  0  0  0  0  0  0  0  0
    9.7435  -16.2630   25.9260 C   0  0  0  0  0  0  0  0  0  0  0  0
    9.6883  -14.9813   25.8873 O   0  0  0  0  0  0  0  0  0  0  0  0
    9.4675  -16.8372   27.1416 O   0  0  0  0  0  0  0  0  0  0  0  0
  2  1  1  1
  3  2  1  0
  4  3  1  0
  5  4  1  0
  5  6  2  0
  7  2  1  0
  7  8  2  0
  9  5  1  0
 10 11  1  0
 12 11  1  0
 12 14  1  0
 12 13  1  1
 14 15  1  6
 15  7  1  0
 16 14  1  0
 17 16  2  0
 18 16  1  0
 19 25  1  0
 19 18  1  0
 19 20  1  1
 21 20  1  0
 22 21  1  0
 23 24  1  0
 23 22  1  0
 25 27  1  0
 26 25  2  0
M  END
$$$$
