EIK.pdb
     RDKit          3D

 27 26  0  0  1  0  0  0  0  0999 V2000
    7.8823  -14.7504   20.4563 N   0  0  0  0  0  0  0  0  0  0  0  0
    7.5520  -15.4457   21.6760 C   0  0  1  0  0  0  0  0  0  0  0  0
    7.6258  -16.9406   21.5043 C   0  0  0  0  0  0  0  0  0  0  0  0
    6.8400  -17.3878   20.3073 C   0  0  0  0  0  0  0  0  0  0  0  0
    6.9503  -18.8655   20.1915 C   0  0  0  0  0  0  0  0  0  0  0  0
    6.4538  -19.4911   19.2151 O   0  0  0  0  0  0  0  0  0  0  0  0
    8.3231  -14.9963   22.8417 C   0  0  0  0  0  0  0  0  0  0  0  0
    9.5684  -14.7813   22.8171 O   0  0  0  0  0  0  0  0  0  0  0  0
    7.6153  -19.6260   21.1739 O   0  0  0  0  0  0  0  0  0  0  0  0
    5.9957  -11.5674   26.2172 C   0  0  0  0  0  0  0  0  0  0  0  0
    7.0702  -12.2222   25.3338 C   0  0  0  0  0  0  0  0  0  0  0  0
    7.4590  -13.4838   26.0092 C   0  0  2  0  0  0  0  0  0  0  0  0
    8.0157  -13.1492   27.3887 C   0  0  0  0  0  0  0  0  0  0  0  0
    8.3926  -14.3929   25.2785 C   0  0  2  0  0  0  0  0  0  0  0  0
    7.6478  -14.7880   24.0608 N   0  0  0  0  0  0  0  0  0  0  0  0
    8.7628  -15.6327   25.9833 C   0  0  0  0  0  0  0  0  0  0  0  0
    7.8490  -16.4769   26.2938 O   0  0  0  0  0  0  0  0  0  0  0  0
   10.0755  -15.9959   26.3640 N   0  0  0  0  0  0  0  0  0  0  0  0
   10.3532  -17.2995   26.9874 C   0  0  1  0  0  0  0  0  0  0  0  0
   11.4874  -17.9418   26.2463 C   0  0  0  0  0  0  0  0  0  0  0  0
   11.8790  -19.2750   26.7828 C   0  0  0  0  0  0  0  0  0  0  0  0
   13.1311  -19.8486   26.1557 C   0  0  0  0  0  0  0  0  0  0  0  0
   13.4807  -21.1959   26.7998 C   0  0  0  0  0  0  0  0  0  0  0  0
   14.6452  -21.7051   26.1014 N   0  0  0  0  0  0  0  0  0  0  0  0
   10.6709  -17.0716   28.3951 C   0  0  0  0  0  0  0  0  0  0  0  0
   10.9778  -15.9108   28.8485 O   0  0  0  0  0  0  0  0  0  0  0  0
   10.6562  -18.0889   29.3163 O   0  0  0  0  0  0  0  0  0  0  0  0
  2  1  1  6
  3  2  1  0
  4  3  1  0
  5  4  1  0
  5  6  2  0
  7  2  1  0
  7  8  2  0
  9  5  1  0
 10 11  1  0
 12 11  1  0
 12 14  1  0
 12 13  1  1
 14 15  1  6
 15  7  1  0
 16 14  1  0
 17 16  2  0
 18 16  1  0
 19 25  1  0
 19 18  1  0
 19 20  1  6
 21 20  1  0
 22 21  1  0
 23 24  1  0
 23 22  1  0
 25 27  1  0
 26 25  2  0
M  END
$$$$
