EIK.pdb
     RDKit          3D

 27 26  0  0  1  0  0  0  0  0999 V2000
    8.4718  -15.2271   20.2453 N   0  0  0  0  0  0  0  0  0  0  0  0
    7.6525  -15.4058   21.4187 C   0  0  1  0  0  0  0  0  0  0  0  0
    6.9889  -16.7581   21.4362 C   0  0  0  0  0  0  0  0  0  0  0  0
    7.9987  -17.8548   21.6036 C   0  0  0  0  0  0  0  0  0  0  0  0
    7.2855  -19.1588   21.6211 C   0  0  0  0  0  0  0  0  0  0  0  0
    7.8439  -20.2123   22.0328 O   0  0  0  0  0  0  0  0  0  0  0  0
    8.3541  -15.1311   22.6787 C   0  0  0  0  0  0  0  0  0  0  0  0
    9.6127  -15.1371   22.7952 O   0  0  0  0  0  0  0  0  0  0  0  0
    5.9534  -19.2670   21.1745 O   0  0  0  0  0  0  0  0  0  0  0  0
    5.8270  -11.6186   25.8808 C   0  0  0  0  0  0  0  0  0  0  0  0
    6.8806  -12.3304   25.0167 C   0  0  0  0  0  0  0  0  0  0  0  0
    7.2907  -13.5425   25.7661 C   0  0  2  0  0  0  0  0  0  0  0  0
    7.8204  -13.1180   27.1314 C   0  0  0  0  0  0  0  0  0  0  0  0
    8.2560  -14.4670   25.0987 C   0  0  2  0  0  0  0  0  0  0  0  0
    7.5927  -14.8414   23.8285 N   0  0  0  0  0  0  0  0  0  0  0  0
    8.5499  -15.7173   25.8208 C   0  0  0  0  0  0  0  0  0  0  0  0
    7.6335  -16.6063   25.9386 O   0  0  0  0  0  0  0  0  0  0  0  0
    9.7894  -16.0445   26.4179 N   0  0  0  0  0  0  0  0  0  0  0  0
   10.0146  -17.3644   27.0279 C   0  0  1  0  0  0  0  0  0  0  0  0
   11.0595  -18.0802   26.2251 C   0  0  0  0  0  0  0  0  0  0  0  0
   11.4066  -19.4285   26.7543 C   0  0  0  0  0  0  0  0  0  0  0  0
   12.4278  -20.1734   25.9223 C   0  0  0  0  0  0  0  0  0  0  0  0
   12.7140  -21.5495   26.5361 C   0  0  0  0  0  0  0  0  0  0  0  0
   13.6078  -22.2376   25.6247 N   0  0  0  0  0  0  0  0  0  0  0  0
   10.4264  -17.1599   28.4146 C   0  0  0  0  0  0  0  0  0  0  0  0
   10.7716  -16.0082   28.8636 O   0  0  0  0  0  0  0  0  0  0  0  0
   10.4649  -18.1908   29.3198 O   0  0  0  0  0  0  0  0  0  0  0  0
  2  1  1  6
  3  2  1  0
  4  3  1  0
  5  4  1  0
  5  6  2  0
  7  2  1  0
  7  8  2  0
  9  5  1  0
 10 11  1  0
 12 11  1  0
 12 14  1  0
 12 13  1  1
 14 15  1  6
 15  7  1  0
 16 14  1  0
 17 16  2  0
 18 16  1  0
 19 25  1  0
 19 18  1  0
 19 20  1  6
 21 20  1  0
 22 21  1  0
 23 24  1  0
 23 22  1  0
 25 27  1  0
 26 25  2  0
M  END
$$$$
