EIK.pdb
     RDKit          3D

 27 26  0  0  1  0  0  0  0  0999 V2000
    7.8355  -15.3788   20.2146 N   0  0  0  0  0  0  0  0  0  0  0  0
    7.3131  -15.6170   21.5376 C   0  0  1  0  0  0  0  0  0  0  0  0
    6.9756  -17.0695   21.7518 C   0  0  0  0  0  0  0  0  0  0  0  0
    8.1116  -17.9566   21.3360 C   0  0  0  0  0  0  0  0  0  0  0  0
    7.6847  -19.3733   21.4776 C   0  0  0  0  0  0  0  0  0  0  0  0
    6.5322  -19.6785   21.8899 O   0  0  0  0  0  0  0  0  0  0  0  0
    8.1645  -15.0950   22.6137 C   0  0  0  0  0  0  0  0  0  0  0  0
    9.4269  -15.0663   22.5564 O   0  0  0  0  0  0  0  0  0  0  0  0
    8.5564  -20.4327   21.1567 O   0  0  0  0  0  0  0  0  0  0  0  0
    5.7830  -12.1894   26.9506 C   0  0  0  0  0  0  0  0  0  0  0  0
    6.1500  -13.2359   25.8858 C   0  0  0  0  0  0  0  0  0  0  0  0
    7.4714  -12.8382   25.3427 C   0  0  2  0  0  0  0  0  0  0  0  0
    7.2601  -11.7748   24.2707 C   0  0  0  0  0  0  0  0  0  0  0  0
    8.3564  -13.9263   24.8282 C   0  0  2  0  0  0  0  0  0  0  0  0
    7.5516  -14.5939   23.7794 N   0  0  0  0  0  0  0  0  0  0  0  0
    8.7376  -14.9593   25.8073 C   0  0  0  0  0  0  0  0  0  0  0  0
    7.9551  -15.9549   26.0086 O   0  0  0  0  0  0  0  0  0  0  0  0
    9.9259  -14.9602   26.5740 N   0  0  0  0  0  0  0  0  0  0  0  0
   10.2663  -16.0943   27.4475 C   0  0  1  0  0  0  0  0  0  0  0  0
   11.5350  -16.7126   26.9409 C   0  0  0  0  0  0  0  0  0  0  0  0
   11.9980  -17.8796   27.7422 C   0  0  0  0  0  0  0  0  0  0  0  0
   13.2794  -18.5058   27.2361 C   0  0  0  0  0  0  0  0  0  0  0  0
   13.6021  -19.7767   28.0317 C   0  0  0  0  0  0  0  0  0  0  0  0
   14.7518  -20.3896   27.3949 N   0  0  0  0  0  0  0  0  0  0  0  0
   10.4027  -15.5917   28.8125 C   0  0  0  0  0  0  0  0  0  0  0  0
   10.4552  -14.3371   29.0781 O   0  0  0  0  0  0  0  0  0  0  0  0
   10.4799  -16.4354   29.8923 O   0  0  0  0  0  0  0  0  0  0  0  0
  2  1  1  6
  3  2  1  0
  4  3  1  0
  5  4  1  0
  5  6  2  0
  7  2  1  0
  7  8  2  0
  9  5  1  0
 10 11  1  0
 12 11  1  0
 12 14  1  0
 12 13  1  6
 14 15  1  6
 15  7  1  0
 16 14  1  0
 17 16  2  0
 18 16  1  0
 19 25  1  0
 19 18  1  0
 19 20  1  6
 21 20  1  0
 22 21  1  0
 23 24  1  0
 23 22  1  0
 25 27  1  0
 26 25  2  0
M  END
$$$$
