EIK.pdb
     RDKit          3D

 27 26  0  0  1  0  0  0  0  0999 V2000
    7.5772  -14.1560   20.0241 N   0  0  0  0  0  0  0  0  0  0  0  0
    7.1827  -14.9447   21.1654 C   0  0  1  0  0  0  0  0  0  0  0  0
    7.1039  -16.4114   20.8307 C   0  0  0  0  0  0  0  0  0  0  0  0
    7.7036  -16.6928   19.4848 C   0  0  0  0  0  0  0  0  0  0  0  0
    7.4434  -18.1142   19.1364 C   0  0  0  0  0  0  0  0  0  0  0  0
    8.1700  -19.0466   19.5766 O   0  0  0  0  0  0  0  0  0  0  0  0
    7.9996  -14.7059   22.3615 C   0  0  0  0  0  0  0  0  0  0  0  0
    9.2606  -14.7921   22.3772 O   0  0  0  0  0  0  0  0  0  0  0  0
    6.3712  -18.4740   18.2959 O   0  0  0  0  0  0  0  0  0  0  0  0
    8.2906  -11.2001   26.6285 C   0  0  0  0  0  0  0  0  0  0  0  0
    7.7716  -12.6282   26.8627 C   0  0  0  0  0  0  0  0  0  0  0  0
    7.2620  -13.1104   25.5562 C   0  0  2  0  0  0  0  0  0  0  0  0
    5.8870  -13.7345   25.7673 C   0  0  0  0  0  0  0  0  0  0  0  0
    8.1391  -14.0361   24.7779 C   0  0  2  0  0  0  0  0  0  0  0  0
    7.3533  -14.3587   23.5647 N   0  0  0  0  0  0  0  0  0  0  0  0
    8.4670  -15.3131   25.4359 C   0  0  0  0  0  0  0  0  0  0  0  0
    7.5521  -16.1998   25.5801 O   0  0  0  0  0  0  0  0  0  0  0  0
    9.7386  -15.6693   25.9417 N   0  0  0  0  0  0  0  0  0  0  0  0
    9.9829  -17.0024   26.5147 C   0  0  1  0  0  0  0  0  0  0  0  0
   11.2131  -17.5708   25.8728 C   0  0  0  0  0  0  0  0  0  0  0  0
   11.1885  -17.5313   24.3840 C   0  0  0  0  0  0  0  0  0  0  0  0
   12.4709  -18.0026   23.7334 C   0  0  0  0  0  0  0  0  0  0  0  0
   12.3137  -18.0361   22.2081 C   0  0  0  0  0  0  0  0  0  0  0  0
   13.6144  -18.3683   21.6595 N   0  0  0  0  0  0  0  0  0  0  0  0
   10.1313  -16.8553   27.9607 C   0  0  0  0  0  0  0  0  0  0  0  0
   10.2051  -15.7064   28.5280 O   0  0  0  0  0  0  0  0  0  0  0  0
   10.1975  -17.9410   28.7976 O   0  0  0  0  0  0  0  0  0  0  0  0
  2  1  1  6
  3  2  1  0
  4  3  1  0
  5  4  1  0
  5  6  2  0
  7  2  1  0
  7  8  2  0
  9  5  1  0
 10 11  1  0
 12 11  1  0
 12 14  1  0
 12 13  1  1
 14 15  1  6
 15  7  1  0
 16 14  1  0
 17 16  2  0
 18 16  1  0
 19 25  1  0
 19 18  1  0
 19 20  1  6
 21 20  1  0
 22 21  1  0
 23 24  1  0
 23 22  1  0
 25 27  1  0
 26 25  2  0
M  END
$$$$
