EIK.pdb
     RDKit          3D

 27 26  0  0  1  0  0  0  0  0999 V2000
    7.8476  -14.4572   20.2689 N   0  0  0  0  0  0  0  0  0  0  0  0
    7.5715  -15.2700   21.4278 C   0  0  1  0  0  0  0  0  0  0  0  0
    7.7420  -16.7378   21.1342 C   0  0  0  0  0  0  0  0  0  0  0  0
    7.2134  -17.0830   19.7735 C   0  0  0  0  0  0  0  0  0  0  0  0
    7.3502  -18.5487   19.5683 C   0  0  0  0  0  0  0  0  0  0  0  0
    6.6525  -19.3752   20.2176 O   0  0  0  0  0  0  0  0  0  0  0  0
    8.3189  -14.8675   22.6256 C   0  0  0  0  0  0  0  0  0  0  0  0
    9.5518  -14.5889   22.6210 O   0  0  0  0  0  0  0  0  0  0  0  0
    8.2700  -19.0717   18.6378 O   0  0  0  0  0  0  0  0  0  0  0  0
    5.6701  -11.7425   26.0020 C   0  0  0  0  0  0  0  0  0  0  0  0
    6.7850  -12.3084   25.1074 C   0  0  0  0  0  0  0  0  0  0  0  0
    7.3170  -13.5047   25.8038 C   0  0  2  0  0  0  0  0  0  0  0  0
    7.8541  -13.0797   27.1660 C   0  0  0  0  0  0  0  0  0  0  0  0
    8.3325  -14.3253   25.0776 C   0  0  2  0  0  0  0  0  0  0  0  0
    7.6340  -14.7818   23.8541 N   0  0  0  0  0  0  0  0  0  0  0  0
    8.8068  -15.5291   25.7825 C   0  0  0  0  0  0  0  0  0  0  0  0
    7.9590  -16.4182   26.1499 O   0  0  0  0  0  0  0  0  0  0  0  0
   10.1548  -15.8102   26.1045 N   0  0  0  0  0  0  0  0  0  0  0  0
   10.5486  -17.1170   26.6544 C   0  0  1  0  0  0  0  0  0  0  0  0
   11.9008  -17.4673   26.1089 C   0  0  0  0  0  0  0  0  0  0  0  0
   12.4735  -18.7193   26.6772 C   0  0  0  0  0  0  0  0  0  0  0  0
   12.4961  -19.8821   25.7089 C   0  0  0  0  0  0  0  0  0  0  0  0
   13.2125  -21.0843   26.3364 C   0  0  0  0  0  0  0  0  0  0  0  0
   13.1317  -22.1685   25.3767 N   0  0  0  0  0  0  0  0  0  0  0  0
   10.5496  -17.0152   28.1118 C   0  0  0  0  0  0  0  0  0  0  0  0
   10.6058  -18.0490   28.8703 O   0  0  0  0  0  0  0  0  0  0  0  0
   10.4932  -15.8040   28.7547 O   0  0  0  0  0  0  0  0  0  0  0  0
  2  1  1  6
  3  2  1  0
  4  3  1  0
  5  4  1  0
  5  6  2  0
  7  2  1  0
  7  8  2  0
  9  5  1  0
 10 11  1  0
 12 11  1  0
 12 14  1  0
 12 13  1  1
 14 15  1  6
 15  7  1  0
 16 14  1  0
 17 16  2  0
 18 16  1  0
 19 25  1  0
 19 18  1  0
 19 20  1  6
 21 20  1  0
 22 21  1  0
 23 24  1  0
 23 22  1  0
 25 27  1  0
 26 25  2  0
M  END
$$$$
