EIK.pdb
     RDKit          3D

 27 26  0  0  1  0  0  0  0  0999 V2000
    7.9921  -15.0643   20.4159 N   0  0  0  0  0  0  0  0  0  0  0  0
    7.5816  -15.5843   21.6970 C   0  0  1  0  0  0  0  0  0  0  0  0
    7.5272  -17.0898   21.6976 C   0  0  0  0  0  0  0  0  0  0  0  0
    8.3428  -17.6617   20.5760 C   0  0  0  0  0  0  0  0  0  0  0  0
    8.1710  -19.1381   20.5684 C   0  0  0  0  0  0  0  0  0  0  0  0
    8.5299  -19.8506   21.5455 O   0  0  0  0  0  0  0  0  0  0  0  0
    8.3691  -15.0709   22.8247 C   0  0  0  0  0  0  0  0  0  0  0  0
    9.6105  -14.8408   22.7648 O   0  0  0  0  0  0  0  0  0  0  0  0
    7.5997  -19.7996   19.4632 O   0  0  0  0  0  0  0  0  0  0  0  0
    5.8507  -11.5501   25.9552 C   0  0  0  0  0  0  0  0  0  0  0  0
    6.9521  -12.1938   25.0973 C   0  0  0  0  0  0  0  0  0  0  0  0
    7.4657  -13.3505   25.8701 C   0  0  2  0  0  0  0  0  0  0  0  0
    8.0260  -12.8443   27.1947 C   0  0  0  0  0  0  0  0  0  0  0  0
    8.4558  -14.2415   25.1935 C   0  0  2  0  0  0  0  0  0  0  0  0
    7.7151  -14.8150   24.0464 N   0  0  0  0  0  0  0  0  0  0  0  0
    8.9556  -15.3710   25.9970 C   0  0  0  0  0  0  0  0  0  0  0  0
    8.1234  -16.2257   26.4671 O   0  0  0  0  0  0  0  0  0  0  0  0
   10.3130  -15.6135   26.3111 N   0  0  0  0  0  0  0  0  0  0  0  0
   10.7172  -16.8128   27.0615 C   0  0  1  0  0  0  0  0  0  0  0  0
   12.1451  -17.1199   26.7217 C   0  0  0  0  0  0  0  0  0  0  0  0
   12.7333  -18.2224   27.5323 C   0  0  0  0  0  0  0  0  0  0  0  0
   12.6556  -19.5820   26.8725 C   0  0  0  0  0  0  0  0  0  0  0  0
   13.1939  -20.6642   27.8167 C   0  0  0  0  0  0  0  0  0  0  0  0
   12.9514  -21.9409   27.1731 N   0  0  0  0  0  0  0  0  0  0  0  0
   10.5336  -16.5414   28.4853 C   0  0  0  0  0  0  0  0  0  0  0  0
   10.5170  -15.3484   28.9583 O   0  0  0  0  0  0  0  0  0  0  0  0
   10.3651  -17.5501   29.4006 O   0  0  0  0  0  0  0  0  0  0  0  0
  2  1  1  6
  3  2  1  0
  4  3  1  0
  5  4  1  0
  5  6  2  0
  7  2  1  0
  7  8  2  0
  9  5  1  0
 10 11  1  0
 12 11  1  0
 12 14  1  0
 12 13  1  1
 14 15  1  6
 15  7  1  0
 16 14  1  0
 17 16  2  0
 18 16  1  0
 19 25  1  0
 19 18  1  0
 19 20  1  1
 21 20  1  0
 22 21  1  0
 23 24  1  0
 23 22  1  0
 25 27  1  0
 26 25  2  0
M  END
$$$$
