EIK.pdb
     RDKit          3D

 27 26  0  0  1  0  0  0  0  0999 V2000
    8.3360  -14.8550   20.4409 N   0  0  0  0  0  0  0  0  0  0  0  0
    7.8949  -15.5537   21.6230 C   0  0  1  0  0  0  0  0  0  0  0  0
    7.9678  -17.0483   21.4484 C   0  0  0  0  0  0  0  0  0  0  0  0
    7.2898  -17.4794   20.1816 C   0  0  0  0  0  0  0  0  0  0  0  0
    6.1321  -18.3431   20.5324 C   0  0  0  0  0  0  0  0  0  0  0  0
    4.9461  -17.9918   20.2849 O   0  0  0  0  0  0  0  0  0  0  0  0
    8.5673  -15.1194   22.8536 C   0  0  0  0  0  0  0  0  0  0  0  0
    9.8217  -15.0106   22.9653 O   0  0  0  0  0  0  0  0  0  0  0  0
    6.3176  -19.5914   21.1591 O   0  0  0  0  0  0  0  0  0  0  0  0
    5.8185  -11.6665   25.9822 C   0  0  0  0  0  0  0  0  0  0  0  0
    6.9244  -12.3193   25.1369 C   0  0  0  0  0  0  0  0  0  0  0  0
    7.3958  -13.5001   25.9001 C   0  0  2  0  0  0  0  0  0  0  0  0
    7.8914  -13.0350   27.2649 C   0  0  0  0  0  0  0  0  0  0  0  0
    8.4156  -14.3754   25.2474 C   0  0  2  0  0  0  0  0  0  0  0  0
    7.7810  -14.8016   23.9789 N   0  0  0  0  0  0  0  0  0  0  0  0
    8.7771  -15.5985   25.9853 C   0  0  0  0  0  0  0  0  0  0  0  0
    7.8790  -16.4851   26.2122 O   0  0  0  0  0  0  0  0  0  0  0  0
   10.0649  -15.9012   26.4852 N   0  0  0  0  0  0  0  0  0  0  0  0
   10.3414  -17.1867   27.1454 C   0  0  1  0  0  0  0  0  0  0  0  0
   11.4563  -17.8638   26.4059 C   0  0  0  0  0  0  0  0  0  0  0  0
   11.8617  -19.1713   26.9931 C   0  0  0  0  0  0  0  0  0  0  0  0
   13.0315  -19.8263   26.2912 C   0  0  0  0  0  0  0  0  0  0  0  0
   13.3641  -21.1704   26.9509 C   0  0  0  0  0  0  0  0  0  0  0  0
   14.5810  -21.6538   26.3275 N   0  0  0  0  0  0  0  0  0  0  0  0
   10.6860  -16.9169   28.5393 C   0  0  0  0  0  0  0  0  0  0  0  0
   10.7817  -17.8512   29.4141 O   0  0  0  0  0  0  0  0  0  0  0  0
   10.9305  -15.6450   28.9933 O   0  0  0  0  0  0  0  0  0  0  0  0
  2  1  1  6
  3  2  1  0
  4  3  1  0
  5  4  1  0
  5  6  2  0
  7  2  1  0
  7  8  2  0
  9  5  1  0
 10 11  1  0
 12 11  1  0
 12 14  1  0
 12 13  1  1
 14 15  1  6
 15  7  1  0
 16 14  1  0
 17 16  2  0
 18 16  1  0
 19 25  1  0
 19 18  1  0
 19 20  1  6
 21 20  1  0
 22 21  1  0
 23 24  1  0
 23 22  1  0
 25 27  1  0
 26 25  2  0
M  END
$$$$
