EIK.pdb
     RDKit          3D

 27 26  0  0  1  0  0  0  0  0999 V2000
   11.1015  -17.7376   17.6126 N   0  0  0  0  0  0  0  0  0  0  0  0
    9.8672  -17.6786   18.3563 C   0  0  1  0  0  0  0  0  0  0  0  0
    9.3057  -19.0521   18.6168 C   0  0  0  0  0  0  0  0  0  0  0  0
   10.3922  -20.0225   18.9746 C   0  0  0  0  0  0  0  0  0  0  0  0
    9.7787  -21.3545   19.2170 C   0  0  0  0  0  0  0  0  0  0  0  0
    8.5307  -21.5284   19.1572 O   0  0  0  0  0  0  0  0  0  0  0  0
    9.9559  -16.8875   19.5898 C   0  0  0  0  0  0  0  0  0  0  0  0
   11.0056  -16.7937   20.2877 O   0  0  0  0  0  0  0  0  0  0  0  0
   10.5723  -22.4771   19.5258 O   0  0  0  0  0  0  0  0  0  0  0  0
    6.9297  -12.3854   19.7701 C   0  0  0  0  0  0  0  0  0  0  0  0
    8.1657  -13.2903   19.9009 C   0  0  0  0  0  0  0  0  0  0  0  0
    7.8659  -14.2585   20.9833 C   0  0  2  0  0  0  0  0  0  0  0  0
    7.5795  -13.4856   22.2661 C   0  0  0  0  0  0  0  0  0  0  0  0
    8.8707  -15.3344   21.2381 C   0  0  2  0  0  0  0  0  0  0  0  0
    8.8143  -16.1881   20.0292 N   0  0  0  0  0  0  0  0  0  0  0  0
    8.5998  -16.2030   22.3970 C   0  0  0  0  0  0  0  0  0  0  0  0
    7.6307  -17.0409   22.3426 O   0  0  0  0  0  0  0  0  0  0  0  0
    9.3314  -16.2033   23.6073 N   0  0  0  0  0  0  0  0  0  0  0  0
    8.9946  -17.1304   24.6991 C   0  0  1  0  0  0  0  0  0  0  0  0
   10.1802  -17.2311   25.6117 C   0  0  0  0  0  0  0  0  0  0  0  0
    9.9274  -18.0329   26.8412 C   0  0  0  0  0  0  0  0  0  0  0  0
   11.0683  -18.0140   27.8352 C   0  0  0  0  0  0  0  0  0  0  0  0
   10.7497  -18.9219   29.0296 C   0  0  0  0  0  0  0  0  0  0  0  0
   11.9945  -19.1261   29.7450 N   0  0  0  0  0  0  0  0  0  0  0  0
    7.8115  -16.6152   25.3842 C   0  0  0  0  0  0  0  0  0  0  0  0
    7.0208  -17.3754   26.0505 O   0  0  0  0  0  0  0  0  0  0  0  0
    7.4791  -15.2839   25.3564 O   0  0  0  0  0  0  0  0  0  0  0  0
  2  1  1  1
  3  2  1  0
  4  3  1  0
  5  4  1  0
  5  6  2  0
  7  2  1  0
  7  8  2  0
  9  5  1  0
 10 11  1  0
 12 11  1  0
 12 14  1  0
 12 13  1  1
 14 15  1  6
 15  7  1  0
 16 14  1  0
 17 16  2  0
 18 16  1  0
 19 25  1  0
 19 18  1  0
 19 20  1  1
 21 20  1  0
 22 21  1  0
 23 24  1  0
 23 22  1  0
 25 27  1  0
 26 25  2  0
M  END
$$$$
