DCG.pdb
     RDKit          3D

 19 18  0  0  1  0  0  0  0  0999 V2000
   30.2727  -11.3419  -18.6233 N   0  0  0  0  0  0  0  0  0  0  0  0
   29.5706  -10.1489  -18.2968 C   0  0  1  0  0  0  0  0  0  0  0  0
   29.9476   -8.9603  -19.1372 C   0  0  0  0  0  0  0  0  0  0  0  0
   31.4030   -8.7076  -19.0443 C   0  0  0  0  0  0  0  0  0  0  0  0
   32.0469   -8.5649  -20.1281 O   0  0  0  0  0  0  0  0  0  0  0  0
   28.0822  -10.3299  -18.3280 C   0  0  0  0  0  0  0  0  0  0  0  0
   27.5442  -10.9678  -19.2776 O   0  0  0  0  0  0  0  0  0  0  0  0
   32.0956   -8.6185  -17.8666 O   0  0  0  0  0  0  0  0  0  0  0  0
   27.2446   -9.8082  -17.3230 N   0  0  0  0  0  0  0  0  0  0  0  0
   25.8007  -10.0146  -17.2503 C   0  0  1  0  0  0  0  0  0  0  0  0
   25.6005  -11.2516  -16.3997 C   0  0  0  0  0  0  0  0  0  0  0  0
   26.9710  -11.6931  -15.3588 S   0  0  0  0  0  0  0  0  0  0  0  0
   25.1103   -8.8201  -16.7533 C   0  0  0  0  0  0  0  0  0  0  0  0
   25.7354   -8.0417  -15.9431 O   0  0  0  0  0  0  0  0  0  0  0  0
   23.7880   -8.4500  -17.1022 N   0  0  0  0  0  0  0  0  0  0  0  0
   23.2578   -7.1862  -16.6261 C   0  0  0  0  0  0  0  0  0  0  0  0
   22.5155   -7.3268  -15.3626 C   0  0  0  0  0  0  0  0  0  0  0  0
   22.4077   -8.4332  -14.7970 O   0  0  0  0  0  0  0  0  0  0  0  0
   21.9269   -6.2218  -14.7890 O   0  0  0  0  0  0  0  0  0  0  0  0
  2  1  1  6
  2  3  1  0
  3  4  1  0
  4  8  1  0
  5  4  2  0
  6  2  1  0
  6  7  2  0
  9  6  1  0
 10  9  1  0
 10 11  1  1
 12 11  1  0
 13 10  1  0
 14 13  2  0
 15 13  1  0
 16 15  1  0
 17 16  1  0
 17 19  1  0
 18 17  2  0
M  END
$$$$
