DCG.pdb
     RDKit          3D

 19 18  0  0  1  0  0  0  0  0999 V2000
   27.5021  -13.7048  -17.1119 N   0  0  0  0  0  0  0  0  0  0  0  0
   27.7608  -13.0065  -18.3235 C   0  0  1  0  0  0  0  0  0  0  0  0
   26.5372  -12.7375  -19.1551 C   0  0  0  0  0  0  0  0  0  0  0  0
   25.7545  -13.9810  -19.3327 C   0  0  0  0  0  0  0  0  0  0  0  0
   26.3490  -14.9861  -19.8287 O   0  0  0  0  0  0  0  0  0  0  0  0
   28.5047  -11.7234  -18.1010 C   0  0  0  0  0  0  0  0  0  0  0  0
   28.0628  -10.8729  -17.2767 O   0  0  0  0  0  0  0  0  0  0  0  0
   24.4339  -14.1144  -18.9966 O   0  0  0  0  0  0  0  0  0  0  0  0
   29.6980  -11.4227  -18.7864 N   0  0  0  0  0  0  0  0  0  0  0  0
   30.5391  -10.2579  -18.5249 C   0  0  1  0  0  0  0  0  0  0  0  0
   31.9651  -10.7679  -18.5221 C   0  0  0  0  0  0  0  0  0  0  0  0
   32.3354  -11.9948  -17.2915 S   0  0  0  0  0  0  0  0  0  0  0  0
   30.2832   -9.1818  -19.4878 C   0  0  0  0  0  0  0  0  0  0  0  0
   30.1314   -9.4895  -20.7269 O   0  0  0  0  0  0  0  0  0  0  0  0
   30.1873   -7.8082  -19.1544 N   0  0  0  0  0  0  0  0  0  0  0  0
   29.7975   -6.8570  -20.1782 C   0  0  0  0  0  0  0  0  0  0  0  0
   29.6797   -5.4851  -19.6573 C   0  0  0  0  0  0  0  0  0  0  0  0
   29.4838   -4.5192  -20.4215 O   0  0  0  0  0  0  0  0  0  0  0  0
   29.7866   -5.2565  -18.3034 O   0  0  0  0  0  0  0  0  0  0  0  0
  2  1  1  1
  2  3  1  0
  3  4  1  0
  4  8  1  0
  5  4  2  0
  6  2  1  0
  6  7  2  0
  9  6  1  0
 10  9  1  0
 10 11  1  6
 12 11  1  0
 13 10  1  0
 14 13  2  0
 15 13  1  0
 16 15  1  0
 17 16  1  0
 17 19  1  0
 18 17  2  0
M  END
$$$$
