DCG.pdb
     RDKit          3D

 19 18  0  0  1  0  0  0  0  0999 V2000
   16.4215   -9.9138  -10.3719 N   0  0  0  0  0  0  0  0  0  0  0  0
   16.5059   -9.2045  -11.6017 C   0  0  1  0  0  0  0  0  0  0  0  0
   15.3106   -8.3427  -11.9014 C   0  0  0  0  0  0  0  0  0  0  0  0
   14.0834   -9.1685  -11.9537 C   0  0  0  0  0  0  0  0  0  0  0  0
   14.1315  -10.2555  -12.6061 O   0  0  0  0  0  0  0  0  0  0  0  0
   17.7542   -8.3800  -11.7064 C   0  0  0  0  0  0  0  0  0  0  0  0
   18.0954   -7.6280  -10.7493 O   0  0  0  0  0  0  0  0  0  0  0  0
   12.9036   -8.8342  -11.3443 O   0  0  0  0  0  0  0  0  0  0  0  0
   18.5766   -8.4107  -12.8495 N   0  0  0  0  0  0  0  0  0  0  0  0
   19.7939   -7.6227  -13.0225 C   0  0  1  0  0  0  0  0  0  0  0  0
   20.9046   -8.6229  -13.2664 C   0  0  0  0  0  0  0  0  0  0  0  0
   22.4916   -7.9236  -13.6523 S   0  0  0  0  0  0  0  0  0  0  0  0
   19.6400   -6.6193  -14.0808 C   0  0  0  0  0  0  0  0  0  0  0  0
   19.2028   -6.9993  -15.2288 O   0  0  0  0  0  0  0  0  0  0  0  0
   19.9387   -5.2421  -13.9351 N   0  0  0  0  0  0  0  0  0  0  0  0
   19.8781   -4.3777  -15.0987 C   0  0  0  0  0  0  0  0  0  0  0  0
   21.1893   -3.8044  -15.4438 C   0  0  0  0  0  0  0  0  0  0  0  0
   22.0106   -4.4408  -16.1337 O   0  0  0  0  0  0  0  0  0  0  0  0
   21.5222   -2.5437  -15.0006 O   0  0  0  0  0  0  0  0  0  0  0  0
  2  1  1  1
  2  3  1  0
  3  4  1  0
  4  8  1  0
  5  4  2  0
  6  2  1  0
  6  7  2  0
  9  6  1  0
 10  9  1  0
 10 11  1  6
 12 11  1  0
 13 10  1  0
 14 13  2  0
 15 13  1  0
 16 15  1  0
 17 16  1  0
 17 19  1  0
 18 17  2  0
M  END
$$$$
