DCG.pdb
     RDKit          3D

 19 18  0  0  1  0  0  0  0  0999 V2000
   20.3314  -15.6759  -16.0370 N   0  0  0  0  0  0  0  0  0  0  0  0
   19.6390  -14.4733  -16.3485 C   0  0  1  0  0  0  0  0  0  0  0  0
   18.3531  -14.2867  -15.5917 C   0  0  0  0  0  0  0  0  0  0  0  0
   17.4101  -15.3836  -15.9049 C   0  0  0  0  0  0  0  0  0  0  0  0
   17.8846  -16.5548  -16.0174 O   0  0  0  0  0  0  0  0  0  0  0  0
   20.4975  -13.2550  -16.1816 C   0  0  0  0  0  0  0  0  0  0  0  0
   21.1459  -13.0823  -15.1102 O   0  0  0  0  0  0  0  0  0  0  0  0
   16.0627  -15.2144  -16.0801 O   0  0  0  0  0  0  0  0  0  0  0  0
   20.6122  -12.2776  -17.1893 N   0  0  0  0  0  0  0  0  0  0  0  0
   21.5562  -11.1636  -17.1671 C   0  0  1  0  0  0  0  0  0  0  0  0
   22.2964  -11.2204  -18.4873 C   0  0  0  0  0  0  0  0  0  0  0  0
   23.6841  -12.3287  -18.5382 S   0  0  0  0  0  0  0  0  0  0  0  0
   20.8791   -9.8890  -16.9073 C   0  0  0  0  0  0  0  0  0  0  0  0
   19.8652   -9.5731  -17.6321 O   0  0  0  0  0  0  0  0  0  0  0  0
   21.2597   -8.9644  -15.9036 N   0  0  0  0  0  0  0  0  0  0  0  0
   20.4478   -7.7818  -15.6861 C   0  0  0  0  0  0  0  0  0  0  0  0
   21.0029   -6.9006  -14.6458 C   0  0  0  0  0  0  0  0  0  0  0  0
   20.5021   -5.7825  -14.4124 O   0  0  0  0  0  0  0  0  0  0  0  0
   22.0944   -7.3112  -13.9131 O   0  0  0  0  0  0  0  0  0  0  0  0
  2  1  1  1
  2  3  1  0
  3  4  1  0
  4  8  1  0
  5  4  2  0
  6  2  1  0
  6  7  2  0
  9  6  1  0
 10  9  1  0
 10 11  1  6
 12 11  1  0
 13 10  1  0
 14 13  2  0
 15 13  1  0
 16 15  1  0
 17 16  1  0
 17 19  1  0
 18 17  2  0
M  END
$$$$
