DCG.pdb
     RDKit          3D

 19 18  0  0  1  0  0  0  0  0999 V2000
   18.2820  -12.9746  -15.8118 N   0  0  0  0  0  0  0  0  0  0  0  0
   18.4107  -11.6396  -16.2848 C   0  0  1  0  0  0  0  0  0  0  0  0
   17.1232  -10.8628  -16.3006 C   0  0  0  0  0  0  0  0  0  0  0  0
   16.1179  -11.5535  -17.1390 C   0  0  0  0  0  0  0  0  0  0  0  0
   14.9534  -11.7047  -16.6587 O   0  0  0  0  0  0  0  0  0  0  0  0
   19.4533  -10.8621  -15.5381 C   0  0  0  0  0  0  0  0  0  0  0  0
   19.3715  -10.7420  -14.2823 O   0  0  0  0  0  0  0  0  0  0  0  0
   16.3648  -12.0378  -18.3957 O   0  0  0  0  0  0  0  0  0  0  0  0
   20.5398  -10.2492  -16.1921 N   0  0  0  0  0  0  0  0  0  0  0  0
   21.6098   -9.5147  -15.5224 C   0  0  1  0  0  0  0  0  0  0  0  0
   22.9047  -10.0632  -16.0847 C   0  0  0  0  0  0  0  0  0  0  0  0
   23.5930  -11.4467  -15.2081 S   0  0  0  0  0  0  0  0  0  0  0  0
   21.4479   -8.0656  -15.6786 C   0  0  0  0  0  0  0  0  0  0  0  0
   21.0619   -7.6098  -16.8173 O   0  0  0  0  0  0  0  0  0  0  0  0
   21.6859   -7.1134  -14.6570 N   0  0  0  0  0  0  0  0  0  0  0  0
   21.4937   -5.7043  -14.9440 C   0  0  0  0  0  0  0  0  0  0  0  0
   21.6715   -4.8573  -13.7532 C   0  0  0  0  0  0  0  0  0  0  0  0
   21.6931   -3.6136  -13.8432 O   0  0  0  0  0  0  0  0  0  0  0  0
   21.8172   -5.4413  -12.5145 O   0  0  0  0  0  0  0  0  0  0  0  0
  2  1  1  1
  2  3  1  0
  3  4  1  0
  4  8  1  0
  5  4  2  0
  6  2  1  0
  6  7  2  0
  9  6  1  0
 10  9  1  0
 10 11  1  6
 12 11  1  0
 13 10  1  0
 14 13  2  0
 15 13  1  0
 16 15  1  0
 17 16  1  0
 17 19  1  0
 18 17  2  0
M  END
$$$$
