DCG.pdb
     RDKit          3D

 19 18  0  0  1  0  0  0  0  0999 V2000
   19.6766  -25.8167   -9.6213 N   0  0  0  0  0  0  0  0  0  0  0  0
   18.2690  -25.9173   -9.7973 C   0  0  1  0  0  0  0  0  0  0  0  0
   17.8395  -27.0187  -10.7267 C   0  0  0  0  0  0  0  0  0  0  0  0
   18.4040  -26.7992  -12.0772 C   0  0  0  0  0  0  0  0  0  0  0  0
   18.1949  -27.6906  -12.9555 O   0  0  0  0  0  0  0  0  0  0  0  0
   17.5339  -26.0471   -8.4966 C   0  0  0  0  0  0  0  0  0  0  0  0
   16.3034  -26.3370   -8.4938 O   0  0  0  0  0  0  0  0  0  0  0  0
   19.1349  -25.6988  -12.4369 O   0  0  0  0  0  0  0  0  0  0  0  0
   18.1714  -25.8554   -7.2554 N   0  0  0  0  0  0  0  0  0  0  0  0
   17.5406  -26.0572   -5.9538 C   0  0  1  0  0  0  0  0  0  0  0  0
   18.6723  -26.3023   -4.9776 C   0  0  0  0  0  0  0  0  0  0  0  0
   18.2752  -26.0399   -3.2659 S   0  0  0  0  0  0  0  0  0  0  0  0
   16.6675  -24.9338   -5.5985 C   0  0  0  0  0  0  0  0  0  0  0  0
   17.0870  -23.7377   -5.8143 O   0  0  0  0  0  0  0  0  0  0  0  0
   15.3773  -25.0650   -5.0283 N   0  0  0  0  0  0  0  0  0  0  0  0
   14.6342  -23.8697   -4.6762 C   0  0  0  0  0  0  0  0  0  0  0  0
   14.5918  -23.6402   -3.2227 C   0  0  0  0  0  0  0  0  0  0  0  0
   15.1858  -24.3998   -2.4317 O   0  0  0  0  0  0  0  0  0  0  0  0
   13.8859  -22.5699   -2.7200 O   0  0  0  0  0  0  0  0  0  0  0  0
  2  1  1  1
  2  3  1  0
  3  4  1  0
  4  8  1  0
  5  4  2  0
  6  2  1  0
  6  7  2  0
  9  6  1  0
 10  9  1  0
 10 11  1  1
 12 11  1  0
 13 10  1  0
 14 13  2  0
 15 13  1  0
 16 15  1  0
 17 16  1  0
 17 19  1  0
 18 17  2  0
M  END
$$$$
