DCG.pdb
     RDKit          3D

 19 18  0  0  1  0  0  0  0  0999 V2000
   16.7328  -11.2138  -15.3638 N   0  0  0  0  0  0  0  0  0  0  0  0
   18.0503  -10.7062  -15.1935 C   0  0  1  0  0  0  0  0  0  0  0  0
   18.8314  -10.5733  -16.4716 C   0  0  0  0  0  0  0  0  0  0  0  0
   19.1620  -11.9111  -17.0118 C   0  0  0  0  0  0  0  0  0  0  0  0
   18.9477  -12.1183  -18.2450 O   0  0  0  0  0  0  0  0  0  0  0  0
   18.0735   -9.4001  -14.4567 C   0  0  0  0  0  0  0  0  0  0  0  0
   17.3098   -8.4592  -14.8168 O   0  0  0  0  0  0  0  0  0  0  0  0
   19.6827  -12.9353  -16.2671 O   0  0  0  0  0  0  0  0  0  0  0  0
   18.9277   -9.1760  -13.3595 N   0  0  0  0  0  0  0  0  0  0  0  0
   18.9757   -7.9432  -12.5781 C   0  0  1  0  0  0  0  0  0  0  0  0
   18.7710   -8.3577  -11.1359 C   0  0  0  0  0  0  0  0  0  0  0  0
   17.1504   -8.9682  -10.7390 S   0  0  0  0  0  0  0  0  0  0  0  0
   20.2146   -7.1979  -12.8235 C   0  0  0  0  0  0  0  0  0  0  0  0
   21.3303   -7.8367  -12.8022 O   0  0  0  0  0  0  0  0  0  0  0  0
   20.2797   -5.8075  -13.0876 N   0  0  0  0  0  0  0  0  0  0  0  0
   21.5403   -5.2252  -13.5080 C   0  0  0  0  0  0  0  0  0  0  0  0
   21.4116   -3.8040  -13.8699 C   0  0  0  0  0  0  0  0  0  0  0  0
   22.4163   -3.1074  -14.1166 O   0  0  0  0  0  0  0  0  0  0  0  0
   20.1633   -3.2266  -13.9392 O   0  0  0  0  0  0  0  0  0  0  0  0
  2  1  1  6
  2  3  1  0
  3  4  1  0
  4  8  1  0
  5  4  2  0
  6  2  1  0
  6  7  2  0
  9  6  1  0
 10  9  1  0
 10 11  1  1
 12 11  1  0
 13 10  1  0
 14 13  2  0
 15 13  1  0
 16 15  1  0
 17 16  1  0
 17 19  1  0
 18 17  2  0
M  END
$$$$
