DCG.pdb
     RDKit          3D

 19 18  0  0  1  0  0  0  0  0999 V2000
   18.8804  -13.7222  -16.1645 N   0  0  0  0  0  0  0  0  0  0  0  0
   19.0349  -12.3922  -16.6440 C   0  0  1  0  0  0  0  0  0  0  0  0
   17.7422  -11.7049  -16.9870 C   0  0  0  0  0  0  0  0  0  0  0  0
   16.9527  -12.5354  -17.9238 C   0  0  0  0  0  0  0  0  0  0  0  0
   17.5369  -12.9686  -18.9634 O   0  0  0  0  0  0  0  0  0  0  0  0
   19.8247  -11.5298  -15.7051 C   0  0  0  0  0  0  0  0  0  0  0  0
   19.4720  -11.4269  -14.4955 O   0  0  0  0  0  0  0  0  0  0  0  0
   15.6365  -12.8644  -17.7397 O   0  0  0  0  0  0  0  0  0  0  0  0
   20.9645  -10.8168  -16.1250 N   0  0  0  0  0  0  0  0  0  0  0  0
   21.8538  -10.0695  -15.2398 C   0  0  1  0  0  0  0  0  0  0  0  0
   23.2618  -10.4134  -15.6792 C   0  0  0  0  0  0  0  0  0  0  0  0
   23.8332  -12.0306  -15.2161 S   0  0  0  0  0  0  0  0  0  0  0  0
   21.5483   -8.6353  -15.2552 C   0  0  0  0  0  0  0  0  0  0  0  0
   21.2684   -8.0789  -16.3801 O   0  0  0  0  0  0  0  0  0  0  0  0
   21.5359   -7.8018  -14.1097 N   0  0  0  0  0  0  0  0  0  0  0  0
   21.2742   -6.3837  -14.2691 C   0  0  0  0  0  0  0  0  0  0  0  0
   22.5097   -5.5930  -14.3927 C   0  0  0  0  0  0  0  0  0  0  0  0
   23.1162   -5.5089  -15.4793 O   0  0  0  0  0  0  0  0  0  0  0  0
   23.0109   -4.9317  -13.2936 O   0  0  0  0  0  0  0  0  0  0  0  0
  2  1  1  1
  2  3  1  0
  3  4  1  0
  4  8  1  0
  5  4  2  0
  6  2  1  0
  6  7  2  0
  9  6  1  0
 10  9  1  0
 10 11  1  6
 12 11  1  0
 13 10  1  0
 14 13  2  0
 15 13  1  0
 16 15  1  0
 17 16  1  0
 17 19  1  0
 18 17  2  0
M  END
$$$$
