YNM.pdb
     RDKit          3D

 29 29  0  0  1  0  0  0  0  0999 V2000
    7.7870  -11.6665   18.2852 O   0  0  0  0  0  0  0  0  0  0  0  0
    8.0929  -12.9527   18.7322 C   0  0  0  0  0  0  0  0  0  0  0  0
    7.0855  -13.8876   18.9468 C   0  0  0  0  0  0  0  0  0  0  0  0
    7.3657  -15.1635   19.3881 C   0  0  0  0  0  0  0  0  0  0  0  0
    8.6864  -15.4869   19.6121 C   0  0  0  0  0  0  0  0  0  0  0  0
    9.0509  -16.8458   20.0882 C   0  0  0  0  0  0  0  0  0  0  0  0
    8.4095  -17.1591   21.4255 C   0  0  2  0  0  0  0  0  0  0  0  0
    7.6871  -16.0033   21.9159 N   0  0  0  0  0  0  0  0  0  0  0  0
    9.4627  -17.5197   22.3780 C   0  0  0  0  0  0  0  0  0  0  0  0
   10.0948  -18.5926   22.2194 O   0  0  0  0  0  0  0  0  0  0  0  0
    9.7069  -14.5721   19.4052 C   0  0  0  0  0  0  0  0  0  0  0  0
    9.4175  -13.2837   18.9590 C   0  0  0  0  0  0  0  0  0  0  0  0
   12.0587  -19.4677   23.7542 N   0  0  0  0  0  0  0  0  0  0  0  0
   12.4980  -18.3369   23.0212 C   0  0  0  0  0  0  0  0  0  0  0  0
   13.1443  -18.5880   21.9662 O   0  0  0  0  0  0  0  0  0  0  0  0
   12.1740  -17.0055   23.5354 C   0  0  0  0  0  0  0  0  0  0  0  0
   10.8876  -17.0744   24.3283 C   0  0  2  0  0  0  0  0  0  0  0  0
    9.8007  -16.6757   23.5012 N   0  0  0  0  0  0  0  0  0  0  0  0
   11.0791  -16.1756   25.5000 C   0  0  0  0  0  0  0  0  0  0  0  0
   11.9005  -15.2246   25.4223 O   0  0  0  0  0  0  0  0  0  0  0  0
    6.7436  -11.8692   26.0741 C   0  0  0  0  0  0  0  0  0  0  0  0
    7.4892  -12.7394   27.4518 S   0  0  0  0  0  0  0  0  0  0  0  0
    8.8201  -13.8465   27.0616 C   0  0  0  0  0  0  0  0  0  0  0  0
    9.5017  -14.5711   28.1416 C   0  0  0  0  0  0  0  0  0  0  0  0
   10.5433  -15.5620   27.8927 C   0  0  2  0  0  0  0  0  0  0  0  0
   10.3518  -16.3692   26.7077 N   0  0  0  0  0  0  0  0  0  0  0  0
   10.9098  -16.3298   29.0989 C   0  0  0  0  0  0  0  0  0  0  0  0
   11.2483  -15.7382   30.1482 O   0  0  0  0  0  0  0  0  0  0  0  0
   10.8963  -17.7158   29.1076 O   0  0  0  0  0  0  0  0  0  0  0  0
  2  1  1  0
  3  2  2  0
  4  3  1  0
  5 11  1  0
  5  4  2  0
  6  5  1  0
  7  6  1  0
  7  8  1  1
  9  7  1  0
 10  9  2  0
 11 12  2  0
 12  2  1  0
 13 14  1  0
 14 15  2  0
 16 14  1  0
 17 16  1  6
 17 18  1  0
 18  9  1  0
 19 17  1  0
 19 26  1  0
 20 19  2  0
 22 21  1  0
 23 24  1  0
 23 22  1  0
 25 24  1  1
 25 26  1  0
 25 27  1  0
 27 28  2  0
 27 29  1  0
M  END
$$$$
