YNM.pdb
     RDKit          3D

 29 29  0  0  1  0  0  0  0  0999 V2000
   11.4074  -12.0178   18.5394 O   0  0  0  0  0  0  0  0  0  0  0  0
   10.3441  -12.8127   18.9698 C   0  0  0  0  0  0  0  0  0  0  0  0
   10.4668  -13.6082   20.1042 C   0  0  0  0  0  0  0  0  0  0  0  0
    9.4289  -14.4009   20.5468 C   0  0  0  0  0  0  0  0  0  0  0  0
    8.2558  -14.3803   19.8241 C   0  0  0  0  0  0  0  0  0  0  0  0
    7.1023  -15.2129   20.2512 C   0  0  0  0  0  0  0  0  0  0  0  0
    7.4213  -16.6926   20.1686 C   0  0  2  0  0  0  0  0  0  0  0  0
    6.7574  -17.2835   19.0249 N   0  0  0  0  0  0  0  0  0  0  0  0
    6.9550  -17.3422   21.3963 C   0  0  0  0  0  0  0  0  0  0  0  0
    5.9475  -18.0897   21.3524 O   0  0  0  0  0  0  0  0  0  0  0  0
    8.1104  -13.5956   18.6909 C   0  0  0  0  0  0  0  0  0  0  0  0
    9.1631  -12.7964   18.2483 C   0  0  0  0  0  0  0  0  0  0  0  0
    5.3532  -20.6510   24.8195 N   0  0  0  0  0  0  0  0  0  0  0  0
    6.6037  -19.9865   24.7601 C   0  0  0  0  0  0  0  0  0  0  0  0
    7.3109  -20.0606   25.8032 O   0  0  0  0  0  0  0  0  0  0  0  0
    6.9621  -19.2872   23.5254 C   0  0  0  0  0  0  0  0  0  0  0  0
    7.0786  -17.8051   23.8051 C   0  0  2  0  0  0  0  0  0  0  0  0
    7.6207  -17.1501   22.6643 N   0  0  0  0  0  0  0  0  0  0  0  0
    7.9486  -17.6815   25.0073 C   0  0  0  0  0  0  0  0  0  0  0  0
    9.0200  -18.3400   25.0658 O   0  0  0  0  0  0  0  0  0  0  0  0
    7.0574  -10.3387   27.4471 C   0  0  0  0  0  0  0  0  0  0  0  0
    6.9941  -11.6234   26.1994 S   0  0  0  0  0  0  0  0  0  0  0  0
    8.0241  -13.0427   26.4720 C   0  0  0  0  0  0  0  0  0  0  0  0
    7.4983  -14.3851   26.1938 C   0  0  0  0  0  0  0  0  0  0  0  0
    8.2824  -15.5983   26.3993 C   0  0  2  0  0  0  0  0  0  0  0  0
    7.5938  -16.8331   26.0933 N   0  0  0  0  0  0  0  0  0  0  0  0
    9.0050  -15.6076   27.6862 C   0  0  0  0  0  0  0  0  0  0  0  0
    9.7001  -14.6256   28.0300 O   0  0  0  0  0  0  0  0  0  0  0  0
    8.9425  -16.6943   28.5446 O   0  0  0  0  0  0  0  0  0  0  0  0
  2  1  1  0
  3  2  2  0
  4  3  1  0
  5 11  1  0
  5  4  2  0
  6  5  1  0
  7  6  1  0
  7  8  1  6
  9  7  1  0
 10  9  2  0
 11 12  2  0
 12  2  1  0
 13 14  1  0
 14 15  2  0
 16 14  1  0
 17 16  1  6
 17 18  1  0
 18  9  1  0
 19 17  1  0
 19 26  1  0
 20 19  2  0
 22 21  1  0
 23 24  1  0
 23 22  1  0
 25 24  1  1
 25 26  1  0
 25 27  1  0
 27 28  2  0
 27 29  1  0
M  END
$$$$
