YNM.pdb
     RDKit          3D

 29 29  0  0  1  0  0  0  0  0999 V2000
    7.8658  -12.2790   16.8944 O   0  0  0  0  0  0  0  0  0  0  0  0
    7.8908  -12.9232   18.1321 C   0  0  0  0  0  0  0  0  0  0  0  0
    8.9911  -12.7996   18.9741 C   0  0  0  0  0  0  0  0  0  0  0  0
    9.0365  -13.4274   20.2009 C   0  0  0  0  0  0  0  0  0  0  0  0
    7.9484  -14.1879   20.5704 C   0  0  0  0  0  0  0  0  0  0  0  0
    7.9385  -14.8885   21.8801 C   0  0  0  0  0  0  0  0  0  0  0  0
    8.7356  -16.1769   21.8296 C   0  0  2  0  0  0  0  0  0  0  0  0
    8.2183  -17.0438   20.7909 N   0  0  0  0  0  0  0  0  0  0  0  0
    8.6263  -16.8473   23.1277 C   0  0  0  0  0  0  0  0  0  0  0  0
    7.8429  -17.8201   23.2539 O   0  0  0  0  0  0  0  0  0  0  0  0
    6.8411  -14.3255   19.7482 C   0  0  0  0  0  0  0  0  0  0  0  0
    6.8010  -13.6884   18.5091 C   0  0  0  0  0  0  0  0  0  0  0  0
   11.7160  -20.1338   24.8788 N   0  0  0  0  0  0  0  0  0  0  0  0
   12.1555  -18.8379   24.5094 C   0  0  0  0  0  0  0  0  0  0  0  0
   13.3581  -18.5706   24.7852 O   0  0  0  0  0  0  0  0  0  0  0  0
   11.2027  -17.9400   23.8553 C   0  0  0  0  0  0  0  0  0  0  0  0
   10.2526  -17.3785   24.8898 C   0  0  2  0  0  0  0  0  0  0  0  0
    9.3954  -16.4235   24.2753 N   0  0  0  0  0  0  0  0  0  0  0  0
   11.1086  -16.7833   25.9531 C   0  0  0  0  0  0  0  0  0  0  0  0
   11.8253  -17.5360   26.6636 O   0  0  0  0  0  0  0  0  0  0  0  0
    7.5259  -10.7296   26.2909 C   0  0  0  0  0  0  0  0  0  0  0  0
    6.9536  -12.3046   26.9258 S   0  0  0  0  0  0  0  0  0  0  0  0
    8.1903  -13.3795   27.6074 C   0  0  0  0  0  0  0  0  0  0  0  0
    9.1470  -14.0439   26.7134 C   0  0  0  0  0  0  0  0  0  0  0  0
   10.3428  -14.7230   27.2010 C   0  0  2  0  0  0  0  0  0  0  0  0
   11.1338  -15.3793   26.1832 N   0  0  0  0  0  0  0  0  0  0  0  0
   10.0908  -15.5459   28.4001 C   0  0  0  0  0  0  0  0  0  0  0  0
    9.4695  -16.6281   28.3072 O   0  0  0  0  0  0  0  0  0  0  0  0
   10.5244  -15.1492   29.6555 O   0  0  0  0  0  0  0  0  0  0  0  0
  2  1  1  0
  3  2  2  0
  4  3  1  0
  5 11  1  0
  5  4  2  0
  6  5  1  0
  7  6  1  0
  7  8  1  6
  9  7  1  0
 10  9  2  0
 11 12  2  0
 12  2  1  0
 13 14  1  0
 14 15  2  0
 16 14  1  0
 17 16  1  6
 17 18  1  0
 18  9  1  0
 19 17  1  0
 19 26  1  0
 20 19  2  0
 22 21  1  0
 23 24  1  0
 23 22  1  0
 25 24  1  6
 25 26  1  0
 25 27  1  0
 27 28  2  0
 27 29  1  0
M  END
$$$$
