YNM.pdb
     RDKit          3D

 29 29  0  0  1  0  0  0  0  0999 V2000
    7.5525  -11.7970   17.2350 O   0  0  0  0  0  0  0  0  0  0  0  0
    7.6498  -12.6196   18.3582 C   0  0  0  0  0  0  0  0  0  0  0  0
    8.8094  -12.6374   19.1263 C   0  0  0  0  0  0  0  0  0  0  0  0
    8.9266  -13.4423   20.2396 C   0  0  0  0  0  0  0  0  0  0  0  0
    7.8497  -14.2359   20.5708 C   0  0  0  0  0  0  0  0  0  0  0  0
    7.9160  -15.1246   21.7591 C   0  0  0  0  0  0  0  0  0  0  0  0
    8.6686  -16.4053   21.4567 C   0  0  2  0  0  0  0  0  0  0  0  0
    7.9397  -17.1954   20.4859 N   0  0  0  0  0  0  0  0  0  0  0  0
    8.8151  -17.1678   22.6992 C   0  0  0  0  0  0  0  0  0  0  0  0
    7.9298  -17.9980   23.0197 O   0  0  0  0  0  0  0  0  0  0  0  0
    6.6843  -14.2349   19.8206 C   0  0  0  0  0  0  0  0  0  0  0  0
    6.5718  -13.4189   18.6962 C   0  0  0  0  0  0  0  0  0  0  0  0
    9.8738  -21.1524   25.3053 N   0  0  0  0  0  0  0  0  0  0  0  0
   10.9010  -20.3408   24.7621 C   0  0  0  0  0  0  0  0  0  0  0  0
   12.0677  -20.5878   25.1761 O   0  0  0  0  0  0  0  0  0  0  0  0
   10.5329  -19.3098   23.7907 C   0  0  0  0  0  0  0  0  0  0  0  0
   10.2241  -18.0215   24.5208 C   0  0  2  0  0  0  0  0  0  0  0  0
    9.9524  -16.9950   23.5737 N   0  0  0  0  0  0  0  0  0  0  0  0
   11.4188  -17.7287   25.3600 C   0  0  0  0  0  0  0  0  0  0  0  0
   12.4466  -17.2382   24.8233 O   0  0  0  0  0  0  0  0  0  0  0  0
    8.6786  -12.5702   27.0885 C   0  0  0  0  0  0  0  0  0  0  0  0
    9.7941  -13.4881   28.1488 S   0  0  0  0  0  0  0  0  0  0  0  0
    9.3983  -15.1959   28.4243 C   0  0  0  0  0  0  0  0  0  0  0  0
    9.9019  -16.2165   27.4964 C   0  0  0  0  0  0  0  0  0  0  0  0
   11.1067  -16.9965   27.7590 C   0  0  2  0  0  0  0  0  0  0  0  0
   11.4232  -17.9921   26.7584 N   0  0  0  0  0  0  0  0  0  0  0  0
   11.1867  -17.4847   29.1495 C   0  0  0  0  0  0  0  0  0  0  0  0
   10.5785  -18.5230   29.4927 O   0  0  0  0  0  0  0  0  0  0  0  0
   11.9255  -16.8141   30.1118 O   0  0  0  0  0  0  0  0  0  0  0  0
  2  1  1  0
  3  2  2  0
  4  3  1  0
  5 11  1  0
  5  4  2  0
  6  5  1  0
  7  6  1  0
  7  8  1  6
  9  7  1  0
 10  9  2  0
 11 12  2  0
 12  2  1  0
 13 14  1  0
 14 15  2  0
 16 14  1  0
 17 16  1  6
 17 18  1  0
 18  9  1  0
 19 17  1  0
 19 26  1  0
 20 19  2  0
 22 21  1  0
 23 24  1  0
 23 22  1  0
 25 24  1  6
 25 26  1  0
 25 27  1  0
 27 28  2  0
 27 29  1  0
M  END
$$$$
