YNM.pdb
     RDKit          3D

 29 29  0  0  1  0  0  0  0  0999 V2000
    8.4999  -11.9982   17.7854 O   0  0  0  0  0  0  0  0  0  0  0  0
    8.2419  -13.0393   18.6782 C   0  0  0  0  0  0  0  0  0  0  0  0
    8.0207  -14.3323   18.2155 C   0  0  0  0  0  0  0  0  0  0  0  0
    7.7641  -15.3753   19.0800 C   0  0  0  0  0  0  0  0  0  0  0  0
    7.7332  -15.0947   20.4289 C   0  0  0  0  0  0  0  0  0  0  0  0
    7.4616  -16.1767   21.4095 C   0  0  0  0  0  0  0  0  0  0  0  0
    7.9906  -15.8274   22.7865 C   0  0  2  0  0  0  0  0  0  0  0  0
    9.3586  -15.3609   22.6922 N   0  0  0  0  0  0  0  0  0  0  0  0
    7.9380  -17.0262   23.6272 C   0  0  0  0  0  0  0  0  0  0  0  0
    7.0370  -17.8775   23.4293 O   0  0  0  0  0  0  0  0  0  0  0  0
    7.9506  -13.8143   20.9130 C   0  0  0  0  0  0  0  0  0  0  0  0
    8.2096  -12.7640   20.0341 C   0  0  0  0  0  0  0  0  0  0  0  0
   12.2793  -19.4624   22.3543 N   0  0  0  0  0  0  0  0  0  0  0  0
   10.9649  -19.6752   22.8402 C   0  0  0  0  0  0  0  0  0  0  0  0
   10.6568  -20.8774   23.0716 O   0  0  0  0  0  0  0  0  0  0  0  0
   10.0958  -18.5128   23.0284 C   0  0  0  0  0  0  0  0  0  0  0  0
    9.8337  -18.3175   24.5053 C   0  0  2  0  0  0  0  0  0  0  0  0
    8.8953  -17.2630   24.6834 N   0  0  0  0  0  0  0  0  0  0  0  0
   11.1566  -18.0209   25.1213 C   0  0  0  0  0  0  0  0  0  0  0  0
   12.0190  -18.9343   25.2042 O   0  0  0  0  0  0  0  0  0  0  0  0
    9.2032  -11.8756   28.0209 C   0  0  0  0  0  0  0  0  0  0  0  0
    8.8467  -13.4597   28.7791 S   0  0  0  0  0  0  0  0  0  0  0  0
   10.0731  -14.7267   28.5789 C   0  0  0  0  0  0  0  0  0  0  0  0
   10.3522  -15.2615   27.2402 C   0  0  0  0  0  0  0  0  0  0  0  0
   11.3047  -16.3413   27.0042 C   0  0  2  0  0  0  0  0  0  0  0  0
   11.4671  -16.7244   25.6188 N   0  0  0  0  0  0  0  0  0  0  0  0
   11.1332  -17.4755   27.9329 C   0  0  0  0  0  0  0  0  0  0  0  0
   10.1790  -18.2724   27.7908 O   0  0  0  0  0  0  0  0  0  0  0  0
   12.0105  -17.6903   28.9845 O   0  0  0  0  0  0  0  0  0  0  0  0
  2  1  1  0
  3  2  2  0
  4  3  1  0
  5 11  1  0
  5  4  2  0
  6  5  1  0
  7  6  1  0
  7  8  1  6
  9  7  1  0
 10  9  2  0
 11 12  2  0
 12  2  1  0
 13 14  1  0
 14 15  2  0
 16 14  1  0
 17 16  1  6
 17 18  1  0
 18  9  1  0
 19 17  1  0
 19 26  1  0
 20 19  2  0
 22 21  1  0
 23 24  1  0
 23 22  1  0
 25 24  1  6
 25 26  1  0
 25 27  1  0
 27 28  2  0
 27 29  1  0
M  END
$$$$
