YNM.pdb
     RDKit          3D

 29 29  0  0  1  0  0  0  0  0999 V2000
    7.1016  -11.7976   17.6220 O   0  0  0  0  0  0  0  0  0  0  0  0
    7.4519  -12.6629   18.6593 C   0  0  0  0  0  0  0  0  0  0  0  0
    8.7873  -12.8773   18.9840 C   0  0  0  0  0  0  0  0  0  0  0  0
    9.1553  -13.7279   20.0050 C   0  0  0  0  0  0  0  0  0  0  0  0
    8.1502  -14.3648   20.6999 C   0  0  0  0  0  0  0  0  0  0  0  0
    8.4840  -15.2932   21.8103 C   0  0  0  0  0  0  0  0  0  0  0  0
    8.8383  -16.6743   21.2954 C   0  0  2  0  0  0  0  0  0  0  0  0
    7.6504  -17.3462   20.8103 N   0  0  0  0  0  0  0  0  0  0  0  0
    9.4258  -17.4474   22.3925 C   0  0  0  0  0  0  0  0  0  0  0  0
    8.6710  -17.9894   23.2366 O   0  0  0  0  0  0  0  0  0  0  0  0
    6.8129  -14.1668   20.3943 C   0  0  0  0  0  0  0  0  0  0  0  0
    6.4470  -13.3056   19.3611 C   0  0  0  0  0  0  0  0  0  0  0  0
   12.8024  -21.2123   24.4912 N   0  0  0  0  0  0  0  0  0  0  0  0
   13.0942  -19.8267   24.4277 C   0  0  0  0  0  0  0  0  0  0  0  0
   13.7637  -19.3654   25.3935 O   0  0  0  0  0  0  0  0  0  0  0  0
   12.6073  -19.0650   23.2767 C   0  0  0  0  0  0  0  0  0  0  0  0
   11.3307  -18.3472   23.6550 C   0  0  2  0  0  0  0  0  0  0  0  0
   10.8546  -17.6083   22.5362 N   0  0  0  0  0  0  0  0  0  0  0  0
   11.6764  -17.4783   24.8139 C   0  0  0  0  0  0  0  0  0  0  0  0
   12.2633  -16.3829   24.6122 O   0  0  0  0  0  0  0  0  0  0  0  0
    9.3566  -11.9614   27.9578 C   0  0  0  0  0  0  0  0  0  0  0  0
    8.8758  -13.3824   26.9777 S   0  0  0  0  0  0  0  0  0  0  0  0
    9.3114  -14.9756   27.6269 C   0  0  0  0  0  0  0  0  0  0  0  0
    9.8812  -15.9922   26.7336 C   0  0  0  0  0  0  0  0  0  0  0  0
   10.9164  -16.9275   27.1608 C   0  0  2  0  0  0  0  0  0  0  0  0
   11.3565  -17.8606   26.1467 N   0  0  0  0  0  0  0  0  0  0  0  0
   10.6328  -17.5431   28.4718 C   0  0  0  0  0  0  0  0  0  0  0  0
   10.2994  -16.8331   29.4467 O   0  0  0  0  0  0  0  0  0  0  0  0
   10.7305  -18.9122   28.6660 O   0  0  0  0  0  0  0  0  0  0  0  0
  2  1  1  0
  3  2  2  0
  4  3  1  0
  5 11  1  0
  5  4  2  0
  6  5  1  0
  7  6  1  0
  7  8  1  1
  9  7  1  0
 10  9  2  0
 11 12  2  0
 12  2  1  0
 13 14  1  0
 14 15  2  0
 16 14  1  0
 17 16  1  6
 17 18  1  0
 18  9  1  0
 19 17  1  0
 19 26  1  0
 20 19  2  0
 22 21  1  0
 23 24  1  0
 23 22  1  0
 25 24  1  6
 25 26  1  0
 25 27  1  0
 27 28  2  0
 27 29  1  0
M  END
$$$$
