YNM.pdb
     RDKit          3D

 29 29  0  0  1  0  0  0  0  0999 V2000
    8.5613  -12.3710   17.4719 O   0  0  0  0  0  0  0  0  0  0  0  0
    8.1360  -12.9125   18.6857 C   0  0  0  0  0  0  0  0  0  0  0  0
    7.0626  -13.7959   18.7313 C   0  0  0  0  0  0  0  0  0  0  0  0
    6.6263  -14.3425   19.9196 C   0  0  0  0  0  0  0  0  0  0  0  0
    7.2925  -13.9833   21.0712 C   0  0  0  0  0  0  0  0  0  0  0  0
    6.8688  -14.5389   22.3819 C   0  0  0  0  0  0  0  0  0  0  0  0
    7.6446  -15.7930   22.7333 C   0  0  2  0  0  0  0  0  0  0  0  0
    7.4583  -16.7990   21.7080 N   0  0  0  0  0  0  0  0  0  0  0  0
    7.1547  -16.3035   24.0162 C   0  0  0  0  0  0  0  0  0  0  0  0
    5.9235  -16.2773   24.2593 O   0  0  0  0  0  0  0  0  0  0  0  0
    8.3645  -13.1050   21.0503 C   0  0  0  0  0  0  0  0  0  0  0  0
    8.8011  -12.5557   19.8459 C   0  0  0  0  0  0  0  0  0  0  0  0
    8.1026  -21.0845   25.9629 N   0  0  0  0  0  0  0  0  0  0  0  0
    8.0958  -19.9079   25.1727 C   0  0  0  0  0  0  0  0  0  0  0  0
    9.0696  -19.7776   24.3800 O   0  0  0  0  0  0  0  0  0  0  0  0
    6.9882  -18.9655   25.3372 C   0  0  0  0  0  0  0  0  0  0  0  0
    7.4970  -17.7061   26.0031 C   0  0  2  0  0  0  0  0  0  0  0  0
    8.0477  -16.8399   25.0177 N   0  0  0  0  0  0  0  0  0  0  0  0
    8.5039  -18.1504   27.0063 C   0  0  0  0  0  0  0  0  0  0  0  0
    8.1241  -18.7883   28.0230 O   0  0  0  0  0  0  0  0  0  0  0  0
    8.7400  -11.9888   26.4352 C   0  0  0  0  0  0  0  0  0  0  0  0
    9.2559  -13.1429   27.7053 S   0  0  0  0  0  0  0  0  0  0  0  0
    9.7918  -14.7415   27.1516 C   0  0  0  0  0  0  0  0  0  0  0  0
   10.0681  -15.7954   28.1359 C   0  0  0  0  0  0  0  0  0  0  0  0
   10.6606  -17.0786   27.7734 C   0  0  2  0  0  0  0  0  0  0  0  0
    9.8887  -17.8687   26.8394 N   0  0  0  0  0  0  0  0  0  0  0  0
   11.1623  -17.8326   28.9387 C   0  0  0  0  0  0  0  0  0  0  0  0
   10.8095  -19.0184   29.1262 O   0  0  0  0  0  0  0  0  0  0  0  0
   12.0271  -17.2572   29.8567 O   0  0  0  0  0  0  0  0  0  0  0  0
  2  1  1  0
  3  2  2  0
  4  3  1  0
  5 11  1  0
  5  4  2  0
  6  5  1  0
  7  6  1  0
  7  8  1  6
  9  7  1  0
 10  9  2  0
 11 12  2  0
 12  2  1  0
 13 14  1  0
 14 15  2  0
 16 14  1  0
 17 16  1  6
 17 18  1  0
 18  9  1  0
 19 17  1  0
 19 26  1  0
 20 19  2  0
 22 21  1  0
 23 24  1  0
 23 22  1  0
 25 24  1  1
 25 26  1  0
 25 27  1  0
 27 28  2  0
 27 29  1  0
M  END
$$$$
