YNM.pdb
     RDKit          3D

 29 29  0  0  1  0  0  0  0  0999 V2000
    9.0327  -12.5171   18.1150 O   0  0  0  0  0  0  0  0  0  0  0  0
    8.3705  -13.4450   18.9200 C   0  0  0  0  0  0  0  0  0  0  0  0
    7.9203  -13.0910   20.1876 C   0  0  0  0  0  0  0  0  0  0  0  0
    7.2639  -13.9920   20.9991 C   0  0  0  0  0  0  0  0  0  0  0  0
    7.0658  -15.2655   20.5112 C   0  0  0  0  0  0  0  0  0  0  0  0
    6.3652  -16.2805   21.3389 C   0  0  0  0  0  0  0  0  0  0  0  0
    6.8298  -16.2415   22.7813 C   0  0  2  0  0  0  0  0  0  0  0  0
    6.8331  -14.8773   23.2681 N   0  0  0  0  0  0  0  0  0  0  0  0
    8.1862  -16.7909   22.8522 C   0  0  0  0  0  0  0  0  0  0  0  0
    8.3531  -18.0317   22.7603 O   0  0  0  0  0  0  0  0  0  0  0  0
    7.5054  -15.6409   19.2515 C   0  0  0  0  0  0  0  0  0  0  0  0
    8.1684  -14.7256   18.4356 C   0  0  0  0  0  0  0  0  0  0  0  0
   13.4455  -17.4293   21.8943 N   0  0  0  0  0  0  0  0  0  0  0  0
   12.9778  -16.4854   22.8426 C   0  0  0  0  0  0  0  0  0  0  0  0
   13.7256  -16.3005   23.8427 O   0  0  0  0  0  0  0  0  0  0  0  0
   11.6990  -15.8201   22.5897 C   0  0  0  0  0  0  0  0  0  0  0  0
   10.5932  -16.5775   23.2910 C   0  0  2  0  0  0  0  0  0  0  0  0
    9.3459  -15.9465   23.0253 N   0  0  0  0  0  0  0  0  0  0  0  0
   10.9449  -16.5708   24.7380 C   0  0  0  0  0  0  0  0  0  0  0  0
   11.9491  -17.2190   25.1335 O   0  0  0  0  0  0  0  0  0  0  0  0
    7.2691  -11.2544   27.8305 C   0  0  0  0  0  0  0  0  0  0  0  0
    8.7600  -12.1529   28.2563 S   0  0  0  0  0  0  0  0  0  0  0  0
    9.0049  -13.7106   27.4422 C   0  0  0  0  0  0  0  0  0  0  0  0
   10.2070  -14.5015   27.7351 C   0  0  0  0  0  0  0  0  0  0  0  0
   10.4841  -15.7831   27.0951 C   0  0  2  0  0  0  0  0  0  0  0  0
   10.1686  -15.8456   25.6848 N   0  0  0  0  0  0  0  0  0  0  0  0
    9.9995  -16.9363   27.8785 C   0  0  0  0  0  0  0  0  0  0  0  0
   10.3880  -17.1116   29.0550 O   0  0  0  0  0  0  0  0  0  0  0  0
    9.1120  -17.8558   27.3414 O   0  0  0  0  0  0  0  0  0  0  0  0
  2  1  1  0
  3  2  2  0
  4  3  1  0
  5 11  1  0
  5  4  2  0
  6  5  1  0
  7  6  1  0
  7  8  1  6
  9  7  1  0
 10  9  2  0
 11 12  2  0
 12  2  1  0
 13 14  1  0
 14 15  2  0
 16 14  1  0
 17 16  1  6
 17 18  1  0
 18  9  1  0
 19 17  1  0
 19 26  1  0
 20 19  2  0
 22 21  1  0
 23 24  1  0
 23 22  1  0
 25 24  1  1
 25 26  1  0
 25 27  1  0
 27 28  2  0
 27 29  1  0
M  END
$$$$
