YNM.pdb
     RDKit          3D

 29 29  0  0  1  0  0  0  0  0999 V2000
    7.2698  -11.9098   20.0563 O   0  0  0  0  0  0  0  0  0  0  0  0
    8.3128  -12.7830   19.7444 C   0  0  0  0  0  0  0  0  0  0  0  0
    8.1103  -14.1592   19.7453 C   0  0  0  0  0  0  0  0  0  0  0  0
    9.1267  -15.0395   19.4401 C   0  0  0  0  0  0  0  0  0  0  0  0
   10.3605  -14.5091   19.1313 C   0  0  0  0  0  0  0  0  0  0  0  0
   11.4948  -15.4068   18.7941 C   0  0  0  0  0  0  0  0  0  0  0  0
   11.0774  -16.8639   18.8116 C   0  0  2  0  0  0  0  0  0  0  0  0
   10.4162  -17.2088   17.5698 N   0  0  0  0  0  0  0  0  0  0  0  0
   10.1575  -17.0750   19.9322 C   0  0  0  0  0  0  0  0  0  0  0  0
    9.0276  -17.5769   19.7148 O   0  0  0  0  0  0  0  0  0  0  0  0
   10.5859  -13.1415   19.1239 C   0  0  0  0  0  0  0  0  0  0  0  0
    9.5544  -12.2565   19.4333 C   0  0  0  0  0  0  0  0  0  0  0  0
   10.0917  -19.9740   24.5992 N   0  0  0  0  0  0  0  0  0  0  0  0
    9.4569  -19.5289   23.4127 C   0  0  0  0  0  0  0  0  0  0  0  0
    8.2248  -19.7888   23.3227 O   0  0  0  0  0  0  0  0  0  0  0  0
   10.2624  -18.8228   22.4154 C   0  0  0  0  0  0  0  0  0  0  0  0
    9.8195  -17.3780   22.3459 C   0  0  2  0  0  0  0  0  0  0  0  0
   10.5098  -16.7224   21.2885 N   0  0  0  0  0  0  0  0  0  0  0  0
   10.1214  -16.7916   23.6810 C   0  0  0  0  0  0  0  0  0  0  0  0
   11.3204  -16.6252   24.0267 O   0  0  0  0  0  0  0  0  0  0  0  0
    5.6327  -12.3022   25.7359 C   0  0  0  0  0  0  0  0  0  0  0  0
    7.1603  -11.9802   26.6157 S   0  0  0  0  0  0  0  0  0  0  0  0
    8.3177  -13.3222   26.7091 C   0  0  0  0  0  0  0  0  0  0  0  0
    8.3085  -14.3620   25.6724 C   0  0  0  0  0  0  0  0  0  0  0  0
    9.2606  -15.4675   25.6545 C   0  0  2  0  0  0  0  0  0  0  0  0
    9.0811  -16.4144   24.5758 N   0  0  0  0  0  0  0  0  0  0  0  0
    9.4523  -16.0857   26.9809 C   0  0  0  0  0  0  0  0  0  0  0  0
    9.7339  -15.3794   27.9748 O   0  0  0  0  0  0  0  0  0  0  0  0
    9.3334  -17.4542   27.1668 O   0  0  0  0  0  0  0  0  0  0  0  0
  2  1  1  0
  3  2  2  0
  4  3  1  0
  5 11  1  0
  5  4  2  0
  6  5  1  0
  7  6  1  0
  7  8  1  6
  9  7  1  0
 10  9  2  0
 11 12  2  0
 12  2  1  0
 13 14  1  0
 14 15  2  0
 16 14  1  0
 17 16  1  1
 17 18  1  0
 18  9  1  0
 19 17  1  0
 19 26  1  0
 20 19  2  0
 22 21  1  0
 23 24  1  0
 23 22  1  0
 25 24  1  1
 25 26  1  0
 25 27  1  0
 27 28  2  0
 27 29  1  0
M  END
$$$$
