YNM.pdb
     RDKit          3D

 29 29  0  0  1  0  0  0  0  0999 V2000
    7.3033  -12.0711   17.3599 O   0  0  0  0  0  0  0  0  0  0  0  0
    7.7540  -13.2025   18.0415 C   0  0  0  0  0  0  0  0  0  0  0  0
    9.0931  -13.3310   18.3953 C   0  0  0  0  0  0  0  0  0  0  0  0
    9.5594  -14.4402   19.0688 C   0  0  0  0  0  0  0  0  0  0  0  0
    8.6497  -15.4264   19.3832 C   0  0  0  0  0  0  0  0  0  0  0  0
    9.0920  -16.6451   20.1079 C   0  0  0  0  0  0  0  0  0  0  0  0
    8.7549  -16.5697   21.5840 C   0  0  2  0  0  0  0  0  0  0  0  0
    8.2283  -15.2603   21.9096 N   0  0  0  0  0  0  0  0  0  0  0  0
    9.9754  -16.8138   22.3569 C   0  0  0  0  0  0  0  0  0  0  0  0
   10.3848  -17.9911   22.5051 O   0  0  0  0  0  0  0  0  0  0  0  0
    7.3108  -15.3202   19.0410 C   0  0  0  0  0  0  0  0  0  0  0  0
    6.8453  -14.1965   18.3602 C   0  0  0  0  0  0  0  0  0  0  0  0
   13.3444  -14.1232   21.1334 N   0  0  0  0  0  0  0  0  0  0  0  0
   13.3220  -15.2907   21.9367 C   0  0  0  0  0  0  0  0  0  0  0  0
   13.5735  -16.3717   21.3351 O   0  0  0  0  0  0  0  0  0  0  0  0
   13.0167  -15.1496   23.3611 C   0  0  0  0  0  0  0  0  0  0  0  0
   11.8787  -16.0778   23.7236 C   0  0  2  0  0  0  0  0  0  0  0  0
   10.7287  -15.7372   22.9581 N   0  0  0  0  0  0  0  0  0  0  0  0
   11.6650  -15.9125   25.1880 C   0  0  0  0  0  0  0  0  0  0  0  0
   12.6198  -16.1255   25.9804 O   0  0  0  0  0  0  0  0  0  0  0  0
    7.1906  -10.9352   26.4195 C   0  0  0  0  0  0  0  0  0  0  0  0
    7.8645  -12.2156   27.4767 S   0  0  0  0  0  0  0  0  0  0  0  0
    8.2998  -13.7448   26.6885 C   0  0  0  0  0  0  0  0  0  0  0  0
    8.8558  -14.8421   27.4904 C   0  0  0  0  0  0  0  0  0  0  0  0
   10.0769  -15.5501   27.1207 C   0  0  2  0  0  0  0  0  0  0  0  0
   10.4019  -15.5181   25.7115 N   0  0  0  0  0  0  0  0  0  0  0  0
   10.1785  -16.8868   27.7382 C   0  0  0  0  0  0  0  0  0  0  0  0
   10.3820  -17.0034   28.9673 O   0  0  0  0  0  0  0  0  0  0  0  0
   10.0587  -18.0442   26.9848 O   0  0  0  0  0  0  0  0  0  0  0  0
  2  1  1  0
  3  2  2  0
  4  3  1  0
  5 11  1  0
  5  4  2  0
  6  5  1  0
  7  6  1  0
  7  8  1  6
  9  7  1  0
 10  9  2  0
 11 12  2  0
 12  2  1  0
 13 14  1  0
 14 15  2  0
 16 14  1  0
 17 16  1  6
 17 18  1  0
 18  9  1  0
 19 17  1  0
 19 26  1  0
 20 19  2  0
 22 21  1  0
 23 24  1  0
 23 22  1  0
 25 24  1  6
 25 26  1  0
 25 27  1  0
 27 28  2  0
 27 29  1  0
M  END
$$$$
