YNM.pdb
     RDKit          3D

 29 29  0  0  1  0  0  0  0  0999 V2000
    7.0432  -12.5676   16.6735 O   0  0  0  0  0  0  0  0  0  0  0  0
    7.3190  -13.2336   17.8684 C   0  0  0  0  0  0  0  0  0  0  0  0
    8.2415  -12.7169   18.7722 C   0  0  0  0  0  0  0  0  0  0  0  0
    8.5287  -13.3586   19.9583 C   0  0  0  0  0  0  0  0  0  0  0  0
    7.8677  -14.5384   20.2232 C   0  0  0  0  0  0  0  0  0  0  0  0
    8.1349  -15.2759   21.4845 C   0  0  0  0  0  0  0  0  0  0  0  0
    9.3338  -16.1939   21.3508 C   0  0  2  0  0  0  0  0  0  0  0  0
    9.1403  -17.1103   20.2459 N   0  0  0  0  0  0  0  0  0  0  0  0
    9.4857  -16.9514   22.5957 C   0  0  0  0  0  0  0  0  0  0  0  0
    8.8516  -18.0246   22.7442 O   0  0  0  0  0  0  0  0  0  0  0  0
    6.9446  -15.0724   19.3378 C   0  0  0  0  0  0  0  0  0  0  0  0
    6.6584  -14.4190   18.1403 C   0  0  0  0  0  0  0  0  0  0  0  0
   12.8981  -20.5074   23.6606 N   0  0  0  0  0  0  0  0  0  0  0  0
   12.6791  -19.2672   24.3109 C   0  0  0  0  0  0  0  0  0  0  0  0
   13.0583  -19.2074   25.5135 O   0  0  0  0  0  0  0  0  0  0  0  0
   12.0476  -18.1861   23.5531 C   0  0  0  0  0  0  0  0  0  0  0  0
   11.0295  -17.4894   24.4285 C   0  0  2  0  0  0  0  0  0  0  0  0
   10.3469  -16.5015   23.6652 N   0  0  0  0  0  0  0  0  0  0  0  0
   11.7950  -16.9099   25.5667 C   0  0  0  0  0  0  0  0  0  0  0  0
   12.8500  -16.2625   25.3368 O   0  0  0  0  0  0  0  0  0  0  0  0
    6.8640  -12.0287   27.8631 C   0  0  0  0  0  0  0  0  0  0  0  0
    7.6761  -13.3386   26.9489 S   0  0  0  0  0  0  0  0  0  0  0  0
    8.9746  -14.2052   27.7928 C   0  0  0  0  0  0  0  0  0  0  0  0
    9.7252  -15.2524   27.0885 C   0  0  0  0  0  0  0  0  0  0  0  0
   10.8162  -15.9955   27.7102 C   0  0  2  0  0  0  0  0  0  0  0  0
   11.3583  -17.0726   26.9113 N   0  0  0  0  0  0  0  0  0  0  0  0
   10.5410  -16.3584   29.1141 C   0  0  0  0  0  0  0  0  0  0  0  0
   10.0591  -17.4781   29.3966 O   0  0  0  0  0  0  0  0  0  0  0  0
   10.7994  -15.4791   30.1540 O   0  0  0  0  0  0  0  0  0  0  0  0
  2  1  1  0
  3  2  2  0
  4  3  1  0
  5 11  1  0
  5  4  2  0
  6  5  1  0
  7  6  1  0
  7  8  1  6
  9  7  1  0
 10  9  2  0
 11 12  2  0
 12  2  1  0
 13 14  1  0
 14 15  2  0
 16 14  1  0
 17 16  1  6
 17 18  1  0
 18  9  1  0
 19 17  1  0
 19 26  1  0
 20 19  2  0
 22 21  1  0
 23 24  1  0
 23 22  1  0
 25 24  1  6
 25 26  1  0
 25 27  1  0
 27 28  2  0
 27 29  1  0
M  END
$$$$
