YNM.pdb
     RDKit          3D

 29 29  0  0  1  0  0  0  0  0999 V2000
    9.1358  -11.8656   19.0800 O   0  0  0  0  0  0  0  0  0  0  0  0
    8.4343  -12.8418   19.7889 C   0  0  0  0  0  0  0  0  0  0  0  0
    8.6644  -13.0351   21.1471 C   0  0  0  0  0  0  0  0  0  0  0  0
    7.9825  -13.9937   21.8664 C   0  0  0  0  0  0  0  0  0  0  0  0
    7.0578  -14.7613   21.1921 C   0  0  0  0  0  0  0  0  0  0  0  0
    6.2918  -15.8101   21.9128 C   0  0  0  0  0  0  0  0  0  0  0  0
    6.6657  -17.2001   21.4372 C   0  0  2  0  0  0  0  0  0  0  0  0
    5.6345  -18.1481   21.8057 N   0  0  0  0  0  0  0  0  0  0  0  0
    7.9328  -17.5852   22.0639 C   0  0  0  0  0  0  0  0  0  0  0  0
    7.9235  -18.3919   23.0256 O   0  0  0  0  0  0  0  0  0  0  0  0
    6.8117  -14.5867   19.8394 C   0  0  0  0  0  0  0  0  0  0  0  0
    7.5041  -13.6159   19.1175 C   0  0  0  0  0  0  0  0  0  0  0  0
   12.4326  -15.3972   20.5099 N   0  0  0  0  0  0  0  0  0  0  0  0
   11.3872  -16.3404   20.3476 C   0  0  0  0  0  0  0  0  0  0  0  0
   10.4544  -15.9928   19.5712 O   0  0  0  0  0  0  0  0  0  0  0  0
   11.4737  -17.6073   21.0753 C   0  0  0  0  0  0  0  0  0  0  0  0
   10.3871  -17.6561   22.1265 C   0  0  2  0  0  0  0  0  0  0  0  0
    9.2014  -17.0642   21.6085 N   0  0  0  0  0  0  0  0  0  0  0  0
   10.9257  -16.9269   23.3078 C   0  0  0  0  0  0  0  0  0  0  0  0
   11.9745  -17.3432   23.8662 O   0  0  0  0  0  0  0  0  0  0  0  0
    9.9023  -12.8556   28.9093 C   0  0  0  0  0  0  0  0  0  0  0  0
    8.6963  -13.0088   27.5929 S   0  0  0  0  0  0  0  0  0  0  0  0
    8.4069  -14.6456   26.9713 C   0  0  0  0  0  0  0  0  0  0  0  0
    8.7790  -14.9734   25.5892 C   0  0  0  0  0  0  0  0  0  0  0  0
   10.0837  -15.5198   25.2313 C   0  0  2  0  0  0  0  0  0  0  0  0
   10.2790  -15.7672   23.8195 N   0  0  0  0  0  0  0  0  0  0  0  0
   10.5044  -16.6306   26.1074 C   0  0  0  0  0  0  0  0  0  0  0  0
   11.4035  -16.4594   26.9606 O   0  0  0  0  0  0  0  0  0  0  0  0
    9.9277  -17.8875   26.0116 O   0  0  0  0  0  0  0  0  0  0  0  0
  2  1  1  0
  3  2  2  0
  4  3  1  0
  5 11  1  0
  5  4  2  0
  6  5  1  0
  7  6  1  0
  7  8  1  1
  9  7  1  0
 10  9  2  0
 11 12  2  0
 12  2  1  0
 13 14  1  0
 14 15  2  0
 16 14  1  0
 17 16  1  6
 17 18  1  0
 18  9  1  0
 19 17  1  0
 19 26  1  0
 20 19  2  0
 22 21  1  0
 23 24  1  0
 23 22  1  0
 25 24  1  6
 25 26  1  0
 25 27  1  0
 27 28  2  0
 27 29  1  0
M  END
$$$$
