YNM.pdb
     RDKit          3D

 29 29  0  0  1  0  0  0  0  0999 V2000
    7.6324  -12.5511   16.4550 O   0  0  0  0  0  0  0  0  0  0  0  0
    7.7843  -13.1084   17.7255 C   0  0  0  0  0  0  0  0  0  0  0  0
    6.7163  -13.1466   18.6158 C   0  0  0  0  0  0  0  0  0  0  0  0
    6.8446  -13.6926   19.8754 C   0  0  0  0  0  0  0  0  0  0  0  0
    8.0747  -14.2038   20.2283 C   0  0  0  0  0  0  0  0  0  0  0  0
    8.2748  -14.8049   21.5717 C   0  0  0  0  0  0  0  0  0  0  0  0
    9.0201  -16.1223   21.4881 C   0  0  2  0  0  0  0  0  0  0  0  0
    8.2311  -17.0972   20.7636 N   0  0  0  0  0  0  0  0  0  0  0  0
    9.2705  -16.6067   22.8480 C   0  0  0  0  0  0  0  0  0  0  0  0
    8.3001  -16.8035   23.6195 O   0  0  0  0  0  0  0  0  0  0  0  0
    9.1531  -14.1769   19.3579 C   0  0  0  0  0  0  0  0  0  0  0  0
    9.0172  -13.6237   18.0858 C   0  0  0  0  0  0  0  0  0  0  0  0
   11.1692  -20.4658   24.4093 N   0  0  0  0  0  0  0  0  0  0  0  0
   11.8938  -19.3499   23.9206 C   0  0  0  0  0  0  0  0  0  0  0  0
   12.3836  -19.4814   22.7646 O   0  0  0  0  0  0  0  0  0  0  0  0
   12.0110  -18.1678   24.7754 C   0  0  0  0  0  0  0  0  0  0  0  0
   10.7468  -17.3442   24.6670 C   0  0  2  0  0  0  0  0  0  0  0  0
   10.6062  -16.8675   23.3338 N   0  0  0  0  0  0  0  0  0  0  0  0
   10.8877  -16.2434   25.6599 C   0  0  0  0  0  0  0  0  0  0  0  0
   11.8038  -15.3923   25.5140 O   0  0  0  0  0  0  0  0  0  0  0  0
    6.8903  -11.3568   25.4998 C   0  0  0  0  0  0  0  0  0  0  0  0
    7.4081  -12.2259   26.9788 S   0  0  0  0  0  0  0  0  0  0  0  0
    8.7167  -13.4087   26.7845 C   0  0  0  0  0  0  0  0  0  0  0  0
    9.2165  -14.1374   27.9573 C   0  0  0  0  0  0  0  0  0  0  0  0
   10.2091  -15.2024   27.8610 C   0  0  2  0  0  0  0  0  0  0  0  0
   10.0068  -16.1330   26.7721 N   0  0  0  0  0  0  0  0  0  0  0  0
   10.4995  -15.8400   29.1600 C   0  0  0  0  0  0  0  0  0  0  0  0
   10.3391  -17.0717   29.3115 O   0  0  0  0  0  0  0  0  0  0  0  0
   10.9494  -15.1032   30.2445 O   0  0  0  0  0  0  0  0  0  0  0  0
  2  1  1  0
  3  2  2  0
  4  3  1  0
  5 11  1  0
  5  4  2  0
  6  5  1  0
  7  6  1  0
  7  8  1  6
  9  7  1  0
 10  9  2  0
 11 12  2  0
 12  2  1  0
 13 14  1  0
 14 15  2  0
 16 14  1  0
 17 16  1  6
 17 18  1  0
 18  9  1  0
 19 17  1  0
 19 26  1  0
 20 19  2  0
 22 21  1  0
 23 24  1  0
 23 22  1  0
 25 24  1  1
 25 26  1  0
 25 27  1  0
 27 28  2  0
 27 29  1  0
M  END
$$$$
