YNM.pdb
     RDKit          3D

 29 29  0  0  1  0  0  0  0  0999 V2000
   14.1184  -20.8308   16.8870 O   0  0  0  0  0  0  0  0  0  0  0  0
   13.5935  -19.7746   17.6331 C   0  0  0  0  0  0  0  0  0  0  0  0
   13.6143  -18.4757   17.1360 C   0  0  0  0  0  0  0  0  0  0  0  0
   13.1012  -17.4178   17.8564 C   0  0  0  0  0  0  0  0  0  0  0  0
   12.5623  -17.6897   19.0953 C   0  0  0  0  0  0  0  0  0  0  0  0
   11.9943  -16.5916   19.9185 C   0  0  0  0  0  0  0  0  0  0  0  0
   12.0673  -15.2595   19.1987 C   0  0  2  0  0  0  0  0  0  0  0  0
   13.4471  -14.8400   19.0634 N   0  0  0  0  0  0  0  0  0  0  0  0
   11.3261  -14.2642   19.9776 C   0  0  0  0  0  0  0  0  0  0  0  0
   11.9429  -13.5398   20.7965 O   0  0  0  0  0  0  0  0  0  0  0  0
   12.5306  -18.9758   19.6110 C   0  0  0  0  0  0  0  0  0  0  0  0
   13.0508  -20.0411   18.8780 C   0  0  0  0  0  0  0  0  0  0  0  0
    7.8432  -13.0839   17.5285 N   0  0  0  0  0  0  0  0  0  0  0  0
    7.6898  -13.6035   18.8382 C   0  0  0  0  0  0  0  0  0  0  0  0
    7.3426  -14.8153   18.9072 O   0  0  0  0  0  0  0  0  0  0  0  0
    7.9402  -12.7143   19.9734 C   0  0  0  0  0  0  0  0  0  0  0  0
    9.2778  -13.0562   20.5916 C   0  0  2  0  0  0  0  0  0  0  0  0
    9.8992  -14.0873   19.8334 N   0  0  0  0  0  0  0  0  0  0  0  0
    8.9890  -13.4669   21.9935 C   0  0  0  0  0  0  0  0  0  0  0  0
    8.5686  -12.6104   22.8149 O   0  0  0  0  0  0  0  0  0  0  0  0
    6.6101  -11.2600   26.9212 C   0  0  0  0  0  0  0  0  0  0  0  0
    6.4750  -12.8451   26.0963 S   0  0  0  0  0  0  0  0  0  0  0  0
    7.9143  -13.4086   25.2244 C   0  0  0  0  0  0  0  0  0  0  0  0
    7.8680  -14.6813   24.4934 C   0  0  0  0  0  0  0  0  0  0  0  0
    9.0254  -15.2354   23.7990 C   0  0  2  0  0  0  0  0  0  0  0  0
    9.1783  -14.8097   22.4250 N   0  0  0  0  0  0  0  0  0  0  0  0
    9.1821  -16.6883   24.0066 C   0  0  0  0  0  0  0  0  0  0  0  0
    9.2004  -17.4699   23.0296 O   0  0  0  0  0  0  0  0  0  0  0  0
    9.3075  -17.2295   25.2766 O   0  0  0  0  0  0  0  0  0  0  0  0
  2  1  1  0
  3  2  2  0
  4  3  1  0
  5 11  1  0
  5  4  2  0
  6  5  1  0
  7  6  1  0
  7  8  1  1
  9  7  1  0
 10  9  2  0
 11 12  2  0
 12  2  1  0
 13 14  1  0
 14 15  2  0
 16 14  1  0
 17 16  1  6
 17 18  1  0
 18  9  1  0
 19 17  1  0
 19 26  1  0
 20 19  2  0
 22 21  1  0
 23 24  1  0
 23 22  1  0
 25 24  1  6
 25 26  1  0
 25 27  1  0
 27 28  2  0
 27 29  1  0
M  END
$$$$
