YNM.pdb
     RDKit          3D

 29 29  0  0  1  0  0  0  0  0999 V2000
    9.1070  -11.7527   19.0545 O   0  0  0  0  0  0  0  0  0  0  0  0
    8.4448  -12.8571   19.5926 C   0  0  0  0  0  0  0  0  0  0  0  0
    8.4074  -14.0660   18.9056 C   0  0  0  0  0  0  0  0  0  0  0  0
    7.7590  -15.1693   19.4189 C   0  0  0  0  0  0  0  0  0  0  0  0
    7.1435  -15.0361   20.6447 C   0  0  0  0  0  0  0  0  0  0  0  0
    6.4288  -16.1892   21.2494 C   0  0  0  0  0  0  0  0  0  0  0  0
    6.8794  -16.4395   22.6750 C   0  0  2  0  0  0  0  0  0  0  0  0
    6.6940  -15.2458   23.4741 N   0  0  0  0  0  0  0  0  0  0  0  0
    8.2981  -16.8052   22.6611 C   0  0  0  0  0  0  0  0  0  0  0  0
    8.6530  -17.8727   22.1042 O   0  0  0  0  0  0  0  0  0  0  0  0
    7.1676  -13.8416   21.3474 C   0  0  0  0  0  0  0  0  0  0  0  0
    7.8247  -12.7297   20.8233 C   0  0  0  0  0  0  0  0  0  0  0  0
   11.5534  -15.1403   20.2591 N   0  0  0  0  0  0  0  0  0  0  0  0
   11.8415  -16.0227   21.3301 C   0  0  0  0  0  0  0  0  0  0  0  0
   12.2920  -17.1544   20.9984 O   0  0  0  0  0  0  0  0  0  0  0  0
   11.5991  -15.5601   22.6973 C   0  0  0  0  0  0  0  0  0  0  0  0
   10.6270  -16.4980   23.3782 C   0  0  2  0  0  0  0  0  0  0  0  0
    9.3092  -15.9722   23.2710 N   0  0  0  0  0  0  0  0  0  0  0  0
   11.0877  -16.6128   24.7896 C   0  0  0  0  0  0  0  0  0  0  0  0
   11.2094  -17.7529   25.3097 O   0  0  0  0  0  0  0  0  0  0  0  0
    7.6545  -11.5396   25.9806 C   0  0  0  0  0  0  0  0  0  0  0  0
    7.5042  -12.5268   27.4685 S   0  0  0  0  0  0  0  0  0  0  0  0
    8.7833  -13.7225   27.7575 C   0  0  0  0  0  0  0  0  0  0  0  0
    9.7267  -14.0504   26.6812 C   0  0  0  0  0  0  0  0  0  0  0  0
   10.7129  -15.1198   26.7944 C   0  0  2  0  0  0  0  0  0  0  0  0
   11.3940  -15.4590   25.5641 N   0  0  0  0  0  0  0  0  0  0  0  0
   10.2183  -16.2829   27.5565 C   0  0  0  0  0  0  0  0  0  0  0  0
    9.3930  -17.0719   27.0443 O   0  0  0  0  0  0  0  0  0  0  0  0
   10.6427  -16.5343   28.8519 O   0  0  0  0  0  0  0  0  0  0  0  0
  2  1  1  0
  3  2  2  0
  4  3  1  0
  5 11  1  0
  5  4  2  0
  6  5  1  0
  7  6  1  0
  7  8  1  1
  9  7  1  0
 10  9  2  0
 11 12  2  0
 12  2  1  0
 13 14  1  0
 14 15  2  0
 16 14  1  0
 17 16  1  6
 17 18  1  0
 18  9  1  0
 19 17  1  0
 19 26  1  0
 20 19  2  0
 22 21  1  0
 23 24  1  0
 23 22  1  0
 25 24  1  6
 25 26  1  0
 25 27  1  0
 27 28  2  0
 27 29  1  0
M  END
$$$$
