YNM.pdb
     RDKit          3D

 29 29  0  0  1  0  0  0  0  0999 V2000
    7.5695  -13.2785   14.4159 O   0  0  0  0  0  0  0  0  0  0  0  0
    7.5332  -13.7796   15.7179 C   0  0  0  0  0  0  0  0  0  0  0  0
    8.0472  -13.0395   16.7776 C   0  0  0  0  0  0  0  0  0  0  0  0
    8.0215  -13.5157   18.0713 C   0  0  0  0  0  0  0  0  0  0  0  0
    7.4658  -14.7586   18.2841 C   0  0  0  0  0  0  0  0  0  0  0  0
    7.4095  -15.3252   19.6559 C   0  0  0  0  0  0  0  0  0  0  0  0
    8.6274  -14.9366   20.4705 C   0  0  2  0  0  0  0  0  0  0  0  0
    9.8330  -15.1390   19.6937 N   0  0  0  0  0  0  0  0  0  0  0  0
    8.6730  -15.7716   21.6736 C   0  0  0  0  0  0  0  0  0  0  0  0
    7.6552  -15.8552   22.4036 O   0  0  0  0  0  0  0  0  0  0  0  0
    6.9475  -15.5140   17.2440 C   0  0  0  0  0  0  0  0  0  0  0  0
    6.9764  -15.0273   15.9382 C   0  0  0  0  0  0  0  0  0  0  0  0
   11.5318  -19.5713   21.1284 N   0  0  0  0  0  0  0  0  0  0  0  0
   10.5414  -19.2997   22.1053 C   0  0  0  0  0  0  0  0  0  0  0  0
    9.4441  -19.9049   21.9526 O   0  0  0  0  0  0  0  0  0  0  0  0
   10.8650  -18.3637   23.1828 C   0  0  0  0  0  0  0  0  0  0  0  0
    9.8080  -17.2832   23.2417 C   0  0  2  0  0  0  0  0  0  0  0  0
    9.8584  -16.5072   22.0502 N   0  0  0  0  0  0  0  0  0  0  0  0
   10.1060  -16.4837   24.4622 C   0  0  0  0  0  0  0  0  0  0  0  0
   11.2578  -16.0003   24.6190 O   0  0  0  0  0  0  0  0  0  0  0  0
    6.4136  -10.8605   25.8175 C   0  0  0  0  0  0  0  0  0  0  0  0
    6.6640  -12.3516   26.7793 S   0  0  0  0  0  0  0  0  0  0  0  0
    8.0150  -13.3924   26.2884 C   0  0  0  0  0  0  0  0  0  0  0  0
    8.3334  -14.5888   27.0779 C   0  0  0  0  0  0  0  0  0  0  0  0
    9.3695  -15.5392   26.6881 C   0  0  2  0  0  0  0  0  0  0  0  0
    9.1144  -16.2542   25.4567 N   0  0  0  0  0  0  0  0  0  0  0  0
    9.8198  -16.3927   27.8048 C   0  0  0  0  0  0  0  0  0  0  0  0
    9.4000  -17.5663   27.9150 O   0  0  0  0  0  0  0  0  0  0  0  0
   10.7085  -15.9261   28.7609 O   0  0  0  0  0  0  0  0  0  0  0  0
  2  1  1  0
  3  2  2  0
  4  3  1  0
  5 11  1  0
  5  4  2  0
  6  5  1  0
  7  6  1  0
  7  8  1  6
  9  7  1  0
 10  9  2  0
 11 12  2  0
 12  2  1  0
 13 14  1  0
 14 15  2  0
 16 14  1  0
 17 16  1  6
 17 18  1  0
 18  9  1  0
 19 17  1  0
 19 26  1  0
 20 19  2  0
 22 21  1  0
 23 24  1  0
 23 22  1  0
 25 24  1  1
 25 26  1  0
 25 27  1  0
 27 28  2  0
 27 29  1  0
M  END
$$$$
