THQ.pdb
     RDKit          3D

 27 27  0  0  1  0  0  0  0  0999 V2000
   24.2736  -39.1830   -5.2574 C   0  0  0  0  0  0  0  0  0  0  0  0
   24.7376  -39.1488   -6.6984 C   0  0  1  0  0  0  0  0  0  0  0  0
   24.0121  -40.0494   -7.4492 O   0  0  0  0  0  0  0  0  0  0  0  0
   24.5747  -37.7860   -7.3126 C   0  0  2  0  0  0  0  0  0  0  0  0
   24.8666  -37.8841   -8.7190 N   0  0  0  0  0  0  0  0  0  0  0  0
   25.4416  -36.8368   -6.6067 C   0  0  0  0  0  0  0  0  0  0  0  0
   26.6876  -37.0486   -6.6444 O   0  0  0  0  0  0  0  0  0  0  0  0
   24.9738  -35.7027   -5.8884 N   0  0  0  0  0  0  0  0  0  0  0  0
   25.8920  -34.8614   -5.1928 C   0  0  1  0  0  0  0  0  0  0  0  0
   25.4137  -33.4360   -5.0636 C   0  0  0  0  0  0  0  0  0  0  0  0
   25.4041  -32.7190   -6.3467 C   0  0  0  0  0  0  0  0  0  0  0  0
   25.7999  -33.3034   -7.5350 C   0  0  0  0  0  0  0  0  0  0  0  0
   25.6761  -32.3988   -8.5098 N   0  0  0  0  0  0  0  0  0  0  0  0
   25.2115  -31.2467   -7.9846 C   0  0  0  0  0  0  0  0  0  0  0  0
   25.0546  -31.4682   -6.6681 N   0  0  0  0  0  0  0  0  0  0  0  0
   26.1262  -35.3478   -3.7896 C   0  0  0  0  0  0  0  0  0  0  0  0
   25.5841  -36.4412   -3.4883 O   0  0  0  0  0  0  0  0  0  0  0  0
   30.6228  -37.3243   -1.3225 N   0  0  0  0  0  0  0  0  0  0  0  0
   29.7331  -37.5282   -0.2434 C   0  0  0  0  0  0  0  0  0  0  0  0
   30.1676  -38.0445    0.8069 O   0  0  0  0  0  0  0  0  0  0  0  0
   28.3360  -37.1431   -0.3569 C   0  0  0  0  0  0  0  0  0  0  0  0
   27.9052  -36.5224   -1.6321 C   0  0  0  0  0  0  0  0  0  0  0  0
   27.2118  -35.2029   -1.5228 C   0  0  2  0  0  0  0  0  0  0  0  0
   26.8951  -34.6534   -2.8472 N   0  0  0  0  0  0  0  0  0  0  0  0
   28.0504  -34.2196   -0.8113 C   0  0  0  0  0  0  0  0  0  0  0  0
   28.4877  -33.0418   -1.4479 O   0  0  0  0  0  0  0  0  0  0  0  0
   28.4335  -34.3420    0.3799 O   0  0  0  0  0  0  0  0  0  0  0  0
  2  1  1  1
  2  4  1  0
  3  2  1  0
  4  5  1  6
  4  6  1  0
  6  7  2  0
  8  6  1  0
  8  9  1  0
  9 10  1  1
 11 10  1  0
 12 11  2  0
 13 12  1  0
 14 13  1  0
 14 15  2  0
 15 11  1  0
 16 17  2  0
 16  9  1  0
 18 19  1  0
 19 21  1  0
 20 19  2  0
 22 21  1  0
 23 22  1  6
 23 24  1  0
 24 16  1  0
 25 23  1  0
 25 26  1  0
 27 25  2  0
M  END
$$$$
