THQ.pdb
     RDKit          3D

 27 27  0  0  1  0  0  0  0  0999 V2000
   23.7576  -13.7864  -17.6175 C   0  0  0  0  0  0  0  0  0  0  0  0
   22.5399  -12.8952  -17.4913 C   0  0  1  0  0  0  0  0  0  0  0  0
   21.5048  -13.5910  -16.9036 O   0  0  0  0  0  0  0  0  0  0  0  0
   22.8171  -11.6737  -16.6593 C   0  0  2  0  0  0  0  0  0  0  0  0
   23.1429  -12.0990  -15.3230 N   0  0  0  0  0  0  0  0  0  0  0  0
   21.6534  -10.7829  -16.7155 C   0  0  0  0  0  0  0  0  0  0  0  0
   21.4008  -10.2257  -17.8221 O   0  0  0  0  0  0  0  0  0  0  0  0
   20.7983  -10.5082  -15.6137 N   0  0  0  0  0  0  0  0  0  0  0  0
   19.7327   -9.5690  -15.7453 C   0  0  1  0  0  0  0  0  0  0  0  0
   18.4673  -10.0017  -15.0461 C   0  0  0  0  0  0  0  0  0  0  0  0
   17.7328  -11.0381  -15.7856 C   0  0  0  0  0  0  0  0  0  0  0  0
   18.1327  -11.5000  -17.0254 C   0  0  0  0  0  0  0  0  0  0  0  0
   17.2632  -12.4308  -17.4274 N   0  0  0  0  0  0  0  0  0  0  0  0
   16.3132  -12.5830  -16.4823 C   0  0  0  0  0  0  0  0  0  0  0  0
   16.6220  -11.7247  -15.4949 N   0  0  0  0  0  0  0  0  0  0  0  0
   20.0990   -8.2376  -15.1508 C   0  0  0  0  0  0  0  0  0  0  0  0
   20.7593   -8.2749  -14.0818 O   0  0  0  0  0  0  0  0  0  0  0  0
   22.2433   -4.6682  -13.2831 N   0  0  0  0  0  0  0  0  0  0  0  0
   22.0344   -3.5255  -14.0883 C   0  0  0  0  0  0  0  0  0  0  0  0
   22.2916   -2.3993  -13.6150 O   0  0  0  0  0  0  0  0  0  0  0  0
   21.5281   -3.6615  -15.4441 C   0  0  0  0  0  0  0  0  0  0  0  0
   21.1660   -5.0250  -15.8990 C   0  0  0  0  0  0  0  0  0  0  0  0
   20.0991   -5.7203  -15.1166 C   0  0  2  0  0  0  0  0  0  0  0  0
   19.7445   -7.0096  -15.7234 N   0  0  0  0  0  0  0  0  0  0  0  0
   18.8749   -4.9004  -15.0430 C   0  0  0  0  0  0  0  0  0  0  0  0
   17.9379   -4.8977  -16.0945 O   0  0  0  0  0  0  0  0  0  0  0  0
   18.5722   -4.1606  -14.0725 O   0  0  0  0  0  0  0  0  0  0  0  0
  2  1  1  1
  2  4  1  0
  3  2  1  0
  4  5  1  1
  4  6  1  0
  6  7  2  0
  8  6  1  0
  8  9  1  0
  9 10  1  1
 11 10  1  0
 12 11  2  0
 13 12  1  0
 14 13  1  0
 14 15  2  0
 15 11  1  0
 16 17  2  0
 16  9  1  0
 18 19  1  0
 19 21  1  0
 20 19  2  0
 22 21  1  0
 23 22  1  6
 23 24  1  0
 24 16  1  0
 25 23  1  0
 25 26  1  0
 27 25  2  0
M  END
$$$$
