THQ.pdb
     RDKit          3D

 27 27  0  0  1  0  0  0  0  0999 V2000
   25.0182   -6.9812  -16.4783 C   0  0  0  0  0  0  0  0  0  0  0  0
   24.5379   -7.6733  -17.7366 C   0  0  1  0  0  0  0  0  0  0  0  0
   25.6094   -7.9611  -18.5551 O   0  0  0  0  0  0  0  0  0  0  0  0
   23.8181   -8.9587  -17.4352 C   0  0  2  0  0  0  0  0  0  0  0  0
   23.4950   -9.6011  -18.6824 N   0  0  0  0  0  0  0  0  0  0  0  0
   22.6395   -8.6652  -16.6133 C   0  0  0  0  0  0  0  0  0  0  0  0
   21.6846   -8.0474  -17.1659 O   0  0  0  0  0  0  0  0  0  0  0  0
   22.5035   -9.0281  -15.2456 N   0  0  0  0  0  0  0  0  0  0  0  0
   21.3505   -8.6303  -14.5058 C   0  0  1  0  0  0  0  0  0  0  0  0
   21.0600   -9.5271  -13.3274 C   0  0  0  0  0  0  0  0  0  0  0  0
   19.7766   -9.2202  -12.6799 C   0  0  0  0  0  0  0  0  0  0  0  0
   18.9576   -8.1859  -13.0918 C   0  0  0  0  0  0  0  0  0  0  0  0
   17.8760   -8.1688  -12.3081 N   0  0  0  0  0  0  0  0  0  0  0  0
   17.9736   -9.1628  -11.4018 C   0  0  0  0  0  0  0  0  0  0  0  0
   19.1383   -9.7867  -11.6497 N   0  0  0  0  0  0  0  0  0  0  0  0
   21.5119   -7.2459  -13.9419 C   0  0  0  0  0  0  0  0  0  0  0  0
   22.5652   -7.0369  -13.2886 O   0  0  0  0  0  0  0  0  0  0  0  0
   24.0398   -3.1630  -16.1955 N   0  0  0  0  0  0  0  0  0  0  0  0
   22.8088   -3.5011  -16.8021 C   0  0  0  0  0  0  0  0  0  0  0  0
   22.6680   -3.3098  -18.0278 O   0  0  0  0  0  0  0  0  0  0  0  0
   21.7260   -4.0613  -16.0104 C   0  0  0  0  0  0  0  0  0  0  0  0
   21.9846   -4.2814  -14.5676 C   0  0  0  0  0  0  0  0  0  0  0  0
   20.8448   -4.8246  -13.7681 C   0  0  2  0  0  0  0  0  0  0  0  0
   20.5685   -6.2250  -14.1129 N   0  0  0  0  0  0  0  0  0  0  0  0
   19.6132   -4.0471  -14.0028 C   0  0  0  0  0  0  0  0  0  0  0  0
   18.4860   -4.6366  -14.6075 O   0  0  0  0  0  0  0  0  0  0  0  0
   19.4673   -2.8368  -13.6956 O   0  0  0  0  0  0  0  0  0  0  0  0
  2  1  1  1
  2  4  1  0
  3  2  1  0
  4  5  1  6
  4  6  1  0
  6  7  2  0
  8  6  1  0
  8  9  1  0
  9 10  1  1
 11 10  1  0
 12 11  2  0
 13 12  1  0
 14 13  1  0
 14 15  2  0
 15 11  1  0
 16 17  2  0
 16  9  1  0
 18 19  1  0
 19 21  1  0
 20 19  2  0
 22 21  1  0
 23 22  1  6
 23 24  1  0
 24 16  1  0
 25 23  1  0
 25 26  1  0
 27 25  2  0
M  END
$$$$
