THQ.pdb
     RDKit          3D

 27 27  0  0  1  0  0  0  0  0999 V2000
   27.3188  -25.2011  -19.3100 C   0  0  0  0  0  0  0  0  0  0  0  0
   27.6841  -26.2296  -18.2604 C   0  0  1  0  0  0  0  0  0  0  0  0
   28.3081  -27.3070  -18.8526 O   0  0  0  0  0  0  0  0  0  0  0  0
   28.6078  -25.6675  -17.2154 C   0  0  2  0  0  0  0  0  0  0  0  0
   28.8177  -26.6732  -16.2069 N   0  0  0  0  0  0  0  0  0  0  0  0
   28.0315  -24.4276  -16.6850 C   0  0  0  0  0  0  0  0  0  0  0  0
   27.0877  -24.5358  -15.8506 O   0  0  0  0  0  0  0  0  0  0  0  0
   28.4630  -23.1223  -17.0466 N   0  0  0  0  0  0  0  0  0  0  0  0
   27.9566  -21.9797  -16.3590 C   0  0  1  0  0  0  0  0  0  0  0  0
   28.7343  -20.7187  -16.6455 C   0  0  0  0  0  0  0  0  0  0  0  0
   28.1702  -19.5366  -15.9784 C   0  0  0  0  0  0  0  0  0  0  0  0
   28.2835  -19.3179  -14.6184 C   0  0  0  0  0  0  0  0  0  0  0  0
   27.6715  -18.1673  -14.3255 N   0  0  0  0  0  0  0  0  0  0  0  0
   27.1662  -17.6370  -15.4579 C   0  0  0  0  0  0  0  0  0  0  0  0
   27.4832  -18.4891  -16.4481 N   0  0  0  0  0  0  0  0  0  0  0  0
   26.5355  -21.6877  -16.7537 C   0  0  0  0  0  0  0  0  0  0  0  0
   26.2444  -21.8983  -17.9583 O   0  0  0  0  0  0  0  0  0  0  0  0
   22.9122  -20.6400  -12.5689 N   0  0  0  0  0  0  0  0  0  0  0  0
   21.9390  -20.2430  -13.5138 C   0  0  0  0  0  0  0  0  0  0  0  0
   20.9655  -19.5635  -13.1275 O   0  0  0  0  0  0  0  0  0  0  0  0
   22.0708  -20.6210  -14.9112 C   0  0  0  0  0  0  0  0  0  0  0  0
   23.2094  -21.4990  -15.2716 C   0  0  0  0  0  0  0  0  0  0  0  0
   24.1793  -20.9474  -16.2659 C   0  0  2  0  0  0  0  0  0  0  0  0
   25.5667  -21.2095  -15.8626 N   0  0  0  0  0  0  0  0  0  0  0  0
   24.0166  -19.4886  -16.4137 C   0  0  0  0  0  0  0  0  0  0  0  0
   23.1220  -18.9493  -17.3584 O   0  0  0  0  0  0  0  0  0  0  0  0
   24.6383  -18.6318  -15.7354 O   0  0  0  0  0  0  0  0  0  0  0  0
  2  1  1  6
  2  4  1  0
  3  2  1  0
  4  5  1  1
  4  6  1  0
  6  7  2  0
  8  6  1  0
  8  9  1  0
  9 10  1  6
 11 10  1  0
 12 11  2  0
 13 12  1  0
 14 13  1  0
 14 15  2  0
 15 11  1  0
 16 17  2  0
 16  9  1  0
 18 19  1  0
 19 21  1  0
 20 19  2  0
 22 21  1  0
 23 22  1  1
 23 24  1  0
 24 16  1  0
 25 23  1  0
 25 26  1  0
 27 25  2  0
M  END
$$$$
