THQ.pdb
     RDKit          3D

 27 27  0  0  1  0  0  0  0  0999 V2000
   27.1993  -11.7433  -15.0827 C   0  0  0  0  0  0  0  0  0  0  0  0
   28.1864  -11.9120  -16.2185 C   0  0  1  0  0  0  0  0  0  0  0  0
   29.1499  -12.8357  -15.8730 O   0  0  0  0  0  0  0  0  0  0  0  0
   27.5194  -12.3790  -17.4826 C   0  0  2  0  0  0  0  0  0  0  0  0
   28.5315  -12.5569  -18.4908 N   0  0  0  0  0  0  0  0  0  0  0  0
   26.4866  -11.4102  -17.8642 C   0  0  0  0  0  0  0  0  0  0  0  0
   26.8705  -10.3359  -18.4095 O   0  0  0  0  0  0  0  0  0  0  0  0
   25.0926  -11.6006  -17.6616 N   0  0  0  0  0  0  0  0  0  0  0  0
   24.1630  -10.5926  -18.0549 C   0  0  1  0  0  0  0  0  0  0  0  0
   23.1107  -11.0938  -19.0133 C   0  0  0  0  0  0  0  0  0  0  0  0
   22.2130  -10.0287  -19.4827 C   0  0  0  0  0  0  0  0  0  0  0  0
   22.4364   -9.3192  -20.6476 C   0  0  0  0  0  0  0  0  0  0  0  0
   21.4504   -8.4300  -20.7936 N   0  0  0  0  0  0  0  0  0  0  0  0
   20.5966   -8.5454  -19.7560 C   0  0  0  0  0  0  0  0  0  0  0  0
   21.0832   -9.5243  -18.9737 N   0  0  0  0  0  0  0  0  0  0  0  0
   23.4162  -10.0437  -16.8710 C   0  0  0  0  0  0  0  0  0  0  0  0
   23.1541  -10.8651  -15.9563 O   0  0  0  0  0  0  0  0  0  0  0  0
   23.6913   -4.1095  -14.7477 N   0  0  0  0  0  0  0  0  0  0  0  0
   22.5783   -4.3256  -15.5915 C   0  0  0  0  0  0  0  0  0  0  0  0
   21.9943   -3.3381  -16.0839 O   0  0  0  0  0  0  0  0  0  0  0  0
   22.1224   -5.6755  -15.8795 C   0  0  0  0  0  0  0  0  0  0  0  0
   22.8607   -6.7911  -15.2410 C   0  0  0  0  0  0  0  0  0  0  0  0
   22.3736   -8.1691  -15.5532 C   0  0  2  0  0  0  0  0  0  0  0  0
   23.0197   -8.7052  -16.7578 N   0  0  0  0  0  0  0  0  0  0  0  0
   20.9153   -8.1790  -15.7767 C   0  0  0  0  0  0  0  0  0  0  0  0
   20.3796   -8.1354  -17.0786 O   0  0  0  0  0  0  0  0  0  0  0  0
   20.0560   -8.2254  -14.8602 O   0  0  0  0  0  0  0  0  0  0  0  0
  2  1  1  1
  2  4  1  0
  3  2  1  0
  4  5  1  6
  4  6  1  0
  6  7  2  0
  8  6  1  0
  8  9  1  0
  9 10  1  6
 11 10  1  0
 12 11  2  0
 13 12  1  0
 14 13  1  0
 14 15  2  0
 15 11  1  0
 16 17  2  0
 16  9  1  0
 18 19  1  0
 19 21  1  0
 20 19  2  0
 22 21  1  0
 23 22  1  6
 23 24  1  0
 24 16  1  0
 25 23  1  0
 25 26  1  0
 27 25  2  0
M  END
$$$$
