THQ.pdb
     RDKit          3D

 27 27  0  0  1  0  0  0  0  0999 V2000
   17.6562  -14.1736  -15.5330 C   0  0  0  0  0  0  0  0  0  0  0  0
   18.4825  -13.3336  -16.4841 C   0  0  1  0  0  0  0  0  0  0  0  0
   18.0508  -13.5249  -17.7794 O   0  0  0  0  0  0  0  0  0  0  0  0
   18.3889  -11.8661  -16.1694 C   0  0  2  0  0  0  0  0  0  0  0  0
   17.1437  -11.3682  -16.6929 N   0  0  0  0  0  0  0  0  0  0  0  0
   19.5632  -11.1829  -16.7217 C   0  0  0  0  0  0  0  0  0  0  0  0
   20.6887  -11.4620  -16.2174 O   0  0  0  0  0  0  0  0  0  0  0  0
   19.5170  -10.2345  -17.7796 N   0  0  0  0  0  0  0  0  0  0  0  0
   20.7098   -9.5883  -18.2206 C   0  0  1  0  0  0  0  0  0  0  0  0
   20.8982   -9.6418  -19.7168 C   0  0  0  0  0  0  0  0  0  0  0  0
   21.1374  -11.0045  -20.2132 C   0  0  0  0  0  0  0  0  0  0  0  0
   22.1500  -11.8114  -19.7298 C   0  0  0  0  0  0  0  0  0  0  0  0
   22.1039  -12.9779  -20.3789 N   0  0  0  0  0  0  0  0  0  0  0  0
   21.0900  -12.9470  -21.2678 C   0  0  0  0  0  0  0  0  0  0  0  0
   20.5187  -11.7362  -21.1469 N   0  0  0  0  0  0  0  0  0  0  0  0
   20.7100   -8.1297  -17.8557 C   0  0  0  0  0  0  0  0  0  0  0  0
   19.5951   -7.5508  -17.9011 O   0  0  0  0  0  0  0  0  0  0  0  0
   22.3573   -6.1471  -12.5585 N   0  0  0  0  0  0  0  0  0  0  0  0
   22.3634   -4.9114  -13.2445 C   0  0  0  0  0  0  0  0  0  0  0  0
   22.5180   -3.8593  -12.5903 O   0  0  0  0  0  0  0  0  0  0  0  0
   22.1920   -4.8682  -14.6874 C   0  0  0  0  0  0  0  0  0  0  0  0
   22.0742   -6.1652  -15.3952 C   0  0  0  0  0  0  0  0  0  0  0  0
   21.8099   -6.0937  -16.8645 C   0  0  2  0  0  0  0  0  0  0  0  0
   21.8612   -7.4245  -17.4829 N   0  0  0  0  0  0  0  0  0  0  0  0
   22.8035   -5.2390  -17.5418 C   0  0  0  0  0  0  0  0  0  0  0  0
   22.5380   -3.8799  -17.7986 O   0  0  0  0  0  0  0  0  0  0  0  0
   23.9309   -5.6336  -17.9340 O   0  0  0  0  0  0  0  0  0  0  0  0
  2  1  1  1
  2  4  1  0
  3  2  1  0
  4  5  1  6
  4  6  1  0
  6  7  2  0
  8  6  1  0
  8  9  1  0
  9 10  1  6
 11 10  1  0
 12 11  2  0
 13 12  1  0
 14 13  1  0
 14 15  2  0
 15 11  1  0
 16 17  2  0
 16  9  1  0
 18 19  1  0
 19 21  1  0
 20 19  2  0
 22 21  1  0
 23 22  1  1
 23 24  1  0
 24 16  1  0
 25 23  1  0
 25 26  1  0
 27 25  2  0
M  END
$$$$
