THQ.pdb
     RDKit          3D

 27 27  0  0  1  0  0  0  0  0999 V2000
   25.5957   -9.9156  -15.4466 C   0  0  0  0  0  0  0  0  0  0  0  0
   25.4920  -10.6926  -16.7422 C   0  0  1  0  0  0  0  0  0  0  0  0
   26.6381  -11.4326  -16.9416 O   0  0  0  0  0  0  0  0  0  0  0  0
   24.3188  -11.6332  -16.7450 C   0  0  2  0  0  0  0  0  0  0  0  0
   24.3297  -12.3687  -17.9825 N   0  0  0  0  0  0  0  0  0  0  0  0
   23.0878  -10.8625  -16.5408 C   0  0  0  0  0  0  0  0  0  0  0  0
   22.6573  -10.1851  -17.5178 O   0  0  0  0  0  0  0  0  0  0  0  0
   22.3538  -10.8290  -15.3239 N   0  0  0  0  0  0  0  0  0  0  0  0
   21.1795  -10.0268  -15.2127 C   0  0  1  0  0  0  0  0  0  0  0  0
   20.0997  -10.6642  -14.3731 C   0  0  0  0  0  0  0  0  0  0  0  0
   19.3405  -11.6897  -15.1028 C   0  0  0  0  0  0  0  0  0  0  0  0
   19.5950  -12.0138  -16.4221 C   0  0  0  0  0  0  0  0  0  0  0  0
   18.7420  -12.9731  -16.7911 N   0  0  0  0  0  0  0  0  0  0  0  0
   17.9440  -13.2776  -15.7474 C   0  0  0  0  0  0  0  0  0  0  0  0
   18.3286  -12.4832  -14.7336 N   0  0  0  0  0  0  0  0  0  0  0  0
   21.4791   -8.7032  -14.5656 C   0  0  0  0  0  0  0  0  0  0  0  0
   22.5204   -8.6571  -13.8629 O   0  0  0  0  0  0  0  0  0  0  0  0
   24.4550   -5.1819  -17.1821 N   0  0  0  0  0  0  0  0  0  0  0  0
   24.0555   -4.2636  -16.1846 C   0  0  0  0  0  0  0  0  0  0  0  0
   24.6755   -3.1857  -16.0743 O   0  0  0  0  0  0  0  0  0  0  0  0
   22.9416   -4.5713  -15.3028 C   0  0  0  0  0  0  0  0  0  0  0  0
   22.3423   -5.9225  -15.4137 C   0  0  0  0  0  0  0  0  0  0  0  0
   21.1790   -6.2041  -14.5186 C   0  0  2  0  0  0  0  0  0  0  0  0
   20.6718   -7.5683  -14.7132 N   0  0  0  0  0  0  0  0  0  0  0  0
   20.0705   -5.2657  -14.7774 C   0  0  0  0  0  0  0  0  0  0  0  0
   19.8133   -4.1876  -13.9082 O   0  0  0  0  0  0  0  0  0  0  0  0
   19.2882   -5.3429  -15.7585 O   0  0  0  0  0  0  0  0  0  0  0  0
  2  1  1  1
  2  4  1  0
  3  2  1  0
  4  5  1  6
  4  6  1  0
  6  7  2  0
  8  6  1  0
  8  9  1  0
  9 10  1  1
 11 10  1  0
 12 11  2  0
 13 12  1  0
 14 13  1  0
 14 15  2  0
 15 11  1  0
 16 17  2  0
 16  9  1  0
 18 19  1  0
 19 21  1  0
 20 19  2  0
 22 21  1  0
 23 22  1  6
 23 24  1  0
 24 16  1  0
 25 23  1  0
 25 26  1  0
 27 25  2  0
M  END
$$$$
