THQ.pdb
     RDKit          3D

 27 27  0  0  1  0  0  0  0  0999 V2000
   18.1489  -10.0012  -19.5676 C   0  0  0  0  0  0  0  0  0  0  0  0
   18.6275  -11.3948  -19.2184 C   0  0  1  0  0  0  0  0  0  0  0  0
   18.5965  -12.1987  -20.3381 O   0  0  0  0  0  0  0  0  0  0  0  0
   20.0317  -11.3921  -18.6804 C   0  0  2  0  0  0  0  0  0  0  0  0
   20.3957  -12.7464  -18.3550 N   0  0  0  0  0  0  0  0  0  0  0  0
   20.1019  -10.4823  -17.5323 C   0  0  0  0  0  0  0  0  0  0  0  0
   19.5705  -10.8680  -16.4517 O   0  0  0  0  0  0  0  0  0  0  0  0
   20.7244   -9.2046  -17.5568 N   0  0  0  0  0  0  0  0  0  0  0  0
   20.6783   -8.3584  -16.4093 C   0  0  1  0  0  0  0  0  0  0  0  0
   22.0388   -8.0817  -15.8179 C   0  0  0  0  0  0  0  0  0  0  0  0
   22.7009   -9.2950  -15.3178 C   0  0  0  0  0  0  0  0  0  0  0  0
   23.7735   -9.8831  -15.9613 C   0  0  0  0  0  0  0  0  0  0  0  0
   24.1440  -10.9594  -15.2624 N   0  0  0  0  0  0  0  0  0  0  0  0
   23.3410  -11.0829  -14.1860 C   0  0  0  0  0  0  0  0  0  0  0  0
   22.4725  -10.0585  -14.2433 N   0  0  0  0  0  0  0  0  0  0  0  0
   20.0911   -7.0150  -16.7421 C   0  0  0  0  0  0  0  0  0  0  0  0
   20.3793   -6.5537  -17.8754 O   0  0  0  0  0  0  0  0  0  0  0  0
   15.4127   -7.3440  -15.5396 N   0  0  0  0  0  0  0  0  0  0  0  0
   15.6126   -7.0453  -16.9065 C   0  0  0  0  0  0  0  0  0  0  0  0
   15.0052   -7.7175  -17.7656 O   0  0  0  0  0  0  0  0  0  0  0  0
   16.5111   -5.9738  -17.3034 C   0  0  0  0  0  0  0  0  0  0  0  0
   17.1236   -5.1670  -16.2213 C   0  0  0  0  0  0  0  0  0  0  0  0
   18.6121   -5.0364  -16.2570 C   0  0  2  0  0  0  0  0  0  0  0  0
   19.2689   -6.2911  -15.8694 N   0  0  0  0  0  0  0  0  0  0  0  0
   19.0746   -3.9785  -15.3386 C   0  0  0  0  0  0  0  0  0  0  0  0
   18.7504   -2.6267  -15.5653 O   0  0  0  0  0  0  0  0  0  0  0  0
   19.7718   -4.1828  -14.3126 O   0  0  0  0  0  0  0  0  0  0  0  0
  2  1  1  6
  2  4  1  0
  3  2  1  0
  4  5  1  1
  4  6  1  0
  6  7  2  0
  8  6  1  0
  8  9  1  0
  9 10  1  6
 11 10  1  0
 12 11  2  0
 13 12  1  0
 14 13  1  0
 14 15  2  0
 15 11  1  0
 16 17  2  0
 16  9  1  0
 18 19  1  0
 19 21  1  0
 20 19  2  0
 22 21  1  0
 23 22  1  1
 23 24  1  0
 24 16  1  0
 25 23  1  0
 25 26  1  0
 27 25  2  0
M  END
$$$$
