THQ.pdb
     RDKit          3D

 27 27  0  0  1  0  0  0  0  0999 V2000
   25.9205  -10.4779  -14.8754 C   0  0  0  0  0  0  0  0  0  0  0  0
   26.0555  -11.1700  -16.2155 C   0  0  1  0  0  0  0  0  0  0  0  0
   27.1623  -11.9921  -16.2127 O   0  0  0  0  0  0  0  0  0  0  0  0
   24.8497  -12.0063  -16.5439 C   0  0  2  0  0  0  0  0  0  0  0  0
   25.0961  -12.6895  -17.7869 N   0  0  0  0  0  0  0  0  0  0  0  0
   23.6652  -11.1425  -16.5833 C   0  0  0  0  0  0  0  0  0  0  0  0
   23.5797  -10.3164  -17.5369 O   0  0  0  0  0  0  0  0  0  0  0  0
   22.6155  -11.1745  -15.6254 N   0  0  0  0  0  0  0  0  0  0  0  0
   21.4700  -10.3392  -15.7834 C   0  0  1  0  0  0  0  0  0  0  0  0
   20.2391  -10.8798  -15.0980 C   0  0  0  0  0  0  0  0  0  0  0  0
   19.0403  -10.0691  -15.3555 C   0  0  0  0  0  0  0  0  0  0  0  0
   19.0439   -8.9716  -16.1955 C   0  0  0  0  0  0  0  0  0  0  0  0
   17.8121   -8.4555  -16.2177 N   0  0  0  0  0  0  0  0  0  0  0  0
   17.0133   -9.1888  -15.4157 C   0  0  0  0  0  0  0  0  0  0  0  0
   17.7846  -10.1635  -14.9038 N   0  0  0  0  0  0  0  0  0  0  0  0
   21.7026   -8.9737  -15.1988 C   0  0  0  0  0  0  0  0  0  0  0  0
   22.1863   -8.9464  -14.0389 O   0  0  0  0  0  0  0  0  0  0  0  0
   22.7640   -3.5403  -18.3740 N   0  0  0  0  0  0  0  0  0  0  0  0
   22.7792   -3.1600  -17.0128 C   0  0  0  0  0  0  0  0  0  0  0  0
   23.0750   -1.9832  -16.7189 O   0  0  0  0  0  0  0  0  0  0  0  0
   22.4564   -4.1243  -15.9741 C   0  0  0  0  0  0  0  0  0  0  0  0
   22.1207   -5.5013  -16.4081 C   0  0  0  0  0  0  0  0  0  0  0  0
   21.7394   -6.4597  -15.3265 C   0  0  2  0  0  0  0  0  0  0  0  0
   21.4110   -7.7819  -15.8743 N   0  0  0  0  0  0  0  0  0  0  0  0
   20.5656   -5.9741  -14.5762 C   0  0  0  0  0  0  0  0  0  0  0  0
   19.2572   -6.2151  -15.0385 O   0  0  0  0  0  0  0  0  0  0  0  0
   20.6278   -5.3274  -13.4998 O   0  0  0  0  0  0  0  0  0  0  0  0
  2  1  1  1
  2  4  1  0
  3  2  1  0
  4  5  1  6
  4  6  1  0
  6  7  2  0
  8  6  1  0
  8  9  1  0
  9 10  1  1
 11 10  1  0
 12 11  2  0
 13 12  1  0
 14 13  1  0
 14 15  2  0
 15 11  1  0
 16 17  2  0
 16  9  1  0
 18 19  1  0
 19 21  1  0
 20 19  2  0
 22 21  1  0
 23 22  1  6
 23 24  1  0
 24 16  1  0
 25 23  1  0
 25 26  1  0
 27 25  2  0
M  END
$$$$
