THQ.pdb
     RDKit          3D

 27 27  0  0  1  0  0  0  0  0999 V2000
   18.5757  -13.6871  -17.2678 C   0  0  0  0  0  0  0  0  0  0  0  0
   19.0440  -15.0088  -16.6962 C   0  0  1  0  0  0  0  0  0  0  0  0
   18.4035  -16.0512  -17.3320 O   0  0  0  0  0  0  0  0  0  0  0  0
   20.5268  -15.2005  -16.8563 C   0  0  2  0  0  0  0  0  0  0  0  0
   20.8760  -16.4958  -16.3341 N   0  0  0  0  0  0  0  0  0  0  0  0
   21.2262  -14.0989  -16.1868 C   0  0  0  0  0  0  0  0  0  0  0  0
   21.2032  -14.0788  -14.9227 O   0  0  0  0  0  0  0  0  0  0  0  0
   21.9228  -13.0607  -16.8632 N   0  0  0  0  0  0  0  0  0  0  0  0
   22.6225  -12.0616  -16.1235 C   0  0  1  0  0  0  0  0  0  0  0  0
   24.0679  -11.9199  -16.5329 C   0  0  0  0  0  0  0  0  0  0  0  0
   24.8679  -13.1138  -16.2244 C   0  0  0  0  0  0  0  0  0  0  0  0
   25.1740  -14.0756  -17.1685 C   0  0  0  0  0  0  0  0  0  0  0  0
   25.9070  -15.0243  -16.5795 N   0  0  0  0  0  0  0  0  0  0  0  0
   26.0828  -14.7022  -15.2818 C   0  0  0  0  0  0  0  0  0  0  0  0
   25.4412  -13.5363  -15.0918 N   0  0  0  0  0  0  0  0  0  0  0  0
   22.0037  -10.7047  -16.3141 C   0  0  0  0  0  0  0  0  0  0  0  0
   21.4722  -10.4944  -17.4337 O   0  0  0  0  0  0  0  0  0  0  0  0
   16.9412   -9.1826  -15.8277 N   0  0  0  0  0  0  0  0  0  0  0  0
   17.4124   -7.8730  -15.5818 C   0  0  0  0  0  0  0  0  0  0  0  0
   16.5832   -6.9495  -15.4465 O   0  0  0  0  0  0  0  0  0  0  0  0
   18.8386   -7.6078  -15.4890 C   0  0  0  0  0  0  0  0  0  0  0  0
   19.7513   -8.7731  -15.5674 C   0  0  0  0  0  0  0  0  0  0  0  0
   21.2116   -8.4767  -15.4501 C   0  0  2  0  0  0  0  0  0  0  0  0
   21.9998   -9.7096  -15.3286 N   0  0  0  0  0  0  0  0  0  0  0  0
   21.4904   -7.6403  -14.2673 C   0  0  0  0  0  0  0  0  0  0  0  0
   21.2964   -6.2457  -14.3015 O   0  0  0  0  0  0  0  0  0  0  0  0
   21.9094   -8.0820  -13.1673 O   0  0  0  0  0  0  0  0  0  0  0  0
  2  1  1  6
  2  4  1  0
  3  2  1  0
  4  5  1  1
  4  6  1  0
  6  7  2  0
  8  6  1  0
  8  9  1  0
  9 10  1  6
 11 10  1  0
 12 11  2  0
 13 12  1  0
 14 13  1  0
 14 15  2  0
 15 11  1  0
 16 17  2  0
 16  9  1  0
 18 19  1  0
 19 21  1  0
 20 19  2  0
 22 21  1  0
 23 22  1  1
 23 24  1  0
 24 16  1  0
 25 23  1  0
 25 26  1  0
 27 25  2  0
M  END
$$$$
