THQ.pdb
     RDKit          3D

 27 27  0  0  1  0  0  0  0  0999 V2000
   20.8351  -14.1379  -18.0926 C   0  0  0  0  0  0  0  0  0  0  0  0
   21.6245  -12.9934  -17.4926 C   0  0  1  0  0  0  0  0  0  0  0  0
   22.9673  -13.3057  -17.4729 O   0  0  0  0  0  0  0  0  0  0  0  0
   21.4500  -11.7177  -18.2693 C   0  0  2  0  0  0  0  0  0  0  0  0
   22.2328  -11.8092  -19.4741 N   0  0  0  0  0  0  0  0  0  0  0  0
   21.8278  -10.5845  -17.4185 C   0  0  0  0  0  0  0  0  0  0  0  0
   21.1570  -10.4015  -16.3625 O   0  0  0  0  0  0  0  0  0  0  0  0
   22.8918   -9.6859  -17.7034 N   0  0  0  0  0  0  0  0  0  0  0  0
   23.1405   -8.5700  -16.8503 C   0  0  1  0  0  0  0  0  0  0  0  0
   24.5835   -8.1286  -16.8519 C   0  0  0  0  0  0  0  0  0  0  0  0
   25.4935   -9.1516  -16.3173 C   0  0  0  0  0  0  0  0  0  0  0  0
   25.0466  -10.3326  -15.7554 C   0  0  0  0  0  0  0  0  0  0  0  0
   26.1098  -11.0425  -15.3684 N   0  0  0  0  0  0  0  0  0  0  0  0
   27.2306  -10.3533  -15.6645 C   0  0  0  0  0  0  0  0  0  0  0  0
   26.8280   -9.2074  -16.2406 N   0  0  0  0  0  0  0  0  0  0  0  0
   22.3402   -7.3690  -17.2716 C   0  0  0  0  0  0  0  0  0  0  0  0
   22.1611   -7.2330  -18.5083 O   0  0  0  0  0  0  0  0  0  0  0  0
   19.0522   -5.6421  -20.0995 N   0  0  0  0  0  0  0  0  0  0  0  0
   18.2801   -4.9235  -19.1587 C   0  0  0  0  0  0  0  0  0  0  0  0
   17.3799   -4.1636  -19.5722 O   0  0  0  0  0  0  0  0  0  0  0  0
   18.5318   -5.0675  -17.7343 C   0  0  0  0  0  0  0  0  0  0  0  0
   19.5968   -6.0144  -17.3264 C   0  0  0  0  0  0  0  0  0  0  0  0
   20.8449   -5.4058  -16.7737 C   0  0  2  0  0  0  0  0  0  0  0  0
   21.8101   -6.4365  -16.3710 N   0  0  0  0  0  0  0  0  0  0  0  0
   20.5513   -4.5716  -15.5929 C   0  0  0  0  0  0  0  0  0  0  0  0
   20.1682   -3.2235  -15.7327 O   0  0  0  0  0  0  0  0  0  0  0  0
   20.6147   -4.9754  -14.4039 O   0  0  0  0  0  0  0  0  0  0  0  0
  2  1  1  6
  2  4  1  0
  3  2  1  0
  4  5  1  6
  4  6  1  0
  6  7  2  0
  8  6  1  0
  8  9  1  0
  9 10  1  6
 11 10  1  0
 12 11  2  0
 13 12  1  0
 14 13  1  0
 14 15  2  0
 15 11  1  0
 16 17  2  0
 16  9  1  0
 18 19  1  0
 19 21  1  0
 20 19  2  0
 22 21  1  0
 23 22  1  1
 23 24  1  0
 24 16  1  0
 25 23  1  0
 25 26  1  0
 27 25  2  0
M  END
$$$$
