THQ.pdb
     RDKit          3D

 27 27  0  0  1  0  0  0  0  0999 V2000
   28.5972  -12.9542  -15.9481 C   0  0  0  0  0  0  0  0  0  0  0  0
   27.3309  -12.1352  -16.0853 C   0  0  1  0  0  0  0  0  0  0  0  0
   27.4912  -10.9119  -15.4697 O   0  0  0  0  0  0  0  0  0  0  0  0
   26.9672  -11.8932  -17.5241 C   0  0  2  0  0  0  0  0  0  0  0  0
   28.0537  -11.1902  -18.1549 N   0  0  0  0  0  0  0  0  0  0  0  0
   25.6962  -11.1637  -17.5797 C   0  0  0  0  0  0  0  0  0  0  0  0
   25.7368   -9.9517  -17.9379 O   0  0  0  0  0  0  0  0  0  0  0  0
   24.4315  -11.7280  -17.2590 N   0  0  0  0  0  0  0  0  0  0  0  0
   23.2328  -10.9922  -17.4972 C   0  0  1  0  0  0  0  0  0  0  0  0
   22.0020  -11.8629  -17.5617 C   0  0  0  0  0  0  0  0  0  0  0  0
   20.7865  -11.1082  -17.8985 C   0  0  0  0  0  0  0  0  0  0  0  0
   20.7910   -9.7464  -18.1349 C   0  0  0  0  0  0  0  0  0  0  0  0
   19.5416   -9.3640  -18.4124 N   0  0  0  0  0  0  0  0  0  0  0  0
   18.7306  -10.4404  -18.3618 C   0  0  0  0  0  0  0  0  0  0  0  0
   19.5123  -11.4878  -18.0475 N   0  0  0  0  0  0  0  0  0  0  0  0
   22.9761   -9.9936  -16.4030 C   0  0  0  0  0  0  0  0  0  0  0  0
   23.4178  -10.2971  -15.2660 O   0  0  0  0  0  0  0  0  0  0  0  0
   23.3715   -3.7936  -16.6883 N   0  0  0  0  0  0  0  0  0  0  0  0
   22.7276   -3.9910  -15.4456 C   0  0  0  0  0  0  0  0  0  0  0  0
   22.5084   -3.0016  -14.7163 O   0  0  0  0  0  0  0  0  0  0  0  0
   22.3288   -5.3241  -15.0254 C   0  0  0  0  0  0  0  0  0  0  0  0
   22.5047   -6.4242  -16.0031 C   0  0  0  0  0  0  0  0  0  0  0  0
   22.1204   -7.7907  -15.5355 C   0  0  2  0  0  0  0  0  0  0  0  0
   22.2907   -8.7882  -16.5995 N   0  0  0  0  0  0  0  0  0  0  0  0
   20.7112   -7.8263  -15.1002 C   0  0  0  0  0  0  0  0  0  0  0  0
   20.3611   -7.6084  -13.7535 O   0  0  0  0  0  0  0  0  0  0  0  0
   19.7368   -8.0458  -15.8637 O   0  0  0  0  0  0  0  0  0  0  0  0
  2  1  1  6
  2  4  1  0
  3  2  1  0
  4  5  1  1
  4  6  1  0
  6  7  2  0
  8  6  1  0
  8  9  1  0
  9 10  1  1
 11 10  1  0
 12 11  2  0
 13 12  1  0
 14 13  1  0
 14 15  2  0
 15 11  1  0
 16 17  2  0
 16  9  1  0
 18 19  1  0
 19 21  1  0
 20 19  2  0
 22 21  1  0
 23 22  1  6
 23 24  1  0
 24 16  1  0
 25 23  1  0
 25 26  1  0
 27 25  2  0
M  END
$$$$
