THQ.pdb
     RDKit          3D

 27 27  0  0  1  0  0  0  0  0999 V2000
   40.3469  -10.9244  -19.0904 C   0  0  0  0  0  0  0  0  0  0  0  0
   38.8914  -10.5139  -19.1670 C   0  0  1  0  0  0  0  0  0  0  0  0
   38.5217  -10.3296  -20.4824 O   0  0  0  0  0  0  0  0  0  0  0  0
   37.9802  -11.5464  -18.5629 C   0  0  2  0  0  0  0  0  0  0  0  0
   38.1520  -12.7807  -19.2837 N   0  0  0  0  0  0  0  0  0  0  0  0
   36.6024  -11.0449  -18.5943 C   0  0  0  0  0  0  0  0  0  0  0  0
   35.9005  -11.3368  -19.6048 O   0  0  0  0  0  0  0  0  0  0  0  0
   36.0105  -10.2579  -17.5692 N   0  0  0  0  0  0  0  0  0  0  0  0
   34.6538   -9.8315  -17.6807 C   0  0  1  0  0  0  0  0  0  0  0  0
   34.0125   -9.5298  -16.3485 C   0  0  0  0  0  0  0  0  0  0  0  0
   32.5780   -9.2297  -16.4608 C   0  0  0  0  0  0  0  0  0  0  0  0
   32.0505   -7.9802  -16.1951 C   0  0  0  0  0  0  0  0  0  0  0  0
   30.7296   -8.0323  -16.3869 N   0  0  0  0  0  0  0  0  0  0  0  0
   30.3894   -9.2801  -16.7690 C   0  0  0  0  0  0  0  0  0  0  0  0
   31.5314   -9.9882  -16.8061 N   0  0  0  0  0  0  0  0  0  0  0  0
   34.5407   -8.5691  -18.4894 C   0  0  0  0  0  0  0  0  0  0  0  0
   35.4246   -7.7001  -18.2800 O   0  0  0  0  0  0  0  0  0  0  0  0
   32.4973   -8.3100  -24.2370 N   0  0  0  0  0  0  0  0  0  0  0  0
   33.8406   -8.3282  -23.7979 C   0  0  0  0  0  0  0  0  0  0  0  0
   34.7212   -8.7621  -24.5692 O   0  0  0  0  0  0  0  0  0  0  0  0
   34.1888   -7.8500  -22.4701 C   0  0  0  0  0  0  0  0  0  0  0  0
   33.0844   -7.3446  -21.6203 C   0  0  0  0  0  0  0  0  0  0  0  0
   33.4197   -7.0860  -20.1870 C   0  0  2  0  0  0  0  0  0  0  0  0
   33.5271   -8.3384  -19.4280 N   0  0  0  0  0  0  0  0  0  0  0  0
   32.3884   -6.2508  -19.5426 C   0  0  0  0  0  0  0  0  0  0  0  0
   32.5434   -4.8547  -19.4407 O   0  0  0  0  0  0  0  0  0  0  0  0
   31.3217   -6.6949  -19.0470 O   0  0  0  0  0  0  0  0  0  0  0  0
  2  1  1  6
  2  4  1  0
  3  2  1  0
  4  5  1  6
  4  6  1  0
  6  7  2  0
  8  6  1  0
  8  9  1  0
  9 10  1  1
 11 10  1  0
 12 11  2  0
 13 12  1  0
 14 13  1  0
 14 15  2  0
 15 11  1  0
 16 17  2  0
 16  9  1  0
 18 19  1  0
 19 21  1  0
 20 19  2  0
 22 21  1  0
 23 22  1  6
 23 24  1  0
 24 16  1  0
 25 23  1  0
 25 26  1  0
 27 25  2  0
M  END
$$$$
