NQV.pdb
     RDKit          3D

 25 24  0  0  1  0  0  0  0  0999 V2000
   18.8748  -10.6872  -12.6768 N   0  0  0  0  0  0  0  0  0  0  0  0
   18.8580   -9.3838  -13.2174 C   0  0  0  0  0  0  0  0  0  0  0  0
   19.6838   -9.0786  -14.1111 O   0  0  0  0  0  0  0  0  0  0  0  0
   17.8697   -8.3886  -12.7276 C   0  0  0  0  0  0  0  0  0  0  0  0
   16.9919   -8.9631  -11.6455 C   0  0  2  0  0  0  0  0  0  0  0  0
   16.2177  -10.0992  -12.0448 N   0  0  0  0  0  0  0  0  0  0  0  0
   16.1404   -7.8687  -11.1012 C   0  0  0  0  0  0  0  0  0  0  0  0
   15.2029   -7.3547  -11.7340 O   0  0  0  0  0  0  0  0  0  0  0  0
   13.0986   -5.7196   -6.7435 N   0  0  0  0  0  0  0  0  0  0  0  0
   13.0970   -7.1160   -7.0213 C   0  0  0  0  0  0  0  0  0  0  0  0
   12.0574   -7.7910   -6.8687 O   0  0  0  0  0  0  0  0  0  0  0  0
   14.3962   -7.7053   -7.4970 C   0  0  0  0  0  0  0  0  0  0  0  0
   15.4309   -6.6473   -7.6996 C   0  0  0  0  0  0  0  0  0  0  0  0
   15.6540   -6.3636   -9.1375 C   0  0  2  0  0  0  0  0  0  0  0  0
   16.4308   -7.4059   -9.7961 N   0  0  0  0  0  0  0  0  0  0  0  0
   16.2975   -5.0703   -9.4352 C   0  0  0  0  0  0  0  0  0  0  0  0
   17.5337   -4.8323   -9.3667 O   0  0  0  0  0  0  0  0  0  0  0  0
   16.2314   -0.9010  -11.9297 C   0  0  0  0  0  0  0  0  0  0  0  0
   15.7097   -2.2787  -11.5871 C   0  0  2  0  0  0  0  0  0  0  0  0
   14.2135   -2.3099  -11.7520 C   0  0  0  0  0  0  0  0  0  0  0  0
   16.0992   -2.6654  -10.1599 C   0  0  2  0  0  0  0  0  0  0  0  0
   15.4963   -3.9472   -9.8424 N   0  0  0  0  0  0  0  0  0  0  0  0
   15.5263   -1.5954   -9.2683 C   0  0  0  0  0  0  0  0  0  0  0  0
   14.3639   -1.7608   -8.5779 O   0  0  0  0  0  0  0  0  0  0  0  0
   16.1512   -0.5096   -9.1625 O   0  0  0  0  0  0  0  0  0  0  0  0
  2  1  1  0
  2  3  2  0
  4  2  1  0
  5  7  1  0
  5  4  1  0
  5  6  1  6
  7  8  2  0
  9 10  1  0
 10 11  2  0
 12 10  1  0
 12 13  1  0
 14 13  1  1
 15 14  1  0
 15  7  1  0
 16 17  2  0
 16 14  1  0
 19 18  1  1
 19 21  1  0
 20 19  1  0
 21 22  1  1
 22 16  1  0
 23 21  1  0
 23 24  1  0
 25 23  2  0
M  END
$$$$
