NQV.pdb
     RDKit          3D

 25 24  0  0  1  0  0  0  0  0999 V2000
   24.1708  -21.0087   -8.5808 N   0  0  0  0  0  0  0  0  0  0  0  0
   25.5237  -20.6081   -8.5992 C   0  0  0  0  0  0  0  0  0  0  0  0
   26.1789  -20.6074   -7.5294 O   0  0  0  0  0  0  0  0  0  0  0  0
   26.1585  -20.1922   -9.8764 C   0  0  0  0  0  0  0  0  0  0  0  0
   25.1888  -20.2632  -11.0279 C   0  0  2  0  0  0  0  0  0  0  0  0
   24.6215  -21.5584  -11.2523 N   0  0  0  0  0  0  0  0  0  0  0  0
   25.8639  -19.7295  -12.2439 C   0  0  0  0  0  0  0  0  0  0  0  0
   26.4984  -18.6614  -12.2588 O   0  0  0  0  0  0  0  0  0  0  0  0
   27.6813  -22.1097  -17.8948 N   0  0  0  0  0  0  0  0  0  0  0  0
   28.4881  -22.2742  -16.7333 C   0  0  0  0  0  0  0  0  0  0  0  0
   29.6389  -22.7508  -16.8237 O   0  0  0  0  0  0  0  0  0  0  0  0
   27.8765  -21.8472  -15.4275 C   0  0  0  0  0  0  0  0  0  0  0  0
   26.5526  -21.1881  -15.6373 C   0  0  0  0  0  0  0  0  0  0  0  0
   26.3435  -20.0611  -14.6971 C   0  0  2  0  0  0  0  0  0  0  0  0
   25.7653  -20.4929  -13.4311 N   0  0  0  0  0  0  0  0  0  0  0  0
   25.5176  -18.9527  -15.2112 C   0  0  0  0  0  0  0  0  0  0  0  0
   24.2630  -18.8682  -15.1202 O   0  0  0  0  0  0  0  0  0  0  0  0
   26.6507  -15.1577  -14.9435 C   0  0  0  0  0  0  0  0  0  0  0  0
   26.2181  -15.4699  -16.3587 C   0  0  2  0  0  0  0  0  0  0  0  0
   25.4588  -14.3003  -16.9266 C   0  0  0  0  0  0  0  0  0  0  0  0
   25.3594  -16.7345  -16.3957 C   0  0  2  0  0  0  0  0  0  0  0  0
   26.1418  -17.8453  -15.8847 N   0  0  0  0  0  0  0  0  0  0  0  0
   25.0254  -16.9678  -17.8455 C   0  0  0  0  0  0  0  0  0  0  0  0
   23.7845  -16.7387  -18.3583 O   0  0  0  0  0  0  0  0  0  0  0  0
   25.9328  -17.3909  -18.6060 O   0  0  0  0  0  0  0  0  0  0  0  0
  2  1  1  0
  2  3  2  0
  4  2  1  0
  5  7  1  0
  5  4  1  0
  5  6  1  6
  7  8  2  0
  9 10  1  0
 10 11  2  0
 12 10  1  0
 12 13  1  0
 14 13  1  6
 15 14  1  0
 15  7  1  0
 16 17  2  0
 16 14  1  0
 19 18  1  1
 19 21  1  0
 20 19  1  0
 21 22  1  6
 22 16  1  0
 23 21  1  0
 23 24  1  0
 25 23  2  0
M  END
$$$$
