NQV.pdb
     RDKit          3D

 25 24  0  0  1  0  0  0  0  0999 V2000
   20.7365  -13.7429  -17.3609 N   0  0  0  0  0  0  0  0  0  0  0  0
   20.7176  -12.5569  -18.1253 C   0  0  0  0  0  0  0  0  0  0  0  0
   21.2995  -12.5328  -19.2365 O   0  0  0  0  0  0  0  0  0  0  0  0
   20.0142  -11.3532  -17.6124 C   0  0  0  0  0  0  0  0  0  0  0  0
   19.4153  -11.5971  -16.2512 C   0  0  2  0  0  0  0  0  0  0  0  0
   18.5323  -12.7218  -16.1798 N   0  0  0  0  0  0  0  0  0  0  0  0
   18.7588  -10.3403  -15.7948 C   0  0  0  0  0  0  0  0  0  0  0  0
   17.5602  -10.0838  -15.9980 O   0  0  0  0  0  0  0  0  0  0  0  0
   15.7177   -8.9858  -12.0576 N   0  0  0  0  0  0  0  0  0  0  0  0
   15.3975   -8.4796  -13.3493 C   0  0  0  0  0  0  0  0  0  0  0  0
   14.2064   -8.3277  -13.6927 O   0  0  0  0  0  0  0  0  0  0  0  0
   16.5589   -8.1501  -14.2459 C   0  0  0  0  0  0  0  0  0  0  0  0
   17.8604   -8.4898  -13.5964 C   0  0  0  0  0  0  0  0  0  0  0  0
   19.0112   -8.2005  -14.4850 C   0  0  2  0  0  0  0  0  0  0  0  0
   19.5582   -9.4047  -15.0965 N   0  0  0  0  0  0  0  0  0  0  0  0
   20.1283   -7.4707  -13.8566 C   0  0  0  0  0  0  0  0  0  0  0  0
   20.7222   -7.8082  -12.7970 O   0  0  0  0  0  0  0  0  0  0  0  0
   22.2197   -4.8392  -16.2977 C   0  0  0  0  0  0  0  0  0  0  0  0
   22.8354   -5.4829  -15.0754 C   0  0  2  0  0  0  0  0  0  0  0  0
   23.3745   -6.8419  -15.4351 C   0  0  0  0  0  0  0  0  0  0  0  0
   21.8087   -5.5956  -13.9478 C   0  0  2  0  0  0  0  0  0  0  0  0
   20.6250   -6.2624  -14.4589 N   0  0  0  0  0  0  0  0  0  0  0  0
   21.4695   -4.1827  -13.5519 C   0  0  0  0  0  0  0  0  0  0  0  0
   20.3001   -3.5819  -13.9081 O   0  0  0  0  0  0  0  0  0  0  0  0
   22.3036   -3.5388  -12.8660 O   0  0  0  0  0  0  0  0  0  0  0  0
  2  1  1  0
  2  3  2  0
  4  2  1  0
  5  7  1  0
  5  4  1  0
  5  6  1  6
  7  8  2  0
  9 10  1  0
 10 11  2  0
 12 10  1  0
 12 13  1  0
 14 13  1  1
 15 14  1  0
 15  7  1  0
 16 17  2  0
 16 14  1  0
 19 18  1  6
 19 21  1  0
 20 19  1  0
 21 22  1  6
 22 16  1  0
 23 21  1  0
 23 24  1  0
 25 23  2  0
M  END
$$$$
