NQV.pdb
     RDKit          3D

 25 24  0  0  1  0  0  0  0  0999 V2000
   17.2402  -14.2442  -16.1336 N   0  0  0  0  0  0  0  0  0  0  0  0
   18.2422  -14.2871  -15.1409 C   0  0  0  0  0  0  0  0  0  0  0  0
   18.4108  -15.3421  -14.4833 O   0  0  0  0  0  0  0  0  0  0  0  0
   19.0845  -13.0910  -14.8826 C   0  0  0  0  0  0  0  0  0  0  0  0
   18.6871  -11.9316  -15.7596 C   0  0  2  0  0  0  0  0  0  0  0  0
   18.9634  -12.1139  -17.1525 N   0  0  0  0  0  0  0  0  0  0  0  0
   19.3208  -10.6960  -15.2203 C   0  0  0  0  0  0  0  0  0  0  0  0
   19.1910  -10.3206  -14.0431 O   0  0  0  0  0  0  0  0  0  0  0  0
   24.9164   -8.8521  -15.9222 N   0  0  0  0  0  0  0  0  0  0  0  0
   24.3331   -9.7431  -14.9771 C   0  0  0  0  0  0  0  0  0  0  0  0
   25.0529  -10.4972  -14.2895 O   0  0  0  0  0  0  0  0  0  0  0  0
   22.8336   -9.7147  -14.8675 C   0  0  0  0  0  0  0  0  0  0  0  0
   22.2353   -8.7567  -15.8450 C   0  0  0  0  0  0  0  0  0  0  0  0
   20.7603   -8.6853  -15.7135 C   0  0  2  0  0  0  0  0  0  0  0  0
   20.1060   -9.9255  -16.1101 N   0  0  0  0  0  0  0  0  0  0  0  0
   20.1120   -7.5827  -16.4477 C   0  0  0  0  0  0  0  0  0  0  0  0
   19.8757   -7.5639  -17.6859 O   0  0  0  0  0  0  0  0  0  0  0  0
   17.3501   -5.2436  -14.6768 C   0  0  0  0  0  0  0  0  0  0  0  0
   17.6178   -5.2211  -16.1652 C   0  0  2  0  0  0  0  0  0  0  0  0
   16.9234   -6.3838  -16.8230 C   0  0  0  0  0  0  0  0  0  0  0  0
   19.1202   -5.2665  -16.4457 C   0  0  2  0  0  0  0  0  0  0  0  0
   19.6923   -6.4007  -15.7432 N   0  0  0  0  0  0  0  0  0  0  0  0
   19.6851   -3.9844  -15.8932 C   0  0  0  0  0  0  0  0  0  0  0  0
   19.6572   -2.8121  -16.5861 O   0  0  0  0  0  0  0  0  0  0  0  0
   20.2012   -4.0051  -14.7469 O   0  0  0  0  0  0  0  0  0  0  0  0
  2  1  1  0
  2  3  2  0
  4  2  1  0
  5  7  1  0
  5  4  1  0
  5  6  1  6
  7  8  2  0
  9 10  1  0
 10 11  2  0
 12 10  1  0
 12 13  1  0
 14 13  1  6
 15 14  1  0
 15  7  1  0
 16 17  2  0
 16 14  1  0
 19 18  1  1
 19 21  1  0
 20 19  1  0
 21 22  1  1
 22 16  1  0
 23 21  1  0
 23 24  1  0
 25 23  2  0
M  END
$$$$
