NQV.pdb
     RDKit          3D

 25 24  0  0  1  0  0  0  0  0999 V2000
   28.0861  -17.4118  -18.3514 N   0  0  0  0  0  0  0  0  0  0  0  0
   28.3980  -18.7724  -18.1445 C   0  0  0  0  0  0  0  0  0  0  0  0
   29.4005  -19.2665  -18.7143 O   0  0  0  0  0  0  0  0  0  0  0  0
   27.5428  -19.6048  -17.2599 C   0  0  0  0  0  0  0  0  0  0  0  0
   26.3766  -18.8205  -16.7158 C   0  0  2  0  0  0  0  0  0  0  0  0
   26.7372  -17.6422  -15.9868 N   0  0  0  0  0  0  0  0  0  0  0  0
   25.5277  -19.7404  -15.9083 C   0  0  0  0  0  0  0  0  0  0  0  0
   25.0609  -20.8033  -16.3511 O   0  0  0  0  0  0  0  0  0  0  0  0
   25.6504  -20.0663   -9.7015 N   0  0  0  0  0  0  0  0  0  0  0  0
   24.5430  -20.9230   -9.9604 C   0  0  0  0  0  0  0  0  0  0  0  0
   24.0286  -21.5896   -9.0380 O   0  0  0  0  0  0  0  0  0  0  0  0
   24.0498  -20.9690  -11.3803 C   0  0  0  0  0  0  0  0  0  0  0  0
   24.9128  -20.1484  -12.2821 C   0  0  0  0  0  0  0  0  0  0  0  0
   24.4253  -20.1721  -13.6820 C   0  0  2  0  0  0  0  0  0  0  0  0
   25.2510  -19.3663  -14.5721 N   0  0  0  0  0  0  0  0  0  0  0  0
   23.0236  -19.7541  -13.8713 C   0  0  0  0  0  0  0  0  0  0  0  0
   22.5933  -18.5716  -13.7951 O   0  0  0  0  0  0  0  0  0  0  0  0
   20.8439  -20.6739  -16.8000 C   0  0  0  0  0  0  0  0  0  0  0  0
   20.0622  -21.0644  -15.5655 C   0  0  2  0  0  0  0  0  0  0  0  0
   18.6091  -20.7187  -15.7550 C   0  0  0  0  0  0  0  0  0  0  0  0
   20.6218  -20.3644  -14.3266 C   0  0  2  0  0  0  0  0  0  0  0  0
   22.0161  -20.7366  -14.1697 N   0  0  0  0  0  0  0  0  0  0  0  0
   19.8202  -20.8796  -13.1604 C   0  0  0  0  0  0  0  0  0  0  0  0
   18.8671  -20.1317  -12.5380 O   0  0  0  0  0  0  0  0  0  0  0  0
   20.0456  -22.0468  -12.7509 O   0  0  0  0  0  0  0  0  0  0  0  0
  2  1  1  0
  2  3  2  0
  4  2  1  0
  5  7  1  0
  5  4  1  0
  5  6  1  1
  7  8  2  0
  9 10  1  0
 10 11  2  0
 12 10  1  0
 12 13  1  0
 14 13  1  1
 15 14  1  0
 15  7  1  0
 16 17  2  0
 16 14  1  0
 19 18  1  6
 19 21  1  0
 20 19  1  0
 21 22  1  1
 22 16  1  0
 23 21  1  0
 23 24  1  0
 25 23  2  0
M  END
$$$$
