NQV.pdb
     RDKit          3D

 25 24  0  0  1  0  0  0  0  0999 V2000
   16.8713  -26.0832   -4.2244 N   0  0  0  0  0  0  0  0  0  0  0  0
   16.3988  -26.3955   -2.9320 C   0  0  0  0  0  0  0  0  0  0  0  0
   16.7799  -27.4544   -2.3777 O   0  0  0  0  0  0  0  0  0  0  0  0
   15.4594  -25.4749   -2.2414 C   0  0  0  0  0  0  0  0  0  0  0  0
   15.0590  -24.3227   -3.1265 C   0  0  2  0  0  0  0  0  0  0  0  0
   15.9031  -24.1228   -4.2654 N   0  0  0  0  0  0  0  0  0  0  0  0
   14.9552  -23.0979   -2.2848 C   0  0  0  0  0  0  0  0  0  0  0  0
   15.8120  -22.1981   -2.2809 O   0  0  0  0  0  0  0  0  0  0  0  0
    9.6624  -20.3624   -1.3160 N   0  0  0  0  0  0  0  0  0  0  0  0
   10.6903  -19.5506   -1.8744 C   0  0  0  0  0  0  0  0  0  0  0  0
   10.4034  -18.5260   -2.5282 O   0  0  0  0  0  0  0  0  0  0  0  0
   12.1046  -19.9994   -1.6300 C   0  0  0  0  0  0  0  0  0  0  0  0
   12.1432  -21.2884   -0.8762 C   0  0  0  0  0  0  0  0  0  0  0  0
   13.5314  -21.7711   -0.6817 C   0  0  2  0  0  0  0  0  0  0  0  0
   13.8159  -22.9727   -1.4553 N   0  0  0  0  0  0  0  0  0  0  0  0
   13.9192  -22.0367    0.7163 C   0  0  0  0  0  0  0  0  0  0  0  0
   13.8077  -23.1422    1.3119 O   0  0  0  0  0  0  0  0  0  0  0  0
   17.0292  -20.1017    2.4174 C   0  0  0  0  0  0  0  0  0  0  0  0
   16.3549  -21.3171    3.0138 C   0  0  2  0  0  0  0  0  0  0  0  0
   16.8363  -22.5594    2.3124 C   0  0  0  0  0  0  0  0  0  0  0  0
   14.8341  -21.1983    2.9091 C   0  0  2  0  0  0  0  0  0  0  0  0
   14.4773  -20.9813    1.5189 N   0  0  0  0  0  0  0  0  0  0  0  0
   14.4538  -19.9938    3.7292 C   0  0  0  0  0  0  0  0  0  0  0  0
   14.0760  -18.8126    3.1660 O   0  0  0  0  0  0  0  0  0  0  0  0
   14.4892  -20.0901    4.9823 O   0  0  0  0  0  0  0  0  0  0  0  0
  2  1  1  0
  2  3  2  0
  4  2  1  0
  5  7  1  0
  5  4  1  0
  5  6  1  6
  7  8  2  0
  9 10  1  0
 10 11  2  0
 12 10  1  0
 12 13  1  0
 14 13  1  1
 15 14  1  0
 15  7  1  0
 16 17  2  0
 16 14  1  0
 19 18  1  6
 19 21  1  0
 20 19  1  0
 21 22  1  6
 22 16  1  0
 23 21  1  0
 23 24  1  0
 25 23  2  0
M  END
$$$$
