NQV.pdb
     RDKit          3D

 25 24  0  0  1  0  0  0  0  0999 V2000
   24.3608  -21.2258   -8.3118 N   0  0  0  0  0  0  0  0  0  0  0  0
   23.7012  -21.0438   -9.5459 C   0  0  0  0  0  0  0  0  0  0  0  0
   22.6029  -21.6161   -9.7459 O   0  0  0  0  0  0  0  0  0  0  0  0
   24.3078  -20.1819  -10.5929 C   0  0  0  0  0  0  0  0  0  0  0  0
   24.6219  -20.9633  -11.8427 C   0  0  2  0  0  0  0  0  0  0  0  0
   25.3881  -22.1533  -11.6265 N   0  0  0  0  0  0  0  0  0  0  0  0
   25.2754  -20.0464  -12.8180 C   0  0  0  0  0  0  0  0  0  0  0  0
   26.2371  -19.3151  -12.5284 O   0  0  0  0  0  0  0  0  0  0  0  0
   28.9073  -21.2209  -16.5686 N   0  0  0  0  0  0  0  0  0  0  0  0
   27.8308  -22.1059  -16.2766 C   0  0  0  0  0  0  0  0  0  0  0  0
   27.9720  -23.3398  -16.4070 O   0  0  0  0  0  0  0  0  0  0  0  0
   26.5487  -21.4705  -15.8138 C   0  0  0  0  0  0  0  0  0  0  0  0
   26.7172  -20.0023  -15.5969 C   0  0  0  0  0  0  0  0  0  0  0  0
   25.4365  -19.3486  -15.2357 C   0  0  2  0  0  0  0  0  0  0  0  0
   24.7593  -20.0222  -14.1353 N   0  0  0  0  0  0  0  0  0  0  0  0
   24.4664  -19.2050  -16.3373 C   0  0  0  0  0  0  0  0  0  0  0  0
   23.4630  -19.9427  -16.5329 O   0  0  0  0  0  0  0  0  0  0  0  0
   24.4510  -15.6164  -18.5390 C   0  0  0  0  0  0  0  0  0  0  0  0
   23.2597  -16.5474  -18.4978 C   0  0  2  0  0  0  0  0  0  0  0  0
   22.3886  -16.2044  -17.3187 C   0  0  0  0  0  0  0  0  0  0  0  0
   23.7145  -18.0052  -18.4214 C   0  0  2  0  0  0  0  0  0  0  0  0
   24.6285  -18.1513  -17.3032 N   0  0  0  0  0  0  0  0  0  0  0  0
   24.4373  -18.2834  -19.7130 C   0  0  0  0  0  0  0  0  0  0  0  0
   23.7826  -18.5510  -20.8770 O   0  0  0  0  0  0  0  0  0  0  0  0
   25.6945  -18.2664  -19.7085 O   0  0  0  0  0  0  0  0  0  0  0  0
  2  1  1  0
  2  3  2  0
  4  2  1  0
  5  7  1  0
  5  4  1  0
  5  6  1  1
  7  8  2  0
  9 10  1  0
 10 11  2  0
 12 10  1  0
 12 13  1  0
 14 13  1  6
 15 14  1  0
 15  7  1  0
 16 17  2  0
 16 14  1  0
 19 18  1  1
 19 21  1  0
 20 19  1  0
 21 22  1  1
 22 16  1  0
 23 21  1  0
 23 24  1  0
 25 23  2  0
M  END
$$$$
