NQV.pdb
     RDKit          3D

 25 24  0  0  1  0  0  0  0  0999 V2000
   17.5843  -13.4560  -14.3925 N   0  0  0  0  0  0  0  0  0  0  0  0
   18.1832  -12.3229  -14.9830 C   0  0  0  0  0  0  0  0  0  0  0  0
   19.2405  -12.4612  -15.6440 O   0  0  0  0  0  0  0  0  0  0  0  0
   17.5624  -10.9834  -14.8188 C   0  0  0  0  0  0  0  0  0  0  0  0
   16.3234  -11.0461  -13.9631 C   0  0  2  0  0  0  0  0  0  0  0  0
   15.2786  -11.8745  -14.4844 N   0  0  0  0  0  0  0  0  0  0  0  0
   15.8588   -9.6542  -13.7066 C   0  0  0  0  0  0  0  0  0  0  0  0
   15.0856   -9.0427  -14.4629 O   0  0  0  0  0  0  0  0  0  0  0  0
   15.4501   -7.3416   -7.9750 N   0  0  0  0  0  0  0  0  0  0  0  0
   15.0276   -6.2034   -8.7188 C   0  0  0  0  0  0  0  0  0  0  0  0
   14.5328   -5.2149   -8.1376 O   0  0  0  0  0  0  0  0  0  0  0  0
   15.2124   -6.2717  -10.2096 C   0  0  0  0  0  0  0  0  0  0  0  0
   15.7120   -7.6137  -10.6344 C   0  0  0  0  0  0  0  0  0  0  0  0
   15.8603   -7.7053  -12.1066 C   0  0  2  0  0  0  0  0  0  0  0  0
   16.3339   -9.0143  -12.5375 N   0  0  0  0  0  0  0  0  0  0  0  0
   16.7360   -6.6888  -12.7191 C   0  0  0  0  0  0  0  0  0  0  0  0
   17.9938   -6.7455  -12.7832 O   0  0  0  0  0  0  0  0  0  0  0  0
   16.7842   -5.6343  -16.1863 C   0  0  0  0  0  0  0  0  0  0  0  0
   16.5327   -4.3605  -15.4107 C   0  0  2  0  0  0  0  0  0  0  0  0
   17.2482   -3.2135  -16.0735 C   0  0  0  0  0  0  0  0  0  0  0  0
   16.9911   -4.5107  -13.9597 C   0  0  2  0  0  0  0  0  0  0  0  0
   16.1621   -5.5090  -13.3090 N   0  0  0  0  0  0  0  0  0  0  0  0
   16.7758   -3.1671  -13.3145 C   0  0  0  0  0  0  0  0  0  0  0  0
   17.7785   -2.2581  -13.1609 O   0  0  0  0  0  0  0  0  0  0  0  0
   15.6225   -2.8805  -12.9040 O   0  0  0  0  0  0  0  0  0  0  0  0
  2  1  1  0
  2  3  2  0
  4  2  1  0
  5  7  1  0
  5  4  1  0
  5  6  1  6
  7  8  2  0
  9 10  1  0
 10 11  2  0
 12 10  1  0
 12 13  1  0
 14 13  1  1
 15 14  1  0
 15  7  1  0
 16 17  2  0
 16 14  1  0
 19 18  1  6
 19 21  1  0
 20 19  1  0
 21 22  1  1
 22 16  1  0
 23 21  1  0
 23 24  1  0
 25 23  2  0
M  END
$$$$
