NQV.pdb
     RDKit          3D

 25 24  0  0  1  0  0  0  0  0999 V2000
   25.0419  -19.1869  -15.4309 N   0  0  0  0  0  0  0  0  0  0  0  0
   23.9132  -18.3936  -15.1344 C   0  0  0  0  0  0  0  0  0  0  0  0
   22.9498  -18.9035  -14.5133 O   0  0  0  0  0  0  0  0  0  0  0  0
   23.8733  -16.9700  -15.5573 C   0  0  0  0  0  0  0  0  0  0  0  0
   22.7668  -16.7154  -16.5483 C   0  0  2  0  0  0  0  0  0  0  0  0
   22.8343  -17.5109  -17.7366 N   0  0  0  0  0  0  0  0  0  0  0  0
   22.7346  -15.2573  -16.8519 C   0  0  0  0  0  0  0  0  0  0  0  0
   23.6167  -14.6771  -17.5067 O   0  0  0  0  0  0  0  0  0  0  0  0
   17.4731  -11.8763  -16.6589 N   0  0  0  0  0  0  0  0  0  0  0  0
   18.4166  -10.8301  -16.8648 C   0  0  0  0  0  0  0  0  0  0  0  0
   18.0306   -9.6602  -17.0698 O   0  0  0  0  0  0  0  0  0  0  0  0
   19.8684  -11.2197  -16.8202 C   0  0  0  0  0  0  0  0  0  0  0  0
   20.0302  -12.6945  -16.6466 C   0  0  0  0  0  0  0  0  0  0  0  0
   21.4578  -13.0940  -16.6338 C   0  0  2  0  0  0  0  0  0  0  0  0
   21.6355  -14.5142  -16.3604 N   0  0  0  0  0  0  0  0  0  0  0  0
   22.3158  -12.3469  -15.6952 C   0  0  0  0  0  0  0  0  0  0  0  0
   22.3847  -12.5392  -14.4512 O   0  0  0  0  0  0  0  0  0  0  0  0
   26.0179  -11.8453  -15.8482 C   0  0  0  0  0  0  0  0  0  0  0  0
   25.4133  -10.4593  -15.8191 C   0  0  2  0  0  0  0  0  0  0  0  0
   26.2669   -9.5513  -14.9741 C   0  0  0  0  0  0  0  0  0  0  0  0
   23.9830  -10.5039  -15.2803 C   0  0  2  0  0  0  0  0  0  0  0  0
   23.1682  -11.2960  -16.1836 N   0  0  0  0  0  0  0  0  0  0  0  0
   23.4979   -9.0782  -15.2705 C   0  0  0  0  0  0  0  0  0  0  0  0
   23.6917   -8.2448  -14.2106 O   0  0  0  0  0  0  0  0  0  0  0  0
   22.8909   -8.6477  -16.2839 O   0  0  0  0  0  0  0  0  0  0  0  0
  2  1  1  0
  2  3  2  0
  4  2  1  0
  5  7  1  0
  5  4  1  0
  5  6  1  6
  7  8  2  0
  9 10  1  0
 10 11  2  0
 12 10  1  0
 12 13  1  0
 14 13  1  1
 15 14  1  0
 15  7  1  0
 16 17  2  0
 16 14  1  0
 19 18  1  1
 19 21  1  0
 20 19  1  0
 21 22  1  6
 22 16  1  0
 23 21  1  0
 23 24  1  0
 25 23  2  0
M  END
$$$$
