NQV.pdb
     RDKit          3D

 25 24  0  0  1  0  0  0  0  0999 V2000
   25.2117  -31.6062  -10.1592 N   0  0  0  0  0  0  0  0  0  0  0  0
   24.9046  -32.9833  -10.1816 C   0  0  0  0  0  0  0  0  0  0  0  0
   24.1851  -33.4375  -11.1035 O   0  0  0  0  0  0  0  0  0  0  0  0
   25.4313  -33.8796   -9.1204 C   0  0  0  0  0  0  0  0  0  0  0  0
   26.2515  -33.1213   -8.1087 C   0  0  2  0  0  0  0  0  0  0  0  0
   27.5562  -32.7426   -8.5604 N   0  0  0  0  0  0  0  0  0  0  0  0
   26.3041  -33.9204   -6.8527 C   0  0  0  0  0  0  0  0  0  0  0  0
   25.2978  -34.2021   -6.1806 O   0  0  0  0  0  0  0  0  0  0  0  0
   28.0705  -38.2549   -2.5907 N   0  0  0  0  0  0  0  0  0  0  0  0
   28.6027  -37.8336   -3.8423 C   0  0  0  0  0  0  0  0  0  0  0  0
   28.4699  -38.5462   -4.8593 O   0  0  0  0  0  0  0  0  0  0  0  0
   29.3156  -36.5095   -3.8550 C   0  0  0  0  0  0  0  0  0  0  0  0
   29.1017  -35.7895   -5.1461 C   0  0  0  0  0  0  0  0  0  0  0  0
   27.7608  -35.1603   -5.2100 C   0  0  2  0  0  0  0  0  0  0  0  0
   27.5737  -34.3717   -6.4209 N   0  0  0  0  0  0  0  0  0  0  0  0
   27.4070  -34.3063   -4.0607 C   0  0  0  0  0  0  0  0  0  0  0  0
   27.9516  -33.2079   -3.7669 O   0  0  0  0  0  0  0  0  0  0  0  0
   23.9353  -35.3248   -1.8509 C   0  0  0  0  0  0  0  0  0  0  0  0
   24.4525  -33.9044   -1.9015 C   0  0  2  0  0  0  0  0  0  0  0  0
   23.8183  -33.1746   -3.0556 C   0  0  0  0  0  0  0  0  0  0  0  0
   25.9761  -33.8874   -2.0296 C   0  0  2  0  0  0  0  0  0  0  0  0
   26.3587  -34.7107   -3.1624 N   0  0  0  0  0  0  0  0  0  0  0  0
   26.5070  -34.4907   -0.7559 C   0  0  0  0  0  0  0  0  0  0  0  0
   26.6097  -33.7833    0.4035 O   0  0  0  0  0  0  0  0  0  0  0  0
   26.8679  -35.6950   -0.7715 O   0  0  0  0  0  0  0  0  0  0  0  0
  2  1  1  0
  2  3  2  0
  4  2  1  0
  5  7  1  0
  5  4  1  0
  5  6  1  6
  7  8  2  0
  9 10  1  0
 10 11  2  0
 12 10  1  0
 12 13  1  0
 14 13  1  1
 15 14  1  0
 15  7  1  0
 16 17  2  0
 16 14  1  0
 19 18  1  6
 19 21  1  0
 20 19  1  0
 21 22  1  6
 22 16  1  0
 23 21  1  0
 23 24  1  0
 25 23  2  0
M  END
$$$$
