NQV.pdb
     RDKit          3D

 25 24  0  0  1  0  0  0  0  0999 V2000
   21.9941  -11.4195  -16.5406 N   0  0  0  0  0  0  0  0  0  0  0  0
   22.4005  -10.5708  -15.4891 C   0  0  0  0  0  0  0  0  0  0  0  0
   23.5481  -10.7046  -15.0002 O   0  0  0  0  0  0  0  0  0  0  0  0
   21.4732   -9.5320  -14.9715 C   0  0  0  0  0  0  0  0  0  0  0  0
   20.1440   -9.5703  -15.6808 C   0  0  2  0  0  0  0  0  0  0  0  0
   20.2013   -9.2488  -17.0747 N   0  0  0  0  0  0  0  0  0  0  0  0
   19.1924   -8.6934  -14.9428 C   0  0  0  0  0  0  0  0  0  0  0  0
   19.2480   -7.4525  -14.9681 O   0  0  0  0  0  0  0  0  0  0  0  0
   14.9986  -11.7304  -13.9585 N   0  0  0  0  0  0  0  0  0  0  0  0
   14.6755  -10.7057  -14.8927 C   0  0  0  0  0  0  0  0  0  0  0  0
   14.0213  -10.9710  -15.9229 O   0  0  0  0  0  0  0  0  0  0  0  0
   15.1625   -9.3216  -14.5632 C   0  0  0  0  0  0  0  0  0  0  0  0
   15.9137   -9.3029  -13.2722 C   0  0  0  0  0  0  0  0  0  0  0  0
   17.2038   -8.5830  -13.3964 C   0  0  2  0  0  0  0  0  0  0  0  0
   18.1820   -9.3258  -14.1805 N   0  0  0  0  0  0  0  0  0  0  0  0
   17.8441   -8.2071  -12.1221 C   0  0  0  0  0  0  0  0  0  0  0  0
   18.4643   -8.9901  -11.3529 O   0  0  0  0  0  0  0  0  0  0  0  0
   20.4132   -5.6824  -11.7249 C   0  0  0  0  0  0  0  0  0  0  0  0
   19.3702   -5.2787  -10.7067 C   0  0  2  0  0  0  0  0  0  0  0  0
   20.0465   -4.8282   -9.4392 C   0  0  0  0  0  0  0  0  0  0  0  0
   18.4154   -6.4383  -10.4210 C   0  0  2  0  0  0  0  0  0  0  0  0
   17.7879   -6.8441  -11.6655 N   0  0  0  0  0  0  0  0  0  0  0  0
   17.3752   -5.8971   -9.4760 C   0  0  0  0  0  0  0  0  0  0  0  0
   17.5195   -5.9425   -8.1224 O   0  0  0  0  0  0  0  0  0  0  0  0
   16.3355   -5.3850   -9.9633 O   0  0  0  0  0  0  0  0  0  0  0  0
  2  1  1  0
  2  3  2  0
  4  2  1  0
  5  7  1  0
  5  4  1  0
  5  6  1  6
  7  8  2  0
  9 10  1  0
 10 11  2  0
 12 10  1  0
 12 13  1  0
 14 13  1  1
 15 14  1  0
 15  7  1  0
 16 17  2  0
 16 14  1  0
 19 18  1  6
 19 21  1  0
 20 19  1  0
 21 22  1  6
 22 16  1  0
 23 21  1  0
 23 24  1  0
 25 23  2  0
M  END
$$$$
