NQV.pdb
     RDKit          3D

 25 24  0  0  1  0  0  0  0  0999 V2000
   30.3309  -21.3605  -18.0226 N   0  0  0  0  0  0  0  0  0  0  0  0
   29.0161  -20.8526  -17.9545 C   0  0  0  0  0  0  0  0  0  0  0  0
   28.7310  -19.8004  -18.5753 O   0  0  0  0  0  0  0  0  0  0  0  0
   27.9857  -21.5621  -17.1534 C   0  0  0  0  0  0  0  0  0  0  0  0
   27.2606  -20.6232  -16.2239 C   0  0  2  0  0  0  0  0  0  0  0  0
   28.1128  -19.7679  -15.4545 N   0  0  0  0  0  0  0  0  0  0  0  0
   26.3488  -21.4266  -15.3623 C   0  0  0  0  0  0  0  0  0  0  0  0
   26.7300  -22.3914  -14.6787 O   0  0  0  0  0  0  0  0  0  0  0  0
   25.5890  -20.0727  -10.5205 N   0  0  0  0  0  0  0  0  0  0  0  0
   25.5706  -21.4851  -10.6995 C   0  0  0  0  0  0  0  0  0  0  0  0
   25.9810  -22.2435   -9.7962 O   0  0  0  0  0  0  0  0  0  0  0  0
   25.0384  -21.9863  -12.0137 C   0  0  0  0  0  0  0  0  0  0  0  0
   24.6757  -20.8557  -12.9199 C   0  0  0  0  0  0  0  0  0  0  0  0
   24.1112  -21.3380  -14.2031 C   0  0  2  0  0  0  0  0  0  0  0  0
   24.9836  -21.0555  -15.3356 N   0  0  0  0  0  0  0  0  0  0  0  0
   22.7678  -20.8280  -14.5351 C   0  0  0  0  0  0  0  0  0  0  0  0
   22.4452  -19.6126  -14.6250 O   0  0  0  0  0  0  0  0  0  0  0  0
   18.3920  -21.7929  -16.5996 C   0  0  0  0  0  0  0  0  0  0  0  0
   19.8060  -22.1934  -16.2423 C   0  0  2  0  0  0  0  0  0  0  0  0
   19.8279  -23.6303  -15.7932 C   0  0  0  0  0  0  0  0  0  0  0  0
   20.3669  -21.2825  -15.1499 C   0  0  2  0  0  0  0  0  0  0  0  0
   21.6926  -21.7498  -14.7871 N   0  0  0  0  0  0  0  0  0  0  0  0
   19.4359  -21.4212  -13.9743 C   0  0  0  0  0  0  0  0  0  0  0  0
   19.6676  -22.2934  -12.9541 O   0  0  0  0  0  0  0  0  0  0  0  0
   18.4063  -20.7004  -13.9406 O   0  0  0  0  0  0  0  0  0  0  0  0
  2  1  1  0
  2  3  2  0
  4  2  1  0
  5  7  1  0
  5  4  1  0
  5  6  1  1
  7  8  2  0
  9 10  1  0
 10 11  2  0
 12 10  1  0
 12 13  1  0
 14 13  1  1
 15 14  1  0
 15  7  1  0
 16 17  2  0
 16 14  1  0
 19 18  1  1
 19 21  1  0
 20 19  1  0
 21 22  1  1
 22 16  1  0
 23 21  1  0
 23 24  1  0
 25 23  2  0
M  END
$$$$
