WTW.pdb
     RDKit          3D

 36 39  0  0  1  0  0  0  0  0999 V2000
    7.9361  -17.4364   20.0627 N   0  0  0  0  0  0  0  0  0  0  0  0
    8.4385  -16.6632   21.1603 C   0  0  1  0  0  0  0  0  0  0  0  0
    7.5953  -15.5031   21.5827 C   0  0  0  0  0  0  0  0  0  0  0  0
    7.4659  -14.4219   20.5850 C   0  0  0  0  0  0  0  0  0  0  0  0
    6.2653  -14.0147   19.9674 C   0  0  0  0  0  0  0  0  0  0  0  0
    6.5299  -13.0123   19.1231 N   0  0  0  0  0  0  0  0  0  0  0  0
    7.8569  -12.7472   19.1651 C   0  0  0  0  0  0  0  0  0  0  0  0
    8.6355  -11.8131   18.4768 C   0  0  0  0  0  0  0  0  0  0  0  0
    9.9929  -11.7278   18.6686 C   0  0  0  0  0  0  0  0  0  0  0  0
   10.5764  -12.5944   19.5653 C   0  0  0  0  0  0  0  0  0  0  0  0
    9.8112  -13.5210   20.2500 C   0  0  0  0  0  0  0  0  0  0  0  0
    8.4344  -13.6080   20.0587 C   0  0  0  0  0  0  0  0  0  0  0  0
    8.7203  -17.5623   22.3386 C   0  0  0  0  0  0  0  0  0  0  0  0
    7.8597  -18.3705   22.7927 O   0  0  0  0  0  0  0  0  0  0  0  0
   10.8650  -20.4148   23.1479 C   0  0  0  0  0  0  0  0  0  0  0  0
   11.2847  -19.3391   24.0839 C   0  0  1  0  0  0  0  0  0  0  0  0
   12.5487  -18.8553   23.7731 O   0  0  0  0  0  0  0  0  0  0  0  0
   10.3552  -18.1741   24.2104 C   0  0  2  0  0  0  0  0  0  0  0  0
    9.9712  -17.5431   22.9898 N   0  0  0  0  0  0  0  0  0  0  0  0
   10.7160  -17.2263   25.3063 C   0  0  0  0  0  0  0  0  0  0  0  0
   11.4199  -16.2215   25.0513 O   0  0  0  0  0  0  0  0  0  0  0  0
   10.3124  -17.3966   26.6478 N   0  0  0  0  0  0  0  0  0  0  0  0
   10.8390  -16.5296   27.6980 C   0  0  1  0  0  0  0  0  0  0  0  0
   10.3527  -15.1488   27.6921 C   0  0  0  0  0  0  0  0  0  0  0  0
    9.0352  -14.9186   27.0389 C   0  0  0  0  0  0  0  0  0  0  0  0
    8.1147  -15.9617   26.8229 C   0  0  0  0  0  0  0  0  0  0  0  0
    7.0484  -15.4222   26.2281 N   0  0  0  0  0  0  0  0  0  0  0  0
    7.1982  -14.1030   26.0363 C   0  0  0  0  0  0  0  0  0  0  0  0
    6.4048  -13.1088   25.4784 C   0  0  0  0  0  0  0  0  0  0  0  0
    6.8984  -11.8222   25.4552 C   0  0  0  0  0  0  0  0  0  0  0  0
    8.1408  -11.4810   25.9568 C   0  0  0  0  0  0  0  0  0  0  0  0
    8.9175  -12.4741   26.5052 C   0  0  0  0  0  0  0  0  0  0  0  0
    8.4398  -13.7904   26.5442 C   0  0  0  0  0  0  0  0  0  0  0  0
   10.3921  -17.1610   29.0372 C   0  0  0  0  0  0  0  0  0  0  0  0
   10.7080  -16.6587   30.1329 O   0  0  0  0  0  0  0  0  0  0  0  0
    9.6245  -18.3138   28.9691 O   0  0  0  0  0  0  0  0  0  0  0  0
  2  1  1  6
  3  2  1  0
  3  4  1  0
  4 12  1  0
  5  4  2  0
  5  6  1  0
  6  7  1  0
  7  8  1  0
  8  9  2  0
 10  9  1  0
 11 10  2  0
 12  7  2  0
 12 11  1  0
 13  2  1  0
 14 13  2  0
 16 15  1  6
 16 17  1  0
 18 19  1  6
 18 16  1  0
 19 13  1  0
 20 21  2  0
 20 18  1  0
 22 20  1  0
 23 24  1  6
 23 22  1  0
 24 25  1  0
 25 26  2  0
 26 27  1  0
 28 27  1  0
 29 28  2  0
 30 29  1  0
 31 32  1  0
 31 30  2  0
 32 33  2  0
 33 25  1  0
 33 28  1  0
 34 36  1  0
 34 23  1  0
 35 34  2  0
M  END
$$$$
