WTW.pdb
     RDKit          3D

 36 39  0  0  1  0  0  0  0  0999 V2000
    8.4702  -17.5894   19.7880 N   0  0  0  0  0  0  0  0  0  0  0  0
    8.7369  -16.7831   20.9429 C   0  0  1  0  0  0  0  0  0  0  0  0
    7.6725  -15.8012   21.3145 C   0  0  0  0  0  0  0  0  0  0  0  0
    7.4107  -14.7469   20.3140 C   0  0  0  0  0  0  0  0  0  0  0  0
    6.2281  -14.6081   19.5585 C   0  0  0  0  0  0  0  0  0  0  0  0
    6.3474  -13.5444   18.7573 N   0  0  0  0  0  0  0  0  0  0  0  0
    7.5618  -12.9813   18.9600 C   0  0  0  0  0  0  0  0  0  0  0  0
    8.1751  -11.8703   18.3752 C   0  0  0  0  0  0  0  0  0  0  0  0
    9.4435  -11.4799   18.7293 C   0  0  0  0  0  0  0  0  0  0  0  0
   10.1052  -12.2173   19.6853 C   0  0  0  0  0  0  0  0  0  0  0  0
    9.5035  -13.3177   20.2683 C   0  0  0  0  0  0  0  0  0  0  0  0
    8.2168  -13.7142   19.9123 C   0  0  0  0  0  0  0  0  0  0  0  0
    9.0711  -17.6641   22.1211 C   0  0  0  0  0  0  0  0  0  0  0  0
    8.2446  -18.4926   22.6012 O   0  0  0  0  0  0  0  0  0  0  0  0
   11.4401  -20.4199   22.9431 C   0  0  0  0  0  0  0  0  0  0  0  0
   11.7864  -19.2879   23.8421 C   0  0  1  0  0  0  0  0  0  0  0  0
   12.9957  -18.7049   23.4872 O   0  0  0  0  0  0  0  0  0  0  0  0
   10.7623  -18.2048   23.9647 C   0  0  2  0  0  0  0  0  0  0  0  0
   10.3356  -17.6041   22.7429 N   0  0  0  0  0  0  0  0  0  0  0  0
   11.0350  -17.2338   25.0657 C   0  0  0  0  0  0  0  0  0  0  0  0
   11.7385  -16.2216   24.8405 O   0  0  0  0  0  0  0  0  0  0  0  0
   10.5462  -17.3892   26.3804 N   0  0  0  0  0  0  0  0  0  0  0  0
   10.9397  -16.4586   27.4344 C   0  0  1  0  0  0  0  0  0  0  0  0
   10.3717  -15.1123   27.3447 C   0  0  0  0  0  0  0  0  0  0  0  0
    8.9309  -15.0297   26.9802 C   0  0  0  0  0  0  0  0  0  0  0  0
    8.1132  -16.1727   26.8978 C   0  0  0  0  0  0  0  0  0  0  0  0
    6.8927  -15.7535   26.5565 N   0  0  0  0  0  0  0  0  0  0  0  0
    6.8460  -14.4212   26.4080 C   0  0  0  0  0  0  0  0  0  0  0  0
    5.8455  -13.5181   26.0722 C   0  0  0  0  0  0  0  0  0  0  0  0
    6.1713  -12.1800   26.0183 C   0  0  0  0  0  0  0  0  0  0  0  0
    7.4417  -11.7012   26.2793 C   0  0  0  0  0  0  0  0  0  0  0  0
    8.4239  -12.6049   26.6092 C   0  0  0  0  0  0  0  0  0  0  0  0
    8.1203  -13.9709   26.6738 C   0  0  0  0  0  0  0  0  0  0  0  0
   10.4346  -17.0756   28.7595 C   0  0  0  0  0  0  0  0  0  0  0  0
   10.5772  -16.4880   29.8490 O   0  0  0  0  0  0  0  0  0  0  0  0
    9.8158  -18.3143   28.6862 O   0  0  0  0  0  0  0  0  0  0  0  0
  2  1  1  6
  3  2  1  0
  3  4  1  0
  4 12  1  0
  5  4  2  0
  5  6  1  0
  6  7  1  0
  7  8  1  0
  8  9  2  0
 10  9  1  0
 11 10  2  0
 12  7  2  0
 12 11  1  0
 13  2  1  0
 14 13  2  0
 16 15  1  6
 16 17  1  0
 18 19  1  6
 18 16  1  0
 19 13  1  0
 20 21  2  0
 20 18  1  0
 22 20  1  0
 23 24  1  6
 23 22  1  0
 24 25  1  0
 25 26  2  0
 26 27  1  0
 28 27  1  0
 29 28  2  0
 30 29  1  0
 31 32  1  0
 31 30  2  0
 32 33  2  0
 33 25  1  0
 33 28  1  0
 34 36  1  0
 34 23  1  0
 35 34  2  0
M  END
$$$$
