WTW.pdb
     RDKit          3D

 36 39  0  0  1  0  0  0  0  0999 V2000
   10.1435  -19.5630   20.2832 N   0  0  0  0  0  0  0  0  0  0  0  0
   10.7237  -18.4655   19.5664 C   0  0  1  0  0  0  0  0  0  0  0  0
   10.6238  -18.5322   18.0763 C   0  0  0  0  0  0  0  0  0  0  0  0
   11.1297  -19.7783   17.4659 C   0  0  0  0  0  0  0  0  0  0  0  0
   10.3357  -20.7880   16.8839 C   0  0  0  0  0  0  0  0  0  0  0  0
   11.1334  -21.7629   16.4357 N   0  0  0  0  0  0  0  0  0  0  0  0
   12.4185  -21.4297   16.7010 C   0  0  0  0  0  0  0  0  0  0  0  0
   13.6183  -22.1008   16.4507 C   0  0  0  0  0  0  0  0  0  0  0  0
   14.8294  -21.5728   16.8267 C   0  0  0  0  0  0  0  0  0  0  0  0
   14.8344  -20.3524   17.4639 C   0  0  0  0  0  0  0  0  0  0  0  0
   13.6503  -19.6829   17.7142 C   0  0  0  0  0  0  0  0  0  0  0  0
   12.4214  -20.2153   17.3321 C   0  0  0  0  0  0  0  0  0  0  0  0
   10.1565  -17.1619   20.0716 C   0  0  0  0  0  0  0  0  0  0  0  0
   10.4083  -16.0546   19.5145 O   0  0  0  0  0  0  0  0  0  0  0  0
    7.1160  -14.1905   22.2514 C   0  0  0  0  0  0  0  0  0  0  0  0
    7.4899  -15.4978   21.6509 C   0  0  1  0  0  0  0  0  0  0  0  0
    7.3170  -15.4956   20.2731 O   0  0  0  0  0  0  0  0  0  0  0  0
    8.8702  -15.9907   21.9490 C   0  0  2  0  0  0  0  0  0  0  0  0
    9.3080  -17.1217   21.1974 N   0  0  0  0  0  0  0  0  0  0  0  0
    9.1883  -16.0595   23.4063 C   0  0  0  0  0  0  0  0  0  0  0  0
    8.3173  -16.4590   24.2136 O   0  0  0  0  0  0  0  0  0  0  0  0
   10.4361  -15.6864   23.9497 N   0  0  0  0  0  0  0  0  0  0  0  0
   10.6534  -15.7052   25.3934 C   0  0  1  0  0  0  0  0  0  0  0  0
   10.0709  -14.5909   26.1431 C   0  0  0  0  0  0  0  0  0  0  0  0
    8.5871  -14.4785   26.1068 C   0  0  0  0  0  0  0  0  0  0  0  0
    7.7590  -15.5867   25.8461 C   0  0  0  0  0  0  0  0  0  0  0  0
    6.4987  -15.1488   25.8896 N   0  0  0  0  0  0  0  0  0  0  0  0
    6.4354  -13.8363   26.1590 C   0  0  0  0  0  0  0  0  0  0  0  0
    5.3963  -12.9271   26.3099 C   0  0  0  0  0  0  0  0  0  0  0  0
    5.7169  -11.6178   26.5971 C   0  0  0  0  0  0  0  0  0  0  0  0
    7.0183  -11.1727   26.7380 C   0  0  0  0  0  0  0  0  0  0  0  0
    8.0383  -12.0817   26.5849 C   0  0  0  0  0  0  0  0  0  0  0  0
    7.7413  -13.4196   26.2950 C   0  0  0  0  0  0  0  0  0  0  0  0
    9.9811  -16.9986   25.9097 C   0  0  0  0  0  0  0  0  0  0  0  0
    9.5939  -17.1067   27.0891 O   0  0  0  0  0  0  0  0  0  0  0  0
    9.8275  -18.0377   25.0044 O   0  0  0  0  0  0  0  0  0  0  0  0
  2  1  1  1
  3  2  1  0
  3  4  1  0
  4 12  1  0
  5  4  2  0
  5  6  1  0
  6  7  1  0
  7  8  1  0
  8  9  2  0
 10  9  1  0
 11 10  2  0
 12  7  2  0
 12 11  1  0
 13  2  1  0
 14 13  2  0
 16 15  1  6
 16 17  1  0
 18 19  1  1
 18 16  1  0
 19 13  1  0
 20 21  2  0
 20 18  1  0
 22 20  1  0
 23 24  1  1
 23 22  1  0
 24 25  1  0
 25 26  2  0
 26 27  1  0
 28 27  1  0
 29 28  2  0
 30 29  1  0
 31 32  1  0
 31 30  2  0
 32 33  2  0
 33 25  1  0
 33 28  1  0
 34 36  1  0
 34 23  1  0
 35 34  2  0
M  END
$$$$
