WTW.pdb
     RDKit          3D

 36 39  0  0  1  0  0  0  0  0999 V2000
    7.3041  -17.3676   20.9265 N   0  0  0  0  0  0  0  0  0  0  0  0
    8.2437  -16.6094   21.6993 C   0  0  1  0  0  0  0  0  0  0  0  0
    7.7898  -15.2523   22.1321 C   0  0  0  0  0  0  0  0  0  0  0  0
    7.4235  -14.3315   21.0371 C   0  0  0  0  0  0  0  0  0  0  0  0
    6.1119  -14.0667   20.5918 C   0  0  0  0  0  0  0  0  0  0  0  0
    6.1642  -13.1856   19.5875 N   0  0  0  0  0  0  0  0  0  0  0  0
    7.4590  -12.8630   19.3590 C   0  0  0  0  0  0  0  0  0  0  0  0
    8.0476  -12.0059   18.4255 C   0  0  0  0  0  0  0  0  0  0  0  0
    9.4094  -11.8382   18.3618 C   0  0  0  0  0  0  0  0  0  0  0  0
   10.1911  -12.5427   19.2497 C   0  0  0  0  0  0  0  0  0  0  0  0
    9.6147  -13.3923   20.1764 C   0  0  0  0  0  0  0  0  0  0  0  0
    8.2341  -13.5623   20.2441 C   0  0  0  0  0  0  0  0  0  0  0  0
    8.6995  -17.4140   22.8914 C   0  0  0  0  0  0  0  0  0  0  0  0
    7.8880  -18.0302   23.6409 O   0  0  0  0  0  0  0  0  0  0  0  0
   11.6440  -20.1139   23.2001 C   0  0  0  0  0  0  0  0  0  0  0  0
   11.8508  -18.9779   24.1361 C   0  0  1  0  0  0  0  0  0  0  0  0
   12.9123  -18.1754   23.7393 O   0  0  0  0  0  0  0  0  0  0  0  0
   10.6652  -18.0994   24.3805 C   0  0  2  0  0  0  0  0  0  0  0  0
   10.0663  -17.5183   23.2232 N   0  0  0  0  0  0  0  0  0  0  0  0
   10.8348  -17.1560   25.5253 C   0  0  0  0  0  0  0  0  0  0  0  0
   11.3485  -16.0297   25.3306 O   0  0  0  0  0  0  0  0  0  0  0  0
   10.4519  -17.4604   26.8490 N   0  0  0  0  0  0  0  0  0  0  0  0
   10.8708  -16.6085   27.9583 C   0  0  1  0  0  0  0  0  0  0  0  0
    9.8180  -15.8039   28.5807 C   0  0  0  0  0  0  0  0  0  0  0  0
    8.5775  -15.6122   27.7807 C   0  0  0  0  0  0  0  0  0  0  0  0
    7.7254  -16.6839   27.4530 C   0  0  0  0  0  0  0  0  0  0  0  0
    6.7167  -16.1749   26.7419 N   0  0  0  0  0  0  0  0  0  0  0  0
    6.8412  -14.8496   26.5770 C   0  0  0  0  0  0  0  0  0  0  0  0
    6.0833  -13.8773   25.9371 C   0  0  0  0  0  0  0  0  0  0  0  0
    6.5309  -12.5745   25.9792 C   0  0  0  0  0  0  0  0  0  0  0  0
    7.6942  -12.1963   26.6236 C   0  0  0  0  0  0  0  0  0  0  0  0
    8.4366  -13.1678   27.2521 C   0  0  0  0  0  0  0  0  0  0  0  0
    8.0041  -14.4999   27.2273 C   0  0  0  0  0  0  0  0  0  0  0  0
   11.4150  -17.5622   29.0474 C   0  0  0  0  0  0  0  0  0  0  0  0
   11.3558  -18.8003   28.9194 O   0  0  0  0  0  0  0  0  0  0  0  0
   11.9721  -16.9819   30.1768 O   0  0  0  0  0  0  0  0  0  0  0  0
  2  1  1  1
  3  2  1  0
  3  4  1  0
  4 12  1  0
  5  4  2  0
  5  6  1  0
  6  7  1  0
  7  8  1  0
  8  9  2  0
 10  9  1  0
 11 10  2  0
 12  7  2  0
 12 11  1  0
 13  2  1  0
 14 13  2  0
 16 15  1  6
 16 17  1  0
 18 19  1  6
 18 16  1  0
 19 13  1  0
 20 21  2  0
 20 18  1  0
 22 20  1  0
 23 24  1  1
 23 22  1  0
 24 25  1  0
 25 26  2  0
 26 27  1  0
 28 27  1  0
 29 28  2  0
 30 29  1  0
 31 32  1  0
 31 30  2  0
 32 33  2  0
 33 25  1  0
 33 28  1  0
 34 36  1  0
 34 23  1  0
 35 34  2  0
M  END
$$$$
