WTW.pdb
     RDKit          3D

 36 39  0  0  1  0  0  0  0  0999 V2000
    7.4147  -19.8470   18.9426 N   0  0  0  0  0  0  0  0  0  0  0  0
    7.4003  -19.4064   20.3066 C   0  0  1  0  0  0  0  0  0  0  0  0
    7.6362  -20.4632   21.3374 C   0  0  0  0  0  0  0  0  0  0  0  0
    7.2844  -20.0840   22.7208 C   0  0  0  0  0  0  0  0  0  0  0  0
    5.9784  -20.0297   23.2498 C   0  0  0  0  0  0  0  0  0  0  0  0
    6.0441  -19.6484   24.5296 N   0  0  0  0  0  0  0  0  0  0  0  0
    7.3425  -19.4520   24.8587 C   0  0  0  0  0  0  0  0  0  0  0  0
    7.9423  -19.0443   26.0531 C   0  0  0  0  0  0  0  0  0  0  0  0
    9.3035  -18.8947   26.1596 C   0  0  0  0  0  0  0  0  0  0  0  0
   10.0732  -19.1586   25.0490 C   0  0  0  0  0  0  0  0  0  0  0  0
    9.4858  -19.5629   23.8639 C   0  0  0  0  0  0  0  0  0  0  0  0
    8.1060  -19.7173   23.7542 C   0  0  0  0  0  0  0  0  0  0  0  0
    8.3732  -18.2682   20.4914 C   0  0  0  0  0  0  0  0  0  0  0  0
    9.6029  -18.3793   20.2171 O   0  0  0  0  0  0  0  0  0  0  0  0
    7.3667  -14.4807   19.3040 C   0  0  0  0  0  0  0  0  0  0  0  0
    7.8959  -14.5533   20.6912 C   0  0  1  0  0  0  0  0  0  0  0  0
    6.8874  -14.3918   21.6321 O   0  0  0  0  0  0  0  0  0  0  0  0
    8.6687  -15.7855   21.0395 C   0  0  2  0  0  0  0  0  0  0  0  0
    7.9478  -17.0154   20.9801 N   0  0  0  0  0  0  0  0  0  0  0  0
    9.5349  -15.6375   22.2467 C   0  0  0  0  0  0  0  0  0  0  0  0
   10.5460  -14.8990   22.1983 O   0  0  0  0  0  0  0  0  0  0  0  0
    9.2878  -16.2987   23.4687 N   0  0  0  0  0  0  0  0  0  0  0  0
   10.1466  -16.0662   24.6263 C   0  0  1  0  0  0  0  0  0  0  0  0
    9.8061  -14.9077   25.4539 C   0  0  0  0  0  0  0  0  0  0  0  0
    8.3549  -14.6623   25.6761 C   0  0  0  0  0  0  0  0  0  0  0  0
    7.4062  -15.7017   25.6401 C   0  0  0  0  0  0  0  0  0  0  0  0
    6.2149  -15.1490   25.8795 N   0  0  0  0  0  0  0  0  0  0  0  0
    6.3085  -13.8245   26.0699 C   0  0  0  0  0  0  0  0  0  0  0  0
    5.3917  -12.8179   26.3446 C   0  0  0  0  0  0  0  0  0  0  0  0
    5.8644  -11.5308   26.4842 C   0  0  0  0  0  0  0  0  0  0  0  0
    7.2011  -11.2000   26.3611 C   0  0  0  0  0  0  0  0  0  0  0  0
    8.0988  -12.2047   26.0877 C   0  0  0  0  0  0  0  0  0  0  0  0
    7.6464  -13.5226   25.9431 C   0  0  0  0  0  0  0  0  0  0  0  0
   10.0050  -17.3193   25.5217 C   0  0  0  0  0  0  0  0  0  0  0  0
    9.1216  -18.1731   25.3141 O   0  0  0  0  0  0  0  0  0  0  0  0
   10.9030  -17.4538   26.5696 O   0  0  0  0  0  0  0  0  0  0  0  0
  2  1  1  6
  3  2  1  0
  3  4  1  0
  4 12  1  0
  5  4  2  0
  5  6  1  0
  6  7  1  0
  7  8  1  0
  8  9  2  0
 10  9  1  0
 11 10  2  0
 12  7  2  0
 12 11  1  0
 13  2  1  0
 14 13  2  0
 16 15  1  6
 16 17  1  0
 18 19  1  1
 18 16  1  0
 19 13  1  0
 20 21  2  0
 20 18  1  0
 22 20  1  0
 23 24  1  1
 23 22  1  0
 24 25  1  0
 25 26  2  0
 26 27  1  0
 28 27  1  0
 29 28  2  0
 30 29  1  0
 31 32  1  0
 31 30  2  0
 32 33  2  0
 33 25  1  0
 33 28  1  0
 34 36  1  0
 34 23  1  0
 35 34  2  0
M  END
$$$$
