WTW.pdb
     RDKit          3D

 36 39  0  0  1  0  0  0  0  0999 V2000
    6.5767  -21.0904   25.6368 N   0  0  0  0  0  0  0  0  0  0  0  0
    7.1637  -19.7962   25.4489 C   0  0  1  0  0  0  0  0  0  0  0  0
    8.5399  -19.6157   26.0044 C   0  0  0  0  0  0  0  0  0  0  0  0
    8.6093  -18.9079   27.2987 C   0  0  0  0  0  0  0  0  0  0  0  0
    8.2491  -19.4490   28.5502 C   0  0  0  0  0  0  0  0  0  0  0  0
    8.4423  -18.5231   29.4951 N   0  0  0  0  0  0  0  0  0  0  0  0
    8.9157  -17.3974   28.9106 C   0  0  0  0  0  0  0  0  0  0  0  0
    9.2652  -16.1546   29.4452 C   0  0  0  0  0  0  0  0  0  0  0  0
    9.7180  -15.1310   28.6489 C   0  0  0  0  0  0  0  0  0  0  0  0
    9.8207  -15.3601   27.2952 C   0  0  0  0  0  0  0  0  0  0  0  0
    9.4768  -16.5881   26.7599 C   0  0  0  0  0  0  0  0  0  0  0  0
    9.0195  -17.6281   27.5655 C   0  0  0  0  0  0  0  0  0  0  0  0
    7.1361  -19.4244   23.9870 C   0  0  0  0  0  0  0  0  0  0  0  0
    7.5086  -20.2231   23.0797 O   0  0  0  0  0  0  0  0  0  0  0  0
    5.2080  -17.3985   21.1070 C   0  0  0  0  0  0  0  0  0  0  0  0
    6.2879  -16.5682   21.7019 C   0  0  1  0  0  0  0  0  0  0  0  0
    5.7732  -15.4837   22.3999 O   0  0  0  0  0  0  0  0  0  0  0  0
    7.2552  -17.2818   22.5920 C   0  0  2  0  0  0  0  0  0  0  0  0
    6.6848  -18.1570   23.5637 N   0  0  0  0  0  0  0  0  0  0  0  0
    8.3530  -16.4146   23.1137 C   0  0  0  0  0  0  0  0  0  0  0  0
    8.3865  -16.1209   24.3314 O   0  0  0  0  0  0  0  0  0  0  0  0
    9.3782  -15.8830   22.3026 N   0  0  0  0  0  0  0  0  0  0  0  0
   10.4331  -15.0578   22.8838 C   0  0  1  0  0  0  0  0  0  0  0  0
   10.0030  -13.7859   23.4671 C   0  0  0  0  0  0  0  0  0  0  0  0
    8.9149  -13.8618   24.4800 C   0  0  0  0  0  0  0  0  0  0  0  0
    8.7445  -14.9843   25.3123 C   0  0  0  0  0  0  0  0  0  0  0  0
    7.6947  -14.7305   26.0969 N   0  0  0  0  0  0  0  0  0  0  0  0
    7.1617  -13.5260   25.8433 C   0  0  0  0  0  0  0  0  0  0  0  0
    6.0930  -12.8096   26.3665 C   0  0  0  0  0  0  0  0  0  0  0  0
    5.8337  -11.5597   25.8468 C   0  0  0  0  0  0  0  0  0  0  0  0
    6.5837  -10.9932   24.8329 C   0  0  0  0  0  0  0  0  0  0  0  0
    7.6381  -11.7125   24.3221 C   0  0  0  0  0  0  0  0  0  0  0  0
    7.9260  -12.9846   24.8332 C   0  0  0  0  0  0  0  0  0  0  0  0
   11.0488  -15.8956   24.0288 C   0  0  0  0  0  0  0  0  0  0  0  0
   10.7889  -17.1068   24.1637 O   0  0  0  0  0  0  0  0  0  0  0  0
   11.9034  -15.2418   24.9033 O   0  0  0  0  0  0  0  0  0  0  0  0
  2  1  1  6
  3  2  1  0
  3  4  1  0
  4 12  1  0
  5  4  2  0
  5  6  1  0
  6  7  1  0
  7  8  1  0
  8  9  2  0
 10  9  1  0
 11 10  2  0
 12  7  2  0
 12 11  1  0
 13  2  1  0
 14 13  2  0
 16 15  1  1
 16 17  1  0
 18 19  1  1
 18 16  1  0
 19 13  1  0
 20 21  2  0
 20 18  1  0
 22 20  1  0
 23 24  1  1
 23 22  1  0
 24 25  1  0
 25 26  2  0
 26 27  1  0
 28 27  1  0
 29 28  2  0
 30 29  1  0
 31 32  1  0
 31 30  2  0
 32 33  2  0
 33 25  1  0
 33 28  1  0
 34 36  1  0
 34 23  1  0
 35 34  2  0
M  END
$$$$
