WTW.pdb
     RDKit          3D

 36 39  0  0  1  0  0  0  0  0999 V2000
    6.9018  -18.3839   21.5499 N   0  0  0  0  0  0  0  0  0  0  0  0
    7.7611  -17.2926   21.9040 C   0  0  1  0  0  0  0  0  0  0  0  0
    7.0772  -16.0175   22.2799 C   0  0  0  0  0  0  0  0  0  0  0  0
    6.8000  -15.0968   21.1588 C   0  0  0  0  0  0  0  0  0  0  0  0
    5.6152  -15.0677   20.3948 C   0  0  0  0  0  0  0  0  0  0  0  0
    5.7190  -14.1081   19.4695 N   0  0  0  0  0  0  0  0  0  0  0  0
    6.9255  -13.5078   19.5991 C   0  0  0  0  0  0  0  0  0  0  0  0
    7.5229  -12.4681   18.8817 C   0  0  0  0  0  0  0  0  0  0  0  0
    8.7859  -12.0199   19.1826 C   0  0  0  0  0  0  0  0  0  0  0  0
    9.4585  -12.6259   20.2199 C   0  0  0  0  0  0  0  0  0  0  0  0
    8.8726  -13.6551   20.9342 C   0  0  0  0  0  0  0  0  0  0  0  0
    7.5913  -14.1099   20.6323 C   0  0  0  0  0  0  0  0  0  0  0  0
    8.7124  -17.7180   22.9951 C   0  0  0  0  0  0  0  0  0  0  0  0
    8.3708  -18.5142   23.9167 O   0  0  0  0  0  0  0  0  0  0  0  0
   12.3202  -19.0663   22.2612 C   0  0  0  0  0  0  0  0  0  0  0  0
   12.3902  -17.9928   23.2870 C   0  0  1  0  0  0  0  0  0  0  0  0
   12.9909  -16.8454   22.7861 O   0  0  0  0  0  0  0  0  0  0  0  0
   11.0944  -17.6031   23.9244 C   0  0  2  0  0  0  0  0  0  0  0  0
   10.0401  -17.2439   23.0327 N   0  0  0  0  0  0  0  0  0  0  0  0
   11.2453  -16.6923   25.0979 C   0  0  0  0  0  0  0  0  0  0  0  0
   11.7673  -15.5635   24.9444 O   0  0  0  0  0  0  0  0  0  0  0  0
   10.8351  -17.0312   26.4049 N   0  0  0  0  0  0  0  0  0  0  0  0
   11.1946  -16.1853   27.5394 C   0  0  1  0  0  0  0  0  0  0  0  0
   10.3469  -15.0118   27.7570 C   0  0  0  0  0  0  0  0  0  0  0  0
    8.9552  -15.1006   27.2366 C   0  0  0  0  0  0  0  0  0  0  0  0
    8.2790  -16.3293   27.1144 C   0  0  0  0  0  0  0  0  0  0  0  0
    7.0662  -16.0586   26.6267 N   0  0  0  0  0  0  0  0  0  0  0  0
    6.8938  -14.7447   26.4187 C   0  0  0  0  0  0  0  0  0  0  0  0
    5.8459  -13.9687   25.9400 C   0  0  0  0  0  0  0  0  0  0  0  0
    6.0303  -12.6049   25.8659 C   0  0  0  0  0  0  0  0  0  0  0  0
    7.2051  -11.9804   26.2419 C   0  0  0  0  0  0  0  0  0  0  0  0
    8.2356  -12.7592   26.7127 C   0  0  0  0  0  0  0  0  0  0  0  0
    8.0749  -14.1479   26.8010 C   0  0  0  0  0  0  0  0  0  0  0  0
   11.0636  -17.0775   28.7958 C   0  0  0  0  0  0  0  0  0  0  0  0
   11.3115  -16.6396   29.9358 O   0  0  0  0  0  0  0  0  0  0  0  0
   10.6594  -18.3896   28.6018 O   0  0  0  0  0  0  0  0  0  0  0  0
  2  1  1  1
  3  2  1  0
  3  4  1  0
  4 12  1  0
  5  4  2  0
  5  6  1  0
  6  7  1  0
  7  8  1  0
  8  9  2  0
 10  9  1  0
 11 10  2  0
 12  7  2  0
 12 11  1  0
 13  2  1  0
 14 13  2  0
 16 15  1  6
 16 17  1  0
 18 19  1  6
 18 16  1  0
 19 13  1  0
 20 21  2  0
 20 18  1  0
 22 20  1  0
 23 24  1  1
 23 22  1  0
 24 25  1  0
 25 26  2  0
 26 27  1  0
 28 27  1  0
 29 28  2  0
 30 29  1  0
 31 32  1  0
 31 30  2  0
 32 33  2  0
 33 25  1  0
 33 28  1  0
 34 36  1  0
 34 23  1  0
 35 34  2  0
M  END
$$$$
