WTW.pdb
     RDKit          3D

 36 39  0  0  1  0  0  0  0  0999 V2000
    6.7154  -17.5564   25.4537 N   0  0  0  0  0  0  0  0  0  0  0  0
    7.5575  -16.7275   24.6421 C   0  0  1  0  0  0  0  0  0  0  0  0
    8.1415  -15.5286   25.3180 C   0  0  0  0  0  0  0  0  0  0  0  0
    7.1587  -14.5914   25.8986 C   0  0  0  0  0  0  0  0  0  0  0  0
    6.0948  -14.9442   26.7543 C   0  0  0  0  0  0  0  0  0  0  0  0
    5.4153  -13.8397   27.0799 N   0  0  0  0  0  0  0  0  0  0  0  0
    5.9940  -12.7778   26.4712 C   0  0  0  0  0  0  0  0  0  0  0  0
    5.6693  -11.4188   26.4765 C   0  0  0  0  0  0  0  0  0  0  0  0
    6.4004  -10.5021   25.7610 C   0  0  0  0  0  0  0  0  0  0  0  0
    7.4737  -10.9583   25.0293 C   0  0  0  0  0  0  0  0  0  0  0  0
    7.8006  -12.3022   25.0202 C   0  0  0  0  0  0  0  0  0  0  0  0
    7.0620  -13.2332   25.7464 C   0  0  0  0  0  0  0  0  0  0  0  0
    8.6491  -17.5586   24.0147 C   0  0  0  0  0  0  0  0  0  0  0  0
    9.2523  -18.4717   24.6491 O   0  0  0  0  0  0  0  0  0  0  0  0
    9.2656  -18.1247   19.8349 C   0  0  0  0  0  0  0  0  0  0  0  0
   10.3707  -17.4712   20.5841 C   0  0  1  0  0  0  0  0  0  0  0  0
   10.4845  -16.1264   20.2573 O   0  0  0  0  0  0  0  0  0  0  0  0
   10.3180  -17.5884   22.0742 C   0  0  2  0  0  0  0  0  0  0  0  0
    9.0462  -17.3537   22.6770 N   0  0  0  0  0  0  0  0  0  0  0  0
   11.4618  -16.9330   22.7752 C   0  0  0  0  0  0  0  0  0  0  0  0
   11.5412  -15.6826   22.7986 O   0  0  0  0  0  0  0  0  0  0  0  0
   12.4913  -17.6481   23.4235 N   0  0  0  0  0  0  0  0  0  0  0  0
   13.6491  -16.9492   23.9736 C   0  0  1  0  0  0  0  0  0  0  0  0
   13.3800  -16.0500   25.0970 C   0  0  0  0  0  0  0  0  0  0  0  0
   12.4447  -16.5590   26.1370 C   0  0  0  0  0  0  0  0  0  0  0  0
   12.4644  -17.8985   26.5699 C   0  0  0  0  0  0  0  0  0  0  0  0
   11.5138  -18.0205   27.4992 N   0  0  0  0  0  0  0  0  0  0  0  0
   10.8703  -16.8626   27.7100 C   0  0  0  0  0  0  0  0  0  0  0  0
    9.8344  -16.4681   28.5469 C   0  0  0  0  0  0  0  0  0  0  0  0
    9.4229  -15.1538   28.4940 C   0  0  0  0  0  0  0  0  0  0  0  0
    9.9902  -14.2184   27.6486 C   0  0  0  0  0  0  0  0  0  0  0  0
   11.0138  -14.6212   26.8239 C   0  0  0  0  0  0  0  0  0  0  0  0
   11.4539  -15.9506   26.8584 C   0  0  0  0  0  0  0  0  0  0  0  0
   14.6048  -18.0487   24.4928 C   0  0  0  0  0  0  0  0  0  0  0  0
   14.2976  -19.2554   24.4466 O   0  0  0  0  0  0  0  0  0  0  0  0
   15.8211  -17.6358   25.0152 O   0  0  0  0  0  0  0  0  0  0  0  0
  2  1  1  1
  3  2  1  0
  3  4  1  0
  4 12  1  0
  5  4  2  0
  5  6  1  0
  6  7  1  0
  7  8  1  0
  8  9  2  0
 10  9  1  0
 11 10  2  0
 12  7  2  0
 12 11  1  0
 13  2  1  0
 14 13  2  0
 16 15  1  6
 16 17  1  0
 18 19  1  1
 18 16  1  0
 19 13  1  0
 20 21  2  0
 20 18  1  0
 22 20  1  0
 23 24  1  1
 23 22  1  0
 24 25  1  0
 25 26  2  0
 26 27  1  0
 28 27  1  0
 29 28  2  0
 30 29  1  0
 31 32  1  0
 31 30  2  0
 32 33  2  0
 33 25  1  0
 33 28  1  0
 34 36  1  0
 34 23  1  0
 35 34  2  0
M  END
$$$$
