WTW.pdb
     RDKit          3D

 36 39  0  0  1  0  0  0  0  0999 V2000
    7.2517  -17.4016   21.5421 N   0  0  0  0  0  0  0  0  0  0  0  0
    8.2685  -16.5617   22.1040 C   0  0  1  0  0  0  0  0  0  0  0  0
    7.8276  -15.1988   22.5320 C   0  0  0  0  0  0  0  0  0  0  0  0
    7.3211  -14.3314   21.4492 C   0  0  0  0  0  0  0  0  0  0  0  0
    5.9723  -14.2140   21.0550 C   0  0  0  0  0  0  0  0  0  0  0  0
    5.8894  -13.3400   20.0466 N   0  0  0  0  0  0  0  0  0  0  0  0
    7.1316  -12.8803   19.7664 C   0  0  0  0  0  0  0  0  0  0  0  0
    7.5868  -11.9714   18.8076 C   0  0  0  0  0  0  0  0  0  0  0  0
    8.9188  -11.6573   18.6899 C   0  0  0  0  0  0  0  0  0  0  0  0
    9.8063  -12.2661   19.5486 C   0  0  0  0  0  0  0  0  0  0  0  0
    9.3622  -13.1663   20.5000 C   0  0  0  0  0  0  0  0  0  0  0  0
    8.0119  -13.4847   20.6225 C   0  0  0  0  0  0  0  0  0  0  0  0
    8.9530  -17.2731   23.2449 C   0  0  0  0  0  0  0  0  0  0  0  0
    8.3068  -17.8700   24.1538 O   0  0  0  0  0  0  0  0  0  0  0  0
   13.3066  -19.0015   25.0708 C   0  0  0  0  0  0  0  0  0  0  0  0
   12.5288  -18.3061   24.0121 C   0  0  1  0  0  0  0  0  0  0  0  0
   12.4003  -19.0906   22.8735 O   0  0  0  0  0  0  0  0  0  0  0  0
   11.1689  -17.8211   24.4027 C   0  0  2  0  0  0  0  0  0  0  0  0
   10.3593  -17.3070   23.3463 N   0  0  0  0  0  0  0  0  0  0  0  0
   11.1532  -16.9964   25.6473 C   0  0  0  0  0  0  0  0  0  0  0  0
   11.6192  -15.8333   25.6272 O   0  0  0  0  0  0  0  0  0  0  0  0
   10.6420  -17.4557   26.8798 N   0  0  0  0  0  0  0  0  0  0  0  0
   10.9494  -16.7508   28.1209 C   0  0  1  0  0  0  0  0  0  0  0  0
    9.9850  -15.7294   28.5329 C   0  0  0  0  0  0  0  0  0  0  0  0
    8.8411  -15.4949   27.6097 C   0  0  0  0  0  0  0  0  0  0  0  0
    7.9399  -16.5183   27.2600 C   0  0  0  0  0  0  0  0  0  0  0  0
    7.0433  -15.9799   26.4305 N   0  0  0  0  0  0  0  0  0  0  0  0
    7.2869  -14.6797   26.2080 C   0  0  0  0  0  0  0  0  0  0  0  0
    6.6695  -13.6943   25.4483 C   0  0  0  0  0  0  0  0  0  0  0  0
    7.2134  -12.4280   25.4635 C   0  0  0  0  0  0  0  0  0  0  0  0
    8.3399  -12.0989   26.1943 C   0  0  0  0  0  0  0  0  0  0  0  0
    8.9430  -13.0831   26.9411 C   0  0  0  0  0  0  0  0  0  0  0  0
    8.4102  -14.3786   26.9462 C   0  0  0  0  0  0  0  0  0  0  0  0
   10.9693  -17.8281   29.2304 C   0  0  0  0  0  0  0  0  0  0  0  0
   10.5796  -18.9922   29.0166 O   0  0  0  0  0  0  0  0  0  0  0  0
   11.4385  -17.4445   30.4775 O   0  0  0  0  0  0  0  0  0  0  0  0
  2  1  1  1
  3  2  1  0
  3  4  1  0
  4 12  1  0
  5  4  2  0
  5  6  1  0
  6  7  1  0
  7  8  1  0
  8  9  2  0
 10  9  1  0
 11 10  2  0
 12  7  2  0
 12 11  1  0
 13  2  1  0
 14 13  2  0
 16 15  1  1
 16 17  1  0
 18 19  1  6
 18 16  1  0
 19 13  1  0
 20 21  2  0
 20 18  1  0
 22 20  1  0
 23 24  1  1
 23 22  1  0
 24 25  1  0
 25 26  2  0
 26 27  1  0
 28 27  1  0
 29 28  2  0
 30 29  1  0
 31 32  1  0
 31 30  2  0
 32 33  2  0
 33 25  1  0
 33 28  1  0
 34 36  1  0
 34 23  1  0
 35 34  2  0
M  END
$$$$
