WTW.pdb
     RDKit          3D

 36 39  0  0  1  0  0  0  0  0999 V2000
    6.7693  -17.3238   22.2970 N   0  0  0  0  0  0  0  0  0  0  0  0
    7.9752  -16.9219   22.9597 C   0  0  1  0  0  0  0  0  0  0  0  0
    7.9634  -17.0154   24.4517 C   0  0  0  0  0  0  0  0  0  0  0  0
    7.2331  -15.9351   25.1451 C   0  0  0  0  0  0  0  0  0  0  0  0
    6.1723  -16.1156   26.0566 C   0  0  0  0  0  0  0  0  0  0  0  0
    5.7575  -14.9179   26.4822 N   0  0  0  0  0  0  0  0  0  0  0  0
    6.5062  -13.9609   25.8852 C   0  0  0  0  0  0  0  0  0  0  0  0
    6.4713  -12.5672   25.9786 C   0  0  0  0  0  0  0  0  0  0  0  0
    7.3325  -11.7765   25.2574 C   0  0  0  0  0  0  0  0  0  0  0  0
    8.2419  -12.3960   24.4300 C   0  0  0  0  0  0  0  0  0  0  0  0
    8.2819  -13.7752   24.3335 C   0  0  0  0  0  0  0  0  0  0  0  0
    7.4112  -14.5789   25.0652 C   0  0  0  0  0  0  0  0  0  0  0  0
    9.1510  -17.6813   22.3966 C   0  0  0  0  0  0  0  0  0  0  0  0
    9.1275  -18.9347   22.2278 O   0  0  0  0  0  0  0  0  0  0  0  0
   11.9281  -16.5849   19.5287 C   0  0  0  0  0  0  0  0  0  0  0  0
   12.5236  -16.8498   20.8646 C   0  0  1  0  0  0  0  0  0  0  0  0
   12.9893  -15.6834   21.4571 O   0  0  0  0  0  0  0  0  0  0  0  0
   11.6482  -17.5581   21.8490 C   0  0  2  0  0  0  0  0  0  0  0  0
   10.3394  -17.0183   22.0262 N   0  0  0  0  0  0  0  0  0  0  0  0
   12.3393  -17.9265   23.1203 C   0  0  0  0  0  0  0  0  0  0  0  0
   13.3472  -18.6703   23.0859 O   0  0  0  0  0  0  0  0  0  0  0  0
   11.9160  -17.4872   24.3928 N   0  0  0  0  0  0  0  0  0  0  0  0
   12.6927  -17.8090   25.5865 C   0  0  1  0  0  0  0  0  0  0  0  0
   12.5662  -16.8725   26.7045 C   0  0  0  0  0  0  0  0  0  0  0  0
   11.1891  -16.3990   27.0127 C   0  0  0  0  0  0  0  0  0  0  0  0
   10.0755  -17.2593   26.9723 C   0  0  0  0  0  0  0  0  0  0  0  0
    9.0076  -16.5283   27.3001 N   0  0  0  0  0  0  0  0  0  0  0  0
    9.3348  -15.2523   27.5528 C   0  0  0  0  0  0  0  0  0  0  0  0
    8.6165  -14.1232   27.9248 C   0  0  0  0  0  0  0  0  0  0  0  0
    9.3083  -12.9450   28.1056 C   0  0  0  0  0  0  0  0  0  0  0  0
   10.6757  -12.8380   27.9314 C   0  0  0  0  0  0  0  0  0  0  0  0
   11.3756  -13.9621   27.5616 C   0  0  0  0  0  0  0  0  0  0  0  0
   10.6983  -15.1738   27.3733 C   0  0  0  0  0  0  0  0  0  0  0  0
   12.1688  -19.1775   26.0809 C   0  0  0  0  0  0  0  0  0  0  0  0
   11.1206  -19.6771   25.6286 O   0  0  0  0  0  0  0  0  0  0  0  0
   12.9142  -19.8278   27.0526 O   0  0  0  0  0  0  0  0  0  0  0  0
  2  1  1  6
  3  2  1  0
  3  4  1  0
  4 12  1  0
  5  4  2  0
  5  6  1  0
  6  7  1  0
  7  8  1  0
  8  9  2  0
 10  9  1  0
 11 10  2  0
 12  7  2  0
 12 11  1  0
 13  2  1  0
 14 13  2  0
 16 15  1  6
 16 17  1  0
 18 19  1  1
 18 16  1  0
 19 13  1  0
 20 21  2  0
 20 18  1  0
 22 20  1  0
 23 24  1  1
 23 22  1  0
 24 25  1  0
 25 26  2  0
 26 27  1  0
 28 27  1  0
 29 28  2  0
 30 29  1  0
 31 32  1  0
 31 30  2  0
 32 33  2  0
 33 25  1  0
 33 28  1  0
 34 36  1  0
 34 23  1  0
 35 34  2  0
M  END
$$$$
