WTW.pdb
     RDKit          3D

 36 39  0  0  1  0  0  0  0  0999 V2000
    8.2671  -18.2417   19.7206 N   0  0  0  0  0  0  0  0  0  0  0  0
    8.3150  -17.1802   20.6829 C   0  0  1  0  0  0  0  0  0  0  0  0
    7.0964  -16.3181   20.7663 C   0  0  0  0  0  0  0  0  0  0  0  0
    7.1196  -15.1103   19.9167 C   0  0  0  0  0  0  0  0  0  0  0  0
    6.5976  -15.0161   18.6101 C   0  0  0  0  0  0  0  0  0  0  0  0
    6.7964  -13.7759   18.1518 N   0  0  0  0  0  0  0  0  0  0  0  0
    7.4275  -13.0548   19.1082 C   0  0  0  0  0  0  0  0  0  0  0  0
    7.8664  -11.7284   19.1275 C   0  0  0  0  0  0  0  0  0  0  0  0
    8.5091  -11.1996   20.2202 C   0  0  0  0  0  0  0  0  0  0  0  0
    8.7139  -12.0163   21.3095 C   0  0  0  0  0  0  0  0  0  0  0  0
    8.2815  -13.3300   21.2969 C   0  0  0  0  0  0  0  0  0  0  0  0
    7.6278  -13.8677   20.1909 C   0  0  0  0  0  0  0  0  0  0  0  0
    8.6597  -17.7328   22.0438 C   0  0  0  0  0  0  0  0  0  0  0  0
    7.8647  -18.4708   22.6945 O   0  0  0  0  0  0  0  0  0  0  0  0
   11.1075  -20.2328   22.9931 C   0  0  0  0  0  0  0  0  0  0  0  0
   11.4881  -19.0094   23.7469 C   0  0  1  0  0  0  0  0  0  0  0  0
   12.6278  -18.4175   23.2188 O   0  0  0  0  0  0  0  0  0  0  0  0
   10.4317  -17.9586   23.8768 C   0  0  2  0  0  0  0  0  0  0  0  0
    9.8991  -17.4504   22.6546 N   0  0  0  0  0  0  0  0  0  0  0  0
   10.7392  -16.9121   24.8965 C   0  0  0  0  0  0  0  0  0  0  0  0
   11.2975  -15.8470   24.5440 O   0  0  0  0  0  0  0  0  0  0  0  0
   10.4420  -17.0505   26.2691 N   0  0  0  0  0  0  0  0  0  0  0  0
   10.9991  -16.1210   27.2475 C   0  0  1  0  0  0  0  0  0  0  0  0
   10.3197  -14.8294   27.3628 C   0  0  0  0  0  0  0  0  0  0  0  0
    8.8995  -14.7917   26.9185 C   0  0  0  0  0  0  0  0  0  0  0  0
    8.1293  -15.9612   26.7745 C   0  0  0  0  0  0  0  0  0  0  0  0
    6.9155  -15.5798   26.3703 N   0  0  0  0  0  0  0  0  0  0  0  0
    6.8294  -14.2479   26.2374 C   0  0  0  0  0  0  0  0  0  0  0  0
    5.8176  -13.3753   25.8578 C   0  0  0  0  0  0  0  0  0  0  0  0
    6.0976  -12.0260   25.8405 C   0  0  0  0  0  0  0  0  0  0  0  0
    7.3335  -11.5070   26.1795 C   0  0  0  0  0  0  0  0  0  0  0  0
    8.3274  -12.3806   26.5522 C   0  0  0  0  0  0  0  0  0  0  0  0
    8.0699  -13.7573   26.5810 C   0  0  0  0  0  0  0  0  0  0  0  0
   10.8754  -16.8215   28.6208 C   0  0  0  0  0  0  0  0  0  0  0  0
   11.2467  -16.2659   29.6725 O   0  0  0  0  0  0  0  0  0  0  0  0
   10.3344  -18.0981   28.6343 O   0  0  0  0  0  0  0  0  0  0  0  0
  2  1  1  6
  3  2  1  0
  3  4  1  0
  4 12  1  0
  5  4  2  0
  5  6  1  0
  6  7  1  0
  7  8  1  0
  8  9  2  0
 10  9  1  0
 11 10  2  0
 12  7  2  0
 12 11  1  0
 13  2  1  0
 14 13  2  0
 16 15  1  6
 16 17  1  0
 18 19  1  6
 18 16  1  0
 19 13  1  0
 20 21  2  0
 20 18  1  0
 22 20  1  0
 23 24  1  1
 23 22  1  0
 24 25  1  0
 25 26  2  0
 26 27  1  0
 28 27  1  0
 29 28  2  0
 30 29  1  0
 31 32  1  0
 31 30  2  0
 32 33  2  0
 33 25  1  0
 33 28  1  0
 34 36  1  0
 34 23  1  0
 35 34  2  0
M  END
$$$$
