CDR.pdb
     RDKit          3D

 26 25  0  0  1  0  0  0  0  0999 V2000
   22.6728  -12.6495  -16.9183 N   0  0  0  0  0  0  0  0  0  0  0  0
   23.6418  -13.2043  -15.9909 C   0  0  1  0  0  0  0  0  0  0  0  0
   22.9932  -13.2088  -14.6230 C   0  0  0  0  0  0  0  0  0  0  0  0
   21.5281  -14.2689  -14.5853 S   0  0  0  0  0  0  0  0  0  0  0  0
   23.9746  -14.6139  -16.3290 C   0  0  0  0  0  0  0  0  0  0  0  0
   23.0875  -15.3892  -16.7645 O   0  0  0  0  0  0  0  0  0  0  0  0
   25.2810  -15.1542  -16.1828 N   0  0  0  0  0  0  0  0  0  0  0  0
   25.5090  -16.5622  -16.4388 C   0  0  1  0  0  0  0  0  0  0  0  0
   27.0246  -16.7700  -16.3063 C   0  0  0  0  0  0  0  0  0  0  0  0
   27.2826  -18.1499  -16.8076 C   0  0  0  0  0  0  0  0  0  0  0  0
   26.3588  -18.9190  -17.1147 O   0  0  0  0  0  0  0  0  0  0  0  0
   24.7773  -17.4408  -15.5353 C   0  0  0  0  0  0  0  0  0  0  0  0
   24.7990  -17.2458  -14.3036 O   0  0  0  0  0  0  0  0  0  0  0  0
   28.5905  -18.6068  -16.9421 O   0  0  0  0  0  0  0  0  0  0  0  0
   17.6680  -18.2448  -12.2984 N   0  0  0  0  0  0  0  0  0  0  0  0
   17.6892  -19.5455  -12.8497 C   0  0  0  0  0  0  0  0  0  0  0  0
   16.8663  -20.4332  -12.4053 N   0  0  0  0  0  0  0  0  0  0  0  0
   18.6217  -19.8323  -13.8807 N   0  0  0  0  0  0  0  0  0  0  0  0
   19.6464  -18.8712  -14.2173 C   0  0  0  0  0  0  0  0  0  0  0  0
   20.9866  -19.6178  -14.2426 C   0  0  0  0  0  0  0  0  0  0  0  0
   21.9262  -18.7654  -15.0248 C   0  0  0  0  0  0  0  0  0  0  0  0
   23.2673  -19.4314  -15.2051 C   0  0  2  0  0  0  0  0  0  0  0  0
   24.0378  -18.5219  -16.0591 N   0  0  0  0  0  0  0  0  0  0  0  0
   23.2257  -20.7814  -15.7597 C   0  0  0  0  0  0  0  0  0  0  0  0
   23.5173  -20.9685  -17.1196 O   0  0  0  0  0  0  0  0  0  0  0  0
   22.9395  -21.7818  -15.0682 O   0  0  0  0  0  0  0  0  0  0  0  0
  2  1  1  6
  3  2  1  0
  4  3  1  0
  5  2  1  0
  5  6  2  0
  7  5  1  0
  8  7  1  0
  9 10  1  0
  8  9  1  1
 10 14  1  0
 10 11  2  0
 12  8  1  0
 13 12  2  0
 16 15  1  0
 17 16  2  0
 18 16  1  0
 19 18  1  0
 20 19  1  0
 21 20  1  0
 22 21  1  6
 22 23  1  0
 23 12  1  0
 24 22  1  0
 25 24  1  0
 26 24  2  0
M  END
$$$$
