CDR.pdb
     RDKit          3D

 26 25  0  0  1  0  0  0  0  0999 V2000
   15.7090  -14.8671  -19.6894 N   0  0  0  0  0  0  0  0  0  0  0  0
   16.6109  -13.7336  -19.5958 C   0  0  1  0  0  0  0  0  0  0  0  0
   16.2941  -12.8186  -20.7595 C   0  0  0  0  0  0  0  0  0  0  0  0
   17.1740  -13.3199  -22.2583 S   0  0  0  0  0  0  0  0  0  0  0  0
   16.3840  -12.9583  -18.3470 C   0  0  0  0  0  0  0  0  0  0  0  0
   15.2226  -12.6137  -18.0154 O   0  0  0  0  0  0  0  0  0  0  0  0
   17.4393  -12.5705  -17.4776 N   0  0  0  0  0  0  0  0  0  0  0  0
   17.1426  -11.8003  -16.2865 C   0  0  1  0  0  0  0  0  0  0  0  0
   18.1253  -12.2943  -15.2151 C   0  0  0  0  0  0  0  0  0  0  0  0
   17.6331  -13.6433  -14.8151 C   0  0  0  0  0  0  0  0  0  0  0  0
   18.0511  -14.6797  -15.3539 O   0  0  0  0  0  0  0  0  0  0  0  0
   17.2600  -10.3612  -16.4835 C   0  0  0  0  0  0  0  0  0  0  0  0
   17.7482   -9.9018  -17.5352 O   0  0  0  0  0  0  0  0  0  0  0  0
   16.6776  -13.7642  -13.8103 O   0  0  0  0  0  0  0  0  0  0  0  0
   17.9912   -4.5202  -20.2548 N   0  0  0  0  0  0  0  0  0  0  0  0
   17.1250   -3.7973  -19.4042 C   0  0  0  0  0  0  0  0  0  0  0  0
   17.0119   -2.5217  -19.5547 N   0  0  0  0  0  0  0  0  0  0  0  0
   16.4043   -4.5049  -18.4069 N   0  0  0  0  0  0  0  0  0  0  0  0
   16.5755   -5.9324  -18.2663 C   0  0  0  0  0  0  0  0  0  0  0  0
   15.6103   -6.4056  -17.1713 C   0  0  0  0  0  0  0  0  0  0  0  0
   15.9254   -7.8417  -16.9273 C   0  0  0  0  0  0  0  0  0  0  0  0
   16.7476   -8.0292  -15.6769 C   0  0  2  0  0  0  0  0  0  0  0  0
   16.8172   -9.4799  -15.4749 N   0  0  0  0  0  0  0  0  0  0  0  0
   16.2440   -7.3459  -14.4888 C   0  0  0  0  0  0  0  0  0  0  0  0
   16.5870   -6.0013  -14.2796 O   0  0  0  0  0  0  0  0  0  0  0  0
   15.5162   -7.9135  -13.6469 O   0  0  0  0  0  0  0  0  0  0  0  0
  2  1  1  1
  3  2  1  0
  4  3  1  0
  5  2  1  0
  5  6  2  0
  7  5  1  0
  8  7  1  0
  9 10  1  0
  8  9  1  1
 10 14  1  0
 10 11  2  0
 12  8  1  0
 13 12  2  0
 16 15  1  0
 17 16  2  0
 18 16  1  0
 19 18  1  0
 20 19  1  0
 21 20  1  0
 22 21  1  6
 22 23  1  0
 23 12  1  0
 24 22  1  0
 25 24  1  0
 26 24  2  0
M  END
$$$$
