CDR.pdb
     RDKit          3D

 26 25  0  0  1  0  0  0  0  0999 V2000
   20.3503  -18.6145  -17.6491 N   0  0  0  0  0  0  0  0  0  0  0  0
   19.9014  -17.5077  -18.4740 C   0  0  1  0  0  0  0  0  0  0  0  0
   18.3880  -17.5433  -18.4770 C   0  0  0  0  0  0  0  0  0  0  0  0
   17.7600  -19.0562  -19.2442 S   0  0  0  0  0  0  0  0  0  0  0  0
   20.3135  -16.1986  -17.9008 C   0  0  0  0  0  0  0  0  0  0  0  0
   20.0279  -15.9071  -16.7129 O   0  0  0  0  0  0  0  0  0  0  0  0
   21.0351  -15.2247  -18.6428 N   0  0  0  0  0  0  0  0  0  0  0  0
   21.4171  -13.9778  -18.0109 C   0  0  1  0  0  0  0  0  0  0  0  0
   22.8178  -13.6502  -18.5480 C   0  0  0  0  0  0  0  0  0  0  0  0
   23.2619  -12.4443  -17.7924 C   0  0  0  0  0  0  0  0  0  0  0  0
   23.3446  -12.4403  -16.5545 O   0  0  0  0  0  0  0  0  0  0  0  0
   20.4861  -12.8875  -18.2720 C   0  0  0  0  0  0  0  0  0  0  0  0
   20.0014  -12.7248  -19.4096 O   0  0  0  0  0  0  0  0  0  0  0  0
   23.5977  -11.2802  -18.4774 O   0  0  0  0  0  0  0  0  0  0  0  0
   14.4304  -11.5841  -13.1073 N   0  0  0  0  0  0  0  0  0  0  0  0
   14.9166  -12.4068  -14.1481 C   0  0  0  0  0  0  0  0  0  0  0  0
   14.4917  -13.6204  -14.2445 N   0  0  0  0  0  0  0  0  0  0  0  0
   15.8621  -11.8654  -15.0578 N   0  0  0  0  0  0  0  0  0  0  0  0
   16.1930  -10.4602  -15.0065 C   0  0  0  0  0  0  0  0  0  0  0  0
   17.0706  -10.1495  -16.2262 C   0  0  0  0  0  0  0  0  0  0  0  0
   18.1736  -11.1518  -16.2147 C   0  0  0  0  0  0  0  0  0  0  0  0
   19.1023  -10.9749  -17.3897 C   0  0  2  0  0  0  0  0  0  0  0  0
   20.1302  -12.0081  -17.2280 N   0  0  0  0  0  0  0  0  0  0  0  0
   19.6937   -9.6467  -17.5251 C   0  0  0  0  0  0  0  0  0  0  0  0
   20.7639   -9.2893  -16.6907 O   0  0  0  0  0  0  0  0  0  0  0  0
   19.2828   -8.8116  -18.3585 O   0  0  0  0  0  0  0  0  0  0  0  0
  2  1  1  1
  3  2  1  0
  4  3  1  0
  5  2  1  0
  5  6  2  0
  7  5  1  0
  8  7  1  0
  9 10  1  0
  8  9  1  6
 10 14  1  0
 10 11  2  0
 12  8  1  0
 13 12  2  0
 16 15  1  0
 17 16  2  0
 18 16  1  0
 19 18  1  0
 20 19  1  0
 21 20  1  0
 22 21  1  1
 22 23  1  0
 23 12  1  0
 24 22  1  0
 25 24  1  0
 26 24  2  0
M  END
$$$$
