CDR.pdb
     RDKit          3D

 26 25  0  0  1  0  0  0  0  0999 V2000
   23.2521  -26.5694  -16.3963 N   0  0  0  0  0  0  0  0  0  0  0  0
   22.3132  -25.5043  -16.6976 C   0  0  1  0  0  0  0  0  0  0  0  0
   21.1680  -26.1281  -17.4665 C   0  0  0  0  0  0  0  0  0  0  0  0
   21.7474  -26.9572  -18.9660 S   0  0  0  0  0  0  0  0  0  0  0  0
   21.7446  -24.9120  -15.4575 C   0  0  0  0  0  0  0  0  0  0  0  0
   21.7803  -25.5485  -14.3752 O   0  0  0  0  0  0  0  0  0  0  0  0
   21.1424  -23.6251  -15.4232 N   0  0  0  0  0  0  0  0  0  0  0  0
   20.5962  -23.1202  -14.1796 C   0  0  1  0  0  0  0  0  0  0  0  0
   20.3652  -21.6190  -14.4047 C   0  0  0  0  0  0  0  0  0  0  0  0
   21.6880  -20.9731  -14.1696 C   0  0  0  0  0  0  0  0  0  0  0  0
   21.9775  -19.8732  -14.6651 O   0  0  0  0  0  0  0  0  0  0  0  0
   19.3647  -23.7864  -13.7754 C   0  0  0  0  0  0  0  0  0  0  0  0
   18.4580  -24.0024  -14.6041 O   0  0  0  0  0  0  0  0  0  0  0  0
   22.6385  -21.6063  -13.3741 O   0  0  0  0  0  0  0  0  0  0  0  0
   18.5062  -25.9010   -5.7301 N   0  0  0  0  0  0  0  0  0  0  0  0
   17.4994  -25.0236   -6.1916 C   0  0  0  0  0  0  0  0  0  0  0  0
   16.8272  -24.3292   -5.3381 N   0  0  0  0  0  0  0  0  0  0  0  0
   17.2612  -24.9361   -7.5881 N   0  0  0  0  0  0  0  0  0  0  0  0
   17.4325  -26.1006   -8.4257 C   0  0  0  0  0  0  0  0  0  0  0  0
   17.0041  -25.7119   -9.8469 C   0  0  0  0  0  0  0  0  0  0  0  0
   18.2110  -25.1368  -10.5055 C   0  0  0  0  0  0  0  0  0  0  0  0
   17.9320  -24.7363  -11.9325 C   0  0  2  0  0  0  0  0  0  0  0  0
   19.1971  -24.1905  -12.4343 N   0  0  0  0  0  0  0  0  0  0  0  0
   16.8318  -23.7935  -12.1139 C   0  0  0  0  0  0  0  0  0  0  0  0
   15.6044  -24.2653  -12.6040 O   0  0  0  0  0  0  0  0  0  0  0  0
   16.9403  -22.5775  -11.8486 O   0  0  0  0  0  0  0  0  0  0  0  0
  2  1  1  1
  3  2  1  0
  4  3  1  0
  5  2  1  0
  5  6  2  0
  7  5  1  0
  8  7  1  0
  9 10  1  0
  8  9  1  6
 10 14  1  0
 10 11  2  0
 12  8  1  0
 13 12  2  0
 16 15  1  0
 17 16  2  0
 18 16  1  0
 19 18  1  0
 20 19  1  0
 21 20  1  0
 22 21  1  1
 22 23  1  0
 23 12  1  0
 24 22  1  0
 25 24  1  0
 26 24  2  0
M  END
$$$$
