CDR.pdb
     RDKit          3D

 26 25  0  0  1  0  0  0  0  0999 V2000
   13.1493  -10.8366   -9.5887 N   0  0  0  0  0  0  0  0  0  0  0  0
   14.4815  -10.3110   -9.3521 C   0  0  1  0  0  0  0  0  0  0  0  0
   15.3969  -10.9478  -10.3760 C   0  0  0  0  0  0  0  0  0  0  0  0
   15.8508  -12.6340   -9.9047 S   0  0  0  0  0  0  0  0  0  0  0  0
   14.5328   -8.8399   -9.5648 C   0  0  0  0  0  0  0  0  0  0  0  0
   13.8945   -8.3120  -10.5091 O   0  0  0  0  0  0  0  0  0  0  0  0
   15.2872   -7.9666   -8.7354 N   0  0  0  0  0  0  0  0  0  0  0  0
   15.4121   -6.5673   -9.0911 C   0  0  1  0  0  0  0  0  0  0  0  0
   15.2763   -5.7888   -7.7746 C   0  0  0  0  0  0  0  0  0  0  0  0
   15.2585   -4.3497   -8.1632 C   0  0  0  0  0  0  0  0  0  0  0  0
   15.7444   -3.4688   -7.4372 O   0  0  0  0  0  0  0  0  0  0  0  0
   16.6663   -6.2503   -9.7619 C   0  0  0  0  0  0  0  0  0  0  0  0
   17.7510   -6.3297   -9.1514 O   0  0  0  0  0  0  0  0  0  0  0  0
   14.6849   -3.9635   -9.3711 O   0  0  0  0  0  0  0  0  0  0  0  0
   21.6337  -10.0921  -14.2972 N   0  0  0  0  0  0  0  0  0  0  0  0
   22.0249   -8.8079  -14.7377 C   0  0  0  0  0  0  0  0  0  0  0  0
   22.7903   -8.7005  -15.7699 N   0  0  0  0  0  0  0  0  0  0  0  0
   21.5588   -7.6727  -14.0245 N   0  0  0  0  0  0  0  0  0  0  0  0
   20.4717   -7.8063  -13.0825 C   0  0  0  0  0  0  0  0  0  0  0  0
   19.4568   -6.6977  -13.3911 C   0  0  0  0  0  0  0  0  0  0  0  0
   18.3405   -6.8692  -12.4187 C   0  0  0  0  0  0  0  0  0  0  0  0
   17.8823   -5.5477  -11.8546 C   0  0  2  0  0  0  0  0  0  0  0  0
   16.6530   -5.8498  -11.1145 N   0  0  0  0  0  0  0  0  0  0  0  0
   17.6703   -4.4882  -12.8367 C   0  0  0  0  0  0  0  0  0  0  0  0
   18.7602   -3.6971  -13.2312 O   0  0  0  0  0  0  0  0  0  0  0  0
   16.5516   -4.2567  -13.3422 O   0  0  0  0  0  0  0  0  0  0  0  0
  2  1  1  6
  3  2  1  0
  4  3  1  0
  5  2  1  0
  5  6  2  0
  7  5  1  0
  8  7  1  0
  9 10  1  0
  8  9  1  1
 10 14  1  0
 10 11  2  0
 12  8  1  0
 13 12  2  0
 16 15  1  0
 17 16  2  0
 18 16  1  0
 19 18  1  0
 20 19  1  0
 21 20  1  0
 22 21  1  6
 22 23  1  0
 23 12  1  0
 24 22  1  0
 25 24  1  0
 26 24  2  0
M  END
$$$$
