CDR.pdb
     RDKit          3D

 26 25  0  0  1  0  0  0  0  0999 V2000
   26.4775  -20.4761  -14.7651 N   0  0  0  0  0  0  0  0  0  0  0  0
   25.9320  -21.3819  -13.7706 C   0  0  1  0  0  0  0  0  0  0  0  0
   26.8262  -21.2922  -12.5523 C   0  0  0  0  0  0  0  0  0  0  0  0
   26.2911  -22.4273  -11.2497 S   0  0  0  0  0  0  0  0  0  0  0  0
   24.5660  -20.9706  -13.3498 C   0  0  0  0  0  0  0  0  0  0  0  0
   24.4112  -20.1013  -12.4565 O   0  0  0  0  0  0  0  0  0  0  0  0
   23.3855  -21.5221  -13.9173 N   0  0  0  0  0  0  0  0  0  0  0  0
   22.0887  -21.1167  -13.4132 C   0  0  1  0  0  0  0  0  0  0  0  0
   21.4707  -20.2385  -14.5106 C   0  0  0  0  0  0  0  0  0  0  0  0
   20.1748  -19.7573  -13.9527 C   0  0  0  0  0  0  0  0  0  0  0  0
   20.0863  -19.2972  -12.8040 O   0  0  0  0  0  0  0  0  0  0  0  0
   21.2183  -22.2387  -13.0858 C   0  0  0  0  0  0  0  0  0  0  0  0
   21.1714  -23.2428  -13.8242 O   0  0  0  0  0  0  0  0  0  0  0  0
   19.0200  -19.8176  -14.7274 O   0  0  0  0  0  0  0  0  0  0  0  0
   16.6565  -26.0249   -7.8129 N   0  0  0  0  0  0  0  0  0  0  0  0
   17.6183  -25.4458   -6.9550 C   0  0  0  0  0  0  0  0  0  0  0  0
   18.0266  -26.1074   -5.9263 N   0  0  0  0  0  0  0  0  0  0  0  0
   18.1055  -24.1474   -7.2573 N   0  0  0  0  0  0  0  0  0  0  0  0
   17.5105  -23.3827   -8.3288 C   0  0  0  0  0  0  0  0  0  0  0  0
   18.0580  -23.9391   -9.6498 C   0  0  0  0  0  0  0  0  0  0  0  0
   19.0008  -22.9128  -10.1779 C   0  0  0  0  0  0  0  0  0  0  0  0
   19.5036  -23.2706  -11.5540 C   0  0  2  0  0  0  0  0  0  0  0  0
   20.4215  -22.1882  -11.9228 N   0  0  0  0  0  0  0  0  0  0  0  0
   18.4698  -23.4654  -12.5666 C   0  0  0  0  0  0  0  0  0  0  0  0
   17.7820  -22.3469  -13.0618 O   0  0  0  0  0  0  0  0  0  0  0  0
   18.1717  -24.5939  -13.0119 O   0  0  0  0  0  0  0  0  0  0  0  0
  2  1  1  6
  3  2  1  0
  4  3  1  0
  5  2  1  0
  5  6  2  0
  7  5  1  0
  8  7  1  0
  9 10  1  0
  8  9  1  6
 10 14  1  0
 10 11  2  0
 12  8  1  0
 13 12  2  0
 16 15  1  0
 17 16  2  0
 18 16  1  0
 19 18  1  0
 20 19  1  0
 21 20  1  0
 22 21  1  1
 22 23  1  0
 23 12  1  0
 24 22  1  0
 25 24  1  0
 26 24  2  0
M  END
$$$$
