CDR.pdb
     RDKit          3D

 26 25  0  0  1  0  0  0  0  0999 V2000
   20.2290  -12.6537  -16.4015 N   0  0  0  0  0  0  0  0  0  0  0  0
   19.6381  -11.3735  -16.7461 C   0  0  1  0  0  0  0  0  0  0  0  0
   18.2094  -11.6445  -17.1673 C   0  0  0  0  0  0  0  0  0  0  0  0
   18.1354  -12.4708  -18.7746 S   0  0  0  0  0  0  0  0  0  0  0  0
   19.5894  -10.4620  -15.5718 C   0  0  0  0  0  0  0  0  0  0  0  0
   19.0663  -10.8411  -14.4946 O   0  0  0  0  0  0  0  0  0  0  0  0
   20.1168   -9.1426  -15.5973 N   0  0  0  0  0  0  0  0  0  0  0  0
   19.9931   -8.2965  -14.4273 C   0  0  1  0  0  0  0  0  0  0  0  0
   21.2664   -7.4389  -14.3965 C   0  0  0  0  0  0  0  0  0  0  0  0
   21.1838   -6.6488  -13.1351 C   0  0  0  0  0  0  0  0  0  0  0  0
   21.9068   -5.6614  -12.9317 O   0  0  0  0  0  0  0  0  0  0  0  0
   18.7981   -7.4626  -14.4397 C   0  0  0  0  0  0  0  0  0  0  0  0
   18.5816   -6.6769  -15.3837 O   0  0  0  0  0  0  0  0  0  0  0  0
   20.2757   -7.0136  -12.1453 O   0  0  0  0  0  0  0  0  0  0  0  0
   13.3503   -8.3553   -8.2148 N   0  0  0  0  0  0  0  0  0  0  0  0
   14.3239   -7.3367   -8.3182 C   0  0  0  0  0  0  0  0  0  0  0  0
   14.8514   -6.8560   -7.2443 N   0  0  0  0  0  0  0  0  0  0  0  0
   14.6905   -6.8746   -9.6092 N   0  0  0  0  0  0  0  0  0  0  0  0
   13.8925   -7.2319  -10.7592 C   0  0  0  0  0  0  0  0  0  0  0  0
   14.5569   -6.6060  -11.9925 C   0  0  0  0  0  0  0  0  0  0  0  0
   15.8888   -7.2609  -12.1284 C   0  0  0  0  0  0  0  0  0  0  0  0
   16.6074   -6.8132  -13.3765 C   0  0  2  0  0  0  0  0  0  0  0  0
   17.8780   -7.5451  -13.3736 N   0  0  0  0  0  0  0  0  0  0  0  0
   16.8184   -5.3731  -13.4942 C   0  0  0  0  0  0  0  0  0  0  0  0
   17.8866   -4.7824  -12.8019 O   0  0  0  0  0  0  0  0  0  0  0  0
   16.0821   -4.6424  -14.1903 O   0  0  0  0  0  0  0  0  0  0  0  0
  2  1  1  1
  3  2  1  0
  4  3  1  0
  5  2  1  0
  5  6  2  0
  7  5  1  0
  8  7  1  0
  9 10  1  0
  8  9  1  6
 10 14  1  0
 10 11  2  0
 12  8  1  0
 13 12  2  0
 16 15  1  0
 17 16  2  0
 18 16  1  0
 19 18  1  0
 20 19  1  0
 21 20  1  0
 22 21  1  1
 22 23  1  0
 23 12  1  0
 24 22  1  0
 25 24  1  0
 26 24  2  0
M  END
$$$$
