CDR.pdb
     RDKit          3D

 26 25  0  0  1  0  0  0  0  0999 V2000
   26.8323  -13.3131  -17.0799 N   0  0  0  0  0  0  0  0  0  0  0  0
   25.5773  -13.2179  -17.8030 C   0  0  1  0  0  0  0  0  0  0  0  0
   25.3301  -14.5685  -18.4405 C   0  0  0  0  0  0  0  0  0  0  0  0
   26.8400  -15.2451  -19.1715 S   0  0  0  0  0  0  0  0  0  0  0  0
   24.4390  -12.9452  -16.8853 C   0  0  0  0  0  0  0  0  0  0  0  0
   24.4082  -13.4613  -15.7406 O   0  0  0  0  0  0  0  0  0  0  0  0
   23.3467  -12.1076  -17.2392 N   0  0  0  0  0  0  0  0  0  0  0  0
   22.2857  -11.8676  -16.2817 C   0  0  1  0  0  0  0  0  0  0  0  0
   21.9711  -10.3676  -16.3754 C   0  0  0  0  0  0  0  0  0  0  0  0
   21.0169  -10.0908  -15.2641 C   0  0  0  0  0  0  0  0  0  0  0  0
   20.6815  -10.9689  -14.4543 O   0  0  0  0  0  0  0  0  0  0  0  0
   21.0941  -12.6704  -16.5247 C   0  0  0  0  0  0  0  0  0  0  0  0
   20.5925  -12.7339  -17.6649 O   0  0  0  0  0  0  0  0  0  0  0  0
   20.4760   -8.8171  -15.1141 O   0  0  0  0  0  0  0  0  0  0  0  0
   17.6464  -18.4973  -10.9416 N   0  0  0  0  0  0  0  0  0  0  0  0
   16.9573  -18.7687  -12.1449 C   0  0  0  0  0  0  0  0  0  0  0  0
   16.0928  -19.7249  -12.1755 N   0  0  0  0  0  0  0  0  0  0  0  0
   17.2423  -17.9743  -13.2860 N   0  0  0  0  0  0  0  0  0  0  0  0
   18.3085  -17.0005  -13.2418 C   0  0  0  0  0  0  0  0  0  0  0  0
   18.2355  -16.1795  -14.5360 C   0  0  0  0  0  0  0  0  0  0  0  0
   19.3585  -15.2017  -14.4756 C   0  0  0  0  0  0  0  0  0  0  0  0
   19.3419  -14.2576  -15.6517 C   0  0  2  0  0  0  0  0  0  0  0  0
   20.5027  -13.3823  -15.4601 N   0  0  0  0  0  0  0  0  0  0  0  0
   18.1121  -13.4885  -15.8191 C   0  0  0  0  0  0  0  0  0  0  0  0
   17.0996  -13.9948  -16.6484 O   0  0  0  0  0  0  0  0  0  0  0  0
   17.9245  -12.3920  -15.2504 O   0  0  0  0  0  0  0  0  0  0  0  0
  2  1  1  1
  3  2  1  0
  4  3  1  0
  5  2  1  0
  5  6  2  0
  7  5  1  0
  8  7  1  0
  9 10  1  0
  8  9  1  6
 10 14  1  0
 10 11  2  0
 12  8  1  0
 13 12  2  0
 16 15  1  0
 17 16  2  0
 18 16  1  0
 19 18  1  0
 20 19  1  0
 21 20  1  0
 22 21  1  1
 22 23  1  0
 23 12  1  0
 24 22  1  0
 25 24  1  0
 26 24  2  0
M  END
$$$$
