CDR.pdb
     RDKit          3D

 26 25  0  0  1  0  0  0  0  0999 V2000
   27.6198  -22.1731  -11.8458 N   0  0  0  0  0  0  0  0  0  0  0  0
   27.1445  -20.8993  -11.3376 C   0  0  1  0  0  0  0  0  0  0  0  0
   28.2109  -19.8717  -11.6517 C   0  0  0  0  0  0  0  0  0  0  0  0
   29.8551  -20.6217  -11.7277 S   0  0  0  0  0  0  0  0  0  0  0  0
   25.8976  -20.4693  -12.0249 C   0  0  0  0  0  0  0  0  0  0  0  0
   25.3498  -19.3797  -11.7242 O   0  0  0  0  0  0  0  0  0  0  0  0
   25.2673  -21.2447  -13.0355 N   0  0  0  0  0  0  0  0  0  0  0  0
   24.0922  -20.7292  -13.7088 C   0  0  1  0  0  0  0  0  0  0  0  0
   24.5317  -20.4388  -15.1511 C   0  0  0  0  0  0  0  0  0  0  0  0
   23.7474  -19.2435  -15.5732 C   0  0  0  0  0  0  0  0  0  0  0  0
   22.9148  -18.7083  -14.8252 O   0  0  0  0  0  0  0  0  0  0  0  0
   22.9593  -21.6454  -13.6791 C   0  0  0  0  0  0  0  0  0  0  0  0
   23.1359  -22.8684  -13.5103 O   0  0  0  0  0  0  0  0  0  0  0  0
   23.9407  -18.6976  -16.8389 O   0  0  0  0  0  0  0  0  0  0  0  0
   17.5023  -23.7366   -9.6596 N   0  0  0  0  0  0  0  0  0  0  0  0
   18.6042  -24.4235   -9.1026 C   0  0  0  0  0  0  0  0  0  0  0  0
   18.4505  -25.6366   -8.6932 N   0  0  0  0  0  0  0  0  0  0  0  0
   19.8505  -23.7504   -9.0123 N   0  0  0  0  0  0  0  0  0  0  0  0
   19.9923  -22.4158   -9.5468 C   0  0  0  0  0  0  0  0  0  0  0  0
   19.6133  -22.4727  -11.0325 C   0  0  0  0  0  0  0  0  0  0  0  0
   20.7432  -21.8485  -11.7773 C   0  0  0  0  0  0  0  0  0  0  0  0
   20.4792  -21.8061  -13.2615 C   0  0  2  0  0  0  0  0  0  0  0  0
   21.6511  -21.1438  -13.8430 N   0  0  0  0  0  0  0  0  0  0  0  0
   19.2386  -21.1459  -13.6575 C   0  0  0  0  0  0  0  0  0  0  0  0
   18.0345  -21.8639  -13.5940 O   0  0  0  0  0  0  0  0  0  0  0  0
   19.2061  -19.9611  -14.0526 O   0  0  0  0  0  0  0  0  0  0  0  0
  2  1  1  6
  3  2  1  0
  4  3  1  0
  5  2  1  0
  5  6  2  0
  7  5  1  0
  8  7  1  0
  9 10  1  0
  8  9  1  6
 10 14  1  0
 10 11  2  0
 12  8  1  0
 13 12  2  0
 16 15  1  0
 17 16  2  0
 18 16  1  0
 19 18  1  0
 20 19  1  0
 21 20  1  0
 22 21  1  1
 22 23  1  0
 23 12  1  0
 24 22  1  0
 25 24  1  0
 26 24  2  0
M  END
$$$$
