CDR.pdb
     RDKit          3D

 26 25  0  0  1  0  0  0  0  0999 V2000
   29.8825   -8.6588  -18.6624 N   0  0  0  0  0  0  0  0  0  0  0  0
   28.5239   -8.5609  -19.1638 C   0  0  1  0  0  0  0  0  0  0  0  0
   27.8521   -9.8885  -18.8840 C   0  0  0  0  0  0  0  0  0  0  0  0
   28.7966  -11.2695  -19.5714 S   0  0  0  0  0  0  0  0  0  0  0  0
   27.7518   -7.5126  -18.4448 C   0  0  0  0  0  0  0  0  0  0  0  0
   27.4580   -7.6592  -17.2324 O   0  0  0  0  0  0  0  0  0  0  0  0
   27.3112   -6.3144  -19.0695 N   0  0  0  0  0  0  0  0  0  0  0  0
   26.6195   -5.3090  -18.2882 C   0  0  1  0  0  0  0  0  0  0  0  0
   26.6669   -4.0237  -19.1269 C   0  0  0  0  0  0  0  0  0  0  0  0
   26.1826   -2.9410  -18.2239 C   0  0  0  0  0  0  0  0  0  0  0  0
   26.0608   -3.1129  -17.0012 O   0  0  0  0  0  0  0  0  0  0  0  0
   25.2467   -5.6729  -17.9616 C   0  0  0  0  0  0  0  0  0  0  0  0
   24.5400   -6.2889  -18.7842 O   0  0  0  0  0  0  0  0  0  0  0  0
   25.8528   -1.6947  -18.7485 O   0  0  0  0  0  0  0  0  0  0  0  0
   21.4280  -11.9585  -16.2402 N   0  0  0  0  0  0  0  0  0  0  0  0
   20.3711  -11.0782  -15.9169 C   0  0  0  0  0  0  0  0  0  0  0  0
   19.1828  -11.5515  -15.7534 N   0  0  0  0  0  0  0  0  0  0  0  0
   20.6556   -9.6942  -15.7820 N   0  0  0  0  0  0  0  0  0  0  0  0
   21.9724   -9.1920  -16.0995 C   0  0  0  0  0  0  0  0  0  0  0  0
   21.9411   -7.6693  -15.9130 C   0  0  0  0  0  0  0  0  0  0  0  0
   23.2533   -7.1603  -16.4029 C   0  0  0  0  0  0  0  0  0  0  0  0
   23.3377   -5.6570  -16.3163 C   0  0  2  0  0  0  0  0  0  0  0  0
   24.7126   -5.3249  -16.7032 N   0  0  0  0  0  0  0  0  0  0  0  0
   22.9930   -5.0849  -15.0179 C   0  0  0  0  0  0  0  0  0  0  0  0
   23.9769   -5.0200  -14.0193 O   0  0  0  0  0  0  0  0  0  0  0  0
   21.8512   -4.6488  -14.7592 O   0  0  0  0  0  0  0  0  0  0  0  0
  2  1  1  1
  3  2  1  0
  4  3  1  0
  5  2  1  0
  5  6  2  0
  7  5  1  0
  8  7  1  0
  9 10  1  0
  8  9  1  6
 10 14  1  0
 10 11  2  0
 12  8  1  0
 13 12  2  0
 16 15  1  0
 17 16  2  0
 18 16  1  0
 19 18  1  0
 20 19  1  0
 21 20  1  0
 22 21  1  1
 22 23  1  0
 23 12  1  0
 24 22  1  0
 25 24  1  0
 26 24  2  0
M  END
$$$$
