CDR.pdb
     RDKit          3D

 26 25  0  0  1  0  0  0  0  0999 V2000
   13.1775  -10.9008   -9.6364 N   0  0  0  0  0  0  0  0  0  0  0  0
   14.4749  -10.3365   -9.3116 C   0  0  1  0  0  0  0  0  0  0  0  0
   15.4812  -10.9737  -10.2462 C   0  0  0  0  0  0  0  0  0  0  0  0
   15.8694  -12.6690   -9.7494 S   0  0  0  0  0  0  0  0  0  0  0  0
   14.5081   -8.8699   -9.5567 C   0  0  0  0  0  0  0  0  0  0  0  0
   13.8580   -8.3699  -10.5080 O   0  0  0  0  0  0  0  0  0  0  0  0
   15.2578   -7.9703   -8.7515 N   0  0  0  0  0  0  0  0  0  0  0  0
   15.2755   -6.5583   -9.0772 C   0  0  1  0  0  0  0  0  0  0  0  0
   14.9546   -5.8242   -7.7674 C   0  0  0  0  0  0  0  0  0  0  0  0
   14.8068   -4.3888   -8.1414 C   0  0  0  0  0  0  0  0  0  0  0  0
   14.1563   -4.0346   -9.1367 O   0  0  0  0  0  0  0  0  0  0  0  0
   16.5449   -6.1086   -9.6341 C   0  0  0  0  0  0  0  0  0  0  0  0
   17.6239   -6.5614   -9.2026 O   0  0  0  0  0  0  0  0  0  0  0  0
   15.4083   -3.4031   -7.3643 O   0  0  0  0  0  0  0  0  0  0  0  0
   22.1185   -7.9602  -14.6433 N   0  0  0  0  0  0  0  0  0  0  0  0
   21.8181   -8.3919  -13.3320 C   0  0  0  0  0  0  0  0  0  0  0  0
   22.7215   -9.0060  -12.6469 N   0  0  0  0  0  0  0  0  0  0  0  0
   20.5237   -8.1329  -12.8103 N   0  0  0  0  0  0  0  0  0  0  0  0
   19.5472   -7.4327  -13.6123 C   0  0  0  0  0  0  0  0  0  0  0  0
   19.3288   -6.0554  -12.9722 C   0  0  0  0  0  0  0  0  0  0  0  0
   18.1290   -6.1855  -12.0976 C   0  0  0  0  0  0  0  0  0  0  0  0
   17.7513   -4.8688  -11.4668 C   0  0  2  0  0  0  0  0  0  0  0  0
   16.5528   -5.1521  -10.6709 N   0  0  0  0  0  0  0  0  0  0  0  0
   17.5271   -3.7692  -12.4010 C   0  0  0  0  0  0  0  0  0  0  0  0
   18.6115   -2.9601  -12.7736 O   0  0  0  0  0  0  0  0  0  0  0  0
   16.4026   -3.5187  -12.8842 O   0  0  0  0  0  0  0  0  0  0  0  0
  2  1  1  6
  3  2  1  0
  4  3  1  0
  5  2  1  0
  5  6  2  0
  7  5  1  0
  8  7  1  0
  9 10  1  0
  8  9  1  1
 10 14  1  0
 10 11  2  0
 12  8  1  0
 13 12  2  0
 16 15  1  0
 17 16  2  0
 18 16  1  0
 19 18  1  0
 20 19  1  0
 21 20  1  0
 22 21  1  6
 22 23  1  0
 23 12  1  0
 24 22  1  0
 25 24  1  0
 26 24  2  0
M  END
$$$$
