CDR.pdb
     RDKit          3D

 26 25  0  0  1  0  0  0  0  0999 V2000
   20.4388  -15.1795  -16.0823 N   0  0  0  0  0  0  0  0  0  0  0  0
   19.3155  -14.4088  -16.5833 C   0  0  1  0  0  0  0  0  0  0  0  0
   18.0869  -14.8784  -15.8338 C   0  0  0  0  0  0  0  0  0  0  0  0
   17.7251  -16.6177  -16.1736 S   0  0  0  0  0  0  0  0  0  0  0  0
   19.4806  -12.9580  -16.3004 C   0  0  0  0  0  0  0  0  0  0  0  0
   19.6437  -12.5551  -15.1219 O   0  0  0  0  0  0  0  0  0  0  0  0
   19.4634  -11.9668  -17.3187 N   0  0  0  0  0  0  0  0  0  0  0  0
   19.6595  -10.5741  -16.9693 C   0  0  1  0  0  0  0  0  0  0  0  0
   19.9913   -9.8568  -18.2857 C   0  0  0  0  0  0  0  0  0  0  0  0
   20.2989   -8.4487  -17.9052 C   0  0  0  0  0  0  0  0  0  0  0  0
   21.1754   -8.1715  -17.0722 O   0  0  0  0  0  0  0  0  0  0  0  0
   18.5023   -9.9717  -16.3199 C   0  0  0  0  0  0  0  0  0  0  0  0
   17.3537  -10.4055  -16.5388 O   0  0  0  0  0  0  0  0  0  0  0  0
   19.5934   -7.4012  -18.4904 O   0  0  0  0  0  0  0  0  0  0  0  0
   13.6127  -11.3884  -10.1947 N   0  0  0  0  0  0  0  0  0  0  0  0
   13.0399  -10.5960  -11.2146 C   0  0  0  0  0  0  0  0  0  0  0  0
   11.7928  -10.7466  -11.5059 N   0  0  0  0  0  0  0  0  0  0  0  0
   13.8622   -9.6552  -11.8879 N   0  0  0  0  0  0  0  0  0  0  0  0
   15.0508  -10.0975  -12.5796 C   0  0  0  0  0  0  0  0  0  0  0  0
   15.6788   -8.8672  -13.2477 C   0  0  0  0  0  0  0  0  0  0  0  0
   16.8843   -9.3553  -13.9754 C   0  0  0  0  0  0  0  0  0  0  0  0
   17.5623   -8.2469  -14.7411 C   0  0  2  0  0  0  0  0  0  0  0  0
   18.6836   -8.8877  -15.4356 N   0  0  0  0  0  0  0  0  0  0  0  0
   18.0076   -7.1126  -13.9367 C   0  0  0  0  0  0  0  0  0  0  0  0
   17.0522   -6.2114  -13.4422 O   0  0  0  0  0  0  0  0  0  0  0  0
   19.2113   -6.9114  -13.6698 O   0  0  0  0  0  0  0  0  0  0  0  0
  2  1  1  1
  3  2  1  0
  4  3  1  0
  5  2  1  0
  5  6  2  0
  7  5  1  0
  8  7  1  0
  9 10  1  0
  8  9  1  6
 10 14  1  0
 10 11  2  0
 12  8  1  0
 13 12  2  0
 16 15  1  0
 17 16  2  0
 18 16  1  0
 19 18  1  0
 20 19  1  0
 21 20  1  0
 22 21  1  1
 22 23  1  0
 23 12  1  0
 24 22  1  0
 25 24  1  0
 26 24  2  0
M  END
$$$$
