CDR.pdb
     RDKit          3D

 26 25  0  0  1  0  0  0  0  0999 V2000
   19.6013  -14.2454  -15.8767 N   0  0  0  0  0  0  0  0  0  0  0  0
   18.9185  -13.1144  -16.4779 C   0  0  1  0  0  0  0  0  0  0  0  0
   17.4560  -13.4889  -16.5903 C   0  0  0  0  0  0  0  0  0  0  0  0
   17.1779  -14.6947  -17.9095 S   0  0  0  0  0  0  0  0  0  0  0  0
   19.0022  -11.9058  -15.6150 C   0  0  0  0  0  0  0  0  0  0  0  0
   18.5980  -11.9447  -14.4264 O   0  0  0  0  0  0  0  0  0  0  0  0
   19.5296  -10.6675  -16.0713 N   0  0  0  0  0  0  0  0  0  0  0  0
   19.5049   -9.5108  -15.1987 C   0  0  1  0  0  0  0  0  0  0  0  0
   20.7900   -8.7288  -15.5065 C   0  0  0  0  0  0  0  0  0  0  0  0
   20.7750   -7.5590  -14.5827 C   0  0  0  0  0  0  0  0  0  0  0  0
   20.4060   -6.4346  -14.9552 O   0  0  0  0  0  0  0  0  0  0  0  0
   18.3252   -8.6745  -15.3793 C   0  0  0  0  0  0  0  0  0  0  0  0
   17.8566   -8.4745  -16.5177 O   0  0  0  0  0  0  0  0  0  0  0  0
   21.1830   -7.7125  -13.2609 O   0  0  0  0  0  0  0  0  0  0  0  0
   11.3752  -10.9844  -12.9869 N   0  0  0  0  0  0  0  0  0  0  0  0
   12.2651  -10.8753  -11.8948 C   0  0  0  0  0  0  0  0  0  0  0  0
   12.0502  -11.5744  -10.8329 N   0  0  0  0  0  0  0  0  0  0  0  0
   13.3724   -9.9941  -12.0051 N   0  0  0  0  0  0  0  0  0  0  0  0
   13.6172   -9.2912  -13.2432 C   0  0  0  0  0  0  0  0  0  0  0  0
   14.8923   -8.4587  -13.0550 C   0  0  0  0  0  0  0  0  0  0  0  0
   15.3497   -8.0784  -14.4214 C   0  0  0  0  0  0  0  0  0  0  0  0
   16.5607   -7.1806  -14.3762 C   0  0  2  0  0  0  0  0  0  0  0  0
   17.7078   -8.0860  -14.2557 N   0  0  0  0  0  0  0  0  0  0  0  0
   16.5559   -6.1769  -13.3157 C   0  0  0  0  0  0  0  0  0  0  0  0
   15.5666   -5.1817  -13.3242 O   0  0  0  0  0  0  0  0  0  0  0  0
   17.4018   -6.1689  -12.3964 O   0  0  0  0  0  0  0  0  0  0  0  0
  2  1  1  1
  3  2  1  0
  4  3  1  0
  5  2  1  0
  5  6  2  0
  7  5  1  0
  8  7  1  0
  9 10  1  0
  8  9  1  6
 10 14  1  0
 10 11  2  0
 12  8  1  0
 13 12  2  0
 16 15  1  0
 17 16  2  0
 18 16  1  0
 19 18  1  0
 20 19  1  0
 21 20  1  0
 22 21  1  1
 22 23  1  0
 23 12  1  0
 24 22  1  0
 25 24  1  0
 26 24  2  0
M  END
$$$$
