CDR.pdb
     RDKit          3D

 26 25  0  0  1  0  0  0  0  0999 V2000
   27.1787  -16.7438  -17.2821 N   0  0  0  0  0  0  0  0  0  0  0  0
   26.6383  -18.0116  -16.8265 C   0  0  1  0  0  0  0  0  0  0  0  0
   27.1667  -18.2405  -15.4264 C   0  0  0  0  0  0  0  0  0  0  0  0
   28.9514  -18.5347  -15.4291 S   0  0  0  0  0  0  0  0  0  0  0  0
   25.1541  -17.9717  -16.7398 C   0  0  0  0  0  0  0  0  0  0  0  0
   24.5893  -17.4048  -15.7716 O   0  0  0  0  0  0  0  0  0  0  0  0
   24.3082  -18.5574  -17.7203 N   0  0  0  0  0  0  0  0  0  0  0  0
   22.8771  -18.6065  -17.4979 C   0  0  1  0  0  0  0  0  0  0  0  0
   22.2381  -18.6104  -18.8941 C   0  0  0  0  0  0  0  0  0  0  0  0
   22.5038  -17.2560  -19.4572 C   0  0  0  0  0  0  0  0  0  0  0  0
   23.2982  -17.0798  -20.3937 O   0  0  0  0  0  0  0  0  0  0  0  0
   22.4512  -19.7642  -16.7221 C   0  0  0  0  0  0  0  0  0  0  0  0
   23.1593  -20.7897  -16.6704 O   0  0  0  0  0  0  0  0  0  0  0  0
   21.8515  -16.1448  -18.9308 O   0  0  0  0  0  0  0  0  0  0  0  0
   25.6744  -21.6713  -12.3799 N   0  0  0  0  0  0  0  0  0  0  0  0
   25.1244  -21.1936  -11.1693 C   0  0  0  0  0  0  0  0  0  0  0  0
   25.9105  -20.9075  -10.1881 N   0  0  0  0  0  0  0  0  0  0  0  0
   23.7161  -21.0440  -11.0742 N   0  0  0  0  0  0  0  0  0  0  0  0
   22.8895  -21.2156  -12.2465 C   0  0  0  0  0  0  0  0  0  0  0  0
   22.0466  -19.9434  -12.4051 C   0  0  0  0  0  0  0  0  0  0  0  0
   22.1284  -19.5634  -13.8439 C   0  0  0  0  0  0  0  0  0  0  0  0
   21.0792  -20.2661  -14.6685 C   0  0  2  0  0  0  0  0  0  0  0  0
   21.2266  -19.7243  -16.0231 N   0  0  0  0  0  0  0  0  0  0  0  0
   19.7087  -20.1316  -14.1833 C   0  0  0  0  0  0  0  0  0  0  0  0
   18.9447  -19.0295  -14.5971 O   0  0  0  0  0  0  0  0  0  0  0  0
   19.1864  -20.9627  -13.4105 O   0  0  0  0  0  0  0  0  0  0  0  0
  2  1  1  1
  3  2  1  0
  4  3  1  0
  5  2  1  0
  5  6  2  0
  7  5  1  0
  8  7  1  0
  9 10  1  0
  8  9  1  6
 10 14  1  0
 10 11  2  0
 12  8  1  0
 13 12  2  0
 16 15  1  0
 17 16  2  0
 18 16  1  0
 19 18  1  0
 20 19  1  0
 21 20  1  0
 22 21  1  1
 22 23  1  0
 23 12  1  0
 24 22  1  0
 25 24  1  0
 26 24  2  0
M  END
$$$$
