CDR.pdb
     RDKit          3D

 26 25  0  0  1  0  0  0  0  0999 V2000
   15.2367  -12.3654  -15.3801 N   0  0  0  0  0  0  0  0  0  0  0  0
   14.4922  -11.1313  -15.5523 C   0  0  1  0  0  0  0  0  0  0  0  0
   13.1693  -11.3091  -14.8381 C   0  0  0  0  0  0  0  0  0  0  0  0
   12.0466  -12.3751  -15.7735 S   0  0  0  0  0  0  0  0  0  0  0  0
   15.1888   -9.9813  -14.9166 C   0  0  0  0  0  0  0  0  0  0  0  0
   15.3374   -9.9388  -13.6701 O   0  0  0  0  0  0  0  0  0  0  0  0
   15.7136   -8.8903  -15.6610 N   0  0  0  0  0  0  0  0  0  0  0  0
   16.3509   -7.7883  -14.9685 C   0  0  1  0  0  0  0  0  0  0  0  0
   17.4022   -7.2363  -15.9421 C   0  0  0  0  0  0  0  0  0  0  0  0
   18.0697   -6.1188  -15.2156 C   0  0  0  0  0  0  0  0  0  0  0  0
   18.5544   -6.2701  -14.0836 O   0  0  0  0  0  0  0  0  0  0  0  0
   15.4187   -6.7469  -14.5562 C   0  0  0  0  0  0  0  0  0  0  0  0
   14.4204   -6.4758  -15.2529 O   0  0  0  0  0  0  0  0  0  0  0  0
   18.1619   -4.8625  -15.8075 O   0  0  0  0  0  0  0  0  0  0  0  0
    8.8553   -6.7532  -10.7027 N   0  0  0  0  0  0  0  0  0  0  0  0
    9.8835   -7.0996   -9.7976 C   0  0  0  0  0  0  0  0  0  0  0  0
    9.5917   -7.7761   -8.7394 N   0  0  0  0  0  0  0  0  0  0  0  0
   11.2110   -6.6884  -10.0863 N   0  0  0  0  0  0  0  0  0  0  0  0
   11.5975   -6.3941  -11.4468 C   0  0  0  0  0  0  0  0  0  0  0  0
   13.0457   -5.8881  -11.4142 C   0  0  0  0  0  0  0  0  0  0  0  0
   13.4002   -5.5422  -12.8199 C   0  0  0  0  0  0  0  0  0  0  0  0
   14.7804   -4.9421  -12.9171 C   0  0  2  0  0  0  0  0  0  0  0  0
   15.6479   -6.0392  -13.3576 N   0  0  0  0  0  0  0  0  0  0  0  0
   15.2802   -4.3215  -11.6935 C   0  0  0  0  0  0  0  0  0  0  0  0
   16.4333   -4.8431  -11.0871 O   0  0  0  0  0  0  0  0  0  0  0  0
   14.7194   -3.3397  -11.1623 O   0  0  0  0  0  0  0  0  0  0  0  0
  2  1  1  1
  3  2  1  0
  4  3  1  0
  5  2  1  0
  5  6  2  0
  7  5  1  0
  8  7  1  0
  9 10  1  0
  8  9  1  6
 10 14  1  0
 10 11  2  0
 12  8  1  0
 13 12  2  0
 16 15  1  0
 17 16  2  0
 18 16  1  0
 19 18  1  0
 20 19  1  0
 21 20  1  0
 22 21  1  1
 22 23  1  0
 23 12  1  0
 24 22  1  0
 25 24  1  0
 26 24  2  0
M  END
$$$$
