PGG.pdb
     RDKit          3D

 16 16  0  0  1  0  0  0  0  0999 V2000
   23.4406  -23.0204  -14.9288 N   0  0  0  0  0  0  0  0  0  0  0  0
   24.3581  -23.8453  -15.6538 C   0  0  0  0  0  0  0  0  0  0  0  0
   25.6911  -23.7818  -14.9157 C   0  0  0  0  0  0  0  0  0  0  0  0
   25.5322  -22.4516  -14.1686 C   0  0  0  0  0  0  0  0  0  0  0  0
   24.0715  -22.5876  -13.7208 C   0  0  1  0  0  0  0  0  0  0  0  0
   23.5407  -21.3328  -13.1849 C   0  0  0  0  0  0  0  0  0  0  0  0
   24.0351  -20.8691  -12.1258 O   0  0  0  0  0  0  0  0  0  0  0  0
   22.4891  -20.6016  -13.7981 N   0  0  0  0  0  0  0  0  0  0  0  0
   22.6671  -19.2930  -14.3785 C   0  0  0  0  0  0  0  0  0  0  0  0
   21.6059  -19.0432  -15.3921 C   0  0  0  0  0  0  0  0  0  0  0  0
   21.4797  -17.9141  -15.9337 O   0  0  0  0  0  0  0  0  0  0  0  0
   20.7066  -20.0684  -15.7774 N   0  0  0  0  0  0  0  0  0  0  0  0
   19.6861  -19.7712  -16.7918 C   0  0  0  0  0  0  0  0  0  0  0  0
   18.3985  -19.4204  -16.1580 C   0  0  0  0  0  0  0  0  0  0  0  0
   18.2708  -18.4200  -15.4007 O   0  0  0  0  0  0  0  0  0  0  0  0
   17.3138  -20.2427  -16.4279 O   0  0  0  0  0  0  0  0  0  0  0  0
  1  2  1  0
  1  5  1  0
  2  3  1  0
  4  3  1  0
  5  4  1  0
  6  7  2  0
  5  6  1  6
  8  6  1  0
  9  8  1  0
 10  9  1  0
 10 12  1  0
 11 10  2  0
 13 12  1  0
 14 13  1  0
 15 14  2  0
 16 14  1  0
M  END
$$$$
