PGG.pdb
     RDKit          3D

 16 16  0  0  1  0  0  0  0  0999 V2000
   26.7547  -19.5250   -7.5614 N   0  0  0  0  0  0  0  0  0  0  0  0
   26.7288  -19.5704   -6.1313 C   0  0  0  0  0  0  0  0  0  0  0  0
   28.0862  -20.0985   -5.6792 C   0  0  0  0  0  0  0  0  0  0  0  0
   28.5284  -20.8469   -6.9430 C   0  0  0  0  0  0  0  0  0  0  0  0
   28.0781  -19.8356   -8.0046 C   0  0  1  0  0  0  0  0  0  0  0  0
   28.1409  -20.3925   -9.3572 C   0  0  0  0  0  0  0  0  0  0  0  0
   29.2435  -20.8181   -9.7867 O   0  0  0  0  0  0  0  0  0  0  0  0
   27.0173  -20.4808  -10.2211 N   0  0  0  0  0  0  0  0  0  0  0  0
   27.0946  -20.9755  -11.5739 C   0  0  0  0  0  0  0  0  0  0  0  0
   25.8232  -21.6622  -11.9323 C   0  0  0  0  0  0  0  0  0  0  0  0
   25.7022  -22.2724  -13.0263 O   0  0  0  0  0  0  0  0  0  0  0  0
   24.7120  -21.6493  -11.0530 N   0  0  0  0  0  0  0  0  0  0  0  0
   23.3776  -21.9428  -11.5934 C   0  0  0  0  0  0  0  0  0  0  0  0
   22.5732  -20.7094  -11.7118 C   0  0  0  0  0  0  0  0  0  0  0  0
   22.6517  -19.7708  -10.8731 O   0  0  0  0  0  0  0  0  0  0  0  0
   21.7124  -20.6151  -12.7961 O   0  0  0  0  0  0  0  0  0  0  0  0
  1  2  1  0
  1  5  1  0
  2  3  1  0
  4  3  1  0
  5  4  1  0
  6  7  2  0
  5  6  1  6
  8  6  1  0
  9  8  1  0
 10  9  1  0
 10 12  1  0
 11 10  2  0
 13 12  1  0
 14 13  1  0
 15 14  2  0
 16 14  1  0
M  END
$$$$
