PGG.pdb
     RDKit          3D

 16 16  0  0  1  0  0  0  0  0999 V2000
   22.8942  -18.7824  -15.1064 N   0  0  0  0  0  0  0  0  0  0  0  0
   23.7378  -19.5449  -15.9752 C   0  0  0  0  0  0  0  0  0  0  0  0
   23.8960  -18.7390  -17.2602 C   0  0  0  0  0  0  0  0  0  0  0  0
   22.6385  -17.8631  -17.1958 C   0  0  0  0  0  0  0  0  0  0  0  0
   22.6574  -17.5054  -15.7044 C   0  0  1  0  0  0  0  0  0  0  0  0
   21.4122  -16.8657  -15.2757 C   0  0  0  0  0  0  0  0  0  0  0  0
   21.1017  -15.7520  -15.7702 O   0  0  0  0  0  0  0  0  0  0  0  0
   20.5256  -17.4358  -14.3241 N   0  0  0  0  0  0  0  0  0  0  0  0
   19.1561  -17.0124  -14.1637 C   0  0  0  0  0  0  0  0  0  0  0  0
   18.2386  -18.0906  -14.6237 C   0  0  0  0  0  0  0  0  0  0  0  0
   16.9921  -17.9175  -14.6409 O   0  0  0  0  0  0  0  0  0  0  0  0
   18.7407  -19.3434  -15.0557 N   0  0  0  0  0  0  0  0  0  0  0  0
   17.8030  -20.3296  -15.6096 C   0  0  0  0  0  0  0  0  0  0  0  0
   16.9833  -20.9365  -14.5409 C   0  0  0  0  0  0  0  0  0  0  0  0
   17.1490  -20.6552  -13.3227 O   0  0  0  0  0  0  0  0  0  0  0  0
   16.0067  -21.8432  -14.9279 O   0  0  0  0  0  0  0  0  0  0  0  0
  1  2  1  0
  1  5  1  0
  2  3  1  0
  4  3  1  0
  5  4  1  0
  6  7  2  0
  5  6  1  1
  8  6  1  0
  9  8  1  0
 10  9  1  0
 10 12  1  0
 11 10  2  0
 13 12  1  0
 14 13  1  0
 15 14  2  0
 16 14  1  0
M  END
$$$$
