PGG.pdb
     RDKit          3D

 16 16  0  0  1  0  0  0  0  0999 V2000
   26.5052  -19.9728  -15.3551 N   0  0  0  0  0  0  0  0  0  0  0  0
   27.1032  -18.8434  -15.9992 C   0  0  0  0  0  0  0  0  0  0  0  0
   28.3884  -18.5287  -15.2409 C   0  0  0  0  0  0  0  0  0  0  0  0
   28.0731  -19.1673  -13.8823 C   0  0  0  0  0  0  0  0  0  0  0  0
   27.4091  -20.4640  -14.3620 C   0  0  1  0  0  0  0  0  0  0  0  0
   26.7597  -21.1877  -13.2674 C   0  0  0  0  0  0  0  0  0  0  0  0
   26.1024  -22.2261  -13.5336 O   0  0  0  0  0  0  0  0  0  0  0  0
   26.8298  -20.7808  -11.9087 N   0  0  0  0  0  0  0  0  0  0  0  0
   25.9978  -21.3381  -10.8705 C   0  0  0  0  0  0  0  0  0  0  0  0
   24.7065  -20.6000  -10.8095 C   0  0  0  0  0  0  0  0  0  0  0  0
   24.4643  -19.7938   -9.8739 O   0  0  0  0  0  0  0  0  0  0  0  0
   23.7120  -20.7828  -11.8024 N   0  0  0  0  0  0  0  0  0  0  0  0
   22.4388  -20.0613  -11.6710 C   0  0  0  0  0  0  0  0  0  0  0  0
   21.2949  -20.9555  -11.9436 C   0  0  0  0  0  0  0  0  0  0  0  0
   21.4476  -22.1626  -12.2755 O   0  0  0  0  0  0  0  0  0  0  0  0
   20.0231  -20.4142  -11.8203 O   0  0  0  0  0  0  0  0  0  0  0  0
  1  2  1  0
  1  5  1  0
  2  3  1  0
  4  3  1  0
  5  4  1  0
  6  7  2  0
  5  6  1  1
  8  6  1  0
  9  8  1  0
 10  9  1  0
 10 12  1  0
 11 10  2  0
 13 12  1  0
 14 13  1  0
 15 14  2  0
 16 14  1  0
M  END
$$$$
