PGG.pdb
     RDKit          3D

 16 16  0  0  1  0  0  0  0  0999 V2000
   25.4936  -22.1683  -13.3381 N   0  0  0  0  0  0  0  0  0  0  0  0
   26.5585  -22.0434  -14.2859 C   0  0  0  0  0  0  0  0  0  0  0  0
   27.5460  -21.0319  -13.7137 C   0  0  0  0  0  0  0  0  0  0  0  0
   26.6287  -20.2571  -12.7591 C   0  0  0  0  0  0  0  0  0  0  0  0
   25.8381  -21.4289  -12.1637 C   0  0  1  0  0  0  0  0  0  0  0  0
   24.6857  -20.9753  -11.3828 C   0  0  0  0  0  0  0  0  0  0  0  0
   24.8712  -20.1499  -10.4525 O   0  0  0  0  0  0  0  0  0  0  0  0
   23.3570  -21.4181  -11.6174 N   0  0  0  0  0  0  0  0  0  0  0  0
   22.1934  -20.6064  -11.3566 C   0  0  0  0  0  0  0  0  0  0  0  0
   21.7458  -19.9491  -12.6150 C   0  0  0  0  0  0  0  0  0  0  0  0
   20.6543  -19.3247  -12.6674 O   0  0  0  0  0  0  0  0  0  0  0  0
   22.5347  -20.0066  -13.7909 N   0  0  0  0  0  0  0  0  0  0  0  0
   22.0542  -19.3246  -15.0004 C   0  0  0  0  0  0  0  0  0  0  0  0
   21.1717  -20.2086  -15.7892 C   0  0  0  0  0  0  0  0  0  0  0  0
   21.0042  -21.4248  -15.5006 O   0  0  0  0  0  0  0  0  0  0  0  0
   20.5208  -19.6468  -16.8785 O   0  0  0  0  0  0  0  0  0  0  0  0
  1  2  1  0
  1  5  1  0
  2  3  1  0
  4  3  1  0
  5  4  1  0
  6  7  2  0
  5  6  1  6
  8  6  1  0
  9  8  1  0
 10  9  1  0
 10 12  1  0
 11 10  2  0
 13 12  1  0
 14 13  1  0
 15 14  2  0
 16 14  1  0
M  END
$$$$
