PGG.pdb
     RDKit          3D

 16 16  0  0  1  0  0  0  0  0999 V2000
   27.1668  -21.1950  -13.0515 N   0  0  0  0  0  0  0  0  0  0  0  0
   28.1872  -20.6841  -13.9151 C   0  0  0  0  0  0  0  0  0  0  0  0
   29.3341  -20.2220  -13.0225 C   0  0  0  0  0  0  0  0  0  0  0  0
   28.5847  -19.9904  -11.7044 C   0  0  0  0  0  0  0  0  0  0  0  0
   27.6719  -21.2230  -11.7141 C   0  0  1  0  0  0  0  0  0  0  0  0
   26.6363  -21.1496  -10.6818 C   0  0  0  0  0  0  0  0  0  0  0  0
   26.9710  -20.8460   -9.5084 O   0  0  0  0  0  0  0  0  0  0  0  0
   25.2617  -21.4040  -10.9314 N   0  0  0  0  0  0  0  0  0  0  0  0
   24.1923  -20.6783  -10.2908 C   0  0  0  0  0  0  0  0  0  0  0  0
   23.1735  -20.2856  -11.3028 C   0  0  0  0  0  0  0  0  0  0  0  0
   22.1112  -19.7037  -10.9610 O   0  0  0  0  0  0  0  0  0  0  0  0
   23.3692  -20.5550  -12.6802 N   0  0  0  0  0  0  0  0  0  0  0  0
   22.4110  -20.0101  -13.6517 C   0  0  0  0  0  0  0  0  0  0  0  0
   21.9183  -21.0682  -14.5573 C   0  0  0  0  0  0  0  0  0  0  0  0
   21.2170  -20.8123  -15.5738 O   0  0  0  0  0  0  0  0  0  0  0  0
   22.2586  -22.3774  -14.2476 O   0  0  0  0  0  0  0  0  0  0  0  0
  1  2  1  0
  1  5  1  0
  2  3  1  0
  4  3  1  0
  5  4  1  0
  6  7  2  0
  5  6  1  1
  8  6  1  0
  9  8  1  0
 10  9  1  0
 10 12  1  0
 11 10  2  0
 13 12  1  0
 14 13  1  0
 15 14  2  0
 16 14  1  0
M  END
$$$$
