PGG.pdb
     RDKit          3D

 16 16  0  0  1  0  0  0  0  0999 V2000
   27.8009  -20.3476  -12.7589 N   0  0  0  0  0  0  0  0  0  0  0  0
   29.2153  -20.1324  -12.7286 C   0  0  0  0  0  0  0  0  0  0  0  0
   29.7572  -20.9093  -11.5334 C   0  0  0  0  0  0  0  0  0  0  0  0
   28.4925  -21.0113  -10.6715 C   0  0  0  0  0  0  0  0  0  0  0  0
   27.4656  -21.3220  -11.7676 C   0  0  1  0  0  0  0  0  0  0  0  0
   26.0897  -21.2266  -11.2762 C   0  0  0  0  0  0  0  0  0  0  0  0
   25.6947  -22.0547  -10.4163 O   0  0  0  0  0  0  0  0  0  0  0  0
   25.1660  -20.2431  -11.7190 N   0  0  0  0  0  0  0  0  0  0  0  0
   23.8748  -20.0371  -11.1098 C   0  0  0  0  0  0  0  0  0  0  0  0
   22.7996  -20.3792  -12.0808 C   0  0  0  0  0  0  0  0  0  0  0  0
   21.5858  -20.2308  -11.7828 O   0  0  0  0  0  0  0  0  0  0  0  0
   23.1101  -20.8818  -13.3689 N   0  0  0  0  0  0  0  0  0  0  0  0
   22.0182  -21.0928  -14.3292 C   0  0  0  0  0  0  0  0  0  0  0  0
   21.3879  -22.4139  -14.1296 C   0  0  0  0  0  0  0  0  0  0  0  0
   21.9609  -23.4896  -14.4539 O   0  0  0  0  0  0  0  0  0  0  0  0
   20.1212  -22.4333  -13.5633 O   0  0  0  0  0  0  0  0  0  0  0  0
  1  2  1  0
  1  5  1  0
  2  3  1  0
  4  3  1  0
  5  4  1  0
  6  7  2  0
  5  6  1  1
  8  6  1  0
  9  8  1  0
 10  9  1  0
 10 12  1  0
 11 10  2  0
 13 12  1  0
 14 13  1  0
 15 14  2  0
 16 14  1  0
M  END
$$$$
