PGG.pdb
     RDKit          3D

 16 16  0  0  1  0  0  0  0  0999 V2000
   26.5684  -18.1604  -16.6318 N   0  0  0  0  0  0  0  0  0  0  0  0
   26.7455  -17.0768  -17.5496 C   0  0  0  0  0  0  0  0  0  0  0  0
   28.1224  -17.2507  -18.1817 C   0  0  0  0  0  0  0  0  0  0  0  0
   28.8141  -18.1040  -17.1110 C   0  0  0  0  0  0  0  0  0  0  0  0
   27.6666  -19.0647  -16.7752 C   0  0  1  0  0  0  0  0  0  0  0  0
   27.9468  -19.8601  -15.5783 C   0  0  0  0  0  0  0  0  0  0  0  0
   28.7983  -20.7827  -15.6496 O   0  0  0  0  0  0  0  0  0  0  0  0
   27.3062  -19.6480  -14.3289 N   0  0  0  0  0  0  0  0  0  0  0  0
   27.6945  -20.3226  -13.1144 C   0  0  0  0  0  0  0  0  0  0  0  0
   26.5269  -20.4178  -12.1959 C   0  0  0  0  0  0  0  0  0  0  0  0
   25.6634  -19.5034  -12.1484 O   0  0  0  0  0  0  0  0  0  0  0  0
   26.3528  -21.5398  -11.3481 N   0  0  0  0  0  0  0  0  0  0  0  0
   25.2024  -21.5658  -10.4345 C   0  0  0  0  0  0  0  0  0  0  0  0
   25.5129  -20.8596   -9.1747 C   0  0  0  0  0  0  0  0  0  0  0  0
   26.6188  -20.2856   -8.9790 O   0  0  0  0  0  0  0  0  0  0  0  0
   24.5301  -20.8480   -8.1950 O   0  0  0  0  0  0  0  0  0  0  0  0
  1  2  1  0
  1  5  1  0
  2  3  1  0
  4  3  1  0
  5  4  1  0
  6  7  2  0
  5  6  1  1
  8  6  1  0
  9  8  1  0
 10  9  1  0
 10 12  1  0
 11 10  2  0
 13 12  1  0
 14 13  1  0
 15 14  2  0
 16 14  1  0
M  END
$$$$
