PGG.pdb
     RDKit          3D

 16 16  0  0  1  0  0  0  0  0999 V2000
   26.2495  -20.7844  -12.4282 N   0  0  0  0  0  0  0  0  0  0  0  0
   27.2030  -21.4128  -11.5658 C   0  0  0  0  0  0  0  0  0  0  0  0
   28.5251  -20.6763  -11.7540 C   0  0  0  0  0  0  0  0  0  0  0  0
   28.3116  -20.0736  -13.1482 C   0  0  0  0  0  0  0  0  0  0  0  0
   26.8520  -19.6240  -13.0071 C   0  0  1  0  0  0  0  0  0  0  0  0
   26.2717  -19.2260  -14.2910 C   0  0  0  0  0  0  0  0  0  0  0  0
   26.6484  -18.1481  -14.8180 O   0  0  0  0  0  0  0  0  0  0  0  0
   25.2983  -19.9944  -14.9828 N   0  0  0  0  0  0  0  0  0  0  0  0
   24.4582  -19.4567  -16.0248 C   0  0  0  0  0  0  0  0  0  0  0  0
   23.1180  -19.1232  -15.4691 C   0  0  0  0  0  0  0  0  0  0  0  0
   22.4736  -18.1256  -15.8856 O   0  0  0  0  0  0  0  0  0  0  0  0
   22.5281  -19.9184  -14.4552 N   0  0  0  0  0  0  0  0  0  0  0  0
   21.1989  -19.5497  -13.9493 C   0  0  0  0  0  0  0  0  0  0  0  0
   20.1347  -20.2185  -14.7256 C   0  0  0  0  0  0  0  0  0  0  0  0
   20.3875  -20.9746  -15.7029 O   0  0  0  0  0  0  0  0  0  0  0  0
   18.8232  -19.9836  -14.3374 O   0  0  0  0  0  0  0  0  0  0  0  0
  1  2  1  0
  1  5  1  0
  2  3  1  0
  4  3  1  0
  5  4  1  0
  6  7  2  0
  5  6  1  6
  8  6  1  0
  9  8  1  0
 10  9  1  0
 10 12  1  0
 11 10  2  0
 13 12  1  0
 14 13  1  0
 15 14  2  0
 16 14  1  0
M  END
$$$$
