PGG.pdb
     RDKit          3D

 16 16  0  0  1  0  0  0  0  0999 V2000
   26.1041  -18.7648  -14.5504 N   0  0  0  0  0  0  0  0  0  0  0  0
   26.7366  -17.7166  -15.2914 C   0  0  0  0  0  0  0  0  0  0  0  0
   28.1823  -18.1446  -15.5205 C   0  0  0  0  0  0  0  0  0  0  0  0
   28.3625  -19.1426  -14.3696 C   0  0  0  0  0  0  0  0  0  0  0  0
   27.0119  -19.8649  -14.4493 C   0  0  1  0  0  0  0  0  0  0  0  0
   26.7795  -20.7276  -13.2894 C   0  0  0  0  0  0  0  0  0  0  0  0
   26.7506  -21.9735  -13.4571 O   0  0  0  0  0  0  0  0  0  0  0  0
   26.5830  -20.2340  -11.9725 N   0  0  0  0  0  0  0  0  0  0  0  0
   26.1120  -21.0517  -10.8816 C   0  0  0  0  0  0  0  0  0  0  0  0
   24.6437  -20.8721  -10.7151 C   0  0  0  0  0  0  0  0  0  0  0  0
   24.0256  -21.4285   -9.7704 O   0  0  0  0  0  0  0  0  0  0  0  0
   23.8984  -20.0698  -11.6145 N   0  0  0  0  0  0  0  0  0  0  0  0
   22.4679  -19.8568  -11.3554 C   0  0  0  0  0  0  0  0  0  0  0  0
   21.6581  -20.9463  -11.9382 C   0  0  0  0  0  0  0  0  0  0  0  0
   20.4898  -21.2048  -11.5396 O   0  0  0  0  0  0  0  0  0  0  0  0
   22.2353  -21.6901  -12.9577 O   0  0  0  0  0  0  0  0  0  0  0  0
  1  2  1  0
  1  5  1  0
  2  3  1  0
  4  3  1  0
  5  4  1  0
  6  7  2  0
  5  6  1  1
  8  6  1  0
  9  8  1  0
 10  9  1  0
 10 12  1  0
 11 10  2  0
 13 12  1  0
 14 13  1  0
 15 14  2  0
 16 14  1  0
M  END
$$$$
