PGG.pdb
     RDKit          3D

 16 16  0  0  1  0  0  0  0  0999 V2000
   23.7793  -10.6265  -16.8328 N   0  0  0  0  0  0  0  0  0  0  0  0
   24.9163  -11.3280  -16.3200 C   0  0  0  0  0  0  0  0  0  0  0  0
   24.3844  -12.5215  -15.5336 C   0  0  0  0  0  0  0  0  0  0  0  0
   22.9699  -12.0288  -15.2034 C   0  0  0  0  0  0  0  0  0  0  0  0
   22.6048  -11.3915  -16.5500 C   0  0  1  0  0  0  0  0  0  0  0  0
   21.3782  -10.5964  -16.4684 C   0  0  0  0  0  0  0  0  0  0  0  0
   20.2986  -11.1753  -16.1843 O   0  0  0  0  0  0  0  0  0  0  0  0
   21.3364   -9.1949  -16.6937 N   0  0  0  0  0  0  0  0  0  0  0  0
   20.1484   -8.3977  -16.5100 C   0  0  0  0  0  0  0  0  0  0  0  0
   20.3661   -7.4151  -15.4131 C   0  0  0  0  0  0  0  0  0  0  0  0
   19.5356   -6.4956  -15.1922 O   0  0  0  0  0  0  0  0  0  0  0  0
   21.5142   -7.4854  -14.5853 N   0  0  0  0  0  0  0  0  0  0  0  0
   21.6711   -6.5004  -13.5065 C   0  0  0  0  0  0  0  0  0  0  0  0
   22.1813   -5.2179  -14.0331 C   0  0  0  0  0  0  0  0  0  0  0  0
   23.1869   -5.1533  -14.7915 O   0  0  0  0  0  0  0  0  0  0  0  0
   21.5057   -4.0649  -13.6592 O   0  0  0  0  0  0  0  0  0  0  0  0
  1  2  1  0
  1  5  1  0
  2  3  1  0
  4  3  1  0
  5  4  1  0
  6  7  2  0
  5  6  1  1
  8  6  1  0
  9  8  1  0
 10  9  1  0
 10 12  1  0
 11 10  2  0
 13 12  1  0
 14 13  1  0
 15 14  2  0
 16 14  1  0
M  END
$$$$
