PGG.pdb
     RDKit          3D

 16 16  0  0  1  0  0  0  0  0999 V2000
   19.5553   -8.6609  -16.3890 N   0  0  0  0  0  0  0  0  0  0  0  0
   18.4611   -8.8404  -17.2936 C   0  0  0  0  0  0  0  0  0  0  0  0
   18.8716   -8.2065  -18.6185 C   0  0  0  0  0  0  0  0  0  0  0  0
   19.9406   -7.2186  -18.1347 C   0  0  0  0  0  0  0  0  0  0  0  0
   20.6583   -8.1064  -17.1104 C   0  0  1  0  0  0  0  0  0  0  0  0
   21.5935   -7.3445  -16.2807 C   0  0  0  0  0  0  0  0  0  0  0  0
   22.6513   -6.9095  -16.8033 O   0  0  0  0  0  0  0  0  0  0  0  0
   21.3730   -7.0653  -14.9059 N   0  0  0  0  0  0  0  0  0  0  0  0
   22.2828   -6.2896  -14.0988 C   0  0  0  0  0  0  0  0  0  0  0  0
   21.7670   -4.9009  -13.9521 C   0  0  0  0  0  0  0  0  0  0  0  0
   22.3283   -4.0790  -13.1818 O   0  0  0  0  0  0  0  0  0  0  0  0
   20.6295   -4.4631  -14.6749 N   0  0  0  0  0  0  0  0  0  0  0  0
   20.2214   -3.0556  -14.5689 C   0  0  0  0  0  0  0  0  0  0  0  0
   20.3104   -2.3801  -15.8797 C   0  0  0  0  0  0  0  0  0  0  0  0
   21.1118   -2.7558  -16.7782 O   0  0  0  0  0  0  0  0  0  0  0  0
   19.4679   -1.2985  -16.0945 O   0  0  0  0  0  0  0  0  0  0  0  0
  1  2  1  0
  1  5  1  0
  2  3  1  0
  4  3  1  0
  5  4  1  0
  6  7  2  0
  5  6  1  1
  8  6  1  0
  9  8  1  0
 10  9  1  0
 10 12  1  0
 11 10  2  0
 13 12  1  0
 14 13  1  0
 15 14  2  0
 16 14  1  0
M  END
$$$$
