LLP.pdb
     RDKit          3D

 24 24  0  0  1  0  0  0  0  0999 V2000
    8.9454  -14.7236   18.5353 C   0  0  0  0  0  0  0  0  0  0  0  0
    7.9184  -13.8702   19.2741 C   0  0  2  0  0  0  0  0  0  0  0  0
    7.6989  -12.5613   18.5310 C   0  0  0  0  0  0  0  0  0  0  0  0
    8.4498  -13.5679   20.6644 C   0  0  0  0  0  0  0  0  0  0  0  0
    8.6761  -14.8617   21.4087 C   0  0  2  0  0  0  0  0  0  0  0  0
    7.5115  -15.7211   21.3322 N   0  0  0  0  0  0  0  0  0  0  0  0
    8.9903  -14.5247   22.8401 C   0  0  0  0  0  0  0  0  0  0  0  0
   10.0539  -13.8793   23.0680 O   0  0  0  0  0  0  0  0  0  0  0  0
    5.4036  -12.4504   26.5534 C   0  0  0  0  0  0  0  0  0  0  0  0
    6.6072  -12.7112   25.6133 C   0  0  1  0  0  0  0  0  0  0  0  0
    7.5904  -11.6030   25.9762 C   0  0  0  0  0  0  0  0  0  0  0  0
    7.1763  -14.0542   25.8971 C   0  0  0  0  0  0  0  0  0  0  0  0
    8.4663  -14.4386   25.2971 C   0  0  2  0  0  0  0  0  0  0  0  0
    8.1560  -14.8982   23.8969 N   0  0  0  0  0  0  0  0  0  0  0  0
    9.3411  -15.4103   25.9284 C   0  0  0  0  0  0  0  0  0  0  0  0
    9.6035  -16.4646   25.2237 O   0  0  0  0  0  0  0  0  0  0  0  0
    9.9326  -15.2949   27.2167 N   0  0  0  0  0  0  0  0  0  0  0  0
    9.7547  -14.1948   28.1432 C   0  0  0  0  0  0  0  0  0  0  0  0
   11.2575  -13.9699   28.4714 C   0  0  0  0  0  0  0  0  0  0  0  0
   11.6248  -15.3791   28.8761 C   0  0  0  0  0  0  0  0  0  0  0  0
   10.8903  -16.2015   27.8003 C   0  0  1  0  0  0  0  0  0  0  0  0
   10.3592  -17.3853   28.4525 C   0  0  0  0  0  0  0  0  0  0  0  0
    9.1356  -17.5674   28.5873 O   0  0  0  0  0  0  0  0  0  0  0  0
   11.2488  -18.3638   28.9516 O   0  0  0  0  0  0  0  0  0  0  0  0
  2  1  1  6
  2  3  1  0
  4  2  1  0
  5  4  1  0
  5  6  1  1
  7  8  2  0
  7  5  1  0
 10  9  1  1
 11 10  1  0
 12 10  1  0
 13 12  1  1
 13 14  1  0
 14  7  1  0
 15 13  1  0
 16 15  2  0
 17 15  1  0
 18 17  1  0
 19 18  1  0
 19 20  1  0
 20 21  1  0
 21 17  1  0
 21 22  1  1
 23 22  2  0
 24 22  1  0
M  END
$$$$
