LLP.pdb
     RDKit          3D

 24 24  0  0  1  0  0  0  0  0999 V2000
    9.0628  -14.8075   18.6723 C   0  0  0  0  0  0  0  0  0  0  0  0
    7.8144  -14.2016   19.3076 C   0  0  2  0  0  0  0  0  0  0  0  0
    7.3945  -12.9556   18.5431 C   0  0  0  0  0  0  0  0  0  0  0  0
    8.1377  -13.8184   20.7412 C   0  0  0  0  0  0  0  0  0  0  0  0
    8.4741  -15.0606   21.5304 C   0  0  2  0  0  0  0  0  0  0  0  0
    7.3910  -16.0225   21.4806 N   0  0  0  0  0  0  0  0  0  0  0  0
    8.7488  -14.6482   22.9501 C   0  0  0  0  0  0  0  0  0  0  0  0
    9.7993  -13.9793   23.1709 O   0  0  0  0  0  0  0  0  0  0  0  0
    4.9545  -12.6408   26.4046 C   0  0  0  0  0  0  0  0  0  0  0  0
    6.2711  -12.8274   25.6094 C   0  0  1  0  0  0  0  0  0  0  0  0
    7.1232  -11.6400   26.0459 C   0  0  0  0  0  0  0  0  0  0  0  0
    6.9029  -14.1168   25.9917 C   0  0  0  0  0  0  0  0  0  0  0  0
    8.1972  -14.4963   25.3978 C   0  0  2  0  0  0  0  0  0  0  0  0
    7.8927  -14.9783   24.0039 N   0  0  0  0  0  0  0  0  0  0  0  0
    9.0813  -15.4504   26.0430 C   0  0  0  0  0  0  0  0  0  0  0  0
    9.2437  -16.5719   25.4163 O   0  0  0  0  0  0  0  0  0  0  0  0
    9.7797  -15.2533   27.2663 N   0  0  0  0  0  0  0  0  0  0  0  0
    9.7575  -14.0537   28.0793 C   0  0  0  0  0  0  0  0  0  0  0  0
   11.2940  -13.9205   28.2741 C   0  0  0  0  0  0  0  0  0  0  0  0
   11.5867  -15.3065   28.8012 C   0  0  0  0  0  0  0  0  0  0  0  0
   10.7107  -16.1712   27.8749 C   0  0  1  0  0  0  0  0  0  0  0  0
   10.1465  -17.2349   28.6866 C   0  0  0  0  0  0  0  0  0  0  0  0
    8.9247  -17.3136   28.9089 O   0  0  0  0  0  0  0  0  0  0  0  0
   11.0009  -18.2131   29.2444 O   0  0  0  0  0  0  0  0  0  0  0  0
  2  1  1  6
  2  3  1  0
  4  2  1  0
  5  4  1  0
  5  6  1  1
  7  8  2  0
  7  5  1  0
 10  9  1  1
 11 10  1  0
 12 10  1  0
 13 12  1  1
 13 14  1  0
 14  7  1  0
 15 13  1  0
 16 15  2  0
 17 15  1  0
 18 17  1  0
 19 18  1  0
 19 20  1  0
 20 21  1  0
 21 17  1  0
 21 22  1  1
 23 22  2  0
 24 22  1  0
M  END
$$$$
