LLP.pdb
     RDKit          3D

 24 24  0  0  1  0  0  0  0  0999 V2000
   10.7152  -19.6754   23.0430 C   0  0  0  0  0  0  0  0  0  0  0  0
    9.7483  -18.5824   22.5963 C   0  0  2  0  0  0  0  0  0  0  0  0
    8.5000  -19.2075   21.9928 C   0  0  0  0  0  0  0  0  0  0  0  0
   10.4343  -17.7294   21.5434 C   0  0  0  0  0  0  0  0  0  0  0  0
    9.6636  -16.4449   21.3562 C   0  0  2  0  0  0  0  0  0  0  0  0
   10.2459  -15.6325   20.3065 N   0  0  0  0  0  0  0  0  0  0  0  0
    9.6730  -15.7032   22.6642 C   0  0  0  0  0  0  0  0  0  0  0  0
   10.7476  -15.1277   23.0013 O   0  0  0  0  0  0  0  0  0  0  0  0
    7.3368  -11.8412   25.7318 C   0  0  0  0  0  0  0  0  0  0  0  0
    6.9859  -13.3154   26.0545 C   0  0  1  0  0  0  0  0  0  0  0  0
    5.4894  -13.2706   26.3461 C   0  0  0  0  0  0  0  0  0  0  0  0
    7.2818  -14.1658   24.8724 C   0  0  0  0  0  0  0  0  0  0  0  0
    8.5988  -14.8171   24.7570 C   0  0  2  0  0  0  0  0  0  0  0  0
    8.5511  -15.6367   23.4944 N   0  0  0  0  0  0  0  0  0  0  0  0
    9.1416  -15.6336   25.8279 C   0  0  0  0  0  0  0  0  0  0  0  0
    9.1534  -16.9092   25.6049 O   0  0  0  0  0  0  0  0  0  0  0  0
    9.6643  -15.1592   27.0626 N   0  0  0  0  0  0  0  0  0  0  0  0
    9.5141  -13.8200   27.5960 C   0  0  0  0  0  0  0  0  0  0  0  0
   11.0078  -13.5839   27.9563 C   0  0  0  0  0  0  0  0  0  0  0  0
   11.2466  -14.8179   28.7959 C   0  0  0  0  0  0  0  0  0  0  0  0
   10.5174  -15.8915   27.9659 C   0  0  1  0  0  0  0  0  0  0  0  0
    9.8639  -16.7884   28.9024 C   0  0  0  0  0  0  0  0  0  0  0  0
    8.6258  -16.8233   29.0231 O   0  0  0  0  0  0  0  0  0  0  0  0
   10.6472  -17.6497   29.7040 O   0  0  0  0  0  0  0  0  0  0  0  0
  2  1  1  6
  2  3  1  0
  4  2  1  0
  5  4  1  0
  5  6  1  6
  7  8  2  0
  7  5  1  0
 10  9  1  6
 11 10  1  0
 12 10  1  0
 13 12  1  1
 13 14  1  0
 14  7  1  0
 15 13  1  0
 16 15  2  0
 17 15  1  0
 18 17  1  0
 19 18  1  0
 19 20  1  0
 20 21  1  0
 21 17  1  0
 21 22  1  1
 23 22  2  0
 24 22  1  0
M  END
$$$$
