LLP.pdb
     RDKit          3D

 24 24  0  0  1  0  0  0  0  0999 V2000
    8.4568  -18.9501   20.2220 C   0  0  0  0  0  0  0  0  0  0  0  0
    9.8659  -18.9831   20.8072 C   0  0  2  0  0  0  0  0  0  0  0  0
   10.2148  -20.3979   21.2432 C   0  0  0  0  0  0  0  0  0  0  0  0
    9.9095  -18.0664   22.0173 C   0  0  0  0  0  0  0  0  0  0  0  0
    9.4552  -16.6833   21.6174 C   0  0  2  0  0  0  0  0  0  0  0  0
   10.3074  -16.1301   20.5836 N   0  0  0  0  0  0  0  0  0  0  0  0
    9.4807  -15.8138   22.8438 C   0  0  0  0  0  0  0  0  0  0  0  0
   10.5936  -15.3199   23.1863 O   0  0  0  0  0  0  0  0  0  0  0  0
    7.4133  -11.8441   26.0202 C   0  0  0  0  0  0  0  0  0  0  0  0
    6.9210  -13.2870   26.2963 C   0  0  1  0  0  0  0  0  0  0  0  0
    5.4341  -13.1076   26.5854 C   0  0  0  0  0  0  0  0  0  0  0  0
    7.1406  -14.1255   25.0894 C   0  0  0  0  0  0  0  0  0  0  0  0
    8.4439  -14.7836   24.8890 C   0  0  2  0  0  0  0  0  0  0  0  0
    8.3332  -15.5455   23.5946 N   0  0  0  0  0  0  0  0  0  0  0  0
    9.0222  -15.6523   25.8984 C   0  0  0  0  0  0  0  0  0  0  0  0
    9.0180  -16.9159   25.6151 O   0  0  0  0  0  0  0  0  0  0  0  0
    9.5943  -15.2393   27.1333 N   0  0  0  0  0  0  0  0  0  0  0  0
    9.5036  -13.9157   27.7168 C   0  0  0  0  0  0  0  0  0  0  0  0
   11.0137  -13.7410   28.0421 C   0  0  0  0  0  0  0  0  0  0  0  0
   11.2342  -15.0112   28.8312 C   0  0  0  0  0  0  0  0  0  0  0  0
   10.4471  -16.0304   27.9858 C   0  0  1  0  0  0  0  0  0  0  0  0
    9.7901  -16.9384   28.9091 C   0  0  0  0  0  0  0  0  0  0  0  0
    8.5542  -16.9465   29.0545 O   0  0  0  0  0  0  0  0  0  0  0  0
   10.5674  -17.8423   29.6686 O   0  0  0  0  0  0  0  0  0  0  0  0
  2  1  1  1
  2  3  1  0
  4  2  1  0
  5  4  1  0
  5  6  1  6
  7  8  2  0
  7  5  1  0
 10  9  1  6
 11 10  1  0
 12 10  1  0
 13 12  1  1
 13 14  1  0
 14  7  1  0
 15 13  1  0
 16 15  2  0
 17 15  1  0
 18 17  1  0
 19 18  1  0
 19 20  1  0
 20 21  1  0
 21 17  1  0
 21 22  1  1
 23 22  2  0
 24 22  1  0
M  END
$$$$
