LLP.pdb
     RDKit          3D

 24 24  0  0  1  0  0  0  0  0999 V2000
    7.3084  -20.1831   28.0924 C   0  0  0  0  0  0  0  0  0  0  0  0
    7.7775  -20.8915   26.8247 C   0  0  2  0  0  0  0  0  0  0  0  0
    9.2340  -21.3051   26.9688 C   0  0  0  0  0  0  0  0  0  0  0  0
    7.6484  -19.9298   25.6563 C   0  0  0  0  0  0  0  0  0  0  0  0
    6.2365  -19.3988   25.5954 C   0  0  2  0  0  0  0  0  0  0  0  0
    5.3918  -20.2483   24.7795 N   0  0  0  0  0  0  0  0  0  0  0  0
    6.2883  -18.0066   25.0296 C   0  0  0  0  0  0  0  0  0  0  0  0
    6.1554  -17.8796   23.7783 O   0  0  0  0  0  0  0  0  0  0  0  0
    5.8170  -12.2148   26.5036 C   0  0  0  0  0  0  0  0  0  0  0  0
    6.9591  -13.1195   25.9765 C   0  0  1  0  0  0  0  0  0  0  0  0
    8.1769  -12.6552   26.7687 C   0  0  0  0  0  0  0  0  0  0  0  0
    6.6373  -14.5417   26.2625 C   0  0  0  0  0  0  0  0  0  0  0  0
    6.7982  -15.5511   25.2008 C   0  0  2  0  0  0  0  0  0  0  0  0
    6.4751  -16.8790   25.8334 N   0  0  0  0  0  0  0  0  0  0  0  0
    8.0341  -15.6761   24.4492 C   0  0  0  0  0  0  0  0  0  0  0  0
    8.8753  -16.5507   24.9013 O   0  0  0  0  0  0  0  0  0  0  0  0
    8.3811  -14.9487   23.2773 N   0  0  0  0  0  0  0  0  0  0  0  0
    7.7188  -13.7580   22.7832 C   0  0  0  0  0  0  0  0  0  0  0  0
    7.5595  -14.2203   21.3076 C   0  0  0  0  0  0  0  0  0  0  0  0
    8.9977  -14.5831   21.0167 C   0  0  0  0  0  0  0  0  0  0  0  0
    9.3919  -15.3123   22.3151 C   0  0  1  0  0  0  0  0  0  0  0  0
   10.7585  -14.9307   22.6243 C   0  0  0  0  0  0  0  0  0  0  0  0
   11.6890  -15.1110   21.8180 O   0  0  0  0  0  0  0  0  0  0  0  0
   11.0501  -14.3372   23.8736 O   0  0  0  0  0  0  0  0  0  0  0  0
  2  1  1  1
  2  3  1  0
  4  2  1  0
  5  4  1  0
  5  6  1  6
  7  8  2  0
  7  5  1  0
 10  9  1  1
 11 10  1  0
 12 10  1  0
 13 12  1  1
 13 14  1  0
 14  7  1  0
 15 13  1  0
 16 15  2  0
 17 15  1  0
 18 17  1  0
 19 18  1  0
 19 20  1  0
 20 21  1  0
 21 17  1  0
 21 22  1  1
 23 22  2  0
 24 22  1  0
M  END
$$$$
