LLP.pdb
     RDKit          3D

 24 24  0  0  1  0  0  0  0  0999 V2000
    7.8252  -18.7586   20.6629 C   0  0  0  0  0  0  0  0  0  0  0  0
    9.3406  -18.5840   20.7065 C   0  0  2  0  0  0  0  0  0  0  0  0
   10.0143  -19.9345   20.8959 C   0  0  0  0  0  0  0  0  0  0  0  0
    9.6913  -17.6860   21.8800 C   0  0  0  0  0  0  0  0  0  0  0  0
    8.9567  -16.3739   21.7466 C   0  0  2  0  0  0  0  0  0  0  0  0
    9.4513  -15.6086   20.6194 N   0  0  0  0  0  0  0  0  0  0  0  0
    9.1407  -15.6068   23.0268 C   0  0  0  0  0  0  0  0  0  0  0  0
   10.2166  -14.9572   23.1687 O   0  0  0  0  0  0  0  0  0  0  0  0
    5.2388  -12.7949   25.9639 C   0  0  0  0  0  0  0  0  0  0  0  0
    6.5120  -13.1909   25.1747 C   0  0  1  0  0  0  0  0  0  0  0  0
    7.4081  -11.9634   25.3035 C   0  0  0  0  0  0  0  0  0  0  0  0
    7.1346  -14.3843   25.8043 C   0  0  0  0  0  0  0  0  0  0  0  0
    8.4441  -14.8597   25.3236 C   0  0  2  0  0  0  0  0  0  0  0  0
    8.1756  -15.5954   24.0371 N   0  0  0  0  0  0  0  0  0  0  0  0
    9.3132  -15.6709   26.1570 C   0  0  0  0  0  0  0  0  0  0  0  0
    9.6197  -16.8337   25.6765 O   0  0  0  0  0  0  0  0  0  0  0  0
    9.8561  -15.2967   27.4172 N   0  0  0  0  0  0  0  0  0  0  0  0
    9.5659  -14.0772   28.1445 C   0  0  0  0  0  0  0  0  0  0  0  0
   11.0364  -13.6791   28.4543 C   0  0  0  0  0  0  0  0  0  0  0  0
   11.5005  -14.9675   29.0940 C   0  0  0  0  0  0  0  0  0  0  0  0
   10.8642  -16.0132   28.1589 C   0  0  1  0  0  0  0  0  0  0  0  0
   10.4083  -17.1127   28.9907 C   0  0  0  0  0  0  0  0  0  0  0  0
   11.2025  -17.8232   29.6333 O   0  0  0  0  0  0  0  0  0  0  0  0
    9.0254  -17.3917   29.0796 O   0  0  0  0  0  0  0  0  0  0  0  0
  2  1  1  1
  2  3  1  0
  4  2  1  0
  5  4  1  0
  5  6  1  6
  7  8  2  0
  7  5  1  0
 10  9  1  1
 11 10  1  0
 12 10  1  0
 13 12  1  1
 13 14  1  0
 14  7  1  0
 15 13  1  0
 16 15  2  0
 17 15  1  0
 18 17  1  0
 19 18  1  0
 19 20  1  0
 20 21  1  0
 21 17  1  0
 21 22  1  1
 23 22  2  0
 24 22  1  0
M  END
$$$$
