LLP.pdb
     RDKit          3D

 24 24  0  0  1  0  0  0  0  0999 V2000
    8.6771  -20.6031   22.3589 C   0  0  0  0  0  0  0  0  0  0  0  0
    7.9343  -20.0941   23.5911 C   0  0  2  0  0  0  0  0  0  0  0  0
    8.2843  -20.9491   24.7993 C   0  0  0  0  0  0  0  0  0  0  0  0
    6.4411  -20.1910   23.3310 C   0  0  0  0  0  0  0  0  0  0  0  0
    5.6991  -19.3447   24.3372 C   0  0  2  0  0  0  0  0  0  0  0  0
    4.2678  -19.5526   24.2429 N   0  0  0  0  0  0  0  0  0  0  0  0
    6.0417  -17.9043   24.0746 C   0  0  0  0  0  0  0  0  0  0  0  0
    5.6042  -17.3853   23.0075 O   0  0  0  0  0  0  0  0  0  0  0  0
    7.0033  -13.0921   27.4781 C   0  0  0  0  0  0  0  0  0  0  0  0
    6.6742  -13.6443   26.0684 C   0  0  1  0  0  0  0  0  0  0  0  0
    7.3622  -12.6587   25.1293 C   0  0  0  0  0  0  0  0  0  0  0  0
    7.2393  -15.0113   25.9269 C   0  0  0  0  0  0  0  0  0  0  0  0
    7.1346  -15.7109   24.6340 C   0  0  2  0  0  0  0  0  0  0  0  0
    6.8123  -17.1456   24.9594 N   0  0  0  0  0  0  0  0  0  0  0  0
    8.2120  -15.6795   23.6611 C   0  0  0  0  0  0  0  0  0  0  0  0
    9.0605  -16.6547   23.7377 O   0  0  0  0  0  0  0  0  0  0  0  0
    8.3978  -14.7010   22.6458 N   0  0  0  0  0  0  0  0  0  0  0  0
    7.6344  -13.4795   22.4862 C   0  0  0  0  0  0  0  0  0  0  0  0
    7.3367  -13.6313   20.9680 C   0  0  0  0  0  0  0  0  0  0  0  0
    8.7494  -13.8293   20.4685 C   0  0  0  0  0  0  0  0  0  0  0  0
    9.3135  -14.7871   21.5350 C   0  0  1  0  0  0  0  0  0  0  0  0
   10.6875  -14.3897   21.7860 C   0  0  0  0  0  0  0  0  0  0  0  0
   11.0252  -13.8252   22.8422 O   0  0  0  0  0  0  0  0  0  0  0  0
   11.6763  -14.6470   20.8092 O   0  0  0  0  0  0  0  0  0  0  0  0
  2  1  1  6
  2  3  1  0
  4  2  1  0
  5  4  1  0
  5  6  1  6
  7  8  2  0
  7  5  1  0
 10  9  1  1
 11 10  1  0
 12 10  1  0
 13 12  1  1
 13 14  1  0
 14  7  1  0
 15 13  1  0
 16 15  2  0
 17 15  1  0
 18 17  1  0
 19 18  1  0
 19 20  1  0
 20 21  1  0
 21 17  1  0
 21 22  1  1
 23 22  2  0
 24 22  1  0
M  END
$$$$
