LLP.pdb
     RDKit          3D

 24 24  0  0  1  0  0  0  0  0999 V2000
    9.2647  -19.9762   21.6022 C   0  0  0  0  0  0  0  0  0  0  0  0
    9.1020  -18.6344   20.8936 C   0  0  2  0  0  0  0  0  0  0  0  0
    9.8131  -18.6666   19.5495 C   0  0  0  0  0  0  0  0  0  0  0  0
    9.7241  -17.5515   21.7579 C   0  0  0  0  0  0  0  0  0  0  0  0
    8.9293  -16.2759   21.6160 C   0  0  2  0  0  0  0  0  0  0  0  0
    9.3764  -15.5042   20.4734 N   0  0  0  0  0  0  0  0  0  0  0  0
    9.0921  -15.4842   22.8839 C   0  0  0  0  0  0  0  0  0  0  0  0
   10.1440  -14.7934   23.0099 O   0  0  0  0  0  0  0  0  0  0  0  0
    5.1946  -12.7152   25.8382 C   0  0  0  0  0  0  0  0  0  0  0  0
    6.4895  -13.0843   25.0717 C   0  0  1  0  0  0  0  0  0  0  0  0
    7.3793  -11.8605   25.2641 C   0  0  0  0  0  0  0  0  0  0  0  0
    7.0972  -14.2964   25.6796 C   0  0  0  0  0  0  0  0  0  0  0  0
    8.4043  -14.7750   25.1953 C   0  0  2  0  0  0  0  0  0  0  0  0
    8.1329  -15.4936   23.8999 N   0  0  0  0  0  0  0  0  0  0  0  0
    9.2665  -15.6018   26.0205 C   0  0  0  0  0  0  0  0  0  0  0  0
    9.6124  -16.7370   25.5023 O   0  0  0  0  0  0  0  0  0  0  0  0
    9.7644  -15.2689   27.3106 N   0  0  0  0  0  0  0  0  0  0  0  0
    9.4389  -14.0790   28.0713 C   0  0  0  0  0  0  0  0  0  0  0  0
   10.8946  -13.6801   28.4436 C   0  0  0  0  0  0  0  0  0  0  0  0
   11.3499  -14.9870   29.0515 C   0  0  0  0  0  0  0  0  0  0  0  0
   10.7545  -16.0034   28.0589 C   0  0  1  0  0  0  0  0  0  0  0  0
   10.2821  -17.1361   28.8352 C   0  0  0  0  0  0  0  0  0  0  0  0
    9.0704  -17.3967   28.9458 O   0  0  0  0  0  0  0  0  0  0  0  0
   11.2171  -17.9720   29.4873 O   0  0  0  0  0  0  0  0  0  0  0  0
  2  1  1  1
  2  3  1  0
  4  2  1  0
  5  4  1  0
  5  6  1  6
  7  8  2  0
  7  5  1  0
 10  9  1  1
 11 10  1  0
 12 10  1  0
 13 12  1  1
 13 14  1  0
 14  7  1  0
 15 13  1  0
 16 15  2  0
 17 15  1  0
 18 17  1  0
 19 18  1  0
 19 20  1  0
 20 21  1  0
 21 17  1  0
 21 22  1  1
 23 22  2  0
 24 22  1  0
M  END
$$$$
