LLP.pdb
     RDKit          3D

 24 24  0  0  1  0  0  0  0  0999 V2000
    6.9871  -20.3578   27.9538 C   0  0  0  0  0  0  0  0  0  0  0  0
    7.4753  -20.9946   26.6557 C   0  0  2  0  0  0  0  0  0  0  0  0
    8.9136  -21.4629   26.8151 C   0  0  0  0  0  0  0  0  0  0  0  0
    7.4123  -19.9535   25.5517 C   0  0  0  0  0  0  0  0  0  0  0  0
    6.0541  -19.2946   25.5583 C   0  0  2  0  0  0  0  0  0  0  0  0
    5.0959  -20.0612   24.7867 N   0  0  0  0  0  0  0  0  0  0  0  0
    6.2062  -17.9120   24.9873 C   0  0  0  0  0  0  0  0  0  0  0  0
    6.0759  -17.7794   23.7362 O   0  0  0  0  0  0  0  0  0  0  0  0
    5.9060  -12.1800   25.9461 C   0  0  0  0  0  0  0  0  0  0  0  0
    7.1730  -13.0704   25.8995 C   0  0  1  0  0  0  0  0  0  0  0  0
    8.0639  -12.4809   26.9882 C   0  0  0  0  0  0  0  0  0  0  0  0
    6.8026  -14.4765   26.2056 C   0  0  0  0  0  0  0  0  0  0  0  0
    6.8869  -15.4975   25.1461 C   0  0  2  0  0  0  0  0  0  0  0  0
    6.4810  -16.7990   25.7860 N   0  0  0  0  0  0  0  0  0  0  0  0
    8.1055  -15.7071   24.3851 C   0  0  0  0  0  0  0  0  0  0  0  0
    8.9049  -16.6129   24.8513 O   0  0  0  0  0  0  0  0  0  0  0  0
    8.4762  -15.0295   23.1908 N   0  0  0  0  0  0  0  0  0  0  0  0
    7.8147  -13.8706   22.6253 C   0  0  0  0  0  0  0  0  0  0  0  0
    7.7005  -14.4014   21.1686 C   0  0  0  0  0  0  0  0  0  0  0  0
    9.1499  -14.7596   20.9330 C   0  0  0  0  0  0  0  0  0  0  0  0
    9.5167  -15.4242   22.2735 C   0  0  1  0  0  0  0  0  0  0  0  0
   10.8702  -15.0126   22.6012 C   0  0  0  0  0  0  0  0  0  0  0  0
   11.8285  -15.2423   21.8414 O   0  0  0  0  0  0  0  0  0  0  0  0
   11.1162  -14.3311   23.8149 O   0  0  0  0  0  0  0  0  0  0  0  0
  2  1  1  1
  2  3  1  0
  4  2  1  0
  5  4  1  0
  5  6  1  6
  7  8  2  0
  7  5  1  0
 10  9  1  1
 11 10  1  0
 12 10  1  0
 13 12  1  1
 13 14  1  0
 14  7  1  0
 15 13  1  0
 16 15  2  0
 17 15  1  0
 18 17  1  0
 19 18  1  0
 19 20  1  0
 20 21  1  0
 21 17  1  0
 21 22  1  1
 23 22  2  0
 24 22  1  0
M  END
$$$$
