LLP.pdb
     RDKit          3D

 24 24  0  0  1  0  0  0  0  0999 V2000
    9.7944  -20.0260   22.3805 C   0  0  0  0  0  0  0  0  0  0  0  0
    9.1321  -18.8012   21.7558 C   0  0  2  0  0  0  0  0  0  0  0  0
    8.8270  -19.0661   20.2895 C   0  0  0  0  0  0  0  0  0  0  0  0
   10.0901  -17.6271   21.8586 C   0  0  0  0  0  0  0  0  0  0  0  0
    9.3250  -16.3370   21.6872 C   0  0  2  0  0  0  0  0  0  0  0  0
    9.8653  -15.5481   20.5979 N   0  0  0  0  0  0  0  0  0  0  0  0
    9.4047  -15.5748   22.9810 C   0  0  0  0  0  0  0  0  0  0  0  0
   10.4482  -14.8926   23.1934 O   0  0  0  0  0  0  0  0  0  0  0  0
    5.2947  -12.8592   25.7402 C   0  0  0  0  0  0  0  0  0  0  0  0
    6.6306  -13.2070   25.0367 C   0  0  1  0  0  0  0  0  0  0  0  0
    7.5070  -11.9895   25.3129 C   0  0  0  0  0  0  0  0  0  0  0  0
    7.2050  -14.4362   25.6428 C   0  0  0  0  0  0  0  0  0  0  0  0
    8.5507  -14.8837   25.2419 C   0  0  2  0  0  0  0  0  0  0  0  0
    8.3790  -15.6021   23.9294 N   0  0  0  0  0  0  0  0  0  0  0  0
    9.3765  -15.6952   26.1180 C   0  0  0  0  0  0  0  0  0  0  0  0
    9.6732  -16.8736   25.6706 O   0  0  0  0  0  0  0  0  0  0  0  0
    9.8880  -15.3063   27.3869 N   0  0  0  0  0  0  0  0  0  0  0  0
    9.6162  -14.0584   28.0719 C   0  0  0  0  0  0  0  0  0  0  0  0
   11.0882  -13.7033   28.4239 C   0  0  0  0  0  0  0  0  0  0  0  0
   11.4836  -14.9894   29.1125 C   0  0  0  0  0  0  0  0  0  0  0  0
   10.8435  -16.0372   28.1823 C   0  0  1  0  0  0  0  0  0  0  0  0
   10.3200  -17.0975   29.0251 C   0  0  0  0  0  0  0  0  0  0  0  0
    9.0980  -17.3030   29.1388 O   0  0  0  0  0  0  0  0  0  0  0  0
   11.2155  -17.9248   29.7405 O   0  0  0  0  0  0  0  0  0  0  0  0
  2  1  1  6
  2  3  1  0
  4  2  1  0
  5  4  1  0
  5  6  1  6
  7  8  2  0
  7  5  1  0
 10  9  1  1
 11 10  1  0
 12 10  1  0
 13 12  1  1
 13 14  1  0
 14  7  1  0
 15 13  1  0
 16 15  2  0
 17 15  1  0
 18 17  1  0
 19 18  1  0
 19 20  1  0
 20 21  1  0
 21 17  1  0
 21 22  1  1
 23 22  2  0
 24 22  1  0
M  END
$$$$
