LLP.pdb
     RDKit          3D

 24 24  0  0  1  0  0  0  0  0999 V2000
    8.3384  -12.8853   18.4157 C   0  0  0  0  0  0  0  0  0  0  0  0
    8.0215  -14.0322   19.3712 C   0  0  2  0  0  0  0  0  0  0  0  0
    6.5155  -14.2105   19.4881 C   0  0  0  0  0  0  0  0  0  0  0  0
    8.5883  -13.6940   20.7390 C   0  0  0  0  0  0  0  0  0  0  0  0
    8.8348  -14.9680   21.5106 C   0  0  2  0  0  0  0  0  0  0  0  0
    7.7145  -15.8796   21.3888 N   0  0  0  0  0  0  0  0  0  0  0  0
    9.0627  -14.6015   22.9510 C   0  0  0  0  0  0  0  0  0  0  0  0
   10.0829  -13.9046   23.2217 O   0  0  0  0  0  0  0  0  0  0  0  0
    5.1489  -12.7274   26.3177 C   0  0  0  0  0  0  0  0  0  0  0  0
    6.4689  -12.9128   25.5279 C   0  0  1  0  0  0  0  0  0  0  0  0
    7.3084  -11.7109   25.9486 C   0  0  0  0  0  0  0  0  0  0  0  0
    7.1124  -14.1903   25.9305 C   0  0  0  0  0  0  0  0  0  0  0  0
    8.4356  -14.5412   25.3845 C   0  0  2  0  0  0  0  0  0  0  0  0
    8.1960  -15.0025   23.9710 N   0  0  0  0  0  0  0  0  0  0  0  0
    9.3060  -15.4942   26.0494 C   0  0  0  0  0  0  0  0  0  0  0  0
    9.5244  -16.5948   25.4030 O   0  0  0  0  0  0  0  0  0  0  0  0
    9.9367  -15.3161   27.3117 N   0  0  0  0  0  0  0  0  0  0  0  0
    9.8783  -14.1253   28.1357 C   0  0  0  0  0  0  0  0  0  0  0  0
   11.4026  -14.0067   28.4171 C   0  0  0  0  0  0  0  0  0  0  0  0
   11.6552  -15.4007   28.9439 C   0  0  0  0  0  0  0  0  0  0  0  0
   10.8256  -16.2481   27.9606 C   0  0  1  0  0  0  0  0  0  0  0  0
   10.2092  -17.3160   28.7277 C   0  0  0  0  0  0  0  0  0  0  0  0
    8.9850  -17.3435   28.9486 O   0  0  0  0  0  0  0  0  0  0  0  0
   11.0140  -18.3580   29.2420 O   0  0  0  0  0  0  0  0  0  0  0  0
  2  1  1  6
  2  3  1  0
  4  2  1  0
  5  4  1  0
  5  6  1  1
  7  8  2  0
  7  5  1  0
 10  9  1  1
 11 10  1  0
 12 10  1  0
 13 12  1  1
 13 14  1  0
 14  7  1  0
 15 13  1  0
 16 15  2  0
 17 15  1  0
 18 17  1  0
 19 18  1  0
 19 20  1  0
 20 21  1  0
 21 17  1  0
 21 22  1  1
 23 22  2  0
 24 22  1  0
M  END
$$$$
