LLP.pdb
     RDKit          3D

 24 24  0  0  1  0  0  0  0  0999 V2000
    7.6378  -18.6520   20.6379 C   0  0  0  0  0  0  0  0  0  0  0  0
    9.1557  -18.5979   20.7857 C   0  0  2  0  0  0  0  0  0  0  0  0
    9.7034  -19.9938   21.0405 C   0  0  0  0  0  0  0  0  0  0  0  0
    9.4960  -17.7083   21.9687 C   0  0  0  0  0  0  0  0  0  0  0  0
    8.8796  -16.3450   21.7667 C   0  0  2  0  0  0  0  0  0  0  0  0
    9.4611  -15.6711   20.6228 N   0  0  0  0  0  0  0  0  0  0  0  0
    9.1022  -15.5448   23.0201 C   0  0  0  0  0  0  0  0  0  0  0  0
   10.2042  -14.9349   23.1354 O   0  0  0  0  0  0  0  0  0  0  0  0
    5.3450  -12.6016   26.0076 C   0  0  0  0  0  0  0  0  0  0  0  0
    6.6211  -13.0105   25.2299 C   0  0  1  0  0  0  0  0  0  0  0  0
    7.5422  -11.8063   25.3968 C   0  0  0  0  0  0  0  0  0  0  0  0
    7.2071  -14.2298   25.8446 C   0  0  0  0  0  0  0  0  0  0  0  0
    8.4790  -14.7652   25.3272 C   0  0  2  0  0  0  0  0  0  0  0  0
    8.1447  -15.4615   24.0343 N   0  0  0  0  0  0  0  0  0  0  0  0
    9.3206  -15.6368   26.1272 C   0  0  0  0  0  0  0  0  0  0  0  0
    9.4958  -16.8297   25.6547 O   0  0  0  0  0  0  0  0  0  0  0  0
    9.9664  -15.2921   27.3466 N   0  0  0  0  0  0  0  0  0  0  0  0
    9.8406  -14.0335   28.0542 C   0  0  0  0  0  0  0  0  0  0  0  0
   11.3583  -13.7807   28.2759 C   0  0  0  0  0  0  0  0  0  0  0  0
   11.7247  -15.0953   28.9258 C   0  0  0  0  0  0  0  0  0  0  0  0
   10.9363  -16.0911   28.0542 C   0  0  1  0  0  0  0  0  0  0  0  0
   10.4181  -17.1197   28.9387 C   0  0  0  0  0  0  0  0  0  0  0  0
    9.1978  -17.2611   29.1373 O   0  0  0  0  0  0  0  0  0  0  0  0
   11.3169  -17.9896   29.5970 O   0  0  0  0  0  0  0  0  0  0  0  0
  2  1  1  1
  2  3  1  0
  4  2  1  0
  5  4  1  0
  5  6  1  6
  7  8  2  0
  7  5  1  0
 10  9  1  1
 11 10  1  0
 12 10  1  0
 13 12  1  1
 13 14  1  0
 14  7  1  0
 15 13  1  0
 16 15  2  0
 17 15  1  0
 18 17  1  0
 19 18  1  0
 19 20  1  0
 20 21  1  0
 21 17  1  0
 21 22  1  1
 23 22  2  0
 24 22  1  0
M  END
$$$$
