LLP.pdb
     RDKit          3D

 24 24  0  0  1  0  0  0  0  0999 V2000
    5.5704  -18.8246   19.8209 C   0  0  0  0  0  0  0  0  0  0  0  0
    7.0420  -19.2280   19.8482 C   0  0  2  0  0  0  0  0  0  0  0  0
    7.1673  -20.7197   20.1177 C   0  0  0  0  0  0  0  0  0  0  0  0
    7.7335  -18.4630   20.9632 C   0  0  0  0  0  0  0  0  0  0  0  0
    7.5530  -16.9804   20.7431 C   0  0  2  0  0  0  0  0  0  0  0  0
    8.1829  -16.5531   19.5096 N   0  0  0  0  0  0  0  0  0  0  0  0
    8.1529  -16.2603   21.9190 C   0  0  0  0  0  0  0  0  0  0  0  0
    9.4030  -16.0683   21.9102 O   0  0  0  0  0  0  0  0  0  0  0  0
    8.0597  -12.2609   25.8240 C   0  0  0  0  0  0  0  0  0  0  0  0
    7.3172  -13.5986   26.0687 C   0  0  1  0  0  0  0  0  0  0  0  0
    6.0282  -13.1698   26.7622 C   0  0  0  0  0  0  0  0  0  0  0  0
    7.0380  -14.2565   24.7659 C   0  0  0  0  0  0  0  0  0  0  0  0
    8.0477  -15.1510   24.1722 C   0  0  2  0  0  0  0  0  0  0  0  0
    7.3813  -15.8101   22.9934 N   0  0  0  0  0  0  0  0  0  0  0  0
    8.7230  -16.1668   24.9597 C   0  0  0  0  0  0  0  0  0  0  0  0
    8.0305  -17.2330   25.2058 O   0  0  0  0  0  0  0  0  0  0  0  0
   10.0543  -16.0972   25.4554 N   0  0  0  0  0  0  0  0  0  0  0  0
   11.0033  -15.0299   25.2086 C   0  0  0  0  0  0  0  0  0  0  0  0
   12.2062  -15.9271   24.8027 C   0  0  0  0  0  0  0  0  0  0  0  0
   12.2380  -16.8394   26.0074 C   0  0  0  0  0  0  0  0  0  0  0  0
   10.7368  -17.1160   26.2144 C   0  0  1  0  0  0  0  0  0  0  0  0
   10.4971  -17.1373   27.6464 C   0  0  0  0  0  0  0  0  0  0  0  0
    9.8774  -16.2246   28.2221 O   0  0  0  0  0  0  0  0  0  0  0  0
   10.9771  -18.2209   28.4168 O   0  0  0  0  0  0  0  0  0  0  0  0
  2  1  1  1
  2  3  1  0
  4  2  1  0
  5  4  1  0
  5  6  1  6
  7  8  2  0
  7  5  1  0
 10  9  1  6
 11 10  1  0
 12 10  1  0
 13 12  1  1
 13 14  1  0
 14  7  1  0
 15 13  1  0
 16 15  2  0
 17 15  1  0
 18 17  1  0
 19 18  1  0
 19 20  1  0
 20 21  1  0
 21 17  1  0
 21 22  1  1
 23 22  2  0
 24 22  1  0
M  END
$$$$
