LLP.pdb
     RDKit          3D

 24 24  0  0  1  0  0  0  0  0999 V2000
   11.5140  -19.6247   23.3544 C   0  0  0  0  0  0  0  0  0  0  0  0
   10.3816  -18.7304   22.8575 C   0  0  2  0  0  0  0  0  0  0  0  0
    9.2167  -19.5836   22.3797 C   0  0  0  0  0  0  0  0  0  0  0  0
   10.8958  -17.8981   21.6958 C   0  0  0  0  0  0  0  0  0  0  0  0
    9.9461  -16.7533   21.4378 C   0  0  2  0  0  0  0  0  0  0  0  0
   10.3875  -15.9488   20.3158 N   0  0  0  0  0  0  0  0  0  0  0  0
    9.8724  -15.9206   22.6877 C   0  0  0  0  0  0  0  0  0  0  0  0
   10.8833  -15.2201   22.9829 O   0  0  0  0  0  0  0  0  0  0  0  0
    7.2782  -12.1186   25.5880 C   0  0  0  0  0  0  0  0  0  0  0  0
    7.0284  -13.5952   25.9852 C   0  0  1  0  0  0  0  0  0  0  0  0
    5.5338  -13.6359   26.2869 C   0  0  0  0  0  0  0  0  0  0  0  0
    7.3746  -14.4812   24.8436 C   0  0  0  0  0  0  0  0  0  0  0  0
    8.7303  -15.0518   24.7515 C   0  0  2  0  0  0  0  0  0  0  0  0
    8.7424  -15.9032   23.5093 N   0  0  0  0  0  0  0  0  0  0  0  0
    9.3154  -15.8066   25.8452 C   0  0  0  0  0  0  0  0  0  0  0  0
    9.4683  -17.0741   25.6285 O   0  0  0  0  0  0  0  0  0  0  0  0
    9.7399  -15.2795   27.0961 N   0  0  0  0  0  0  0  0  0  0  0  0
    9.5103  -13.9320   27.5778 C   0  0  0  0  0  0  0  0  0  0  0  0
   10.9684  -13.6331   28.0264 C   0  0  0  0  0  0  0  0  0  0  0  0
   11.1929  -14.8338   28.9166 C   0  0  0  0  0  0  0  0  0  0  0  0
   10.5562  -15.9554   28.0742 C   0  0  1  0  0  0  0  0  0  0  0  0
    9.8731  -16.8483   28.9934 C   0  0  0  0  0  0  0  0  0  0  0  0
    8.6315  -16.9008   29.0572 O   0  0  0  0  0  0  0  0  0  0  0  0
   10.6311  -17.6853   29.8437 O   0  0  0  0  0  0  0  0  0  0  0  0
  2  1  1  6
  2  3  1  0
  4  2  1  0
  5  4  1  0
  5  6  1  6
  7  8  2  0
  7  5  1  0
 10  9  1  6
 11 10  1  0
 12 10  1  0
 13 12  1  1
 13 14  1  0
 14  7  1  0
 15 13  1  0
 16 15  2  0
 17 15  1  0
 18 17  1  0
 19 18  1  0
 19 20  1  0
 20 21  1  0
 21 17  1  0
 21 22  1  1
 23 22  2  0
 24 22  1  0
M  END
$$$$
