EGQ.pdb
     RDKit          3D

 23 22  0  0  1  0  0  0  0  0999 V2000
   10.5163  -18.9465   20.3206 N   0  0  0  0  0  0  0  0  0  0  0  0
   10.9865  -17.7143   19.7752 C   0  0  1  0  0  0  0  0  0  0  0  0
   10.9788  -17.5977   18.2926 C   0  0  0  0  0  0  0  0  0  0  0  0
   11.2605  -18.8042   17.4950 C   0  0  0  0  0  0  0  0  0  0  0  0
   12.1641  -18.6718   16.3607 C   0  0  0  0  0  0  0  0  0  0  0  0
   12.7252  -17.6060   16.0714 O   0  0  0  0  0  0  0  0  0  0  0  0
   10.1970  -16.5670   20.3028 C   0  0  0  0  0  0  0  0  0  0  0  0
   10.4449  -15.4047   19.9276 O   0  0  0  0  0  0  0  0  0  0  0  0
   12.4139  -19.7958   15.5580 O   0  0  0  0  0  0  0  0  0  0  0  0
    9.1688  -16.8239   21.2302 N   0  0  0  0  0  0  0  0  0  0  0  0
    8.3801  -15.7392   21.7209 C   0  0  0  0  0  0  0  0  0  0  0  0
    8.8909  -15.3898   23.0968 C   0  0  0  0  0  0  0  0  0  0  0  0
   10.1218  -15.3434   23.3273 O   0  0  0  0  0  0  0  0  0  0  0  0
    5.2378  -12.4549   27.1750 N   0  0  0  0  0  0  0  0  0  0  0  0
    6.1325  -11.8295   26.2773 C   0  0  0  0  0  0  0  0  0  0  0  0
    5.9767  -10.5825   26.0429 O   0  0  0  0  0  0  0  0  0  0  0  0
    7.2273  -12.5270   25.6100 C   0  0  0  0  0  0  0  0  0  0  0  0
    7.4572  -13.9026   26.0647 C   0  0  0  0  0  0  0  0  0  0  0  0
    8.5916  -14.6795   25.4497 C   0  0  2  0  0  0  0  0  0  0  0  0
    8.0013  -15.1088   24.1508 N   0  0  0  0  0  0  0  0  0  0  0  0
    8.9610  -15.8552   26.2266 C   0  0  0  0  0  0  0  0  0  0  0  0
    8.6363  -17.1505   25.8392 O   0  0  0  0  0  0  0  0  0  0  0  0
    9.6053  -15.7267   27.3221 O   0  0  0  0  0  0  0  0  0  0  0  0
  2  1  1  6
  2  3  1  0
  3  4  1  0
  5  4  1  0
  5  9  1  0
  6  5  2  0
  7  2  1  0
  7  8  2  0
 10  7  1  0
 11 10  1  0
 11 12  1  0
 12 20  1  0
 13 12  2  0
 15 17  1  0
 15 14  1  0
 16 15  2  0
 18 17  1  0
 19 18  1  1
 19 21  1  0
 20 19  1  0
 21 23  2  0
 21 22  1  0
M  END
$$$$
