EGQ.pdb
     RDKit          3D

 23 22  0  0  1  0  0  0  0  0999 V2000
    8.7362  -12.8413   18.8875 N   0  0  0  0  0  0  0  0  0  0  0  0
    7.6819  -13.6928   18.4402 C   0  0  1  0  0  0  0  0  0  0  0  0
    7.9970  -14.6008   17.3053 C   0  0  0  0  0  0  0  0  0  0  0  0
    9.2866  -15.3135   17.3174 C   0  0  0  0  0  0  0  0  0  0  0  0
    9.6219  -16.1288   16.1582 C   0  0  0  0  0  0  0  0  0  0  0  0
    9.2710  -17.3114   16.0462 O   0  0  0  0  0  0  0  0  0  0  0  0
    7.1853  -14.5488   19.5531 C   0  0  0  0  0  0  0  0  0  0  0  0
    6.2300  -15.3283   19.3716 O   0  0  0  0  0  0  0  0  0  0  0  0
   10.3742  -15.5557   15.1209 O   0  0  0  0  0  0  0  0  0  0  0  0
    7.8166  -14.4582   20.8087 N   0  0  0  0  0  0  0  0  0  0  0  0
    7.3085  -15.2189   21.9053 C   0  0  0  0  0  0  0  0  0  0  0  0
    8.1807  -14.9319   23.1024 C   0  0  0  0  0  0  0  0  0  0  0  0
    9.3631  -14.5452   22.9519 O   0  0  0  0  0  0  0  0  0  0  0  0
    6.0937  -10.5032   26.5546 N   0  0  0  0  0  0  0  0  0  0  0  0
    6.7495  -11.7065   26.9003 C   0  0  0  0  0  0  0  0  0  0  0  0
    6.7175  -12.0800   28.1224 O   0  0  0  0  0  0  0  0  0  0  0  0
    7.4538  -12.5484   25.9383 C   0  0  0  0  0  0  0  0  0  0  0  0
    7.7699  -13.9011   26.4100 C   0  0  0  0  0  0  0  0  0  0  0  0
    8.6202  -14.7838   25.5345 C   0  0  2  0  0  0  0  0  0  0  0  0
    7.6898  -15.0909   24.4120 N   0  0  0  0  0  0  0  0  0  0  0  0
    9.0140  -16.0234   26.1908 C   0  0  0  0  0  0  0  0  0  0  0  0
   10.1659  -16.1387   26.9610 O   0  0  0  0  0  0  0  0  0  0  0  0
    8.2967  -17.0732   26.0677 O   0  0  0  0  0  0  0  0  0  0  0  0
  2  1  1  1
  2  3  1  0
  3  4  1  0
  5  4  1  0
  5  9  1  0
  6  5  2  0
  7  2  1  0
  7  8  2  0
 10  7  1  0
 11 10  1  0
 11 12  1  0
 12 20  1  0
 13 12  2  0
 15 17  1  0
 15 14  1  0
 16 15  2  0
 18 17  1  0
 19 18  1  1
 19 21  1  0
 20 19  1  0
 21 23  2  0
 21 22  1  0
M  END
$$$$
