EGQ.pdb
     RDKit          3D

 23 22  0  0  1  0  0  0  0  0999 V2000
    8.3937  -18.8839   19.3853 N   0  0  0  0  0  0  0  0  0  0  0  0
    9.2479  -17.8177   18.9725 C   0  0  1  0  0  0  0  0  0  0  0  0
    9.4355  -17.6457   17.5072 C   0  0  0  0  0  0  0  0  0  0  0  0
    8.3878  -18.1532   16.6039 C   0  0  0  0  0  0  0  0  0  0  0  0
    8.5639  -17.9410   15.1740 C   0  0  0  0  0  0  0  0  0  0  0  0
    8.9812  -18.8237   14.4116 O   0  0  0  0  0  0  0  0  0  0  0  0
    8.7599  -16.5140   19.5015 C   0  0  0  0  0  0  0  0  0  0  0  0
    9.4265  -15.4747   19.3316 O   0  0  0  0  0  0  0  0  0  0  0  0
    8.2490  -16.6856   14.6310 O   0  0  0  0  0  0  0  0  0  0  0  0
    7.5342  -16.4820   20.1942 N   0  0  0  0  0  0  0  0  0  0  0  0
    7.0530  -15.2406   20.7107 C   0  0  0  0  0  0  0  0  0  0  0  0
    7.7010  -15.0244   22.0558 C   0  0  0  0  0  0  0  0  0  0  0  0
    8.8949  -15.3528   22.2486 O   0  0  0  0  0  0  0  0  0  0  0  0
    6.4060  -11.2806   28.3256 N   0  0  0  0  0  0  0  0  0  0  0  0
    6.1417  -12.0144   27.1470 C   0  0  0  0  0  0  0  0  0  0  0  0
    4.9783  -11.9182   26.6260 O   0  0  0  0  0  0  0  0  0  0  0  0
    7.1252  -12.8690   26.4892 C   0  0  0  0  0  0  0  0  0  0  0  0
    6.7444  -13.3414   25.1536 C   0  0  0  0  0  0  0  0  0  0  0  0
    7.7302  -14.1799   24.3831 C   0  0  2  0  0  0  0  0  0  0  0  0
    6.9835  -14.4512   23.1226 N   0  0  0  0  0  0  0  0  0  0  0  0
    8.0408  -15.4408   25.0436 C   0  0  0  0  0  0  0  0  0  0  0  0
    9.1371  -15.6050   25.8829 O   0  0  0  0  0  0  0  0  0  0  0  0
    7.2988  -16.4640   24.8594 O   0  0  0  0  0  0  0  0  0  0  0  0
  2  1  1  6
  2  3  1  0
  3  4  1  0
  5  4  1  0
  5  9  1  0
  6  5  2  0
  7  2  1  0
  7  8  2  0
 10  7  1  0
 11 10  1  0
 11 12  1  0
 12 20  1  0
 13 12  2  0
 15 17  1  0
 15 14  1  0
 16 15  2  0
 18 17  1  0
 19 18  1  1
 19 21  1  0
 20 19  1  0
 21 23  2  0
 21 22  1  0
M  END
$$$$
