EGQ.pdb
     RDKit          3D

 23 22  0  0  1  0  0  0  0  0999 V2000
   10.2348  -13.4362   19.2942 N   0  0  0  0  0  0  0  0  0  0  0  0
    8.8259  -13.2101   19.3210 C   0  0  1  0  0  0  0  0  0  0  0  0
    8.0634  -13.6227   18.1126 C   0  0  0  0  0  0  0  0  0  0  0  0
    8.2364  -14.9980   17.6126 C   0  0  0  0  0  0  0  0  0  0  0  0
    8.5051  -15.1745   16.1923 C   0  0  0  0  0  0  0  0  0  0  0  0
    7.6833  -15.6739   15.4115 O   0  0  0  0  0  0  0  0  0  0  0  0
    8.2014  -13.9015   20.4827 C   0  0  0  0  0  0  0  0  0  0  0  0
    7.0042  -13.7025   20.7665 O   0  0  0  0  0  0  0  0  0  0  0  0
    9.7458  -14.7632   15.6807 O   0  0  0  0  0  0  0  0  0  0  0  0
    8.9899  -14.7811   21.2494 N   0  0  0  0  0  0  0  0  0  0  0  0
    8.3760  -15.5556   22.2802 C   0  0  0  0  0  0  0  0  0  0  0  0
    9.0569  -15.2060   23.5802 C   0  0  0  0  0  0  0  0  0  0  0  0
   10.3021  -15.2920   23.6912 O   0  0  0  0  0  0  0  0  0  0  0  0
    6.2690  -11.7588   25.2908 N   0  0  0  0  0  0  0  0  0  0  0  0
    6.0046  -12.6114   26.3865 C   0  0  0  0  0  0  0  0  0  0  0  0
    4.8051  -12.6755   26.8238 O   0  0  0  0  0  0  0  0  0  0  0  0
    7.0233  -13.4268   27.0404 C   0  0  0  0  0  0  0  0  0  0  0  0
    8.3757  -13.2938   26.4876 C   0  0  0  0  0  0  0  0  0  0  0  0
    9.0586  -14.5291   25.9619 C   0  0  2  0  0  0  0  0  0  0  0  0
    8.3133  -14.7767   24.6957 N   0  0  0  0  0  0  0  0  0  0  0  0
    8.9102  -15.6786   26.8445 C   0  0  0  0  0  0  0  0  0  0  0  0
    9.6707  -15.8515   27.9957 O   0  0  0  0  0  0  0  0  0  0  0  0
    8.0586  -16.5917   26.5750 O   0  0  0  0  0  0  0  0  0  0  0  0
  2  1  1  6
  2  3  1  0
  3  4  1  0
  5  4  1  0
  5  9  1  0
  6  5  2  0
  7  2  1  0
  7  8  2  0
 10  7  1  0
 11 10  1  0
 11 12  1  0
 12 20  1  0
 13 12  2  0
 15 17  1  0
 15 14  1  0
 16 15  2  0
 18 17  1  0
 19 18  1  1
 19 21  1  0
 20 19  1  0
 21 23  2  0
 21 22  1  0
M  END
$$$$
