EGQ.pdb
     RDKit          3D

 23 22  0  0  1  0  0  0  0  0999 V2000
    9.9528  -16.2882   19.1713 N   0  0  0  0  0  0  0  0  0  0  0  0
    8.5435  -16.0630   19.1814 C   0  0  1  0  0  0  0  0  0  0  0  0
    7.7301  -16.8993   18.2591 C   0  0  0  0  0  0  0  0  0  0  0  0
    8.3971  -17.9999   17.5415 C   0  0  0  0  0  0  0  0  0  0  0  0
    7.8067  -19.3278   17.6366 C   0  0  0  0  0  0  0  0  0  0  0  0
    6.6954  -19.6028   17.1637 O   0  0  0  0  0  0  0  0  0  0  0  0
    7.9862  -16.2604   20.5482 C   0  0  0  0  0  0  0  0  0  0  0  0
    6.7668  -16.1136   20.7598 O   0  0  0  0  0  0  0  0  0  0  0  0
    8.5226  -20.3429   18.2904 O   0  0  0  0  0  0  0  0  0  0  0  0
    8.8637  -16.6154   21.5910 N   0  0  0  0  0  0  0  0  0  0  0  0
    8.3379  -16.8672   22.8946 C   0  0  0  0  0  0  0  0  0  0  0  0
    8.9263  -15.8401   23.8299 C   0  0  0  0  0  0  0  0  0  0  0  0
    9.7976  -15.0349   23.4263 O   0  0  0  0  0  0  0  0  0  0  0  0
    6.3902  -10.7568   26.0891 N   0  0  0  0  0  0  0  0  0  0  0  0
    6.5763  -12.1365   26.3324 C   0  0  0  0  0  0  0  0  0  0  0  0
    5.7420  -12.7309   27.0971 O   0  0  0  0  0  0  0  0  0  0  0  0
    7.6631  -12.9200   25.7533 C   0  0  0  0  0  0  0  0  0  0  0  0
    8.2066  -13.9682   26.6239 C   0  0  0  0  0  0  0  0  0  0  0  0
    9.2866  -14.8642   26.0768 C   0  0  2  0  0  0  0  0  0  0  0  0
    8.5129  -15.7614   25.1732 N   0  0  0  0  0  0  0  0  0  0  0  0
    9.9396  -15.6602   27.1075 C   0  0  0  0  0  0  0  0  0  0  0  0
    9.6605  -17.0066   27.3137 O   0  0  0  0  0  0  0  0  0  0  0  0
   10.8066  -15.1274   27.8797 O   0  0  0  0  0  0  0  0  0  0  0  0
  2  1  1  1
  2  3  1  0
  3  4  1  0
  5  4  1  0
  5  9  1  0
  6  5  2  0
  7  2  1  0
  7  8  2  0
 10  7  1  0
 11 10  1  0
 11 12  1  0
 12 20  1  0
 13 12  2  0
 15 17  1  0
 15 14  1  0
 16 15  2  0
 18 17  1  0
 19 18  1  1
 19 21  1  0
 20 19  1  0
 21 23  2  0
 21 22  1  0
M  END
$$$$
