EGQ.pdb
     RDKit          3D

 23 22  0  0  1  0  0  0  0  0999 V2000
    7.1682  -13.9068   20.4110 N   0  0  0  0  0  0  0  0  0  0  0  0
    7.7537  -14.8030   19.4672 C   0  0  1  0  0  0  0  0  0  0  0  0
    8.4129  -14.1861   18.2854 C   0  0  0  0  0  0  0  0  0  0  0  0
    7.5603  -13.6107   17.2304 C   0  0  0  0  0  0  0  0  0  0  0  0
    7.9491  -13.8372   15.8453 C   0  0  0  0  0  0  0  0  0  0  0  0
    8.9634  -14.4740   15.5293 O   0  0  0  0  0  0  0  0  0  0  0  0
    8.7691  -15.6726   20.1232 C   0  0  0  0  0  0  0  0  0  0  0  0
    9.4239  -16.4944   19.4529 O   0  0  0  0  0  0  0  0  0  0  0  0
    7.1443  -13.3144   14.8210 O   0  0  0  0  0  0  0  0  0  0  0  0
    8.9721  -15.5459   21.5110 N   0  0  0  0  0  0  0  0  0  0  0  0
    9.8923  -16.4186   22.1676 C   0  0  0  0  0  0  0  0  0  0  0  0
    9.9484  -16.0132   23.6196 C   0  0  0  0  0  0  0  0  0  0  0  0
   11.0035  -16.1546   24.2809 O   0  0  0  0  0  0  0  0  0  0  0  0
    5.5022  -12.5296   26.1242 N   0  0  0  0  0  0  0  0  0  0  0  0
    6.7942  -12.0098   25.8837 C   0  0  0  0  0  0  0  0  0  0  0  0
    6.9189  -10.7445   25.7504 O   0  0  0  0  0  0  0  0  0  0  0  0
    7.9930  -12.8367   25.7868 C   0  0  0  0  0  0  0  0  0  0  0  0
    7.7718  -14.2760   25.9641 C   0  0  0  0  0  0  0  0  0  0  0  0
    8.9279  -15.2122   25.7285 C   0  0  2  0  0  0  0  0  0  0  0  0
    8.8219  -15.4688   24.2646 N   0  0  0  0  0  0  0  0  0  0  0  0
    8.7962  -16.4698   26.4520 C   0  0  0  0  0  0  0  0  0  0  0  0
    9.3215  -16.6695   27.7238 O   0  0  0  0  0  0  0  0  0  0  0  0
    8.1838  -17.4571   25.9209 O   0  0  0  0  0  0  0  0  0  0  0  0
  2  1  1  1
  2  3  1  0
  3  4  1  0
  5  4  1  0
  5  9  1  0
  6  5  2  0
  7  2  1  0
  7  8  2  0
 10  7  1  0
 11 10  1  0
 11 12  1  0
 12 20  1  0
 13 12  2  0
 15 17  1  0
 15 14  1  0
 16 15  2  0
 18 17  1  0
 19 18  1  1
 19 21  1  0
 20 19  1  0
 21 23  2  0
 21 22  1  0
M  END
$$$$
