EGQ.pdb
     RDKit          3D

 23 22  0  0  1  0  0  0  0  0999 V2000
    9.1671  -13.8133   16.3152 N   0  0  0  0  0  0  0  0  0  0  0  0
    9.5898  -14.4303   17.5307 C   0  0  1  0  0  0  0  0  0  0  0  0
   10.8990  -13.9880   18.0804 C   0  0  0  0  0  0  0  0  0  0  0  0
   12.0721  -14.8558   17.8762 C   0  0  0  0  0  0  0  0  0  0  0  0
   13.3306  -14.4499   18.4863 C   0  0  0  0  0  0  0  0  0  0  0  0
   14.3775  -14.3158   17.8380 O   0  0  0  0  0  0  0  0  0  0  0  0
    8.5794  -14.2279   18.6058 C   0  0  0  0  0  0  0  0  0  0  0  0
    7.5877  -13.4987   18.4107 O   0  0  0  0  0  0  0  0  0  0  0  0
   13.3648  -14.1985   19.8668 O   0  0  0  0  0  0  0  0  0  0  0  0
    8.7685  -14.8762   19.8416 N   0  0  0  0  0  0  0  0  0  0  0  0
    7.7472  -14.8001   20.8368 C   0  0  0  0  0  0  0  0  0  0  0  0
    8.2610  -15.4976   22.0719 C   0  0  0  0  0  0  0  0  0  0  0  0
    9.3737  -16.0740   22.0625 O   0  0  0  0  0  0  0  0  0  0  0  0
    5.8551  -11.9344   26.3671 N   0  0  0  0  0  0  0  0  0  0  0  0
    6.3712  -12.9790   27.1670 C   0  0  0  0  0  0  0  0  0  0  0  0
    6.2995  -12.8562   28.4374 O   0  0  0  0  0  0  0  0  0  0  0  0
    6.9739  -14.1917   26.6226 C   0  0  0  0  0  0  0  0  0  0  0  0
    6.9776  -14.2810   25.1583 C   0  0  0  0  0  0  0  0  0  0  0  0
    8.1425  -14.9586   24.4855 C   0  0  2  0  0  0  0  0  0  0  0  0
    7.5063  -15.5182   23.2599 N   0  0  0  0  0  0  0  0  0  0  0  0
    8.7032  -16.0439   25.2794 C   0  0  0  0  0  0  0  0  0  0  0  0
    8.2443  -17.3540   25.2007 O   0  0  0  0  0  0  0  0  0  0  0  0
    9.6547  -15.8158   26.1007 O   0  0  0  0  0  0  0  0  0  0  0  0
  2  1  1  6
  2  3  1  0
  3  4  1  0
  5  4  1  0
  5  9  1  0
  6  5  2  0
  7  2  1  0
  7  8  2  0
 10  7  1  0
 11 10  1  0
 11 12  1  0
 12 20  1  0
 13 12  2  0
 15 17  1  0
 15 14  1  0
 16 15  2  0
 18 17  1  0
 19 18  1  1
 19 21  1  0
 20 19  1  0
 21 23  2  0
 21 22  1  0
M  END
$$$$
