EGQ.pdb
     RDKit          3D

 23 22  0  0  1  0  0  0  0  0999 V2000
    8.3257  -18.3861   18.6339 N   0  0  0  0  0  0  0  0  0  0  0  0
    8.6888  -19.3207   19.6495 C   0  0  1  0  0  0  0  0  0  0  0  0
   10.1404  -19.4496   19.9458 C   0  0  0  0  0  0  0  0  0  0  0  0
   11.0693  -18.4914   19.3212 C   0  0  0  0  0  0  0  0  0  0  0  0
   12.3356  -19.0044   18.8172 C   0  0  0  0  0  0  0  0  0  0  0  0
   12.4053  -19.8377   17.9033 O   0  0  0  0  0  0  0  0  0  0  0  0
    8.0129  -18.9934   20.9354 C   0  0  0  0  0  0  0  0  0  0  0  0
    8.0989  -19.7675   21.9084 O   0  0  0  0  0  0  0  0  0  0  0  0
   13.5309  -18.5386   19.3869 O   0  0  0  0  0  0  0  0  0  0  0  0
    7.2783  -17.7953   21.0270 N   0  0  0  0  0  0  0  0  0  0  0  0
    6.6587  -17.4457   22.2652 C   0  0  0  0  0  0  0  0  0  0  0  0
    7.5503  -16.4426   22.9542 C   0  0  0  0  0  0  0  0  0  0  0  0
    8.6560  -16.1250   22.4573 O   0  0  0  0  0  0  0  0  0  0  0  0
    5.0887  -12.3440   26.8980 N   0  0  0  0  0  0  0  0  0  0  0  0
    6.4376  -11.9306   26.8156 C   0  0  0  0  0  0  0  0  0  0  0  0
    6.7738  -10.8506   27.4111 O   0  0  0  0  0  0  0  0  0  0  0  0
    7.4677  -12.6721   26.0949 C   0  0  0  0  0  0  0  0  0  0  0  0
    7.0120  -13.9152   25.4630 C   0  0  0  0  0  0  0  0  0  0  0  0
    8.0097  -14.7272   24.6795 C   0  0  2  0  0  0  0  0  0  0  0  0
    7.1639  -15.8416   24.1670 N   0  0  0  0  0  0  0  0  0  0  0  0
    9.0764  -15.2704   25.5099 C   0  0  0  0  0  0  0  0  0  0  0  0
   10.2982  -14.6305   25.6861 O   0  0  0  0  0  0  0  0  0  0  0  0
    8.9192  -16.3864   26.1113 O   0  0  0  0  0  0  0  0  0  0  0  0
  2  1  1  6
  2  3  1  0
  3  4  1  0
  5  4  1  0
  5  9  1  0
  6  5  2  0
  7  2  1  0
  7  8  2  0
 10  7  1  0
 11 10  1  0
 11 12  1  0
 12 20  1  0
 13 12  2  0
 15 17  1  0
 15 14  1  0
 16 15  2  0
 18 17  1  0
 19 18  1  1
 19 21  1  0
 20 19  1  0
 21 23  2  0
 21 22  1  0
M  END
$$$$
