EGQ.pdb
     RDKit          3D

 23 22  0  0  1  0  0  0  0  0999 V2000
    3.3537  -19.6478   20.5715 N   0  0  0  0  0  0  0  0  0  0  0  0
    4.5097  -20.1134   19.8761 C   0  0  1  0  0  0  0  0  0  0  0  0
    4.9893  -19.2730   18.7467 C   0  0  0  0  0  0  0  0  0  0  0  0
    6.0753  -19.7951   17.8987 C   0  0  0  0  0  0  0  0  0  0  0  0
    5.8982  -19.7320   16.4546 C   0  0  0  0  0  0  0  0  0  0  0  0
    4.9017  -19.2236   15.9229 O   0  0  0  0  0  0  0  0  0  0  0  0
    5.6580  -20.2782   20.8098 C   0  0  0  0  0  0  0  0  0  0  0  0
    6.6182  -21.0124   20.5059 O   0  0  0  0  0  0  0  0  0  0  0  0
    6.8957  -20.2681   15.6251 O   0  0  0  0  0  0  0  0  0  0  0  0
    5.6349  -19.5888   22.0376 N   0  0  0  0  0  0  0  0  0  0  0  0
    6.7598  -19.6778   22.9129 C   0  0  0  0  0  0  0  0  0  0  0  0
    6.6186  -18.5903   23.9489 C   0  0  0  0  0  0  0  0  0  0  0  0
    5.7117  -17.7310   23.8520 O   0  0  0  0  0  0  0  0  0  0  0  0
    8.7738  -20.8363   29.4089 N   0  0  0  0  0  0  0  0  0  0  0  0
    8.7065  -19.5334   28.8654 C   0  0  0  0  0  0  0  0  0  0  0  0
    9.3610  -18.6031   29.4489 O   0  0  0  0  0  0  0  0  0  0  0  0
    7.9378  -19.1941   27.6720 C   0  0  0  0  0  0  0  0  0  0  0  0
    8.1300  -17.8268   27.1763 C   0  0  0  0  0  0  0  0  0  0  0  0
    7.3204  -17.3755   25.9891 C   0  0  2  0  0  0  0  0  0  0  0  0
    7.4985  -18.5144   25.0451 N   0  0  0  0  0  0  0  0  0  0  0  0
    7.8364  -16.1564   25.3809 C   0  0  0  0  0  0  0  0  0  0  0  0
    7.4590  -14.8848   25.7978 O   0  0  0  0  0  0  0  0  0  0  0  0
    8.6681  -16.2215   24.4135 O   0  0  0  0  0  0  0  0  0  0  0  0
  2  1  1  1
  2  3  1  0
  3  4  1  0
  5  4  1  0
  5  9  1  0
  6  5  2  0
  7  2  1  0
  7  8  2  0
 10  7  1  0
 11 10  1  0
 11 12  1  0
 12 20  1  0
 13 12  2  0
 15 17  1  0
 15 14  1  0
 16 15  2  0
 18 17  1  0
 19 18  1  1
 19 21  1  0
 20 19  1  0
 21 23  2  0
 21 22  1  0
M  END
$$$$
