EGQ.pdb
     RDKit          3D

 23 22  0  0  1  0  0  0  0  0999 V2000
    9.8399  -17.2831   19.8237 N   0  0  0  0  0  0  0  0  0  0  0  0
   10.4171  -18.5558   20.1129 C   0  0  1  0  0  0  0  0  0  0  0  0
   11.3737  -19.0951   19.1100 C   0  0  0  0  0  0  0  0  0  0  0  0
   12.2742  -18.1514   18.4247 C   0  0  0  0  0  0  0  0  0  0  0  0
   13.2022  -18.6920   17.4412 C   0  0  0  0  0  0  0  0  0  0  0  0
   14.0099  -17.9857   16.8224 O   0  0  0  0  0  0  0  0  0  0  0  0
   11.1310  -18.5282   21.4195 C   0  0  0  0  0  0  0  0  0  0  0  0
   12.0966  -19.2883   21.6273 O   0  0  0  0  0  0  0  0  0  0  0  0
   13.1854  -20.0709   17.1794 O   0  0  0  0  0  0  0  0  0  0  0  0
   10.6928  -17.6281   22.4101 N   0  0  0  0  0  0  0  0  0  0  0  0
   11.5911  -17.2375   23.4492 C   0  0  0  0  0  0  0  0  0  0  0  0
   10.8720  -16.2393   24.3223 C   0  0  0  0  0  0  0  0  0  0  0  0
   10.3233  -15.2310   23.8196 O   0  0  0  0  0  0  0  0  0  0  0  0
   10.5948  -16.8662   30.5914 N   0  0  0  0  0  0  0  0  0  0  0  0
   10.2346  -15.5165   30.3770 C   0  0  0  0  0  0  0  0  0  0  0  0
    9.9924  -14.7883   31.3994 O   0  0  0  0  0  0  0  0  0  0  0  0
   10.1315  -14.9077   29.0545 C   0  0  0  0  0  0  0  0  0  0  0  0
   10.4520  -15.7979   27.9334 C   0  0  0  0  0  0  0  0  0  0  0  0
   10.4010  -15.2365   26.5366 C   0  0  2  0  0  0  0  0  0  0  0  0
   10.8002  -16.4150   25.7171 N   0  0  0  0  0  0  0  0  0  0  0  0
   11.3529  -14.1540   26.3251 C   0  0  0  0  0  0  0  0  0  0  0  0
   11.0320  -12.8155   26.5213 O   0  0  0  0  0  0  0  0  0  0  0  0
   12.5418  -14.4094   25.9340 O   0  0  0  0  0  0  0  0  0  0  0  0
  2  1  1  6
  2  3  1  0
  3  4  1  0
  5  4  1  0
  5  9  1  0
  6  5  2  0
  7  2  1  0
  7  8  2  0
 10  7  1  0
 11 10  1  0
 11 12  1  0
 12 20  1  0
 13 12  2  0
 15 17  1  0
 15 14  1  0
 16 15  2  0
 18 17  1  0
 19 18  1  1
 19 21  1  0
 20 19  1  0
 21 23  2  0
 21 22  1  0
M  END
$$$$
