EGQ.pdb
     RDKit          3D

 23 22  0  0  1  0  0  0  0  0999 V2000
    8.6459  -12.5881   18.5264 N   0  0  0  0  0  0  0  0  0  0  0  0
    8.0752  -13.7736   17.9735 C   0  0  1  0  0  0  0  0  0  0  0  0
    8.9573  -14.5899   17.0976 C   0  0  0  0  0  0  0  0  0  0  0  0
    8.7699  -14.5007   15.6388 C   0  0  0  0  0  0  0  0  0  0  0  0
    8.4509  -15.7262   14.9197 C   0  0  0  0  0  0  0  0  0  0  0  0
    7.5108  -16.4663   15.2403 O   0  0  0  0  0  0  0  0  0  0  0  0
    7.5824  -14.6756   19.0512 C   0  0  0  0  0  0  0  0  0  0  0  0
    6.9562  -15.7150   18.7669 O   0  0  0  0  0  0  0  0  0  0  0  0
    9.2382  -16.0891   13.8157 O   0  0  0  0  0  0  0  0  0  0  0  0
    7.8390  -14.3295   20.3920 N   0  0  0  0  0  0  0  0  0  0  0  0
    7.3747  -15.1839   21.4377 C   0  0  0  0  0  0  0  0  0  0  0  0
    8.1673  -14.8575   22.6791 C   0  0  0  0  0  0  0  0  0  0  0  0
    9.2180  -14.1785   22.6048 O   0  0  0  0  0  0  0  0  0  0  0  0
    5.2660  -12.6859   27.1727 N   0  0  0  0  0  0  0  0  0  0  0  0
    6.4114  -12.0136   26.6894 C   0  0  0  0  0  0  0  0  0  0  0  0
    6.5686  -10.7859   27.0091 O   0  0  0  0  0  0  0  0  0  0  0  0
    7.4266  -12.6455   25.8525 C   0  0  0  0  0  0  0  0  0  0  0  0
    7.4662  -14.1103   25.9220 C   0  0  0  0  0  0  0  0  0  0  0  0
    8.5217  -14.8361   25.1295 C   0  0  2  0  0  0  0  0  0  0  0  0
    7.7482  -15.3060   23.9459 N   0  0  0  0  0  0  0  0  0  0  0  0
    9.0720  -15.9850   25.8363 C   0  0  0  0  0  0  0  0  0  0  0  0
   10.1863  -15.9015   26.6637 O   0  0  0  0  0  0  0  0  0  0  0  0
    8.5367  -17.1376   25.7067 O   0  0  0  0  0  0  0  0  0  0  0  0
  2  1  1  1
  2  3  1  0
  3  4  1  0
  5  4  1  0
  5  9  1  0
  6  5  2  0
  7  2  1  0
  7  8  2  0
 10  7  1  0
 11 10  1  0
 11 12  1  0
 12 20  1  0
 13 12  2  0
 15 17  1  0
 15 14  1  0
 16 15  2  0
 18 17  1  0
 19 18  1  1
 19 21  1  0
 20 19  1  0
 21 23  2  0
 21 22  1  0
M  END
$$$$
