EGQ.pdb
     RDKit          3D

 23 22  0  0  1  0  0  0  0  0999 V2000
   10.2049  -18.7873   17.2437 N   0  0  0  0  0  0  0  0  0  0  0  0
   10.4748  -20.1318   16.8485 C   0  0  1  0  0  0  0  0  0  0  0  0
   11.3049  -20.3118   15.6277 C   0  0  0  0  0  0  0  0  0  0  0  0
   12.4829  -19.4448   15.4491 C   0  0  0  0  0  0  0  0  0  0  0  0
   13.2364  -19.5712   14.2094 C   0  0  0  0  0  0  0  0  0  0  0  0
   12.9565  -18.9311   13.1865 O   0  0  0  0  0  0  0  0  0  0  0  0
   11.1507  -20.8797   17.9446 C   0  0  0  0  0  0  0  0  0  0  0  0
   11.2178  -22.1238   17.9117 O   0  0  0  0  0  0  0  0  0  0  0  0
   14.3270  -20.4538   14.1658 O   0  0  0  0  0  0  0  0  0  0  0  0
   11.7100  -20.1531   19.0135 N   0  0  0  0  0  0  0  0  0  0  0  0
   12.5162  -20.8322   19.9769 C   0  0  0  0  0  0  0  0  0  0  0  0
   12.8469  -19.8471   21.0706 C   0  0  0  0  0  0  0  0  0  0  0  0
   13.6272  -20.1629   21.9989 O   0  0  0  0  0  0  0  0  0  0  0  0
    9.8340  -15.4828   23.2823 N   0  0  0  0  0  0  0  0  0  0  0  0
   10.3602  -16.1303   24.4230 C   0  0  0  0  0  0  0  0  0  0  0  0
   10.2616  -15.5372   25.5511 O   0  0  0  0  0  0  0  0  0  0  0  0
   11.0025  -17.4403   24.3845 C   0  0  0  0  0  0  0  0  0  0  0  0
   11.1740  -18.0097   23.0434 C   0  0  0  0  0  0  0  0  0  0  0  0
   12.4613  -17.7386   22.3100 C   0  0  2  0  0  0  0  0  0  0  0  0
   12.2892  -18.5546   21.0753 N   0  0  0  0  0  0  0  0  0  0  0  0
   13.6364  -18.2007   23.0367 C   0  0  0  0  0  0  0  0  0  0  0  0
   14.5770  -17.3346   23.5829 O   0  0  0  0  0  0  0  0  0  0  0  0
   13.8477  -19.4510   23.1907 O   0  0  0  0  0  0  0  0  0  0  0  0
  2  1  1  1
  2  3  1  0
  3  4  1  0
  5  4  1  0
  5  9  1  0
  6  5  2  0
  7  2  1  0
  7  8  2  0
 10  7  1  0
 11 10  1  0
 11 12  1  0
 12 20  1  0
 13 12  2  0
 15 17  1  0
 15 14  1  0
 16 15  2  0
 18 17  1  0
 19 18  1  1
 19 21  1  0
 20 19  1  0
 21 23  2  0
 21 22  1  0
M  END
$$$$
