KQF.pdb
     RDKit          3D

 30 30  0  0  1  0  0  0  0  0999 V2000
   45.6239   -9.8568   -6.7246 N   0  0  0  0  0  0  0  0  0  0  0  0
   44.1678   -9.7901   -6.6586 C   0  0  1  0  0  0  0  0  0  0  0  0
   43.7212   -8.6072   -5.8706 C   0  0  0  0  0  0  0  0  0  0  0  0
   44.2302   -8.4522   -4.5047 C   0  0  0  0  0  0  0  0  0  0  0  0
   43.4775   -8.9251   -3.3363 C   0  0  0  0  0  0  0  0  0  0  0  0
   43.9992   -8.5949   -1.9765 C   0  0  0  0  0  0  0  0  0  0  0  0
   43.2259   -9.2505   -0.9502 N   0  0  0  0  0  0  0  0  0  0  0  0
   43.6938   -9.5585   -8.0967 C   0  0  0  0  0  0  0  0  0  0  0  0
   44.4794   -8.8430   -8.7898 O   0  0  0  0  0  0  0  0  0  0  0  0
   41.8746  -13.3938  -12.3059 N   0  0  0  0  0  0  0  0  0  0  0  0
   41.5046  -12.1600  -12.8942 C   0  0  0  0  0  0  0  0  0  0  0  0
   41.1404  -12.1779  -14.1141 O   0  0  0  0  0  0  0  0  0  0  0  0
   41.5391  -10.9152  -12.1131 C   0  0  0  0  0  0  0  0  0  0  0  0
   41.9800  -11.0360  -10.7188 C   0  0  0  0  0  0  0  0  0  0  0  0
   42.0441   -9.7715   -9.9295 C   0  0  2  0  0  0  0  0  0  0  0  0
   42.5000  -10.1070   -8.5583 N   0  0  0  0  0  0  0  0  0  0  0  0
   40.8663   -8.9335   -9.8334 C   0  0  0  0  0  0  0  0  0  0  0  0
   39.9311   -9.0542  -10.6785 O   0  0  0  0  0  0  0  0  0  0  0  0
   40.7052   -7.9691   -8.8204 N   0  0  0  0  0  0  0  0  0  0  0  0
   39.5019   -7.1350   -8.7755 C   0  0  1  0  0  0  0  0  0  0  0  0
   38.7649   -7.5207   -7.4890 C   0  0  0  0  0  0  0  0  0  0  0  0
   38.3878   -8.9354   -7.5114 C   0  0  0  0  0  0  0  0  0  0  0  0
   38.8251   -9.7530   -6.4731 C   0  0  0  0  0  0  0  0  0  0  0  0
   38.5109  -11.0932   -6.4133 C   0  0  0  0  0  0  0  0  0  0  0  0
   37.7397  -11.6774   -7.3971 C   0  0  0  0  0  0  0  0  0  0  0  0
   37.2976  -10.8963   -8.4266 C   0  0  0  0  0  0  0  0  0  0  0  0
   37.6151   -9.5444   -8.4861 C   0  0  0  0  0  0  0  0  0  0  0  0
   39.9016   -5.7205   -8.7735 C   0  0  0  0  0  0  0  0  0  0  0  0
   38.9727   -4.6817   -8.7700 O   0  0  0  0  0  0  0  0  0  0  0  0
   41.1239   -5.4116   -8.7765 O   0  0  0  0  0  0  0  0  0  0  0  0
  2  1  1  6
  2  3  1  0
  4  3  1  0
  5  4  1  0
  6  5  1  0
  7  6  1  0
  8  2  1  0
  9  8  2  0
 10 11  1  0
 11 12  2  0
 11 13  1  0
 13 14  1  0
 15 14  1  6
 15 16  1  0
 16  8  1  0
 17 15  1  0
 17 18  2  0
 19 17  1  0
 20 19  1  0
 20 28  1  0
 20 21  1  1
 22 21  1  0
 22 23  2  0
 24 23  1  0
 25 24  2  0
 26 27  2  0
 26 25  1  0
 27 22  1  0
 28 29  1  0
 30 28  2  0
M  END
$$$$
