KQF.pdb
     RDKit          3D

 30 30  0  0  1  0  0  0  0  0999 V2000
   27.6784  -20.4212  -15.3874 N   0  0  0  0  0  0  0  0  0  0  0  0
   28.0139  -19.2561  -14.5757 C   0  0  1  0  0  0  0  0  0  0  0  0
   27.7465  -17.9920  -15.3174 C   0  0  0  0  0  0  0  0  0  0  0  0
   28.1097  -17.9308  -16.7362 C   0  0  0  0  0  0  0  0  0  0  0  0
   29.1284  -17.0005  -17.2384 C   0  0  0  0  0  0  0  0  0  0  0  0
   28.7782  -16.1238  -18.3955 C   0  0  0  0  0  0  0  0  0  0  0  0
   29.8856  -15.2724  -18.7560 N   0  0  0  0  0  0  0  0  0  0  0  0
   27.0438  -19.2783  -13.3905 C   0  0  0  0  0  0  0  0  0  0  0  0
   26.9954  -18.1884  -12.7431 O   0  0  0  0  0  0  0  0  0  0  0  0
   21.4174  -20.5909  -13.0784 N   0  0  0  0  0  0  0  0  0  0  0  0
   21.7035  -20.9146  -11.7299 C   0  0  0  0  0  0  0  0  0  0  0  0
   20.7277  -20.9362  -10.9122 O   0  0  0  0  0  0  0  0  0  0  0  0
   23.0780  -21.2172  -11.3053 C   0  0  0  0  0  0  0  0  0  0  0  0
   24.1165  -21.0965  -12.3349 C   0  0  0  0  0  0  0  0  0  0  0  0
   25.3611  -20.3731  -11.9427 C   0  0  2  0  0  0  0  0  0  0  0  0
   26.3003  -20.4168  -13.0901 N   0  0  0  0  0  0  0  0  0  0  0  0
   26.0719  -20.7788  -10.7473 C   0  0  0  0  0  0  0  0  0  0  0  0
   26.6483  -21.9053  -10.7033 O   0  0  0  0  0  0  0  0  0  0  0  0
   26.1572  -19.9610   -9.6044 N   0  0  0  0  0  0  0  0  0  0  0  0
   26.7484  -20.4757   -8.3670 C   0  0  1  0  0  0  0  0  0  0  0  0
   27.7145  -19.3933   -7.8749 C   0  0  0  0  0  0  0  0  0  0  0  0
   28.1967  -19.7020   -6.5273 C   0  0  0  0  0  0  0  0  0  0  0  0
   27.7645  -18.9044   -5.4713 C   0  0  0  0  0  0  0  0  0  0  0  0
   28.1642  -19.1287   -4.1720 C   0  0  0  0  0  0  0  0  0  0  0  0
   29.0198  -20.1686   -3.8709 C   0  0  0  0  0  0  0  0  0  0  0  0
   29.4579  -20.9661   -4.8894 C   0  0  0  0  0  0  0  0  0  0  0  0
   29.0541  -20.7392   -6.1999 C   0  0  0  0  0  0  0  0  0  0  0  0
   25.6751  -20.7329   -7.3963 C   0  0  0  0  0  0  0  0  0  0  0  0
   25.8394  -21.5912   -6.3107 O   0  0  0  0  0  0  0  0  0  0  0  0
   24.5557  -20.1687   -7.5311 O   0  0  0  0  0  0  0  0  0  0  0  0
  2  1  1  6
  2  3  1  0
  4  3  1  0
  5  4  1  0
  6  5  1  0
  7  6  1  0
  8  2  1  0
  9  8  2  0
 10 11  1  0
 11 12  2  0
 11 13  1  0
 13 14  1  0
 15 14  1  6
 15 16  1  0
 16  8  1  0
 17 15  1  0
 17 18  2  0
 19 17  1  0
 20 19  1  0
 20 28  1  0
 20 21  1  1
 22 21  1  0
 22 23  2  0
 24 23  1  0
 25 24  2  0
 26 27  2  0
 26 25  1  0
 27 22  1  0
 28 29  1  0
 30 28  2  0
M  END
$$$$
