KQF.pdb
     RDKit          3D

 30 30  0  0  1  0  0  0  0  0999 V2000
   21.3687  -18.3096  -14.0741 N   0  0  0  0  0  0  0  0  0  0  0  0
   20.9524  -18.8492  -12.7839 C   0  0  1  0  0  0  0  0  0  0  0  0
   19.6244  -19.5166  -12.8860 C   0  0  0  0  0  0  0  0  0  0  0  0
   18.8928  -19.4140  -14.1521 C   0  0  0  0  0  0  0  0  0  0  0  0
   19.4703  -18.7600  -15.3328 C   0  0  0  0  0  0  0  0  0  0  0  0
   18.6206  -18.6230  -16.5533 C   0  0  0  0  0  0  0  0  0  0  0  0
   19.3363  -17.9537  -17.6120 N   0  0  0  0  0  0  0  0  0  0  0  0
   21.9654  -19.9465  -12.4428 C   0  0  0  0  0  0  0  0  0  0  0  0
   21.4963  -20.8730  -11.7142 O   0  0  0  0  0  0  0  0  0  0  0  0
   24.1190  -24.0628  -13.8307 N   0  0  0  0  0  0  0  0  0  0  0  0
   25.4793  -23.8152  -13.5252 C   0  0  0  0  0  0  0  0  0  0  0  0
   26.2269  -24.8249  -13.3179 O   0  0  0  0  0  0  0  0  0  0  0  0
   25.9961  -22.4407  -13.4587 C   0  0  0  0  0  0  0  0  0  0  0  0
   25.0178  -21.3685  -13.6737 C   0  0  0  0  0  0  0  0  0  0  0  0
   24.2350  -20.9332  -12.4804 C   0  0  2  0  0  0  0  0  0  0  0  0
   23.2741  -19.8900  -12.9153 N   0  0  0  0  0  0  0  0  0  0  0  0
   24.9364  -20.4556  -11.3063 C   0  0  0  0  0  0  0  0  0  0  0  0
   24.6445  -19.3290  -10.8073 O   0  0  0  0  0  0  0  0  0  0  0  0
   25.9502  -21.2017  -10.6757 N   0  0  0  0  0  0  0  0  0  0  0  0
   26.8982  -20.5475   -9.7705 C   0  0  1  0  0  0  0  0  0  0  0  0
   26.1120  -20.2175   -8.4976 C   0  0  0  0  0  0  0  0  0  0  0  0
   27.0132  -19.7770   -7.4309 C   0  0  0  0  0  0  0  0  0  0  0  0
   27.2657  -18.4144   -7.2990 C   0  0  0  0  0  0  0  0  0  0  0  0
   28.0955  -17.9141   -6.3195 C   0  0  0  0  0  0  0  0  0  0  0  0
   28.7129  -18.7619   -5.4228 C   0  0  0  0  0  0  0  0  0  0  0  0
   28.4810  -20.1036   -5.5308 C   0  0  0  0  0  0  0  0  0  0  0  0
   27.6437  -20.6074   -6.5192 C   0  0  0  0  0  0  0  0  0  0  0  0
   28.0132  -21.4667   -9.5018 C   0  0  0  0  0  0  0  0  0  0  0  0
   28.0202  -22.7850   -9.9535 O   0  0  0  0  0  0  0  0  0  0  0  0
   29.0099  -21.0707   -8.8391 O   0  0  0  0  0  0  0  0  0  0  0  0
  2  1  1  6
  2  3  1  0
  4  3  1  0
  5  4  1  0
  6  5  1  0
  7  6  1  0
  8  2  1  0
  9  8  2  0
 10 11  1  0
 11 12  2  0
 11 13  1  0
 13 14  1  0
 15 14  1  6
 15 16  1  0
 16  8  1  0
 17 15  1  0
 17 18  2  0
 19 17  1  0
 20 19  1  0
 20 28  1  0
 20 21  1  1
 22 21  1  0
 22 23  2  0
 24 23  1  0
 25 24  2  0
 26 27  2  0
 26 25  1  0
 27 22  1  0
 28 29  1  0
 30 28  2  0
M  END
$$$$
