KQF.pdb
     RDKit          3D

 30 30  0  0  1  0  0  0  0  0999 V2000
   24.5095  -22.5512  -16.2344 N   0  0  0  0  0  0  0  0  0  0  0  0
   24.5326  -23.1959  -14.9256 C   0  0  1  0  0  0  0  0  0  0  0  0
   24.7940  -24.6571  -15.0532 C   0  0  0  0  0  0  0  0  0  0  0  0
   23.6448  -25.5664  -15.0864 C   0  0  0  0  0  0  0  0  0  0  0  0
   22.3598  -25.2180  -14.4677 C   0  0  0  0  0  0  0  0  0  0  0  0
   21.2604  -26.2282  -14.5015 C   0  0  0  0  0  0  0  0  0  0  0  0
   20.1273  -25.7889  -13.7243 N   0  0  0  0  0  0  0  0  0  0  0  0
   25.7362  -22.6017  -14.1876 C   0  0  0  0  0  0  0  0  0  0  0  0
   26.8523  -22.8508  -14.7366 O   0  0  0  0  0  0  0  0  0  0  0  0
   27.5479  -17.6028  -14.5649 N   0  0  0  0  0  0  0  0  0  0  0  0
   26.2137  -17.9440  -14.2353 C   0  0  0  0  0  0  0  0  0  0  0  0
   25.2975  -17.1310  -14.5832 O   0  0  0  0  0  0  0  0  0  0  0  0
   25.9120  -19.1943  -13.5236 C   0  0  0  0  0  0  0  0  0  0  0  0
   27.0668  -19.9717  -13.0597 C   0  0  0  0  0  0  0  0  0  0  0  0
   26.7677  -21.2648  -12.3779 C   0  0  2  0  0  0  0  0  0  0  0  0
   25.5703  -21.8587  -13.0215 N   0  0  0  0  0  0  0  0  0  0  0  0
   26.5783  -21.2836  -10.9418 C   0  0  0  0  0  0  0  0  0  0  0  0
   25.4457  -21.5721  -10.4548 O   0  0  0  0  0  0  0  0  0  0  0  0
   27.6179  -20.9917  -10.0384 N   0  0  0  0  0  0  0  0  0  0  0  0
   27.3446  -20.8839   -8.6033 C   0  0  1  0  0  0  0  0  0  0  0  0
   28.6568  -20.4337   -7.9532 C   0  0  0  0  0  0  0  0  0  0  0  0
   28.4718  -20.1993   -6.5197 C   0  0  0  0  0  0  0  0  0  0  0  0
   28.8397  -21.2064   -5.6319 C   0  0  0  0  0  0  0  0  0  0  0  0
   28.7053  -21.0664   -4.2679 C   0  0  0  0  0  0  0  0  0  0  0  0
   28.1933  -19.9038   -3.7292 C   0  0  0  0  0  0  0  0  0  0  0  0
   27.8253  -18.9001   -4.5792 C   0  0  0  0  0  0  0  0  0  0  0  0
   27.9613  -19.0422   -5.9552 C   0  0  0  0  0  0  0  0  0  0  0  0
   26.2673  -19.9058   -8.3949 C   0  0  0  0  0  0  0  0  0  0  0  0
   25.2103  -20.1346   -7.5161 O   0  0  0  0  0  0  0  0  0  0  0  0
   26.2782  -18.8135   -9.0243 O   0  0  0  0  0  0  0  0  0  0  0  0
  2  1  1  6
  2  3  1  0
  4  3  1  0
  5  4  1  0
  6  5  1  0
  7  6  1  0
  8  2  1  0
  9  8  2  0
 10 11  1  0
 11 12  2  0
 11 13  1  0
 13 14  1  0
 15 14  1  6
 15 16  1  0
 16  8  1  0
 17 15  1  0
 17 18  2  0
 19 17  1  0
 20 19  1  0
 20 28  1  0
 20 21  1  1
 22 21  1  0
 22 23  2  0
 24 23  1  0
 25 24  2  0
 26 27  2  0
 26 25  1  0
 27 22  1  0
 28 29  1  0
 30 28  2  0
M  END
$$$$
