KQF.pdb
     RDKit          3D

 30 30  0  0  1  0  0  0  0  0999 V2000
   26.4780  -18.8370  -15.1635 N   0  0  0  0  0  0  0  0  0  0  0  0
   26.5834  -20.0897  -14.4227 C   0  0  1  0  0  0  0  0  0  0  0  0
   27.9901  -20.5795  -14.3967 C   0  0  0  0  0  0  0  0  0  0  0  0
   28.4740  -21.3582  -15.5405 C   0  0  0  0  0  0  0  0  0  0  0  0
   28.2072  -22.7960  -15.6707 C   0  0  0  0  0  0  0  0  0  0  0  0
   28.8907  -23.5469  -16.7658 C   0  0  0  0  0  0  0  0  0  0  0  0
   28.6216  -24.9611  -16.6724 N   0  0  0  0  0  0  0  0  0  0  0  0
   26.2138  -19.7521  -12.9750 C   0  0  0  0  0  0  0  0  0  0  0  0
   26.7191  -18.6677  -12.5531 O   0  0  0  0  0  0  0  0  0  0  0  0
   20.8249  -21.0979  -10.3940 N   0  0  0  0  0  0  0  0  0  0  0  0
   21.2377  -20.1952  -11.4039 C   0  0  0  0  0  0  0  0  0  0  0  0
   20.3328  -19.6867  -12.1414 O   0  0  0  0  0  0  0  0  0  0  0  0
   22.6588  -19.8630  -11.5793 C   0  0  0  0  0  0  0  0  0  0  0  0
   23.5916  -20.4812  -10.6303 C   0  0  0  0  0  0  0  0  0  0  0  0
   25.0411  -20.1969  -10.8412 C   0  0  2  0  0  0  0  0  0  0  0  0
   25.3908  -20.5910  -12.2279 N   0  0  0  0  0  0  0  0  0  0  0  0
   26.0166  -20.7710   -9.9371 C   0  0  0  0  0  0  0  0  0  0  0  0
   26.8659  -21.6060  -10.3669 O   0  0  0  0  0  0  0  0  0  0  0  0
   26.0696  -20.4364   -8.5705 N   0  0  0  0  0  0  0  0  0  0  0  0
   26.9352  -21.1858   -7.6568 C   0  0  1  0  0  0  0  0  0  0  0  0
   28.3111  -20.5160   -7.7293 C   0  0  0  0  0  0  0  0  0  0  0  0
   28.6969  -19.9805   -6.4222 C   0  0  0  0  0  0  0  0  0  0  0  0
   29.4141  -20.8015   -5.5566 C   0  0  0  0  0  0  0  0  0  0  0  0
   29.8220  -20.3753   -4.3115 C   0  0  0  0  0  0  0  0  0  0  0  0
   29.5277  -19.0996   -3.8756 C   0  0  0  0  0  0  0  0  0  0  0  0
   28.8253  -18.2741   -4.7067 C   0  0  0  0  0  0  0  0  0  0  0  0
   28.4143  -18.7049   -5.9626 C   0  0  0  0  0  0  0  0  0  0  0  0
   26.3673  -21.1233   -6.3025 C   0  0  0  0  0  0  0  0  0  0  0  0
   26.8134  -21.9421   -5.2669 O   0  0  0  0  0  0  0  0  0  0  0  0
   25.4408  -20.3079   -6.0452 O   0  0  0  0  0  0  0  0  0  0  0  0
  2  1  1  6
  2  3  1  0
  4  3  1  0
  5  4  1  0
  6  5  1  0
  7  6  1  0
  8  2  1  0
  9  8  2  0
 10 11  1  0
 11 12  2  0
 11 13  1  0
 13 14  1  0
 15 14  1  1
 15 16  1  0
 16  8  1  0
 17 15  1  0
 17 18  2  0
 19 17  1  0
 20 19  1  0
 20 28  1  0
 20 21  1  1
 22 21  1  0
 22 23  2  0
 24 23  1  0
 25 24  2  0
 26 27  2  0
 26 25  1  0
 27 22  1  0
 28 29  1  0
 30 28  2  0
M  END
$$$$
