KQF.pdb
     RDKit          3D

 30 30  0  0  1  0  0  0  0  0999 V2000
   22.8572  -25.5089  -15.3836 N   0  0  0  0  0  0  0  0  0  0  0  0
   22.7664  -24.6598  -14.2004 C   0  0  1  0  0  0  0  0  0  0  0  0
   23.1928  -23.2658  -14.5078 C   0  0  0  0  0  0  0  0  0  0  0  0
   24.6175  -23.0125  -14.7418 C   0  0  0  0  0  0  0  0  0  0  0  0
   25.2097  -23.0842  -16.0832 C   0  0  0  0  0  0  0  0  0  0  0  0
   26.6295  -22.6541  -16.2546 C   0  0  0  0  0  0  0  0  0  0  0  0
   27.5202  -23.7889  -16.2497 N   0  0  0  0  0  0  0  0  0  0  0  0
   21.2773  -24.5913  -13.8477 C   0  0  0  0  0  0  0  0  0  0  0  0
   20.5051  -24.8817  -14.8114 O   0  0  0  0  0  0  0  0  0  0  0  0
   18.9082  -26.0612   -8.3377 N   0  0  0  0  0  0  0  0  0  0  0  0
   17.7637  -25.6158   -9.0424 C   0  0  0  0  0  0  0  0  0  0  0  0
   16.6315  -25.7727   -8.4812 O   0  0  0  0  0  0  0  0  0  0  0  0
   17.8928  -24.9928  -10.3676 C   0  0  0  0  0  0  0  0  0  0  0  0
   19.2604  -24.7385  -10.8346 C   0  0  0  0  0  0  0  0  0  0  0  0
   19.4080  -24.2973  -12.2523 C   0  0  2  0  0  0  0  0  0  0  0  0
   20.8562  -24.2386  -12.5681 N   0  0  0  0  0  0  0  0  0  0  0  0
   18.7908  -23.0580  -12.6786 C   0  0  0  0  0  0  0  0  0  0  0  0
   19.0727  -21.9732  -12.0894 O   0  0  0  0  0  0  0  0  0  0  0  0
   17.8717  -22.9983  -13.7434 N   0  0  0  0  0  0  0  0  0  0  0  0
   17.2218  -21.7326  -14.0918 C   0  0  1  0  0  0  0  0  0  0  0  0
   17.5360  -21.4863  -15.5709 C   0  0  0  0  0  0  0  0  0  0  0  0
   18.8889  -20.9496  -15.7315 C   0  0  0  0  0  0  0  0  0  0  0  0
   19.8807  -21.7930  -16.2244 C   0  0  0  0  0  0  0  0  0  0  0  0
   21.1778  -21.3678  -16.4121 C   0  0  0  0  0  0  0  0  0  0  0  0
   21.5411  -20.0707  -16.1127 C   0  0  0  0  0  0  0  0  0  0  0  0
   20.5859  -19.2232  -15.6280 C   0  0  0  0  0  0  0  0  0  0  0  0
   19.2777  -19.6529  -15.4390 C   0  0  0  0  0  0  0  0  0  0  0  0
   15.7767  -21.8565  -13.8530 C   0  0  0  0  0  0  0  0  0  0  0  0
   14.9002  -20.7834  -14.0020 O   0  0  0  0  0  0  0  0  0  0  0  0
   15.2899  -22.9640  -13.4982 O   0  0  0  0  0  0  0  0  0  0  0  0
  2  1  1  6
  2  3  1  0
  4  3  1  0
  5  4  1  0
  6  5  1  0
  7  6  1  0
  8  2  1  0
  9  8  2  0
 10 11  1  0
 11 12  2  0
 11 13  1  0
 13 14  1  0
 15 14  1  1
 15 16  1  0
 16  8  1  0
 17 15  1  0
 17 18  2  0
 19 17  1  0
 20 19  1  0
 20 28  1  0
 20 21  1  6
 22 21  1  0
 22 23  2  0
 24 23  1  0
 25 24  2  0
 26 27  2  0
 26 25  1  0
 27 22  1  0
 28 29  1  0
 30 28  2  0
M  END
$$$$
