KQF.pdb
     RDKit          3D

 30 30  0  0  1  0  0  0  0  0999 V2000
   25.9732  -20.1585  -17.7552 N   0  0  0  0  0  0  0  0  0  0  0  0
   26.4646  -21.1051  -16.7595 C   0  0  1  0  0  0  0  0  0  0  0  0
   27.8986  -20.8536  -16.4435 C   0  0  0  0  0  0  0  0  0  0  0  0
   28.9047  -21.2332  -17.4396 C   0  0  0  0  0  0  0  0  0  0  0  0
   29.4803  -22.5829  -17.4877 C   0  0  0  0  0  0  0  0  0  0  0  0
   30.5382  -22.8660  -18.5031 C   0  0  0  0  0  0  0  0  0  0  0  0
   31.0774  -24.1935  -18.3351 N   0  0  0  0  0  0  0  0  0  0  0  0
   25.6787  -20.8102  -15.4781 C   0  0  0  0  0  0  0  0  0  0  0  0
   25.4578  -19.5767  -15.2809 O   0  0  0  0  0  0  0  0  0  0  0  0
   20.8615  -23.9715  -13.8311 N   0  0  0  0  0  0  0  0  0  0  0  0
   20.9715  -22.7952  -14.6118 C   0  0  0  0  0  0  0  0  0  0  0  0
   19.9943  -22.5042  -15.3745 O   0  0  0  0  0  0  0  0  0  0  0  0
   22.1709  -21.9493  -14.5307 C   0  0  0  0  0  0  0  0  0  0  0  0
   23.1787  -22.3456  -13.5405 C   0  0  0  0  0  0  0  0  0  0  0  0
   24.4089  -21.5042  -13.4701 C   0  0  2  0  0  0  0  0  0  0  0  0
   25.2629  -21.8385  -14.6361 N   0  0  0  0  0  0  0  0  0  0  0  0
   25.2252  -21.5380  -12.2738 C   0  0  0  0  0  0  0  0  0  0  0  0
   26.4361  -21.9016  -12.3420 O   0  0  0  0  0  0  0  0  0  0  0  0
   24.7267  -21.1754  -11.0080 N   0  0  0  0  0  0  0  0  0  0  0  0
   25.5727  -21.2894   -9.8176 C   0  0  1  0  0  0  0  0  0  0  0  0
   26.7051  -20.2741  -10.0020 C   0  0  0  0  0  0  0  0  0  0  0  0
   27.4920  -20.1460   -8.7738 C   0  0  0  0  0  0  0  0  0  0  0  0
   27.2407  -19.0620   -7.9373 C   0  0  0  0  0  0  0  0  0  0  0  0
   27.9302  -18.8691   -6.7602 C   0  0  0  0  0  0  0  0  0  0  0  0
   28.9083  -19.7592   -6.3662 C   0  0  0  0  0  0  0  0  0  0  0  0
   29.1735  -20.8316   -7.1694 C   0  0  0  0  0  0  0  0  0  0  0  0
   28.4773  -21.0254   -8.3567 C   0  0  0  0  0  0  0  0  0  0  0  0
   24.7629  -20.9951   -8.6267 C   0  0  0  0  0  0  0  0  0  0  0  0
   24.9934  -21.6078   -7.3965 O   0  0  0  0  0  0  0  0  0  0  0  0
   23.8190  -20.1623   -8.6972 O   0  0  0  0  0  0  0  0  0  0  0  0
  2  1  1  6
  2  3  1  0
  4  3  1  0
  5  4  1  0
  6  5  1  0
  7  6  1  0
  8  2  1  0
  9  8  2  0
 10 11  1  0
 11 12  2  0
 11 13  1  0
 13 14  1  0
 15 14  1  1
 15 16  1  0
 16  8  1  0
 17 15  1  0
 17 18  2  0
 19 17  1  0
 20 19  1  0
 20 28  1  0
 20 21  1  6
 22 21  1  0
 22 23  2  0
 24 23  1  0
 25 24  2  0
 26 27  2  0
 26 25  1  0
 27 22  1  0
 28 29  1  0
 30 28  2  0
M  END
$$$$
