KQF.pdb
     RDKit          3D

 30 30  0  0  1  0  0  0  0  0999 V2000
   24.2040  -18.1312  -18.6394 N   0  0  0  0  0  0  0  0  0  0  0  0
   23.1798  -19.0600  -18.1732 C   0  0  1  0  0  0  0  0  0  0  0  0
   22.6475  -19.8788  -19.2983 C   0  0  0  0  0  0  0  0  0  0  0  0
   21.9551  -19.1888  -20.3906 C   0  0  0  0  0  0  0  0  0  0  0  0
   20.6292  -18.5844  -20.2115 C   0  0  0  0  0  0  0  0  0  0  0  0
   19.9876  -17.9232  -21.3869 C   0  0  0  0  0  0  0  0  0  0  0  0
   18.6927  -17.3902  -21.0401 N   0  0  0  0  0  0  0  0  0  0  0  0
   23.8944  -20.0314  -17.2286 C   0  0  0  0  0  0  0  0  0  0  0  0
   23.4814  -21.2281  -17.3104 O   0  0  0  0  0  0  0  0  0  0  0  0
   28.0910  -22.7968  -15.5219 N   0  0  0  0  0  0  0  0  0  0  0  0
   28.3081  -21.7857  -16.4893 C   0  0  0  0  0  0  0  0  0  0  0  0
   29.0201  -22.0857  -17.5014 O   0  0  0  0  0  0  0  0  0  0  0  0
   27.7234  -20.4475  -16.3214 C   0  0  0  0  0  0  0  0  0  0  0  0
   26.8662  -20.2567  -15.1459 C   0  0  0  0  0  0  0  0  0  0  0  0
   25.4101  -20.5218  -15.3343 C   0  0  2  0  0  0  0  0  0  0  0  0
   24.9038  -19.5937  -16.3749 N   0  0  0  0  0  0  0  0  0  0  0  0
   24.5233  -20.4625  -14.1904 C   0  0  0  0  0  0  0  0  0  0  0  0
   24.8382  -19.7693  -13.1786 O   0  0  0  0  0  0  0  0  0  0  0  0
   23.2971  -21.1531  -14.1478 N   0  0  0  0  0  0  0  0  0  0  0  0
   22.4789  -21.1370  -12.9328 C   0  0  1  0  0  0  0  0  0  0  0  0
   22.1943  -19.6621  -12.6313 C   0  0  0  0  0  0  0  0  0  0  0  0
   21.1754  -19.5332  -11.5876 C   0  0  0  0  0  0  0  0  0  0  0  0
   21.5845  -19.5584  -10.2573 C   0  0  0  0  0  0  0  0  0  0  0  0
   20.6929  -19.4373   -9.2138 C   0  0  0  0  0  0  0  0  0  0  0  0
   19.3435  -19.2845   -9.4583 C   0  0  0  0  0  0  0  0  0  0  0  0
   18.9167  -19.2562  -10.7554 C   0  0  0  0  0  0  0  0  0  0  0  0
   19.8168  -19.3784  -11.8075 C   0  0  0  0  0  0  0  0  0  0  0  0
   21.2429  -21.8931  -13.1799 C   0  0  0  0  0  0  0  0  0  0  0  0
   20.8614  -22.3050  -14.4553 O   0  0  0  0  0  0  0  0  0  0  0  0
   20.4835  -22.1899  -12.2182 O   0  0  0  0  0  0  0  0  0  0  0  0
  2  1  1  6
  2  3  1  0
  4  3  1  0
  5  4  1  0
  6  5  1  0
  7  6  1  0
  8  2  1  0
  9  8  2  0
 10 11  1  0
 11 12  2  0
 11 13  1  0
 13 14  1  0
 15 14  1  1
 15 16  1  0
 16  8  1  0
 17 15  1  0
 17 18  2  0
 19 17  1  0
 20 19  1  0
 20 28  1  0
 20 21  1  6
 22 21  1  0
 22 23  2  0
 24 23  1  0
 25 24  2  0
 26 27  2  0
 26 25  1  0
 27 22  1  0
 28 29  1  0
 30 28  2  0
M  END
$$$$
