KQF.pdb
     RDKit          3D

 30 30  0  0  1  0  0  0  0  0999 V2000
   18.0817  -12.6401  -19.1667 N   0  0  0  0  0  0  0  0  0  0  0  0
   17.5934  -11.3025  -18.8483 C   0  0  1  0  0  0  0  0  0  0  0  0
   16.7217  -11.3243  -17.6403 C   0  0  0  0  0  0  0  0  0  0  0  0
   15.6365  -12.3083  -17.5865 C   0  0  0  0  0  0  0  0  0  0  0  0
   14.7250  -12.3983  -16.4391 C   0  0  0  0  0  0  0  0  0  0  0  0
   13.5770  -13.3501  -16.5195 C   0  0  0  0  0  0  0  0  0  0  0  0
   13.9348  -14.6418  -15.9860 N   0  0  0  0  0  0  0  0  0  0  0  0
   18.8323  -10.4824  -18.4756 C   0  0  0  0  0  0  0  0  0  0  0  0
   19.7917  -11.1756  -18.0193 O   0  0  0  0  0  0  0  0  0  0  0  0
   23.1129   -8.4339  -19.4440 N   0  0  0  0  0  0  0  0  0  0  0  0
   22.3871   -8.6407  -20.6422 C   0  0  0  0  0  0  0  0  0  0  0  0
   22.9958   -9.2081  -21.6060 O   0  0  0  0  0  0  0  0  0  0  0  0
   20.9840   -8.2166  -20.7533 C   0  0  0  0  0  0  0  0  0  0  0  0
   20.4198   -7.5286  -19.5865 C   0  0  0  0  0  0  0  0  0  0  0  0
   20.1269   -8.3745  -18.3928 C   0  0  2  0  0  0  0  0  0  0  0  0
   18.8574   -9.1001  -18.6427 N   0  0  0  0  0  0  0  0  0  0  0  0
   20.0569   -7.7568  -17.0843 C   0  0  0  0  0  0  0  0  0  0  0  0
   18.9764   -7.2281  -16.6891 O   0  0  0  0  0  0  0  0  0  0  0  0
   21.1579   -7.7161  -16.2077 N   0  0  0  0  0  0  0  0  0  0  0  0
   21.0695   -6.9883  -14.9396 C   0  0  1  0  0  0  0  0  0  0  0  0
   22.0057   -7.7129  -13.9672 C   0  0  0  0  0  0  0  0  0  0  0  0
   23.2546   -8.0892  -14.6327 C   0  0  0  0  0  0  0  0  0  0  0  0
   24.0889   -7.0755  -15.0954 C   0  0  0  0  0  0  0  0  0  0  0  0
   25.2844   -7.3410  -15.7268 C   0  0  0  0  0  0  0  0  0  0  0  0
   25.6999   -8.6420  -15.9236 C   0  0  0  0  0  0  0  0  0  0  0  0
   24.8992   -9.6549  -15.4782 C   0  0  0  0  0  0  0  0  0  0  0  0
   23.6934   -9.3861  -14.8413 C   0  0  0  0  0  0  0  0  0  0  0  0
   21.4817   -5.5947  -15.1594 C   0  0  0  0  0  0  0  0  0  0  0  0
   21.4007   -4.6253  -14.1615 O   0  0  0  0  0  0  0  0  0  0  0  0
   21.9266   -5.2397  -16.2844 O   0  0  0  0  0  0  0  0  0  0  0  0
  2  1  1  1
  2  3  1  0
  4  3  1  0
  5  4  1  0
  6  5  1  0
  7  6  1  0
  8  2  1  0
  9  8  2  0
 10 11  1  0
 11 12  2  0
 11 13  1  0
 13 14  1  0
 15 14  1  6
 15 16  1  0
 16  8  1  0
 17 15  1  0
 17 18  2  0
 19 17  1  0
 20 19  1  0
 20 28  1  0
 20 21  1  1
 22 21  1  0
 22 23  2  0
 24 23  1  0
 25 24  2  0
 26 27  2  0
 26 25  1  0
 27 22  1  0
 28 29  1  0
 30 28  2  0
M  END
$$$$
