MLN.pdb
     RDKit          3D

 25 24  0  0  1  0  0  0  0  0999 V2000
   24.0584  -17.8334  -17.9313 C   0  0  0  0  0  0  0  0  0  0  0  0
   25.7712  -17.8576  -18.4620 S   0  0  0  0  0  0  0  0  0  0  0  0
   26.7627  -19.0874  -17.6244 C   0  0  0  0  0  0  0  0  0  0  0  0
   26.1235  -19.7809  -16.4765 C   0  0  0  0  0  0  0  0  0  0  0  0
   27.0072  -20.7119  -15.7245 C   0  0  2  0  0  0  0  0  0  0  0  0
   27.4290  -21.8246  -16.5512 N   0  0  0  0  0  0  0  0  0  0  0  0
   26.3211  -21.1882  -14.4887 C   0  0  0  0  0  0  0  0  0  0  0  0
   25.5994  -22.2094  -14.5513 O   0  0  0  0  0  0  0  0  0  0  0  0
   25.1005  -21.9544   -9.2130 C   0  0  0  0  0  0  0  0  0  0  0  0
   25.1115  -20.4715   -9.6491 C   0  0  1  0  0  0  0  0  0  0  0  0
   25.6719  -19.7305   -8.4268 C   0  0  0  0  0  0  0  0  0  0  0  0
   26.0680  -20.3708  -10.7796 C   0  0  0  0  0  0  0  0  0  0  0  0
   25.6015  -20.8955  -12.1071 C   0  0  2  0  0  0  0  0  0  0  0  0
   26.4347  -20.5499  -13.2284 N   0  0  0  0  0  0  0  0  0  0  0  0
   24.1957  -20.5033  -12.4089 C   0  0  0  0  0  0  0  0  0  0  0  0
   23.9229  -19.3242  -12.7533 O   0  0  0  0  0  0  0  0  0  0  0  0
   19.2226  -20.6944  -13.7115 N   0  0  0  0  0  0  0  0  0  0  0  0
   20.0315  -21.5794  -14.4643 C   0  0  0  0  0  0  0  0  0  0  0  0
   19.5372  -22.0916  -15.5227 O   0  0  0  0  0  0  0  0  0  0  0  0
   21.3920  -21.8958  -14.0405 C   0  0  0  0  0  0  0  0  0  0  0  0
   21.7764  -21.1468  -12.8137 C   0  0  2  0  0  0  0  0  0  0  0  0
   23.1110  -21.4171  -12.3265 N   0  0  0  0  0  0  0  0  0  0  0  0
   20.7715  -21.3512  -11.7146 C   0  0  0  0  0  0  0  0  0  0  0  0
   19.5738  -20.6672  -11.8079 O   0  0  0  0  0  0  0  0  0  0  0  0
   20.9663  -22.1001  -10.7354 O   0  0  0  0  0  0  0  0  0  0  0  0
  1  2  1  0
  3  2  1  0
  4  3  1  0
  5  4  1  0
  5  6  1  6
  7  8  2  0
  7  5  1  0
 10  9  1  1
 10 12  1  0
 11 10  1  0
 13 12  1  1
 13 14  1  0
 14  7  1  0
 15 13  1  0
 15 22  1  0
 16 15  2  0
 17 18  1  0
 18 20  1  0
 18 19  2  0
 21 20  1  6
 21 22  1  0
 21 23  1  0
 23 25  2  0
 23 24  1  0
M  END
$$$$
