MLN.pdb
     RDKit          3D

 25 24  0  0  1  0  0  0  0  0999 V2000
   18.0646   -9.5571  -22.1380 C   0  0  0  0  0  0  0  0  0  0  0  0
   16.6124  -10.0427  -21.2046 S   0  0  0  0  0  0  0  0  0  0  0  0
   16.9656  -11.1823  -19.8728 C   0  0  0  0  0  0  0  0  0  0  0  0
   17.7290  -10.6359  -18.7212 C   0  0  0  0  0  0  0  0  0  0  0  0
   18.0619  -11.6192  -17.6556 C   0  0  2  0  0  0  0  0  0  0  0  0
   16.8703  -12.0889  -16.9782 N   0  0  0  0  0  0  0  0  0  0  0  0
   19.0316  -11.0246  -16.6907 C   0  0  0  0  0  0  0  0  0  0  0  0
   18.6109  -10.6082  -15.5874 O   0  0  0  0  0  0  0  0  0  0  0  0
   23.1602  -10.4072  -13.5544 C   0  0  0  0  0  0  0  0  0  0  0  0
   23.6494  -10.2252  -15.0094 C   0  0  1  0  0  0  0  0  0  0  0  0
   24.9865  -10.9789  -15.0471 C   0  0  0  0  0  0  0  0  0  0  0  0
   22.6605  -10.9130  -15.8766 C   0  0  0  0  0  0  0  0  0  0  0  0
   21.3205  -10.2522  -16.0276 C   0  0  2  0  0  0  0  0  0  0  0  0
   20.4200  -10.8981  -16.9456 N   0  0  0  0  0  0  0  0  0  0  0  0
   21.4370   -8.8125  -16.3950 C   0  0  0  0  0  0  0  0  0  0  0  0
   21.7403   -8.4770  -17.5692 O   0  0  0  0  0  0  0  0  0  0  0  0
   18.9619   -3.5192  -16.4022 N   0  0  0  0  0  0  0  0  0  0  0  0
   19.9880   -4.4460  -16.7065 C   0  0  0  0  0  0  0  0  0  0  0  0
   20.9956   -4.0303  -17.3688 O   0  0  0  0  0  0  0  0  0  0  0  0
   19.8942   -5.8369  -16.2741 C   0  0  0  0  0  0  0  0  0  0  0  0
   21.2054   -6.3579  -15.8017 C   0  0  2  0  0  0  0  0  0  0  0  0
   21.2172   -7.7637  -15.4622 N   0  0  0  0  0  0  0  0  0  0  0  0
   21.7328   -5.5426  -14.6542 C   0  0  0  0  0  0  0  0  0  0  0  0
   22.0086   -4.2088  -14.8910 O   0  0  0  0  0  0  0  0  0  0  0  0
   21.9303   -6.0084  -13.5133 O   0  0  0  0  0  0  0  0  0  0  0  0
  1  2  1  0
  3  2  1  0
  4  3  1  0
  5  4  1  0
  5  6  1  1
  7  8  2  0
  7  5  1  0
 10  9  1  1
 10 12  1  0
 11 10  1  0
 13 12  1  6
 13 14  1  0
 14  7  1  0
 15 13  1  0
 15 22  1  0
 16 15  2  0
 17 18  1  0
 18 20  1  0
 18 19  2  0
 21 20  1  1
 21 22  1  0
 21 23  1  0
 23 25  2  0
 23 24  1  0
M  END
$$$$
