MLN.pdb
     RDKit          3D

 25 24  0  0  1  0  0  0  0  0999 V2000
   31.6787  -21.3153   -7.3365 C   0  0  0  0  0  0  0  0  0  0  0  0
   32.5817  -22.2484   -8.5734 S   0  0  0  0  0  0  0  0  0  0  0  0
   31.9247  -22.0684  -10.2265 C   0  0  0  0  0  0  0  0  0  0  0  0
   30.6713  -21.2814  -10.3568 C   0  0  0  0  0  0  0  0  0  0  0  0
   29.6499  -21.8600  -11.2706 C   0  0  2  0  0  0  0  0  0  0  0  0
   30.2665  -22.5135  -12.4073 N   0  0  0  0  0  0  0  0  0  0  0  0
   28.6937  -20.8028  -11.7099 C   0  0  0  0  0  0  0  0  0  0  0  0
   28.0681  -20.1526  -10.8419 O   0  0  0  0  0  0  0  0  0  0  0  0
   26.6401  -16.6123  -14.2985 C   0  0  0  0  0  0  0  0  0  0  0  0
   26.6569  -17.8629  -15.2068 C   0  0  1  0  0  0  0  0  0  0  0  0
   27.0480  -17.3133  -16.5860 C   0  0  0  0  0  0  0  0  0  0  0  0
   27.7354  -18.7437  -14.6929 C   0  0  0  0  0  0  0  0  0  0  0  0
   27.4198  -19.5523  -13.4674 C   0  0  2  0  0  0  0  0  0  0  0  0
   28.4433  -20.4814  -13.0674 N   0  0  0  0  0  0  0  0  0  0  0  0
   26.1246  -20.2798  -13.5868 C   0  0  0  0  0  0  0  0  0  0  0  0
   26.0952  -21.4629  -14.0143 O   0  0  0  0  0  0  0  0  0  0  0  0
   21.1756  -21.6485  -13.3681 N   0  0  0  0  0  0  0  0  0  0  0  0
   21.5246  -20.9867  -12.1662 C   0  0  0  0  0  0  0  0  0  0  0  0
   20.6738  -20.9790  -11.2160 O   0  0  0  0  0  0  0  0  0  0  0  0
   22.8212  -20.3324  -12.0199 C   0  0  0  0  0  0  0  0  0  0  0  0
   23.6092  -20.3799  -13.2812 C   0  0  2  0  0  0  0  0  0  0  0  0
   24.8805  -19.6921  -13.2329 N   0  0  0  0  0  0  0  0  0  0  0  0
   22.7979  -19.8897  -14.4478 C   0  0  0  0  0  0  0  0  0  0  0  0
   23.2080  -18.7238  -15.0671 O   0  0  0  0  0  0  0  0  0  0  0  0
   21.7851  -20.4792  -14.8772 O   0  0  0  0  0  0  0  0  0  0  0  0
  1  2  1  0
  3  2  1  0
  4  3  1  0
  5  4  1  0
  5  6  1  6
  7  8  2  0
  7  5  1  0
 10  9  1  1
 10 12  1  0
 11 10  1  0
 13 12  1  6
 13 14  1  0
 14  7  1  0
 15 13  1  0
 15 22  1  0
 16 15  2  0
 17 18  1  0
 18 20  1  0
 18 19  2  0
 21 20  1  1
 21 22  1  0
 21 23  1  0
 23 25  2  0
 23 24  1  0
M  END
$$$$
