MLN.pdb
     RDKit          3D

 25 24  0  0  1  0  0  0  0  0999 V2000
   25.2325  -20.4267  -17.9008 C   0  0  0  0  0  0  0  0  0  0  0  0
   25.3064  -18.8930  -16.9745 S   0  0  0  0  0  0  0  0  0  0  0  0
   23.7006  -18.1841  -16.6343 C   0  0  0  0  0  0  0  0  0  0  0  0
   23.6928  -16.8369  -16.0080 C   0  0  0  0  0  0  0  0  0  0  0  0
   23.4512  -15.7038  -16.9412 C   0  0  2  0  0  0  0  0  0  0  0  0
   24.1633  -15.8858  -18.1898 N   0  0  0  0  0  0  0  0  0  0  0  0
   23.8227  -14.4134  -16.2918 C   0  0  0  0  0  0  0  0  0  0  0  0
   23.3089  -14.1200  -15.1884 O   0  0  0  0  0  0  0  0  0  0  0  0
   26.8883  -10.2953  -14.6567 C   0  0  0  0  0  0  0  0  0  0  0  0
   26.5069  -10.1674  -16.1492 C   0  0  1  0  0  0  0  0  0  0  0  0
   27.7677   -9.5859  -16.8046 C   0  0  0  0  0  0  0  0  0  0  0  0
   26.2736  -11.5467  -16.6452 C   0  0  0  0  0  0  0  0  0  0  0  0
   24.9641  -12.1835  -16.2780 C   0  0  2  0  0  0  0  0  0  0  0  0
   24.7338  -13.4831  -16.8514 N   0  0  0  0  0  0  0  0  0  0  0  0
   23.8006  -11.3046  -16.5865 C   0  0  0  0  0  0  0  0  0  0  0  0
   23.2559  -11.3428  -17.7201 O   0  0  0  0  0  0  0  0  0  0  0  0
   18.3869   -9.7172  -15.2249 N   0  0  0  0  0  0  0  0  0  0  0  0
   19.6365   -9.4209  -15.8208 C   0  0  0  0  0  0  0  0  0  0  0  0
   19.7317   -8.3578  -16.5191 O   0  0  0  0  0  0  0  0  0  0  0  0
   20.7821  -10.3072  -15.6405 C   0  0  0  0  0  0  0  0  0  0  0  0
   22.0703   -9.5972  -15.8644 C   0  0  2  0  0  0  0  0  0  0  0  0
   23.2547  -10.3962  -15.6403 N   0  0  0  0  0  0  0  0  0  0  0  0
   22.1395   -8.3297  -15.0593 C   0  0  0  0  0  0  0  0  0  0  0  0
   23.2631   -8.1278  -14.2797 O   0  0  0  0  0  0  0  0  0  0  0  0
   21.2413   -7.4631  -15.0625 O   0  0  0  0  0  0  0  0  0  0  0  0
  1  2  1  0
  3  2  1  0
  4  3  1  0
  5  4  1  0
  5  6  1  6
  7  8  2  0
  7  5  1  0
 10  9  1  1
 10 12  1  0
 11 10  1  0
 13 12  1  6
 13 14  1  0
 14  7  1  0
 15 13  1  0
 15 22  1  0
 16 15  2  0
 17 18  1  0
 18 20  1  0
 18 19  2  0
 21 20  1  1
 21 22  1  0
 21 23  1  0
 23 25  2  0
 23 24  1  0
M  END
$$$$
