MLN.pdb
     RDKit          3D

 25 24  0  0  1  0  0  0  0  0999 V2000
   17.5622  -13.8767  -19.1778 C   0  0  0  0  0  0  0  0  0  0  0  0
   18.4155  -15.1568  -20.0992 S   0  0  0  0  0  0  0  0  0  0  0  0
   19.9258  -15.7132  -19.3205 C   0  0  0  0  0  0  0  0  0  0  0  0
   20.5353  -14.7910  -18.3277 C   0  0  0  0  0  0  0  0  0  0  0  0
   21.7907  -15.2780  -17.6952 C   0  0  2  0  0  0  0  0  0  0  0  0
   21.5636  -16.4891  -16.9329 N   0  0  0  0  0  0  0  0  0  0  0  0
   22.3868  -14.2086  -16.8433 C   0  0  0  0  0  0  0  0  0  0  0  0
   21.8194  -13.9016  -15.7703 O   0  0  0  0  0  0  0  0  0  0  0  0
   27.8519  -13.2282  -16.3325 C   0  0  0  0  0  0  0  0  0  0  0  0
   26.3741  -13.5337  -15.9974 C   0  0  1  0  0  0  0  0  0  0  0  0
   26.3696  -13.7111  -14.4724 C   0  0  0  0  0  0  0  0  0  0  0  0
   25.5987  -12.3226  -16.3646 C   0  0  0  0  0  0  0  0  0  0  0  0
   24.1024  -12.4502  -16.3533 C   0  0  2  0  0  0  0  0  0  0  0  0
   23.5723  -13.5062  -17.1747 N   0  0  0  0  0  0  0  0  0  0  0  0
   23.4223  -11.1724  -16.7081 C   0  0  0  0  0  0  0  0  0  0  0  0
   23.2408  -10.8604  -17.9135 O   0  0  0  0  0  0  0  0  0  0  0  0
   20.7608   -6.8077  -16.6616 N   0  0  0  0  0  0  0  0  0  0  0  0
   20.2244   -8.0543  -17.0650 C   0  0  0  0  0  0  0  0  0  0  0  0
   19.0923   -8.0591  -17.6526 O   0  0  0  0  0  0  0  0  0  0  0  0
   20.9471   -9.2976  -16.8151 C   0  0  0  0  0  0  0  0  0  0  0  0
   22.1858   -9.0668  -16.0238 C   0  0  2  0  0  0  0  0  0  0  0  0
   22.9521  -10.2572  -15.7284 N   0  0  0  0  0  0  0  0  0  0  0  0
   21.8894   -8.3130  -14.7575 C   0  0  0  0  0  0  0  0  0  0  0  0
   21.3545   -7.0441  -14.8790 O   0  0  0  0  0  0  0  0  0  0  0  0
   22.1011   -8.7741  -13.6172 O   0  0  0  0  0  0  0  0  0  0  0  0
  1  2  1  0
  3  2  1  0
  4  3  1  0
  5  4  1  0
  5  6  1  1
  7  8  2  0
  7  5  1  0
 10  9  1  1
 10 12  1  0
 11 10  1  0
 13 12  1  6
 13 14  1  0
 14  7  1  0
 15 13  1  0
 15 22  1  0
 16 15  2  0
 17 18  1  0
 18 20  1  0
 18 19  2  0
 21 20  1  1
 21 22  1  0
 21 23  1  0
 23 25  2  0
 23 24  1  0
M  END
$$$$
