MLN.pdb
     RDKit          3D

 25 24  0  0  1  0  0  0  0  0999 V2000
   24.8359  -17.0447  -19.9459 C   0  0  0  0  0  0  0  0  0  0  0  0
   24.5446  -17.9226  -18.4095 S   0  0  0  0  0  0  0  0  0  0  0  0
   25.4860  -19.4354  -18.2600 C   0  0  0  0  0  0  0  0  0  0  0  0
   25.2374  -20.2502  -17.0427 C   0  0  0  0  0  0  0  0  0  0  0  0
   25.0806  -19.4768  -15.7816 C   0  0  2  0  0  0  0  0  0  0  0  0
   26.3295  -18.8622  -15.3793 N   0  0  0  0  0  0  0  0  0  0  0  0
   24.5394  -20.3540  -14.7033 C   0  0  0  0  0  0  0  0  0  0  0  0
   24.1772  -21.5170  -14.9927 O   0  0  0  0  0  0  0  0  0  0  0  0
   26.2347  -20.4617   -9.3666 C   0  0  0  0  0  0  0  0  0  0  0  0
   25.8870  -20.7758  -10.8396 C   0  0  1  0  0  0  0  0  0  0  0  0
   26.2848  -22.2491  -11.0076 C   0  0  0  0  0  0  0  0  0  0  0  0
   24.4148  -20.6355  -10.9653 C   0  0  0  0  0  0  0  0  0  0  0  0
   23.8360  -20.8015  -12.3411 C   0  0  2  0  0  0  0  0  0  0  0  0
   24.4063  -19.9501  -13.3514 N   0  0  0  0  0  0  0  0  0  0  0  0
   22.3540  -20.6444  -12.3549 C   0  0  0  0  0  0  0  0  0  0  0  0
   21.8105  -19.6735  -11.7673 O   0  0  0  0  0  0  0  0  0  0  0  0
   18.2784  -19.9258  -16.1055 N   0  0  0  0  0  0  0  0  0  0  0  0
   18.7222  -19.7409  -14.7739 C   0  0  0  0  0  0  0  0  0  0  0  0
   17.8868  -19.2968  -13.9185 O   0  0  0  0  0  0  0  0  0  0  0  0
   20.0967  -20.0501  -14.3920 C   0  0  0  0  0  0  0  0  0  0  0  0
   20.1674  -21.2353  -13.4952 C   0  0  2  0  0  0  0  0  0  0  0  0
   21.4929  -21.5604  -13.0165 N   0  0  0  0  0  0  0  0  0  0  0  0
   19.5371  -22.4402  -14.1360 C   0  0  0  0  0  0  0  0  0  0  0  0
   18.1658  -22.5780  -14.0281 O   0  0  0  0  0  0  0  0  0  0  0  0
   20.1862  -23.3098  -14.7525 O   0  0  0  0  0  0  0  0  0  0  0  0
  1  2  1  0
  3  2  1  0
  4  3  1  0
  5  4  1  0
  5  6  1  1
  7  8  2  0
  7  5  1  0
 10  9  1  1
 10 12  1  0
 11 10  1  0
 13 12  1  1
 13 14  1  0
 14  7  1  0
 15 13  1  0
 15 22  1  0
 16 15  2  0
 17 18  1  0
 18 20  1  0
 18 19  2  0
 21 20  1  6
 21 22  1  0
 21 23  1  0
 23 25  2  0
 23 24  1  0
M  END
$$$$
