MLN.pdb
     RDKit          3D

 25 24  0  0  1  0  0  0  0  0999 V2000
   11.7817  -24.4883   -6.6764 C   0  0  0  0  0  0  0  0  0  0  0  0
   13.1431  -23.8284   -7.6393 S   0  0  0  0  0  0  0  0  0  0  0  0
   14.6604  -23.6564   -6.7092 C   0  0  0  0  0  0  0  0  0  0  0  0
   14.5632  -23.8689   -5.2420 C   0  0  0  0  0  0  0  0  0  0  0  0
   15.8473  -23.7635   -4.4982 C   0  0  2  0  0  0  0  0  0  0  0  0
   16.7980  -24.7636   -4.9400 N   0  0  0  0  0  0  0  0  0  0  0  0
   15.6021  -23.8639   -3.0303 C   0  0  0  0  0  0  0  0  0  0  0  0
   15.9849  -24.8882   -2.4205 O   0  0  0  0  0  0  0  0  0  0  0  0
   16.5530  -22.1600    2.0137 C   0  0  0  0  0  0  0  0  0  0  0  0
   15.1565  -21.8652    1.4200 C   0  0  1  0  0  0  0  0  0  0  0  0
   14.8118  -20.4701    1.9605 C   0  0  0  0  0  0  0  0  0  0  0  0
   15.3280  -21.8049   -0.0530 C   0  0  0  0  0  0  0  0  0  0  0  0
   14.7808  -22.9583   -0.8439 C   0  0  2  0  0  0  0  0  0  0  0  0
   14.9538  -22.8596   -2.2691 N   0  0  0  0  0  0  0  0  0  0  0  0
   13.3435  -23.2175   -0.5469 C   0  0  0  0  0  0  0  0  0  0  0  0
   12.6794  -22.4047    0.1470 O   0  0  0  0  0  0  0  0  0  0  0  0
   10.6323  -26.6853    2.5159 N   0  0  0  0  0  0  0  0  0  0  0  0
   11.1225  -26.9555    1.2155 C   0  0  0  0  0  0  0  0  0  0  0  0
   10.6032  -27.9233    0.5670 O   0  0  0  0  0  0  0  0  0  0  0  0
   12.1914  -26.1489    0.6347 C   0  0  0  0  0  0  0  0  0  0  0  0
   11.6581  -25.0914   -0.2660 C   0  0  2  0  0  0  0  0  0  0  0  0
   12.6593  -24.3695   -1.0196 N   0  0  0  0  0  0  0  0  0  0  0  0
   10.7803  -24.1296    0.4849 C   0  0  0  0  0  0  0  0  0  0  0  0
    9.4540  -24.4779    0.6607 O   0  0  0  0  0  0  0  0  0  0  0  0
   11.1884  -23.0460    0.9506 O   0  0  0  0  0  0  0  0  0  0  0  0
  1  2  1  0
  3  2  1  0
  4  3  1  0
  5  4  1  0
  5  6  1  6
  7  8  2  0
  7  5  1  0
 10  9  1  1
 10 12  1  0
 11 10  1  0
 13 12  1  1
 13 14  1  0
 14  7  1  0
 15 13  1  0
 15 22  1  0
 16 15  2  0
 17 18  1  0
 18 20  1  0
 18 19  2  0
 21 20  1  1
 21 22  1  0
 21 23  1  0
 23 25  2  0
 23 24  1  0
M  END
$$$$
