MLN.pdb
     RDKit          3D

 25 24  0  0  1  0  0  0  0  0999 V2000
   19.1295  -15.8456  -16.3424 C   0  0  0  0  0  0  0  0  0  0  0  0
   19.5433  -15.7799  -18.0861 S   0  0  0  0  0  0  0  0  0  0  0  0
   19.9812  -14.1429  -18.6566 C   0  0  0  0  0  0  0  0  0  0  0  0
   20.3762  -13.1632  -17.6118 C   0  0  0  0  0  0  0  0  0  0  0  0
   20.7558  -11.8158  -18.1152 C   0  0  2  0  0  0  0  0  0  0  0  0
   21.3073  -11.8870  -19.4531 N   0  0  0  0  0  0  0  0  0  0  0  0
   21.7104  -11.1638  -17.1726 C   0  0  0  0  0  0  0  0  0  0  0  0
   21.3556  -10.9708  -15.9875 O   0  0  0  0  0  0  0  0  0  0  0  0
   26.3644  -10.6716  -14.6134 C   0  0  0  0  0  0  0  0  0  0  0  0
   26.3415   -9.8095  -15.8962 C   0  0  1  0  0  0  0  0  0  0  0  0
   27.7633   -9.9463  -16.4593 C   0  0  0  0  0  0  0  0  0  0  0  0
   25.3719  -10.4508  -16.8189 C   0  0  0  0  0  0  0  0  0  0  0  0
   23.9206  -10.1327  -16.6005 C   0  0  2  0  0  0  0  0  0  0  0  0
   23.0133  -10.7416  -17.5370 N   0  0  0  0  0  0  0  0  0  0  0  0
   23.6622   -8.6655  -16.5594 C   0  0  0  0  0  0  0  0  0  0  0  0
   24.1913   -7.9499  -15.6699 O   0  0  0  0  0  0  0  0  0  0  0  0
   22.4529   -3.8429  -17.7431 N   0  0  0  0  0  0  0  0  0  0  0  0
   22.4545   -4.5711  -18.9572 C   0  0  0  0  0  0  0  0  0  0  0  0
   22.3484   -3.9195  -20.0485 O   0  0  0  0  0  0  0  0  0  0  0  0
   22.5742   -6.0259  -18.9586 C   0  0  0  0  0  0  0  0  0  0  0  0
   22.6506   -6.5751  -17.5779 C   0  0  2  0  0  0  0  0  0  0  0  0
   22.8241   -8.0087  -17.4999 N   0  0  0  0  0  0  0  0  0  0  0  0
   21.4647   -6.1505  -16.7576 C   0  0  0  0  0  0  0  0  0  0  0  0
   20.7296   -7.1422  -16.1353 O   0  0  0  0  0  0  0  0  0  0  0  0
   21.1184   -4.9600  -16.6145 O   0  0  0  0  0  0  0  0  0  0  0  0
  1  2  1  0
  3  2  1  0
  4  3  1  0
  5  4  1  0
  5  6  1  6
  7  8  2  0
  7  5  1  0
 10  9  1  1
 10 12  1  0
 11 10  1  0
 13 12  1  6
 13 14  1  0
 14  7  1  0
 15 13  1  0
 15 22  1  0
 16 15  2  0
 17 18  1  0
 18 20  1  0
 18 19  2  0
 21 20  1  6
 21 22  1  0
 21 23  1  0
 23 25  2  0
 23 24  1  0
M  END
$$$$
