MLN.pdb
     RDKit          3D

 25 24  0  0  1  0  0  0  0  0999 V2000
   22.9415  -22.7419  -19.3764 C   0  0  0  0  0  0  0  0  0  0  0  0
   23.5334  -24.4345  -19.4038 S   0  0  0  0  0  0  0  0  0  0  0  0
   24.2818  -24.9560  -17.8660 C   0  0  0  0  0  0  0  0  0  0  0  0
   24.2948  -23.9574  -16.7660 C   0  0  0  0  0  0  0  0  0  0  0  0
   25.6157  -23.3297  -16.4933 C   0  0  2  0  0  0  0  0  0  0  0  0
   26.5289  -24.2676  -15.8722 N   0  0  0  0  0  0  0  0  0  0  0  0
   25.4425  -22.1093  -15.6535 C   0  0  0  0  0  0  0  0  0  0  0  0
   25.5757  -22.2038  -14.4121 O   0  0  0  0  0  0  0  0  0  0  0  0
   27.5886  -17.3206  -17.2059 C   0  0  0  0  0  0  0  0  0  0  0  0
   27.1812  -18.6459  -16.5225 C   0  0  1  0  0  0  0  0  0  0  0  0
   28.1667  -18.7771  -15.3526 C   0  0  0  0  0  0  0  0  0  0  0  0
   25.8059  -18.4468  -16.0010 C   0  0  0  0  0  0  0  0  0  0  0  0
   25.1442  -19.6382  -15.3703 C   0  0  2  0  0  0  0  0  0  0  0  0
   25.1320  -20.8296  -16.1774 N   0  0  0  0  0  0  0  0  0  0  0  0
   23.7542  -19.3426  -14.9214 C   0  0  0  0  0  0  0  0  0  0  0  0
   23.5321  -18.4082  -14.1085 O   0  0  0  0  0  0  0  0  0  0  0  0
   22.2180  -20.8614  -11.5407 N   0  0  0  0  0  0  0  0  0  0  0  0
   21.3674  -20.8597  -12.6724 C   0  0  0  0  0  0  0  0  0  0  0  0
   20.7991  -21.9541  -12.9982 O   0  0  0  0  0  0  0  0  0  0  0  0
   21.1480  -19.6399  -13.4435 C   0  0  0  0  0  0  0  0  0  0  0  0
   21.2761  -19.8807  -14.9062 C   0  0  2  0  0  0  0  0  0  0  0  0
   22.6291  -20.0818  -15.3756 N   0  0  0  0  0  0  0  0  0  0  0  0
   20.6092  -18.7901  -15.6971 C   0  0  0  0  0  0  0  0  0  0  0  0
   19.2683  -18.5545  -15.4569 O   0  0  0  0  0  0  0  0  0  0  0  0
   21.2025  -18.0972  -16.5488 O   0  0  0  0  0  0  0  0  0  0  0  0
  1  2  1  0
  3  2  1  0
  4  3  1  0
  5  4  1  0
  5  6  1  1
  7  8  2  0
  7  5  1  0
 10  9  1  6
 10 12  1  0
 11 10  1  0
 13 12  1  6
 13 14  1  0
 14  7  1  0
 15 13  1  0
 15 22  1  0
 16 15  2  0
 17 18  1  0
 18 20  1  0
 18 19  2  0
 21 20  1  1
 21 22  1  0
 21 23  1  0
 23 25  2  0
 23 24  1  0
M  END
$$$$
