MLN.pdb
     RDKit          3D

 25 24  0  0  1  0  0  0  0  0999 V2000
   29.8823  -17.9611  -15.4481 C   0  0  0  0  0  0  0  0  0  0  0  0
   28.8987  -18.4075  -16.8796 S   0  0  0  0  0  0  0  0  0  0  0  0
   28.2304  -20.0640  -16.8005 C   0  0  0  0  0  0  0  0  0  0  0  0
   27.8859  -20.5731  -15.4479 C   0  0  0  0  0  0  0  0  0  0  0  0
   26.4650  -20.3949  -15.0448 C   0  0  2  0  0  0  0  0  0  0  0  0
   26.0946  -18.9944  -15.0175 N   0  0  0  0  0  0  0  0  0  0  0  0
   26.2189  -21.0435  -13.7244 C   0  0  0  0  0  0  0  0  0  0  0  0
   26.2244  -22.2935  -13.6525 O   0  0  0  0  0  0  0  0  0  0  0  0
   27.7308  -21.3369   -9.9061 C   0  0  0  0  0  0  0  0  0  0  0  0
   26.4080  -21.0601   -9.1559 C   0  0  1  0  0  0  0  0  0  0  0  0
   26.8323  -20.1841   -7.9686 C   0  0  0  0  0  0  0  0  0  0  0  0
   25.5544  -20.2734  -10.0808 C   0  0  0  0  0  0  0  0  0  0  0  0
   25.2571  -20.8928  -11.4162 C   0  0  2  0  0  0  0  0  0  0  0  0
   25.9750  -20.3256  -12.5269 N   0  0  0  0  0  0  0  0  0  0  0  0
   23.8000  -20.8915  -11.7294 C   0  0  0  0  0  0  0  0  0  0  0  0
   22.9753  -21.4008  -10.9271 O   0  0  0  0  0  0  0  0  0  0  0  0
   19.4805  -18.1595  -15.2826 N   0  0  0  0  0  0  0  0  0  0  0  0
   20.0466  -19.1098  -14.3990 C   0  0  0  0  0  0  0  0  0  0  0  0
   19.2621  -19.9276  -13.8137 O   0  0  0  0  0  0  0  0  0  0  0  0
   21.4868  -19.1514  -14.1653 C   0  0  0  0  0  0  0  0  0  0  0  0
   21.8640  -20.2514  -13.2370 C   0  0  2  0  0  0  0  0  0  0  0  0
   23.2736  -20.3286  -12.9229 N   0  0  0  0  0  0  0  0  0  0  0  0
   21.3708  -21.5796  -13.7391 C   0  0  0  0  0  0  0  0  0  0  0  0
   20.1453  -22.0227  -13.2776 O   0  0  0  0  0  0  0  0  0  0  0  0
   22.0082  -22.2908  -14.5426 O   0  0  0  0  0  0  0  0  0  0  0  0
  1  2  1  0
  3  2  1  0
  4  3  1  0
  5  4  1  0
  5  6  1  1
  7  8  2  0
  7  5  1  0
 10  9  1  6
 10 12  1  0
 11 10  1  0
 13 12  1  1
 13 14  1  0
 14  7  1  0
 15 13  1  0
 15 22  1  0
 16 15  2  0
 17 18  1  0
 18 20  1  0
 18 19  2  0
 21 20  1  6
 21 22  1  0
 21 23  1  0
 23 25  2  0
 23 24  1  0
M  END
$$$$
