MLN.pdb
     RDKit          3D

 25 24  0  0  1  0  0  0  0  0999 V2000
   12.9086  -11.8716    8.0679 C   0  0  0  0  0  0  0  0  0  0  0  0
   12.6346  -11.5613    6.3230 S   0  0  0  0  0  0  0  0  0  0  0  0
   13.9334  -12.1958    5.2706 C   0  0  0  0  0  0  0  0  0  0  0  0
   15.2395  -12.4677    5.9246 C   0  0  0  0  0  0  0  0  0  0  0  0
   16.3373  -12.8742    5.0067 C   0  0  2  0  0  0  0  0  0  0  0  0
   16.0294  -14.1192    4.3325 N   0  0  0  0  0  0  0  0  0  0  0  0
   17.6247  -12.9698    5.7539 C   0  0  0  0  0  0  0  0  0  0  0  0
   18.1953  -14.0811    5.8387 O   0  0  0  0  0  0  0  0  0  0  0  0
   22.7202  -11.1725    6.8294 C   0  0  0  0  0  0  0  0  0  0  0  0
   21.6219  -10.7994    7.8512 C   0  0  1  0  0  0  0  0  0  0  0  0
   22.0174   -9.3927    8.3223 C   0  0  0  0  0  0  0  0  0  0  0  0
   20.3460  -10.7359    7.0955 C   0  0  0  0  0  0  0  0  0  0  0  0
   19.5109  -11.9838    7.0750 C   0  0  2  0  0  0  0  0  0  0  0  0
   18.2539  -11.8673    6.3841 N   0  0  0  0  0  0  0  0  0  0  0  0
   19.2642  -12.5228    8.4424 C   0  0  0  0  0  0  0  0  0  0  0  0
   18.2731  -12.1323    9.1122 O   0  0  0  0  0  0  0  0  0  0  0  0
   18.2191  -16.8247   12.1243 N   0  0  0  0  0  0  0  0  0  0  0  0
   18.5015  -15.4811   11.7789 C   0  0  0  0  0  0  0  0  0  0  0  0
   18.4534  -14.6011   12.7010 O   0  0  0  0  0  0  0  0  0  0  0  0
   18.8379  -15.1146   10.4067 C   0  0  0  0  0  0  0  0  0  0  0  0
   19.8891  -14.0627   10.3579 C   0  0  2  0  0  0  0  0  0  0  0  0
   20.1141  -13.4847    9.0514 N   0  0  0  0  0  0  0  0  0  0  0  0
   21.1845  -14.5615   10.9348 C   0  0  0  0  0  0  0  0  0  0  0  0
   21.1857  -14.9516   12.2610 O   0  0  0  0  0  0  0  0  0  0  0  0
   22.2443  -14.6385   10.2801 O   0  0  0  0  0  0  0  0  0  0  0  0
  1  2  1  0
  3  2  1  0
  4  3  1  0
  5  4  1  0
  5  6  1  1
  7  8  2  0
  7  5  1  0
 10  9  1  6
 10 12  1  0
 11 10  1  0
 13 12  1  1
 13 14  1  0
 14  7  1  0
 15 13  1  0
 15 22  1  0
 16 15  2  0
 17 18  1  0
 18 20  1  0
 18 19  2  0
 21 20  1  6
 21 22  1  0
 21 23  1  0
 23 25  2  0
 23 24  1  0
M  END
$$$$
