MLN.pdb
     RDKit          3D

 25 24  0  0  1  0  0  0  0  0999 V2000
   22.4363  -16.4685  -19.0774 C   0  0  0  0  0  0  0  0  0  0  0  0
   20.9589  -16.1175  -20.0313 S   0  0  0  0  0  0  0  0  0  0  0  0
   20.3325  -14.4593  -19.7966 C   0  0  0  0  0  0  0  0  0  0  0  0
   20.4881  -13.8810  -18.4369 C   0  0  0  0  0  0  0  0  0  0  0  0
   20.7924  -12.4254  -18.3965 C   0  0  2  0  0  0  0  0  0  0  0  0
   21.4196  -11.9818  -19.6250 N   0  0  0  0  0  0  0  0  0  0  0  0
   21.6429  -12.1096  -17.2125 C   0  0  0  0  0  0  0  0  0  0  0  0
   21.2544  -12.4621  -16.0757 O   0  0  0  0  0  0  0  0  0  0  0  0
   27.4123  -11.7622  -15.4498 C   0  0  0  0  0  0  0  0  0  0  0  0
   26.0285  -11.1502  -15.1336 C   0  0  1  0  0  0  0  0  0  0  0  0
   26.2945   -9.6388  -15.0861 C   0  0  0  0  0  0  0  0  0  0  0  0
   25.1516  -11.4699  -16.2876 C   0  0  0  0  0  0  0  0  0  0  0  0
   23.6917  -11.1530  -16.1341 C   0  0  2  0  0  0  0  0  0  0  0  0
   22.8816  -11.4255  -17.2919 N   0  0  0  0  0  0  0  0  0  0  0  0
   23.4599   -9.7461  -15.7007 C   0  0  0  0  0  0  0  0  0  0  0  0
   23.9684   -9.3162  -14.6330 O   0  0  0  0  0  0  0  0  0  0  0  0
   24.2938   -4.1987  -16.0818 N   0  0  0  0  0  0  0  0  0  0  0  0
   23.4776   -5.2631  -15.6288 C   0  0  0  0  0  0  0  0  0  0  0  0
   22.5107   -4.9866  -14.8443 O   0  0  0  0  0  0  0  0  0  0  0  0
   23.7362   -6.6370  -16.0482 C   0  0  0  0  0  0  0  0  0  0  0  0
   22.4855   -7.4407  -16.1087 C   0  0  2  0  0  0  0  0  0  0  0  0
   22.6708   -8.8336  -16.4510 N   0  0  0  0  0  0  0  0  0  0  0  0
   21.4779   -6.8098  -17.0286 C   0  0  0  0  0  0  0  0  0  0  0  0
   21.0906   -5.5106  -16.7584 O   0  0  0  0  0  0  0  0  0  0  0  0
   20.9819   -7.3973  -18.0117 O   0  0  0  0  0  0  0  0  0  0  0  0
  1  2  1  0
  3  2  1  0
  4  3  1  0
  5  4  1  0
  5  6  1  6
  7  8  2  0
  7  5  1  0
 10  9  1  6
 10 12  1  0
 11 10  1  0
 13 12  1  6
 13 14  1  0
 14  7  1  0
 15 13  1  0
 15 22  1  0
 16 15  2  0
 17 18  1  0
 18 20  1  0
 18 19  2  0
 21 20  1  6
 21 22  1  0
 21 23  1  0
 23 25  2  0
 23 24  1  0
M  END
$$$$
