MLN.pdb
     RDKit          3D

 25 24  0  0  1  0  0  0  0  0999 V2000
   28.2629  -14.6362  -16.6446 C   0  0  0  0  0  0  0  0  0  0  0  0
   27.5461  -16.0773  -15.8537 S   0  0  0  0  0  0  0  0  0  0  0  0
   26.3234  -16.9106  -16.8574 C   0  0  0  0  0  0  0  0  0  0  0  0
   25.6846  -18.1110  -16.2587 C   0  0  0  0  0  0  0  0  0  0  0  0
   26.5741  -18.9464  -15.4079 C   0  0  2  0  0  0  0  0  0  0  0  0
   27.5796  -19.6248  -16.2005 N   0  0  0  0  0  0  0  0  0  0  0  0
   25.7656  -19.9184  -14.6163 C   0  0  0  0  0  0  0  0  0  0  0  0
   25.5097  -21.0393  -15.1118 O   0  0  0  0  0  0  0  0  0  0  0  0
   25.6924  -20.4611   -8.9696 C   0  0  0  0  0  0  0  0  0  0  0  0
   25.8759  -20.6274  -10.4954 C   0  0  1  0  0  0  0  0  0  0  0  0
   26.3711  -22.0721  -10.6533 C   0  0  0  0  0  0  0  0  0  0  0  0
   24.5277  -20.4895  -11.1005 C   0  0  0  0  0  0  0  0  0  0  0  0
   24.4457  -20.5918  -12.5965 C   0  0  2  0  0  0  0  0  0  0  0  0
   25.2602  -19.6512  -13.3194 N   0  0  0  0  0  0  0  0  0  0  0  0
   23.0438  -20.5020  -13.0944 C   0  0  0  0  0  0  0  0  0  0  0  0
   22.5319  -19.3834  -13.3590 O   0  0  0  0  0  0  0  0  0  0  0  0
   18.5933  -22.9075  -16.2895 N   0  0  0  0  0  0  0  0  0  0  0  0
   19.3532  -21.8762  -15.6869 C   0  0  0  0  0  0  0  0  0  0  0  0
   18.8315  -20.7151  -15.6052 O   0  0  0  0  0  0  0  0  0  0  0  0
   20.6950  -22.1354  -15.1741 C   0  0  0  0  0  0  0  0  0  0  0  0
   20.8709  -21.6060  -13.7948 C   0  0  2  0  0  0  0  0  0  0  0  0
   22.2268  -21.6472  -13.2934 N   0  0  0  0  0  0  0  0  0  0  0  0
   19.9398  -22.2844  -12.8292 C   0  0  0  0  0  0  0  0  0  0  0  0
   18.9581  -21.5117  -12.2374 O   0  0  0  0  0  0  0  0  0  0  0  0
   20.0115  -23.4968  -12.5415 O   0  0  0  0  0  0  0  0  0  0  0  0
  1  2  1  0
  3  2  1  0
  4  3  1  0
  5  4  1  0
  5  6  1  6
  7  8  2  0
  7  5  1  0
 10  9  1  1
 10 12  1  0
 11 10  1  0
 13 12  1  1
 13 14  1  0
 14  7  1  0
 15 13  1  0
 15 22  1  0
 16 15  2  0
 17 18  1  0
 18 20  1  0
 18 19  2  0
 21 20  1  6
 21 22  1  0
 21 23  1  0
 23 25  2  0
 23 24  1  0
M  END
$$$$
