MLN.pdb
     RDKit          3D

 25 24  0  0  1  0  0  0  0  0999 V2000
   30.1544  -25.2021  -15.9180 C   0  0  0  0  0  0  0  0  0  0  0  0
   29.4637  -24.8073  -17.5251 S   0  0  0  0  0  0  0  0  0  0  0  0
   29.4640  -23.0578  -17.8941 C   0  0  0  0  0  0  0  0  0  0  0  0
   28.9017  -22.1626  -16.8501 C   0  0  0  0  0  0  0  0  0  0  0  0
   27.4168  -22.1438  -16.7619 C   0  0  2  0  0  0  0  0  0  0  0  0
   26.8154  -21.8066  -18.0363 N   0  0  0  0  0  0  0  0  0  0  0  0
   26.9762  -21.2025  -15.6920 C   0  0  0  0  0  0  0  0  0  0  0  0
   27.3611  -21.3977  -14.5167 O   0  0  0  0  0  0  0  0  0  0  0  0
   26.3807  -16.2804  -17.0694 C   0  0  0  0  0  0  0  0  0  0  0  0
   26.9904  -17.4173  -16.2176 C   0  0  1  0  0  0  0  0  0  0  0  0
   28.2407  -16.7818  -15.5930 C   0  0  0  0  0  0  0  0  0  0  0  0
   26.0005  -17.7270  -15.1559 C   0  0  0  0  0  0  0  0  0  0  0  0
   25.7453  -19.1798  -14.8742 C   0  0  2  0  0  0  0  0  0  0  0  0
   26.1368  -20.0841  -15.9228 N   0  0  0  0  0  0  0  0  0  0  0  0
   24.3246  -19.4452  -14.5105 C   0  0  0  0  0  0  0  0  0  0  0  0
   23.7545  -18.7578  -13.6240 O   0  0  0  0  0  0  0  0  0  0  0  0
   20.2732  -22.5652  -13.9041 N   0  0  0  0  0  0  0  0  0  0  0  0
   20.9350  -21.7907  -12.9210 C   0  0  0  0  0  0  0  0  0  0  0  0
   20.6467  -22.0010  -11.6964 O   0  0  0  0  0  0  0  0  0  0  0  0
   21.9187  -20.7808  -13.2992 C   0  0  0  0  0  0  0  0  0  0  0  0
   22.1953  -20.7995  -14.7610 C   0  0  2  0  0  0  0  0  0  0  0  0
   23.5531  -20.4649  -15.1297 N   0  0  0  0  0  0  0  0  0  0  0  0
   21.2249  -19.9286  -15.5090 C   0  0  0  0  0  0  0  0  0  0  0  0
   21.7436  -18.8829  -16.2496 O   0  0  0  0  0  0  0  0  0  0  0  0
   19.9894  -20.1042  -15.4924 O   0  0  0  0  0  0  0  0  0  0  0  0
  1  2  1  0
  3  2  1  0
  4  3  1  0
  5  4  1  0
  5  6  1  6
  7  8  2  0
  7  5  1  0
 10  9  1  6
 10 12  1  0
 11 10  1  0
 13 12  1  6
 13 14  1  0
 14  7  1  0
 15 13  1  0
 15 22  1  0
 16 15  2  0
 17 18  1  0
 18 20  1  0
 18 19  2  0
 21 20  1  1
 21 22  1  0
 21 23  1  0
 23 25  2  0
 23 24  1  0
M  END
$$$$
