MLN.pdb
     RDKit          3D

 25 24  0  0  1  0  0  0  0  0999 V2000
   22.5433  -18.9953  -19.8365 C   0  0  0  0  0  0  0  0  0  0  0  0
   23.3445  -17.4000  -19.6659 S   0  0  0  0  0  0  0  0  0  0  0  0
   23.8034  -17.0058  -17.9834 C   0  0  0  0  0  0  0  0  0  0  0  0
   23.8190  -18.1375  -17.0208 C   0  0  0  0  0  0  0  0  0  0  0  0
   25.1705  -18.5920  -16.5963 C   0  0  2  0  0  0  0  0  0  0  0  0
   25.9400  -19.0852  -17.7206 N   0  0  0  0  0  0  0  0  0  0  0  0
   25.0541  -19.6259  -15.5276 C   0  0  0  0  0  0  0  0  0  0  0  0
   25.0781  -20.8357  -15.8493 O   0  0  0  0  0  0  0  0  0  0  0  0
   26.4960  -21.8690  -10.9119 C   0  0  0  0  0  0  0  0  0  0  0  0
   25.2639  -20.9581  -10.7082 C   0  0  1  0  0  0  0  0  0  0  0  0
   25.5102  -20.3026   -9.3418 C   0  0  0  0  0  0  0  0  0  0  0  0
   25.3183  -19.9289  -11.7762 C   0  0  0  0  0  0  0  0  0  0  0  0
   24.8361  -20.3424  -13.1370 C   0  0  2  0  0  0  0  0  0  0  0  0
   24.9159  -19.3232  -14.1499 N   0  0  0  0  0  0  0  0  0  0  0  0
   23.4491  -20.8867  -13.1054 C   0  0  0  0  0  0  0  0  0  0  0  0
   23.1997  -21.9608  -12.4992 O   0  0  0  0  0  0  0  0  0  0  0  0
   20.4687  -20.2440  -10.2827 N   0  0  0  0  0  0  0  0  0  0  0  0
   20.0045  -20.8012  -11.4986 C   0  0  0  0  0  0  0  0  0  0  0  0
   19.5024  -21.9733  -11.4690 O   0  0  0  0  0  0  0  0  0  0  0  0
   20.0985  -20.0548  -12.7494 C   0  0  0  0  0  0  0  0  0  0  0  0
   20.9959  -20.7269  -13.7275 C   0  0  2  0  0  0  0  0  0  0  0  0
   22.3572  -20.2387  -13.7427 N   0  0  0  0  0  0  0  0  0  0  0  0
   20.4154  -20.6885  -15.1136 C   0  0  0  0  0  0  0  0  0  0  0  0
   19.6479  -19.5906  -15.4552 O   0  0  0  0  0  0  0  0  0  0  0  0
   20.5924  -21.5899  -15.9584 O   0  0  0  0  0  0  0  0  0  0  0  0
  1  2  1  0
  3  2  1  0
  4  3  1  0
  5  4  1  0
  5  6  1  6
  7  8  2  0
  7  5  1  0
 10  9  1  6
 10 12  1  0
 11 10  1  0
 13 12  1  1
 13 14  1  0
 14  7  1  0
 15 13  1  0
 15 22  1  0
 16 15  2  0
 17 18  1  0
 18 20  1  0
 18 19  2  0
 21 20  1  1
 21 22  1  0
 21 23  1  0
 23 25  2  0
 23 24  1  0
M  END
$$$$
