YAY.pdb
     RDKit          3D

 30 31  0  0  1  0  0  0  0  0999 V2000
    6.6573  -12.9587   13.9115 O   0  0  0  0  0  0  0  0  0  0  0  0
    7.1124  -14.0544   14.6540 C   0  0  0  0  0  0  0  0  0  0  0  0
    7.3192  -15.2871   14.0733 C   0  0  0  0  0  0  0  0  0  0  0  0
    7.7674  -16.3676   14.8028 C   0  0  0  0  0  0  0  0  0  0  0  0
    8.0315  -16.2592   16.1636 C   0  0  0  0  0  0  0  0  0  0  0  0
    8.5154  -17.4162   16.9633 C   0  0  0  0  0  0  0  0  0  0  0  0
    9.7136  -16.9312   17.7896 C   0  0  2  0  0  0  0  0  0  0  0  0
   10.6697  -16.4056   16.8613 N   0  0  0  0  0  0  0  0  0  0  0  0
   10.3139  -18.0416   18.5593 C   0  0  0  0  0  0  0  0  0  0  0  0
    9.6023  -18.7139   19.3646 O   0  0  0  0  0  0  0  0  0  0  0  0
    7.8219  -15.0225   16.7362 C   0  0  0  0  0  0  0  0  0  0  0  0
    7.3735  -13.9430   16.0046 C   0  0  0  0  0  0  0  0  0  0  0  0
   13.3975  -20.0566   18.2694 C   0  0  0  0  0  0  0  0  0  0  0  0
   12.2262  -19.5835   19.1187 C   0  0  2  0  0  0  0  0  0  0  0  0
   11.6781  -18.4171   18.4532 N   0  0  0  0  0  0  0  0  0  0  0  0
   12.7076  -19.2586   20.4855 C   0  0  0  0  0  0  0  0  0  0  0  0
   13.2152  -20.2015   21.1457 O   0  0  0  0  0  0  0  0  0  0  0  0
   16.0125  -15.6797   27.6841 O   0  0  0  0  0  0  0  0  0  0  0  0
   15.4580  -15.8563   26.4087 C   0  0  0  0  0  0  0  0  0  0  0  0
   16.1769  -16.4919   25.4201 C   0  0  0  0  0  0  0  0  0  0  0  0
   15.6323  -16.6646   24.1703 C   0  0  0  0  0  0  0  0  0  0  0  0
   14.3498  -16.2173   23.8361 C   0  0  0  0  0  0  0  0  0  0  0  0
   13.8159  -16.4116   22.4722 C   0  0  0  0  0  0  0  0  0  0  0  0
   13.0856  -17.7263   22.3902 C   0  0  2  0  0  0  0  0  0  0  0  0
   12.6035  -17.9562   21.0239 N   0  0  0  0  0  0  0  0  0  0  0  0
   11.9594  -17.8641   23.3151 C   0  0  0  0  0  0  0  0  0  0  0  0
   12.0969  -18.4353   24.5687 O   0  0  0  0  0  0  0  0  0  0  0  0
   13.6559  -15.5852   24.8467 C   0  0  0  0  0  0  0  0  0  0  0  0
   14.1938  -15.4086   26.1000 C   0  0  0  0  0  0  0  0  0  0  0  0
   10.8032  -17.4616   22.9962 O   0  0  0  0  0  0  0  0  0  0  0  0
  2  3  2  0
  2  1  1  0
  4  3  1  0
  5  4  2  0
  6  7  1  0
  6  5  1  0
  7  8  1  6
  9  7  1  0
  9 10  2  0
 11  5  1  0
 11 12  2  0
 12  2  1  0
 14 13  1  6
 14 15  1  0
 15  9  1  0
 16 14  1  0
 17 16  2  0
 18 19  1  0
 19 29  2  0
 20 19  1  0
 20 21  2  0
 21 22  1  0
 22 28  2  0
 22 23  1  0
 24 23  1  6
 24 25  1  0
 24 26  1  0
 25 16  1  0
 26 27  1  0
 29 28  1  0
 30 26  2  0
M  END
$$$$
