YAY.pdb
     RDKit          3D

 30 31  0  0  1  0  0  0  0  0999 V2000
    8.1857  -12.0975   17.0794 O   0  0  0  0  0  0  0  0  0  0  0  0
    8.0474  -12.8569   18.2470 C   0  0  0  0  0  0  0  0  0  0  0  0
    7.0321  -13.7768   18.3965 C   0  0  0  0  0  0  0  0  0  0  0  0
    6.8939  -14.5258   19.5457 C   0  0  0  0  0  0  0  0  0  0  0  0
    7.7784  -14.3842   20.6091 C   0  0  0  0  0  0  0  0  0  0  0  0
    7.6419  -15.1853   21.8549 C   0  0  0  0  0  0  0  0  0  0  0  0
    8.4783  -16.4585   21.6733 C   0  0  2  0  0  0  0  0  0  0  0  0
    7.8214  -17.2447   20.6721 N   0  0  0  0  0  0  0  0  0  0  0  0
    8.5681  -17.2211   22.9366 C   0  0  0  0  0  0  0  0  0  0  0  0
    7.8806  -18.2746   23.0929 O   0  0  0  0  0  0  0  0  0  0  0  0
    8.7910  -13.4618   20.4509 C   0  0  0  0  0  0  0  0  0  0  0  0
    8.9272  -12.7137   19.3005 C   0  0  0  0  0  0  0  0  0  0  0  0
   10.3947  -18.8837   24.7363 C   0  0  0  0  0  0  0  0  0  0  0  0
    9.5939  -17.6724   25.1930 C   0  0  2  0  0  0  0  0  0  0  0  0
    9.3998  -16.8399   24.0212 N   0  0  0  0  0  0  0  0  0  0  0  0
   10.3453  -16.9565   26.2553 C   0  0  0  0  0  0  0  0  0  0  0  0
   11.4413  -16.4373   25.9212 O   0  0  0  0  0  0  0  0  0  0  0  0
    6.4988  -12.5758   24.8404 O   0  0  0  0  0  0  0  0  0  0  0  0
    7.2194  -13.1722   25.8846 C   0  0  0  0  0  0  0  0  0  0  0  0
    8.4034  -12.6170   26.3180 C   0  0  0  0  0  0  0  0  0  0  0  0
    9.1087  -13.2025   27.3417 C   0  0  0  0  0  0  0  0  0  0  0  0
    8.6783  -14.3662   27.9876 C   0  0  0  0  0  0  0  0  0  0  0  0
    9.4822  -14.9673   29.0719 C   0  0  0  0  0  0  0  0  0  0  0  0
   10.5036  -15.9093   28.4907 C   0  0  2  0  0  0  0  0  0  0  0  0
    9.8583  -16.8597   27.5783 N   0  0  0  0  0  0  0  0  0  0  0  0
   11.2812  -16.6601   29.4778 C   0  0  0  0  0  0  0  0  0  0  0  0
   12.1804  -16.0468   30.3334 O   0  0  0  0  0  0  0  0  0  0  0  0
    7.4902  -14.8977   27.5309 C   0  0  0  0  0  0  0  0  0  0  0  0
    6.7785  -14.3177   26.5072 C   0  0  0  0  0  0  0  0  0  0  0  0
   11.1583  -17.9147   29.5845 O   0  0  0  0  0  0  0  0  0  0  0  0
  2  3  2  0
  2  1  1  0
  4  3  1  0
  5  4  2  0
  6  7  1  0
  6  5  1  0
  7  8  1  6
  9  7  1  0
  9 10  2  0
 11  5  1  0
 11 12  2  0
 12  2  1  0
 14 13  1  6
 14 15  1  0
 15  9  1  0
 16 14  1  0
 17 16  2  0
 18 19  1  0
 19 29  2  0
 20 19  1  0
 20 21  2  0
 21 22  1  0
 22 28  2  0
 22 23  1  0
 24 23  1  1
 24 25  1  0
 24 26  1  0
 25 16  1  0
 26 27  1  0
 29 28  1  0
 30 26  2  0
M  END
$$$$
