YAY.pdb
     RDKit          3D

 30 31  0  0  1  0  0  0  0  0999 V2000
    5.7850  -25.9807   21.3480 O   0  0  0  0  0  0  0  0  0  0  0  0
    5.8676  -24.5846   21.4045 C   0  0  0  0  0  0  0  0  0  0  0  0
    5.5042  -23.7939   20.3357 C   0  0  0  0  0  0  0  0  0  0  0  0
    5.5848  -22.4186   20.3891 C   0  0  0  0  0  0  0  0  0  0  0  0
    6.0388  -21.7669   21.5303 C   0  0  0  0  0  0  0  0  0  0  0  0
    6.1311  -20.2841   21.6023 C   0  0  0  0  0  0  0  0  0  0  0  0
    5.2821  -19.8311   22.7972 C   0  0  2  0  0  0  0  0  0  0  0  0
    3.9206  -19.8111   22.3523 N   0  0  0  0  0  0  0  0  0  0  0  0
    5.6840  -18.4842   23.2556 C   0  0  0  0  0  0  0  0  0  0  0  0
    5.4977  -17.4771   22.5087 O   0  0  0  0  0  0  0  0  0  0  0  0
    6.4002  -22.5656   22.5945 C   0  0  0  0  0  0  0  0  0  0  0  0
    6.3188  -23.9411   22.5388 C   0  0  0  0  0  0  0  0  0  0  0  0
    6.8875  -16.9368   26.4216 C   0  0  0  0  0  0  0  0  0  0  0  0
    6.7933  -16.9333   24.9023 C   0  0  2  0  0  0  0  0  0  0  0  0
    6.2840  -18.2357   24.5172 N   0  0  0  0  0  0  0  0  0  0  0  0
    8.1378  -16.6783   24.3254 C   0  0  0  0  0  0  0  0  0  0  0  0
    8.8181  -17.6877   24.0081 O   0  0  0  0  0  0  0  0  0  0  0  0
    6.6504  -14.8069   18.1306 O   0  0  0  0  0  0  0  0  0  0  0  0
    7.4871  -14.6240   19.2404 C   0  0  0  0  0  0  0  0  0  0  0  0
    7.1129  -13.7778   20.2612 C   0  0  0  0  0  0  0  0  0  0  0  0
    7.9340  -13.5994   21.3485 C   0  0  0  0  0  0  0  0  0  0  0  0
    9.1658  -14.2489   21.4804 C   0  0  0  0  0  0  0  0  0  0  0  0
   10.0208  -14.0097   22.6615 C   0  0  0  0  0  0  0  0  0  0  0  0
    9.9786  -15.2061   23.5754 C   0  0  2  0  0  0  0  0  0  0  0  0
    8.6342  -15.3684   24.1396 N   0  0  0  0  0  0  0  0  0  0  0  0
   10.9479  -15.1782   24.6720 C   0  0  0  0  0  0  0  0  0  0  0  0
   12.3137  -15.2420   24.4544 O   0  0  0  0  0  0  0  0  0  0  0  0
    9.5119  -15.0887   20.4425 C   0  0  0  0  0  0  0  0  0  0  0  0
    8.6959  -15.2727   19.3510 C   0  0  0  0  0  0  0  0  0  0  0  0
   10.5661  -15.0951   25.8752 O   0  0  0  0  0  0  0  0  0  0  0  0
  2  3  2  0
  2  1  1  0
  4  3  1  0
  5  4  2  0
  6  7  1  0
  6  5  1  0
  7  8  1  6
  9  7  1  0
  9 10  2  0
 11  5  1  0
 11 12  2  0
 12  2  1  0
 14 13  1  1
 14 15  1  0
 15  9  1  0
 16 14  1  0
 17 16  2  0
 18 19  1  0
 19 29  2  0
 20 19  1  0
 20 21  2  0
 21 22  1  0
 22 28  2  0
 22 23  1  0
 24 23  1  1
 24 25  1  0
 24 26  1  0
 25 16  1  0
 26 27  1  0
 29 28  1  0
 30 26  2  0
M  END
$$$$
