YAY.pdb
     RDKit          3D

 30 31  0  0  1  0  0  0  0  0999 V2000
    7.5460  -11.9848   16.8453 O   0  0  0  0  0  0  0  0  0  0  0  0
    7.6356  -12.8565   17.9367 C   0  0  0  0  0  0  0  0  0  0  0  0
    6.5120  -13.3737   18.5446 C   0  0  0  0  0  0  0  0  0  0  0  0
    6.5979  -14.2325   19.6197 C   0  0  0  0  0  0  0  0  0  0  0  0
    7.8292  -14.6158   20.1395 C   0  0  0  0  0  0  0  0  0  0  0  0
    7.9373  -15.5414   21.2988 C   0  0  0  0  0  0  0  0  0  0  0  0
    8.2332  -16.9396   20.7409 C   0  0  2  0  0  0  0  0  0  0  0  0
    7.0773  -17.3396   19.9952 N   0  0  0  0  0  0  0  0  0  0  0  0
    8.4901  -17.9044   21.8312 C   0  0  0  0  0  0  0  0  0  0  0  0
    7.6229  -18.7828   22.1197 O   0  0  0  0  0  0  0  0  0  0  0  0
    8.9478  -14.0937   19.5252 C   0  0  0  0  0  0  0  0  0  0  0  0
    8.8595  -13.2348   18.4500 C   0  0  0  0  0  0  0  0  0  0  0  0
   10.2671  -20.2063   22.3273 C   0  0  0  0  0  0  0  0  0  0  0  0
   10.1323  -19.0774   23.3394 C   0  0  2  0  0  0  0  0  0  0  0  0
    9.6817  -17.9128   22.6015 N   0  0  0  0  0  0  0  0  0  0  0  0
   11.4457  -18.8392   23.9903 C   0  0  0  0  0  0  0  0  0  0  0  0
   12.0334  -19.8456   24.4638 O   0  0  0  0  0  0  0  0  0  0  0  0
   10.1727  -14.0076   30.8144 O   0  0  0  0  0  0  0  0  0  0  0  0
   10.2745  -14.5995   29.5477 C   0  0  0  0  0  0  0  0  0  0  0  0
   10.0413  -13.8553   28.4119 C   0  0  0  0  0  0  0  0  0  0  0  0
   10.1415  -14.4366   27.1708 C   0  0  0  0  0  0  0  0  0  0  0  0
   10.4773  -15.7826   26.9912 C   0  0  0  0  0  0  0  0  0  0  0  0
   10.5549  -16.3652   25.6355 C   0  0  0  0  0  0  0  0  0  0  0  0
   11.9560  -16.8465   25.3641 C   0  0  2  0  0  0  0  0  0  0  0  0
   12.0128  -17.5478   24.0768 N   0  0  0  0  0  0  0  0  0  0  0  0
   12.5198  -17.7160   26.3979 C   0  0  0  0  0  0  0  0  0  0  0  0
   13.5461  -17.3056   27.2315 O   0  0  0  0  0  0  0  0  0  0  0  0
   10.7045  -16.5004   28.1468 C   0  0  0  0  0  0  0  0  0  0  0  0
   10.6063  -15.9261   29.3925 C   0  0  0  0  0  0  0  0  0  0  0  0
   12.0837  -18.8914   26.5677 O   0  0  0  0  0  0  0  0  0  0  0  0
  2  3  2  0
  2  1  1  0
  4  3  1  0
  5  4  2  0
  6  7  1  0
  6  5  1  0
  7  8  1  1
  9  7  1  0
  9 10  2  0
 11  5  1  0
 11 12  2  0
 12  2  1  0
 14 13  1  6
 14 15  1  0
 15  9  1  0
 16 14  1  0
 17 16  2  0
 18 19  1  0
 19 29  2  0
 20 19  1  0
 20 21  2  0
 21 22  1  0
 22 28  2  0
 22 23  1  0
 24 23  1  1
 24 25  1  0
 24 26  1  0
 25 16  1  0
 26 27  1  0
 29 28  1  0
 30 26  2  0
M  END
$$$$
