YAY.pdb
     RDKit          3D

 30 31  0  0  1  0  0  0  0  0999 V2000
    7.2849  -12.2751   15.7612 O   0  0  0  0  0  0  0  0  0  0  0  0
    7.4201  -12.9735   16.9666 C   0  0  0  0  0  0  0  0  0  0  0  0
    8.4014  -13.9244   17.1464 C   0  0  0  0  0  0  0  0  0  0  0  0
    8.5364  -14.6135   18.3328 C   0  0  0  0  0  0  0  0  0  0  0  0
    7.6832  -14.3772   19.4049 C   0  0  0  0  0  0  0  0  0  0  0  0
    7.8168  -15.1129   20.6907 C   0  0  0  0  0  0  0  0  0  0  0  0
    7.7121  -16.6102   20.3733 C   0  0  2  0  0  0  0  0  0  0  0  0
    6.3218  -16.9496   20.4375 N   0  0  0  0  0  0  0  0  0  0  0  0
    8.4748  -17.4161   21.3502 C   0  0  0  0  0  0  0  0  0  0  0  0
    7.9902  -17.6483   22.4983 O   0  0  0  0  0  0  0  0  0  0  0  0
    6.7046  -13.4244   19.2162 C   0  0  0  0  0  0  0  0  0  0  0  0
    6.5713  -12.7363   18.0285 C   0  0  0  0  0  0  0  0  0  0  0  0
   11.8222  -19.1077   21.3938 C   0  0  0  0  0  0  0  0  0  0  0  0
   10.5345  -18.6712   22.0781 C   0  0  2  0  0  0  0  0  0  0  0  0
    9.7550  -17.9648   21.0795 N   0  0  0  0  0  0  0  0  0  0  0  0
   10.8618  -17.7995   23.2350 C   0  0  0  0  0  0  0  0  0  0  0  0
   11.2638  -16.6369   22.9717 O   0  0  0  0  0  0  0  0  0  0  0  0
   10.8324  -13.8367   30.9828 O   0  0  0  0  0  0  0  0  0  0  0  0
   10.5522  -14.5431   29.8047 C   0  0  0  0  0  0  0  0  0  0  0  0
   10.5021  -15.9198   29.8149 C   0  0  0  0  0  0  0  0  0  0  0  0
   10.2273  -16.6111   28.6595 C   0  0  0  0  0  0  0  0  0  0  0  0
    9.9883  -15.9752   27.4367 C   0  0  0  0  0  0  0  0  0  0  0  0
    9.7145  -16.7645   26.2180 C   0  0  0  0  0  0  0  0  0  0  0  0
   11.0043  -17.2992   25.6532 C   0  0  2  0  0  0  0  0  0  0  0  0
   10.7303  -18.2481   24.5685 N   0  0  0  0  0  0  0  0  0  0  0  0
   11.8842  -17.9434   26.6297 C   0  0  0  0  0  0  0  0  0  0  0  0
   11.8027  -19.2943   26.9214 O   0  0  0  0  0  0  0  0  0  0  0  0
   10.0456  -14.5973   27.4592 C   0  0  0  0  0  0  0  0  0  0  0  0
   10.3199  -13.8982   28.6113 C   0  0  0  0  0  0  0  0  0  0  0  0
   12.7622  -17.2783   27.2521 O   0  0  0  0  0  0  0  0  0  0  0  0
  2  3  2  0
  2  1  1  0
  4  3  1  0
  5  4  2  0
  6  7  1  0
  6  5  1  0
  7  8  1  1
  9  7  1  0
  9 10  2  0
 11  5  1  0
 11 12  2  0
 12  2  1  0
 14 13  1  6
 14 15  1  0
 15  9  1  0
 16 14  1  0
 17 16  2  0
 18 19  1  0
 19 29  2  0
 20 19  1  0
 20 21  2  0
 21 22  1  0
 22 28  2  0
 22 23  1  0
 24 23  1  1
 24 25  1  0
 24 26  1  0
 25 16  1  0
 26 27  1  0
 29 28  1  0
 30 26  2  0
M  END
$$$$
