YAY.pdb
     RDKit          3D

 30 31  0  0  1  0  0  0  0  0999 V2000
    8.3289  -13.5078   14.0788 O   0  0  0  0  0  0  0  0  0  0  0  0
    7.9472  -13.6608   15.4167 C   0  0  0  0  0  0  0  0  0  0  0  0
    7.4828  -14.8634   15.9042 C   0  0  0  0  0  0  0  0  0  0  0  0
    7.1063  -15.0164   17.2216 C   0  0  0  0  0  0  0  0  0  0  0  0
    7.1795  -13.9577   18.1199 C   0  0  0  0  0  0  0  0  0  0  0  0
    6.7768  -14.1079   19.5438 C   0  0  0  0  0  0  0  0  0  0  0  0
    8.0452  -14.4255   20.3462 C   0  0  2  0  0  0  0  0  0  0  0  0
    9.0736  -14.7199   19.3933 N   0  0  0  0  0  0  0  0  0  0  0  0
    7.8347  -15.5861   21.2375 C   0  0  0  0  0  0  0  0  0  0  0  0
    7.0341  -15.4984   22.2163 O   0  0  0  0  0  0  0  0  0  0  0  0
    7.6451  -12.7585   17.6236 C   0  0  0  0  0  0  0  0  0  0  0  0
    8.0212  -12.6077   16.3054 C   0  0  0  0  0  0  0  0  0  0  0  0
    9.0655  -19.1231   21.3810 C   0  0  0  0  0  0  0  0  0  0  0  0
    8.3498  -17.9312   22.0008 C   0  0  2  0  0  0  0  0  0  0  0  0
    8.4906  -16.8324   21.0644 N   0  0  0  0  0  0  0  0  0  0  0  0
    8.9661  -17.6142   23.3142 C   0  0  0  0  0  0  0  0  0  0  0  0
   10.2136  -17.7515   23.4018 O   0  0  0  0  0  0  0  0  0  0  0  0
   11.0332  -14.3942   31.1342 O   0  0  0  0  0  0  0  0  0  0  0  0
   10.5993  -14.6690   29.8298 C   0  0  0  0  0  0  0  0  0  0  0  0
    9.5537  -13.9593   29.2810 C   0  0  0  0  0  0  0  0  0  0  0  0
    9.1292  -14.2296   28.0023 C   0  0  0  0  0  0  0  0  0  0  0  0
    9.7177  -15.2150   27.2028 C   0  0  0  0  0  0  0  0  0  0  0  0
    9.2129  -15.4796   25.8396 C   0  0  0  0  0  0  0  0  0  0  0  0
    8.8760  -16.9402   25.6924 C   0  0  2  0  0  0  0  0  0  0  0  0
    8.1948  -17.1792   24.4154 N   0  0  0  0  0  0  0  0  0  0  0  0
    8.0582  -17.4955   26.7721 C   0  0  0  0  0  0  0  0  0  0  0  0
    8.6109  -18.1699   27.8475 O   0  0  0  0  0  0  0  0  0  0  0  0
   10.7612  -15.9077   27.7803 C   0  0  0  0  0  0  0  0  0  0  0  0
   11.1919  -15.6433   29.0593 C   0  0  0  0  0  0  0  0  0  0  0  0
    6.7985  -17.3785   26.7596 O   0  0  0  0  0  0  0  0  0  0  0  0
  2  3  2  0
  2  1  1  0
  4  3  1  0
  5  4  2  0
  6  7  1  0
  6  5  1  0
  7  8  1  6
  9  7  1  0
  9 10  2  0
 11  5  1  0
 11 12  2  0
 12  2  1  0
 14 13  1  6
 14 15  1  0
 15  9  1  0
 16 14  1  0
 17 16  2  0
 18 19  1  0
 19 29  2  0
 20 19  1  0
 20 21  2  0
 21 22  1  0
 22 28  2  0
 22 23  1  0
 24 23  1  1
 24 25  1  0
 24 26  1  0
 25 16  1  0
 26 27  1  0
 29 28  1  0
 30 26  2  0
M  END
$$$$
