YAY.pdb
     RDKit          3D

 30 31  0  0  1  0  0  0  0  0999 V2000
   10.2121  -11.9339   20.8658 O   0  0  0  0  0  0  0  0  0  0  0  0
    9.5904  -12.7656   19.9272 C   0  0  0  0  0  0  0  0  0  0  0  0
    8.3260  -13.2733   20.1347 C   0  0  0  0  0  0  0  0  0  0  0  0
    7.7117  -14.0926   19.2117 C   0  0  0  0  0  0  0  0  0  0  0  0
    8.3454  -14.4437   18.0249 C   0  0  0  0  0  0  0  0  0  0  0  0
    7.6952  -15.3266   17.0199 C   0  0  0  0  0  0  0  0  0  0  0  0
    8.3978  -16.6888   17.0860 C   0  0  2  0  0  0  0  0  0  0  0  0
    7.6998  -17.5575   16.1859 N   0  0  0  0  0  0  0  0  0  0  0  0
    8.3576  -17.2426   18.4562 C   0  0  0  0  0  0  0  0  0  0  0  0
    7.2449  -17.5172   18.9979 O   0  0  0  0  0  0  0  0  0  0  0  0
    9.6099  -13.9313   17.8257 C   0  0  0  0  0  0  0  0  0  0  0  0
   10.2225  -13.1119   18.7504 C   0  0  0  0  0  0  0  0  0  0  0  0
   10.7606  -18.7523   20.8298 C   0  0  0  0  0  0  0  0  0  0  0  0
    9.4636  -17.9918   20.5922 C   0  0  2  0  0  0  0  0  0  0  0  0
    9.5194  -17.4955   19.2305 N   0  0  0  0  0  0  0  0  0  0  0  0
    9.3544  -16.8839   21.5751 C   0  0  0  0  0  0  0  0  0  0  0  0
   10.0158  -15.8424   21.3296 O   0  0  0  0  0  0  0  0  0  0  0  0
    6.6957  -11.1184   27.5537 O   0  0  0  0  0  0  0  0  0  0  0  0
    6.7832  -12.1729   26.6341 C   0  0  0  0  0  0  0  0  0  0  0  0
    7.0718  -11.9193   25.3111 C   0  0  0  0  0  0  0  0  0  0  0  0
    7.1575  -12.9538   24.4106 C   0  0  0  0  0  0  0  0  0  0  0  0
    6.9619  -14.2904   24.7739 C   0  0  0  0  0  0  0  0  0  0  0  0
    7.0474  -15.3657   23.7640 C   0  0  0  0  0  0  0  0  0  0  0  0
    8.4727  -15.8347   23.6343 C   0  0  2  0  0  0  0  0  0  0  0  0
    8.5487  -16.9884   22.7313 N   0  0  0  0  0  0  0  0  0  0  0  0
    9.1237  -16.1839   24.8981 C   0  0  0  0  0  0  0  0  0  0  0  0
    9.8408  -15.2615   25.6409 O   0  0  0  0  0  0  0  0  0  0  0  0
    6.6746  -14.5114   26.1046 C   0  0  0  0  0  0  0  0  0  0  0  0
    6.5872  -13.4817   27.0119 C   0  0  0  0  0  0  0  0  0  0  0  0
    9.0544  -17.3587   25.3623 O   0  0  0  0  0  0  0  0  0  0  0  0
  2  3  2  0
  2  1  1  0
  4  3  1  0
  5  4  2  0
  6  7  1  0
  6  5  1  0
  7  8  1  6
  9  7  1  0
  9 10  2  0
 11  5  1  0
 11 12  2  0
 12  2  1  0
 14 13  1  1
 14 15  1  0
 15  9  1  0
 16 14  1  0
 17 16  2  0
 18 19  1  0
 19 29  2  0
 20 19  1  0
 20 21  2  0
 21 22  1  0
 22 28  2  0
 22 23  1  0
 24 23  1  1
 24 25  1  0
 24 26  1  0
 25 16  1  0
 26 27  1  0
 29 28  1  0
 30 26  2  0
M  END
$$$$
