YAY.pdb
     RDKit          3D

 30 31  0  0  1  0  0  0  0  0999 V2000
    8.1505  -12.1324   22.8524 O   0  0  0  0  0  0  0  0  0  0  0  0
    7.8037  -12.8676   21.7131 C   0  0  0  0  0  0  0  0  0  0  0  0
    7.0482  -14.0174   21.7954 C   0  0  0  0  0  0  0  0  0  0  0  0
    6.7055  -14.7432   20.6745 C   0  0  0  0  0  0  0  0  0  0  0  0
    7.1098  -14.3436   19.4056 C   0  0  0  0  0  0  0  0  0  0  0  0
    6.7476  -15.1165   18.1874 C   0  0  0  0  0  0  0  0  0  0  0  0
    7.9608  -15.9791   17.8163 C   0  0  2  0  0  0  0  0  0  0  0  0
    7.5373  -16.8574   16.7667 N   0  0  0  0  0  0  0  0  0  0  0  0
    8.4287  -16.7669   18.9766 C   0  0  0  0  0  0  0  0  0  0  0  0
    7.6707  -17.6372   19.5009 O   0  0  0  0  0  0  0  0  0  0  0  0
    7.8650  -13.1924   19.3326 C   0  0  0  0  0  0  0  0  0  0  0  0
    8.2067  -12.4680   20.4552 C   0  0  0  0  0  0  0  0  0  0  0  0
   11.5562  -17.9579   20.2358 C   0  0  0  0  0  0  0  0  0  0  0  0
   10.1867  -17.4393   20.6513 C   0  0  2  0  0  0  0  0  0  0  0  0
    9.7117  -16.6083   19.5615 N   0  0  0  0  0  0  0  0  0  0  0  0
   10.3138  -16.6675   21.9137 C   0  0  0  0  0  0  0  0  0  0  0  0
   10.7497  -15.4914   21.8164 O   0  0  0  0  0  0  0  0  0  0  0  0
   10.4846  -14.0632   30.2793 O   0  0  0  0  0  0  0  0  0  0  0  0
   10.1316  -14.5863   29.0275 C   0  0  0  0  0  0  0  0  0  0  0  0
    9.7237  -15.8972   28.9118 C   0  0  0  0  0  0  0  0  0  0  0  0
    9.3778  -16.4088   27.6843 C   0  0  0  0  0  0  0  0  0  0  0  0
    9.4181  -15.6496   26.5102 C   0  0  0  0  0  0  0  0  0  0  0  0
    9.0530  -16.2514   25.2111 C   0  0  0  0  0  0  0  0  0  0  0  0
   10.2902  -16.4632   24.3787 C   0  0  2  0  0  0  0  0  0  0  0  0
    9.9639  -17.2212   23.1658 N   0  0  0  0  0  0  0  0  0  0  0  0
   11.3907  -17.1358   25.0710 C   0  0  0  0  0  0  0  0  0  0  0  0
   11.4119  -18.5055   25.2717 O   0  0  0  0  0  0  0  0  0  0  0  0
    9.8304  -14.3418   26.6589 C   0  0  0  0  0  0  0  0  0  0  0  0
   10.1781  -13.8223   27.8837 C   0  0  0  0  0  0  0  0  0  0  0  0
   12.3752  -16.4793   25.5184 O   0  0  0  0  0  0  0  0  0  0  0  0
  2  3  2  0
  2  1  1  0
  4  3  1  0
  5  4  2  0
  6  7  1  0
  6  5  1  0
  7  8  1  6
  9  7  1  0
  9 10  2  0
 11  5  1  0
 11 12  2  0
 12  2  1  0
 14 13  1  6
 14 15  1  0
 15  9  1  0
 16 14  1  0
 17 16  2  0
 18 19  1  0
 19 29  2  0
 20 19  1  0
 20 21  2  0
 21 22  1  0
 22 28  2  0
 22 23  1  0
 24 23  1  1
 24 25  1  0
 24 26  1  0
 25 16  1  0
 26 27  1  0
 29 28  1  0
 30 26  2  0
M  END
$$$$
