YAY.pdb
     RDKit          3D

 30 31  0  0  1  0  0  0  0  0999 V2000
    7.8022  -12.1772   17.7265 O   0  0  0  0  0  0  0  0  0  0  0  0
    7.8122  -12.8576   18.9495 C   0  0  0  0  0  0  0  0  0  0  0  0
    6.8255  -12.6666   19.8926 C   0  0  0  0  0  0  0  0  0  0  0  0
    6.8334  -13.3358   21.0979 C   0  0  0  0  0  0  0  0  0  0  0  0
    7.8433  -14.2373   21.4153 C   0  0  0  0  0  0  0  0  0  0  0  0
    7.8649  -14.9664   22.7116 C   0  0  0  0  0  0  0  0  0  0  0  0
    8.0330  -16.4579   22.3940 C   0  0  2  0  0  0  0  0  0  0  0  0
    6.8457  -16.8701   21.7067 N   0  0  0  0  0  0  0  0  0  0  0  0
    8.2018  -17.2498   23.6310 C   0  0  0  0  0  0  0  0  0  0  0  0
    7.1848  -17.6345   24.2827 O   0  0  0  0  0  0  0  0  0  0  0  0
    8.8261  -14.4222   20.4661 C   0  0  0  0  0  0  0  0  0  0  0  0
    8.8162  -13.7517   19.2611 C   0  0  0  0  0  0  0  0  0  0  0  0
   10.7780  -19.4070   25.0306 C   0  0  0  0  0  0  0  0  0  0  0  0
    9.6180  -18.4658   25.3231 C   0  0  2  0  0  0  0  0  0  0  0  0
    9.4676  -17.6200   24.1544 N   0  0  0  0  0  0  0  0  0  0  0  0
    9.9230  -17.6703   26.5395 C   0  0  0  0  0  0  0  0  0  0  0  0
    9.8706  -18.2771   27.6403 O   0  0  0  0  0  0  0  0  0  0  0  0
    6.7642  -11.5758   24.1938 O   0  0  0  0  0  0  0  0  0  0  0  0
    7.2674  -12.4593   25.1589 C   0  0  0  0  0  0  0  0  0  0  0  0
    8.4877  -12.2197   25.7517 C   0  0  0  0  0  0  0  0  0  0  0  0
    8.9799  -13.0865   26.6976 C   0  0  0  0  0  0  0  0  0  0  0  0
    8.2897  -14.2331   27.1043 C   0  0  0  0  0  0  0  0  0  0  0  0
    8.8701  -15.1436   28.1130 C   0  0  0  0  0  0  0  0  0  0  0  0
   10.2726  -15.5222   27.7150 C   0  0  2  0  0  0  0  0  0  0  0  0
   10.2563  -16.2989   26.4706 N   0  0  0  0  0  0  0  0  0  0  0  0
   11.0189  -16.2718   28.7268 C   0  0  0  0  0  0  0  0  0  0  0  0
   11.2273  -15.7837   30.0055 O   0  0  0  0  0  0  0  0  0  0  0  0
    7.0718  -14.4452   26.4926 C   0  0  0  0  0  0  0  0  0  0  0  0
    6.5724  -13.5826   25.5452 C   0  0  0  0  0  0  0  0  0  0  0  0
   11.5086  -17.4083   28.4641 O   0  0  0  0  0  0  0  0  0  0  0  0
  2  3  2  0
  2  1  1  0
  4  3  1  0
  5  4  2  0
  6  7  1  0
  6  5  1  0
  7  8  1  1
  9  7  1  0
  9 10  2  0
 11  5  1  0
 11 12  2  0
 12  2  1  0
 14 13  1  6
 14 15  1  0
 15  9  1  0
 16 14  1  0
 17 16  2  0
 18 19  1  0
 19 29  2  0
 20 19  1  0
 20 21  2  0
 21 22  1  0
 22 28  2  0
 22 23  1  0
 24 23  1  1
 24 25  1  0
 24 26  1  0
 25 16  1  0
 26 27  1  0
 29 28  1  0
 30 26  2  0
M  END
$$$$
