YAY.pdb
     RDKit          3D

 30 31  0  0  1  0  0  0  0  0999 V2000
   10.6917  -14.1717   30.6824 O   0  0  0  0  0  0  0  0  0  0  0  0
   10.3012  -15.0624   29.6759 C   0  0  0  0  0  0  0  0  0  0  0  0
    9.8950  -14.6204   28.4353 C   0  0  0  0  0  0  0  0  0  0  0  0
    9.5100  -15.4959   27.4424 C   0  0  0  0  0  0  0  0  0  0  0  0
    9.5152  -16.8705   27.6515 C   0  0  0  0  0  0  0  0  0  0  0  0
    9.1025  -17.8270   26.5899 C   0  0  0  0  0  0  0  0  0  0  0  0
    8.1009  -17.0994   25.6837 C   0  0  2  0  0  0  0  0  0  0  0  0
    6.8417  -17.1115   26.3667 N   0  0  0  0  0  0  0  0  0  0  0  0
    7.9738  -17.7793   24.3771 C   0  0  0  0  0  0  0  0  0  0  0  0
    8.7890  -18.6953   24.0556 O   0  0  0  0  0  0  0  0  0  0  0  0
    9.9229  -17.3038   28.8954 C   0  0  0  0  0  0  0  0  0  0  0  0
   10.3076  -16.4262   29.8871 C   0  0  0  0  0  0  0  0  0  0  0  0
    5.8400  -17.2406   21.3405 C   0  0  0  0  0  0  0  0  0  0  0  0
    7.0777  -17.8061   22.0226 C   0  0  2  0  0  0  0  0  0  0  0  0
    6.9671  -17.4646   23.4279 N   0  0  0  0  0  0  0  0  0  0  0  0
    8.2932  -17.2135   21.4088 C   0  0  0  0  0  0  0  0  0  0  0  0
    8.6042  -17.6226   20.2605 O   0  0  0  0  0  0  0  0  0  0  0  0
    6.4697  -12.9227   16.9749 O   0  0  0  0  0  0  0  0  0  0  0  0
    7.3588  -13.2391   18.0115 C   0  0  0  0  0  0  0  0  0  0  0  0
    7.0200  -12.9797   19.3215 C   0  0  0  0  0  0  0  0  0  0  0  0
    7.8924  -13.2903   20.3367 C   0  0  0  0  0  0  0  0  0  0  0  0
    9.1432  -13.8729   20.1070 C   0  0  0  0  0  0  0  0  0  0  0  0
   10.0531  -14.1718   21.2322 C   0  0  0  0  0  0  0  0  0  0  0  0
   10.2193  -15.6619   21.3748 C   0  0  2  0  0  0  0  0  0  0  0  0
    9.0669  -16.2377   22.0766 N   0  0  0  0  0  0  0  0  0  0  0  0
   11.4435  -16.0825   22.0584 C   0  0  0  0  0  0  0  0  0  0  0  0
   11.4216  -16.8491   23.2110 O   0  0  0  0  0  0  0  0  0  0  0  0
    9.4530  -14.1200   18.7858 C   0  0  0  0  0  0  0  0  0  0  0  0
    8.5855  -13.8121   17.7642 C   0  0  0  0  0  0  0  0  0  0  0  0
   12.5817  -15.7541   21.6143 O   0  0  0  0  0  0  0  0  0  0  0  0
  2  3  2  0
  2  1  1  0
  4  3  1  0
  5  4  2  0
  6  7  1  0
  6  5  1  0
  7  8  1  1
  9  7  1  0
  9 10  2  0
 11  5  1  0
 11 12  2  0
 12  2  1  0
 14 13  1  6
 14 15  1  0
 15  9  1  0
 16 14  1  0
 17 16  2  0
 18 19  1  0
 19 29  2  0
 20 19  1  0
 20 21  2  0
 21 22  1  0
 22 28  2  0
 22 23  1  0
 24 23  1  1
 24 25  1  0
 24 26  1  0
 25 16  1  0
 26 27  1  0
 29 28  1  0
 30 26  2  0
M  END
$$$$
