YAY.pdb
     RDKit          3D

 30 31  0  0  1  0  0  0  0  0999 V2000
    8.0720  -11.8811   17.2844 O   0  0  0  0  0  0  0  0  0  0  0  0
    8.1629  -12.8010   18.3354 C   0  0  0  0  0  0  0  0  0  0  0  0
    9.3542  -13.4125   18.6616 C   0  0  0  0  0  0  0  0  0  0  0  0
    9.4460  -14.3188   19.6964 C   0  0  0  0  0  0  0  0  0  0  0  0
    8.3340  -14.6565   20.4597 C   0  0  0  0  0  0  0  0  0  0  0  0
    8.4179  -15.6325   21.5790 C   0  0  0  0  0  0  0  0  0  0  0  0
    9.5169  -16.6421   21.2232 C   0  0  2  0  0  0  0  0  0  0  0  0
    9.0381  -17.3961   20.1033 N   0  0  0  0  0  0  0  0  0  0  0  0
    9.7969  -17.5463   22.3589 C   0  0  0  0  0  0  0  0  0  0  0  0
    9.1434  -18.6248   22.4883 O   0  0  0  0  0  0  0  0  0  0  0  0
    7.1465  -14.0400   20.1264 C   0  0  0  0  0  0  0  0  0  0  0  0
    7.0570  -13.1337   19.0909 C   0  0  0  0  0  0  0  0  0  0  0  0
   12.0579  -17.4629   25.3489 C   0  0  0  0  0  0  0  0  0  0  0  0
   10.8062  -17.9486   24.6320 C   0  0  2  0  0  0  0  0  0  0  0  0
   10.7806  -17.2785   23.3459 N   0  0  0  0  0  0  0  0  0  0  0  0
    9.6103  -17.6155   25.4472 C   0  0  0  0  0  0  0  0  0  0  0  0
    9.4451  -18.2754   26.5054 O   0  0  0  0  0  0  0  0  0  0  0  0
   12.3889  -14.4808   29.8339 O   0  0  0  0  0  0  0  0  0  0  0  0
   11.2711  -14.5497   28.9908 C   0  0  0  0  0  0  0  0  0  0  0  0
   10.0964  -15.1134   29.4384 C   0  0  0  0  0  0  0  0  0  0  0  0
    9.0012  -15.1802   28.6110 C   0  0  0  0  0  0  0  0  0  0  0  0
    9.0134  -14.6928   27.2999 C   0  0  0  0  0  0  0  0  0  0  0  0
    7.8144  -14.8043   26.4437 C   0  0  0  0  0  0  0  0  0  0  0  0
    7.6353  -16.2312   25.9961 C   0  0  2  0  0  0  0  0  0  0  0  0
    8.6990  -16.6079   25.0587 N   0  0  0  0  0  0  0  0  0  0  0  0
    6.3404  -16.5256   25.3800 C   0  0  0  0  0  0  0  0  0  0  0  0
    5.1434  -16.3489   26.0528 O   0  0  0  0  0  0  0  0  0  0  0  0
   10.2034  -14.1348   26.8815 C   0  0  0  0  0  0  0  0  0  0  0  0
   11.3037  -14.0641   27.7034 C   0  0  0  0  0  0  0  0  0  0  0  0
    6.2684  -16.9599   24.1940 O   0  0  0  0  0  0  0  0  0  0  0  0
  2  3  2  0
  2  1  1  0
  4  3  1  0
  5  4  2  0
  6  7  1  0
  6  5  1  0
  7  8  1  6
  9  7  1  0
  9 10  2  0
 11  5  1  0
 11 12  2  0
 12  2  1  0
 14 13  1  1
 14 15  1  0
 15  9  1  0
 16 14  1  0
 17 16  2  0
 18 19  1  0
 19 29  2  0
 20 19  1  0
 20 21  2  0
 21 22  1  0
 22 28  2  0
 22 23  1  0
 24 23  1  6
 24 25  1  0
 24 26  1  0
 25 16  1  0
 26 27  1  0
 29 28  1  0
 30 26  2  0
M  END
$$$$
