YAY.pdb
     RDKit          3D

 30 31  0  0  1  0  0  0  0  0999 V2000
   14.7485  -16.1218   22.2308 O   0  0  0  0  0  0  0  0  0  0  0  0
   14.0305  -15.7313   21.0946 C   0  0  0  0  0  0  0  0  0  0  0  0
   13.9639  -16.5270   19.9712 C   0  0  0  0  0  0  0  0  0  0  0  0
   13.2573  -16.1444   18.8509 C   0  0  0  0  0  0  0  0  0  0  0  0
   12.5777  -14.9322   18.8064 C   0  0  0  0  0  0  0  0  0  0  0  0
   11.8114  -14.5062   17.6049 C   0  0  0  0  0  0  0  0  0  0  0  0
   10.6518  -15.4951   17.4284 C   0  0  2  0  0  0  0  0  0  0  0  0
    9.9558  -15.1071   16.2379 N   0  0  0  0  0  0  0  0  0  0  0  0
    9.7345  -15.4522   18.5870 C   0  0  0  0  0  0  0  0  0  0  0  0
    8.8996  -14.5052   18.7015 O   0  0  0  0  0  0  0  0  0  0  0  0
   12.6497  -14.1427   19.9346 C   0  0  0  0  0  0  0  0  0  0  0  0
   13.3571  -14.5274   21.0541 C   0  0  0  0  0  0  0  0  0  0  0  0
    8.0496  -17.6909   20.7458 C   0  0  0  0  0  0  0  0  0  0  0  0
    8.8202  -16.3782   20.7443 C   0  0  2  0  0  0  0  0  0  0  0  0
    9.7261  -16.4324   19.6129 N   0  0  0  0  0  0  0  0  0  0  0  0
    9.5541  -16.2356   22.0275 C   0  0  0  0  0  0  0  0  0  0  0  0
   10.6407  -16.8611   22.1304 O   0  0  0  0  0  0  0  0  0  0  0  0
   11.3753  -15.0511   30.5328 O   0  0  0  0  0  0  0  0  0  0  0  0
   10.8754  -14.8798   29.2344 C   0  0  0  0  0  0  0  0  0  0  0  0
    9.5164  -14.8755   29.0076 C   0  0  0  0  0  0  0  0  0  0  0  0
    9.0276  -14.7074   27.7344 C   0  0  0  0  0  0  0  0  0  0  0  0
    9.8583  -14.5354   26.6222 C   0  0  0  0  0  0  0  0  0  0  0  0
    9.2836  -14.3762   25.2703 C   0  0  0  0  0  0  0  0  0  0  0  0
    9.7419  -15.5034   24.3827 C   0  0  2  0  0  0  0  0  0  0  0  0
    9.0613  -15.4381   23.0848 N   0  0  0  0  0  0  0  0  0  0  0  0
    9.5568  -16.8430   24.9432 C   0  0  0  0  0  0  0  0  0  0  0  0
    8.3408  -17.5033   24.8965 O   0  0  0  0  0  0  0  0  0  0  0  0
   11.2129  -14.5445   26.8818 C   0  0  0  0  0  0  0  0  0  0  0  0
   11.7100  -14.7120   28.1530 C   0  0  0  0  0  0  0  0  0  0  0  0
   10.5152  -17.4531   25.4997 O   0  0  0  0  0  0  0  0  0  0  0  0
  2  3  2  0
  2  1  1  0
  4  3  1  0
  5  4  2  0
  6  7  1  0
  6  5  1  0
  7  8  1  6
  9  7  1  0
  9 10  2  0
 11  5  1  0
 11 12  2  0
 12  2  1  0
 14 13  1  1
 14 15  1  0
 15  9  1  0
 16 14  1  0
 17 16  2  0
 18 19  1  0
 19 29  2  0
 20 19  1  0
 20 21  2  0
 21 22  1  0
 22 28  2  0
 22 23  1  0
 24 23  1  1
 24 25  1  0
 24 26  1  0
 25 16  1  0
 26 27  1  0
 29 28  1  0
 30 26  2  0
M  END
$$$$
