YAY.pdb
     RDKit          3D

 30 31  0  0  1  0  0  0  0  0999 V2000
    7.9153  -11.6149   18.2501 O   0  0  0  0  0  0  0  0  0  0  0  0
    7.9149  -12.9352   18.7144 C   0  0  0  0  0  0  0  0  0  0  0  0
    6.9476  -13.3981   19.5802 C   0  0  0  0  0  0  0  0  0  0  0  0
    6.9452  -14.6982   20.0388 C   0  0  0  0  0  0  0  0  0  0  0  0
    7.9246  -15.6033   19.6451 C   0  0  0  0  0  0  0  0  0  0  0  0
    7.9349  -17.0088   20.1317 C   0  0  0  0  0  0  0  0  0  0  0  0
    8.7889  -17.0450   21.4057 C   0  0  2  0  0  0  0  0  0  0  0  0
    8.9196  -18.4226   21.7762 N   0  0  0  0  0  0  0  0  0  0  0  0
    8.1458  -16.2861   22.4994 C   0  0  0  0  0  0  0  0  0  0  0  0
    8.0933  -15.0206   22.4491 O   0  0  0  0  0  0  0  0  0  0  0  0
    8.8882  -15.1317   18.7790 C   0  0  0  0  0  0  0  0  0  0  0  0
    8.8886  -13.8308   18.3215 C   0  0  0  0  0  0  0  0  0  0  0  0
    6.5673  -17.1495   25.7886 C   0  0  0  0  0  0  0  0  0  0  0  0
    6.9573  -16.1422   24.7162 C   0  0  2  0  0  0  0  0  0  0  0  0
    7.5643  -16.9002   23.6388 N   0  0  0  0  0  0  0  0  0  0  0  0
    7.9036  -15.1520   25.2903 C   0  0  0  0  0  0  0  0  0  0  0  0
    7.4180  -14.0499   25.6537 O   0  0  0  0  0  0  0  0  0  0  0  0
   10.5403  -18.2787   31.0693 O   0  0  0  0  0  0  0  0  0  0  0  0
   10.3085  -17.2399   30.1569 C   0  0  0  0  0  0  0  0  0  0  0  0
   11.2718  -16.2797   29.9374 C   0  0  0  0  0  0  0  0  0  0  0  0
   11.0435  -15.2619   29.0428 C   0  0  0  0  0  0  0  0  0  0  0  0
    9.8513  -15.1431   28.3209 C   0  0  0  0  0  0  0  0  0  0  0  0
    9.6473  -14.0196   27.3831 C   0  0  0  0  0  0  0  0  0  0  0  0
   10.1459  -14.3984   26.0133 C   0  0  2  0  0  0  0  0  0  0  0  0
    9.2829  -15.4283   25.4244 N   0  0  0  0  0  0  0  0  0  0  0  0
   11.5322  -14.8664   25.9701 C   0  0  0  0  0  0  0  0  0  0  0  0
   11.8814  -16.0986   25.4442 O   0  0  0  0  0  0  0  0  0  0  0  0
    8.9072  -16.1191   28.5628 C   0  0  0  0  0  0  0  0  0  0  0  0
    9.1281  -17.1409   29.4564 C   0  0  0  0  0  0  0  0  0  0  0  0
   12.4741  -14.1514   26.4198 O   0  0  0  0  0  0  0  0  0  0  0  0
  2  3  2  0
  2  1  1  0
  4  3  1  0
  5  4  2  0
  6  7  1  0
  6  5  1  0
  7  8  1  1
  9  7  1  0
  9 10  2  0
 11  5  1  0
 11 12  2  0
 12  2  1  0
 14 13  1  1
 14 15  1  0
 15  9  1  0
 16 14  1  0
 17 16  2  0
 18 19  1  0
 19 29  2  0
 20 19  1  0
 20 21  2  0
 21 22  1  0
 22 28  2  0
 22 23  1  0
 24 23  1  1
 24 25  1  0
 24 26  1  0
 25 16  1  0
 26 27  1  0
 29 28  1  0
 30 26  2  0
M  END
$$$$
