YAY.pdb
     RDKit          3D

 30 31  0  0  1  0  0  0  0  0999 V2000
    8.4681  -12.5417   26.7472 O   0  0  0  0  0  0  0  0  0  0  0  0
    7.8685  -13.4257   25.8428 C   0  0  0  0  0  0  0  0  0  0  0  0
    8.1731  -13.4039   24.4988 C   0  0  0  0  0  0  0  0  0  0  0  0
    7.5836  -14.2737   23.6062 C   0  0  0  0  0  0  0  0  0  0  0  0
    6.6511  -15.2156   24.0264 C   0  0  0  0  0  0  0  0  0  0  0  0
    6.0070  -16.1602   23.0750 C   0  0  0  0  0  0  0  0  0  0  0  0
    6.6894  -17.5228   23.2518 C   0  0  2  0  0  0  0  0  0  0  0  0
    6.4892  -17.9109   24.6162 N   0  0  0  0  0  0  0  0  0  0  0  0
    8.1358  -17.4359   22.9580 C   0  0  0  0  0  0  0  0  0  0  0  0
    8.9816  -17.8678   23.7976 O   0  0  0  0  0  0  0  0  0  0  0  0
    6.3524  -15.2302   25.3724 C   0  0  0  0  0  0  0  0  0  0  0  0
    6.9433  -14.3592   26.2635 C   0  0  0  0  0  0  0  0  0  0  0  0
   10.1449  -16.5651   19.9257 C   0  0  0  0  0  0  0  0  0  0  0  0
   10.0519  -17.0042   21.3802 C   0  0  2  0  0  0  0  0  0  0  0  0
    8.6571  -16.8833   21.7596 N   0  0  0  0  0  0  0  0  0  0  0  0
   10.9235  -16.1375   22.2137 C   0  0  0  0  0  0  0  0  0  0  0  0
   10.7708  -14.8950   22.0897 O   0  0  0  0  0  0  0  0  0  0  0  0
   10.8225  -14.4174   30.5008 O   0  0  0  0  0  0  0  0  0  0  0  0
   10.7528  -14.8796   29.1792 C   0  0  0  0  0  0  0  0  0  0  0  0
   11.2356  -14.1066   28.1460 C   0  0  0  0  0  0  0  0  0  0  0  0
   11.1667  -14.5609   26.8509 C   0  0  0  0  0  0  0  0  0  0  0  0
   10.6172  -15.8021   26.5132 C   0  0  0  0  0  0  0  0  0  0  0  0
   10.5502  -16.2377   25.1029 C   0  0  0  0  0  0  0  0  0  0  0  0
   11.9186  -16.1631   24.4781 C   0  0  2  0  0  0  0  0  0  0  0  0
   11.8794  -16.6760   23.1042 N   0  0  0  0  0  0  0  0  0  0  0  0
   12.9705  -16.8679   25.2126 C   0  0  0  0  0  0  0  0  0  0  0  0
   13.0148  -18.2489   25.2991 O   0  0  0  0  0  0  0  0  0  0  0  0
   10.1427  -16.5519   27.5692 C   0  0  0  0  0  0  0  0  0  0  0  0
   10.2079  -16.1045   28.8679 C   0  0  0  0  0  0  0  0  0  0  0  0
   13.8890  -16.2304   25.8047 O   0  0  0  0  0  0  0  0  0  0  0  0
  2  3  2  0
  2  1  1  0
  4  3  1  0
  5  4  2  0
  6  7  1  0
  6  5  1  0
  7  8  1  1
  9  7  1  0
  9 10  2  0
 11  5  1  0
 11 12  2  0
 12  2  1  0
 14 13  1  6
 14 15  1  0
 15  9  1  0
 16 14  1  0
 17 16  2  0
 18 19  1  0
 19 29  2  0
 20 19  1  0
 20 21  2  0
 21 22  1  0
 22 28  2  0
 22 23  1  0
 24 23  1  1
 24 25  1  0
 24 26  1  0
 25 16  1  0
 26 27  1  0
 29 28  1  0
 30 26  2  0
M  END
$$$$
