LKS.pdb
     RDKit          3D

 24 23  0  0  1  0  0  0  0  0999 V2000
   22.2485  -15.8955  -14.9032 C   0  0  0  0  0  0  0  0  0  0  0  0
   23.2033  -15.1679  -15.8387 C   0  0  2  0  0  0  0  0  0  0  0  0
   24.5457  -14.9416  -15.1398 C   0  0  0  0  0  0  0  0  0  0  0  0
   22.6213  -13.8230  -16.1219 C   0  0  0  0  0  0  0  0  0  0  0  0
   21.3016  -13.8774  -16.8331 C   0  0  2  0  0  0  0  0  0  0  0  0
   21.3400  -14.5734  -18.0788 N   0  0  0  0  0  0  0  0  0  0  0  0
   20.7910  -12.4826  -16.9716 C   0  0  0  0  0  0  0  0  0  0  0  0
   21.3749  -11.6694  -17.7317 O   0  0  0  0  0  0  0  0  0  0  0  0
   19.6449  -12.0407  -16.2568 N   0  0  0  0  0  0  0  0  0  0  0  0
   19.0637  -10.7151  -16.4438 C   0  0  1  0  0  0  0  0  0  0  0  0
   17.6066  -10.7140  -16.1418 C   0  0  0  0  0  0  0  0  0  0  0  0
   16.7510  -10.8375  -17.3619 C   0  0  0  0  0  0  0  0  0  0  0  0
   16.0763  -12.1912  -17.3952 C   0  0  0  0  0  0  0  0  0  0  0  0
   15.1922  -12.2518  -18.6492 C   0  0  0  0  0  0  0  0  0  0  0  0
   13.8598  -12.6660  -18.3373 N   0  0  0  0  0  0  0  0  0  0  0  0
   19.8710   -9.7804  -15.6322 C   0  0  0  0  0  0  0  0  0  0  0  0
   20.1830  -10.1149  -14.4652 O   0  0  0  0  0  0  0  0  0  0  0  0
   22.0994   -6.6964  -17.1551 O   0  0  0  0  0  0  0  0  0  0  0  0
   22.3751   -7.2410  -15.9151 C   0  0  0  0  0  0  0  0  0  0  0  0
   21.0619   -7.6391  -15.2467 C   0  0  2  0  0  0  0  0  0  0  0  0
   20.3056   -8.5256  -16.1172 N   0  0  0  0  0  0  0  0  0  0  0  0
   20.3010   -6.4254  -14.9455 C   0  0  0  0  0  0  0  0  0  0  0  0
   19.2341   -6.1063  -15.5303 O   0  0  0  0  0  0  0  0  0  0  0  0
   20.7613   -5.5599  -13.9626 O   0  0  0  0  0  0  0  0  0  0  0  0
  2  1  1  1
  2  3  1  0
  4  2  1  0
  4  5  1  0
  5  7  1  0
  5  6  1  6
  7  8  2  0
  9 10  1  0
  9  7  1  0
 11 12  1  0
 10 11  1  1
 13 14  1  0
 13 12  1  0
 15 14  1  0
 16 17  2  0
 16 10  1  0
 18 19  1  0
 20 19  1  6
 20 22  1  0
 20 21  1  0
 21 16  1  0
 22 24  1  0
 23 22  2  0
M  END
$$$$
