LKS.pdb
     RDKit          3D

 24 23  0  0  1  0  0  0  0  0999 V2000
   27.6077  -14.4783  -16.4749 C   0  0  0  0  0  0  0  0  0  0  0  0
   26.1368  -14.8108  -16.6801 C   0  0  2  0  0  0  0  0  0  0  0  0
   25.2976  -13.5339  -16.5954 C   0  0  0  0  0  0  0  0  0  0  0  0
   25.7115  -15.6935  -15.5543 C   0  0  0  0  0  0  0  0  0  0  0  0
   26.4889  -16.9736  -15.4682 C   0  0  2  0  0  0  0  0  0  0  0  0
   26.9594  -17.4547  -16.7272 N   0  0  0  0  0  0  0  0  0  0  0  0
   25.6527  -17.9770  -14.7476 C   0  0  0  0  0  0  0  0  0  0  0  0
   24.7212  -17.5975  -13.9938 O   0  0  0  0  0  0  0  0  0  0  0  0
   25.8836  -19.3719  -14.8920 N   0  0  0  0  0  0  0  0  0  0  0  0
   25.1215  -20.3758  -14.1563 C   0  0  1  0  0  0  0  0  0  0  0  0
   25.0534  -21.6607  -14.9039 C   0  0  0  0  0  0  0  0  0  0  0  0
   24.2982  -22.7271  -14.1769 C   0  0  0  0  0  0  0  0  0  0  0  0
   24.3949  -24.0399  -14.9224 C   0  0  0  0  0  0  0  0  0  0  0  0
   23.5151  -25.0667  -14.1947 C   0  0  0  0  0  0  0  0  0  0  0  0
   23.6220  -26.3656  -14.7825 N   0  0  0  0  0  0  0  0  0  0  0  0
   25.7278  -20.4664  -12.8116 C   0  0  0  0  0  0  0  0  0  0  0  0
   26.9440  -20.7555  -12.7203 O   0  0  0  0  0  0  0  0  0  0  0  0
   26.6197  -19.4778   -8.4563 O   0  0  0  0  0  0  0  0  0  0  0  0
   26.0956  -19.2038   -9.7054 C   0  0  0  0  0  0  0  0  0  0  0  0
   25.6094  -20.5068  -10.3344 C   0  0  2  0  0  0  0  0  0  0  0  0
   24.9933  -20.2405  -11.6249 N   0  0  0  0  0  0  0  0  0  0  0  0
   24.6589  -21.1436   -9.4211 C   0  0  0  0  0  0  0  0  0  0  0  0
   23.4263  -21.2403   -9.6514 O   0  0  0  0  0  0  0  0  0  0  0  0
   25.1184  -21.6793   -8.2257 O   0  0  0  0  0  0  0  0  0  0  0  0
  2  1  1  1
  2  3  1  0
  4  2  1  0
  4  5  1  0
  5  7  1  0
  5  6  1  6
  7  8  2  0
  9 10  1  0
  9  7  1  0
 11 12  1  0
 10 11  1  6
 13 14  1  0
 13 12  1  0
 15 14  1  0
 16 17  2  0
 16 10  1  0
 18 19  1  0
 20 19  1  1
 20 22  1  0
 20 21  1  0
 21 16  1  0
 22 24  1  0
 23 22  2  0
M  END
$$$$
