LKS.pdb
     RDKit          3D

 24 23  0  0  1  0  0  0  0  0999 V2000
   14.1821  -11.3516  -17.2756 C   0  0  0  0  0  0  0  0  0  0  0  0
   14.1874  -11.3932  -15.7542 C   0  0  2  0  0  0  0  0  0  0  0  0
   13.3636  -10.2294  -15.1986 C   0  0  0  0  0  0  0  0  0  0  0  0
   15.5953  -11.1926  -15.3014 C   0  0  0  0  0  0  0  0  0  0  0  0
   16.5353  -12.2636  -15.7704 C   0  0  2  0  0  0  0  0  0  0  0  0
   16.3488  -13.5242  -15.1272 N   0  0  0  0  0  0  0  0  0  0  0  0
   17.9293  -11.7507  -15.6326 C   0  0  0  0  0  0  0  0  0  0  0  0
   18.4878  -11.7357  -14.5067 O   0  0  0  0  0  0  0  0  0  0  0  0
   18.6548  -11.2710  -16.7566 N   0  0  0  0  0  0  0  0  0  0  0  0
   20.0392  -10.8181  -16.6646 C   0  0  1  0  0  0  0  0  0  0  0  0
   20.8060  -11.1642  -17.8921 C   0  0  0  0  0  0  0  0  0  0  0  0
   22.2364  -10.7322  -17.8356 C   0  0  0  0  0  0  0  0  0  0  0  0
   22.9422  -11.0835  -19.1269 C   0  0  0  0  0  0  0  0  0  0  0  0
   24.4167  -10.6775  -18.9892 C   0  0  0  0  0  0  0  0  0  0  0  0
   25.1425  -10.9032  -20.2002 N   0  0  0  0  0  0  0  0  0  0  0  0
   19.9926   -9.3766  -16.3423 C   0  0  0  0  0  0  0  0  0  0  0  0
   19.1764   -8.6507  -16.9570 O   0  0  0  0  0  0  0  0  0  0  0  0
   21.5879   -5.5788  -13.8125 O   0  0  0  0  0  0  0  0  0  0  0  0
   21.6474   -6.9499  -13.9752 C   0  0  0  0  0  0  0  0  0  0  0  0
   20.8301   -7.3379  -15.2046 C   0  0  2  0  0  0  0  0  0  0  0  0
   20.8299   -8.7831  -15.3700 N   0  0  0  0  0  0  0  0  0  0  0  0
   21.4031   -6.6760  -16.3779 C   0  0  0  0  0  0  0  0  0  0  0  0
   20.9280   -5.6313  -16.8923 O   0  0  0  0  0  0  0  0  0  0  0  0
   22.5355   -7.2116  -16.9761 O   0  0  0  0  0  0  0  0  0  0  0  0
  2  1  1  6
  2  3  1  0
  4  2  1  0
  4  5  1  0
  5  7  1  0
  5  6  1  1
  7  8  2  0
  9 10  1  0
  9  7  1  0
 11 12  1  0
 10 11  1  6
 13 14  1  0
 13 12  1  0
 15 14  1  0
 16 17  2  0
 16 10  1  0
 18 19  1  0
 20 19  1  1
 20 22  1  0
 20 21  1  0
 21 16  1  0
 22 24  1  0
 23 22  2  0
M  END
$$$$
