LKS.pdb
     RDKit          3D

 24 23  0  0  1  0  0  0  0  0999 V2000
   15.0475  -11.6459  -16.5172 C   0  0  0  0  0  0  0  0  0  0  0  0
   15.6367  -12.0689  -15.1793 C   0  0  2  0  0  0  0  0  0  0  0  0
   14.9234  -11.3360  -14.0410 C   0  0  0  0  0  0  0  0  0  0  0  0
   17.0645  -11.6350  -15.1568 C   0  0  0  0  0  0  0  0  0  0  0  0
   17.2694  -10.2198  -15.6104 C   0  0  2  0  0  0  0  0  0  0  0  0
   16.8892   -9.9822  -16.9657 N   0  0  0  0  0  0  0  0  0  0  0  0
   18.6879   -9.8461  -15.3394 C   0  0  0  0  0  0  0  0  0  0  0  0
   19.1923  -10.0619  -14.2084 O   0  0  0  0  0  0  0  0  0  0  0  0
   19.4976   -9.2436  -16.3399 N   0  0  0  0  0  0  0  0  0  0  0  0
   20.8808   -8.8455  -16.0984 C   0  0  1  0  0  0  0  0  0  0  0  0
   21.7796   -9.3200  -17.1854 C   0  0  0  0  0  0  0  0  0  0  0  0
   21.9238  -10.8078  -17.2244 C   0  0  0  0  0  0  0  0  0  0  0  0
   22.8314  -11.2175  -18.3634 C   0  0  0  0  0  0  0  0  0  0  0  0
   22.9642  -12.7471  -18.3398 C   0  0  0  0  0  0  0  0  0  0  0  0
   23.6285  -13.2382  -19.5068 N   0  0  0  0  0  0  0  0  0  0  0  0
   20.8702   -7.3824  -15.8900 C   0  0  0  0  0  0  0  0  0  0  0  0
   20.4748   -6.6464  -16.8244 O   0  0  0  0  0  0  0  0  0  0  0  0
   19.4024   -5.4919  -13.1152 O   0  0  0  0  0  0  0  0  0  0  0  0
   19.8612   -4.8425  -14.2456 C   0  0  0  0  0  0  0  0  0  0  0  0
   21.2737   -5.3300  -14.5571 C   0  0  2  0  0  0  0  0  0  0  0  0
   21.2872   -6.7792  -14.6814 N   0  0  0  0  0  0  0  0  0  0  0  0
   22.1702   -4.8872  -13.4879 C   0  0  0  0  0  0  0  0  0  0  0  0
   22.8253   -5.6720  -12.7553 O   0  0  0  0  0  0  0  0  0  0  0  0
   22.3241   -3.5285  -13.2479 O   0  0  0  0  0  0  0  0  0  0  0  0
  2  1  1  6
  2  3  1  0
  4  2  1  0
  4  5  1  0
  5  7  1  0
  5  6  1  6
  7  8  2  0
  9 10  1  0
  9  7  1  0
 11 12  1  0
 10 11  1  6
 13 14  1  0
 13 12  1  0
 15 14  1  0
 16 17  2  0
 16 10  1  0
 18 19  1  0
 20 19  1  1
 20 22  1  0
 20 21  1  0
 21 16  1  0
 22 24  1  0
 23 22  2  0
M  END
$$$$
