LKS.pdb
     RDKit          3D

 24 23  0  0  1  0  0  0  0  0999 V2000
   26.5886   -9.5845  -15.1092 C   0  0  0  0  0  0  0  0  0  0  0  0
   25.7926  -10.7271  -15.7232 C   0  0  2  0  0  0  0  0  0  0  0  0
   26.5983  -11.3760  -16.8509 C   0  0  0  0  0  0  0  0  0  0  0  0
   24.5646  -10.1431  -16.3382 C   0  0  0  0  0  0  0  0  0  0  0  0
   23.6390   -9.5071  -15.3436 C   0  0  2  0  0  0  0  0  0  0  0  0
   23.1488  -10.4048  -14.3478 N   0  0  0  0  0  0  0  0  0  0  0  0
   22.5421   -8.8317  -16.0959 C   0  0  0  0  0  0  0  0  0  0  0  0
   22.6629   -8.6142  -17.3280 O   0  0  0  0  0  0  0  0  0  0  0  0
   21.3457   -8.4209  -15.4482 N   0  0  0  0  0  0  0  0  0  0  0  0
   20.2269   -7.8214  -16.1687 C   0  0  1  0  0  0  0  0  0  0  0  0
   18.9227   -8.2140  -15.5691 C   0  0  0  0  0  0  0  0  0  0  0  0
   18.4659   -9.5744  -15.9891 C   0  0  0  0  0  0  0  0  0  0  0  0
   17.1220   -9.8910  -15.3708 C   0  0  0  0  0  0  0  0  0  0  0  0
   16.6103  -11.2005  -15.9884 C   0  0  0  0  0  0  0  0  0  0  0  0
   15.2730  -11.4927  -15.5755 N   0  0  0  0  0  0  0  0  0  0  0  0
   20.4822   -6.3664  -16.2123 C   0  0  0  0  0  0  0  0  0  0  0  0
   20.9489   -5.8085  -15.1915 O   0  0  0  0  0  0  0  0  0  0  0  0
   21.0916   -2.3246  -18.7409 O   0  0  0  0  0  0  0  0  0  0  0  0
   20.6753   -3.6419  -18.7776 C   0  0  0  0  0  0  0  0  0  0  0  0
   20.5546   -4.1625  -17.3478 C   0  0  2  0  0  0  0  0  0  0  0  0
   20.2220   -5.5784  -17.3569 N   0  0  0  0  0  0  0  0  0  0  0  0
   19.5273   -3.3870  -16.6505 C   0  0  0  0  0  0  0  0  0  0  0  0
   19.7107   -2.2251  -16.2053 O   0  0  0  0  0  0  0  0  0  0  0  0
   18.2700   -3.9426  -16.4562 O   0  0  0  0  0  0  0  0  0  0  0  0
  2  1  1  6
  2  3  1  0
  4  2  1  0
  4  5  1  0
  5  7  1  0
  5  6  1  1
  7  8  2  0
  9 10  1  0
  9  7  1  0
 11 12  1  0
 10 11  1  1
 13 14  1  0
 13 12  1  0
 15 14  1  0
 16 17  2  0
 16 10  1  0
 18 19  1  0
 20 19  1  6
 20 22  1  0
 20 21  1  0
 21 16  1  0
 22 24  1  0
 23 22  2  0
M  END
$$$$
