LKS.pdb
     RDKit          3D

 24 23  0  0  1  0  0  0  0  0999 V2000
   25.7652  -10.3706  -14.4794 C   0  0  0  0  0  0  0  0  0  0  0  0
   25.9562  -10.1979  -15.9794 C   0  0  2  0  0  0  0  0  0  0  0  0
   27.1711   -9.3079  -16.2506 C   0  0  0  0  0  0  0  0  0  0  0  0
   24.7582   -9.4818  -16.5081 C   0  0  0  0  0  0  0  0  0  0  0  0
   23.4750  -10.2348  -16.3158 C   0  0  2  0  0  0  0  0  0  0  0  0
   23.4884  -11.5555  -16.8573 N   0  0  0  0  0  0  0  0  0  0  0  0
   22.3627   -9.4034  -16.8606 C   0  0  0  0  0  0  0  0  0  0  0  0
   22.3455   -9.0921  -18.0783 O   0  0  0  0  0  0  0  0  0  0  0  0
   21.3054   -8.9463  -16.0282 N   0  0  0  0  0  0  0  0  0  0  0  0
   20.1978   -8.1415  -16.5336 C   0  0  1  0  0  0  0  0  0  0  0  0
   18.9265   -8.4665  -15.8318 C   0  0  0  0  0  0  0  0  0  0  0  0
   18.2737   -9.7122  -16.3400 C   0  0  0  0  0  0  0  0  0  0  0  0
   17.0393  -10.0282  -15.5245 C   0  0  0  0  0  0  0  0  0  0  0  0
   16.3904  -11.2896  -16.1123 C   0  0  0  0  0  0  0  0  0  0  0  0
   15.3182  -11.7632  -15.2936 N   0  0  0  0  0  0  0  0  0  0  0  0
   20.6219   -6.7291  -16.4367 C   0  0  0  0  0  0  0  0  0  0  0  0
   21.2043   -6.3479  -15.3943 O   0  0  0  0  0  0  0  0  0  0  0  0
   22.0690   -2.7071  -18.4542 O   0  0  0  0  0  0  0  0  0  0  0  0
   21.6266   -4.0078  -18.6041 C   0  0  0  0  0  0  0  0  0  0  0  0
   20.8988   -4.4324  -17.3313 C   0  0  2  0  0  0  0  0  0  0  0  0
   20.3981   -5.7909  -17.4704 N   0  0  0  0  0  0  0  0  0  0  0  0
   19.8042   -3.4934  -17.0804 C   0  0  0  0  0  0  0  0  0  0  0  0
   18.6246   -3.6727  -17.4782 O   0  0  0  0  0  0  0  0  0  0  0  0
   20.0555   -2.3306  -16.3648 O   0  0  0  0  0  0  0  0  0  0  0  0
  2  1  1  1
  2  3  1  0
  4  2  1  0
  4  5  1  0
  5  7  1  0
  5  6  1  6
  7  8  2  0
  9 10  1  0
  9  7  1  0
 11 12  1  0
 10 11  1  1
 13 14  1  0
 13 12  1  0
 15 14  1  0
 16 17  2  0
 16 10  1  0
 18 19  1  0
 20 19  1  6
 20 22  1  0
 20 21  1  0
 21 16  1  0
 22 24  1  0
 23 22  2  0
M  END
$$$$
