LKS.pdb
     RDKit          3D

 24 23  0  0  1  0  0  0  0  0999 V2000
   22.3506  -22.1950   -9.7724 C   0  0  0  0  0  0  0  0  0  0  0  0
   22.6227  -20.7552   -9.3610 C   0  0  2  0  0  0  0  0  0  0  0  0
   21.3216  -19.9504   -9.3903 C   0  0  0  0  0  0  0  0  0  0  0  0
   23.5337  -20.1581  -10.3813 C   0  0  0  0  0  0  0  0  0  0  0  0
   24.8501  -20.8677  -10.4998 C   0  0  2  0  0  0  0  0  0  0  0  0
   25.7078  -20.6954   -9.3718 N   0  0  0  0  0  0  0  0  0  0  0  0
   25.4924  -20.4444  -11.7779 C   0  0  0  0  0  0  0  0  0  0  0  0
   26.2506  -19.4421  -11.8014 O   0  0  0  0  0  0  0  0  0  0  0  0
   25.2673  -21.1538  -12.9886 N   0  0  0  0  0  0  0  0  0  0  0  0
   25.9953  -20.8609  -14.2191 C   0  0  1  0  0  0  0  0  0  0  0  0
   26.5949  -22.0924  -14.8009 C   0  0  0  0  0  0  0  0  0  0  0  0
   27.3334  -21.8430  -16.0770 C   0  0  0  0  0  0  0  0  0  0  0  0
   27.8403  -23.1466  -16.6536 C   0  0  0  0  0  0  0  0  0  0  0  0
   28.6026  -22.8301  -17.9484 C   0  0  0  0  0  0  0  0  0  0  0  0
   29.1793  -24.0053  -18.5232 N   0  0  0  0  0  0  0  0  0  0  0  0
   25.0561  -20.1436  -15.1064 C   0  0  0  0  0  0  0  0  0  0  0  0
   23.8539  -20.4981  -15.1194 O   0  0  0  0  0  0  0  0  0  0  0  0
   24.1206  -16.5636  -18.2158 O   0  0  0  0  0  0  0  0  0  0  0  0
   25.0728  -17.1618  -17.4124 C   0  0  0  0  0  0  0  0  0  0  0  0
   24.4822  -18.4332  -16.8084 C   0  0  2  0  0  0  0  0  0  0  0  0
   25.4571  -19.0749  -15.9405 N   0  0  0  0  0  0  0  0  0  0  0  0
   24.0796  -19.3269  -17.8957 C   0  0  0  0  0  0  0  0  0  0  0  0
   22.8969  -19.4349  -18.3098 O   0  0  0  0  0  0  0  0  0  0  0  0
   25.0385  -20.1109  -18.5226 O   0  0  0  0  0  0  0  0  0  0  0  0
  2  1  1  6
  2  3  1  0
  4  2  1  0
  4  5  1  0
  5  7  1  0
  5  6  1  1
  7  8  2  0
  9 10  1  0
  9  7  1  0
 11 12  1  0
 10 11  1  6
 13 14  1  0
 13 12  1  0
 15 14  1  0
 16 17  2  0
 16 10  1  0
 18 19  1  0
 20 19  1  6
 20 22  1  0
 20 21  1  0
 21 16  1  0
 22 24  1  0
 23 22  2  0
M  END
$$$$
