LKS.pdb
     RDKit          3D

 24 23  0  0  1  0  0  0  0  0999 V2000
   13.5311   -6.1545   -9.3565 C   0  0  0  0  0  0  0  0  0  0  0  0
   14.5573   -6.7758   -8.4200 C   0  0  2  0  0  0  0  0  0  0  0  0
   14.9972   -5.7488   -7.3744 C   0  0  0  0  0  0  0  0  0  0  0  0
   15.7606   -7.1208   -9.2328 C   0  0  0  0  0  0  0  0  0  0  0  0
   15.4986   -8.1602  -10.2824 C   0  0  2  0  0  0  0  0  0  0  0  0
   15.1166   -9.4322   -9.7592 N   0  0  0  0  0  0  0  0  0  0  0  0
   16.6980   -8.2406  -11.1657 C   0  0  0  0  0  0  0  0  0  0  0  0
   17.7000   -8.9109  -10.8098 O   0  0  0  0  0  0  0  0  0  0  0  0
   16.7399   -7.5700  -12.4180 N   0  0  0  0  0  0  0  0  0  0  0  0
   17.8797   -7.6664  -13.3244 C   0  0  1  0  0  0  0  0  0  0  0  0
   17.4532   -8.0721  -14.6912 C   0  0  0  0  0  0  0  0  0  0  0  0
   16.8892   -9.4558  -14.7469 C   0  0  0  0  0  0  0  0  0  0  0  0
   17.5338  -10.2407  -15.8681 C   0  0  0  0  0  0  0  0  0  0  0  0
   16.8452  -11.6109  -15.9472 C   0  0  0  0  0  0  0  0  0  0  0  0
   17.3446  -12.3916  -17.0360 N   0  0  0  0  0  0  0  0  0  0  0  0
   18.5908   -6.3730  -13.2496 C   0  0  0  0  0  0  0  0  0  0  0  0
   17.9155   -5.3228  -13.1400 O   0  0  0  0  0  0  0  0  0  0  0  0
   22.6782   -6.1129  -13.6210 O   0  0  0  0  0  0  0  0  0  0  0  0
   22.0928   -5.0580  -12.9470 C   0  0  0  0  0  0  0  0  0  0  0  0
   20.6264   -4.9602  -13.3594 C   0  0  2  0  0  0  0  0  0  0  0  0
   20.0001   -6.2715  -13.2965 N   0  0  0  0  0  0  0  0  0  0  0  0
   20.5549   -4.4094  -14.7138 C   0  0  0  0  0  0  0  0  0  0  0  0
   20.1893   -5.0712  -15.7189 O   0  0  0  0  0  0  0  0  0  0  0  0
   20.9052   -3.0834  -14.9287 O   0  0  0  0  0  0  0  0  0  0  0  0
  2  1  1  6
  2  3  1  0
  4  2  1  0
  4  5  1  0
  5  7  1  0
  5  6  1  1
  7  8  2  0
  9 10  1  0
  9  7  1  0
 11 12  1  0
 10 11  1  6
 13 14  1  0
 13 12  1  0
 15 14  1  0
 16 17  2  0
 16 10  1  0
 18 19  1  0
 20 19  1  6
 20 22  1  0
 20 21  1  0
 21 16  1  0
 22 24  1  0
 23 22  2  0
M  END
$$$$
