LKS.pdb
     RDKit          3D

 24 23  0  0  1  0  0  0  0  0999 V2000
   27.1895  -12.9329  -15.3966 C   0  0  0  0  0  0  0  0  0  0  0  0
   27.2082  -12.1724  -16.7148 C   0  0  2  0  0  0  0  0  0  0  0  0
   28.5079  -11.3741  -16.8370 C   0  0  0  0  0  0  0  0  0  0  0  0
   26.0870  -11.1878  -16.6845 C   0  0  0  0  0  0  0  0  0  0  0  0
   24.7290  -11.8246  -16.6561 C   0  0  2  0  0  0  0  0  0  0  0  0
   24.5242  -12.8043  -17.6738 N   0  0  0  0  0  0  0  0  0  0  0  0
   23.7064  -10.7391  -16.6916 C   0  0  0  0  0  0  0  0  0  0  0  0
   23.4768  -10.1231  -17.7630 O   0  0  0  0  0  0  0  0  0  0  0  0
   22.9730  -10.3763  -15.5295 N   0  0  0  0  0  0  0  0  0  0  0  0
   21.8955   -9.3922  -15.5545 C   0  0  1  0  0  0  0  0  0  0  0  0
   20.7875   -9.7776  -14.6390 C   0  0  0  0  0  0  0  0  0  0  0  0
   19.4482   -9.7853  -15.3040 C   0  0  0  0  0  0  0  0  0  0  0  0
   19.1051  -11.1807  -15.7774 C   0  0  0  0  0  0  0  0  0  0  0  0
   17.7175  -11.1332  -16.4331 C   0  0  0  0  0  0  0  0  0  0  0  0
   17.3625  -12.3919  -17.0112 N   0  0  0  0  0  0  0  0  0  0  0  0
   22.5135   -8.0802  -15.2703 C   0  0  0  0  0  0  0  0  0  0  0  0
   23.4966   -8.0359  -14.4941 O   0  0  0  0  0  0  0  0  0  0  0  0
   22.8159   -5.0061  -17.7523 O   0  0  0  0  0  0  0  0  0  0  0  0
   22.3700   -4.5518  -16.5256 C   0  0  0  0  0  0  0  0  0  0  0  0
   22.6649   -5.6125  -15.4683 C   0  0  2  0  0  0  0  0  0  0  0  0
   22.0420   -6.8741  -15.8373 N   0  0  0  0  0  0  0  0  0  0  0  0
   22.1657   -5.1395  -14.1761 C   0  0  0  0  0  0  0  0  0  0  0  0
   22.6532   -4.1608  -13.5544 O   0  0  0  0  0  0  0  0  0  0  0  0
   21.0939   -5.7907  -13.5808 O   0  0  0  0  0  0  0  0  0  0  0  0
  2  1  1  1
  2  3  1  0
  4  2  1  0
  4  5  1  0
  5  7  1  0
  5  6  1  6
  7  8  2  0
  9 10  1  0
  9  7  1  0
 11 12  1  0
 10 11  1  1
 13 14  1  0
 13 12  1  0
 15 14  1  0
 16 17  2  0
 16 10  1  0
 18 19  1  0
 20 19  1  6
 20 22  1  0
 20 21  1  0
 21 16  1  0
 22 24  1  0
 23 22  2  0
M  END
$$$$
