LKS.pdb
     RDKit          3D

 24 23  0  0  1  0  0  0  0  0999 V2000
   28.7353  -17.5984  -19.7866 C   0  0  0  0  0  0  0  0  0  0  0  0
   27.8241  -16.4496  -19.3788 C   0  0  2  0  0  0  0  0  0  0  0  0
   28.6072  -15.1350  -19.3888 C   0  0  0  0  0  0  0  0  0  0  0  0
   27.3908  -16.6941  -17.9717 C   0  0  0  0  0  0  0  0  0  0  0  0
   27.2632  -18.1485  -17.6266 C   0  0  2  0  0  0  0  0  0  0  0  0
   26.5944  -18.9258  -18.6198 N   0  0  0  0  0  0  0  0  0  0  0  0
   26.6168  -18.2527  -16.2863 C   0  0  0  0  0  0  0  0  0  0  0  0
   26.9095  -17.4333  -15.3791 O   0  0  0  0  0  0  0  0  0  0  0  0
   25.6643  -19.2685  -16.0020 N   0  0  0  0  0  0  0  0  0  0  0  0
   24.9939  -19.3792  -14.7104 C   0  0  1  0  0  0  0  0  0  0  0  0
   23.5632  -19.7551  -14.8722 C   0  0  0  0  0  0  0  0  0  0  0  0
   22.6812  -18.5930  -15.2001 C   0  0  0  0  0  0  0  0  0  0  0  0
   21.7786  -18.9316  -16.3660 C   0  0  0  0  0  0  0  0  0  0  0  0
   20.8699  -17.7225  -16.6315 C   0  0  0  0  0  0  0  0  0  0  0  0
   19.9422  -17.9803  -17.6884 N   0  0  0  0  0  0  0  0  0  0  0  0
   25.7975  -20.3138  -13.8950 C   0  0  0  0  0  0  0  0  0  0  0  0
   26.1472  -21.4049  -14.4031 O   0  0  0  0  0  0  0  0  0  0  0  0
   27.9952  -19.5827  -10.8111 O   0  0  0  0  0  0  0  0  0  0  0  0
   27.1846  -20.6306  -10.4176 C   0  0  0  0  0  0  0  0  0  0  0  0
   26.3860  -21.1180  -11.6236 C   0  0  2  0  0  0  0  0  0  0  0  0
   26.1877  -20.0283  -12.5664 N   0  0  0  0  0  0  0  0  0  0  0  0
   25.1035  -21.6463  -11.1556 C   0  0  0  0  0  0  0  0  0  0  0  0
   23.9874  -21.1880  -11.5110 O   0  0  0  0  0  0  0  0  0  0  0  0
   25.0902  -22.7139  -10.2684 O   0  0  0  0  0  0  0  0  0  0  0  0
  2  1  1  1
  2  3  1  0
  4  2  1  0
  4  5  1  0
  5  7  1  0
  5  6  1  6
  7  8  2  0
  9 10  1  0
  9  7  1  0
 11 12  1  0
 10 11  1  6
 13 14  1  0
 13 12  1  0
 15 14  1  0
 16 17  2  0
 16 10  1  0
 18 19  1  0
 20 19  1  1
 20 22  1  0
 20 21  1  0
 21 16  1  0
 22 24  1  0
 23 22  2  0
M  END
$$$$
