LKS.pdb
     RDKit          3D

 24 23  0  0  1  0  0  0  0  0999 V2000
   26.1524  -10.7514  -14.5398 C   0  0  0  0  0  0  0  0  0  0  0  0
   26.3778  -10.5924  -16.0365 C   0  0  2  0  0  0  0  0  0  0  0  0
   27.5320   -9.6199  -16.2889 C   0  0  0  0  0  0  0  0  0  0  0  0
   25.1478   -9.9768  -16.6159 C   0  0  0  0  0  0  0  0  0  0  0  0
   23.9172  -10.8173  -16.4434 C   0  0  2  0  0  0  0  0  0  0  0  0
   24.0115  -12.1148  -17.0309 N   0  0  0  0  0  0  0  0  0  0  0  0
   22.7497  -10.0410  -16.9530 C   0  0  0  0  0  0  0  0  0  0  0  0
   22.6376   -9.8039  -18.1823 O   0  0  0  0  0  0  0  0  0  0  0  0
   21.7449   -9.5546  -16.0734 N   0  0  0  0  0  0  0  0  0  0  0  0
   20.5540   -8.8572  -16.5483 C   0  0  1  0  0  0  0  0  0  0  0  0
   19.3172   -9.4218  -15.9431 C   0  0  0  0  0  0  0  0  0  0  0  0
   18.9594  -10.7702  -16.4814 C   0  0  0  0  0  0  0  0  0  0  0  0
   17.6516  -11.2430  -15.8858 C   0  0  0  0  0  0  0  0  0  0  0  0
   17.4041  -12.6817  -16.3620 C   0  0  0  0  0  0  0  0  0  0  0  0
   16.1713  -13.2011  -15.8572 N   0  0  0  0  0  0  0  0  0  0  0  0
   20.7751   -7.4187  -16.2917 C   0  0  0  0  0  0  0  0  0  0  0  0
   21.2406   -7.0723  -15.1807 O   0  0  0  0  0  0  0  0  0  0  0  0
   20.2246   -4.5595  -19.1901 O   0  0  0  0  0  0  0  0  0  0  0  0
   21.1101   -4.2461  -18.1764 C   0  0  0  0  0  0  0  0  0  0  0  0
   20.7184   -5.0201  -16.9205 C   0  0  2  0  0  0  0  0  0  0  0  0
   20.4834   -6.4180  -17.2468 N   0  0  0  0  0  0  0  0  0  0  0  0
   19.5197   -4.4073  -16.3456 C   0  0  0  0  0  0  0  0  0  0  0  0
   18.4306   -5.0163  -16.1877 O   0  0  0  0  0  0  0  0  0  0  0  0
   19.5604   -3.0792  -15.9435 O   0  0  0  0  0  0  0  0  0  0  0  0
  2  1  1  1
  2  3  1  0
  4  2  1  0
  4  5  1  0
  5  7  1  0
  5  6  1  6
  7  8  2  0
  9 10  1  0
  9  7  1  0
 11 12  1  0
 10 11  1  1
 13 14  1  0
 13 12  1  0
 15 14  1  0
 16 17  2  0
 16 10  1  0
 18 19  1  0
 20 19  1  6
 20 22  1  0
 20 21  1  0
 21 16  1  0
 22 24  1  0
 23 22  2  0
M  END
$$$$
