LKS.pdb
     RDKit          3D

 24 23  0  0  1  0  0  0  0  0999 V2000
   27.1610  -14.4114  -15.3941 C   0  0  0  0  0  0  0  0  0  0  0  0
   27.4474  -13.2130  -16.2875 C   0  0  2  0  0  0  0  0  0  0  0  0
   28.4823  -12.3030  -15.6222 C   0  0  0  0  0  0  0  0  0  0  0  0
   26.1839  -12.4282  -16.4098 C   0  0  0  0  0  0  0  0  0  0  0  0
   25.0859  -13.1644  -17.1190 C   0  0  2  0  0  0  0  0  0  0  0  0
   25.4485  -13.6439  -18.4137 N   0  0  0  0  0  0  0  0  0  0  0  0
   23.8818  -12.2843  -17.1505 C   0  0  0  0  0  0  0  0  0  0  0  0
   23.8195  -11.3290  -17.9651 O   0  0  0  0  0  0  0  0  0  0  0  0
   22.7861  -12.4992  -16.2713 N   0  0  0  0  0  0  0  0  0  0  0  0
   21.5827  -11.6739  -16.2974 C   0  0  1  0  0  0  0  0  0  0  0  0
   20.4372  -12.3640  -15.6447 C   0  0  0  0  0  0  0  0  0  0  0  0
   19.2030  -11.5226  -15.5759 C   0  0  0  0  0  0  0  0  0  0  0  0
   18.1418  -12.0702  -16.5049 C   0  0  0  0  0  0  0  0  0  0  0  0
   16.9450  -11.1085  -16.4801 C   0  0  0  0  0  0  0  0  0  0  0  0
   15.8469  -11.6112  -17.2454 N   0  0  0  0  0  0  0  0  0  0  0  0
   21.9493  -10.3717  -15.7024 C   0  0  0  0  0  0  0  0  0  0  0  0
   22.6785  -10.3621  -14.6831 O   0  0  0  0  0  0  0  0  0  0  0  0
   23.1274   -7.1126  -17.3400 O   0  0  0  0  0  0  0  0  0  0  0  0
   22.0578   -6.7737  -16.5331 C   0  0  0  0  0  0  0  0  0  0  0  0
   21.8165   -7.9008  -15.5325 C   0  0  2  0  0  0  0  0  0  0  0  0
   21.5118   -9.1374  -16.2351 N   0  0  0  0  0  0  0  0  0  0  0  0
   20.7160   -7.5158  -14.6474 C   0  0  0  0  0  0  0  0  0  0  0  0
   19.6127   -8.1178  -14.6016 O   0  0  0  0  0  0  0  0  0  0  0  0
   20.8731   -6.4275  -13.7999 O   0  0  0  0  0  0  0  0  0  0  0  0
  2  1  1  1
  2  3  1  0
  4  2  1  0
  4  5  1  0
  5  7  1  0
  5  6  1  6
  7  8  2  0
  9 10  1  0
  9  7  1  0
 11 12  1  0
 10 11  1  1
 13 14  1  0
 13 12  1  0
 15 14  1  0
 16 17  2  0
 16 10  1  0
 18 19  1  0
 20 19  1  6
 20 22  1  0
 20 21  1  0
 21 16  1  0
 22 24  1  0
 23 22  2  0
M  END
$$$$
