LKS.pdb
     RDKit          3D

 24 23  0  0  1  0  0  0  0  0999 V2000
   25.0925  -12.8790  -15.3964 C   0  0  0  0  0  0  0  0  0  0  0  0
   25.3132  -12.4233  -16.8316 C   0  0  2  0  0  0  0  0  0  0  0  0
   26.7493  -11.9238  -17.0044 C   0  0  0  0  0  0  0  0  0  0  0  0
   24.4094  -11.2621  -17.0813 C   0  0  0  0  0  0  0  0  0  0  0  0
   22.9522  -11.5994  -16.9654 C   0  0  2  0  0  0  0  0  0  0  0  0
   22.5127  -12.6032  -17.8802 N   0  0  0  0  0  0  0  0  0  0  0  0
   22.1717  -10.3338  -17.0851 C   0  0  0  0  0  0  0  0  0  0  0  0
   22.0201   -9.7897  -18.2079 O   0  0  0  0  0  0  0  0  0  0  0  0
   21.5857   -9.7165  -15.9470 N   0  0  0  0  0  0  0  0  0  0  0  0
   20.7998   -8.4898  -16.0345 C   0  0  1  0  0  0  0  0  0  0  0  0
   19.3863   -8.7211  -15.6308 C   0  0  0  0  0  0  0  0  0  0  0  0
   18.6096   -9.5163  -16.6309 C   0  0  0  0  0  0  0  0  0  0  0  0
   17.2046   -9.7642  -16.1276 C   0  0  0  0  0  0  0  0  0  0  0  0
   16.4296  -10.5070  -17.2255 C   0  0  0  0  0  0  0  0  0  0  0  0
   15.1290  -10.9006  -16.7806 N   0  0  0  0  0  0  0  0  0  0  0  0
   21.5174   -7.4697  -15.2418 C   0  0  0  0  0  0  0  0  0  0  0  0
   21.9462   -7.7844  -14.1068 O   0  0  0  0  0  0  0  0  0  0  0  0
   21.9749   -3.5691  -16.5088 O   0  0  0  0  0  0  0  0  0  0  0  0
   23.0300   -4.0795  -15.7767 C   0  0  0  0  0  0  0  0  0  0  0  0
   22.5201   -5.2258  -14.9074 C   0  0  2  0  0  0  0  0  0  0  0  0
   21.7401   -6.1545  -15.7104 N   0  0  0  0  0  0  0  0  0  0  0  0
   21.7143   -4.6683  -13.8197 C   0  0  0  0  0  0  0  0  0  0  0  0
   20.4843   -4.8891  -13.6772 O   0  0  0  0  0  0  0  0  0  0  0  0
   22.3178   -3.8457  -12.8783 O   0  0  0  0  0  0  0  0  0  0  0  0
  2  1  1  1
  2  3  1  0
  4  2  1  0
  4  5  1  0
  5  7  1  0
  5  6  1  6
  7  8  2  0
  9 10  1  0
  9  7  1  0
 11 12  1  0
 10 11  1  1
 13 14  1  0
 13 12  1  0
 15 14  1  0
 16 17  2  0
 16 10  1  0
 18 19  1  0
 20 19  1  6
 20 22  1  0
 20 21  1  0
 21 16  1  0
 22 24  1  0
 23 22  2  0
M  END
$$$$
