LKS.pdb
     RDKit          3D

 24 23  0  0  1  0  0  0  0  0999 V2000
   20.0794  -20.2488  -15.9475 C   0  0  0  0  0  0  0  0  0  0  0  0
   20.6405  -21.6157  -16.3123 C   0  0  2  0  0  0  0  0  0  0  0  0
   20.2364  -21.9797  -17.7427 C   0  0  0  0  0  0  0  0  0  0  0  0
   20.0090  -22.6199  -15.4066 C   0  0  0  0  0  0  0  0  0  0  0  0
   20.2792  -22.3706  -13.9522 C   0  0  2  0  0  0  0  0  0  0  0  0
   21.6661  -22.3034  -13.6210 N   0  0  0  0  0  0  0  0  0  0  0  0
   19.5505  -23.4041  -13.1608 C   0  0  0  0  0  0  0  0  0  0  0  0
   19.2276  -24.4956  -13.6941 O   0  0  0  0  0  0  0  0  0  0  0  0
   19.2058  -23.1855  -11.7995 N   0  0  0  0  0  0  0  0  0  0  0  0
   18.6332  -24.2294  -10.9555 C   0  0  1  0  0  0  0  0  0  0  0  0
   18.9425  -23.9959   -9.5187 C   0  0  0  0  0  0  0  0  0  0  0  0
   18.3618  -25.0350   -8.6137 C   0  0  0  0  0  0  0  0  0  0  0  0
   18.6993  -24.7235   -7.1722 C   0  0  0  0  0  0  0  0  0  0  0  0
   17.9976  -25.7611   -6.2840 C   0  0  0  0  0  0  0  0  0  0  0  0
   18.2509  -25.5271   -4.8964 N   0  0  0  0  0  0  0  0  0  0  0  0
   17.1935  -24.2960  -11.2822 C   0  0  0  0  0  0  0  0  0  0  0  0
   16.5346  -23.2301  -11.3086 O   0  0  0  0  0  0  0  0  0  0  0  0
   15.5020  -27.8310  -11.8299 O   0  0  0  0  0  0  0  0  0  0  0  0
   14.6816  -26.8765  -12.4007 C   0  0  0  0  0  0  0  0  0  0  0  0
   15.1177  -25.4961  -11.9167 C   0  0  2  0  0  0  0  0  0  0  0  0
   16.5292  -25.5113  -11.5659 N   0  0  0  0  0  0  0  0  0  0  0  0
   14.2953  -25.1204  -10.7653 C   0  0  0  0  0  0  0  0  0  0  0  0
   14.6818  -25.2093   -9.5718 O   0  0  0  0  0  0  0  0  0  0  0  0
   13.0115  -24.6355  -10.9752 O   0  0  0  0  0  0  0  0  0  0  0  0
  2  1  1  1
  2  3  1  0
  4  2  1  0
  4  5  1  0
  5  7  1  0
  5  6  1  6
  7  8  2  0
  9 10  1  0
  9  7  1  0
 11 12  1  0
 10 11  1  1
 13 14  1  0
 13 12  1  0
 15 14  1  0
 16 17  2  0
 16 10  1  0
 18 19  1  0
 20 19  1  1
 20 22  1  0
 20 21  1  0
 21 16  1  0
 22 24  1  0
 23 22  2  0
M  END
$$$$
