LKS.pdb
     RDKit          3D

 24 23  0  0  1  0  0  0  0  0999 V2000
   14.3656   -9.3873  -17.1452 C   0  0  0  0  0  0  0  0  0  0  0  0
   14.4602   -9.3931  -15.6263 C   0  0  2  0  0  0  0  0  0  0  0  0
   13.4952   -8.3601  -15.0404 C   0  0  0  0  0  0  0  0  0  0  0  0
   15.8416   -8.9649  -15.2578 C   0  0  0  0  0  0  0  0  0  0  0  0
   16.8366  -10.0877  -15.2503 C   0  0  2  0  0  0  0  0  0  0  0  0
   16.5186  -11.1411  -14.3409 N   0  0  0  0  0  0  0  0  0  0  0  0
   18.1890   -9.5079  -15.0053 C   0  0  0  0  0  0  0  0  0  0  0  0
   18.5630   -9.2520  -13.8329 O   0  0  0  0  0  0  0  0  0  0  0  0
   19.0804   -9.2326  -16.0775 N   0  0  0  0  0  0  0  0  0  0  0  0
   20.4318   -8.7236  -15.8662 C   0  0  1  0  0  0  0  0  0  0  0  0
   21.3265   -9.0714  -17.0033 C   0  0  0  0  0  0  0  0  0  0  0  0
   21.5874  -10.5391  -17.1212 C   0  0  0  0  0  0  0  0  0  0  0  0
   22.3482  -10.8363  -18.3947 C   0  0  0  0  0  0  0  0  0  0  0  0
   22.5189  -12.3585  -18.5030 C   0  0  0  0  0  0  0  0  0  0  0  0
   23.0067  -12.7456  -19.7901 N   0  0  0  0  0  0  0  0  0  0  0  0
   20.3016   -7.2771  -15.5930 C   0  0  0  0  0  0  0  0  0  0  0  0
   19.5345   -6.5972  -16.3143 O   0  0  0  0  0  0  0  0  0  0  0  0
   19.4848   -3.5335  -13.3802 O   0  0  0  0  0  0  0  0  0  0  0  0
   19.6059   -4.9010  -13.5387 C   0  0  0  0  0  0  0  0  0  0  0  0
   20.8553   -5.1945  -14.3649 C   0  0  2  0  0  0  0  0  0  0  0  0
   21.0060   -6.6290  -14.5526 N   0  0  0  0  0  0  0  0  0  0  0  0
   22.0175   -4.6309  -13.6760 C   0  0  0  0  0  0  0  0  0  0  0  0
   22.7912   -5.3028  -12.9468 O   0  0  0  0  0  0  0  0  0  0  0  0
   22.3043   -3.2801  -13.8188 O   0  0  0  0  0  0  0  0  0  0  0  0
  2  1  1  6
  2  3  1  0
  4  2  1  0
  4  5  1  0
  5  7  1  0
  5  6  1  1
  7  8  2  0
  9 10  1  0
  9  7  1  0
 11 12  1  0
 10 11  1  6
 13 14  1  0
 13 12  1  0
 15 14  1  0
 16 17  2  0
 16 10  1  0
 18 19  1  0
 20 19  1  1
 20 22  1  0
 20 21  1  0
 21 16  1  0
 22 24  1  0
 23 22  2  0
M  END
$$$$
