LKS.pdb
     RDKit          3D

 24 23  0  0  1  0  0  0  0  0999 V2000
   26.9051  -19.1627   -6.5158 C   0  0  0  0  0  0  0  0  0  0  0  0
   27.5035  -20.3880   -7.1916 C   0  0  2  0  0  0  0  0  0  0  0  0
   28.9958  -20.4850   -6.8671 C   0  0  0  0  0  0  0  0  0  0  0  0
   27.3847  -20.1939   -8.6666 C   0  0  0  0  0  0  0  0  0  0  0  0
   25.9665  -20.1354   -9.1524 C   0  0  2  0  0  0  0  0  0  0  0  0
   25.1623  -21.2384   -8.7349 N   0  0  0  0  0  0  0  0  0  0  0  0
   25.9899  -19.9722  -10.6350 C   0  0  0  0  0  0  0  0  0  0  0  0
   26.7746  -19.1465  -11.1666 O   0  0  0  0  0  0  0  0  0  0  0  0
   25.1365  -20.7361  -11.4762 N   0  0  0  0  0  0  0  0  0  0  0  0
   25.1510  -20.6147  -12.9305 C   0  0  1  0  0  0  0  0  0  0  0  0
   25.6932  -21.8430  -13.5722 C   0  0  0  0  0  0  0  0  0  0  0  0
   27.0818  -21.6697  -14.0991 C   0  0  0  0  0  0  0  0  0  0  0  0
   27.2144  -22.3264  -15.4556 C   0  0  0  0  0  0  0  0  0  0  0  0
   28.6101  -22.0019  -16.0073 C   0  0  0  0  0  0  0  0  0  0  0  0
   28.9267  -22.8026  -17.1488 N   0  0  0  0  0  0  0  0  0  0  0  0
   23.7783  -20.2500  -13.3388 C   0  0  0  0  0  0  0  0  0  0  0  0
   22.8174  -20.8894  -12.8501 O   0  0  0  0  0  0  0  0  0  0  0  0
   20.7605  -17.5006  -15.9356 O   0  0  0  0  0  0  0  0  0  0  0  0
   22.0746  -17.7280  -15.5732 C   0  0  0  0  0  0  0  0  0  0  0  0
   22.1338  -18.9607  -14.6749 C   0  0  2  0  0  0  0  0  0  0  0  0
   23.5044  -19.2105  -14.2571 N   0  0  0  0  0  0  0  0  0  0  0  0
   21.5932  -20.1048  -15.4109 C   0  0  0  0  0  0  0  0  0  0  0  0
   22.2523  -20.7705  -16.2502 O   0  0  0  0  0  0  0  0  0  0  0  0
   20.2806  -20.4985  -15.1885 O   0  0  0  0  0  0  0  0  0  0  0  0
  2  1  1  1
  2  3  1  0
  4  2  1  0
  4  5  1  0
  5  7  1  0
  5  6  1  6
  7  8  2  0
  9 10  1  0
  9  7  1  0
 11 12  1  0
 10 11  1  6
 13 14  1  0
 13 12  1  0
 15 14  1  0
 16 17  2  0
 16 10  1  0
 18 19  1  0
 20 19  1  6
 20 22  1  0
 20 21  1  0
 21 16  1  0
 22 24  1  0
 23 22  2  0
M  END
$$$$
