WYA.pdb
     RDKit          3D

 32 34  0  0  1  0  0  0  0  0999 V2000
   27.4883  -21.6644   -9.7612 N   0  0  0  0  0  0  0  0  0  0  0  0
   26.2848  -20.8907   -9.5579 C   0  0  1  0  0  0  0  0  0  0  0  0
   26.4772  -19.7836   -8.5473 C   0  0  0  0  0  0  0  0  0  0  0  0
   26.7665  -20.2913   -7.1992 C   0  0  0  0  0  0  0  0  0  0  0  0
   26.1402  -21.3482   -6.5569 C   0  0  0  0  0  0  0  0  0  0  0  0
   26.6868  -21.5071   -5.3399 N   0  0  0  0  0  0  0  0  0  0  0  0
   27.6614  -20.6016   -5.1241 C   0  0  0  0  0  0  0  0  0  0  0  0
   28.5123  -20.3349   -4.0751 C   0  0  0  0  0  0  0  0  0  0  0  0
   29.4242  -19.3091   -4.1666 C   0  0  0  0  0  0  0  0  0  0  0  0
   29.4934  -18.5295   -5.3270 C   0  0  0  0  0  0  0  0  0  0  0  0
   28.6222  -18.8208   -6.3710 C   0  0  0  0  0  0  0  0  0  0  0  0
   27.7073  -19.8386   -6.2980 C   0  0  0  0  0  0  0  0  0  0  0  0
   25.7395  -20.3616  -10.8258 C   0  0  0  0  0  0  0  0  0  0  0  0
   26.0075  -19.2056  -11.2533 O   0  0  0  0  0  0  0  0  0  0  0  0
   29.5070  -19.4848  -16.6632 O   0  0  0  0  0  0  0  0  0  0  0  0
   28.3712  -19.9534  -16.0524 C   0  0  0  0  0  0  0  0  0  0  0  0
   27.1025  -19.4459  -16.3243 C   0  0  0  0  0  0  0  0  0  0  0  0
   25.9978  -19.9400  -15.6946 C   0  0  0  0  0  0  0  0  0  0  0  0
   26.0851  -20.9435  -14.7794 C   0  0  0  0  0  0  0  0  0  0  0  0
   24.9602  -21.5348  -14.0563 C   0  0  0  0  0  0  0  0  0  0  0  0
   24.4150  -20.7228  -12.9316 C   0  0  2  0  0  0  0  0  0  0  0  0
   24.8744  -21.1392  -11.6370 N   0  0  0  0  0  0  0  0  0  0  0  0
   22.9101  -20.6454  -12.9824 C   0  0  0  0  0  0  0  0  0  0  0  0
   22.1825  -21.4241  -12.3209 O   0  0  0  0  0  0  0  0  0  0  0  0
   27.3420  -21.4547  -14.5024 C   0  0  0  0  0  0  0  0  0  0  0  0
   28.4656  -20.9763  -15.1205 C   0  0  0  0  0  0  0  0  0  0  0  0
   20.4025  -18.3473  -14.7158 C   0  0  0  0  0  0  0  0  0  0  0  0
   20.8107  -19.5274  -13.8684 C   0  0  2  0  0  0  0  0  0  0  0  0
   22.2433  -19.6814  -13.7862 N   0  0  0  0  0  0  0  0  0  0  0  0
   20.1199  -20.7567  -14.2662 C   0  0  0  0  0  0  0  0  0  0  0  0
   18.8690  -21.1228  -13.7650 O   0  0  0  0  0  0  0  0  0  0  0  0
   20.6446  -21.5434  -15.0941 O   0  0  0  0  0  0  0  0  0  0  0  0
  2  1  1  6
  3  4  1  0
  3  2  1  0
  4  5  2  0
  6  5  1  0
  7  6  1  0
  8  7  2  0
  9  8  1  0
 10  9  2  0
 10 11  1  0
 11 12  2  0
 12  7  1  0
 12  4  1  0
 13  2  1  0
 13 14  2  0
 15 16  1  0
 16 17  2  0
 17 18  1  0
 19 20  1  0
 19 18  2  0
 21 20  1  6
 21 22  1  0
 22 13  1  0
 23 21  1  0
 24 23  2  0
 25 19  1  0
 26 25  2  0
 26 16  1  0
 28 27  1  6
 28 29  1  0
 28 30  1  0
 29 23  1  0
 30 31  1  0
 32 30  2  0
M  END
$$$$
