WYA.pdb
     RDKit          3D

 32 34  0  0  1  0  0  0  0  0999 V2000
   41.1311   -7.4205   -5.8810 N   0  0  0  0  0  0  0  0  0  0  0  0
   40.5114   -8.4333   -6.7048 C   0  0  1  0  0  0  0  0  0  0  0  0
   39.6989   -7.8392   -7.8320 C   0  0  0  0  0  0  0  0  0  0  0  0
   38.5956   -6.9959   -7.3517 C   0  0  0  0  0  0  0  0  0  0  0  0
   38.3483   -5.6757   -7.6951 C   0  0  0  0  0  0  0  0  0  0  0  0
   37.2465   -5.2548   -7.0516 N   0  0  0  0  0  0  0  0  0  0  0  0
   36.7305   -6.2337   -6.2823 C   0  0  0  0  0  0  0  0  0  0  0  0
   35.6421   -6.3265   -5.4444 C   0  0  0  0  0  0  0  0  0  0  0  0
   35.3769   -7.5023   -4.7812 C   0  0  0  0  0  0  0  0  0  0  0  0
   36.2119   -8.6122   -4.9538 C   0  0  0  0  0  0  0  0  0  0  0  0
   37.3041   -8.4906   -5.8059 C   0  0  0  0  0  0  0  0  0  0  0  0
   37.5841   -7.3277   -6.4749 C   0  0  0  0  0  0  0  0  0  0  0  0
   41.4917   -9.4134   -7.2178 C   0  0  0  0  0  0  0  0  0  0  0  0
   42.7137   -9.1399   -7.3691 O   0  0  0  0  0  0  0  0  0  0  0  0
   44.8444  -17.2101   -9.8710 O   0  0  0  0  0  0  0  0  0  0  0  0
   44.0936  -16.2053   -9.3147 C   0  0  0  0  0  0  0  0  0  0  0  0
   44.5107  -15.4773   -8.2023 C   0  0  0  0  0  0  0  0  0  0  0  0
   43.7337  -14.4854   -7.6794 C   0  0  0  0  0  0  0  0  0  0  0  0
   42.5253  -14.1649   -8.2172 C   0  0  0  0  0  0  0  0  0  0  0  0
   41.6265  -13.1211   -7.7267 C   0  0  0  0  0  0  0  0  0  0  0  0
   42.0139  -11.7220   -8.0645 C   0  0  2  0  0  0  0  0  0  0  0  0
   41.1012  -10.7301   -7.5711 N   0  0  0  0  0  0  0  0  0  0  0  0
   42.2594  -11.5565   -9.5429 C   0  0  0  0  0  0  0  0  0  0  0  0
   41.3618  -11.1613  -10.3248 O   0  0  0  0  0  0  0  0  0  0  0  0
   42.1020  -14.8828   -9.3232 C   0  0  0  0  0  0  0  0  0  0  0  0
   42.8628  -15.8825   -9.8665 C   0  0  0  0  0  0  0  0  0  0  0  0
   42.6266  -11.9128  -12.4059 C   0  0  0  0  0  0  0  0  0  0  0  0
   43.8363  -11.7169  -11.5252 C   0  0  2  0  0  0  0  0  0  0  0  0
   43.5258  -11.8420  -10.1214 N   0  0  0  0  0  0  0  0  0  0  0  0
   44.5597  -10.4845  -11.8487 C   0  0  0  0  0  0  0  0  0  0  0  0
   44.9251  -10.1363  -13.1507 O   0  0  0  0  0  0  0  0  0  0  0  0
   44.8837   -9.6784  -10.9406 O   0  0  0  0  0  0  0  0  0  0  0  0
  2  1  1  6
  3  4  1  0
  3  2  1  0
  4  5  2  0
  6  5  1  0
  7  6  1  0
  8  7  2  0
  9  8  1  0
 10  9  2  0
 10 11  1  0
 11 12  2  0
 12  7  1  0
 12  4  1  0
 13  2  1  0
 13 14  2  0
 15 16  1  0
 16 17  2  0
 17 18  1  0
 19 20  1  0
 19 18  2  0
 21 20  1  6
 21 22  1  0
 22 13  1  0
 23 21  1  0
 24 23  2  0
 25 19  1  0
 26 25  2  0
 26 16  1  0
 28 27  1  6
 28 29  1  0
 28 30  1  0
 29 23  1  0
 30 31  1  0
 32 30  2  0
M  END
$$$$
