WYA.pdb
     RDKit          3D

 32 34  0  0  1  0  0  0  0  0999 V2000
   23.1722  -21.2968  -18.6500 N   0  0  0  0  0  0  0  0  0  0  0  0
   22.5185  -22.0454  -17.6009 C   0  0  1  0  0  0  0  0  0  0  0  0
   23.2938  -22.0144  -16.3041 C   0  0  0  0  0  0  0  0  0  0  0  0
   24.6755  -22.4898  -16.4586 C   0  0  0  0  0  0  0  0  0  0  0  0
   25.8043  -21.7114  -16.6633 C   0  0  0  0  0  0  0  0  0  0  0  0
   26.8790  -22.5130  -16.7513 N   0  0  0  0  0  0  0  0  0  0  0  0
   26.5307  -23.8078  -16.6151 C   0  0  0  0  0  0  0  0  0  0  0  0
   27.2240  -24.9972  -16.6252 C   0  0  0  0  0  0  0  0  0  0  0  0
   26.5580  -26.1885  -16.4538 C   0  0  0  0  0  0  0  0  0  0  0  0
   25.1708  -26.1997  -16.2679 C   0  0  0  0  0  0  0  0  0  0  0  0
   24.4957  -24.9839  -16.2621 C   0  0  0  0  0  0  0  0  0  0  0  0
   25.1421  -23.7873  -16.4312 C   0  0  0  0  0  0  0  0  0  0  0  0
   21.1207  -21.6123  -17.3929 C   0  0  0  0  0  0  0  0  0  0  0  0
   20.8099  -20.4210  -17.1183 O   0  0  0  0  0  0  0  0  0  0  0  0
   12.4109  -20.9742  -18.2598 O   0  0  0  0  0  0  0  0  0  0  0  0
   13.7555  -21.2319  -18.3502 C   0  0  0  0  0  0  0  0  0  0  0  0
   14.7126  -20.2250  -18.4576 C   0  0  0  0  0  0  0  0  0  0  0  0
   16.0407  -20.5239  -18.5454 C   0  0  0  0  0  0  0  0  0  0  0  0
   16.4869  -21.8096  -18.5321 C   0  0  0  0  0  0  0  0  0  0  0  0
   17.8861  -22.2248  -18.6211 C   0  0  0  0  0  0  0  0  0  0  0  0
   18.6654  -22.1499  -17.3527 C   0  0  2  0  0  0  0  0  0  0  0  0
   20.0429  -22.5284  -17.4928 N   0  0  0  0  0  0  0  0  0  0  0  0
   17.9939  -22.9191  -16.2434 C   0  0  0  0  0  0  0  0  0  0  0  0
   16.7725  -22.7883  -15.9895 O   0  0  0  0  0  0  0  0  0  0  0  0
   15.5432  -22.8175  -18.4255 C   0  0  0  0  0  0  0  0  0  0  0  0
   14.2051  -22.5439  -18.3361 C   0  0  0  0  0  0  0  0  0  0  0  0
   18.8611  -26.0350  -14.3521 C   0  0  0  0  0  0  0  0  0  0  0  0
   18.1229  -24.7234  -14.4628 C   0  0  2  0  0  0  0  0  0  0  0  0
   18.7177  -23.8328  -15.4301 N   0  0  0  0  0  0  0  0  0  0  0  0
   17.9121  -24.0975  -13.1550 C   0  0  0  0  0  0  0  0  0  0  0  0
   17.1604  -24.6919  -12.1394 O   0  0  0  0  0  0  0  0  0  0  0  0
   18.4147  -22.9748  -12.8972 O   0  0  0  0  0  0  0  0  0  0  0  0
  2  1  1  6
  3  4  1  0
  3  2  1  0
  4  5  2  0
  6  5  1  0
  7  6  1  0
  8  7  2  0
  9  8  1  0
 10  9  2  0
 10 11  1  0
 11 12  2  0
 12  7  1  0
 12  4  1  0
 13  2  1  0
 13 14  2  0
 15 16  1  0
 16 17  2  0
 17 18  1  0
 19 20  1  0
 19 18  2  0
 21 20  1  6
 21 22  1  0
 22 13  1  0
 23 21  1  0
 24 23  2  0
 25 19  1  0
 26 25  2  0
 26 16  1  0
 28 27  1  1
 28 29  1  0
 28 30  1  0
 29 23  1  0
 30 31  1  0
 32 30  2  0
M  END
$$$$
