WYA.pdb
     RDKit          3D

 32 34  0  0  1  0  0  0  0  0999 V2000
   26.8672  -19.2274   -9.7647 N   0  0  0  0  0  0  0  0  0  0  0  0
   26.6074  -20.6458   -9.6697 C   0  0  1  0  0  0  0  0  0  0  0  0
   26.2976  -21.0799   -8.2557 C   0  0  0  0  0  0  0  0  0  0  0  0
   26.8985  -20.1961   -7.2474 C   0  0  0  0  0  0  0  0  0  0  0  0
   26.6438  -18.8451   -7.0687 C   0  0  0  0  0  0  0  0  0  0  0  0
   27.3847  -18.3915   -6.0438 N   0  0  0  0  0  0  0  0  0  0  0  0
   28.1356  -19.3776   -5.5145 C   0  0  0  0  0  0  0  0  0  0  0  0
   29.0420  -19.4479   -4.4806 C   0  0  0  0  0  0  0  0  0  0  0  0
   29.6590  -20.6402   -4.1804 C   0  0  0  0  0  0  0  0  0  0  0  0
   29.3694  -21.7901   -4.9239 C   0  0  0  0  0  0  0  0  0  0  0  0
   28.4501  -21.6905   -5.9626 C   0  0  0  0  0  0  0  0  0  0  0  0
   27.8255  -20.5116   -6.2763 C   0  0  0  0  0  0  0  0  0  0  0  0
   25.5476  -21.0836  -10.6025 C   0  0  0  0  0  0  0  0  0  0  0  0
   25.3215  -22.2985  -10.8556 O   0  0  0  0  0  0  0  0  0  0  0  0
   19.8466  -23.3624   -7.8485 O   0  0  0  0  0  0  0  0  0  0  0  0
   20.4697  -22.5419   -8.7549 C   0  0  0  0  0  0  0  0  0  0  0  0
   21.3621  -21.5402   -8.3789 C   0  0  0  0  0  0  0  0  0  0  0  0
   21.9607  -20.7454   -9.3121 C   0  0  0  0  0  0  0  0  0  0  0  0
   21.7147  -20.8943  -10.6423 C   0  0  0  0  0  0  0  0  0  0  0  0
   22.3074  -20.0921  -11.7115 C   0  0  0  0  0  0  0  0  0  0  0  0
   23.6617  -20.5179  -12.1654 C   0  0  2  0  0  0  0  0  0  0  0  0
   24.7196  -20.1453  -11.2696 N   0  0  0  0  0  0  0  0  0  0  0  0
   23.9450  -20.0570  -13.5728 C   0  0  0  0  0  0  0  0  0  0  0  0
   24.9377  -19.3424  -13.8502 O   0  0  0  0  0  0  0  0  0  0  0  0
   20.8291  -21.8874  -11.0260 C   0  0  0  0  0  0  0  0  0  0  0  0
   20.2156  -22.6979  -10.1094 C   0  0  0  0  0  0  0  0  0  0  0  0
   24.7079  -20.4561  -16.5077 C   0  0  0  0  0  0  0  0  0  0  0  0
   23.3300  -20.0615  -16.0353 C   0  0  2  0  0  0  0  0  0  0  0  0
   23.0957  -20.4131  -14.6553 N   0  0  0  0  0  0  0  0  0  0  0  0
   22.2800  -20.5388  -16.9388 C   0  0  0  0  0  0  0  0  0  0  0  0
   22.2594  -20.2450  -18.3038 O   0  0  0  0  0  0  0  0  0  0  0  0
   21.3379  -21.2476  -16.5033 O   0  0  0  0  0  0  0  0  0  0  0  0
  2  1  1  1
  3  4  1  0
  3  2  1  0
  4  5  2  0
  6  5  1  0
  7  6  1  0
  8  7  2  0
  9  8  1  0
 10  9  2  0
 10 11  1  0
 11 12  2  0
 12  7  1  0
 12  4  1  0
 13  2  1  0
 13 14  2  0
 15 16  1  0
 16 17  2  0
 17 18  1  0
 19 20  1  0
 19 18  2  0
 21 20  1  1
 21 22  1  0
 22 13  1  0
 23 21  1  0
 24 23  2  0
 25 19  1  0
 26 25  2  0
 26 16  1  0
 28 27  1  6
 28 29  1  0
 28 30  1  0
 29 23  1  0
 30 31  1  0
 32 30  2  0
M  END
$$$$
