WYA.pdb
     RDKit          3D

 32 34  0  0  1  0  0  0  0  0999 V2000
   26.8231  -19.4542  -19.5501 N   0  0  0  0  0  0  0  0  0  0  0  0
   26.3917  -18.6464  -18.4321 C   0  0  1  0  0  0  0  0  0  0  0  0
   25.1387  -17.8600  -18.7410 C   0  0  0  0  0  0  0  0  0  0  0  0
   25.3746  -16.7726  -19.7006 C   0  0  0  0  0  0  0  0  0  0  0  0
   24.8084  -16.6369  -20.9587 C   0  0  0  0  0  0  0  0  0  0  0  0
   25.2705  -15.5110  -21.5279 N   0  0  0  0  0  0  0  0  0  0  0  0
   26.1296  -14.8714  -20.7099 C   0  0  0  0  0  0  0  0  0  0  0  0
   26.8639  -13.7105  -20.8030 C   0  0  0  0  0  0  0  0  0  0  0  0
   27.6731  -13.3176  -19.7623 C   0  0  0  0  0  0  0  0  0  0  0  0
   27.7555  -14.0952  -18.6015 C   0  0  0  0  0  0  0  0  0  0  0  0
   27.0031  -15.2628  -18.5343 C   0  0  0  0  0  0  0  0  0  0  0  0
   26.1915  -15.6702  -19.5608 C   0  0  0  0  0  0  0  0  0  0  0  0
   26.2265  -19.4428  -17.1979 C   0  0  0  0  0  0  0  0  0  0  0  0
   25.9309  -20.6690  -17.2124 O   0  0  0  0  0  0  0  0  0  0  0  0
   25.8300  -21.3544   -8.5168 O   0  0  0  0  0  0  0  0  0  0  0  0
   26.1214  -20.8273   -9.7496 C   0  0  0  0  0  0  0  0  0  0  0  0
   26.9120  -21.4888  -10.6869 C   0  0  0  0  0  0  0  0  0  0  0  0
   27.1782  -20.9295  -11.9023 C   0  0  0  0  0  0  0  0  0  0  0  0
   26.6869  -19.7092  -12.2511 C   0  0  0  0  0  0  0  0  0  0  0  0
   26.9184  -19.0325  -13.5264 C   0  0  0  0  0  0  0  0  0  0  0  0
   26.1472  -19.5594  -14.6880 C   0  0  2  0  0  0  0  0  0  0  0  0
   26.3942  -18.8591  -15.9164 N   0  0  0  0  0  0  0  0  0  0  0  0
   24.6721  -19.6355  -14.3855 C   0  0  0  0  0  0  0  0  0  0  0  0
   23.9650  -18.6065  -14.2656 O   0  0  0  0  0  0  0  0  0  0  0  0
   25.8999  -19.0437  -11.3262 C   0  0  0  0  0  0  0  0  0  0  0  0
   25.6182  -19.5833  -10.1002 C   0  0  0  0  0  0  0  0  0  0  0  0
   22.7048  -21.9015  -12.4083 C   0  0  0  0  0  0  0  0  0  0  0  0
   22.6953  -21.0492  -13.6536 C   0  0  2  0  0  0  0  0  0  0  0  0
   24.0116  -20.8832  -14.2215 N   0  0  0  0  0  0  0  0  0  0  0  0
   21.9913  -19.7808  -13.4479 C   0  0  0  0  0  0  0  0  0  0  0  0
   20.5991  -19.6729  -13.4593 O   0  0  0  0  0  0  0  0  0  0  0  0
   22.6345  -18.7197  -13.2490 O   0  0  0  0  0  0  0  0  0  0  0  0
  2  1  1  6
  3  4  1  0
  3  2  1  0
  4  5  2  0
  6  5  1  0
  7  6  1  0
  8  7  2  0
  9  8  1  0
 10  9  2  0
 10 11  1  0
 11 12  2  0
 12  7  1  0
 12  4  1  0
 13  2  1  0
 13 14  2  0
 15 16  1  0
 16 17  2  0
 17 18  1  0
 19 20  1  0
 19 18  2  0
 21 20  1  1
 21 22  1  0
 22 13  1  0
 23 21  1  0
 24 23  2  0
 25 19  1  0
 26 25  2  0
 26 16  1  0
 28 27  1  1
 28 29  1  0
 28 30  1  0
 29 23  1  0
 30 31  1  0
 32 30  2  0
M  END
$$$$
