WYA.pdb
     RDKit          3D

 32 34  0  0  1  0  0  0  0  0999 V2000
   27.7862  -17.8925  -14.1565 N   0  0  0  0  0  0  0  0  0  0  0  0
   26.4963  -18.4602  -14.4763 C   0  0  1  0  0  0  0  0  0  0  0  0
   26.1696  -18.3520  -15.9478 C   0  0  0  0  0  0  0  0  0  0  0  0
   25.8951  -16.9707  -16.3670 C   0  0  0  0  0  0  0  0  0  0  0  0
   26.7472  -16.1291  -17.0651 C   0  0  0  0  0  0  0  0  0  0  0  0
   26.1339  -14.9500  -17.2620 N   0  0  0  0  0  0  0  0  0  0  0  0
   24.8971  -14.9514  -16.7269 C   0  0  0  0  0  0  0  0  0  0  0  0
   23.8804  -14.0262  -16.6503 C   0  0  0  0  0  0  0  0  0  0  0  0
   22.7015  -14.3435  -16.0163 C   0  0  0  0  0  0  0  0  0  0  0  0
   22.5274  -15.6093  -15.4449 C   0  0  0  0  0  0  0  0  0  0  0  0
   23.5706  -16.5243  -15.5370 C   0  0  0  0  0  0  0  0  0  0  0  0
   24.7519  -16.2262  -16.1645 C   0  0  0  0  0  0  0  0  0  0  0  0
   26.3678  -19.8558  -14.0064 C   0  0  0  0  0  0  0  0  0  0  0  0
   27.3056  -20.6945  -14.0966 O   0  0  0  0  0  0  0  0  0  0  0  0
   28.5130  -20.4927   -7.6954 O   0  0  0  0  0  0  0  0  0  0  0  0
   27.5959  -20.8379   -8.6559 C   0  0  0  0  0  0  0  0  0  0  0  0
   27.9079  -21.6561   -9.7396 C   0  0  0  0  0  0  0  0  0  0  0  0
   26.9661  -21.9757  -10.6734 C   0  0  0  0  0  0  0  0  0  0  0  0
   25.6891  -21.5129  -10.5887 C   0  0  0  0  0  0  0  0  0  0  0  0
   24.6157  -21.8011  -11.5388 C   0  0  0  0  0  0  0  0  0  0  0  0
   24.9774  -21.6812  -12.9798 C   0  0  2  0  0  0  0  0  0  0  0  0
   25.1653  -20.3286  -13.4221 N   0  0  0  0  0  0  0  0  0  0  0  0
   23.9988  -22.4167  -13.8600 C   0  0  0  0  0  0  0  0  0  0  0  0
   22.9345  -21.8854  -14.2579 O   0  0  0  0  0  0  0  0  0  0  0  0
   25.3692  -20.6989   -9.5150 C   0  0  0  0  0  0  0  0  0  0  0  0
   26.2957  -20.3636   -8.5649 C   0  0  0  0  0  0  0  0  0  0  0  0
   23.9231  -25.8468  -15.5254 C   0  0  0  0  0  0  0  0  0  0  0  0
   23.3112  -24.5543  -15.0430 C   0  0  2  0  0  0  0  0  0  0  0  0
   24.2386  -23.7526  -14.2815 N   0  0  0  0  0  0  0  0  0  0  0  0
   22.0358  -24.7714  -14.3553 C   0  0  0  0  0  0  0  0  0  0  0  0
   20.8322  -24.9788  -15.0322 O   0  0  0  0  0  0  0  0  0  0  0  0
   21.9817  -24.7783  -13.0998 O   0  0  0  0  0  0  0  0  0  0  0  0
  2  1  1  6
  3  4  1  0
  3  2  1  0
  4  5  2  0
  6  5  1  0
  7  6  1  0
  8  7  2  0
  9  8  1  0
 10  9  2  0
 10 11  1  0
 11 12  2  0
 12  7  1  0
 12  4  1  0
 13  2  1  0
 13 14  2  0
 15 16  1  0
 16 17  2  0
 17 18  1  0
 19 20  1  0
 19 18  2  0
 21 20  1  1
 21 22  1  0
 22 13  1  0
 23 21  1  0
 24 23  2  0
 25 19  1  0
 26 25  2  0
 26 16  1  0
 28 27  1  1
 28 29  1  0
 28 30  1  0
 29 23  1  0
 30 31  1  0
 32 30  2  0
M  END
$$$$
