WYA.pdb
     RDKit          3D

 32 34  0  0  1  0  0  0  0  0999 V2000
   26.4107  -31.6820  -20.0329 N   0  0  0  0  0  0  0  0  0  0  0  0
   25.9299  -31.5515  -18.6764 C   0  0  1  0  0  0  0  0  0  0  0  0
   24.4386  -31.7731  -18.5716 C   0  0  0  0  0  0  0  0  0  0  0  0
   23.6686  -30.8570  -19.4241 C   0  0  0  0  0  0  0  0  0  0  0  0
   22.9349  -31.1904  -20.5522 C   0  0  0  0  0  0  0  0  0  0  0  0
   22.3723  -30.0780  -21.0534 N   0  0  0  0  0  0  0  0  0  0  0  0
   22.6916  -28.9976  -20.3137 C   0  0  0  0  0  0  0  0  0  0  0  0
   22.3877  -27.6568  -20.3873 C   0  0  0  0  0  0  0  0  0  0  0  0
   22.8851  -26.7815  -19.4498 C   0  0  0  0  0  0  0  0  0  0  0  0
   23.7035  -27.2480  -18.4147 C   0  0  0  0  0  0  0  0  0  0  0  0
   23.9943  -28.6070  -18.3644 C   0  0  0  0  0  0  0  0  0  0  0  0
   23.5080  -29.4939  -19.2892 C   0  0  0  0  0  0  0  0  0  0  0  0
   26.6627  -32.4264  -17.7371 C   0  0  0  0  0  0  0  0  0  0  0  0
   27.3063  -33.4436  -18.1139 O   0  0  0  0  0  0  0  0  0  0  0  0
   32.7764  -30.7348  -18.1391 O   0  0  0  0  0  0  0  0  0  0  0  0
   31.7673  -31.1340  -17.2995 C   0  0  0  0  0  0  0  0  0  0  0  0
   31.8188  -32.3167  -16.5647 C   0  0  0  0  0  0  0  0  0  0  0  0
   30.7934  -32.6777  -15.7405 C   0  0  0  0  0  0  0  0  0  0  0  0
   29.6824  -31.9042  -15.6002 C   0  0  0  0  0  0  0  0  0  0  0  0
   28.5372  -32.2088  -14.7437 C   0  0  0  0  0  0  0  0  0  0  0  0
   27.4187  -32.9464  -15.3967 C   0  0  2  0  0  0  0  0  0  0  0  0
   26.6788  -32.1618  -16.3439 N   0  0  0  0  0  0  0  0  0  0  0  0
   26.5067  -33.5842  -14.3794 C   0  0  0  0  0  0  0  0  0  0  0  0
   26.9253  -34.4228  -13.5459 O   0  0  0  0  0  0  0  0  0  0  0  0
   29.6219  -30.7266  -16.3264 C   0  0  0  0  0  0  0  0  0  0  0  0
   30.6372  -30.3422  -17.1600 C   0  0  0  0  0  0  0  0  0  0  0  0
   23.2225  -32.6364  -12.8945 C   0  0  0  0  0  0  0  0  0  0  0  0
   24.2227  -33.6992  -13.2784 C   0  0  2  0  0  0  0  0  0  0  0  0
   25.1237  -33.2626  -14.3178 N   0  0  0  0  0  0  0  0  0  0  0  0
   23.5783  -34.9813  -13.5741 C   0  0  0  0  0  0  0  0  0  0  0  0
   23.1222  -35.8505  -12.5810 O   0  0  0  0  0  0  0  0  0  0  0  0
   23.4101  -35.3509  -14.7635 O   0  0  0  0  0  0  0  0  0  0  0  0
  2  1  1  6
  3  4  1  0
  3  2  1  0
  4  5  2  0
  6  5  1  0
  7  6  1  0
  8  7  2  0
  9  8  1  0
 10  9  2  0
 10 11  1  0
 11 12  2  0
 12  7  1  0
 12  4  1  0
 13  2  1  0
 13 14  2  0
 15 16  1  0
 16 17  2  0
 17 18  1  0
 19 20  1  0
 19 18  2  0
 21 20  1  1
 21 22  1  0
 22 13  1  0
 23 21  1  0
 24 23  2  0
 25 19  1  0
 26 25  2  0
 26 16  1  0
 28 27  1  6
 28 29  1  0
 28 30  1  0
 29 23  1  0
 30 31  1  0
 32 30  2  0
M  END
$$$$
