WYA.pdb
     RDKit          3D

 32 34  0  0  1  0  0  0  0  0999 V2000
   22.5725  -19.1858  -15.7217 N   0  0  0  0  0  0  0  0  0  0  0  0
   23.1201  -20.5097  -15.5327 C   0  0  1  0  0  0  0  0  0  0  0  0
   24.6264  -20.5311  -15.6532 C   0  0  0  0  0  0  0  0  0  0  0  0
   25.1234  -19.6332  -16.7047 C   0  0  0  0  0  0  0  0  0  0  0  0
   24.6320  -19.5127  -17.9955 C   0  0  0  0  0  0  0  0  0  0  0  0
   25.3487  -18.5852  -18.6522 N   0  0  0  0  0  0  0  0  0  0  0  0
   26.3101  -18.0668  -17.8628 C   0  0  0  0  0  0  0  0  0  0  0  0
   27.2887  -17.1142  -18.0372 C   0  0  0  0  0  0  0  0  0  0  0  0
   28.1409  -16.7996  -17.0041 C   0  0  0  0  0  0  0  0  0  0  0  0
   28.0189  -17.4459  -15.7686 C   0  0  0  0  0  0  0  0  0  0  0  0
   27.0218  -18.4038  -15.6202 C   0  0  0  0  0  0  0  0  0  0  0  0
   26.1638  -18.7303  -16.6378 C   0  0  0  0  0  0  0  0  0  0  0  0
   22.6818  -21.1194  -14.2596 C   0  0  0  0  0  0  0  0  0  0  0  0
   23.1078  -22.2361  -13.8563 O   0  0  0  0  0  0  0  0  0  0  0  0
   26.5849  -20.5810   -8.5282 O   0  0  0  0  0  0  0  0  0  0  0  0
   25.3771  -20.4449   -9.1650 C   0  0  0  0  0  0  0  0  0  0  0  0
   25.2292  -19.7533  -10.3654 C   0  0  0  0  0  0  0  0  0  0  0  0
   24.0098  -19.6409  -10.9665 C   0  0  0  0  0  0  0  0  0  0  0  0
   22.8914  -20.1955  -10.4243 C   0  0  0  0  0  0  0  0  0  0  0  0
   21.5466  -20.1271  -10.9944 C   0  0  0  0  0  0  0  0  0  0  0  0
   21.2945  -21.0135  -12.1659 C   0  0  2  0  0  0  0  0  0  0  0  0
   21.7461  -20.4695  -13.4151 N   0  0  0  0  0  0  0  0  0  0  0  0
   19.8490  -21.4358  -12.2405 C   0  0  0  0  0  0  0  0  0  0  0  0
   18.9404  -20.6375  -12.5725 O   0  0  0  0  0  0  0  0  0  0  0  0
   23.0282  -20.8851   -9.2312 C   0  0  0  0  0  0  0  0  0  0  0  0
   24.2404  -21.0120   -8.6083 C   0  0  0  0  0  0  0  0  0  0  0  0
   17.2697  -22.5346  -10.8248 C   0  0  0  0  0  0  0  0  0  0  0  0
   18.0796  -23.2226  -11.8964 C   0  0  2  0  0  0  0  0  0  0  0  0
   19.4476  -22.7649  -11.9365 N   0  0  0  0  0  0  0  0  0  0  0  0
   17.4171  -23.1770  -13.2024 C   0  0  0  0  0  0  0  0  0  0  0  0
   16.0857  -23.5520  -13.3936 O   0  0  0  0  0  0  0  0  0  0  0  0
   18.0422  -22.7884  -14.2210 O   0  0  0  0  0  0  0  0  0  0  0  0
  2  1  1  1
  3  4  1  0
  3  2  1  0
  4  5  2  0
  6  5  1  0
  7  6  1  0
  8  7  2  0
  9  8  1  0
 10  9  2  0
 10 11  1  0
 11 12  2  0
 12  7  1  0
 12  4  1  0
 13  2  1  0
 13 14  2  0
 15 16  1  0
 16 17  2  0
 17 18  1  0
 19 20  1  0
 19 18  2  0
 21 20  1  1
 21 22  1  0
 22 13  1  0
 23 21  1  0
 24 23  2  0
 25 19  1  0
 26 25  2  0
 26 16  1  0
 28 27  1  1
 28 29  1  0
 28 30  1  0
 29 23  1  0
 30 31  1  0
 32 30  2  0
M  END
$$$$
