WYA.pdb
     RDKit          3D

 32 34  0  0  1  0  0  0  0  0999 V2000
   27.3187  -19.2183  -10.0419 N   0  0  0  0  0  0  0  0  0  0  0  0
   26.3354  -20.2649   -9.8798 C   0  0  1  0  0  0  0  0  0  0  0  0
   25.6797  -20.2315   -8.5186 C   0  0  0  0  0  0  0  0  0  0  0  0
   26.5664  -19.6974   -7.4757 C   0  0  0  0  0  0  0  0  0  0  0  0
   26.7759  -18.3624   -7.1664 C   0  0  0  0  0  0  0  0  0  0  0  0
   27.6536  -18.2801   -6.1525 N   0  0  0  0  0  0  0  0  0  0  0  0
   28.0527  -19.5048   -5.7561 C   0  0  0  0  0  0  0  0  0  0  0  0
   28.9145  -19.9699   -4.7883 C   0  0  0  0  0  0  0  0  0  0  0  0
   29.1129  -21.3218   -4.6295 C   0  0  0  0  0  0  0  0  0  0  0  0
   28.4399  -22.2339   -5.4506 C   0  0  0  0  0  0  0  0  0  0  0  0
   27.5754  -21.7366   -6.4197 C   0  0  0  0  0  0  0  0  0  0  0  0
   27.3651  -20.3935   -6.5927 C   0  0  0  0  0  0  0  0  0  0  0  0
   25.3224  -20.2517  -10.9561 C   0  0  0  0  0  0  0  0  0  0  0  0
   24.6088  -19.2426  -11.2082 O   0  0  0  0  0  0  0  0  0  0  0  0
   29.4616  -18.6888  -16.0818 O   0  0  0  0  0  0  0  0  0  0  0  0
   28.4799  -19.5132  -15.5925 C   0  0  0  0  0  0  0  0  0  0  0  0
   28.7566  -20.6785  -14.8807 C   0  0  0  0  0  0  0  0  0  0  0  0
   27.7506  -21.4712  -14.4111 C   0  0  0  0  0  0  0  0  0  0  0  0
   26.4412  -21.1614  -14.6154 C   0  0  0  0  0  0  0  0  0  0  0  0
   25.2992  -21.9478  -14.1515 C   0  0  0  0  0  0  0  0  0  0  0  0
   24.4848  -21.3290  -13.0673 C   0  0  2  0  0  0  0  0  0  0  0  0
   25.0986  -21.3903  -11.7712 N   0  0  0  0  0  0  0  0  0  0  0  0
   23.0841  -21.8862  -13.0394 C   0  0  0  0  0  0  0  0  0  0  0  0
   22.5230  -22.3242  -14.0721 O   0  0  0  0  0  0  0  0  0  0  0  0
   26.1560  -20.0049  -15.3218 C   0  0  0  0  0  0  0  0  0  0  0  0
   27.1470  -19.1929  -15.8034 C   0  0  0  0  0  0  0  0  0  0  0  0
   20.5413  -22.6057  -10.2902 C   0  0  0  0  0  0  0  0  0  0  0  0
   20.9950  -22.4746  -11.7235 C   0  0  2  0  0  0  0  0  0  0  0  0
   22.3313  -21.9411  -11.8351 N   0  0  0  0  0  0  0  0  0  0  0  0
   20.0173  -21.7594  -12.5478 C   0  0  0  0  0  0  0  0  0  0  0  0
   18.7986  -22.3177  -12.9390 O   0  0  0  0  0  0  0  0  0  0  0  0
   20.2496  -20.5884  -12.9403 O   0  0  0  0  0  0  0  0  0  0  0  0
  2  1  1  6
  3  4  1  0
  3  2  1  0
  4  5  2  0
  6  5  1  0
  7  6  1  0
  8  7  2  0
  9  8  1  0
 10  9  2  0
 10 11  1  0
 11 12  2  0
 12  7  1  0
 12  4  1  0
 13  2  1  0
 13 14  2  0
 15 16  1  0
 16 17  2  0
 17 18  1  0
 19 20  1  0
 19 18  2  0
 21 20  1  6
 21 22  1  0
 22 13  1  0
 23 21  1  0
 24 23  2  0
 25 19  1  0
 26 25  2  0
 26 16  1  0
 28 27  1  1
 28 29  1  0
 28 30  1  0
 29 23  1  0
 30 31  1  0
 32 30  2  0
M  END
$$$$
