WYA.pdb
     RDKit          3D

 32 34  0  0  1  0  0  0  0  0999 V2000
   26.7901  -21.8211  -10.4370 N   0  0  0  0  0  0  0  0  0  0  0  0
   26.0747  -20.8009   -9.7051 C   0  0  1  0  0  0  0  0  0  0  0  0
   26.9963  -19.7421   -9.1455 C   0  0  0  0  0  0  0  0  0  0  0  0
   28.0541  -20.3041   -8.2945 C   0  0  0  0  0  0  0  0  0  0  0  0
   29.0869  -21.1381   -8.6940 C   0  0  0  0  0  0  0  0  0  0  0  0
   29.8487  -21.4337   -7.6275 N   0  0  0  0  0  0  0  0  0  0  0  0
   29.3786  -20.8356   -6.5151 C   0  0  0  0  0  0  0  0  0  0  0  0
   29.7736  -20.8090   -5.1964 C   0  0  0  0  0  0  0  0  0  0  0  0
   29.0590  -20.0804   -4.2740 C   0  0  0  0  0  0  0  0  0  0  0  0
   27.9255  -19.3611   -4.6697 C   0  0  0  0  0  0  0  0  0  0  0  0
   27.5491  -19.4056   -6.0077 C   0  0  0  0  0  0  0  0  0  0  0  0
   28.2484  -20.1257   -6.9408 C   0  0  0  0  0  0  0  0  0  0  0  0
   24.9935  -20.1915  -10.5079 C   0  0  0  0  0  0  0  0  0  0  0  0
   25.1095  -19.0656  -11.0645 O   0  0  0  0  0  0  0  0  0  0  0  0
   26.7153  -24.0887  -14.9460 O   0  0  0  0  0  0  0  0  0  0  0  0
   25.7995  -23.1902  -14.4593 C   0  0  0  0  0  0  0  0  0  0  0  0
   24.5323  -23.5660  -14.0186 C   0  0  0  0  0  0  0  0  0  0  0  0
   23.6508  -22.6407  -13.5415 C   0  0  0  0  0  0  0  0  0  0  0  0
   23.9674  -21.3187  -13.4753 C   0  0  0  0  0  0  0  0  0  0  0  0
   23.0905  -20.2583  -12.9809 C   0  0  0  0  0  0  0  0  0  0  0  0
   22.7084  -20.3522  -11.5433 C   0  0  2  0  0  0  0  0  0  0  0  0
   23.7527  -20.8523  -10.6950 N   0  0  0  0  0  0  0  0  0  0  0  0
   21.4303  -21.1305  -11.3592 C   0  0  0  0  0  0  0  0  0  0  0  0
   21.4315  -22.3596  -11.1092 O   0  0  0  0  0  0  0  0  0  0  0  0
   25.2248  -20.9352  -13.9110 C   0  0  0  0  0  0  0  0  0  0  0  0
   26.1272  -21.8441  -14.3939 C   0  0  0  0  0  0  0  0  0  0  0  0
   17.7160  -20.2476  -11.4541 C   0  0  0  0  0  0  0  0  0  0  0  0
   18.8931  -21.1805  -11.3077 C   0  0  2  0  0  0  0  0  0  0  0  0
   20.1586  -20.5039  -11.4608 N   0  0  0  0  0  0  0  0  0  0  0  0
   18.7659  -22.3661  -12.1590 C   0  0  0  0  0  0  0  0  0  0  0  0
   18.1244  -23.5351  -11.7443 O   0  0  0  0  0  0  0  0  0  0  0  0
   19.2426  -22.3702  -13.3218 O   0  0  0  0  0  0  0  0  0  0  0  0
  2  1  1  6
  3  4  1  0
  3  2  1  0
  4  5  2  0
  6  5  1  0
  7  6  1  0
  8  7  2  0
  9  8  1  0
 10  9  2  0
 10 11  1  0
 11 12  2  0
 12  7  1  0
 12  4  1  0
 13  2  1  0
 13 14  2  0
 15 16  1  0
 16 17  2  0
 17 18  1  0
 19 20  1  0
 19 18  2  0
 21 20  1  6
 21 22  1  0
 22 13  1  0
 23 21  1  0
 24 23  2  0
 25 19  1  0
 26 25  2  0
 26 16  1  0
 28 27  1  6
 28 29  1  0
 28 30  1  0
 29 23  1  0
 30 31  1  0
 32 30  2  0
M  END
$$$$
