WYA.pdb
     RDKit          3D

 32 34  0  0  1  0  0  0  0  0999 V2000
   25.3366  -18.8275   -9.2440 N   0  0  0  0  0  0  0  0  0  0  0  0
   26.1465  -19.9251   -9.7212 C   0  0  1  0  0  0  0  0  0  0  0  0
   26.1947  -21.0730   -8.7395 C   0  0  0  0  0  0  0  0  0  0  0  0
   26.6047  -20.6502   -7.3933 C   0  0  0  0  0  0  0  0  0  0  0  0
   25.7749  -20.2300   -6.3653 C   0  0  0  0  0  0  0  0  0  0  0  0
   26.5248  -19.9321   -5.2911 N   0  0  0  0  0  0  0  0  0  0  0  0
   27.8336  -20.1314   -5.5430 C   0  0  0  0  0  0  0  0  0  0  0  0
   28.9886  -19.9838   -4.8082 C   0  0  0  0  0  0  0  0  0  0  0  0
   30.2091  -20.2801   -5.3695 C   0  0  0  0  0  0  0  0  0  0  0  0
   30.2851  -20.7338   -6.6914 C   0  0  0  0  0  0  0  0  0  0  0  0
   29.1030  -20.8737   -7.4104 C   0  0  0  0  0  0  0  0  0  0  0  0
   27.8782  -20.5835   -6.8682 C   0  0  0  0  0  0  0  0  0  0  0  0
   25.7251  -20.3900  -11.0595 C   0  0  0  0  0  0  0  0  0  0  0  0
   24.5284  -20.3357  -11.4544 O   0  0  0  0  0  0  0  0  0  0  0  0
   27.5290  -15.6210  -16.2199 O   0  0  0  0  0  0  0  0  0  0  0  0
   27.5640  -16.9050  -15.7371 C   0  0  0  0  0  0  0  0  0  0  0  0
   28.7076  -17.4715  -15.1782 C   0  0  0  0  0  0  0  0  0  0  0  0
   28.7004  -18.7526  -14.7095 C   0  0  0  0  0  0  0  0  0  0  0  0
   27.5840  -19.5288  -14.7665 C   0  0  0  0  0  0  0  0  0  0  0  0
   27.4822  -20.9078  -14.2911 C   0  0  0  0  0  0  0  0  0  0  0  0
   26.3541  -21.1892  -13.3584 C   0  0  2  0  0  0  0  0  0  0  0  0
   26.6595  -20.9287  -11.9803 N   0  0  0  0  0  0  0  0  0  0  0  0
   25.8132  -22.5838  -13.5476 C   0  0  0  0  0  0  0  0  0  0  0  0
   26.4694  -23.6008  -13.2184 O   0  0  0  0  0  0  0  0  0  0  0  0
   26.4421  -18.9746  -15.3203 C   0  0  0  0  0  0  0  0  0  0  0  0
   26.4235  -17.6919  -15.7975 C   0  0  0  0  0  0  0  0  0  0  0  0
   22.5109  -24.0566  -14.7527 C   0  0  0  0  0  0  0  0  0  0  0  0
   23.9798  -24.1121  -14.4110 C   0  0  2  0  0  0  0  0  0  0  0  0
   24.5282  -22.8114  -14.1106 N   0  0  0  0  0  0  0  0  0  0  0  0
   24.7523  -24.8459  -15.4167 C   0  0  0  0  0  0  0  0  0  0  0  0
   24.9185  -26.2320  -15.3859 O   0  0  0  0  0  0  0  0  0  0  0  0
   25.3055  -24.2355  -16.3658 O   0  0  0  0  0  0  0  0  0  0  0  0
  2  1  1  1
  3  4  1  0
  3  2  1  0
  4  5  2  0
  6  5  1  0
  7  6  1  0
  8  7  2  0
  9  8  1  0
 10  9  2  0
 10 11  1  0
 11 12  2  0
 12  7  1  0
 12  4  1  0
 13  2  1  0
 13 14  2  0
 15 16  1  0
 16 17  2  0
 17 18  1  0
 19 20  1  0
 19 18  2  0
 21 20  1  6
 21 22  1  0
 22 13  1  0
 23 21  1  0
 24 23  2  0
 25 19  1  0
 26 25  2  0
 26 16  1  0
 28 27  1  6
 28 29  1  0
 28 30  1  0
 29 23  1  0
 30 31  1  0
 32 30  2  0
M  END
$$$$
