WYA.pdb
     RDKit          3D

 32 34  0  0  1  0  0  0  0  0999 V2000
   25.9621  -22.5188  -10.8650 N   0  0  0  0  0  0  0  0  0  0  0  0
   25.7318  -21.0993  -10.7230 C   0  0  1  0  0  0  0  0  0  0  0  0
   27.0009  -20.2931  -10.8751 C   0  0  0  0  0  0  0  0  0  0  0  0
   28.0202  -20.6478   -9.8781 C   0  0  0  0  0  0  0  0  0  0  0  0
   29.1694  -21.3929  -10.0932 C   0  0  0  0  0  0  0  0  0  0  0  0
   29.8464  -21.4974   -8.9374 N   0  0  0  0  0  0  0  0  0  0  0  0
   29.2066  -20.8541   -7.9408 C   0  0  0  0  0  0  0  0  0  0  0  0
   29.4616  -20.6578   -6.6021 C   0  0  0  0  0  0  0  0  0  0  0  0
   28.5856  -19.9313   -5.8295 C   0  0  0  0  0  0  0  0  0  0  0  0
   27.4289  -19.3864   -6.3990 C   0  0  0  0  0  0  0  0  0  0  0  0
   27.1962  -19.6001   -7.7533 C   0  0  0  0  0  0  0  0  0  0  0  0
   28.0573  -20.3211   -8.5387 C   0  0  0  0  0  0  0  0  0  0  0  0
   24.6800  -20.6093  -11.6388 C   0  0  0  0  0  0  0  0  0  0  0  0
   24.3969  -19.3861  -11.7594 O   0  0  0  0  0  0  0  0  0  0  0  0
   27.5045  -18.3584  -16.9017 O   0  0  0  0  0  0  0  0  0  0  0  0
   26.4931  -19.1220  -16.3756 C   0  0  0  0  0  0  0  0  0  0  0  0
   26.7030  -20.3935  -15.8461 C   0  0  0  0  0  0  0  0  0  0  0  0
   25.6695  -21.1206  -15.3324 C   0  0  0  0  0  0  0  0  0  0  0  0
   24.3963  -20.6399  -15.3142 C   0  0  0  0  0  0  0  0  0  0  0  0
   23.2290  -21.3447  -14.7862 C   0  0  0  0  0  0  0  0  0  0  0  0
   22.9050  -21.0791  -13.3558 C   0  0  2  0  0  0  0  0  0  0  0  0
   23.9251  -21.5038  -12.4395 N   0  0  0  0  0  0  0  0  0  0  0  0
   21.5582  -21.6423  -12.9788 C   0  0  0  0  0  0  0  0  0  0  0  0
   21.2338  -21.8443  -11.7841 O   0  0  0  0  0  0  0  0  0  0  0  0
   24.1775  -19.3769  -15.8382 C   0  0  0  0  0  0  0  0  0  0  0  0
   25.1974  -18.6275  -16.3595 C   0  0  0  0  0  0  0  0  0  0  0  0
   19.5043  -23.9319  -12.9584 C   0  0  0  0  0  0  0  0  0  0  0  0
   19.3317  -22.6270  -13.6964 C   0  0  2  0  0  0  0  0  0  0  0  0
   20.5892  -21.9718  -13.9649 N   0  0  0  0  0  0  0  0  0  0  0  0
   18.3520  -21.7521  -13.0472 C   0  0  0  0  0  0  0  0  0  0  0  0
   17.0601  -22.1682  -12.7191 O   0  0  0  0  0  0  0  0  0  0  0  0
   18.6503  -20.5664  -12.7562 O   0  0  0  0  0  0  0  0  0  0  0  0
  2  1  1  6
  3  4  1  0
  3  2  1  0
  4  5  2  0
  6  5  1  0
  7  6  1  0
  8  7  2  0
  9  8  1  0
 10  9  2  0
 10 11  1  0
 11 12  2  0
 12  7  1  0
 12  4  1  0
 13  2  1  0
 13 14  2  0
 15 16  1  0
 16 17  2  0
 17 18  1  0
 19 20  1  0
 19 18  2  0
 21 20  1  6
 21 22  1  0
 22 13  1  0
 23 21  1  0
 24 23  2  0
 25 19  1  0
 26 25  2  0
 26 16  1  0
 28 27  1  1
 28 29  1  0
 28 30  1  0
 29 23  1  0
 30 31  1  0
 32 30  2  0
M  END
$$$$
