WYA.pdb
     RDKit          3D

 32 34  0  0  1  0  0  0  0  0999 V2000
   27.8295  -22.3242  -14.2813 N   0  0  0  0  0  0  0  0  0  0  0  0
   26.7549  -21.7223  -13.5255 C   0  0  1  0  0  0  0  0  0  0  0  0
   27.1295  -20.3658  -12.9746 C   0  0  0  0  0  0  0  0  0  0  0  0
   28.0209  -20.4538  -11.8099 C   0  0  0  0  0  0  0  0  0  0  0  0
   29.4070  -20.4736  -11.8237 C   0  0  0  0  0  0  0  0  0  0  0  0
   29.8565  -20.5582  -10.5604 N   0  0  0  0  0  0  0  0  0  0  0  0
   28.8339  -20.5971   -9.6835 C   0  0  0  0  0  0  0  0  0  0  0  0
   28.7446  -20.6802   -8.3121 C   0  0  0  0  0  0  0  0  0  0  0  0
   27.5138  -20.6998   -7.6981 C   0  0  0  0  0  0  0  0  0  0  0  0
   26.3437  -20.6354   -8.4634 C   0  0  0  0  0  0  0  0  0  0  0  0
   26.4631  -20.5520   -9.8464 C   0  0  0  0  0  0  0  0  0  0  0  0
   27.6804  -20.5312  -10.4757 C   0  0  0  0  0  0  0  0  0  0  0  0
   25.4983  -21.6508  -14.3004 C   0  0  0  0  0  0  0  0  0  0  0  0
   25.4712  -21.3779  -15.5316 O   0  0  0  0  0  0  0  0  0  0  0  0
   24.9622  -27.1257  -17.7223 O   0  0  0  0  0  0  0  0  0  0  0  0
   24.3660  -26.2238  -16.8774 C   0  0  0  0  0  0  0  0  0  0  0  0
   24.6584  -26.1549  -15.5169 C   0  0  0  0  0  0  0  0  0  0  0  0
   24.0428  -25.2428  -14.7107 C   0  0  0  0  0  0  0  0  0  0  0  0
   23.1222  -24.3657  -15.1958 C   0  0  0  0  0  0  0  0  0  0  0  0
   22.4131  -23.3566  -14.4104 C   0  0  0  0  0  0  0  0  0  0  0  0
   23.0104  -21.9910  -14.4207 C   0  0  2  0  0  0  0  0  0  0  0  0
   24.2411  -21.8887  -13.6889 N   0  0  0  0  0  0  0  0  0  0  0  0
   22.0171  -20.9481  -13.9748 C   0  0  0  0  0  0  0  0  0  0  0  0
   21.7764  -20.7360  -12.7622 O   0  0  0  0  0  0  0  0  0  0  0  0
   22.8248  -24.4262  -16.5470 C   0  0  0  0  0  0  0  0  0  0  0  0
   23.4285  -25.3319  -17.3768 C   0  0  0  0  0  0  0  0  0  0  0  0
   20.2763  -18.0613  -15.6870 C   0  0  0  0  0  0  0  0  0  0  0  0
   20.4256  -19.0618  -14.5671 C   0  0  2  0  0  0  0  0  0  0  0  0
   21.3042  -20.1532  -14.9128 N   0  0  0  0  0  0  0  0  0  0  0  0
   19.1293  -19.5063  -14.0489 C   0  0  0  0  0  0  0  0  0  0  0  0
   18.3556  -18.7392  -13.1755 O   0  0  0  0  0  0  0  0  0  0  0  0
   18.6583  -20.6227  -14.3824 O   0  0  0  0  0  0  0  0  0  0  0  0
  2  1  1  6
  3  4  1  0
  3  2  1  0
  4  5  2  0
  6  5  1  0
  7  6  1  0
  8  7  2  0
  9  8  1  0
 10  9  2  0
 10 11  1  0
 11 12  2  0
 12  7  1  0
 12  4  1  0
 13  2  1  0
 13 14  2  0
 15 16  1  0
 16 17  2  0
 17 18  1  0
 19 20  1  0
 19 18  2  0
 21 20  1  1
 21 22  1  0
 22 13  1  0
 23 21  1  0
 24 23  2  0
 25 19  1  0
 26 25  2  0
 26 16  1  0
 28 27  1  6
 28 29  1  0
 28 30  1  0
 29 23  1  0
 30 31  1  0
 32 30  2  0
M  END
$$$$
