PGT.pdb
     RDKit          3D

 19 19  0  0  1  0  0  0  0  0999 V2000
    7.8042  -14.7056   19.0633 N   0  0  0  0  0  0  0  0  0  0  0  0
    6.7999  -13.7530   19.4265 C   0  0  0  0  0  0  0  0  0  0  0  0
    7.4795  -12.6536   20.2165 C   0  0  0  0  0  0  0  0  0  0  0  0
    8.9320  -12.8362   19.7592 C   0  0  0  0  0  0  0  0  0  0  0  0
    8.9961  -14.3676   19.7936 C   0  0  1  0  0  0  0  0  0  0  0  0
    8.9952  -14.7750   21.2060 C   0  0  0  0  0  0  0  0  0  0  0  0
   10.0383  -14.5958   21.9279 O   0  0  0  0  0  0  0  0  0  0  0  0
    7.9131  -15.3771   21.9010 N   0  0  0  0  0  0  0  0  0  0  0  0
    8.0656  -15.9108   23.2517 C   0  0  0  0  0  0  0  0  0  0  0  0
    8.4517  -14.8742   24.2143 C   0  0  0  0  0  0  0  0  0  0  0  0
    9.6444  -14.5205   24.3319 O   0  0  0  0  0  0  0  0  0  0  0  0
    6.3798  -11.6404   25.5264 C   0  0  0  0  0  0  0  0  0  0  0  0
    6.5619  -12.7029   26.5972 C   0  0  1  0  0  0  0  0  0  0  0  0
    5.4725  -13.5589   26.6142 O   0  0  0  0  0  0  0  0  0  0  0  0
    7.7931  -13.4996   26.2091 C   0  0  2  0  0  0  0  0  0  0  0  0
    7.4769  -14.2551   25.0287 N   0  0  0  0  0  0  0  0  0  0  0  0
    8.2394  -14.3834   27.3112 C   0  0  0  0  0  0  0  0  0  0  0  0
    8.7122  -13.7818   28.4810 O   0  0  0  0  0  0  0  0  0  0  0  0
    8.2072  -15.6371   27.2301 O   0  0  0  0  0  0  0  0  0  0  0  0
  1  2  1  0
  3  2  1  0
  4  5  1  0
  4  3  1  0
  5  6  1  1
  5  1  1  0
  6  8  1  0
  7  6  2  0
  8  9  1  0
 10  9  1  0
 10 11  2  0
 13 12  1  6
 13 15  1  0
 14 13  1  0
 15 16  1  6
 15 17  1  0
 16 10  1  0
 17 19  2  0
 17 18  1  0
M  END
$$$$
