PGT.pdb
     RDKit          3D

 19 19  0  0  1  0  0  0  0  0999 V2000
    7.8510  -15.0316   19.7836 N   0  0  0  0  0  0  0  0  0  0  0  0
    6.6156  -14.5387   20.3117 C   0  0  0  0  0  0  0  0  0  0  0  0
    6.9377  -13.3412   21.1817 C   0  0  0  0  0  0  0  0  0  0  0  0
    8.3110  -12.9493   20.6225 C   0  0  0  0  0  0  0  0  0  0  0  0
    8.9120  -14.3523   20.4771 C   0  0  1  0  0  0  0  0  0  0  0  0
    9.1891  -14.8531   21.8310 C   0  0  0  0  0  0  0  0  0  0  0  0
    8.3392  -15.6054   22.4252 O   0  0  0  0  0  0  0  0  0  0  0  0
   10.3532  -14.5850   22.5989 N   0  0  0  0  0  0  0  0  0  0  0  0
   11.0774  -15.6437   23.2969 C   0  0  0  0  0  0  0  0  0  0  0  0
   10.8926  -15.5734   24.7498 C   0  0  0  0  0  0  0  0  0  0  0  0
   11.5969  -16.2609   25.5198 O   0  0  0  0  0  0  0  0  0  0  0  0
    8.9954  -12.3061   26.3885 C   0  0  0  0  0  0  0  0  0  0  0  0
    8.5106  -13.6466   26.9146 C   0  0  1  0  0  0  0  0  0  0  0  0
    7.4220  -14.0858   26.1787 O   0  0  0  0  0  0  0  0  0  0  0  0
    9.6519  -14.6260   26.7159 C   0  0  2  0  0  0  0  0  0  0  0  0
    9.9107  -14.7230   25.3060 N   0  0  0  0  0  0  0  0  0  0  0  0
    9.3393  -15.9516   27.2989 C   0  0  0  0  0  0  0  0  0  0  0  0
    9.4099  -16.0878   28.6883 O   0  0  0  0  0  0  0  0  0  0  0  0
    9.0178  -16.9425   26.5960 O   0  0  0  0  0  0  0  0  0  0  0  0
  1  2  1  0
  3  2  1  0
  4  5  1  0
  4  3  1  0
  5  6  1  1
  5  1  1  0
  6  8  1  0
  7  6  2  0
  8  9  1  0
 10  9  1  0
 10 11  2  0
 13 12  1  6
 13 15  1  0
 14 13  1  0
 15 16  1  6
 15 17  1  0
 16 10  1  0
 17 19  2  0
 17 18  1  0
M  END
$$$$
