PGT.pdb
     RDKit          3D

 19 19  0  0  1  0  0  0  0  0999 V2000
    8.3273  -14.9539   18.3327 N   0  0  0  0  0  0  0  0  0  0  0  0
    7.2437  -14.1221   17.9060 C   0  0  0  0  0  0  0  0  0  0  0  0
    7.2950  -12.8504   18.7275 C   0  0  0  0  0  0  0  0  0  0  0  0
    8.7584  -12.8713   19.1860 C   0  0  0  0  0  0  0  0  0  0  0  0
    8.8752  -14.3624   19.5234 C   0  0  1  0  0  0  0  0  0  0  0  0
    8.0967  -14.5972   20.7480 C   0  0  0  0  0  0  0  0  0  0  0  0
    6.8714  -14.2286   20.8120 O   0  0  0  0  0  0  0  0  0  0  0  0
    8.5712  -15.2190   21.9332 N   0  0  0  0  0  0  0  0  0  0  0  0
    7.7309  -15.3615   23.1189 C   0  0  0  0  0  0  0  0  0  0  0  0
    8.2878  -14.6569   24.2780 C   0  0  0  0  0  0  0  0  0  0  0  0
    9.5225  -14.5170   24.4109 O   0  0  0  0  0  0  0  0  0  0  0  0
    6.5565  -11.4581   25.8721 C   0  0  0  0  0  0  0  0  0  0  0  0
    6.7737  -12.5320   26.9247 C   0  0  1  0  0  0  0  0  0  0  0  0
    5.6382  -13.3154   27.0528 O   0  0  0  0  0  0  0  0  0  0  0  0
    7.9065  -13.4064   26.4212 C   0  0  2  0  0  0  0  0  0  0  0  0
    7.4338  -14.1220   25.2685 N   0  0  0  0  0  0  0  0  0  0  0  0
    8.3866  -14.3340   27.4719 C   0  0  0  0  0  0  0  0  0  0  0  0
    8.2083  -15.7048   27.2650 O   0  0  0  0  0  0  0  0  0  0  0  0
    8.9406  -13.9348   28.5269 O   0  0  0  0  0  0  0  0  0  0  0  0
  1  2  1  0
  3  2  1  0
  4  5  1  0
  4  3  1  0
  5  6  1  1
  5  1  1  0
  6  8  1  0
  7  6  2  0
  8  9  1  0
 10  9  1  0
 10 11  2  0
 13 12  1  6
 13 15  1  0
 14 13  1  0
 15 16  1  6
 15 17  1  0
 16 10  1  0
 17 19  2  0
 17 18  1  0
M  END
$$$$
