PGT.pdb
     RDKit          3D

 19 19  0  0  1  0  0  0  0  0999 V2000
    9.0518  -14.3359   19.3555 N   0  0  0  0  0  0  0  0  0  0  0  0
    7.8926  -14.2178   18.5245 C   0  0  0  0  0  0  0  0  0  0  0  0
    7.0026  -13.1536   19.1330 C   0  0  0  0  0  0  0  0  0  0  0  0
    8.0231  -12.3868   19.9831 C   0  0  0  0  0  0  0  0  0  0  0  0
    8.7962  -13.5819   20.5530 C   0  0  1  0  0  0  0  0  0  0  0  0
    7.9202  -14.2455   21.5293 C   0  0  0  0  0  0  0  0  0  0  0  0
    7.5022  -13.6059   22.5577 O   0  0  0  0  0  0  0  0  0  0  0  0
    7.4585  -15.5866   21.4612 N   0  0  0  0  0  0  0  0  0  0  0  0
    6.6321  -16.1721   22.5133 C   0  0  0  0  0  0  0  0  0  0  0  0
    7.3963  -17.0805   23.3740 C   0  0  0  0  0  0  0  0  0  0  0  0
    6.8161  -17.8471   24.1724 O   0  0  0  0  0  0  0  0  0  0  0  0
   10.3969  -18.9251   21.9747 C   0  0  0  0  0  0  0  0  0  0  0  0
   10.8674  -18.3143   23.2840 C   0  0  1  0  0  0  0  0  0  0  0  0
   11.5424  -17.1281   23.0451 O   0  0  0  0  0  0  0  0  0  0  0  0
    9.6191  -18.0034   24.0879 C   0  0  2  0  0  0  0  0  0  0  0  0
    8.8079  -17.1044   23.3148 N   0  0  0  0  0  0  0  0  0  0  0  0
    9.9532  -17.4257   25.4106 C   0  0  0  0  0  0  0  0  0  0  0  0
    9.5862  -16.0995   25.6564 O   0  0  0  0  0  0  0  0  0  0  0  0
   10.5468  -18.0789   26.3052 O   0  0  0  0  0  0  0  0  0  0  0  0
  1  2  1  0
  3  2  1  0
  4  5  1  0
  4  3  1  0
  5  6  1  1
  5  1  1  0
  6  8  1  0
  7  6  2  0
  8  9  1  0
 10  9  1  0
 10 11  2  0
 13 12  1  6
 13 15  1  0
 14 13  1  0
 15 16  1  6
 15 17  1  0
 16 10  1  0
 17 19  2  0
 17 18  1  0
M  END
$$$$
