PGT.pdb
     RDKit          3D

 19 19  0  0  1  0  0  0  0  0999 V2000
   -0.8262  -24.4731   25.8650 N   0  0  0  0  0  0  0  0  0  0  0  0
   -1.6562  -25.5239   26.3699 C   0  0  0  0  0  0  0  0  0  0  0  0
   -2.8495  -25.6461   25.4446 C   0  0  0  0  0  0  0  0  0  0  0  0
   -2.2925  -24.9823   24.1793 C   0  0  0  0  0  0  0  0  0  0  0  0
   -1.5707  -23.7995   24.8354 C   0  0  1  0  0  0  0  0  0  0  0  0
   -2.6018  -22.8713   25.3211 C   0  0  0  0  0  0  0  0  0  0  0  0
   -3.5173  -22.4542   24.5278 O   0  0  0  0  0  0  0  0  0  0  0  0
   -2.7066  -22.3548   26.6398 N   0  0  0  0  0  0  0  0  0  0  0  0
   -3.7407  -21.3931   27.0115 C   0  0  0  0  0  0  0  0  0  0  0  0
   -4.7464  -21.9808   27.9022 C   0  0  0  0  0  0  0  0  0  0  0  0
   -5.6668  -21.2829   28.3790 O   0  0  0  0  0  0  0  0  0  0  0  0
   -6.8506  -24.9713   27.2611 C   0  0  0  0  0  0  0  0  0  0  0  0
   -6.0329  -25.3118   28.4956 C   0  0  1  0  0  0  0  0  0  0  0  0
   -4.8847  -25.9989   28.1364 O   0  0  0  0  0  0  0  0  0  0  0  0
   -5.6267  -23.9910   29.1214 C   0  0  2  0  0  0  0  0  0  0  0  0
   -4.6912  -23.3523   28.2378 N   0  0  0  0  0  0  0  0  0  0  0  0
   -5.0478  -24.1834   30.4715 C   0  0  0  0  0  0  0  0  0  0  0  0
   -5.8835  -24.6783   31.4768 O   0  0  0  0  0  0  0  0  0  0  0  0
   -3.8483  -23.9204   30.7384 O   0  0  0  0  0  0  0  0  0  0  0  0
  1  2  1  0
  3  2  1  0
  4  5  1  0
  4  3  1  0
  5  6  1  1
  5  1  1  0
  6  8  1  0
  7  6  2  0
  8  9  1  0
 10  9  1  0
 10 11  2  0
 13 12  1  6
 13 15  1  0
 14 13  1  0
 15 16  1  6
 15 17  1  0
 16 10  1  0
 17 19  2  0
 17 18  1  0
M  END
$$$$
