PGT.pdb
     RDKit          3D

 19 19  0  0  1  0  0  0  0  0999 V2000
    8.7866  -14.9892   19.0634 N   0  0  0  0  0  0  0  0  0  0  0  0
    7.5352  -14.6865   18.4387 C   0  0  0  0  0  0  0  0  0  0  0  0
    7.1266  -13.2982   18.8868 C   0  0  0  0  0  0  0  0  0  0  0  0
    8.4845  -12.7322   19.3201 C   0  0  0  0  0  0  0  0  0  0  0  0
    9.0308  -13.9676   20.0456 C   0  0  1  0  0  0  0  0  0  0  0  0
    8.2711  -14.1138   21.2954 C   0  0  0  0  0  0  0  0  0  0  0  0
    8.1253  -13.1121   22.0807 O   0  0  0  0  0  0  0  0  0  0  0  0
    7.6459  -15.3017   21.7589 N   0  0  0  0  0  0  0  0  0  0  0  0
    6.9660  -15.3620   23.0498 C   0  0  0  0  0  0  0  0  0  0  0  0
    7.7524  -14.7365   24.1177 C   0  0  0  0  0  0  0  0  0  0  0  0
    8.9886  -14.5934   24.0039 O   0  0  0  0  0  0  0  0  0  0  0  0
    6.5640  -11.5677   26.1002 C   0  0  0  0  0  0  0  0  0  0  0  0
    6.8476  -12.7032   27.0691 C   0  0  1  0  0  0  0  0  0  0  0  0
    5.6849  -13.4077   27.3365 O   0  0  0  0  0  0  0  0  0  0  0  0
    7.8227  -13.6322   26.3711 C   0  0  2  0  0  0  0  0  0  0  0  0
    7.1227  -14.2830   25.2985 N   0  0  0  0  0  0  0  0  0  0  0  0
    8.4039  -14.6181   27.3119 C   0  0  0  0  0  0  0  0  0  0  0  0
    9.2109  -14.1371   28.3470 O   0  0  0  0  0  0  0  0  0  0  0  0
    8.1982  -15.8538   27.2115 O   0  0  0  0  0  0  0  0  0  0  0  0
  1  2  1  0
  3  2  1  0
  4  5  1  0
  4  3  1  0
  5  6  1  1
  5  1  1  0
  6  8  1  0
  7  6  2  0
  8  9  1  0
 10  9  1  0
 10 11  2  0
 13 12  1  6
 13 15  1  0
 14 13  1  0
 15 16  1  6
 15 17  1  0
 16 10  1  0
 17 19  2  0
 17 18  1  0
M  END
$$$$
