PGT.pdb
     RDKit          3D

 19 19  0  0  1  0  0  0  0  0999 V2000
    8.6631  -14.6033   19.4232 N   0  0  0  0  0  0  0  0  0  0  0  0
    7.3415  -14.2572   18.9970 C   0  0  0  0  0  0  0  0  0  0  0  0
    6.8111  -13.2144   19.9594 C   0  0  0  0  0  0  0  0  0  0  0  0
    8.1238  -12.6788   20.5441 C   0  0  0  0  0  0  0  0  0  0  0  0
    8.8618  -14.0113   20.7186 C   0  0  1  0  0  0  0  0  0  0  0  0
    8.2206  -14.7251   21.8323 C   0  0  0  0  0  0  0  0  0  0  0  0
    7.5397  -15.7870   21.6088 O   0  0  0  0  0  0  0  0  0  0  0  0
    8.2710  -14.3537   23.2020 N   0  0  0  0  0  0  0  0  0  0  0  0
    8.2659  -15.3481   24.2714 C   0  0  0  0  0  0  0  0  0  0  0  0
    9.4794  -15.2826   25.0918 C   0  0  0  0  0  0  0  0  0  0  0  0
   10.5536  -14.8577   24.6151 O   0  0  0  0  0  0  0  0  0  0  0  0
   10.2889  -13.3219   27.7986 C   0  0  0  0  0  0  0  0  0  0  0  0
   10.3333  -14.7047   28.4267 C   0  0  1  0  0  0  0  0  0  0  0  0
    9.1061  -15.0159   28.9895 O   0  0  0  0  0  0  0  0  0  0  0  0
   10.6067  -15.6819   27.2991 C   0  0  2  0  0  0  0  0  0  0  0  0
    9.4543  -15.7007   26.4413 N   0  0  0  0  0  0  0  0  0  0  0  0
   10.9167  -17.0356   27.8150 C   0  0  0  0  0  0  0  0  0  0  0  0
   12.0543  -17.1864   28.6132 O   0  0  0  0  0  0  0  0  0  0  0  0
   10.2014  -18.0375   27.5624 O   0  0  0  0  0  0  0  0  0  0  0  0
  1  2  1  0
  3  2  1  0
  4  5  1  0
  4  3  1  0
  5  6  1  1
  5  1  1  0
  6  8  1  0
  7  6  2  0
  8  9  1  0
 10  9  1  0
 10 11  2  0
 13 12  1  6
 13 15  1  0
 14 13  1  0
 15 16  1  6
 15 17  1  0
 16 10  1  0
 17 19  2  0
 17 18  1  0
M  END
$$$$
