PGT.pdb
     RDKit          3D

 19 19  0  0  1  0  0  0  0  0999 V2000
    8.7387  -14.4886   19.2809 N   0  0  0  0  0  0  0  0  0  0  0  0
    7.4531  -14.3598   18.6655 C   0  0  0  0  0  0  0  0  0  0  0  0
    6.7767  -13.1482   19.2734 C   0  0  0  0  0  0  0  0  0  0  0  0
    7.9948  -12.3871   19.8112 C   0  0  0  0  0  0  0  0  0  0  0  0
    8.7739  -13.5740   20.3900 C   0  0  1  0  0  0  0  0  0  0  0  0
    8.0562  -14.0262   21.5905 C   0  0  0  0  0  0  0  0  0  0  0  0
    6.9702  -13.4475   21.9470 O   0  0  0  0  0  0  0  0  0  0  0  0
    8.4484  -15.0880   22.4480 N   0  0  0  0  0  0  0  0  0  0  0  0
    7.6809  -15.4410   23.6391 C   0  0  0  0  0  0  0  0  0  0  0  0
    8.3599  -16.4544   24.4528 C   0  0  0  0  0  0  0  0  0  0  0  0
    7.8337  -16.8968   25.4964 O   0  0  0  0  0  0  0  0  0  0  0  0
   10.2254  -19.5319   23.1280 C   0  0  0  0  0  0  0  0  0  0  0  0
   11.2207  -18.7243   23.9440 C   0  0  1  0  0  0  0  0  0  0  0  0
   11.9688  -17.9048   23.1143 O   0  0  0  0  0  0  0  0  0  0  0  0
   10.4044  -17.8485   24.8756 C   0  0  2  0  0  0  0  0  0  0  0  0
    9.6262  -16.9499   24.0688 N   0  0  0  0  0  0  0  0  0  0  0  0
   11.2689  -17.1094   25.8248 C   0  0  0  0  0  0  0  0  0  0  0  0
   11.2944  -15.7146   25.7360 O   0  0  0  0  0  0  0  0  0  0  0  0
   11.9696  -17.6864   26.6940 O   0  0  0  0  0  0  0  0  0  0  0  0
  1  2  1  0
  3  2  1  0
  4  5  1  0
  4  3  1  0
  5  6  1  1
  5  1  1  0
  6  8  1  0
  7  6  2  0
  8  9  1  0
 10  9  1  0
 10 11  2  0
 13 12  1  6
 13 15  1  0
 14 13  1  0
 15 16  1  6
 15 17  1  0
 16 10  1  0
 17 19  2  0
 17 18  1  0
M  END
$$$$
