PGT.pdb
     RDKit          3D

 19 19  0  0  1  0  0  0  0  0999 V2000
   -4.9415  -26.8916   27.7855 N   0  0  0  0  0  0  0  0  0  0  0  0
   -5.2339  -26.3159   26.5083 C   0  0  0  0  0  0  0  0  0  0  0  0
   -4.0009  -25.5608   26.0561 C   0  0  0  0  0  0  0  0  0  0  0  0
   -2.9253  -26.2420   26.9112 C   0  0  0  0  0  0  0  0  0  0  0  0
   -3.6975  -26.3259   28.2331 C   0  0  1  0  0  0  0  0  0  0  0  0
   -3.7942  -24.9616   28.7718 C   0  0  0  0  0  0  0  0  0  0  0  0
   -2.7367  -24.3382   29.1385 O   0  0  0  0  0  0  0  0  0  0  0  0
   -4.9891  -24.2135   28.9423 N   0  0  0  0  0  0  0  0  0  0  0  0
   -4.9709  -22.8193   29.3763 C   0  0  0  0  0  0  0  0  0  0  0  0
   -6.3224  -22.2741   29.5387 C   0  0  0  0  0  0  0  0  0  0  0  0
   -6.4997  -21.1270   30.0015 O   0  0  0  0  0  0  0  0  0  0  0  0
  -11.0728  -22.8156   28.4621 C   0  0  0  0  0  0  0  0  0  0  0  0
   -9.6837  -23.4293   28.4151 C   0  0  1  0  0  0  0  0  0  0  0  0
   -9.1805  -23.3801   27.1252 O   0  0  0  0  0  0  0  0  0  0  0  0
   -8.8041  -22.5739   29.3072 C   0  0  2  0  0  0  0  0  0  0  0  0
   -7.4519  -23.0403   29.1728 N   0  0  0  0  0  0  0  0  0  0  0  0
   -9.2522  -22.6196   30.7186 C   0  0  0  0  0  0  0  0  0  0  0  0
  -10.2718  -21.7469   31.1094 O   0  0  0  0  0  0  0  0  0  0  0  0
   -8.7533  -23.4052   31.5631 O   0  0  0  0  0  0  0  0  0  0  0  0
  1  2  1  0
  3  2  1  0
  4  5  1  0
  4  3  1  0
  5  6  1  6
  5  1  1  0
  6  8  1  0
  7  6  2  0
  8  9  1  0
 10  9  1  0
 10 11  2  0
 13 12  1  6
 13 15  1  0
 14 13  1  0
 15 16  1  1
 15 17  1  0
 16 10  1  0
 17 19  2  0
 17 18  1  0
M  END
$$$$
