PGT.pdb
     RDKit          3D

 19 19  0  0  1  0  0  0  0  0999 V2000
    7.2566  -15.5904   22.2252 N   0  0  0  0  0  0  0  0  0  0  0  0
    7.1096  -14.1739   22.3665 C   0  0  0  0  0  0  0  0  0  0  0  0
    7.9221  -13.5200   21.2678 C   0  0  0  0  0  0  0  0  0  0  0  0
    8.0282  -14.6793   20.2694 C   0  0  0  0  0  0  0  0  0  0  0  0
    8.2994  -15.8166   21.2612 C   0  0  1  0  0  0  0  0  0  0  0  0
    9.6662  -15.6368   21.7715 C   0  0  0  0  0  0  0  0  0  0  0  0
   10.6569  -15.6042   20.9598 O   0  0  0  0  0  0  0  0  0  0  0  0
   10.0361  -15.4872   23.1343 N   0  0  0  0  0  0  0  0  0  0  0  0
   11.4189  -15.6372   23.5790 C   0  0  0  0  0  0  0  0  0  0  0  0
   11.5380  -15.5822   25.0395 C   0  0  0  0  0  0  0  0  0  0  0  0
   12.6412  -15.7570   25.5999 O   0  0  0  0  0  0  0  0  0  0  0  0
    9.8776  -12.9298   27.3081 C   0  0  0  0  0  0  0  0  0  0  0  0
    9.3928  -14.3014   27.7466 C   0  0  1  0  0  0  0  0  0  0  0  0
    8.1886  -14.6041   27.1320 O   0  0  0  0  0  0  0  0  0  0  0  0
   10.4359  -15.2977   27.2771 C   0  0  2  0  0  0  0  0  0  0  0  0
   10.4022  -15.3294   25.8411 N   0  0  0  0  0  0  0  0  0  0  0  0
   10.2012  -16.6430   27.8514 C   0  0  0  0  0  0  0  0  0  0  0  0
   10.2801  -16.7840   29.2399 O   0  0  0  0  0  0  0  0  0  0  0  0
    9.9375  -17.6464   27.1421 O   0  0  0  0  0  0  0  0  0  0  0  0
  1  2  1  0
  3  2  1  0
  4  5  1  0
  4  3  1  0
  5  6  1  1
  5  1  1  0
  6  8  1  0
  7  6  2  0
  8  9  1  0
 10  9  1  0
 10 11  2  0
 13 12  1  6
 13 15  1  0
 14 13  1  0
 15 16  1  6
 15 17  1  0
 16 10  1  0
 17 19  2  0
 17 18  1  0
M  END
$$$$
