PGT.pdb
     RDKit          3D

 19 19  0  0  1  0  0  0  0  0999 V2000
    8.0684  -15.1943   19.7290 N   0  0  0  0  0  0  0  0  0  0  0  0
    7.0625  -14.2919   19.2579 C   0  0  0  0  0  0  0  0  0  0  0  0
    7.5448  -12.8841   19.5414 C   0  0  0  0  0  0  0  0  0  0  0  0
    9.0534  -13.1259   19.6754 C   0  0  0  0  0  0  0  0  0  0  0  0
    9.0096  -14.4216   20.4940 C   0  0  1  0  0  0  0  0  0  0  0  0
    8.5660  -14.0686   21.8502 C   0  0  0  0  0  0  0  0  0  0  0  0
    9.3142  -13.3548   22.6065 O   0  0  0  0  0  0  0  0  0  0  0  0
    7.3372  -14.4480   22.4524 N   0  0  0  0  0  0  0  0  0  0  0  0
    7.0085  -14.0859   23.8284 C   0  0  0  0  0  0  0  0  0  0  0  0
    7.1037  -15.2318   24.7384 C   0  0  0  0  0  0  0  0  0  0  0  0
    6.5549  -15.2067   25.8607 O   0  0  0  0  0  0  0  0  0  0  0  0
    6.0159  -18.5200   24.1872 C   0  0  0  0  0  0  0  0  0  0  0  0
    7.4923  -18.7528   24.4606 C   0  0  1  0  0  0  0  0  0  0  0  0
    8.1920  -18.8490   23.2687 O   0  0  0  0  0  0  0  0  0  0  0  0
    7.9892  -17.5326   25.2125 C   0  0  2  0  0  0  0  0  0  0  0  0
    7.8209  -16.3889   24.3595 N   0  0  0  0  0  0  0  0  0  0  0  0
    9.4015  -17.6892   25.6317 C   0  0  0  0  0  0  0  0  0  0  0  0
    9.6987  -18.6811   26.5707 O   0  0  0  0  0  0  0  0  0  0  0  0
   10.3270  -16.9705   25.1775 O   0  0  0  0  0  0  0  0  0  0  0  0
  1  2  1  0
  3  2  1  0
  4  5  1  0
  4  3  1  0
  5  6  1  1
  5  1  1  0
  6  8  1  0
  7  6  2  0
  8  9  1  0
 10  9  1  0
 10 11  2  0
 13 12  1  6
 13 15  1  0
 14 13  1  0
 15 16  1  6
 15 17  1  0
 16 10  1  0
 17 19  2  0
 17 18  1  0
M  END
$$$$
