PGT.pdb
     RDKit          3D

 19 19  0  0  1  0  0  0  0  0999 V2000
    7.7083  -15.1111   19.4498 N   0  0  0  0  0  0  0  0  0  0  0  0
    6.9761  -13.9330   19.0977 C   0  0  0  0  0  0  0  0  0  0  0  0
    7.9050  -12.7495   19.2751 C   0  0  0  0  0  0  0  0  0  0  0  0
    9.2678  -13.4497   19.2069 C   0  0  0  0  0  0  0  0  0  0  0  0
    8.9390  -14.6822   20.0576 C   0  0  1  0  0  0  0  0  0  0  0  0
    8.8192  -14.2332   21.4521 C   0  0  0  0  0  0  0  0  0  0  0  0
    9.8530  -13.8200   22.0861 O   0  0  0  0  0  0  0  0  0  0  0  0
    7.6252  -14.2028   22.2203 N   0  0  0  0  0  0  0  0  0  0  0  0
    7.6254  -13.8274   23.6315 C   0  0  0  0  0  0  0  0  0  0  0  0
    7.6094  -14.9983   24.5141 C   0  0  0  0  0  0  0  0  0  0  0  0
    7.5315  -14.8655   25.7542 O   0  0  0  0  0  0  0  0  0  0  0  0
    5.4661  -17.9790   23.8162 C   0  0  0  0  0  0  0  0  0  0  0  0
    6.8619  -18.5454   24.0150 C   0  0  1  0  0  0  0  0  0  0  0  0
    7.4749  -18.7525   22.7898 O   0  0  0  0  0  0  0  0  0  0  0  0
    7.6493  -17.4948   24.7749 C   0  0  2  0  0  0  0  0  0  0  0  0
    7.6823  -16.3022   23.9745 N   0  0  0  0  0  0  0  0  0  0  0  0
    9.0166  -17.9660   25.0965 C   0  0  0  0  0  0  0  0  0  0  0  0
    9.1446  -19.0872   25.9213 O   0  0  0  0  0  0  0  0  0  0  0  0
   10.0493  -17.3994   24.6586 O   0  0  0  0  0  0  0  0  0  0  0  0
  1  2  1  0
  3  2  1  0
  4  5  1  0
  4  3  1  0
  5  6  1  1
  5  1  1  0
  6  8  1  0
  7  6  2  0
  8  9  1  0
 10  9  1  0
 10 11  2  0
 13 12  1  6
 13 15  1  0
 14 13  1  0
 15 16  1  6
 15 17  1  0
 16 10  1  0
 17 19  2  0
 17 18  1  0
M  END
$$$$
