PGT.pdb
     RDKit          3D

 19 19  0  0  1  0  0  0  0  0999 V2000
    8.5670  -14.2197   18.5470 N   0  0  0  0  0  0  0  0  0  0  0  0
    7.4357  -13.3467   18.4693 C   0  0  0  0  0  0  0  0  0  0  0  0
    7.1769  -12.8117   19.8628 C   0  0  0  0  0  0  0  0  0  0  0  0
    8.5497  -13.0356   20.5088 C   0  0  0  0  0  0  0  0  0  0  0  0
    8.8496  -14.4281   19.9415 C   0  0  1  0  0  0  0  0  0  0  0  0
    7.9578  -15.3794   20.6201 C   0  0  0  0  0  0  0  0  0  0  0  0
    8.1688  -16.6395   20.5248 O   0  0  0  0  0  0  0  0  0  0  0  0
    6.8275  -15.0455   21.4124 N   0  0  0  0  0  0  0  0  0  0  0  0
    6.0054  -16.0684   22.0529 C   0  0  0  0  0  0  0  0  0  0  0  0
    6.6073  -16.5616   23.2958 C   0  0  0  0  0  0  0  0  0  0  0  0
    5.9712  -17.3188   24.0598 O   0  0  0  0  0  0  0  0  0  0  0  0
    8.6949  -18.8485   23.7306 C   0  0  0  0  0  0  0  0  0  0  0  0
    9.5472  -17.7763   24.3882 C   0  0  1  0  0  0  0  0  0  0  0  0
   10.4429  -17.2469   23.4734 O   0  0  0  0  0  0  0  0  0  0  0  0
    8.5969  -16.6763   24.8223 C   0  0  2  0  0  0  0  0  0  0  0  0
    7.9225  -16.1874   23.6518 N   0  0  0  0  0  0  0  0  0  0  0  0
    9.3113  -15.5866   25.5273 C   0  0  0  0  0  0  0  0  0  0  0  0
    9.3632  -14.3330   24.9111 O   0  0  0  0  0  0  0  0  0  0  0  0
    9.8638  -15.7499   26.6442 O   0  0  0  0  0  0  0  0  0  0  0  0
  1  2  1  0
  3  2  1  0
  4  5  1  0
  4  3  1  0
  5  6  1  1
  5  1  1  0
  6  8  1  0
  7  6  2  0
  8  9  1  0
 10  9  1  0
 10 11  2  0
 13 12  1  6
 13 15  1  0
 14 13  1  0
 15 16  1  6
 15 17  1  0
 16 10  1  0
 17 19  2  0
 17 18  1  0
M  END
$$$$
