SQP.pdb
     RDKit          3D

 23 23  0  0  1  0  0  0  0  0999 V2000
    9.8640  -12.7019   20.3425 O   0  0  0  0  0  0  0  0  0  0  0  0
    9.5087  -14.0184   20.1749 C   0  0  0  0  0  0  0  0  0  0  0  0
    8.0045  -14.1218   20.1168 C   0  0  2  0  0  0  0  0  0  0  0  0
    7.5020  -12.9397   19.4503 N   0  0  0  0  0  0  0  0  0  0  0  0
    7.4396  -14.2749   21.4835 C   0  0  0  0  0  0  0  0  0  0  0  0
    6.9269  -13.2476   21.9982 O   0  0  0  0  0  0  0  0  0  0  0  0
    7.3618  -19.4840   25.1380 N   0  0  0  0  0  0  0  0  0  0  0  0
    6.7558  -18.4880   25.9381 C   0  0  0  0  0  0  0  0  0  0  0  0
    6.4273  -18.7554   27.1088 O   0  0  0  0  0  0  0  0  0  0  0  0
    6.5207  -17.1437   25.3748 C   0  0  0  0  0  0  0  0  0  0  0  0
    6.9789  -17.0835   23.9182 C   0  0  0  0  0  0  0  0  0  0  0  0
    7.0070  -15.5828   23.5760 C   0  0  2  0  0  0  0  0  0  0  0  0
    7.4727  -15.5033   22.1737 N   0  0  0  0  0  0  0  0  0  0  0  0
    7.9526  -14.8976   24.4675 C   0  0  0  0  0  0  0  0  0  0  0  0
    9.1957  -15.1885   24.3134 O   0  0  0  0  0  0  0  0  0  0  0  0
    7.6160  -13.9540   25.4692 N   0  0  0  0  0  0  0  0  0  0  0  0
    6.2339  -13.4343   25.5689 C   0  0  0  0  0  0  0  0  0  0  0  0
    6.4695  -12.0208   26.1118 C   0  0  0  0  0  0  0  0  0  0  0  0
    7.5164  -12.3239   27.1461 C   0  0  0  0  0  0  0  0  0  0  0  0
    8.4067  -13.3369   26.4776 C   0  0  1  0  0  0  0  0  0  0  0  0
    8.9102  -14.3253   27.4862 C   0  0  0  0  0  0  0  0  0  0  0  0
    8.3959  -15.4705   27.4831 O   0  0  0  0  0  0  0  0  0  0  0  0
    9.8916  -14.0399   28.3951 O   0  0  0  0  0  0  0  0  0  0  0  0
  1  2  1  0
  2  3  1  0
  3  5  1  0
  3  4  1  1
  5  6  2  0
  8  7  1  0
  8 10  1  0
  9  8  2  0
 10 11  1  0
 12 11  1  1
 12 14  1  0
 13 12  1  0
 13  5  1  0
 14 15  2  0
 14 16  1  0
 16 20  1  0
 17 16  1  0
 18 19  1  0
 18 17  1  0
 19 20  1  0
 20 21  1  1
 21 22  2  0
 21 23  1  0
M  END
$$$$
