SQP.pdb
     RDKit          3D

 23 23  0  0  1  0  0  0  0  0999 V2000
    8.8758  -14.2330   18.5977 O   0  0  0  0  0  0  0  0  0  0  0  0
    8.0182  -14.1488   19.6676 C   0  0  0  0  0  0  0  0  0  0  0  0
    7.7842  -15.5314   20.2246 C   0  0  2  0  0  0  0  0  0  0  0  0
    6.8527  -16.2120   19.3511 N   0  0  0  0  0  0  0  0  0  0  0  0
    7.2830  -15.4521   21.6222 C   0  0  0  0  0  0  0  0  0  0  0  0
    6.0618  -15.1864   21.7673 O   0  0  0  0  0  0  0  0  0  0  0  0
    7.8941  -19.7082   25.6457 N   0  0  0  0  0  0  0  0  0  0  0  0
    7.2051  -18.7314   26.4010 C   0  0  0  0  0  0  0  0  0  0  0  0
    6.7188  -19.0381   27.5052 O   0  0  0  0  0  0  0  0  0  0  0  0
    7.0712  -17.3602   25.8701 C   0  0  0  0  0  0  0  0  0  0  0  0
    7.7291  -17.2493   24.4954 C   0  0  0  0  0  0  0  0  0  0  0  0
    7.5523  -15.7742   24.0920 C   0  0  2  0  0  0  0  0  0  0  0  0
    8.1255  -15.6622   22.7324 N   0  0  0  0  0  0  0  0  0  0  0  0
    8.2934  -14.9205   25.0303 C   0  0  0  0  0  0  0  0  0  0  0  0
    9.5748  -15.0267   25.0088 O   0  0  0  0  0  0  0  0  0  0  0  0
    7.7239  -14.0004   25.9446 N   0  0  0  0  0  0  0  0  0  0  0  0
    6.2549  -13.8359   26.0184 C   0  0  0  0  0  0  0  0  0  0  0  0
    6.1248  -12.3634   26.4222 C   0  0  0  0  0  0  0  0  0  0  0  0
    7.2066  -12.2953   27.4626 C   0  0  0  0  0  0  0  0  0  0  0  0
    8.3273  -13.1122   26.8772 C   0  0  1  0  0  0  0  0  0  0  0  0
    9.0551  -13.8428   27.9655 C   0  0  0  0  0  0  0  0  0  0  0  0
    8.8024  -15.0634   28.1143 O   0  0  0  0  0  0  0  0  0  0  0  0
    9.9697  -13.2480   28.7904 O   0  0  0  0  0  0  0  0  0  0  0  0
  1  2  1  0
  2  3  1  0
  3  5  1  0
  3  4  1  6
  5  6  2  0
  8  7  1  0
  8 10  1  0
  9  8  2  0
 10 11  1  0
 12 11  1  1
 12 14  1  0
 13 12  1  0
 13  5  1  0
 14 15  2  0
 14 16  1  0
 16 20  1  0
 17 16  1  0
 18 19  1  0
 18 17  1  0
 19 20  1  0
 20 21  1  1
 21 22  2  0
 21 23  1  0
M  END
$$$$
