SQP.pdb
     RDKit          3D

 23 23  0  0  1  0  0  0  0  0999 V2000
    9.8389  -12.9772   20.4295 O   0  0  0  0  0  0  0  0  0  0  0  0
    9.7359  -14.3317   20.2248 C   0  0  0  0  0  0  0  0  0  0  0  0
    8.2775  -14.7119   20.1519 C   0  0  2  0  0  0  0  0  0  0  0  0
    7.6422  -13.8560   19.1732 N   0  0  0  0  0  0  0  0  0  0  0  0
    7.6416  -14.5970   21.4908 C   0  0  0  0  0  0  0  0  0  0  0  0
    7.0489  -13.5156   21.7408 O   0  0  0  0  0  0  0  0  0  0  0  0
    6.4953  -19.5566   24.7430 N   0  0  0  0  0  0  0  0  0  0  0  0
    5.7864  -19.0079   23.6495 C   0  0  0  0  0  0  0  0  0  0  0  0
    5.0087  -19.7285   22.9970 O   0  0  0  0  0  0  0  0  0  0  0  0
    5.9778  -17.5873   23.2957 C   0  0  0  0  0  0  0  0  0  0  0  0
    6.8775  -16.8950   24.3187 C   0  0  0  0  0  0  0  0  0  0  0  0
    7.0748  -15.4705   23.7695 C   0  0  2  0  0  0  0  0  0  0  0  0
    7.6952  -15.6404   22.4369 N   0  0  0  0  0  0  0  0  0  0  0  0
    7.9746  -14.7253   24.6602 C   0  0  0  0  0  0  0  0  0  0  0  0
    9.2347  -14.9158   24.4884 O   0  0  0  0  0  0  0  0  0  0  0  0
    7.5773  -13.8246   25.6790 N   0  0  0  0  0  0  0  0  0  0  0  0
    6.1616  -13.4096   25.7962 C   0  0  0  0  0  0  0  0  0  0  0  0
    6.2969  -11.9911   26.3599 C   0  0  0  0  0  0  0  0  0  0  0  0
    7.3711  -12.2322   27.3823 C   0  0  0  0  0  0  0  0  0  0  0  0
    8.3284  -13.1666   26.6919 C   0  0  1  0  0  0  0  0  0  0  0  0
    8.9109  -14.1307   27.6813 C   0  0  0  0  0  0  0  0  0  0  0  0
    8.4483  -15.2976   27.6957 O   0  0  0  0  0  0  0  0  0  0  0  0
    9.9102  -13.8010   28.5550 O   0  0  0  0  0  0  0  0  0  0  0  0
  1  2  1  0
  2  3  1  0
  3  5  1  0
  3  4  1  6
  5  6  2  0
  8  7  1  0
  8 10  1  0
  9  8  2  0
 10 11  1  0
 12 11  1  1
 12 14  1  0
 13 12  1  0
 13  5  1  0
 14 15  2  0
 14 16  1  0
 16 20  1  0
 17 16  1  0
 18 19  1  0
 18 17  1  0
 19 20  1  0
 20 21  1  1
 21 22  2  0
 21 23  1  0
M  END
$$$$
