SQP.pdb
     RDKit          3D

 23 23  0  0  1  0  0  0  0  0999 V2000
    9.7246  -12.9171   20.1080 O   0  0  0  0  0  0  0  0  0  0  0  0
    9.2689  -14.2104   20.0241 C   0  0  0  0  0  0  0  0  0  0  0  0
    7.7706  -14.2199   20.2024 C   0  0  2  0  0  0  0  0  0  0  0  0
    7.2447  -13.0040   19.6201 N   0  0  0  0  0  0  0  0  0  0  0  0
    7.4178  -14.3480   21.6410 C   0  0  0  0  0  0  0  0  0  0  0  0
    6.9797  -13.3131   22.2068 O   0  0  0  0  0  0  0  0  0  0  0  0
    8.2088  -19.2564   25.7810 N   0  0  0  0  0  0  0  0  0  0  0  0
    6.9871  -18.6129   26.0858 C   0  0  0  0  0  0  0  0  0  0  0  0
    6.1554  -19.1857   26.8139 O   0  0  0  0  0  0  0  0  0  0  0  0
    6.7138  -17.2700   25.5367 C   0  0  0  0  0  0  0  0  0  0  0  0
    7.1944  -17.1729   24.0894 C   0  0  0  0  0  0  0  0  0  0  0  0
    7.0881  -15.6777   23.7386 C   0  0  2  0  0  0  0  0  0  0  0  0
    7.5638  -15.5620   22.3421 N   0  0  0  0  0  0  0  0  0  0  0  0
    7.9537  -14.9035   24.6385 C   0  0  0  0  0  0  0  0  0  0  0  0
    9.2209  -15.0664   24.4918 O   0  0  0  0  0  0  0  0  0  0  0  0
    7.5169  -14.0027   25.6408 N   0  0  0  0  0  0  0  0  0  0  0  0
    6.0729  -13.7346   25.8236 C   0  0  0  0  0  0  0  0  0  0  0  0
    6.0842  -12.2847   26.3195 C   0  0  0  0  0  0  0  0  0  0  0  0
    7.2318  -12.3623   27.2862 C   0  0  0  0  0  0  0  0  0  0  0  0
    8.2458  -13.2219   26.5799 C   0  0  1  0  0  0  0  0  0  0  0  0
    8.9818  -14.0712   27.5723 C   0  0  0  0  0  0  0  0  0  0  0  0
    9.8202  -13.5025   28.3136 O   0  0  0  0  0  0  0  0  0  0  0  0
    8.7822  -15.4177   27.7053 O   0  0  0  0  0  0  0  0  0  0  0  0
  1  2  1  0
  2  3  1  0
  3  5  1  0
  3  4  1  1
  5  6  2  0
  8  7  1  0
  8 10  1  0
  9  8  2  0
 10 11  1  0
 12 11  1  1
 12 14  1  0
 13 12  1  0
 13  5  1  0
 14 15  2  0
 14 16  1  0
 16 20  1  0
 17 16  1  0
 18 19  1  0
 18 17  1  0
 19 20  1  0
 20 21  1  1
 21 22  2  0
 21 23  1  0
M  END
$$$$
