SQP.pdb
     RDKit          3D

 23 23  0  0  1  0  0  0  0  0999 V2000
    9.0449  -12.4811   20.1375 O   0  0  0  0  0  0  0  0  0  0  0  0
    9.2094  -13.8449   20.1273 C   0  0  0  0  0  0  0  0  0  0  0  0
    7.8562  -14.5075   20.2098 C   0  0  2  0  0  0  0  0  0  0  0  0
    6.9209  -13.7068   19.4495 N   0  0  0  0  0  0  0  0  0  0  0  0
    7.4365  -14.6603   21.6278 C   0  0  0  0  0  0  0  0  0  0  0  0
    6.5410  -13.8767   22.0367 O   0  0  0  0  0  0  0  0  0  0  0  0
    7.8944  -19.8671   24.7913 N   0  0  0  0  0  0  0  0  0  0  0  0
    6.7370  -19.1719   25.2112 C   0  0  0  0  0  0  0  0  0  0  0  0
    5.8103  -19.7958   25.7607 O   0  0  0  0  0  0  0  0  0  0  0  0
    6.6424  -17.7148   24.9925 C   0  0  0  0  0  0  0  0  0  0  0  0
    7.9017  -17.1919   24.3026 C   0  0  0  0  0  0  0  0  0  0  0  0
    7.5504  -15.7542   23.8788 C   0  0  2  0  0  0  0  0  0  0  0  0
    8.0071  -15.6299   22.4768 N   0  0  0  0  0  0  0  0  0  0  0  0
    8.2709  -14.8037   24.7366 C   0  0  0  0  0  0  0  0  0  0  0  0
    9.5466  -14.7499   24.5833 O   0  0  0  0  0  0  0  0  0  0  0  0
    7.6873  -13.9507   25.7055 N   0  0  0  0  0  0  0  0  0  0  0  0
    6.2271  -13.7093   25.7027 C   0  0  0  0  0  0  0  0  0  0  0  0
    6.1451  -12.2810   26.2517 C   0  0  0  0  0  0  0  0  0  0  0  0
    7.1542  -12.3833   27.3602 C   0  0  0  0  0  0  0  0  0  0  0  0
    8.2694  -13.1997   26.7638 C   0  0  1  0  0  0  0  0  0  0  0  0
    8.8814  -14.0794   27.8123 C   0  0  0  0  0  0  0  0  0  0  0  0
    8.5523  -15.2908   27.8175 O   0  0  0  0  0  0  0  0  0  0  0  0
    9.7703  -13.6280   28.7486 O   0  0  0  0  0  0  0  0  0  0  0  0
  1  2  1  0
  2  3  1  0
  3  5  1  0
  3  4  1  6
  5  6  2  0
  8  7  1  0
  8 10  1  0
  9  8  2  0
 10 11  1  0
 12 11  1  1
 12 14  1  0
 13 12  1  0
 13  5  1  0
 14 15  2  0
 14 16  1  0
 16 20  1  0
 17 16  1  0
 18 19  1  0
 18 17  1  0
 19 20  1  0
 20 21  1  1
 21 22  2  0
 21 23  1  0
M  END
$$$$
