SQP.pdb
     RDKit          3D

 23 23  0  0  1  0  0  0  0  0999 V2000
    9.9236  -13.0134   20.3934 O   0  0  0  0  0  0  0  0  0  0  0  0
    9.3794  -14.2324   20.0693 C   0  0  0  0  0  0  0  0  0  0  0  0
    7.8746  -14.1225   20.0837 C   0  0  2  0  0  0  0  0  0  0  0  0
    7.5167  -12.8324   19.5347 N   0  0  0  0  0  0  0  0  0  0  0  0
    7.3520  -14.3066   21.4634 C   0  0  0  0  0  0  0  0  0  0  0  0
    6.7640  -13.3204   21.9781 O   0  0  0  0  0  0  0  0  0  0  0  0
    8.2219  -18.9015   25.5091 N   0  0  0  0  0  0  0  0  0  0  0  0
    7.0866  -18.2575   26.0528 C   0  0  0  0  0  0  0  0  0  0  0  0
    6.7168  -18.5352   27.2088 O   0  0  0  0  0  0  0  0  0  0  0  0
    6.3542  -17.2640   25.2426 C   0  0  0  0  0  0  0  0  0  0  0  0
    6.9655  -17.1531   23.8465 C   0  0  0  0  0  0  0  0  0  0  0  0
    7.0110  -15.6420   23.5554 C   0  0  2  0  0  0  0  0  0  0  0  0
    7.5033  -15.5194   22.1654 N   0  0  0  0  0  0  0  0  0  0  0  0
    7.9448  -14.9945   24.4866 C   0  0  0  0  0  0  0  0  0  0  0  0
    9.1906  -15.2732   24.3319 O   0  0  0  0  0  0  0  0  0  0  0  0
    7.5943  -14.0990   25.5269 N   0  0  0  0  0  0  0  0  0  0  0  0
    6.1978  -13.6293   25.6667 C   0  0  0  0  0  0  0  0  0  0  0  0
    6.3961  -12.2291   26.2568 C   0  0  0  0  0  0  0  0  0  0  0  0
    7.4693  -12.5341   27.2632 C   0  0  0  0  0  0  0  0  0  0  0  0
    8.3810  -13.4925   26.5448 C   0  0  1  0  0  0  0  0  0  0  0  0
    8.9330  -14.4991   27.5091 C   0  0  0  0  0  0  0  0  0  0  0  0
    8.4690  -15.6645   27.4601 O   0  0  0  0  0  0  0  0  0  0  0  0
    9.9064  -14.2091   28.4251 O   0  0  0  0  0  0  0  0  0  0  0  0
  1  2  1  0
  2  3  1  0
  3  5  1  0
  3  4  1  1
  5  6  2  0
  8  7  1  0
  8 10  1  0
  9  8  2  0
 10 11  1  0
 12 11  1  1
 12 14  1  0
 13 12  1  0
 13  5  1  0
 14 15  2  0
 14 16  1  0
 16 20  1  0
 17 16  1  0
 18 19  1  0
 18 17  1  0
 19 20  1  0
 20 21  1  1
 21 22  2  0
 21 23  1  0
M  END
$$$$
