SQP.pdb
     RDKit          3D

 23 23  0  0  1  0  0  0  0  0999 V2000
    9.5534  -13.8475   20.8802 O   0  0  0  0  0  0  0  0  0  0  0  0
    8.4726  -13.8271   20.0324 C   0  0  0  0  0  0  0  0  0  0  0  0
    7.6050  -15.0307   20.3072 C   0  0  2  0  0  0  0  0  0  0  0  0
    6.4881  -14.9942   19.3879 N   0  0  0  0  0  0  0  0  0  0  0  0
    7.1604  -15.0395   21.7259 C   0  0  0  0  0  0  0  0  0  0  0  0
    6.1996  -14.2817   22.0187 O   0  0  0  0  0  0  0  0  0  0  0  0
    7.5896  -19.7184   25.8490 N   0  0  0  0  0  0  0  0  0  0  0  0
    6.9357  -18.6902   26.5663 C   0  0  0  0  0  0  0  0  0  0  0  0
    6.4688  -18.9291   27.6954 O   0  0  0  0  0  0  0  0  0  0  0  0
    6.8151  -17.3464   25.9668 C   0  0  0  0  0  0  0  0  0  0  0  0
    7.3965  -17.3339   24.5537 C   0  0  0  0  0  0  0  0  0  0  0  0
    7.2640  -15.8731   24.0861 C   0  0  2  0  0  0  0  0  0  0  0  0
    7.7778  -15.8514   22.6986 N   0  0  0  0  0  0  0  0  0  0  0  0
    8.0833  -15.0099   24.9474 C   0  0  0  0  0  0  0  0  0  0  0  0
    9.3577  -15.1050   24.8044 O   0  0  0  0  0  0  0  0  0  0  0  0
    7.5950  -14.0915   25.9094 N   0  0  0  0  0  0  0  0  0  0  0  0
    6.1389  -13.8729   26.0588 C   0  0  0  0  0  0  0  0  0  0  0  0
    6.0865  -12.4070   26.5022 C   0  0  0  0  0  0  0  0  0  0  0  0
    7.2190  -12.4060   27.4896 C   0  0  0  0  0  0  0  0  0  0  0  0
    8.2772  -13.2504   26.8314 C   0  0  1  0  0  0  0  0  0  0  0  0
    9.0271  -14.0350   27.8657 C   0  0  0  0  0  0  0  0  0  0  0  0
    8.7580  -15.2563   27.9753 O   0  0  0  0  0  0  0  0  0  0  0  0
    9.9785  -13.4882   28.6820 O   0  0  0  0  0  0  0  0  0  0  0  0
  1  2  1  0
  2  3  1  0
  3  5  1  0
  3  4  1  6
  5  6  2  0
  8  7  1  0
  8 10  1  0
  9  8  2  0
 10 11  1  0
 12 11  1  1
 12 14  1  0
 13 12  1  0
 13  5  1  0
 14 15  2  0
 14 16  1  0
 16 20  1  0
 17 16  1  0
 18 19  1  0
 18 17  1  0
 19 20  1  0
 20 21  1  1
 21 22  2  0
 21 23  1  0
M  END
$$$$
