SQP.pdb
     RDKit          3D

 23 23  0  0  1  0  0  0  0  0999 V2000
    8.9805  -13.9941   18.6828 O   0  0  0  0  0  0  0  0  0  0  0  0
    7.9933  -13.9818   19.6381 C   0  0  0  0  0  0  0  0  0  0  0  0
    7.8028  -15.3805   20.1711 C   0  0  2  0  0  0  0  0  0  0  0  0
    6.9286  -16.0890   19.2613 N   0  0  0  0  0  0  0  0  0  0  0  0
    7.2566  -15.3414   21.5534 C   0  0  0  0  0  0  0  0  0  0  0  0
    6.0230  -15.1202   21.6644 O   0  0  0  0  0  0  0  0  0  0  0  0
    7.8538  -19.6385   25.5272 N   0  0  0  0  0  0  0  0  0  0  0  0
    7.1126  -18.6932   26.2730 C   0  0  0  0  0  0  0  0  0  0  0  0
    6.5809  -19.0363   27.3452 O   0  0  0  0  0  0  0  0  0  0  0  0
    6.9788  -17.3114   25.7706 C   0  0  0  0  0  0  0  0  0  0  0  0
    7.6288  -17.1744   24.3944 C   0  0  0  0  0  0  0  0  0  0  0  0
    7.4616  -15.6891   24.0259 C   0  0  2  0  0  0  0  0  0  0  0  0
    8.0715  -15.5405   22.6860 N   0  0  0  0  0  0  0  0  0  0  0  0
    8.1758  -14.8606   25.0067 C   0  0  0  0  0  0  0  0  0  0  0  0
    9.4564  -14.9767   25.0274 O   0  0  0  0  0  0  0  0  0  0  0  0
    7.5816  -13.9545   25.9193 N   0  0  0  0  0  0  0  0  0  0  0  0
    6.1127  -13.7753   25.9415 C   0  0  0  0  0  0  0  0  0  0  0  0
    5.9826  -12.3108   26.3732 C   0  0  0  0  0  0  0  0  0  0  0  0
    7.0250  -12.2776   27.4548 C   0  0  0  0  0  0  0  0  0  0  0  0
    8.1585  -13.0938   26.8937 C   0  0  1  0  0  0  0  0  0  0  0  0
    8.8371  -13.8563   27.9918 C   0  0  0  0  0  0  0  0  0  0  0  0
    8.5855  -15.0824   28.0880 O   0  0  0  0  0  0  0  0  0  0  0  0
    9.7064  -13.2845   28.8795 O   0  0  0  0  0  0  0  0  0  0  0  0
  1  2  1  0
  2  3  1  0
  3  5  1  0
  3  4  1  6
  5  6  2  0
  8  7  1  0
  8 10  1  0
  9  8  2  0
 10 11  1  0
 12 11  1  1
 12 14  1  0
 13 12  1  0
 13  5  1  0
 14 15  2  0
 14 16  1  0
 16 20  1  0
 17 16  1  0
 18 19  1  0
 18 17  1  0
 19 20  1  0
 20 21  1  1
 21 22  2  0
 21 23  1  0
M  END
$$$$
