SQP.pdb
     RDKit          3D

 23 23  0  0  1  0  0  0  0  0999 V2000
    9.4882  -12.8997   19.8892 O   0  0  0  0  0  0  0  0  0  0  0  0
    9.2063  -14.2342   20.0534 C   0  0  0  0  0  0  0  0  0  0  0  0
    7.7135  -14.4127   20.1821 C   0  0  2  0  0  0  0  0  0  0  0  0
    7.0724  -13.3029   19.5103 N   0  0  0  0  0  0  0  0  0  0  0  0
    7.3208  -14.5013   21.6133 C   0  0  0  0  0  0  0  0  0  0  0  0
    6.7077  -13.5115   22.0904 O   0  0  0  0  0  0  0  0  0  0  0  0
    7.8455  -19.4915   25.4852 N   0  0  0  0  0  0  0  0  0  0  0  0
    7.0651  -18.5666   26.2166 C   0  0  0  0  0  0  0  0  0  0  0  0
    6.7490  -18.8236   27.3930 O   0  0  0  0  0  0  0  0  0  0  0  0
    6.6353  -17.3080   25.5756 C   0  0  0  0  0  0  0  0  0  0  0  0
    7.1621  -17.2269   24.1434 C   0  0  0  0  0  0  0  0  0  0  0  0
    7.0989  -15.7311   23.7847 C   0  0  2  0  0  0  0  0  0  0  0  0
    7.6163  -15.6315   22.4019 N   0  0  0  0  0  0  0  0  0  0  0  0
    7.9555  -14.9726   24.7062 C   0  0  0  0  0  0  0  0  0  0  0  0
    9.2221  -15.1679   24.5998 O   0  0  0  0  0  0  0  0  0  0  0  0
    7.5108  -14.0543   25.6891 N   0  0  0  0  0  0  0  0  0  0  0  0
    6.0748  -13.7115   25.7929 C   0  0  0  0  0  0  0  0  0  0  0  0
    6.1340  -12.2663   26.2991 C   0  0  0  0  0  0  0  0  0  0  0  0
    7.2199  -12.4083   27.3277 C   0  0  0  0  0  0  0  0  0  0  0  0
    8.2257  -13.3169   26.6730 C   0  0  1  0  0  0  0  0  0  0  0  0
    8.8594  -14.2079   27.6987 C   0  0  0  0  0  0  0  0  0  0  0  0
    9.6988  -13.6916   28.4765 O   0  0  0  0  0  0  0  0  0  0  0  0
    8.5671  -15.5381   27.8243 O   0  0  0  0  0  0  0  0  0  0  0  0
  1  2  1  0
  2  3  1  0
  3  5  1  0
  3  4  1  1
  5  6  2  0
  8  7  1  0
  8 10  1  0
  9  8  2  0
 10 11  1  0
 12 11  1  1
 12 14  1  0
 13 12  1  0
 13  5  1  0
 14 15  2  0
 14 16  1  0
 16 20  1  0
 17 16  1  0
 18 19  1  0
 18 17  1  0
 19 20  1  0
 20 21  1  1
 21 22  2  0
 21 23  1  0
M  END
$$$$
