SQP.pdb
     RDKit          3D

 23 23  0  0  1  0  0  0  0  0999 V2000
    9.1198  -13.5929   18.9383 O   0  0  0  0  0  0  0  0  0  0  0  0
    8.0422  -13.6288   19.7897 C   0  0  0  0  0  0  0  0  0  0  0  0
    7.7328  -15.0643   20.1365 C   0  0  2  0  0  0  0  0  0  0  0  0
    6.7903  -15.5655   19.1595 N   0  0  0  0  0  0  0  0  0  0  0  0
    7.2055  -15.1634   21.5231 C   0  0  0  0  0  0  0  0  0  0  0  0
    5.9964  -14.8568   21.6880 O   0  0  0  0  0  0  0  0  0  0  0  0
    7.9100  -19.6592   25.4722 N   0  0  0  0  0  0  0  0  0  0  0  0
    7.2090  -18.7070   26.2476 C   0  0  0  0  0  0  0  0  0  0  0  0
    6.7816  -19.0249   27.3729 O   0  0  0  0  0  0  0  0  0  0  0  0
    6.9928  -17.3480   25.7126 C   0  0  0  0  0  0  0  0  0  0  0  0
    7.6345  -17.2050   24.3331 C   0  0  0  0  0  0  0  0  0  0  0  0
    7.4277  -15.7274   23.9539 C   0  0  2  0  0  0  0  0  0  0  0  0
    8.0115  -15.5781   22.6024 N   0  0  0  0  0  0  0  0  0  0  0  0
    8.1397  -14.8738   24.9145 C   0  0  0  0  0  0  0  0  0  0  0  0
    9.4181  -15.0064   24.9582 O   0  0  0  0  0  0  0  0  0  0  0  0
    7.5454  -13.9273   25.7852 N   0  0  0  0  0  0  0  0  0  0  0  0
    6.0824  -13.7058   25.7581 C   0  0  0  0  0  0  0  0  0  0  0  0
    5.9825  -12.2272   26.1480 C   0  0  0  0  0  0  0  0  0  0  0  0
    6.9928  -12.1952   27.2597 C   0  0  0  0  0  0  0  0  0  0  0  0
    8.1181  -13.0580   26.7544 C   0  0  1  0  0  0  0  0  0  0  0  0
    8.7411  -13.8102   27.8918 C   0  0  0  0  0  0  0  0  0  0  0  0
    9.4577  -13.1616   28.6929 O   0  0  0  0  0  0  0  0  0  0  0  0
    8.5650  -15.1515   28.0937 O   0  0  0  0  0  0  0  0  0  0  0  0
  1  2  1  0
  2  3  1  0
  3  5  1  0
  3  4  1  6
  5  6  2  0
  8  7  1  0
  8 10  1  0
  9  8  2  0
 10 11  1  0
 12 11  1  1
 12 14  1  0
 13 12  1  0
 13  5  1  0
 14 15  2  0
 14 16  1  0
 16 20  1  0
 17 16  1  0
 18 19  1  0
 18 17  1  0
 19 20  1  0
 20 21  1  1
 21 22  2  0
 21 23  1  0
M  END
$$$$
