SQP.pdb
     RDKit          3D

 23 23  0  0  1  0  0  0  0  0999 V2000
    5.0753  -20.7326   20.6129 O   0  0  0  0  0  0  0  0  0  0  0  0
    4.5226  -19.4805   20.4938 C   0  0  0  0  0  0  0  0  0  0  0  0
    4.3666  -18.8755   21.8672 C   0  0  2  0  0  0  0  0  0  0  0  0
    2.9515  -18.7285   22.1314 N   0  0  0  0  0  0  0  0  0  0  0  0
    5.0878  -17.5780   21.9500 C   0  0  0  0  0  0  0  0  0  0  0  0
    4.4636  -16.5613   21.5502 O   0  0  0  0  0  0  0  0  0  0  0  0
    9.8116  -16.6003   25.7206 N   0  0  0  0  0  0  0  0  0  0  0  0
    8.4695  -16.2527   25.9985 C   0  0  0  0  0  0  0  0  0  0  0  0
    8.1077  -16.0917   27.1789 O   0  0  0  0  0  0  0  0  0  0  0  0
    7.5144  -16.0852   24.8852 C   0  0  0  0  0  0  0  0  0  0  0  0
    8.2050  -16.3266   23.5436 C   0  0  0  0  0  0  0  0  0  0  0  0
    7.0898  -16.1733   22.4934 C   0  0  2  0  0  0  0  0  0  0  0  0
    6.4025  -17.4830   22.4489 N   0  0  0  0  0  0  0  0  0  0  0  0
    7.6892  -15.8668   21.1876 C   0  0  0  0  0  0  0  0  0  0  0  0
    8.0451  -16.8743   20.4721 O   0  0  0  0  0  0  0  0  0  0  0  0
    7.9047  -14.5717   20.6552 N   0  0  0  0  0  0  0  0  0  0  0  0
    7.3457  -13.3832   21.3375 C   0  0  0  0  0  0  0  0  0  0  0  0
    7.0918  -12.4368   20.1594 C   0  0  0  0  0  0  0  0  0  0  0  0
    8.3601  -12.6589   19.3852 C   0  0  0  0  0  0  0  0  0  0  0  0
    8.5951  -14.1422   19.4883 C   0  0  1  0  0  0  0  0  0  0  0  0
   10.0651  -14.4268   19.5632 C   0  0  0  0  0  0  0  0  0  0  0  0
   10.5715  -14.5674   20.7033 O   0  0  0  0  0  0  0  0  0  0  0  0
   10.8672  -14.5401   18.4611 O   0  0  0  0  0  0  0  0  0  0  0  0
  1  2  1  0
  2  3  1  0
  3  5  1  0
  3  4  1  6
  5  6  2  0
  8  7  1  0
  8 10  1  0
  9  8  2  0
 10 11  1  0
 12 11  1  1
 12 14  1  0
 13 12  1  0
 13  5  1  0
 14 15  2  0
 14 16  1  0
 16 20  1  0
 17 16  1  0
 18 19  1  0
 18 17  1  0
 19 20  1  0
 20 21  1  1
 21 22  2  0
 21 23  1  0
M  END
$$$$
