SQP.pdb
     RDKit          3D

 23 23  0  0  1  0  0  0  0  0999 V2000
    9.0818  -14.3731   18.8986 O   0  0  0  0  0  0  0  0  0  0  0  0
    8.1940  -14.1547   19.9240 C   0  0  0  0  0  0  0  0  0  0  0  0
    7.5667  -15.4674   20.3239 C   0  0  2  0  0  0  0  0  0  0  0  0
    6.4715  -15.7329   19.4162 N   0  0  0  0  0  0  0  0  0  0  0  0
    7.1188  -15.4205   21.7408 C   0  0  0  0  0  0  0  0  0  0  0  0
    6.0235  -14.8433   21.9654 O   0  0  0  0  0  0  0  0  0  0  0  0
    7.8454  -19.7803   26.0180 N   0  0  0  0  0  0  0  0  0  0  0  0
    7.2411  -18.7343   26.7530 C   0  0  0  0  0  0  0  0  0  0  0  0
    6.8855  -18.9350   27.9292 O   0  0  0  0  0  0  0  0  0  0  0  0
    7.0396  -17.4177   26.1161 C   0  0  0  0  0  0  0  0  0  0  0  0
    7.5008  -17.4490   24.6595 C   0  0  0  0  0  0  0  0  0  0  0  0
    7.3503  -15.9980   24.1676 C   0  0  2  0  0  0  0  0  0  0  0  0
    7.8757  -15.9904   22.7843 N   0  0  0  0  0  0  0  0  0  0  0  0
    8.1492  -15.1088   25.0218 C   0  0  0  0  0  0  0  0  0  0  0  0
    9.4235  -15.2783   24.9885 O   0  0  0  0  0  0  0  0  0  0  0  0
    7.6417  -14.0920   25.8677 N   0  0  0  0  0  0  0  0  0  0  0  0
    6.2172  -13.6984   25.7878 C   0  0  0  0  0  0  0  0  0  0  0  0
    6.2804  -12.2156   26.1691 C   0  0  0  0  0  0  0  0  0  0  0  0
    7.2479  -12.2956   27.3159 C   0  0  0  0  0  0  0  0  0  0  0  0
    8.2795  -13.2897   26.8538 C   0  0  1  0  0  0  0  0  0  0  0  0
    8.7684  -14.1021   28.0152 C   0  0  0  0  0  0  0  0  0  0  0  0
    9.5251  -13.5359   28.8416 O   0  0  0  0  0  0  0  0  0  0  0  0
    8.4305  -15.4126   28.2126 O   0  0  0  0  0  0  0  0  0  0  0  0
  1  2  1  0
  2  3  1  0
  3  5  1  0
  3  4  1  6
  5  6  2  0
  8  7  1  0
  8 10  1  0
  9  8  2  0
 10 11  1  0
 12 11  1  1
 12 14  1  0
 13 12  1  0
 13  5  1  0
 14 15  2  0
 14 16  1  0
 16 20  1  0
 17 16  1  0
 18 19  1  0
 18 17  1  0
 19 20  1  0
 20 21  1  1
 21 22  2  0
 21 23  1  0
M  END
$$$$
