SQP.pdb
     RDKit          3D

 23 23  0  0  1  0  0  0  0  0999 V2000
    9.9507  -13.3242   20.8301 O   0  0  0  0  0  0  0  0  0  0  0  0
    8.8995  -12.9582   20.0250 C   0  0  0  0  0  0  0  0  0  0  0  0
    7.8473  -14.0391   20.0627 C   0  0  2  0  0  0  0  0  0  0  0  0
    6.7913  -13.6652   19.1467 N   0  0  0  0  0  0  0  0  0  0  0  0
    7.3434  -14.2276   21.4487 C   0  0  0  0  0  0  0  0  0  0  0  0
    6.4883  -13.3982   21.8537 O   0  0  0  0  0  0  0  0  0  0  0  0
    7.6394  -19.4006   25.0070 N   0  0  0  0  0  0  0  0  0  0  0  0
    6.9740  -18.4656   25.8330 C   0  0  0  0  0  0  0  0  0  0  0  0
    6.6196  -18.8000   26.9787 O   0  0  0  0  0  0  0  0  0  0  0  0
    6.7080  -17.1047   25.3260 C   0  0  0  0  0  0  0  0  0  0  0  0
    7.2072  -16.9593   23.8890 C   0  0  0  0  0  0  0  0  0  0  0  0
    7.2493  -15.4409   23.6385 C   0  0  2  0  0  0  0  0  0  0  0  0
    7.7950  -15.2780   22.2728 N   0  0  0  0  0  0  0  0  0  0  0  0
    8.1389  -14.8094   24.6224 C   0  0  0  0  0  0  0  0  0  0  0  0
    9.3824  -15.1305   24.5568 O   0  0  0  0  0  0  0  0  0  0  0  0
    7.7488  -13.8868   25.6243 N   0  0  0  0  0  0  0  0  0  0  0  0
    6.3832  -13.3163   25.6207 C   0  0  0  0  0  0  0  0  0  0  0  0
    6.6208  -11.9319   26.2333 C   0  0  0  0  0  0  0  0  0  0  0  0
    7.5592  -12.3102   27.3441 C   0  0  0  0  0  0  0  0  0  0  0  0
    8.4681  -13.3352   26.7202 C   0  0  1  0  0  0  0  0  0  0  0  0
    8.8429  -14.3755   27.7326 C   0  0  0  0  0  0  0  0  0  0  0  0
    8.2199  -15.4649   27.7029 O   0  0  0  0  0  0  0  0  0  0  0  0
    9.8200  -14.1940   28.6723 O   0  0  0  0  0  0  0  0  0  0  0  0
  1  2  1  0
  2  3  1  0
  3  5  1  0
  3  4  1  6
  5  6  2  0
  8  7  1  0
  8 10  1  0
  9  8  2  0
 10 11  1  0
 12 11  1  1
 12 14  1  0
 13 12  1  0
 13  5  1  0
 14 15  2  0
 14 16  1  0
 16 20  1  0
 17 16  1  0
 18 19  1  0
 18 17  1  0
 19 20  1  0
 20 21  1  1
 21 22  2  0
 21 23  1  0
M  END
$$$$
