TQN.pdb
     RDKit          3D

 25 24  0  0  1  0  0  0  0  0999 V2000
   25.0122  -10.9663  -19.4799 C   0  0  0  0  0  0  0  0  0  0  0  0
   24.8484  -11.8840  -18.2948 C   0  0  1  0  0  0  0  0  0  0  0  0
   25.8884  -12.8001  -18.3079 O   0  0  0  0  0  0  0  0  0  0  0  0
   24.7281  -11.1493  -16.9956 C   0  0  2  0  0  0  0  0  0  0  0  0
   24.8350  -12.0554  -15.8975 N   0  0  0  0  0  0  0  0  0  0  0  0
   23.4927  -10.3143  -16.9229 C   0  0  0  0  0  0  0  0  0  0  0  0
   23.4057   -9.3475  -17.7003 O   0  0  0  0  0  0  0  0  0  0  0  0
   17.8141  -12.2674  -14.9667 N   0  0  0  0  0  0  0  0  0  0  0  0
   17.6072  -10.8733  -15.0964 C   0  0  0  0  0  0  0  0  0  0  0  0
   16.4631  -10.3831  -14.9806 O   0  0  0  0  0  0  0  0  0  0  0  0
   18.7521   -9.9742  -15.3725 C   0  0  0  0  0  0  0  0  0  0  0  0
   20.0212  -10.7573  -15.4737 C   0  0  0  0  0  0  0  0  0  0  0  0
   21.2424   -9.9103  -15.7694 C   0  0  2  0  0  0  0  0  0  0  0  0
   22.4545  -10.5959  -16.0142 N   0  0  0  0  0  0  0  0  0  0  0  0
   21.2857   -8.7615  -14.8813 C   0  0  0  0  0  0  0  0  0  0  0  0
   21.8553   -8.7732  -13.7549 O   0  0  0  0  0  0  0  0  0  0  0  0
   21.3196   -3.8098  -13.3462 N   0  0  0  0  0  0  0  0  0  0  0  0
   22.3065   -4.3989  -14.1633 C   0  0  0  0  0  0  0  0  0  0  0  0
   23.3760   -3.7816  -14.3397 O   0  0  0  0  0  0  0  0  0  0  0  0
   22.0684   -5.7004  -14.7813 C   0  0  0  0  0  0  0  0  0  0  0  0
   20.7477   -6.3223  -14.4311 C   0  0  2  0  0  0  0  0  0  0  0  0
   20.6679   -7.5429  -15.2607 N   0  0  0  0  0  0  0  0  0  0  0  0
   19.5816   -5.5022  -14.8424 C   0  0  0  0  0  0  0  0  0  0  0  0
   19.0926   -5.6023  -15.9991 O   0  0  0  0  0  0  0  0  0  0  0  0
   18.9462   -4.5784  -14.0079 O   0  0  0  0  0  0  0  0  0  0  0  0
  2  3  1  0
  2  1  1  6
  4  2  1  0
  4  5  1  1
  6  4  1  0
  6 14  1  0
  7  6  2  0
  9 10  2  0
  9  8  1  0
 11  9  1  0
 12 11  1  0
 13 12  1  1
 13 14  1  0
 15 22  1  0
 15 13  1  0
 16 15  2  0
 18 20  1  0
 18 17  1  0
 19 18  2  0
 21 22  1  0
 21 20  1  6
 23 21  1  0
 24 23  2  0
 25 23  1  0
M  END
$$$$
