TQN.pdb
     RDKit          3D

 25 24  0  0  1  0  0  0  0  0999 V2000
   18.7818  -11.6571  -14.7940 C   0  0  0  0  0  0  0  0  0  0  0  0
   17.4558  -11.6400  -15.5116 C   0  0  1  0  0  0  0  0  0  0  0  0
   17.1926  -12.9220  -15.9682 O   0  0  0  0  0  0  0  0  0  0  0  0
   16.3464  -11.0721  -14.6816 C   0  0  2  0  0  0  0  0  0  0  0  0
   15.0951  -11.2171  -15.3534 N   0  0  0  0  0  0  0  0  0  0  0  0
   16.6066   -9.6617  -14.2670 C   0  0  0  0  0  0  0  0  0  0  0  0
   16.6580   -8.7995  -15.1619 O   0  0  0  0  0  0  0  0  0  0  0  0
   15.7291   -7.1203   -8.4967 N   0  0  0  0  0  0  0  0  0  0  0  0
   16.6642   -6.2180   -9.0576 C   0  0  0  0  0  0  0  0  0  0  0  0
   17.0379   -5.2078   -8.4233 O   0  0  0  0  0  0  0  0  0  0  0  0
   17.2138   -6.4630  -10.4118 C   0  0  0  0  0  0  0  0  0  0  0  0
   16.6735   -7.7381  -10.9740 C   0  0  0  0  0  0  0  0  0  0  0  0
   17.2168   -8.0819  -12.3462 C   0  0  2  0  0  0  0  0  0  0  0  0
   16.7896   -9.3026  -12.9178 N   0  0  0  0  0  0  0  0  0  0  0  0
   18.6315   -7.7608  -12.4227 C   0  0  0  0  0  0  0  0  0  0  0  0
   19.5213   -8.3759  -11.7720 O   0  0  0  0  0  0  0  0  0  0  0  0
   23.1634   -6.7586  -15.0835 N   0  0  0  0  0  0  0  0  0  0  0  0
   22.0441   -5.9462  -15.3591 C   0  0  0  0  0  0  0  0  0  0  0  0
   22.2262   -4.8728  -15.9677 O   0  0  0  0  0  0  0  0  0  0  0  0
   20.7104   -6.3644  -14.9362 C   0  0  0  0  0  0  0  0  0  0  0  0
   20.5132   -6.4010  -13.4484 C   0  0  2  0  0  0  0  0  0  0  0  0
   19.0798   -6.7080  -13.2602 N   0  0  0  0  0  0  0  0  0  0  0  0
   20.7125   -5.0844  -12.7940 C   0  0  0  0  0  0  0  0  0  0  0  0
   19.7851   -4.2328  -12.7520 O   0  0  0  0  0  0  0  0  0  0  0  0
   21.9081   -4.6895  -12.1872 O   0  0  0  0  0  0  0  0  0  0  0  0
  2  3  1  0
  2  1  1  1
  4  2  1  0
  4  5  1  6
  6  4  1  0
  6 14  1  0
  7  6  2  0
  9 10  2  0
  9  8  1  0
 11  9  1  0
 12 11  1  0
 13 12  1  1
 13 14  1  0
 15 22  1  0
 15 13  1  0
 16 15  2  0
 18 20  1  0
 18 17  1  0
 19 18  2  0
 21 22  1  0
 21 20  1  6
 23 21  1  0
 24 23  2  0
 25 23  1  0
M  END
$$$$
