TQN.pdb
     RDKit          3D

 25 24  0  0  1  0  0  0  0  0999 V2000
   16.6226   -9.4026  -17.2301 C   0  0  0  0  0  0  0  0  0  0  0  0
   16.5833  -10.6234  -16.3462 C   0  0  1  0  0  0  0  0  0  0  0  0
   15.4856  -11.3877  -16.7097 O   0  0  0  0  0  0  0  0  0  0  0  0
   17.8662  -11.3956  -16.3543 C   0  0  2  0  0  0  0  0  0  0  0  0
   17.6973  -12.6523  -15.6985 N   0  0  0  0  0  0  0  0  0  0  0  0
   19.0081  -10.6135  -15.7947 C   0  0  0  0  0  0  0  0  0  0  0  0
   18.7415   -9.6990  -14.9951 O   0  0  0  0  0  0  0  0  0  0  0  0
   25.1804  -12.2022  -16.6538 N   0  0  0  0  0  0  0  0  0  0  0  0
   25.2803  -10.9553  -15.9914 C   0  0  0  0  0  0  0  0  0  0  0  0
   26.3926  -10.5033  -15.6437 O   0  0  0  0  0  0  0  0  0  0  0  0
   24.0592  -10.1676  -15.7013 C   0  0  0  0  0  0  0  0  0  0  0  0
   22.8414  -10.8970  -16.1690 C   0  0  0  0  0  0  0  0  0  0  0  0
   21.5388  -10.2223  -15.7887 C   0  0  2  0  0  0  0  0  0  0  0  0
   20.3436  -10.8870  -16.1476 N   0  0  0  0  0  0  0  0  0  0  0  0
   21.6182   -8.7943  -16.0432 C   0  0  0  0  0  0  0  0  0  0  0  0
   21.4222   -8.2774  -17.1781 O   0  0  0  0  0  0  0  0  0  0  0  0
   21.1211   -3.7429  -15.1030 N   0  0  0  0  0  0  0  0  0  0  0  0
   20.1282   -4.6902  -15.4276 C   0  0  0  0  0  0  0  0  0  0  0  0
   18.9787   -4.2797  -15.6847 O   0  0  0  0  0  0  0  0  0  0  0  0
   20.4524   -6.1137  -15.4582 C   0  0  0  0  0  0  0  0  0  0  0  0
   21.8891   -6.4305  -15.1596 C   0  0  2  0  0  0  0  0  0  0  0  0
   21.9296   -7.8981  -14.9895 N   0  0  0  0  0  0  0  0  0  0  0  0
   22.3575   -5.8812  -13.8633 C   0  0  0  0  0  0  0  0  0  0  0  0
   22.2769   -6.5579  -12.8038 O   0  0  0  0  0  0  0  0  0  0  0  0
   22.9111   -4.6067  -13.7122 O   0  0  0  0  0  0  0  0  0  0  0  0
  2  3  1  0
  2  1  1  6
  4  2  1  0
  4  5  1  1
  6  4  1  0
  6 14  1  0
  7  6  2  0
  9 10  2  0
  9  8  1  0
 11  9  1  0
 12 11  1  0
 13 12  1  6
 13 14  1  0
 15 22  1  0
 15 13  1  0
 16 15  2  0
 18 20  1  0
 18 17  1  0
 19 18  2  0
 21 22  1  0
 21 20  1  1
 23 21  1  0
 24 23  2  0
 25 23  1  0
M  END
$$$$
