TQN.pdb
     RDKit          3D

 25 24  0  0  1  0  0  0  0  0999 V2000
   18.1868  -11.0059  -16.7280 C   0  0  0  0  0  0  0  0  0  0  0  0
   18.8980  -12.1755  -16.0958 C   0  0  1  0  0  0  0  0  0  0  0  0
   18.0929  -13.2960  -16.2273 O   0  0  0  0  0  0  0  0  0  0  0  0
   20.2818  -12.3796  -16.6301 C   0  0  2  0  0  0  0  0  0  0  0  0
   20.7304  -13.7080  -16.3612 N   0  0  0  0  0  0  0  0  0  0  0  0
   21.2424  -11.3472  -16.1399 C   0  0  0  0  0  0  0  0  0  0  0  0
   20.7809  -10.4008  -15.4780 O   0  0  0  0  0  0  0  0  0  0  0  0
   27.6375  -11.7527  -16.8961 N   0  0  0  0  0  0  0  0  0  0  0  0
   27.4805  -10.5537  -16.1605 C   0  0  0  0  0  0  0  0  0  0  0  0
   28.4769   -9.9178  -15.7538 O   0  0  0  0  0  0  0  0  0  0  0  0
   26.1243  -10.0363  -15.8628 C   0  0  0  0  0  0  0  0  0  0  0  0
   25.0808  -10.9851  -16.3577 C   0  0  0  0  0  0  0  0  0  0  0  0
   23.6607  -10.5052  -16.1352 C   0  0  2  0  0  0  0  0  0  0  0  0
   22.6226  -11.4257  -16.4076 N   0  0  0  0  0  0  0  0  0  0  0  0
   23.5045   -9.1479  -16.6291 C   0  0  0  0  0  0  0  0  0  0  0  0
   23.6758   -8.8224  -17.8367 O   0  0  0  0  0  0  0  0  0  0  0  0
   20.9337   -5.2217  -18.7908 N   0  0  0  0  0  0  0  0  0  0  0  0
   20.9256   -5.6883  -17.4600 C   0  0  0  0  0  0  0  0  0  0  0  0
   20.3179   -5.0188  -16.6008 O   0  0  0  0  0  0  0  0  0  0  0  0
   21.6161   -6.9268  -17.1111 C   0  0  0  0  0  0  0  0  0  0  0  0
   22.8056   -6.7436  -16.2139 C   0  0  2  0  0  0  0  0  0  0  0  0
   23.1415   -8.1033  -15.7418 N   0  0  0  0  0  0  0  0  0  0  0  0
   22.5029   -5.9739  -14.9821 C   0  0  0  0  0  0  0  0  0  0  0  0
   22.4214   -4.7169  -15.0051 O   0  0  0  0  0  0  0  0  0  0  0  0
   22.2885   -6.5592  -13.7312 O   0  0  0  0  0  0  0  0  0  0  0  0
  2  3  1  0
  2  1  1  6
  4  2  1  0
  4  5  1  1
  6  4  1  0
  6 14  1  0
  7  6  2  0
  9 10  2  0
  9  8  1  0
 11  9  1  0
 12 11  1  0
 13 12  1  6
 13 14  1  0
 15 22  1  0
 15 13  1  0
 16 15  2  0
 18 20  1  0
 18 17  1  0
 19 18  2  0
 21 22  1  0
 21 20  1  6
 23 21  1  0
 24 23  2  0
 25 23  1  0
M  END
$$$$
