TQN.pdb
     RDKit          3D

 25 24  0  0  1  0  0  0  0  0999 V2000
   15.0779   -8.9674  -15.0420 C   0  0  0  0  0  0  0  0  0  0  0  0
   15.6290   -9.5895  -16.3000 C   0  0  1  0  0  0  0  0  0  0  0  0
   16.1458   -8.5780  -17.0943 O   0  0  0  0  0  0  0  0  0  0  0  0
   16.6123  -10.6862  -16.0306 C   0  0  2  0  0  0  0  0  0  0  0  0
   15.9920  -11.7456  -15.3020 N   0  0  0  0  0  0  0  0  0  0  0  0
   17.8530  -10.1909  -15.3641 C   0  0  0  0  0  0  0  0  0  0  0  0
   17.7595   -9.8130  -14.1829 O   0  0  0  0  0  0  0  0  0  0  0  0
   23.8492  -11.7118  -16.7130 N   0  0  0  0  0  0  0  0  0  0  0  0
   23.9812  -10.7481  -15.6848 C   0  0  0  0  0  0  0  0  0  0  0  0
   25.0812  -10.5604  -15.1216 O   0  0  0  0  0  0  0  0  0  0  0  0
   22.8089   -9.9462  -15.2624 C   0  0  0  0  0  0  0  0  0  0  0  0
   21.5743  -10.4129  -15.9637 C   0  0  0  0  0  0  0  0  0  0  0  0
   20.3343   -9.6123  -15.6203 C   0  0  2  0  0  0  0  0  0  0  0  0
   19.0916  -10.1461  -16.0324 N   0  0  0  0  0  0  0  0  0  0  0  0
   20.5690   -8.1971  -15.8497 C   0  0  0  0  0  0  0  0  0  0  0  0
   20.7004   -7.6903  -16.9983 O   0  0  0  0  0  0  0  0  0  0  0  0
   20.8265   -3.0615  -14.8455 N   0  0  0  0  0  0  0  0  0  0  0  0
   19.6089   -3.7456  -14.6504 C   0  0  0  0  0  0  0  0  0  0  0  0
   18.5732   -3.0735  -14.4725 O   0  0  0  0  0  0  0  0  0  0  0  0
   19.5765   -5.2055  -14.6590 C   0  0  0  0  0  0  0  0  0  0  0  0
   20.9024   -5.8550  -14.9303 C   0  0  2  0  0  0  0  0  0  0  0  0
   20.6624   -7.3026  -14.7534 N   0  0  0  0  0  0  0  0  0  0  0  0
   21.9427   -5.5137  -13.9290 C   0  0  0  0  0  0  0  0  0  0  0  0
   22.4187   -4.3494  -13.8577 O   0  0  0  0  0  0  0  0  0  0  0  0
   22.4663   -6.4257  -13.0083 O   0  0  0  0  0  0  0  0  0  0  0  0
  2  3  1  0
  2  1  1  1
  4  2  1  0
  4  5  1  1
  6  4  1  0
  6 14  1  0
  7  6  2  0
  9 10  2  0
  9  8  1  0
 11  9  1  0
 12 11  1  0
 13 12  1  6
 13 14  1  0
 15 22  1  0
 15 13  1  0
 16 15  2  0
 18 20  1  0
 18 17  1  0
 19 18  2  0
 21 22  1  0
 21 20  1  1
 23 21  1  0
 24 23  2  0
 25 23  1  0
M  END
$$$$
