TQN.pdb
     RDKit          3D

 25 24  0  0  1  0  0  0  0  0999 V2000
   15.8478   -9.7947  -16.3743 C   0  0  0  0  0  0  0  0  0  0  0  0
   15.8507  -11.1155  -15.6471 C   0  0  1  0  0  0  0  0  0  0  0  0
   14.5939  -11.6853  -15.7766 O   0  0  0  0  0  0  0  0  0  0  0  0
   16.9567  -12.0247  -16.0857 C   0  0  2  0  0  0  0  0  0  0  0  0
   16.8088  -13.3142  -15.4914 N   0  0  0  0  0  0  0  0  0  0  0  0
   18.3085  -11.4401  -15.8416 C   0  0  0  0  0  0  0  0  0  0  0  0
   18.6491  -11.2529  -14.6602 O   0  0  0  0  0  0  0  0  0  0  0  0
   23.1658  -11.4151  -19.9538 N   0  0  0  0  0  0  0  0  0  0  0  0
   22.7800  -12.4669  -19.0888 C   0  0  0  0  0  0  0  0  0  0  0  0
   23.2236  -13.6241  -19.2518 O   0  0  0  0  0  0  0  0  0  0  0  0
   21.8401  -12.2055  -17.9736 C   0  0  0  0  0  0  0  0  0  0  0  0
   21.4062  -10.7752  -17.9780 C   0  0  0  0  0  0  0  0  0  0  0  0
   20.4201  -10.4302  -16.8801 C   0  0  2  0  0  0  0  0  0  0  0  0
   19.1787  -11.1068  -16.8972 N   0  0  0  0  0  0  0  0  0  0  0  0
   20.4025   -8.9957  -16.6514 C   0  0  0  0  0  0  0  0  0  0  0  0
   19.5923   -8.2103  -17.2173 O   0  0  0  0  0  0  0  0  0  0  0  0
   21.6953   -4.4394  -14.2817 N   0  0  0  0  0  0  0  0  0  0  0  0
   22.0703   -5.5511  -13.4993 C   0  0  0  0  0  0  0  0  0  0  0  0
   22.5249   -5.3451  -12.3561 O   0  0  0  0  0  0  0  0  0  0  0  0
   21.9243   -6.9046  -14.0276 C   0  0  0  0  0  0  0  0  0  0  0  0
   21.2609   -6.9787  -15.3722 C   0  0  2  0  0  0  0  0  0  0  0  0
   21.3271   -8.4052  -15.7531 N   0  0  0  0  0  0  0  0  0  0  0  0
   22.0046   -6.2623  -16.4376 C   0  0  0  0  0  0  0  0  0  0  0  0
   23.0308   -6.7676  -16.9656 O   0  0  0  0  0  0  0  0  0  0  0  0
   21.6413   -5.0061  -16.9309 O   0  0  0  0  0  0  0  0  0  0  0  0
  2  3  1  0
  2  1  1  6
  4  2  1  0
  4  5  1  1
  6  4  1  0
  6 14  1  0
  7  6  2  0
  9 10  2  0
  9  8  1  0
 11  9  1  0
 12 11  1  0
 13 12  1  6
 13 14  1  0
 15 22  1  0
 15 13  1  0
 16 15  2  0
 18 20  1  0
 18 17  1  0
 19 18  2  0
 21 22  1  0
 21 20  1  1
 23 21  1  0
 24 23  2  0
 25 23  1  0
M  END
$$$$
