TQN.pdb
     RDKit          3D

 25 24  0  0  1  0  0  0  0  0999 V2000
   25.7389  -22.0008  -14.7051 C   0  0  0  0  0  0  0  0  0  0  0  0
   25.5257  -21.9082  -13.2153 C   0  0  1  0  0  0  0  0  0  0  0  0
   26.0715  -23.0385  -12.6275 O   0  0  0  0  0  0  0  0  0  0  0  0
   26.0417  -20.6317  -12.6266 C   0  0  2  0  0  0  0  0  0  0  0  0
   25.9711  -20.6743  -11.2014 N   0  0  0  0  0  0  0  0  0  0  0  0
   25.3651  -19.4268  -13.1915 C   0  0  0  0  0  0  0  0  0  0  0  0
   24.2153  -19.1724  -12.7915 O   0  0  0  0  0  0  0  0  0  0  0  0
   26.4286  -14.4092  -17.1864 N   0  0  0  0  0  0  0  0  0  0  0  0
   26.6956  -14.2387  -15.8069 C   0  0  0  0  0  0  0  0  0  0  0  0
   26.9263  -13.1042  -15.3357 O   0  0  0  0  0  0  0  0  0  0  0  0
   26.7045  -15.4111  -14.9009 C   0  0  0  0  0  0  0  0  0  0  0  0
   26.4285  -16.6660  -15.6645 C   0  0  0  0  0  0  0  0  0  0  0  0
   25.4472  -17.5966  -14.9807 C   0  0  2  0  0  0  0  0  0  0  0  0
   25.9901  -18.5977  -14.1427 N   0  0  0  0  0  0  0  0  0  0  0  0
   24.3968  -17.9881  -15.9047 C   0  0  0  0  0  0  0  0  0  0  0  0
   24.4822  -18.9853  -16.6739 O   0  0  0  0  0  0  0  0  0  0  0  0
   19.5643  -18.3793  -17.8660 N   0  0  0  0  0  0  0  0  0  0  0  0
   19.8644  -18.7759  -16.5465 C   0  0  0  0  0  0  0  0  0  0  0  0
   19.0423  -19.4928  -15.9414 O   0  0  0  0  0  0  0  0  0  0  0  0
   21.1111  -18.3500  -15.9165 C   0  0  0  0  0  0  0  0  0  0  0  0
   22.0617  -17.6408  -16.8367 C   0  0  2  0  0  0  0  0  0  0  0  0
   23.1957  -17.2381  -15.9786 N   0  0  0  0  0  0  0  0  0  0  0  0
   21.5209  -16.3699  -17.3788 C   0  0  0  0  0  0  0  0  0  0  0  0
   21.9333  -15.2564  -16.9578 O   0  0  0  0  0  0  0  0  0  0  0  0
   20.5394  -16.3020  -18.3715 O   0  0  0  0  0  0  0  0  0  0  0  0
  2  3  1  0
  2  1  1  6
  4  2  1  0
  4  5  1  1
  6  4  1  0
  6 14  1  0
  7  6  2  0
  9 10  2  0
  9  8  1  0
 11  9  1  0
 12 11  1  0
 13 12  1  6
 13 14  1  0
 15 22  1  0
 15 13  1  0
 16 15  2  0
 18 20  1  0
 18 17  1  0
 19 18  2  0
 21 22  1  0
 21 20  1  1
 23 21  1  0
 24 23  2  0
 25 23  1  0
M  END
$$$$
