TQN.pdb
     RDKit          3D

 25 24  0  0  1  0  0  0  0  0999 V2000
   26.7132  -14.5225  -15.1477 C   0  0  0  0  0  0  0  0  0  0  0  0
   27.2859  -15.5319  -16.1102 C   0  0  1  0  0  0  0  0  0  0  0  0
   27.2559  -16.7772  -15.5024 O   0  0  0  0  0  0  0  0  0  0  0  0
   26.6141  -15.5142  -17.4483 C   0  0  2  0  0  0  0  0  0  0  0  0
   27.0393  -16.6265  -18.2357 N   0  0  0  0  0  0  0  0  0  0  0  0
   26.7926  -14.2144  -18.1608 C   0  0  0  0  0  0  0  0  0  0  0  0
   27.7841  -14.0966  -18.9021 O   0  0  0  0  0  0  0  0  0  0  0  0
   22.2353   -9.9131  -19.3051 N   0  0  0  0  0  0  0  0  0  0  0  0
   23.4039   -9.2281  -19.7156 C   0  0  0  0  0  0  0  0  0  0  0  0
   23.3283   -8.1110  -20.2714 O   0  0  0  0  0  0  0  0  0  0  0  0
   24.7379   -9.8321  -19.4894 C   0  0  0  0  0  0  0  0  0  0  0  0
   24.6040  -11.1689  -18.8345 C   0  0  0  0  0  0  0  0  0  0  0  0
   25.9293  -11.8294  -18.5123 C   0  0  2  0  0  0  0  0  0  0  0  0
   25.8823  -13.1506  -18.0109 N   0  0  0  0  0  0  0  0  0  0  0  0
   26.8130  -10.8874  -17.8474 C   0  0  0  0  0  0  0  0  0  0  0  0
   26.8085  -10.6893  -16.6007 O   0  0  0  0  0  0  0  0  0  0  0  0
   32.3460  -10.2090  -17.1081 N   0  0  0  0  0  0  0  0  0  0  0  0
   31.0756   -9.6000  -17.0461 C   0  0  0  0  0  0  0  0  0  0  0  0
   30.9626   -8.5268  -16.4205 O   0  0  0  0  0  0  0  0  0  0  0  0
   29.9294  -10.2221  -17.7031 C   0  0  0  0  0  0  0  0  0  0  0  0
   28.7820   -9.2902  -17.9650 C   0  0  2  0  0  0  0  0  0  0  0  0
   27.7451  -10.1298  -18.6009 N   0  0  0  0  0  0  0  0  0  0  0  0
   29.0916   -8.2395  -18.9659 C   0  0  0  0  0  0  0  0  0  0  0  0
   29.1209   -8.5038  -20.1973 O   0  0  0  0  0  0  0  0  0  0  0  0
   29.3678   -6.9092  -18.6381 O   0  0  0  0  0  0  0  0  0  0  0  0
  2  3  1  0
  2  1  1  1
  4  2  1  0
  4  5  1  6
  6  4  1  0
  6 14  1  0
  7  6  2  0
  9 10  2  0
  9  8  1  0
 11  9  1  0
 12 11  1  0
 13 12  1  1
 13 14  1  0
 15 22  1  0
 15 13  1  0
 16 15  2  0
 18 20  1  0
 18 17  1  0
 19 18  2  0
 21 22  1  0
 21 20  1  6
 23 21  1  0
 24 23  2  0
 25 23  1  0
M  END
$$$$
