HSA.pdb
     RDKit          3D

 22 22  0  0  1  0  0  0  0  0999 V2000
   14.2340  -16.0740   14.6622 N   0  0  0  0  0  0  0  0  0  0  0  0
   13.4926  -17.0299   15.4247 C   0  0  1  0  0  0  0  0  0  0  0  0
   14.4683  -18.0459   15.9819 C   0  0  0  0  0  0  0  0  0  0  0  0
   14.7782  -18.9975   14.8708 C   0  0  0  0  0  0  0  0  0  0  0  0
   13.9013  -19.9260   14.3778 C   0  0  0  0  0  0  0  0  0  0  0  0
   14.5445  -20.5924   13.3860 N   0  0  0  0  0  0  0  0  0  0  0  0
   15.7881  -20.1056   13.2517 C   0  0  0  0  0  0  0  0  0  0  0  0
   15.9146  -19.1310   14.1672 N   0  0  0  0  0  0  0  0  0  0  0  0
   12.8133  -16.4053   16.6064 C   0  0  0  0  0  0  0  0  0  0  0  0
   13.5183  -15.7864   17.4445 O   0  0  0  0  0  0  0  0  0  0  0  0
    8.7227  -16.8868   17.2783 O   0  0  0  0  0  0  0  0  0  0  0  0
    9.3285  -15.6954   17.6110 C   0  0  0  0  0  0  0  0  0  0  0  0
   10.7939  -15.8447   17.9711 C   0  0  2  0  0  0  0  0  0  0  0  0
   11.4257  -16.4808   16.8186 N   0  0  0  0  0  0  0  0  0  0  0  0
   10.9907  -16.6443   19.1993 C   0  0  0  0  0  0  0  0  0  0  0  0
   11.3132  -17.8568   19.1420 O   0  0  0  0  0  0  0  0  0  0  0  0
   10.8395  -15.9769   22.8868 C   0  0  0  0  0  0  0  0  0  0  0  0
   11.0710  -16.8554   21.6662 C   0  0  2  0  0  0  0  0  0  0  0  0
   10.8136  -16.0366   20.4719 N   0  0  0  0  0  0  0  0  0  0  0  0
   10.1882  -18.0468   21.6809 C   0  0  0  0  0  0  0  0  0  0  0  0
   10.4845  -19.2302   22.3365 O   0  0  0  0  0  0  0  0  0  0  0  0
    9.1005  -17.9742   21.0565 O   0  0  0  0  0  0  0  0  0  0  0  0
  2  1  1  1
  3  2  1  0
  4  3  1  0
  4  5  2  0
  6  5  1  0
  7  6  1  0
  8  7  2  0
  8  4  1  0
  9  2  1  0
  9 14  1  0
 10  9  2  0
 11 12  1  0
 13 14  1  0
 13 12  1  6
 13 15  1  0
 15 19  1  0
 15 16  2  0
 18 17  1  1
 18 20  1  0
 19 18  1  0
 20 21  1  0
 22 20  2  0
M  END
$$$$
