HSA.pdb
     RDKit          3D

 22 22  0  0  1  0  0  0  0  0999 V2000
   10.6176  -16.1659   16.3165 N   0  0  0  0  0  0  0  0  0  0  0  0
   10.5889  -16.8494   17.5722 C   0  0  1  0  0  0  0  0  0  0  0  0
   12.0081  -16.9325   18.0951 C   0  0  0  0  0  0  0  0  0  0  0  0
   12.7063  -17.9722   17.2780 C   0  0  0  0  0  0  0  0  0  0  0  0
   13.7499  -17.7194   16.4288 C   0  0  0  0  0  0  0  0  0  0  0  0
   14.1079  -18.9055   15.8754 N   0  0  0  0  0  0  0  0  0  0  0  0
   13.3199  -19.8803   16.3550 C   0  0  0  0  0  0  0  0  0  0  0  0
   12.4684  -19.2925   17.2115 N   0  0  0  0  0  0  0  0  0  0  0  0
    9.8020  -16.1000   18.6052 C   0  0  0  0  0  0  0  0  0  0  0  0
   10.0387  -14.8750   18.7663 O   0  0  0  0  0  0  0  0  0  0  0  0
    6.6071  -17.8723   20.6249 O   0  0  0  0  0  0  0  0  0  0  0  0
    6.6389  -16.5250   20.3405 C   0  0  0  0  0  0  0  0  0  0  0  0
    8.0360  -15.9362   20.3686 C   0  0  2  0  0  0  0  0  0  0  0  0
    8.8131  -16.7048   19.4004 N   0  0  0  0  0  0  0  0  0  0  0  0
    8.6440  -15.9994   21.7150 C   0  0  0  0  0  0  0  0  0  0  0  0
    9.4714  -16.8957   22.0142 O   0  0  0  0  0  0  0  0  0  0  0  0
    8.3951  -13.9905   24.8716 C   0  0  0  0  0  0  0  0  0  0  0  0
    8.8575  -15.1799   24.0430 C   0  0  2  0  0  0  0  0  0  0  0  0
    8.2908  -15.0314   22.6940 N   0  0  0  0  0  0  0  0  0  0  0  0
    8.4276  -16.4628   24.6501 C   0  0  0  0  0  0  0  0  0  0  0  0
    7.4464  -17.2860   24.1231 O   0  0  0  0  0  0  0  0  0  0  0  0
    8.9931  -16.8236   25.7123 O   0  0  0  0  0  0  0  0  0  0  0  0
  2  1  1  6
  3  2  1  0
  4  3  1  0
  4  5  2  0
  6  5  1  0
  7  6  1  0
  8  7  2  0
  8  4  1  0
  9  2  1  0
  9 14  1  0
 10  9  2  0
 11 12  1  0
 13 14  1  0
 13 12  1  1
 13 15  1  0
 15 19  1  0
 15 16  2  0
 18 17  1  1
 18 20  1  0
 19 18  1  0
 20 21  1  0
 22 20  2  0
M  END
$$$$
