HSA.pdb
     RDKit          3D

 22 22  0  0  1  0  0  0  0  0999 V2000
    8.9841  -16.4833   20.1176 N   0  0  0  0  0  0  0  0  0  0  0  0
    9.7093  -16.8960   21.2789 C   0  0  1  0  0  0  0  0  0  0  0  0
   11.1540  -16.4747   21.1057 C   0  0  0  0  0  0  0  0  0  0  0  0
   11.7954  -17.4952   20.2206 C   0  0  0  0  0  0  0  0  0  0  0  0
   11.4473  -18.8187   20.1842 C   0  0  0  0  0  0  0  0  0  0  0  0
   12.2485  -19.4149   19.2655 N   0  0  0  0  0  0  0  0  0  0  0  0
   13.0783  -18.5032   18.7348 C   0  0  0  0  0  0  0  0  0  0  0  0
   12.7879  -17.3346   19.3299 N   0  0  0  0  0  0  0  0  0  0  0  0
    9.2182  -16.2170   22.5222 C   0  0  0  0  0  0  0  0  0  0  0  0
    9.0910  -14.9655   22.5109 O   0  0  0  0  0  0  0  0  0  0  0  0
    7.7804  -18.4451   25.7265 O   0  0  0  0  0  0  0  0  0  0  0  0
    7.2419  -17.2268   25.3762 C   0  0  0  0  0  0  0  0  0  0  0  0
    8.2663  -16.2486   24.8348 C   0  0  2  0  0  0  0  0  0  0  0  0
    8.8942  -16.9161   23.6980 N   0  0  0  0  0  0  0  0  0  0  0  0
    9.2688  -15.8662   25.8523 C   0  0  0  0  0  0  0  0  0  0  0  0
   10.4127  -16.3845   25.8661 O   0  0  0  0  0  0  0  0  0  0  0  0
    9.4809  -13.3123   28.5792 C   0  0  0  0  0  0  0  0  0  0  0  0
    9.9707  -14.5376   27.8218 C   0  0  2  0  0  0  0  0  0  0  0  0
    8.9392  -14.8948   26.8361 N   0  0  0  0  0  0  0  0  0  0  0  0
   10.2300  -15.6737   28.7390 C   0  0  0  0  0  0  0  0  0  0  0  0
   11.3224  -15.7597   29.5860 O   0  0  0  0  0  0  0  0  0  0  0  0
    9.4021  -16.6185   28.7455 O   0  0  0  0  0  0  0  0  0  0  0  0
  2  1  1  6
  3  2  1  0
  4  3  1  0
  4  5  2  0
  6  5  1  0
  7  6  1  0
  8  7  2  0
  8  4  1  0
  9  2  1  0
  9 14  1  0
 10  9  2  0
 11 12  1  0
 13 14  1  0
 13 12  1  1
 13 15  1  0
 15 19  1  0
 15 16  2  0
 18 17  1  1
 18 20  1  0
 19 18  1  0
 20 21  1  0
 22 20  2  0
M  END
$$$$
