HSA.pdb
     RDKit          3D

 22 22  0  0  1  0  0  0  0  0999 V2000
   14.0127  -20.2058   26.1248 N   0  0  0  0  0  0  0  0  0  0  0  0
   15.1062  -20.7918   26.8358 C   0  0  1  0  0  0  0  0  0  0  0  0
   16.3937  -20.2957   26.2106 C   0  0  0  0  0  0  0  0  0  0  0  0
   16.4749  -20.9108   24.8500 C   0  0  0  0  0  0  0  0  0  0  0  0
   15.8602  -22.0797   24.4894 C   0  0  0  0  0  0  0  0  0  0  0  0
   16.1678  -22.3049   23.1871 N   0  0  0  0  0  0  0  0  0  0  0  0
   16.9515  -21.3142   22.7335 C   0  0  0  0  0  0  0  0  0  0  0  0
   17.1295  -20.4701   23.7630 N   0  0  0  0  0  0  0  0  0  0  0  0
   15.1416  -20.3619   28.2717 C   0  0  0  0  0  0  0  0  0  0  0  0
   15.6109  -19.2273   28.5458 O   0  0  0  0  0  0  0  0  0  0  0  0
   12.5349  -21.8328   30.9284 O   0  0  0  0  0  0  0  0  0  0  0  0
   13.1956  -20.6373   31.1047 C   0  0  0  0  0  0  0  0  0  0  0  0
   14.6568  -20.6915   30.7030 C   0  0  2  0  0  0  0  0  0  0  0  0
   14.6743  -21.1693   29.3233 N   0  0  0  0  0  0  0  0  0  0  0  0
   15.4485  -21.5747   31.5860 C   0  0  0  0  0  0  0  0  0  0  0  0
   15.6897  -22.7657   31.2687 O   0  0  0  0  0  0  0  0  0  0  0  0
   17.3498  -21.2231   34.7810 C   0  0  0  0  0  0  0  0  0  0  0  0
   16.5844  -22.0272   33.7405 C   0  0  2  0  0  0  0  0  0  0  0  0
   15.9493  -21.0737   32.8183 N   0  0  0  0  0  0  0  0  0  0  0  0
   15.5643  -22.8987   34.3722 C   0  0  0  0  0  0  0  0  0  0  0  0
   15.8545  -24.0493   35.0863 O   0  0  0  0  0  0  0  0  0  0  0  0
   14.3585  -22.5685   34.2494 O   0  0  0  0  0  0  0  0  0  0  0  0
  2  1  1  6
  3  2  1  0
  4  3  1  0
  4  5  2  0
  6  5  1  0
  7  6  1  0
  8  7  2  0
  8  4  1  0
  9  2  1  0
  9 14  1  0
 10  9  2  0
 11 12  1  0
 13 14  1  0
 13 12  1  1
 13 15  1  0
 15 19  1  0
 15 16  2  0
 18 17  1  1
 18 20  1  0
 19 18  1  0
 20 21  1  0
 22 20  2  0
M  END
$$$$
