HSA.pdb
     RDKit          3D

 22 22  0  0  1  0  0  0  0  0999 V2000
   -4.4378  -27.9038   29.8393 N   0  0  0  0  0  0  0  0  0  0  0  0
   -4.8977  -26.9415   30.7918 C   0  0  1  0  0  0  0  0  0  0  0  0
   -4.4250  -25.5737   30.3445 C   0  0  0  0  0  0  0  0  0  0  0  0
   -2.9312  -25.6287   30.3020 C   0  0  0  0  0  0  0  0  0  0  0  0
   -2.1333  -25.8796   31.3857 C   0  0  0  0  0  0  0  0  0  0  0  0
   -0.8488  -25.8468   30.9493 N   0  0  0  0  0  0  0  0  0  0  0  0
   -0.8287  -25.5841   29.6333 C   0  0  0  0  0  0  0  0  0  0  0  0
   -2.1104  -25.4535   29.2532 N   0  0  0  0  0  0  0  0  0  0  0  0
   -6.3944  -26.8730   30.8477 C   0  0  0  0  0  0  0  0  0  0  0  0
   -7.0237  -26.6419   29.7832 O   0  0  0  0  0  0  0  0  0  0  0  0
   -8.3095  -27.5315   34.4042 O   0  0  0  0  0  0  0  0  0  0  0  0
   -8.9411  -27.9707   33.2617 C   0  0  0  0  0  0  0  0  0  0  0  0
   -8.5801  -27.1676   32.0272 C   0  0  2  0  0  0  0  0  0  0  0  0
   -7.1243  -27.0553   32.0353 N   0  0  0  0  0  0  0  0  0  0  0  0
   -9.2204  -25.8348   32.0183 C   0  0  0  0  0  0  0  0  0  0  0  0
   -8.6629  -24.8412   32.5467 O   0  0  0  0  0  0  0  0  0  0  0  0
  -12.2828  -24.3500   30.4596 C   0  0  0  0  0  0  0  0  0  0  0  0
  -11.0668  -24.3143   31.3735 C   0  0  2  0  0  0  0  0  0  0  0  0
  -10.4902  -25.6670   31.4022 N   0  0  0  0  0  0  0  0  0  0  0  0
  -11.4305  -23.8742   32.7421 C   0  0  0  0  0  0  0  0  0  0  0  0
  -11.7226  -22.5658   33.0898 O   0  0  0  0  0  0  0  0  0  0  0  0
  -11.4757  -24.7486   33.6430 O   0  0  0  0  0  0  0  0  0  0  0  0
  2  1  1  6
  3  2  1  0
  4  3  1  0
  4  5  2  0
  6  5  1  0
  7  6  1  0
  8  7  2  0
  8  4  1  0
  9  2  1  0
  9 14  1  0
 10  9  2  0
 11 12  1  0
 13 14  1  0
 13 12  1  1
 13 15  1  0
 15 19  1  0
 15 16  2  0
 18 17  1  6
 18 20  1  0
 19 18  1  0
 20 21  1  0
 22 20  2  0
M  END
$$$$
