HSA.pdb
     RDKit          3D

 22 22  0  0  1  0  0  0  0  0999 V2000
    8.1434  -14.6144   19.7721 N   0  0  0  0  0  0  0  0  0  0  0  0
    8.9838  -15.2346   20.7488 C   0  0  1  0  0  0  0  0  0  0  0  0
   10.3762  -14.6548   20.6076 C   0  0  0  0  0  0  0  0  0  0  0  0
   11.0770  -15.4699   19.5680 C   0  0  0  0  0  0  0  0  0  0  0  0
   10.5118  -16.5190   18.8940 C   0  0  0  0  0  0  0  0  0  0  0  0
   11.4540  -16.9980   18.0430 N   0  0  0  0  0  0  0  0  0  0  0  0
   12.5803  -16.2793   18.1701 C   0  0  0  0  0  0  0  0  0  0  0  0
   12.3327  -15.3490   19.1068 N   0  0  0  0  0  0  0  0  0  0  0  0
    8.5410  -14.9320   22.1489 C   0  0  0  0  0  0  0  0  0  0  0  0
    8.2048  -13.7526   22.4292 O   0  0  0  0  0  0  0  0  0  0  0  0
    7.7636  -17.9828   24.9410 O   0  0  0  0  0  0  0  0  0  0  0  0
    7.0516  -16.8095   24.8257 C   0  0  0  0  0  0  0  0  0  0  0  0
    7.9143  -15.6136   24.4722 C   0  0  2  0  0  0  0  0  0  0  0  0
    8.4851  -15.9065   23.1605 N   0  0  0  0  0  0  0  0  0  0  0  0
    8.9733  -15.3702   25.4752 C   0  0  0  0  0  0  0  0  0  0  0  0
   10.1640  -15.7060   25.2592 O   0  0  0  0  0  0  0  0  0  0  0  0
    9.3187  -13.4566   28.6382 C   0  0  0  0  0  0  0  0  0  0  0  0
    9.7137  -14.5942   27.7082 C   0  0  2  0  0  0  0  0  0  0  0  0
    8.6454  -14.7449   26.7087 N   0  0  0  0  0  0  0  0  0  0  0  0
    9.9110  -15.8604   28.4544 C   0  0  0  0  0  0  0  0  0  0  0  0
   10.9812  -16.1116   29.2969 O   0  0  0  0  0  0  0  0  0  0  0  0
    9.0485  -16.7624   28.3106 O   0  0  0  0  0  0  0  0  0  0  0  0
  2  1  1  6
  3  2  1  0
  4  3  1  0
  4  5  2  0
  6  5  1  0
  7  6  1  0
  8  7  2  0
  8  4  1  0
  9  2  1  0
  9 14  1  0
 10  9  2  0
 11 12  1  0
 13 14  1  0
 13 12  1  1
 13 15  1  0
 15 19  1  0
 15 16  2  0
 18 17  1  1
 18 20  1  0
 19 18  1  0
 20 21  1  0
 22 20  2  0
M  END
$$$$
