HSA.pdb
     RDKit          3D

 22 22  0  0  1  0  0  0  0  0999 V2000
    8.7129  -16.0013   20.6732 N   0  0  0  0  0  0  0  0  0  0  0  0
    8.2176  -14.7576   21.1758 C   0  0  1  0  0  0  0  0  0  0  0  0
    6.9691  -14.3990   20.3964 C   0  0  0  0  0  0  0  0  0  0  0  0
    7.4052  -14.1141   18.9947 C   0  0  0  0  0  0  0  0  0  0  0  0
    8.7024  -14.1665   18.5604 C   0  0  0  0  0  0  0  0  0  0  0  0
    8.6929  -13.8476   17.2415 N   0  0  0  0  0  0  0  0  0  0  0  0
    7.4334  -13.6005   16.8489 C   0  0  0  0  0  0  0  0  0  0  0  0
    6.6586  -13.7679   17.9332 N   0  0  0  0  0  0  0  0  0  0  0  0
    7.8040  -14.8540   22.6137 C   0  0  0  0  0  0  0  0  0  0  0  0
    7.2697  -13.8504   23.1519 O   0  0  0  0  0  0  0  0  0  0  0  0
    8.3102  -18.3724   24.9439 O   0  0  0  0  0  0  0  0  0  0  0  0
    7.2549  -17.4994   25.0894 C   0  0  0  0  0  0  0  0  0  0  0  0
    7.6218  -16.0570   24.7988 C   0  0  2  0  0  0  0  0  0  0  0  0
    7.9868  -16.0146   23.3856 N   0  0  0  0  0  0  0  0  0  0  0  0
    8.7293  -15.5772   25.6530 C   0  0  0  0  0  0  0  0  0  0  0  0
    9.9285  -15.7712   25.3341 O   0  0  0  0  0  0  0  0  0  0  0  0
    9.1280  -13.2408   28.4916 C   0  0  0  0  0  0  0  0  0  0  0  0
    9.5712  -14.4610   27.6980 C   0  0  2  0  0  0  0  0  0  0  0  0
    8.4395  -14.8827   26.8588 N   0  0  0  0  0  0  0  0  0  0  0  0
    9.9955  -15.5646   28.5930 C   0  0  0  0  0  0  0  0  0  0  0  0
    9.4030  -16.8160   28.6246 O   0  0  0  0  0  0  0  0  0  0  0  0
   10.9561  -15.3464   29.3727 O   0  0  0  0  0  0  0  0  0  0  0  0
  2  1  1  6
  3  2  1  0
  4  3  1  0
  4  5  2  0
  6  5  1  0
  7  6  1  0
  8  7  2  0
  8  4  1  0
  9  2  1  0
  9 14  1  0
 10  9  2  0
 11 12  1  0
 13 14  1  0
 13 12  1  1
 13 15  1  0
 15 19  1  0
 15 16  2  0
 18 17  1  1
 18 20  1  0
 19 18  1  0
 20 21  1  0
 22 20  2  0
M  END
$$$$
