HSA.pdb
     RDKit          3D

 22 22  0  0  1  0  0  0  0  0999 V2000
   -0.9172  -26.6743   28.3034 N   0  0  0  0  0  0  0  0  0  0  0  0
   -1.9425  -26.4320   29.2702 C   0  0  1  0  0  0  0  0  0  0  0  0
   -1.3885  -25.4873   30.3168 C   0  0  0  0  0  0  0  0  0  0  0  0
   -0.3660  -26.2563   31.0909 C   0  0  0  0  0  0  0  0  0  0  0  0
   -0.6579  -27.2384   31.9988 C   0  0  0  0  0  0  0  0  0  0  0  0
    0.5243  -27.6933   32.4857 N   0  0  0  0  0  0  0  0  0  0  0  0
    1.5344  -27.0244   31.9082 C   0  0  0  0  0  0  0  0  0  0  0  0
    0.9726  -26.1495   31.0579 N   0  0  0  0  0  0  0  0  0  0  0  0
   -3.1332  -25.7459   28.6708 C   0  0  0  0  0  0  0  0  0  0  0  0
   -2.9371  -24.7885   27.8787 O   0  0  0  0  0  0  0  0  0  0  0  0
   -6.9449  -27.1248   29.4730 O   0  0  0  0  0  0  0  0  0  0  0  0
   -6.6545  -26.6429   28.2159 C   0  0  0  0  0  0  0  0  0  0  0  0
   -5.5859  -25.5670   28.2151 C   0  0  2  0  0  0  0  0  0  0  0  0
   -4.4569  -26.1247   28.9545 N   0  0  0  0  0  0  0  0  0  0  0  0
   -6.0583  -24.3072   28.8284 C   0  0  0  0  0  0  0  0  0  0  0  0
   -5.9023  -24.0812   30.0540 O   0  0  0  0  0  0  0  0  0  0  0  0
   -7.4487  -21.0816   27.5457 C   0  0  0  0  0  0  0  0  0  0  0  0
   -7.0705  -22.0529   28.6541 C   0  0  2  0  0  0  0  0  0  0  0  0
   -6.7018  -23.3290   28.0227 N   0  0  0  0  0  0  0  0  0  0  0  0
   -8.1889  -22.2481   29.6082 C   0  0  0  0  0  0  0  0  0  0  0  0
   -8.4903  -21.3818   30.6458 O   0  0  0  0  0  0  0  0  0  0  0  0
   -8.9083  -23.2677   29.4625 O   0  0  0  0  0  0  0  0  0  0  0  0
  2  1  1  6
  3  2  1  0
  4  3  1  0
  4  5  2  0
  6  5  1  0
  7  6  1  0
  8  7  2  0
  8  4  1  0
  9  2  1  0
  9 14  1  0
 10  9  2  0
 11 12  1  0
 13 14  1  0
 13 12  1  1
 13 15  1  0
 15 19  1  0
 15 16  2  0
 18 17  1  6
 18 20  1  0
 19 18  1  0
 20 21  1  0
 22 20  2  0
M  END
$$$$
