HSA.pdb
     RDKit          3D

 22 22  0  0  1  0  0  0  0  0999 V2000
   10.2513  -16.6071   16.1207 N   0  0  0  0  0  0  0  0  0  0  0  0
   10.8188  -15.5016   16.8282 C   0  0  1  0  0  0  0  0  0  0  0  0
    9.7522  -14.9277   17.7380 C   0  0  0  0  0  0  0  0  0  0  0  0
    8.8077  -14.1657   16.8643 C   0  0  0  0  0  0  0  0  0  0  0  0
    8.9161  -14.0702   15.5030 C   0  0  0  0  0  0  0  0  0  0  0  0
    7.8824  -13.3023   15.0751 N   0  0  0  0  0  0  0  0  0  0  0  0
    7.1409  -12.9216   16.1271 C   0  0  0  0  0  0  0  0  0  0  0  0
    7.7206  -13.4581   17.2134 N   0  0  0  0  0  0  0  0  0  0  0  0
   11.9505  -15.9213   17.7176 C   0  0  0  0  0  0  0  0  0  0  0  0
   11.8964  -17.0543   18.2617 O   0  0  0  0  0  0  0  0  0  0  0  0
   16.2341  -15.7522   17.4791 O   0  0  0  0  0  0  0  0  0  0  0  0
   15.4233  -14.9010   18.1969 C   0  0  0  0  0  0  0  0  0  0  0  0
   14.1940  -15.5798   18.7691 C   0  0  2  0  0  0  0  0  0  0  0  0
   13.0675  -15.1059   17.9700 N   0  0  0  0  0  0  0  0  0  0  0  0
   14.0005  -15.2734   20.2027 C   0  0  0  0  0  0  0  0  0  0  0  0
   13.7538  -14.1048   20.5911 O   0  0  0  0  0  0  0  0  0  0  0  0
   13.5644  -17.2189   23.3419 C   0  0  0  0  0  0  0  0  0  0  0  0
   13.9453  -15.9562   22.5833 C   0  0  2  0  0  0  0  0  0  0  0  0
   14.0939  -16.3153   21.1649 N   0  0  0  0  0  0  0  0  0  0  0  0
   15.2025  -15.3686   23.1062 C   0  0  0  0  0  0  0  0  0  0  0  0
   15.3041  -14.6813   24.3043 O   0  0  0  0  0  0  0  0  0  0  0  0
   16.2419  -15.5053   22.4140 O   0  0  0  0  0  0  0  0  0  0  0  0
  2  1  1  1
  3  2  1  0
  4  3  1  0
  4  5  2  0
  6  5  1  0
  7  6  1  0
  8  7  2  0
  8  4  1  0
  9  2  1  0
  9 14  1  0
 10  9  2  0
 11 12  1  0
 13 14  1  0
 13 12  1  6
 13 15  1  0
 15 19  1  0
 15 16  2  0
 18 17  1  1
 18 20  1  0
 19 18  1  0
 20 21  1  0
 22 20  2  0
M  END
$$$$
