HSA.pdb
     RDKit          3D

 22 22  0  0  1  0  0  0  0  0999 V2000
   11.0970  -14.9709   19.8925 N   0  0  0  0  0  0  0  0  0  0  0  0
    9.9275  -14.6689   20.6579 C   0  0  1  0  0  0  0  0  0  0  0  0
    8.7787  -15.4863   20.1040 C   0  0  0  0  0  0  0  0  0  0  0  0
    8.1925  -14.6950   18.9786 C   0  0  0  0  0  0  0  0  0  0  0  0
    8.6250  -13.4539   18.5955 C   0  0  0  0  0  0  0  0  0  0  0  0
    7.8515  -13.0693   17.5490 N   0  0  0  0  0  0  0  0  0  0  0  0
    6.9572  -14.0317   17.2747 C   0  0  0  0  0  0  0  0  0  0  0  0
    7.1795  -15.0187   18.1581 N   0  0  0  0  0  0  0  0  0  0  0  0
   10.0746  -15.0684   22.0955 C   0  0  0  0  0  0  0  0  0  0  0  0
   11.0544  -15.7876   22.4201 O   0  0  0  0  0  0  0  0  0  0  0  0
    7.0939  -14.5534   24.9968 O   0  0  0  0  0  0  0  0  0  0  0  0
    8.3802  -14.1456   25.2727 C   0  0  0  0  0  0  0  0  0  0  0  0
    9.4353  -14.9221   24.5090 C   0  0  2  0  0  0  0  0  0  0  0  0
    9.1675  -14.6755   23.0949 N   0  0  0  0  0  0  0  0  0  0  0  0
    9.3998  -16.3680   24.8169 C   0  0  0  0  0  0  0  0  0  0  0  0
    8.4998  -17.1106   24.3522 O   0  0  0  0  0  0  0  0  0  0  0  0
   11.5548  -19.0549   25.5674 C   0  0  0  0  0  0  0  0  0  0  0  0
   10.2749  -18.3580   26.0046 C   0  0  2  0  0  0  0  0  0  0  0  0
   10.3991  -16.9352   25.6534 N   0  0  0  0  0  0  0  0  0  0  0  0
   10.0421  -18.5164   27.4606 C   0  0  0  0  0  0  0  0  0  0  0  0
    9.7649  -19.7236   28.0802 O   0  0  0  0  0  0  0  0  0  0  0  0
   10.1009  -17.4855   28.1760 O   0  0  0  0  0  0  0  0  0  0  0  0
  2  1  1  6
  3  2  1  0
  4  3  1  0
  4  5  2  0
  6  5  1  0
  7  6  1  0
  8  7  2  0
  8  4  1  0
  9  2  1  0
  9 14  1  0
 10  9  2  0
 11 12  1  0
 13 14  1  0
 13 12  1  1
 13 15  1  0
 15 19  1  0
 15 16  2  0
 18 17  1  1
 18 20  1  0
 19 18  1  0
 20 21  1  0
 22 20  2  0
M  END
$$$$
