HSA.pdb
     RDKit          3D

 22 22  0  0  1  0  0  0  0  0999 V2000
   14.9772  -14.1857   17.3311 N   0  0  0  0  0  0  0  0  0  0  0  0
   13.8904  -15.0913   17.5399 C   0  0  1  0  0  0  0  0  0  0  0  0
   14.4415  -16.5021   17.5118 C   0  0  0  0  0  0  0  0  0  0  0  0
   14.7233  -16.8242   16.0789 C   0  0  0  0  0  0  0  0  0  0  0  0
   13.7616  -17.0542   15.1322 C   0  0  0  0  0  0  0  0  0  0  0  0
   14.4059  -17.3102   13.9657 N   0  0  0  0  0  0  0  0  0  0  0  0
   15.7320  -17.2456   14.1621 C   0  0  0  0  0  0  0  0  0  0  0  0
   15.9089  -16.9474   15.4598 N   0  0  0  0  0  0  0  0  0  0  0  0
   13.2572  -14.9127   18.8872 C   0  0  0  0  0  0  0  0  0  0  0  0
   14.0068  -14.8030   19.8915 O   0  0  0  0  0  0  0  0  0  0  0  0
    9.1203  -15.3401   19.5660 O   0  0  0  0  0  0  0  0  0  0  0  0
    9.8217  -14.3121   20.1561 C   0  0  0  0  0  0  0  0  0  0  0  0
   11.2824  -14.6401   20.3974 C   0  0  2  0  0  0  0  0  0  0  0  0
   11.8653  -14.8625   19.0772 N   0  0  0  0  0  0  0  0  0  0  0  0
   11.4550  -15.8244   21.2658 C   0  0  0  0  0  0  0  0  0  0  0  0
   11.5113  -16.9827   20.7835 O   0  0  0  0  0  0  0  0  0  0  0  0
   13.0819  -16.9262   24.0551 C   0  0  0  0  0  0  0  0  0  0  0  0
   11.6652  -16.8665   23.5033 C   0  0  2  0  0  0  0  0  0  0  0  0
   11.5601  -15.6570   22.6734 N   0  0  0  0  0  0  0  0  0  0  0  0
   10.6601  -16.8391   24.5933 C   0  0  0  0  0  0  0  0  0  0  0  0
   10.4351  -17.8836   25.4746 O   0  0  0  0  0  0  0  0  0  0  0  0
    9.9689  -15.7981   24.7229 O   0  0  0  0  0  0  0  0  0  0  0  0
  2  1  1  1
  3  2  1  0
  4  3  1  0
  4  5  2  0
  6  5  1  0
  7  6  1  0
  8  7  2  0
  8  4  1  0
  9  2  1  0
  9 14  1  0
 10  9  2  0
 11 12  1  0
 13 14  1  0
 13 12  1  6
 13 15  1  0
 15 19  1  0
 15 16  2  0
 18 17  1  1
 18 20  1  0
 19 18  1  0
 20 21  1  0
 22 20  2  0
M  END
$$$$
