WFD.pdb
     RDKit          3D

 34 36  0  0  1  0  0  0  0  0999 V2000
   27.0910  -20.7688  -17.2025 N   0  0  0  0  0  0  0  0  0  0  0  0
   27.1956  -20.0000  -16.0134 C   0  0  1  0  0  0  0  0  0  0  0  0
   26.5562  -18.6649  -16.0093 C   0  0  0  0  0  0  0  0  0  0  0  0
   27.0428  -17.6937  -16.9962 C   0  0  0  0  0  0  0  0  0  0  0  0
   26.2642  -16.8098  -17.7511 C   0  0  0  0  0  0  0  0  0  0  0  0
   27.1071  -16.1028  -18.5092 N   0  0  0  0  0  0  0  0  0  0  0  0
   28.3858  -16.4877  -18.2798 C   0  0  0  0  0  0  0  0  0  0  0  0
   29.5875  -16.0691  -18.8080 C   0  0  0  0  0  0  0  0  0  0  0  0
   30.7834  -16.6173  -18.4212 C   0  0  0  0  0  0  0  0  0  0  0  0
   30.7501  -17.6192  -17.4702 C   0  0  0  0  0  0  0  0  0  0  0  0
   29.5747  -18.0575  -16.9267 C   0  0  0  0  0  0  0  0  0  0  0  0
   28.3696  -17.5056  -17.3148 C   0  0  0  0  0  0  0  0  0  0  0  0
   26.6133  -20.7734  -14.8784 C   0  0  0  0  0  0  0  0  0  0  0  0
   25.6085  -21.4827  -15.1113 O   0  0  0  0  0  0  0  0  0  0  0  0
   27.1397  -20.7387  -13.5793 N   0  0  0  0  0  0  0  0  0  0  0  0
   26.3722  -20.9685  -12.3909 C   0  0  1  0  0  0  0  0  0  0  0  0
   27.1692  -20.7585  -11.1290 C   0  0  0  0  0  0  0  0  0  0  0  0
   26.3823  -20.7697   -9.9030 C   0  0  0  0  0  0  0  0  0  0  0  0
   25.6588  -21.8837   -9.5480 C   0  0  0  0  0  0  0  0  0  0  0  0
   24.8992  -21.9076   -8.3743 C   0  0  0  0  0  0  0  0  0  0  0  0
   24.8455  -20.8210   -7.5304 C   0  0  0  0  0  0  0  0  0  0  0  0
   25.5753  -19.6980   -7.8889 C   0  0  0  0  0  0  0  0  0  0  0  0
   26.3040  -19.6991   -9.0321 C   0  0  0  0  0  0  0  0  0  0  0  0
   25.1314  -20.2001  -12.3377 C   0  0  0  0  0  0  0  0  0  0  0  0
   25.2054  -18.9428  -12.4572 O   0  0  0  0  0  0  0  0  0  0  0  0
   23.8219  -20.7317  -12.1606 N   0  0  0  0  0  0  0  0  0  0  0  0
   22.6386  -19.8960  -12.1783 C   0  0  1  0  0  0  0  0  0  0  0  0
   22.3314  -19.3637  -13.5703 C   0  0  0  0  0  0  0  0  0  0  0  0
   22.0530  -20.4658  -14.5124 C   0  0  0  0  0  0  0  0  0  0  0  0
   22.1058  -21.6492  -14.0929 O   0  0  0  0  0  0  0  0  0  0  0  0
   21.4786  -20.7772  -11.8032 C   0  0  0  0  0  0  0  0  0  0  0  0
   20.3226  -20.2828  -11.6940 O   0  0  0  0  0  0  0  0  0  0  0  0
   21.7316  -20.2788  -15.8511 O   0  0  0  0  0  0  0  0  0  0  0  0
   21.6849  -22.1244  -11.5800 O   0  0  0  0  0  0  0  0  0  0  0  0
  2  1  1  6
  2  3  1  0
  4  5  2  0
  4  3  1  0
  6  5  1  0
  7 12  2  0
  7  6  1  0
  8  7  1  0
  9  8  2  0
  9 10  1  0
 10 11  2  0
 11 12  1  0
 12  4  1  0
 13 14  2  0
 13  2  1  0
 15 13  1  0
 16 24  1  0
 16 15  1  0
 16 17  1  1
 18 17  1  0
 19 18  2  0
 20 19  1  0
 21 22  1  0
 21 20  2  0
 22 23  2  0
 23 18  1  0
 24 26  1  0
 25 24  2  0
 26 27  1  0
 27 31  1  0
 27 28  1  6
 29 28  1  0
 30 29  2  0
 31 32  2  0
 31 34  1  0
 33 29  1  0
M  END
$$$$
