WFD.pdb
     RDKit          3D

 34 36  0  0  1  0  0  0  0  0999 V2000
   27.9449  -21.1890  -14.6131 N   0  0  0  0  0  0  0  0  0  0  0  0
   26.9675  -20.3734  -13.9841 C   0  0  1  0  0  0  0  0  0  0  0  0
   25.6665  -20.2188  -14.6731 C   0  0  0  0  0  0  0  0  0  0  0  0
   25.6840  -19.5538  -15.9813 C   0  0  0  0  0  0  0  0  0  0  0  0
   25.6490  -18.1752  -16.2170 C   0  0  0  0  0  0  0  0  0  0  0  0
   25.6947  -18.0081  -17.5419 N   0  0  0  0  0  0  0  0  0  0  0  0
   25.7569  -19.2082  -18.1678 C   0  0  0  0  0  0  0  0  0  0  0  0
   25.8154  -19.5555  -19.4998 C   0  0  0  0  0  0  0  0  0  0  0  0
   25.8683  -20.8630  -19.9098 C   0  0  0  0  0  0  0  0  0  0  0  0
   25.8612  -21.8405  -18.9332 C   0  0  0  0  0  0  0  0  0  0  0  0
   25.8035  -21.5294  -17.6032 C   0  0  0  0  0  0  0  0  0  0  0  0
   25.7509  -20.2129  -17.1890 C   0  0  0  0  0  0  0  0  0  0  0  0
   26.6858  -20.9109  -12.6213 C   0  0  0  0  0  0  0  0  0  0  0  0
   26.8687  -22.1340  -12.4279 O   0  0  0  0  0  0  0  0  0  0  0  0
   26.2315  -20.1115  -11.5627 N   0  0  0  0  0  0  0  0  0  0  0  0
   25.6479  -20.6230  -10.3577 C   0  0  1  0  0  0  0  0  0  0  0  0
   25.8231  -19.6960   -9.1824 C   0  0  0  0  0  0  0  0  0  0  0  0
   26.9545  -20.0123   -8.3208 C   0  0  0  0  0  0  0  0  0  0  0  0
   27.0280  -19.4976   -7.0479 C   0  0  0  0  0  0  0  0  0  0  0  0
   28.1084  -19.7929   -6.2109 C   0  0  0  0  0  0  0  0  0  0  0  0
   29.1377  -20.6077   -6.6260 C   0  0  0  0  0  0  0  0  0  0  0  0
   29.0630  -21.1264   -7.9096 C   0  0  0  0  0  0  0  0  0  0  0  0
   28.0053  -20.8253   -8.7023 C   0  0  0  0  0  0  0  0  0  0  0  0
   24.2433  -20.9968  -10.5004 C   0  0  0  0  0  0  0  0  0  0  0  0
   23.6495  -21.4733   -9.4899 O   0  0  0  0  0  0  0  0  0  0  0  0
   23.4593  -20.8784  -11.6836 N   0  0  0  0  0  0  0  0  0  0  0  0
   22.0711  -21.2896  -11.7364 C   0  0  1  0  0  0  0  0  0  0  0  0
   21.2304  -20.3651  -12.6047 C   0  0  0  0  0  0  0  0  0  0  0  0
   21.1267  -19.0199  -12.0055 C   0  0  0  0  0  0  0  0  0  0  0  0
   20.7376  -18.9152  -10.8152 O   0  0  0  0  0  0  0  0  0  0  0  0
   22.0415  -22.6348  -12.4088 C   0  0  0  0  0  0  0  0  0  0  0  0
   23.0873  -23.0919  -12.9475 O   0  0  0  0  0  0  0  0  0  0  0  0
   21.4355  -17.8449  -12.6798 O   0  0  0  0  0  0  0  0  0  0  0  0
   20.8688  -23.3637  -12.4332 O   0  0  0  0  0  0  0  0  0  0  0  0
  2  1  1  6
  2  3  1  0
  4  5  2  0
  4  3  1  0
  6  5  1  0
  7 12  2  0
  7  6  1  0
  8  7  1  0
  9  8  2  0
  9 10  1  0
 10 11  2  0
 11 12  1  0
 12  4  1  0
 13 14  2  0
 13  2  1  0
 15 13  1  0
 16 24  1  0
 16 15  1  0
 16 17  1  1
 18 17  1  0
 19 18  2  0
 20 19  1  0
 21 22  1  0
 21 20  2  0
 22 23  2  0
 23 18  1  0
 24 26  1  0
 25 24  2  0
 26 27  1  0
 27 31  1  0
 27 28  1  6
 29 28  1  0
 30 29  2  0
 31 32  2  0
 31 34  1  0
 33 29  1  0
M  END
$$$$
