WFD.pdb
     RDKit          3D

 34 36  0  0  1  0  0  0  0  0999 V2000
   28.2678  -21.5425  -17.0954 N   0  0  0  0  0  0  0  0  0  0  0  0
   27.5090  -20.4624  -16.5723 C   0  0  1  0  0  0  0  0  0  0  0  0
   26.5774  -19.7767  -17.4960 C   0  0  0  0  0  0  0  0  0  0  0  0
   27.1709  -19.1026  -18.6567 C   0  0  0  0  0  0  0  0  0  0  0  0
   28.0002  -17.9761  -18.6333 C   0  0  0  0  0  0  0  0  0  0  0  0
   28.3206  -17.7054  -19.9019 N   0  0  0  0  0  0  0  0  0  0  0  0
   27.7396  -18.6000  -20.7374 C   0  0  0  0  0  0  0  0  0  0  0  0
   27.7637  -18.7375  -22.1081 C   0  0  0  0  0  0  0  0  0  0  0  0
   27.0811  -19.7375  -22.7518 C   0  0  0  0  0  0  0  0  0  0  0  0
   26.3551  -20.6195  -21.9744 C   0  0  0  0  0  0  0  0  0  0  0  0
   26.3103  -20.5105  -20.6124 C   0  0  0  0  0  0  0  0  0  0  0  0
   26.9980  -19.5042  -19.9629 C   0  0  0  0  0  0  0  0  0  0  0  0
   26.7061  -20.9459  -15.4117 C   0  0  0  0  0  0  0  0  0  0  0  0
   26.1847  -22.0808  -15.4961 O   0  0  0  0  0  0  0  0  0  0  0  0
   26.5155  -20.1907  -14.2458 N   0  0  0  0  0  0  0  0  0  0  0  0
   25.8244  -20.6627  -13.0822 C   0  0  1  0  0  0  0  0  0  0  0  0
   26.3627  -20.0756  -11.8027 C   0  0  0  0  0  0  0  0  0  0  0  0
   27.7030  -20.5207  -11.4452 C   0  0  0  0  0  0  0  0  0  0  0  0
   28.7874  -20.1510  -12.2055 C   0  0  0  0  0  0  0  0  0  0  0  0
   30.0790  -20.5715  -11.8738 C   0  0  0  0  0  0  0  0  0  0  0  0
   30.3158  -21.3693  -10.7769 C   0  0  0  0  0  0  0  0  0  0  0  0
   29.2220  -21.7417  -10.0106 C   0  0  0  0  0  0  0  0  0  0  0  0
   27.9794  -21.3214  -10.3528 C   0  0  0  0  0  0  0  0  0  0  0  0
   24.3764  -20.4847  -13.1490 C   0  0  0  0  0  0  0  0  0  0  0  0
   23.9324  -19.3942  -13.6121 O   0  0  0  0  0  0  0  0  0  0  0  0
   23.3946  -21.4308  -12.7372 N   0  0  0  0  0  0  0  0  0  0  0  0
   21.9748  -21.1938  -12.9015 C   0  0  1  0  0  0  0  0  0  0  0  0
   21.1917  -22.4875  -13.0699 C   0  0  0  0  0  0  0  0  0  0  0  0
   19.7490  -22.2195  -13.2323 C   0  0  0  0  0  0  0  0  0  0  0  0
   19.3582  -21.0271  -13.3000 O   0  0  0  0  0  0  0  0  0  0  0  0
   21.4866  -20.5744  -11.6205 C   0  0  0  0  0  0  0  0  0  0  0  0
   20.2954  -20.1672  -11.5327 O   0  0  0  0  0  0  0  0  0  0  0  0
   18.7807  -23.2123  -13.3165 O   0  0  0  0  0  0  0  0  0  0  0  0
   22.3457  -20.4544  -10.5458 O   0  0  0  0  0  0  0  0  0  0  0  0
  2  1  1  6
  2  3  1  0
  4  5  2  0
  4  3  1  0
  6  5  1  0
  7 12  2  0
  7  6  1  0
  8  7  1  0
  9  8  2  0
  9 10  1  0
 10 11  2  0
 11 12  1  0
 12  4  1  0
 13 14  2  0
 13  2  1  0
 15 13  1  0
 16 24  1  0
 16 15  1  0
 16 17  1  1
 18 17  1  0
 19 18  2  0
 20 19  1  0
 21 22  1  0
 21 20  2  0
 22 23  2  0
 23 18  1  0
 24 26  1  0
 25 24  2  0
 26 27  1  0
 27 31  1  0
 27 28  1  1
 29 28  1  0
 30 29  2  0
 31 32  2  0
 31 34  1  0
 33 29  1  0
M  END
$$$$
