WFD.pdb
     RDKit          3D

 34 36  0  0  1  0  0  0  0  0999 V2000
   16.7638  -27.5686   -0.8873 N   0  0  0  0  0  0  0  0  0  0  0  0
   16.2105  -27.1646    0.3564 C   0  0  1  0  0  0  0  0  0  0  0  0
   16.8854  -27.6381    1.5858 C   0  0  0  0  0  0  0  0  0  0  0  0
   16.6602  -29.0368    1.9691 C   0  0  0  0  0  0  0  0  0  0  0  0
   16.9833  -30.1707    1.2161 C   0  0  0  0  0  0  0  0  0  0  0  0
   16.6201  -31.2328    1.9409 N   0  0  0  0  0  0  0  0  0  0  0  0
   16.0806  -30.8385    3.1196 C   0  0  0  0  0  0  0  0  0  0  0  0
   15.5638  -31.5451    4.1835 C   0  0  0  0  0  0  0  0  0  0  0  0
   15.0566  -30.9215    5.2944 C   0  0  0  0  0  0  0  0  0  0  0  0
   15.0781  -29.5401    5.3184 C   0  0  0  0  0  0  0  0  0  0  0  0
   15.5834  -28.8095    4.2792 C   0  0  0  0  0  0  0  0  0  0  0  0
   16.0953  -29.4364    3.1601 C   0  0  0  0  0  0  0  0  0  0  0  0
   16.1770  -25.6744    0.4155 C   0  0  0  0  0  0  0  0  0  0  0  0
   17.1758  -25.0516   -0.0103 O   0  0  0  0  0  0  0  0  0  0  0  0
   15.0859  -24.9534    0.9212 N   0  0  0  0  0  0  0  0  0  0  0  0
   15.0324  -23.5236    1.0056 C   0  0  1  0  0  0  0  0  0  0  0  0
   13.8186  -22.9416    0.3279 C   0  0  0  0  0  0  0  0  0  0  0  0
   13.7980  -23.0947   -1.1207 C   0  0  0  0  0  0  0  0  0  0  0  0
   12.8904  -23.9353   -1.7211 C   0  0  0  0  0  0  0  0  0  0  0  0
   12.8602  -24.0917   -3.1102 C   0  0  0  0  0  0  0  0  0  0  0  0
   13.7343  -23.4131   -3.9293 C   0  0  0  0  0  0  0  0  0  0  0  0
   14.6493  -22.5656   -3.3234 C   0  0  0  0  0  0  0  0  0  0  0  0
   14.6590  -22.4309   -1.9745 C   0  0  0  0  0  0  0  0  0  0  0  0
   15.1421  -23.0132    2.3695 C   0  0  0  0  0  0  0  0  0  0  0  0
   14.4552  -23.5751    3.2713 O   0  0  0  0  0  0  0  0  0  0  0  0
   15.9578  -21.9263    2.7960 N   0  0  0  0  0  0  0  0  0  0  0  0
   15.9483  -21.4407    4.1609 C   0  0  1  0  0  0  0  0  0  0  0  0
   17.3188  -21.5374    4.8150 C   0  0  0  0  0  0  0  0  0  0  0  0
   17.2143  -22.0429    6.1982 C   0  0  0  0  0  0  0  0  0  0  0  0
   16.0799  -22.3373    6.6515 O   0  0  0  0  0  0  0  0  0  0  0  0
   15.6185  -19.9744    4.0982 C   0  0  0  0  0  0  0  0  0  0  0  0
   15.1605  -19.3885    5.1179 O   0  0  0  0  0  0  0  0  0  0  0  0
   18.3027  -22.2175    7.0441 O   0  0  0  0  0  0  0  0  0  0  0  0
   15.8188  -19.2761    2.9237 O   0  0  0  0  0  0  0  0  0  0  0  0
  2  1  1  6
  2  3  1  0
  4  5  2  0
  4  3  1  0
  6  5  1  0
  7 12  2  0
  7  6  1  0
  8  7  1  0
  9  8  2  0
  9 10  1  0
 10 11  2  0
 11 12  1  0
 12  4  1  0
 13 14  2  0
 13  2  1  0
 15 13  1  0
 16 24  1  0
 16 15  1  0
 16 17  1  1
 18 17  1  0
 19 18  2  0
 20 19  1  0
 21 22  1  0
 21 20  2  0
 22 23  2  0
 23 18  1  0
 24 26  1  0
 25 24  2  0
 26 27  1  0
 27 31  1  0
 27 28  1  6
 29 28  1  0
 30 29  2  0
 31 32  2  0
 31 34  1  0
 33 29  1  0
M  END
$$$$
