WFD.pdb
     RDKit          3D

 34 36  0  0  1  0  0  0  0  0999 V2000
   14.4520  -23.0349    1.2802 N   0  0  0  0  0  0  0  0  0  0  0  0
   15.8702  -23.0609    1.2155 C   0  0  1  0  0  0  0  0  0  0  0  0
   16.5708  -21.7588    1.1451 C   0  0  0  0  0  0  0  0  0  0  0  0
   15.8228  -20.5783    1.5932 C   0  0  0  0  0  0  0  0  0  0  0  0
   14.5316  -20.2100    1.2004 C   0  0  0  0  0  0  0  0  0  0  0  0
   14.2348  -19.0836    1.8547 N   0  0  0  0  0  0  0  0  0  0  0  0
   15.2689  -18.7104    2.6466 C   0  0  0  0  0  0  0  0  0  0  0  0
   15.4451  -17.6400    3.4960 C   0  0  0  0  0  0  0  0  0  0  0  0
   16.6027  -17.4582    4.2081 C   0  0  0  0  0  0  0  0  0  0  0  0
   17.6062  -18.3945    4.0478 C   0  0  0  0  0  0  0  0  0  0  0  0
   17.4633  -19.4675    3.2128 C   0  0  0  0  0  0  0  0  0  0  0  0
   16.2975  -19.6522    2.4956 C   0  0  0  0  0  0  0  0  0  0  0  0
   16.4007  -23.7854    2.4068 C   0  0  0  0  0  0  0  0  0  0  0  0
   15.6801  -24.6720    2.9183 O   0  0  0  0  0  0  0  0  0  0  0  0
   17.6574  -23.5173    2.9679 N   0  0  0  0  0  0  0  0  0  0  0  0
   18.2973  -24.3452    3.9474 C   0  0  1  0  0  0  0  0  0  0  0  0
   19.8014  -24.2847    3.8732 C   0  0  0  0  0  0  0  0  0  0  0  0
   20.3711  -24.7987    2.6348 C   0  0  0  0  0  0  0  0  0  0  0  0
   21.3230  -24.0783    1.9525 C   0  0  0  0  0  0  0  0  0  0  0  0
   21.8777  -24.5599    0.7628 C   0  0  0  0  0  0  0  0  0  0  0  0
   21.4944  -25.7697    0.2288 C   0  0  0  0  0  0  0  0  0  0  0  0
   20.5344  -26.4956    0.9173 C   0  0  0  0  0  0  0  0  0  0  0  0
   20.0115  -26.0074    2.0688 C   0  0  0  0  0  0  0  0  0  0  0  0
   17.8488  -24.0891    5.3134 C   0  0  0  0  0  0  0  0  0  0  0  0
   17.7913  -22.8873    5.7046 O   0  0  0  0  0  0  0  0  0  0  0  0
   17.4633  -25.0728    6.2687 N   0  0  0  0  0  0  0  0  0  0  0  0
   17.0380  -24.7248    7.6092 C   0  0  1  0  0  0  0  0  0  0  0  0
   16.0015  -25.6967    8.1539 C   0  0  0  0  0  0  0  0  0  0  0  0
   14.6620  -25.4107    7.6030 C   0  0  0  0  0  0  0  0  0  0  0  0
   14.2341  -24.2296    7.6331 O   0  0  0  0  0  0  0  0  0  0  0  0
   18.2447  -24.8609    8.4970 C   0  0  0  0  0  0  0  0  0  0  0  0
   19.3389  -25.2632    8.0137 O   0  0  0  0  0  0  0  0  0  0  0  0
   13.8312  -26.3747    7.0453 O   0  0  0  0  0  0  0  0  0  0  0  0
   18.1488  -24.5444    9.8378 O   0  0  0  0  0  0  0  0  0  0  0  0
  2  1  1  1
  2  3  1  0
  4  5  2  0
  4  3  1  0
  6  5  1  0
  7 12  2  0
  7  6  1  0
  8  7  1  0
  9  8  2  0
  9 10  1  0
 10 11  2  0
 11 12  1  0
 12  4  1  0
 13 14  2  0
 13  2  1  0
 15 13  1  0
 16 24  1  0
 16 15  1  0
 16 17  1  1
 18 17  1  0
 19 18  2  0
 20 19  1  0
 21 22  1  0
 21 20  2  0
 22 23  2  0
 23 18  1  0
 24 26  1  0
 25 24  2  0
 26 27  1  0
 27 31  1  0
 27 28  1  1
 29 28  1  0
 30 29  2  0
 31 32  2  0
 31 34  1  0
 33 29  1  0
M  END
$$$$
