WFD.pdb
     RDKit          3D

 34 36  0  0  1  0  0  0  0  0999 V2000
   26.5102  -21.7431  -13.4691 N   0  0  0  0  0  0  0  0  0  0  0  0
   26.8209  -20.6095  -12.6725 C   0  0  1  0  0  0  0  0  0  0  0  0
   25.9732  -19.4078  -12.8414 C   0  0  0  0  0  0  0  0  0  0  0  0
   26.0417  -18.7250  -14.1387 C   0  0  0  0  0  0  0  0  0  0  0  0
   24.9843  -18.1030  -14.8111 C   0  0  0  0  0  0  0  0  0  0  0  0
   25.4873  -17.6014  -15.9427 N   0  0  0  0  0  0  0  0  0  0  0  0
   26.8125  -17.8696  -16.0308 C   0  0  0  0  0  0  0  0  0  0  0  0
   27.7555  -17.5721  -16.9902 C   0  0  0  0  0  0  0  0  0  0  0  0
   29.0657  -17.9575  -16.8678 C   0  0  0  0  0  0  0  0  0  0  0  0
   29.4212  -18.6654  -15.7356 C   0  0  0  0  0  0  0  0  0  0  0  0
   28.5099  -18.9770  -14.7653 C   0  0  0  0  0  0  0  0  0  0  0  0
   27.1901  -18.5887  -14.8871 C   0  0  0  0  0  0  0  0  0  0  0  0
   26.7631  -20.9934  -11.2321 C   0  0  0  0  0  0  0  0  0  0  0  0
   26.0455  -21.9696  -10.9175 O   0  0  0  0  0  0  0  0  0  0  0  0
   27.4716  -20.3144  -10.2306 N   0  0  0  0  0  0  0  0  0  0  0  0
   27.3364  -20.5755   -8.8278 C   0  0  1  0  0  0  0  0  0  0  0  0
   28.3742  -19.8655   -7.9970 C   0  0  0  0  0  0  0  0  0  0  0  0
   28.1858  -19.9825   -6.5572 C   0  0  0  0  0  0  0  0  0  0  0  0
   28.8101  -20.9832   -5.8504 C   0  0  0  0  0  0  0  0  0  0  0  0
   28.6376  -21.1070   -4.4684 C   0  0  0  0  0  0  0  0  0  0  0  0
   27.8389  -20.2354   -3.7627 C   0  0  0  0  0  0  0  0  0  0  0  0
   27.2096  -19.2265   -4.4758 C   0  0  0  0  0  0  0  0  0  0  0  0
   27.3925  -19.1273   -5.8154 C   0  0  0  0  0  0  0  0  0  0  0  0
   25.9996  -20.3013   -8.3076 C   0  0  0  0  0  0  0  0  0  0  0  0
   25.3904  -19.2812   -8.7422 O   0  0  0  0  0  0  0  0  0  0  0  0
   25.2989  -21.0791   -7.3418 N   0  0  0  0  0  0  0  0  0  0  0  0
   23.8617  -20.9984   -7.1782 C   0  0  1  0  0  0  0  0  0  0  0  0
   23.1147  -21.4639   -8.4194 C   0  0  0  0  0  0  0  0  0  0  0  0
   21.6553  -21.4563   -8.1969 C   0  0  0  0  0  0  0  0  0  0  0  0
   21.1339  -20.4625   -7.6316 O   0  0  0  0  0  0  0  0  0  0  0  0
   23.4940  -21.9627   -6.0837 C   0  0  0  0  0  0  0  0  0  0  0  0
   24.3859  -22.6789   -5.5507 O   0  0  0  0  0  0  0  0  0  0  0  0
   20.8077  -22.4898   -8.5765 O   0  0  0  0  0  0  0  0  0  0  0  0
   22.1808  -22.0592   -5.6674 O   0  0  0  0  0  0  0  0  0  0  0  0
  2  1  1  6
  2  3  1  0
  4  5  2  0
  4  3  1  0
  6  5  1  0
  7 12  2  0
  7  6  1  0
  8  7  1  0
  9  8  2  0
  9 10  1  0
 10 11  2  0
 11 12  1  0
 12  4  1  0
 13 14  2  0
 13  2  1  0
 15 13  1  0
 16 24  1  0
 16 15  1  0
 16 17  1  1
 18 17  1  0
 19 18  2  0
 20 19  1  0
 21 22  1  0
 21 20  2  0
 22 23  2  0
 23 18  1  0
 24 26  1  0
 25 24  2  0
 26 27  1  0
 27 31  1  0
 27 28  1  6
 29 28  1  0
 30 29  2  0
 31 32  2  0
 31 34  1  0
 33 29  1  0
M  END
$$$$
