WFD.pdb
     RDKit          3D

 34 36  0  0  1  0  0  0  0  0999 V2000
   26.4323  -21.7052  -13.8006 N   0  0  0  0  0  0  0  0  0  0  0  0
   26.8982  -20.6448  -12.9792 C   0  0  1  0  0  0  0  0  0  0  0  0
   26.2393  -19.3281  -13.1314 C   0  0  0  0  0  0  0  0  0  0  0  0
   26.3275  -18.6910  -14.4506 C   0  0  0  0  0  0  0  0  0  0  0  0
   25.2735  -18.1258  -15.1763 C   0  0  0  0  0  0  0  0  0  0  0  0
   25.7959  -17.6506  -16.3106 N   0  0  0  0  0  0  0  0  0  0  0  0
   27.1304  -17.8821  -16.3497 C   0  0  0  0  0  0  0  0  0  0  0  0
   28.0931  -17.5915  -17.2916 C   0  0  0  0  0  0  0  0  0  0  0  0
   29.4095  -17.9328  -17.1166 C   0  0  0  0  0  0  0  0  0  0  0  0
   29.7508  -18.5882  -15.9489 C   0  0  0  0  0  0  0  0  0  0  0  0
   28.8198  -18.8915  -14.9948 C   0  0  0  0  0  0  0  0  0  0  0  0
   27.4937  -18.5476  -15.1696 C   0  0  0  0  0  0  0  0  0  0  0  0
   26.7682  -21.0423  -11.5472 C   0  0  0  0  0  0  0  0  0  0  0  0
   25.8274  -21.8080  -11.2381 O   0  0  0  0  0  0  0  0  0  0  0  0
   27.6461  -20.5994  -10.5478 N   0  0  0  0  0  0  0  0  0  0  0  0
   27.3851  -20.6988   -9.1420 C   0  0  1  0  0  0  0  0  0  0  0  0
   28.4631  -20.0662   -8.2997 C   0  0  0  0  0  0  0  0  0  0  0  0
   28.1745  -20.0243   -6.8724 C   0  0  0  0  0  0  0  0  0  0  0  0
   27.8941  -18.8299   -6.2516 C   0  0  0  0  0  0  0  0  0  0  0  0
   27.6159  -18.7756   -4.8824 C   0  0  0  0  0  0  0  0  0  0  0  0
   27.6115  -19.9112   -4.1040 C   0  0  0  0  0  0  0  0  0  0  0  0
   27.8943  -21.1154   -4.7306 C   0  0  0  0  0  0  0  0  0  0  0  0
   28.1611  -21.1422   -6.0594 C   0  0  0  0  0  0  0  0  0  0  0  0
   26.0744  -20.1861   -8.7523 C   0  0  0  0  0  0  0  0  0  0  0  0
   25.8159  -18.9712   -8.9927 O   0  0  0  0  0  0  0  0  0  0  0  0
   25.0382  -20.9280   -8.1161 N   0  0  0  0  0  0  0  0  0  0  0  0
   23.7293  -20.3634   -7.8571 C   0  0  1  0  0  0  0  0  0  0  0  0
   22.9576  -20.0888   -9.1395 C   0  0  0  0  0  0  0  0  0  0  0  0
   21.8339  -21.0332   -9.2974 C   0  0  0  0  0  0  0  0  0  0  0  0
   20.7383  -20.7694   -8.7415 O   0  0  0  0  0  0  0  0  0  0  0  0
   22.9443  -21.4093   -7.1136 C   0  0  0  0  0  0  0  0  0  0  0  0
   23.4770  -22.5206   -6.8419 O   0  0  0  0  0  0  0  0  0  0  0  0
   21.9083  -22.2111  -10.0305 O   0  0  0  0  0  0  0  0  0  0  0  0
   21.6432  -21.1475   -6.7317 O   0  0  0  0  0  0  0  0  0  0  0  0
  2  1  1  6
  2  3  1  0
  4  5  2  0
  4  3  1  0
  6  5  1  0
  7 12  2  0
  7  6  1  0
  8  7  1  0
  9  8  2  0
  9 10  1  0
 10 11  2  0
 11 12  1  0
 12  4  1  0
 13 14  2  0
 13  2  1  0
 15 13  1  0
 16 24  1  0
 16 15  1  0
 16 17  1  1
 18 17  1  0
 19 18  2  0
 20 19  1  0
 21 22  1  0
 21 20  2  0
 22 23  2  0
 23 18  1  0
 24 26  1  0
 25 24  2  0
 26 27  1  0
 27 31  1  0
 27 28  1  6
 29 28  1  0
 30 29  2  0
 31 32  2  0
 31 34  1  0
 33 29  1  0
M  END
$$$$
