WFD.pdb
     RDKit          3D

 34 36  0  0  1  0  0  0  0  0999 V2000
   26.1885  -21.8534  -13.1981 N   0  0  0  0  0  0  0  0  0  0  0  0
   26.2661  -20.6393  -12.4660 C   0  0  1  0  0  0  0  0  0  0  0  0
   25.2298  -19.6170  -12.7344 C   0  0  0  0  0  0  0  0  0  0  0  0
   25.2051  -19.0357  -14.0819 C   0  0  0  0  0  0  0  0  0  0  0  0
   24.0871  -18.9005  -14.9119 C   0  0  0  0  0  0  0  0  0  0  0  0
   24.5083  -18.3126  -16.0353 N   0  0  0  0  0  0  0  0  0  0  0  0
   25.8386  -18.0640  -15.9687 C   0  0  0  0  0  0  0  0  0  0  0  0
   26.7184  -17.4881  -16.8589 C   0  0  0  0  0  0  0  0  0  0  0  0
   28.0515  -17.3412  -16.5734 C   0  0  0  0  0  0  0  0  0  0  0  0
   28.4967  -17.7947  -15.3464 C   0  0  0  0  0  0  0  0  0  0  0  0
   27.6499  -18.3709  -14.4410 C   0  0  0  0  0  0  0  0  0  0  0  0
   26.3068  -18.5187  -14.7271 C   0  0  0  0  0  0  0  0  0  0  0  0
   26.2194  -20.9447  -11.0065 C   0  0  0  0  0  0  0  0  0  0  0  0
   25.7520  -22.0523  -10.6575 O   0  0  0  0  0  0  0  0  0  0  0  0
   26.6726  -20.0533  -10.0237 N   0  0  0  0  0  0  0  0  0  0  0  0
   26.6541  -20.3254   -8.6166 C   0  0  1  0  0  0  0  0  0  0  0  0
   27.4298  -19.3129   -7.8138 C   0  0  0  0  0  0  0  0  0  0  0  0
   27.6232  -19.6652   -6.4134 C   0  0  0  0  0  0  0  0  0  0  0  0
   27.6051  -20.9813   -6.0157 C   0  0  0  0  0  0  0  0  0  0  0  0
   27.7890  -21.3330   -4.6750 C   0  0  0  0  0  0  0  0  0  0  0  0
   27.9947  -20.3796   -3.7032 C   0  0  0  0  0  0  0  0  0  0  0  0
   28.0128  -19.0526   -4.1049 C   0  0  0  0  0  0  0  0  0  0  0  0
   27.8319  -18.7368   -5.4108 C   0  0  0  0  0  0  0  0  0  0  0  0
   25.3095  -20.4810   -8.0682 C   0  0  0  0  0  0  0  0  0  0  0  0
   24.4300  -19.6349   -8.4018 O   0  0  0  0  0  0  0  0  0  0  0  0
   24.8794  -21.5068   -7.1786 N   0  0  0  0  0  0  0  0  0  0  0  0
   23.5087  -21.6097   -6.7210 C   0  0  1  0  0  0  0  0  0  0  0  0
   23.0472  -23.0553   -6.6080 C   0  0  0  0  0  0  0  0  0  0  0  0
   21.6258  -23.1315   -6.2166 C   0  0  0  0  0  0  0  0  0  0  0  0
   21.1908  -24.2006   -5.7197 O   0  0  0  0  0  0  0  0  0  0  0  0
   23.4735  -21.0502   -5.3250 C   0  0  0  0  0  0  0  0  0  0  0  0
   24.5300  -21.0121   -4.6359 O   0  0  0  0  0  0  0  0  0  0  0  0
   20.7241  -22.0846   -6.3631 O   0  0  0  0  0  0  0  0  0  0  0  0
   22.2837  -20.5805   -4.8043 O   0  0  0  0  0  0  0  0  0  0  0  0
  2  1  1  6
  2  3  1  0
  4  5  2  0
  4  3  1  0
  6  5  1  0
  7 12  2  0
  7  6  1  0
  8  7  1  0
  9  8  2  0
  9 10  1  0
 10 11  2  0
 11 12  1  0
 12  4  1  0
 13 14  2  0
 13  2  1  0
 15 13  1  0
 16 24  1  0
 16 15  1  0
 16 17  1  1
 18 17  1  0
 19 18  2  0
 20 19  1  0
 21 22  1  0
 21 20  2  0
 22 23  2  0
 23 18  1  0
 24 26  1  0
 25 24  2  0
 26 27  1  0
 27 31  1  0
 27 28  1  1
 29 28  1  0
 30 29  2  0
 31 32  2  0
 31 34  1  0
 33 29  1  0
M  END
$$$$
