WFD.pdb
     RDKit          3D

 34 36  0  0  1  0  0  0  0  0999 V2000
   26.1505  -22.1230  -13.0957 N   0  0  0  0  0  0  0  0  0  0  0  0
   26.4703  -20.9204  -12.4118 C   0  0  1  0  0  0  0  0  0  0  0  0
   25.6103  -19.7434  -12.6692 C   0  0  0  0  0  0  0  0  0  0  0  0
   25.7457  -19.0973  -13.9800 C   0  0  0  0  0  0  0  0  0  0  0  0
   24.7109  -18.5760  -14.7641 C   0  0  0  0  0  0  0  0  0  0  0  0
   25.2760  -18.0733  -15.8656 N   0  0  0  0  0  0  0  0  0  0  0  0
   26.6194  -18.2456  -15.8285 C   0  0  0  0  0  0  0  0  0  0  0  0
   27.6207  -17.9087  -16.7129 C   0  0  0  0  0  0  0  0  0  0  0  0
   28.9388  -18.1925  -16.4633 C   0  0  0  0  0  0  0  0  0  0  0  0
   29.2412  -18.8373  -15.2791 C   0  0  0  0  0  0  0  0  0  0  0  0
   28.2714  -19.1855  -14.3806 C   0  0  0  0  0  0  0  0  0  0  0  0
   26.9436  -18.8995  -14.6306 C   0  0  0  0  0  0  0  0  0  0  0  0
   26.4468  -21.1730  -10.9417 C   0  0  0  0  0  0  0  0  0  0  0  0
   25.7110  -22.0939  -10.5203 O   0  0  0  0  0  0  0  0  0  0  0  0
   27.2062  -20.4310  -10.0259 N   0  0  0  0  0  0  0  0  0  0  0  0
   27.1616  -20.6137   -8.6050 C   0  0  1  0  0  0  0  0  0  0  0  0
   28.1223  -19.7159   -7.8684 C   0  0  0  0  0  0  0  0  0  0  0  0
   28.1153  -19.8743   -6.4203 C   0  0  0  0  0  0  0  0  0  0  0  0
   27.8782  -18.7958   -5.6011 C   0  0  0  0  0  0  0  0  0  0  0  0
   27.8690  -18.9340   -4.2097 C   0  0  0  0  0  0  0  0  0  0  0  0
   28.0962  -20.1506   -3.6066 C   0  0  0  0  0  0  0  0  0  0  0  0
   28.3353  -21.2379   -4.4332 C   0  0  0  0  0  0  0  0  0  0  0  0
   28.3392  -21.0785   -5.7794 C   0  0  0  0  0  0  0  0  0  0  0  0
   25.8205  -20.4887   -8.0405 C   0  0  0  0  0  0  0  0  0  0  0  0
   25.1190  -19.4953   -8.3895 O   0  0  0  0  0  0  0  0  0  0  0  0
   25.2106  -21.3874   -7.1190 N   0  0  0  0  0  0  0  0  0  0  0  0
   23.8384  -21.2330   -6.6807 C   0  0  1  0  0  0  0  0  0  0  0  0
   22.9621  -22.3993   -7.1132 C   0  0  0  0  0  0  0  0  0  0  0  0
   21.5843  -22.2473   -6.6051 C   0  0  0  0  0  0  0  0  0  0  0  0
   21.1756  -21.0998   -6.2965 O   0  0  0  0  0  0  0  0  0  0  0  0
   23.8570  -21.2603   -5.1768 C   0  0  0  0  0  0  0  0  0  0  0  0
   22.7798  -21.1318   -4.5320 O   0  0  0  0  0  0  0  0  0  0  0  0
   20.6967  -23.3040   -6.4432 O   0  0  0  0  0  0  0  0  0  0  0  0
   25.0542  -21.4263   -4.5086 O   0  0  0  0  0  0  0  0  0  0  0  0
  2  1  1  6
  2  3  1  0
  4  5  2  0
  4  3  1  0
  6  5  1  0
  7 12  2  0
  7  6  1  0
  8  7  1  0
  9  8  2  0
  9 10  1  0
 10 11  2  0
 11 12  1  0
 12  4  1  0
 13 14  2  0
 13  2  1  0
 15 13  1  0
 16 24  1  0
 16 15  1  0
 16 17  1  1
 18 17  1  0
 19 18  2  0
 20 19  1  0
 21 22  1  0
 21 20  2  0
 22 23  2  0
 23 18  1  0
 24 26  1  0
 25 24  2  0
 26 27  1  0
 27 31  1  0
 27 28  1  6
 29 28  1  0
 30 29  2  0
 31 32  2  0
 31 34  1  0
 33 29  1  0
M  END
$$$$
