WFD.pdb
     RDKit          3D

 34 36  0  0  1  0  0  0  0  0999 V2000
   26.6895  -18.6465  -18.5096 N   0  0  0  0  0  0  0  0  0  0  0  0
   26.4125  -17.9571  -17.2996 C   0  0  1  0  0  0  0  0  0  0  0  0
   25.3936  -16.8844  -17.3471 C   0  0  0  0  0  0  0  0  0  0  0  0
   25.8603  -15.5424  -17.7146 C   0  0  0  0  0  0  0  0  0  0  0  0
   25.6902  -14.9093  -18.9505 C   0  0  0  0  0  0  0  0  0  0  0  0
   26.2543  -13.7024  -18.8477 N   0  0  0  0  0  0  0  0  0  0  0  0
   26.7776  -13.5291  -17.6099 C   0  0  0  0  0  0  0  0  0  0  0  0
   27.4514  -12.4772  -17.0288 C   0  0  0  0  0  0  0  0  0  0  0  0
   27.9024  -12.5272  -15.7348 C   0  0  0  0  0  0  0  0  0  0  0  0
   27.6585  -13.6821  -15.0165 C   0  0  0  0  0  0  0  0  0  0  0  0
   26.9932  -14.7437  -15.5637 C   0  0  0  0  0  0  0  0  0  0  0  0
   26.5378  -14.6943  -16.8666 C   0  0  0  0  0  0  0  0  0  0  0  0
   25.9733  -18.9397  -16.2666 C   0  0  0  0  0  0  0  0  0  0  0  0
   25.7268  -20.1083  -16.6414 O   0  0  0  0  0  0  0  0  0  0  0  0
   25.8286  -18.6113  -14.9112 N   0  0  0  0  0  0  0  0  0  0  0  0
   25.4856  -19.5513  -13.8850 C   0  0  1  0  0  0  0  0  0  0  0  0
   26.1735  -19.2653  -12.5748 C   0  0  0  0  0  0  0  0  0  0  0  0
   25.7947  -20.1512  -11.4821 C   0  0  0  0  0  0  0  0  0  0  0  0
   26.2686  -21.4410  -11.4327 C   0  0  0  0  0  0  0  0  0  0  0  0
   25.9126  -22.3016  -10.3899 C   0  0  0  0  0  0  0  0  0  0  0  0
   25.0765  -21.8939   -9.3748 C   0  0  0  0  0  0  0  0  0  0  0  0
   24.5990  -20.5932   -9.4251 C   0  0  0  0  0  0  0  0  0  0  0  0
   24.9584  -19.7778  -10.4467 C   0  0  0  0  0  0  0  0  0  0  0  0
   24.0469  -19.6938  -13.6788 C   0  0  0  0  0  0  0  0  0  0  0  0
   23.3917  -18.6685  -13.3320 O   0  0  0  0  0  0  0  0  0  0  0  0
   23.2919  -20.8920  -13.8302 N   0  0  0  0  0  0  0  0  0  0  0  0
   21.8707  -20.9512  -13.5551 C   0  0  1  0  0  0  0  0  0  0  0  0
   21.2756  -22.3099  -13.8940 C   0  0  0  0  0  0  0  0  0  0  0  0
   19.9191  -22.1710  -14.4600 C   0  0  0  0  0  0  0  0  0  0  0  0
   19.3870  -21.0330  -14.4855 O   0  0  0  0  0  0  0  0  0  0  0  0
   21.7084  -20.7835  -12.0690 C   0  0  0  0  0  0  0  0  0  0  0  0
   22.4471  -21.4331  -11.2784 O   0  0  0  0  0  0  0  0  0  0  0  0
   19.1813  -23.2303  -14.9739 O   0  0  0  0  0  0  0  0  0  0  0  0
   20.7508  -19.9186  -11.5769 O   0  0  0  0  0  0  0  0  0  0  0  0
  2  1  1  6
  2  3  1  0
  4  5  2  0
  4  3  1  0
  6  5  1  0
  7 12  2  0
  7  6  1  0
  8  7  1  0
  9  8  2  0
  9 10  1  0
 10 11  2  0
 11 12  1  0
 12  4  1  0
 13 14  2  0
 13  2  1  0
 15 13  1  0
 16 24  1  0
 16 15  1  0
 16 17  1  1
 18 17  1  0
 19 18  2  0
 20 19  1  0
 21 22  1  0
 21 20  2  0
 22 23  2  0
 23 18  1  0
 24 26  1  0
 25 24  2  0
 26 27  1  0
 27 31  1  0
 27 28  1  1
 29 28  1  0
 30 29  2  0
 31 32  2  0
 31 34  1  0
 33 29  1  0
M  END
$$$$
