WFD.pdb
     RDKit          3D

 34 36  0  0  1  0  0  0  0  0999 V2000
   25.7502   -9.7257  -18.1193 N   0  0  0  0  0  0  0  0  0  0  0  0
   25.1500   -8.5695  -18.6841 C   0  0  1  0  0  0  0  0  0  0  0  0
   23.9017   -8.7607  -19.4563 C   0  0  0  0  0  0  0  0  0  0  0  0
   24.0011   -9.5423  -20.6945 C   0  0  0  0  0  0  0  0  0  0  0  0
   25.1412  -10.1885  -21.1840 C   0  0  0  0  0  0  0  0  0  0  0  0
   24.7867  -10.7872  -22.3247 N   0  0  0  0  0  0  0  0  0  0  0  0
   23.4783  -10.5582  -22.5920 C   0  0  0  0  0  0  0  0  0  0  0  0
   22.6632  -10.9507  -23.6311 C   0  0  0  0  0  0  0  0  0  0  0  0
   21.3424  -10.5884  -23.6976 C   0  0  0  0  0  0  0  0  0  0  0  0
   20.8419   -9.8046  -22.6756 C   0  0  0  0  0  0  0  0  0  0  0  0
   21.6239   -9.3979  -21.6306 C   0  0  0  0  0  0  0  0  0  0  0  0
   22.9542   -9.7629  -21.5622 C   0  0  0  0  0  0  0  0  0  0  0  0
   24.8529   -7.5923  -17.5967 C   0  0  0  0  0  0  0  0  0  0  0  0
   24.4455   -8.0439  -16.5027 O   0  0  0  0  0  0  0  0  0  0  0  0
   25.0106   -6.2074  -17.7490 N   0  0  0  0  0  0  0  0  0  0  0  0
   24.7913   -5.2503  -16.7048 C   0  0  1  0  0  0  0  0  0  0  0  0
   25.5395   -3.9608  -16.9254 C   0  0  0  0  0  0  0  0  0  0  0  0
   25.1026   -3.1940  -18.0845 C   0  0  0  0  0  0  0  0  0  0  0  0
   25.6854   -3.3939  -19.3138 C   0  0  0  0  0  0  0  0  0  0  0  0
   25.2758   -2.6646  -20.4343 C   0  0  0  0  0  0  0  0  0  0  0  0
   24.2767   -1.7208  -20.3519 C   0  0  0  0  0  0  0  0  0  0  0  0
   23.6895   -1.5197  -19.1121 C   0  0  0  0  0  0  0  0  0  0  0  0
   24.1041   -2.2392  -18.0406 C   0  0  0  0  0  0  0  0  0  0  0  0
   23.3798   -4.9771  -16.4482 C   0  0  0  0  0  0  0  0  0  0  0  0
   22.5689   -5.0825  -17.4136 O   0  0  0  0  0  0  0  0  0  0  0  0
   22.8123   -4.5959  -15.1987 N   0  0  0  0  0  0  0  0  0  0  0  0
   21.4092   -4.2649  -15.0548 C   0  0  1  0  0  0  0  0  0  0  0  0
   20.5697   -5.4743  -14.6703 C   0  0  0  0  0  0  0  0  0  0  0  0
   19.1527   -5.1024  -14.4869 C   0  0  0  0  0  0  0  0  0  0  0  0
   18.7932   -4.6090  -13.3886 O   0  0  0  0  0  0  0  0  0  0  0  0
   21.3057   -3.3021  -13.9037 C   0  0  0  0  0  0  0  0  0  0  0  0
   22.2581   -3.1993  -13.0821 O   0  0  0  0  0  0  0  0  0  0  0  0
   18.1763   -5.2640  -15.4621 O   0  0  0  0  0  0  0  0  0  0  0  0
   20.1676   -2.5346  -13.7517 O   0  0  0  0  0  0  0  0  0  0  0  0
  2  1  1  1
  2  3  1  0
  4  5  2  0
  4  3  1  0
  6  5  1  0
  7 12  2  0
  7  6  1  0
  8  7  1  0
  9  8  2  0
  9 10  1  0
 10 11  2  0
 11 12  1  0
 12  4  1  0
 13 14  2  0
 13  2  1  0
 15 13  1  0
 16 24  1  0
 16 15  1  0
 16 17  1  6
 18 17  1  0
 19 18  2  0
 20 19  1  0
 21 22  1  0
 21 20  2  0
 22 23  2  0
 23 18  1  0
 24 26  1  0
 25 24  2  0
 26 27  1  0
 27 31  1  0
 27 28  1  1
 29 28  1  0
 30 29  2  0
 31 32  2  0
 31 34  1  0
 33 29  1  0
M  END
$$$$
