RVQ.pdb
     RDKit          3D

 28 27  0  0  1  0  0  0  0  0999 V2000
   19.0898  -24.0878   -7.0191 N   0  0  0  0  0  0  0  0  0  0  0  0
   18.1112  -24.5369   -7.9477 C   0  0  0  0  0  0  0  0  0  0  0  0
   16.9447  -24.8585   -7.5137 N   0  0  0  0  0  0  0  0  0  0  0  0
   18.3860  -24.6396   -9.3356 N   0  0  0  0  0  0  0  0  0  0  0  0
   19.4499  -23.8994   -9.9506 C   0  0  0  0  0  0  0  0  0  0  0  0
   18.9464  -22.7014  -10.7164 C   0  0  0  0  0  0  0  0  0  0  0  0
   20.0916  -22.0321  -11.4106 C   0  0  0  0  0  0  0  0  0  0  0  0
   20.8671  -21.0945  -10.5159 C   0  0  2  0  0  0  0  0  0  0  0  0
   19.9597  -20.0734  -10.0445 N   0  0  0  0  0  0  0  0  0  0  0  0
   22.0098  -20.5154  -11.2824 C   0  0  0  0  0  0  0  0  0  0  0  0
   21.7649  -19.5062  -12.0108 O   0  0  0  0  0  0  0  0  0  0  0  0
   16.1801  -25.2109   -8.1256 C   0  0  0  0  0  0  0  0  0  0  0  0
   26.1686  -22.1235  -11.6315 C   0  0  1  0  0  0  0  0  0  0  0  0
   25.6983  -20.7248  -11.3209 C   0  0  0  0  0  0  0  0  0  0  0  0
   25.5966  -20.4298   -9.8588 C   0  0  1  0  0  0  0  0  0  0  0  0
   24.3708  -20.4077  -11.9792 N   0  0  0  0  0  0  0  0  0  0  0  0
   23.3321  -21.0364  -11.2315 C   0  0  0  0  0  0  0  0  0  0  0  0
   24.3586  -20.7532  -13.4204 O   0  0  0  0  0  0  0  0  0  0  0  0
   24.3110  -21.9733  -13.7230 N   0  0  0  0  0  0  0  0  0  0  0  0
   19.5692  -20.1805  -16.7662 C   0  0  0  0  0  0  0  0  0  0  0  0
   20.8107  -19.5040  -16.7911 O   0  0  0  0  0  0  0  0  0  0  0  0
   20.9175  -18.4081  -17.3963 C   0  0  0  0  0  0  0  0  0  0  0  0
   21.9706  -20.0976  -16.1023 C   0  0  0  0  0  0  0  0  0  0  0  0
   23.2838  -19.6296  -16.6787 C   0  0  2  0  0  0  0  0  0  0  0  0
   24.4312  -20.1412  -15.8669 N   0  0  0  0  0  0  0  0  0  0  0  0
   24.3966  -19.8175  -14.4800 C   0  0  0  0  0  0  0  0  0  0  0  0
   25.6871  -19.7370  -16.5486 O   0  0  0  0  0  0  0  0  0  0  0  0
   25.9518  -20.1101  -17.7136 O   0  0  0  0  0  0  0  0  0  0  0  0
  2  1  1  0
  3  2  2  0
  4  2  1  0
  5  4  1  0
  6  5  1  0
  7  6  1  0
  8  7  1  0
  8  9  1  6
 10  8  1  0
 10 11  2  0
 13 14  1  1
 13 12  1  0
 15 16  1  1
 15 13  1  0
 16 10  1  0
 17 15  1  0
 18 17  2  0
 20 21  2  0
 20 19  1  0
 22 20  1  0
 23 22  1  0
 24 23  1  1
 24 25  1  0
 25 17  1  0
 26 28  1  0
 26 24  1  0
 27 26  2  0
M  END
$$$$
