RVQ.pdb
     RDKit          3D

 28 27  0  0  1  0  0  0  0  0999 V2000
   25.9134  -18.9478  -19.7396 N   0  0  0  0  0  0  0  0  0  0  0  0
   26.3800  -17.6311  -19.4745 C   0  0  0  0  0  0  0  0  0  0  0  0
   26.3836  -16.7696  -20.4287 N   0  0  0  0  0  0  0  0  0  0  0  0
   26.8406  -17.2433  -18.1901 N   0  0  0  0  0  0  0  0  0  0  0  0
   27.8306  -18.0034  -17.4827 C   0  0  0  0  0  0  0  0  0  0  0  0
   27.2187  -19.0781  -16.6193 C   0  0  0  0  0  0  0  0  0  0  0  0
   27.7820  -18.9908  -15.2348 C   0  0  0  0  0  0  0  0  0  0  0  0
   28.0289  -20.3406  -14.6040 C   0  0  2  0  0  0  0  0  0  0  0  0
   28.3145  -21.2829  -15.6617 N   0  0  0  0  0  0  0  0  0  0  0  0
   26.8295  -20.7394  -13.8096 C   0  0  0  0  0  0  0  0  0  0  0  0
   26.0314  -21.5678  -14.3444 O   0  0  0  0  0  0  0  0  0  0  0  0
   26.7256  -15.7926  -20.3206 C   0  0  0  0  0  0  0  0  0  0  0  0
   26.8671  -20.8359   -9.6844 C   0  0  1  0  0  0  0  0  0  0  0  0
   25.5962  -20.3308  -10.3199 C   0  0  0  0  0  0  0  0  0  0  0  0
   24.3551  -20.7085   -9.5769 C   0  0  2  0  0  0  0  0  0  0  0  0
   25.4602  -20.7774  -11.7615 N   0  0  0  0  0  0  0  0  0  0  0  0
   26.5504  -20.2405  -12.5075 C   0  0  0  0  0  0  0  0  0  0  0  0
   24.1316  -20.4499  -12.3309 O   0  0  0  0  0  0  0  0  0  0  0  0
   23.8712  -19.2356  -12.5318 N   0  0  0  0  0  0  0  0  0  0  0  0
   20.0202  -23.7615  -15.9142 C   0  0  0  0  0  0  0  0  0  0  0  0
   19.2970  -22.6055  -15.5398 O   0  0  0  0  0  0  0  0  0  0  0  0
   18.1323  -22.4243  -15.9748 C   0  0  0  0  0  0  0  0  0  0  0  0
   19.9234  -21.6220  -14.6384 C   0  0  0  0  0  0  0  0  0  0  0  0
   21.2783  -22.0703  -14.1496 C   0  0  2  0  0  0  0  0  0  0  0  0
   21.8400  -21.0886  -13.1710 N   0  0  0  0  0  0  0  0  0  0  0  0
   23.1356  -21.3964  -12.6649 C   0  0  0  0  0  0  0  0  0  0  0  0
   20.8194  -20.8629  -12.1160 O   0  0  0  0  0  0  0  0  0  0  0  0
   20.8991  -21.4151  -10.9956 O   0  0  0  0  0  0  0  0  0  0  0  0
  2  1  1  0
  3  2  2  0
  4  2  1  0
  5  4  1  0
  6  5  1  0
  7  6  1  0
  8  7  1  0
  8  9  1  6
 10  8  1  0
 10 11  2  0
 13 14  1  6
 13 12  1  0
 15 16  1  6
 15 13  1  0
 16 10  1  0
 17 15  1  0
 18 17  2  0
 20 21  2  0
 20 19  1  0
 22 20  1  0
 23 22  1  0
 24 23  1  6
 24 25  1  0
 25 17  1  0
 26 28  1  0
 26 24  1  0
 27 26  2  0
M  END
$$$$
