RVQ.pdb
     RDKit          3D

 28 27  0  0  1  0  0  0  0  0999 V2000
   26.3953  -25.4723  -16.7345 N   0  0  0  0  0  0  0  0  0  0  0  0
   27.2768  -24.3781  -16.9521 C   0  0  0  0  0  0  0  0  0  0  0  0
   28.5397  -24.5565  -16.7913 N   0  0  0  0  0  0  0  0  0  0  0  0
   26.8024  -23.0989  -17.3403 N   0  0  0  0  0  0  0  0  0  0  0  0
   27.6973  -22.0033  -17.5793 C   0  0  0  0  0  0  0  0  0  0  0  0
   28.1257  -21.3244  -16.3024 C   0  0  0  0  0  0  0  0  0  0  0  0
   27.1720  -20.2166  -15.9787 C   0  0  0  0  0  0  0  0  0  0  0  0
   27.2060  -19.0870  -16.9807 C   0  0  2  0  0  0  0  0  0  0  0  0
   28.3952  -18.3045  -16.7322 N   0  0  0  0  0  0  0  0  0  0  0  0
   25.9628  -18.2717  -16.8456 C   0  0  0  0  0  0  0  0  0  0  0  0
   25.7962  -17.6482  -15.7535 O   0  0  0  0  0  0  0  0  0  0  0  0
   29.2467  -23.8013  -16.9054 C   0  0  0  0  0  0  0  0  0  0  0  0
   24.4896  -15.8016  -19.3876 C   0  0  1  0  0  0  0  0  0  0  0  0
   23.3907  -16.7082  -18.8933 C   0  0  0  0  0  0  0  0  0  0  0  0
   22.0848  -16.0144  -18.6738 C   0  0  2  0  0  0  0  0  0  0  0  0
   23.7784  -17.4378  -17.6230 N   0  0  0  0  0  0  0  0  0  0  0  0
   24.9790  -18.1673  -17.8672 C   0  0  0  0  0  0  0  0  0  0  0  0
   22.6741  -18.2712  -17.0913 O   0  0  0  0  0  0  0  0  0  0  0  0
   22.8631  -19.5136  -17.0323 N   0  0  0  0  0  0  0  0  0  0  0  0
   20.6826  -19.6718  -11.1069 C   0  0  0  0  0  0  0  0  0  0  0  0
   20.0587  -18.9962  -12.1810 O   0  0  0  0  0  0  0  0  0  0  0  0
   19.4048  -17.9448  -11.9675 C   0  0  0  0  0  0  0  0  0  0  0  0
   20.1846  -19.5382  -13.5458 C   0  0  0  0  0  0  0  0  0  0  0  0
   21.1550  -18.7507  -14.3907 C   0  0  2  0  0  0  0  0  0  0  0  0
   20.5592  -18.4333  -15.7254 N   0  0  0  0  0  0  0  0  0  0  0  0
   21.4260  -17.7776  -16.6462 C   0  0  0  0  0  0  0  0  0  0  0  0
   19.2769  -17.7210  -15.4935 O   0  0  0  0  0  0  0  0  0  0  0  0
   19.2275  -16.4750  -15.3854 O   0  0  0  0  0  0  0  0  0  0  0  0
  2  1  1  0
  3  2  2  0
  4  2  1  0
  5  4  1  0
  6  5  1  0
  7  6  1  0
  8  7  1  0
  8  9  1  1
 10  8  1  0
 10 11  2  0
 13 14  1  1
 13 12  1  0
 15 16  1  1
 15 13  1  0
 16 10  1  0
 17 15  1  0
 18 17  2  0
 20 21  2  0
 20 19  1  0
 22 20  1  0
 23 22  1  0
 24 23  1  6
 24 25  1  0
 25 17  1  0
 26 28  1  0
 26 24  1  0
 27 26  2  0
M  END
$$$$
