RVQ.pdb
     RDKit          3D

 28 27  0  0  1  0  0  0  0  0999 V2000
   23.9653  -22.8561  -13.5913 N   0  0  0  0  0  0  0  0  0  0  0  0
   25.3076  -23.2413  -13.8587 C   0  0  0  0  0  0  0  0  0  0  0  0
   25.5247  -24.2122  -14.6729 N   0  0  0  0  0  0  0  0  0  0  0  0
   26.4105  -22.5857  -13.2536 N   0  0  0  0  0  0  0  0  0  0  0  0
   26.2299  -21.5064  -12.3258 C   0  0  0  0  0  0  0  0  0  0  0  0
   27.1912  -20.3709  -12.5738 C   0  0  0  0  0  0  0  0  0  0  0  0
   26.4439  -19.1881  -13.1067 C   0  0  0  0  0  0  0  0  0  0  0  0
   26.4359  -19.1166  -14.6153 C   0  0  2  0  0  0  0  0  0  0  0  0
   27.7271  -18.6321  -15.0468 N   0  0  0  0  0  0  0  0  0  0  0  0
   25.3266  -18.2218  -15.0597 C   0  0  0  0  0  0  0  0  0  0  0  0
   25.4556  -16.9816  -14.8262 O   0  0  0  0  0  0  0  0  0  0  0  0
   26.4764  -24.5244  -14.9554 C   0  0  0  0  0  0  0  0  0  0  0  0
   22.2924  -19.2512  -17.9018 C   0  0  1  0  0  0  0  0  0  0  0  0
   22.8173  -17.8884  -17.5257 C   0  0  0  0  0  0  0  0  0  0  0  0
   24.0314  -17.4732  -18.2930 C   0  0  1  0  0  0  0  0  0  0  0  0
   23.1117  -17.7774  -16.0435 N   0  0  0  0  0  0  0  0  0  0  0  0
   24.1572  -18.6910  -15.7189 C   0  0  0  0  0  0  0  0  0  0  0  0
   21.8961  -17.9453  -15.2124 O   0  0  0  0  0  0  0  0  0  0  0  0
   21.9272  -18.8231  -14.3117 N   0  0  0  0  0  0  0  0  0  0  0  0
   19.9611  -19.2984  -11.2736 C   0  0  0  0  0  0  0  0  0  0  0  0
   18.6733  -18.7301  -11.4085 O   0  0  0  0  0  0  0  0  0  0  0  0
   17.7127  -19.1836  -10.7377 C   0  0  0  0  0  0  0  0  0  0  0  0
   18.4739  -17.6060  -12.3405 C   0  0  0  0  0  0  0  0  0  0  0  0
   19.7365  -17.2414  -13.0813 C   0  0  2  0  0  0  0  0  0  0  0  0
   19.5334  -17.3486  -14.5592 N   0  0  0  0  0  0  0  0  0  0  0  0
   20.7055  -17.1958  -15.3544 C   0  0  0  0  0  0  0  0  0  0  0  0
   18.4272  -16.4315  -14.9344 O   0  0  0  0  0  0  0  0  0  0  0  0
   18.6373  -15.3745  -15.5710 O   0  0  0  0  0  0  0  0  0  0  0  0
  2  1  1  0
  3  2  2  0
  4  2  1  0
  5  4  1  0
  6  5  1  0
  7  6  1  0
  8  7  1  0
  8  9  1  1
 10  8  1  0
 10 11  2  0
 13 14  1  6
 13 12  1  0
 15 16  1  6
 15 13  1  0
 16 10  1  0
 17 15  1  0
 18 17  2  0
 20 21  2  0
 20 19  1  0
 22 20  1  0
 23 22  1  0
 24 23  1  1
 24 25  1  0
 25 17  1  0
 26 28  1  0
 26 24  1  0
 27 26  2  0
M  END
$$$$
