RVQ.pdb
     RDKit          3D

 28 27  0  0  1  0  0  0  0  0999 V2000
   29.8255  -20.8300  -19.2147 N   0  0  0  0  0  0  0  0  0  0  0  0
   29.6647  -19.4202  -19.3054 C   0  0  0  0  0  0  0  0  0  0  0  0
   29.7812  -18.8544  -20.4539 N   0  0  0  0  0  0  0  0  0  0  0  0
   29.3804  -18.6231  -18.1669 N   0  0  0  0  0  0  0  0  0  0  0  0
   28.7922  -19.1813  -16.9834 C   0  0  0  0  0  0  0  0  0  0  0  0
   27.3101  -19.4157  -17.1361 C   0  0  0  0  0  0  0  0  0  0  0  0
   26.6659  -19.4516  -15.7851 C   0  0  0  0  0  0  0  0  0  0  0  0
   27.2859  -20.4668  -14.8544 C   0  0  2  0  0  0  0  0  0  0  0  0
   27.9243  -21.4816  -15.6610 N   0  0  0  0  0  0  0  0  0  0  0  0
   26.2251  -21.0391  -13.9735 C   0  0  0  0  0  0  0  0  0  0  0  0
   25.2817  -21.6701  -14.5400 O   0  0  0  0  0  0  0  0  0  0  0  0
   29.7232  -17.8252  -20.5969 C   0  0  0  0  0  0  0  0  0  0  0  0
   25.1902  -19.7296   -9.8092 C   0  0  1  0  0  0  0  0  0  0  0  0
   25.3771  -21.1300  -10.3366 C   0  0  0  0  0  0  0  0  0  0  0  0
   26.7424  -21.6906  -10.0982 C   0  0  1  0  0  0  0  0  0  0  0  0
   25.0551  -21.2332  -11.8137 N   0  0  0  0  0  0  0  0  0  0  0  0
   26.2278  -20.9092  -12.5573 C   0  0  0  0  0  0  0  0  0  0  0  0
   23.8702  -20.4267  -12.1909 O   0  0  0  0  0  0  0  0  0  0  0  0
   24.0666  -19.4045  -12.8973 N   0  0  0  0  0  0  0  0  0  0  0  0
   21.5039  -23.7754  -15.7780 C   0  0  0  0  0  0  0  0  0  0  0  0
   20.5008  -22.7799  -15.8252 O   0  0  0  0  0  0  0  0  0  0  0  0
   19.7291  -22.7114  -16.8144 C   0  0  0  0  0  0  0  0  0  0  0  0
   20.3731  -21.8296  -14.7060 C   0  0  0  0  0  0  0  0  0  0  0  0
   21.5893  -21.8245  -13.8135 C   0  0  2  0  0  0  0  0  0  0  0  0
   21.4340  -20.8247  -12.7119 N   0  0  0  0  0  0  0  0  0  0  0  0
   22.5377  -20.7177  -11.8176 C   0  0  0  0  0  0  0  0  0  0  0  0
   20.1366  -21.0872  -12.0387 O   0  0  0  0  0  0  0  0  0  0  0  0
   20.0785  -21.4461  -10.8410 O   0  0  0  0  0  0  0  0  0  0  0  0
  2  1  1  0
  3  2  2  0
  4  2  1  0
  5  4  1  0
  6  5  1  0
  7  6  1  0
  8  7  1  0
  8  9  1  6
 10  8  1  0
 10 11  2  0
 13 14  1  1
 13 12  1  0
 15 16  1  1
 15 13  1  0
 16 10  1  0
 17 15  1  0
 18 17  2  0
 20 21  2  0
 20 19  1  0
 22 20  1  0
 23 22  1  0
 24 23  1  6
 24 25  1  0
 25 17  1  0
 26 28  1  0
 26 24  1  0
 27 26  2  0
M  END
$$$$
