RVQ.pdb
     RDKit          3D

 28 27  0  0  1  0  0  0  0  0999 V2000
   19.8542  -23.3412   -7.4190 N   0  0  0  0  0  0  0  0  0  0  0  0
   18.9046  -23.0792   -8.4442 C   0  0  0  0  0  0  0  0  0  0  0  0
   17.7003  -23.5047   -8.2988 N   0  0  0  0  0  0  0  0  0  0  0  0
   19.2486  -22.3636   -9.6198 N   0  0  0  0  0  0  0  0  0  0  0  0
   20.6136  -22.1956  -10.0281 C   0  0  0  0  0  0  0  0  0  0  0  0
   21.3148  -21.1101   -9.2504 C   0  0  0  0  0  0  0  0  0  0  0  0
   22.3589  -20.4703  -10.1118 C   0  0  0  0  0  0  0  0  0  0  0  0
   23.3219  -21.4623  -10.7199 C   0  0  2  0  0  0  0  0  0  0  0  0
   24.0267  -22.1191   -9.6429 N   0  0  0  0  0  0  0  0  0  0  0  0
   24.2524  -20.7441  -11.6402 C   0  0  0  0  0  0  0  0  0  0  0  0
   23.8172  -19.6897  -12.1951 O   0  0  0  0  0  0  0  0  0  0  0  0
   16.9533  -23.3725   -9.0112 C   0  0  0  0  0  0  0  0  0  0  0  0
   28.2358  -20.6614  -11.0529 C   0  0  1  0  0  0  0  0  0  0  0  0
   27.8591  -20.8002  -12.5065 C   0  0  0  0  0  0  0  0  0  0  0  0
   28.7443  -20.0361  -13.4380 C   0  0  2  0  0  0  0  0  0  0  0  0
   26.4187  -20.4067  -12.7647 N   0  0  0  0  0  0  0  0  0  0  0  0
   25.5770  -21.1827  -11.9148 C   0  0  0  0  0  0  0  0  0  0  0  0
   26.0581  -20.4947  -14.1996 O   0  0  0  0  0  0  0  0  0  0  0  0
   26.0092  -21.6412  -14.7150 N   0  0  0  0  0  0  0  0  0  0  0  0
   21.9852  -17.2130  -17.6469 C   0  0  0  0  0  0  0  0  0  0  0  0
   22.5194  -18.1570  -18.5540 O   0  0  0  0  0  0  0  0  0  0  0  0
   22.0075  -18.2936  -19.6933 C   0  0  0  0  0  0  0  0  0  0  0  0
   23.6771  -18.9737  -18.1481 C   0  0  0  0  0  0  0  0  0  0  0  0
   24.1129  -18.6910  -16.7318 C   0  0  2  0  0  0  0  0  0  0  0  0
   25.3442  -19.4687  -16.3911 N   0  0  0  0  0  0  0  0  0  0  0  0
   25.7657  -19.3900  -15.0326 C   0  0  0  0  0  0  0  0  0  0  0  0
   26.3988  -19.1035  -17.3709 O   0  0  0  0  0  0  0  0  0  0  0  0
   27.2345  -18.2029  -17.1319 O   0  0  0  0  0  0  0  0  0  0  0  0
  2  1  1  0
  3  2  2  0
  4  2  1  0
  5  4  1  0
  6  5  1  0
  7  6  1  0
  8  7  1  0
  8  9  1  1
 10  8  1  0
 10 11  2  0
 13 14  1  1
 13 12  1  0
 15 16  1  1
 15 13  1  0
 16 10  1  0
 17 15  1  0
 18 17  2  0
 20 21  2  0
 20 19  1  0
 22 20  1  0
 23 22  1  0
 24 23  1  1
 24 25  1  0
 25 17  1  0
 26 28  1  0
 26 24  1  0
 27 26  2  0
M  END
$$$$
