RVQ.pdb
     RDKit          3D

 28 27  0  0  1  0  0  0  0  0999 V2000
   18.8003  -25.2209   -6.9858 N   0  0  0  0  0  0  0  0  0  0  0  0
   17.6727  -24.3591   -6.8998 C   0  0  0  0  0  0  0  0  0  0  0  0
   16.5869  -24.8073   -6.3773 N   0  0  0  0  0  0  0  0  0  0  0  0
   17.7126  -23.0226   -7.3733 N   0  0  0  0  0  0  0  0  0  0  0  0
   18.0866  -22.7115   -8.7230 C   0  0  0  0  0  0  0  0  0  0  0  0
   19.4124  -23.3207   -9.1050 C   0  0  0  0  0  0  0  0  0  0  0  0
   20.2350  -22.3104   -9.8427 C   0  0  0  0  0  0  0  0  0  0  0  0
   21.4502  -21.8518   -9.0721 C   0  0  2  0  0  0  0  0  0  0  0  0
   20.9960  -21.0730   -7.9428 N   0  0  0  0  0  0  0  0  0  0  0  0
   22.3363  -21.0604   -9.9761 C   0  0  0  0  0  0  0  0  0  0  0  0
   22.1669  -19.8034   -9.9962 O   0  0  0  0  0  0  0  0  0  0  0  0
   15.7437  -24.2206   -6.2105 C   0  0  0  0  0  0  0  0  0  0  0  0
   26.0855  -21.0048   -9.8345 C   0  0  1  0  0  0  0  0  0  0  0  0
   25.6549  -21.2735  -11.2545 C   0  0  0  0  0  0  0  0  0  0  0  0
   26.5623  -20.6828  -12.2855 C   0  0  2  0  0  0  0  0  0  0  0  0
   24.2385  -20.8060  -11.5215 N   0  0  0  0  0  0  0  0  0  0  0  0
   23.3401  -21.6436  -10.7974 C   0  0  0  0  0  0  0  0  0  0  0  0
   23.9356  -20.7211  -12.9699 O   0  0  0  0  0  0  0  0  0  0  0  0
   24.2079  -21.7246  -13.6781 N   0  0  0  0  0  0  0  0  0  0  0  0
   21.1419  -17.0582  -16.3862 C   0  0  0  0  0  0  0  0  0  0  0  0
   21.9466  -17.5544  -17.4377 O   0  0  0  0  0  0  0  0  0  0  0  0
   21.5620  -17.4454  -18.6288 C   0  0  0  0  0  0  0  0  0  0  0  0
   23.2342  -18.1973  -17.1202 C   0  0  0  0  0  0  0  0  0  0  0  0
   23.5305  -18.1930  -15.6410 C   0  0  1  0  0  0  0  0  0  0  0  0
   23.1214  -19.4884  -15.0150 N   0  0  0  0  0  0  0  0  0  0  0  0
   23.3652  -19.6000  -13.6159 C   0  0  0  0  0  0  0  0  0  0  0  0
   23.7116  -20.5888  -15.8189 O   0  0  0  0  0  0  0  0  0  0  0  0
   23.3989  -20.7676  -17.0176 O   0  0  0  0  0  0  0  0  0  0  0  0
  2  1  1  0
  3  2  2  0
  4  2  1  0
  5  4  1  0
  6  5  1  0
  7  6  1  0
  8  7  1  0
  8  9  1  1
 10  8  1  0
 10 11  2  0
 13 14  1  1
 13 12  1  0
 15 16  1  1
 15 13  1  0
 16 10  1  0
 17 15  1  0
 18 17  2  0
 20 21  2  0
 20 19  1  0
 22 20  1  0
 23 22  1  0
 24 23  1  1
 24 25  1  0
 25 17  1  0
 26 28  1  0
 26 24  1  0
 27 26  2  0
M  END
$$$$
