RVQ.pdb
     RDKit          3D

 28 27  0  0  1  0  0  0  0  0999 V2000
   21.1701  -15.7475  -17.8103 N   0  0  0  0  0  0  0  0  0  0  0  0
   22.1544  -16.3394  -18.6484 C   0  0  0  0  0  0  0  0  0  0  0  0
   22.4467  -15.7679  -19.7623 N   0  0  0  0  0  0  0  0  0  0  0  0
   22.8205  -17.5396  -18.2906 N   0  0  0  0  0  0  0  0  0  0  0  0
   22.8391  -18.0173  -16.9379 C   0  0  0  0  0  0  0  0  0  0  0  0
   21.4929  -18.5323  -16.4936 C   0  0  0  0  0  0  0  0  0  0  0  0
   21.6366  -19.9287  -15.9731 C   0  0  0  0  0  0  0  0  0  0  0  0
   22.9557  -20.1751  -15.2800 C   0  0  2  0  0  0  0  0  0  0  0  0
   23.7967  -20.9351  -16.1762 N   0  0  0  0  0  0  0  0  0  0  0  0
   22.7099  -20.8981  -13.9971 C   0  0  0  0  0  0  0  0  0  0  0  0
   22.4696  -22.1414  -14.0712 O   0  0  0  0  0  0  0  0  0  0  0  0
   23.1716  -16.1238  -20.4188 C   0  0  0  0  0  0  0  0  0  0  0  0
   24.6702  -20.2431  -10.5447 C   0  0  1  0  0  0  0  0  0  0  0  0
   23.1743  -20.3351  -10.3775 C   0  0  0  0  0  0  0  0  0  0  0  0
   22.7456  -20.9974   -9.1076 C   0  0  2  0  0  0  0  0  0  0  0  0
   22.5098  -21.0361  -11.5452 N   0  0  0  0  0  0  0  0  0  0  0  0
   22.7332  -20.2653  -12.7238 C   0  0  0  0  0  0  0  0  0  0  0  0
   21.0797  -21.3286  -11.2883 O   0  0  0  0  0  0  0  0  0  0  0  0
   20.2327  -20.5119  -11.7333 N   0  0  0  0  0  0  0  0  0  0  0  0
   18.2513  -26.1808   -8.0456 C   0  0  0  0  0  0  0  0  0  0  0  0
   17.1851  -25.3937   -8.5386 O   0  0  0  0  0  0  0  0  0  0  0  0
   15.9971  -25.7163   -8.2876 C   0  0  0  0  0  0  0  0  0  0  0  0
   17.4837  -24.1973   -9.3459 C   0  0  0  0  0  0  0  0  0  0  0  0
   18.9651  -23.9395   -9.4669 C   0  0  2  0  0  0  0  0  0  0  0  0
   19.2253  -22.7257  -10.3012 N   0  0  0  0  0  0  0  0  0  0  0  0
   20.5952  -22.4536  -10.5818 C   0  0  0  0  0  0  0  0  0  0  0  0
   18.4988  -21.5861   -9.6856 O   0  0  0  0  0  0  0  0  0  0  0  0
   19.0510  -20.8229   -8.8615 O   0  0  0  0  0  0  0  0  0  0  0  0
  2  1  1  0
  3  2  2  0
  4  2  1  0
  5  4  1  0
  6  5  1  0
  7  6  1  0
  8  7  1  0
  8  9  1  6
 10  8  1  0
 10 11  2  0
 13 14  1  6
 13 12  1  0
 15 16  1  6
 15 13  1  0
 16 10  1  0
 17 15  1  0
 18 17  2  0
 20 21  2  0
 20 19  1  0
 22 20  1  0
 23 22  1  0
 24 23  1  6
 24 25  1  0
 25 17  1  0
 26 28  1  0
 26 24  1  0
 27 26  2  0
M  END
$$$$
