RVQ.pdb
     RDKit          3D

 28 27  0  0  1  0  0  0  0  0999 V2000
   16.5335  -20.1377  -11.0098 N   0  0  0  0  0  0  0  0  0  0  0  0
   16.3673  -20.7731  -12.2708 C   0  0  0  0  0  0  0  0  0  0  0  0
   15.2840  -20.5677  -12.9318 N   0  0  0  0  0  0  0  0  0  0  0  0
   17.3609  -21.6251  -12.8179 N   0  0  0  0  0  0  0  0  0  0  0  0
   18.5660  -21.9340  -12.1035 C   0  0  0  0  0  0  0  0  0  0  0  0
   18.7028  -23.4095  -11.8217 C   0  0  0  0  0  0  0  0  0  0  0  0
   19.0617  -23.6143  -10.3827 C   0  0  0  0  0  0  0  0  0  0  0  0
   19.1875  -25.0698   -9.9997 C   0  0  2  0  0  0  0  0  0  0  0  0
   19.0081  -25.8636  -11.1938 N   0  0  0  0  0  0  0  0  0  0  0  0
   18.1704  -25.3936   -8.9559 C   0  0  0  0  0  0  0  0  0  0  0  0
   16.9502  -25.2681   -9.2792 O   0  0  0  0  0  0  0  0  0  0  0  0
   15.0818  -21.0036  -13.8549 C   0  0  0  0  0  0  0  0  0  0  0  0
   17.8689  -28.6670   -7.6364 C   0  0  1  0  0  0  0  0  0  0  0  0
   17.8326  -27.7686   -6.4258 C   0  0  0  0  0  0  0  0  0  0  0  0
   16.9038  -28.2359   -5.3515 C   0  0  2  0  0  0  0  0  0  0  0  0
   17.4872  -26.3376   -6.7849 N   0  0  0  0  0  0  0  0  0  0  0  0
   18.5047  -25.8270   -7.6434 C   0  0  0  0  0  0  0  0  0  0  0  0
   17.2430  -25.4985   -5.5878 O   0  0  0  0  0  0  0  0  0  0  0  0
   18.2463  -25.1311   -4.9237 N   0  0  0  0  0  0  0  0  0  0  0  0
   11.8287  -22.5877   -2.5720 C   0  0  0  0  0  0  0  0  0  0  0  0
   13.0834  -21.9392   -2.6402 O   0  0  0  0  0  0  0  0  0  0  0  0
   13.1415  -20.6846   -2.6748 C   0  0  0  0  0  0  0  0  0  0  0  0
   14.3144  -22.7491   -2.6700 C   0  0  0  0  0  0  0  0  0  0  0  0
   14.4168  -23.5952   -3.9148 C   0  0  2  0  0  0  0  0  0  0  0  0
   15.7206  -24.3271   -3.9522 N   0  0  0  0  0  0  0  0  0  0  0  0
   15.9702  -25.0800   -5.1355 C   0  0  0  0  0  0  0  0  0  0  0  0
   15.8349  -25.1174   -2.7000 O   0  0  0  0  0  0  0  0  0  0  0  0
   15.5113  -26.3256   -2.6537 O   0  0  0  0  0  0  0  0  0  0  0  0
  2  1  1  0
  3  2  2  0
  4  2  1  0
  5  4  1  0
  6  5  1  0
  7  6  1  0
  8  7  1  0
  8  9  1  6
 10  8  1  0
 10 11  2  0
 13 14  1  6
 13 12  1  0
 15 16  1  6
 15 13  1  0
 16 10  1  0
 17 15  1  0
 18 17  2  0
 20 21  2  0
 20 19  1  0
 22 20  1  0
 23 22  1  0
 24 23  1  6
 24 25  1  0
 25 17  1  0
 26 28  1  0
 26 24  1  0
 27 26  2  0
M  END
$$$$
