RVQ.pdb
     RDKit          3D

 28 27  0  0  1  0  0  0  0  0999 V2000
   27.7986  -21.4690  -19.7259 N   0  0  0  0  0  0  0  0  0  0  0  0
   26.4578  -21.8146  -20.0488 C   0  0  0  0  0  0  0  0  0  0  0  0
   26.2241  -22.4326  -21.1516 N   0  0  0  0  0  0  0  0  0  0  0  0
   25.3741  -21.4970  -19.1903 N   0  0  0  0  0  0  0  0  0  0  0  0
   25.5853  -21.0270  -17.8514 C   0  0  0  0  0  0  0  0  0  0  0  0
   26.9128  -20.3289  -17.6920 C   0  0  0  0  0  0  0  0  0  0  0  0
   27.0345  -19.7942  -16.2989 C   0  0  0  0  0  0  0  0  0  0  0  0
   27.5958  -20.7983  -15.3204 C   0  0  2  0  0  0  0  0  0  0  0  0
   28.0265  -21.9580  -16.0673 N   0  0  0  0  0  0  0  0  0  0  0  0
   26.5496  -21.1406  -14.3119 C   0  0  0  0  0  0  0  0  0  0  0  0
   25.7437  -22.0740  -14.6091 O   0  0  0  0  0  0  0  0  0  0  0  0
   25.2671  -22.6093  -21.5206 C   0  0  0  0  0  0  0  0  0  0  0  0
   27.0808  -21.2742  -10.4570 C   0  0  1  0  0  0  0  0  0  0  0  0
   25.7760  -20.5828  -10.7627 C   0  0  0  0  0  0  0  0  0  0  0  0
   24.6578  -20.9658   -9.8473 C   0  0  2  0  0  0  0  0  0  0  0  0
   25.3342  -20.8014  -12.1956 N   0  0  0  0  0  0  0  0  0  0  0  0
   26.4214  -20.4786  -13.0598 C   0  0  0  0  0  0  0  0  0  0  0  0
   24.0829  -20.0752  -12.5174 O   0  0  0  0  0  0  0  0  0  0  0  0
   24.1836  -19.0209  -13.1963 N   0  0  0  0  0  0  0  0  0  0  0  0
   21.7386  -21.5331  -17.2873 C   0  0  0  0  0  0  0  0  0  0  0  0
   20.9605  -20.7050  -16.4457 O   0  0  0  0  0  0  0  0  0  0  0  0
   20.5932  -19.5716  -16.8444 C   0  0  0  0  0  0  0  0  0  0  0  0
   20.5884  -21.1857  -15.1031 C   0  0  0  0  0  0  0  0  0  0  0  0
   21.7851  -21.3571  -14.2008 C   0  0  2  0  0  0  0  0  0  0  0  0
   21.6414  -20.5250  -12.9663 N   0  0  0  0  0  0  0  0  0  0  0  0
   22.7864  -20.4760  -12.1201 C   0  0  0  0  0  0  0  0  0  0  0  0
   20.3982  -20.9494  -12.2736 O   0  0  0  0  0  0  0  0  0  0  0  0
   19.2666  -20.6132  -12.6895 O   0  0  0  0  0  0  0  0  0  0  0  0
  2  1  1  0
  3  2  2  0
  4  2  1  0
  5  4  1  0
  6  5  1  0
  7  6  1  0
  8  7  1  0
  8  9  1  6
 10  8  1  0
 10 11  2  0
 13 14  1  1
 13 12  1  0
 15 16  1  6
 15 13  1  0
 16 10  1  0
 17 15  1  0
 18 17  2  0
 20 21  2  0
 20 19  1  0
 22 20  1  0
 23 22  1  0
 24 23  1  6
 24 25  1  0
 25 17  1  0
 26 28  1  0
 26 24  1  0
 27 26  2  0
M  END
$$$$
