RVQ.pdb
     RDKit          3D

 28 27  0  0  1  0  0  0  0  0999 V2000
   20.6379  -19.8833   -8.4147 N   0  0  0  0  0  0  0  0  0  0  0  0
   21.6237  -20.7463   -7.8624 C   0  0  0  0  0  0  0  0  0  0  0  0
   21.2446  -21.8160   -7.2586 N   0  0  0  0  0  0  0  0  0  0  0  0
   23.0097  -20.4601   -7.9589 N   0  0  0  0  0  0  0  0  0  0  0  0
   23.5990  -19.9874   -9.1786 C   0  0  0  0  0  0  0  0  0  0  0  0
   24.6069  -20.9580   -9.7417 C   0  0  0  0  0  0  0  0  0  0  0  0
   24.5828  -20.8951  -11.2373 C   0  0  0  0  0  0  0  0  0  0  0  0
   23.2582  -21.3113  -11.8316 C   0  0  2  0  0  0  0  0  0  0  0  0
   23.1141  -22.7374  -11.6480 N   0  0  0  0  0  0  0  0  0  0  0  0
   23.2236  -20.9276  -13.2739 C   0  0  0  0  0  0  0  0  0  0  0  0
   23.7962  -21.7082  -14.0936 O   0  0  0  0  0  0  0  0  0  0  0  0
   21.8984  -22.4686   -6.7793 C   0  0  0  0  0  0  0  0  0  0  0  0
   20.1600  -18.7686  -15.0723 C   0  0  1  0  0  0  0  0  0  0  0  0
   21.5720  -18.3663  -15.4165 C   0  0  0  0  0  0  0  0  0  0  0  0
   21.7402  -17.8858  -16.8222 C   0  0  2  0  0  0  0  0  0  0  0  0
   22.5645  -19.4815  -15.1569 N   0  0  0  0  0  0  0  0  0  0  0  0
   22.5898  -19.7496  -13.7567 C   0  0  0  0  0  0  0  0  0  0  0  0
   23.9001  -19.1936  -15.7314 O   0  0  0  0  0  0  0  0  0  0  0  0
   24.5756  -18.2777  -15.1954 N   0  0  0  0  0  0  0  0  0  0  0  0
   28.5686  -22.8246  -17.3922 C   0  0  0  0  0  0  0  0  0  0  0  0
   28.9721  -21.5897  -17.9506 O   0  0  0  0  0  0  0  0  0  0  0  0
   30.1153  -21.4731  -18.4586 C   0  0  0  0  0  0  0  0  0  0  0  0
   28.0401  -20.4482  -17.9289 C   0  0  0  0  0  0  0  0  0  0  0  0
   26.7088  -20.8036  -17.3146 C   0  0  1  0  0  0  0  0  0  0  0  0
   25.7757  -19.6355  -17.3597 N   0  0  0  0  0  0  0  0  0  0  0  0
   24.4721  -19.8684  -16.8346 C   0  0  0  0  0  0  0  0  0  0  0  0
   25.7803  -19.1027  -18.7459 O   0  0  0  0  0  0  0  0  0  0  0  0
   24.7845  -19.2141  -19.4961 O   0  0  0  0  0  0  0  0  0  0  0  0
  2  1  1  0
  3  2  2  0
  4  2  1  0
  5  4  1  0
  6  5  1  0
  7  6  1  0
  8  7  1  0
  8  9  1  6
 10  8  1  0
 10 11  2  0
 13 14  1  6
 13 12  1  0
 15 16  1  6
 15 13  1  0
 16 10  1  0
 17 15  1  0
 18 17  2  0
 20 21  2  0
 20 19  1  0
 22 20  1  0
 23 22  1  0
 24 23  1  1
 24 25  1  0
 25 17  1  0
 26 28  1  0
 26 24  1  0
 27 26  2  0
M  END
$$$$
