RVQ.pdb
     RDKit          3D

 28 27  0  0  1  0  0  0  0  0999 V2000
   29.2468  -26.1876  -15.6716 N   0  0  0  0  0  0  0  0  0  0  0  0
   28.3466  -26.1903  -16.7722 C   0  0  0  0  0  0  0  0  0  0  0  0
   27.4081  -27.0682  -16.8048 N   0  0  0  0  0  0  0  0  0  0  0  0
   28.4555  -25.2538  -17.8321 N   0  0  0  0  0  0  0  0  0  0  0  0
   28.6111  -23.8492  -17.5844 C   0  0  0  0  0  0  0  0  0  0  0  0
   28.2847  -23.4792  -16.1591 C   0  0  0  0  0  0  0  0  0  0  0  0
   28.3809  -21.9945  -15.9915 C   0  0  0  0  0  0  0  0  0  0  0  0
   27.8259  -21.2235  -17.1656 C   0  0  2  0  0  0  0  0  0  0  0  0
   28.9073  -20.4687  -17.7563 N   0  0  0  0  0  0  0  0  0  0  0  0
   26.7194  -20.3389  -16.6947 C   0  0  0  0  0  0  0  0  0  0  0  0
   26.9925  -19.5139  -15.7706 O   0  0  0  0  0  0  0  0  0  0  0  0
   26.7778  -27.2066  -17.6213 C   0  0  0  0  0  0  0  0  0  0  0  0
   24.8353  -17.8226  -18.5411 C   0  0  1  0  0  0  0  0  0  0  0  0
   23.8170  -18.7188  -17.8823 C   0  0  0  0  0  0  0  0  0  0  0  0
   22.5911  -18.0023  -17.4144 C   0  0  2  0  0  0  0  0  0  0  0  0
   24.4042  -19.4961  -16.7216 N   0  0  0  0  0  0  0  0  0  0  0  0
   25.4013  -20.3815  -17.2267 C   0  0  0  0  0  0  0  0  0  0  0  0
   23.3637  -20.1726  -15.9114 O   0  0  0  0  0  0  0  0  0  0  0  0
   22.7351  -21.1197  -16.4503 N   0  0  0  0  0  0  0  0  0  0  0  0
   21.5210  -19.3372   -9.7471 C   0  0  0  0  0  0  0  0  0  0  0  0
   20.7507  -20.4214  -10.2274 O   0  0  0  0  0  0  0  0  0  0  0  0
   19.9741  -21.0330   -9.4520 C   0  0  0  0  0  0  0  0  0  0  0  0
   20.8702  -20.8222  -11.6407 C   0  0  0  0  0  0  0  0  0  0  0  0
   21.9342  -20.0422  -12.3723 C   0  0  2  0  0  0  0  0  0  0  0  0
   21.9943  -20.4485  -13.8105 N   0  0  0  0  0  0  0  0  0  0  0  0
   23.0236  -19.8351  -14.5810 C   0  0  0  0  0  0  0  0  0  0  0  0
   20.6346  -20.2882  -14.3859 O   0  0  0  0  0  0  0  0  0  0  0  0
   19.8968  -21.2735  -14.6129 O   0  0  0  0  0  0  0  0  0  0  0  0
  2  1  1  0
  3  2  2  0
  4  2  1  0
  5  4  1  0
  6  5  1  0
  7  6  1  0
  8  7  1  0
  8  9  1  1
 10  8  1  0
 10 11  2  0
 13 14  1  1
 13 12  1  0
 15 16  1  1
 15 13  1  0
 16 10  1  0
 17 15  1  0
 18 17  2  0
 20 21  2  0
 20 19  1  0
 22 20  1  0
 23 22  1  0
 24 23  1  1
 24 25  1  0
 25 17  1  0
 26 28  1  0
 26 24  1  0
 27 26  2  0
M  END
$$$$
