RVQ.pdb
     RDKit          3D

 28 27  0  0  1  0  0  0  0  0999 V2000
   24.7654  -24.5915  -16.2905 N   0  0  0  0  0  0  0  0  0  0  0  0
   26.1159  -24.4995  -16.7255 C   0  0  0  0  0  0  0  0  0  0  0  0
   26.7013  -25.5576  -17.1618 N   0  0  0  0  0  0  0  0  0  0  0  0
   26.8330  -23.2760  -16.6913 N   0  0  0  0  0  0  0  0  0  0  0  0
   26.1943  -22.0368  -16.3526 C   0  0  0  0  0  0  0  0  0  0  0  0
   25.0275  -22.2307  -15.4166 C   0  0  0  0  0  0  0  0  0  0  0  0
   24.4056  -20.9042  -15.1085 C   0  0  0  0  0  0  0  0  0  0  0  0
   25.2934  -20.0061  -14.2801 C   0  0  2  0  0  0  0  0  0  0  0  0
   25.1661  -20.4042  -12.8968 N   0  0  0  0  0  0  0  0  0  0  0  0
   24.8897  -18.5845  -14.4915 C   0  0  0  0  0  0  0  0  0  0  0  0
   23.9925  -18.1183  -13.7253 O   0  0  0  0  0  0  0  0  0  0  0  0
   27.6812  -25.5701  -17.5122 C   0  0  0  0  0  0  0  0  0  0  0  0
   27.4504  -15.7515  -15.0545 C   0  0  2  0  0  0  0  0  0  0  0  0
   26.2840  -15.5653  -15.9919 C   0  0  0  0  0  0  0  0  0  0  0  0
   25.8709  -14.1396  -16.1703 C   0  0  2  0  0  0  0  0  0  0  0  0
   25.0759  -16.3773  -15.5709 N   0  0  0  0  0  0  0  0  0  0  0  0
   25.4560  -17.7495  -15.4937 C   0  0  0  0  0  0  0  0  0  0  0  0
   23.9011  -16.1339  -16.4412 O   0  0  0  0  0  0  0  0  0  0  0  0
   23.9919  -16.4808  -17.6470 N   0  0  0  0  0  0  0  0  0  0  0  0
   17.7361  -15.5139  -15.0558 C   0  0  0  0  0  0  0  0  0  0  0  0
   18.4006  -16.7255  -15.3556 O   0  0  0  0  0  0  0  0  0  0  0  0
   17.8631  -17.8246  -15.0698 C   0  0  0  0  0  0  0  0  0  0  0  0
   19.7236  -16.6826  -16.0035 C   0  0  0  0  0  0  0  0  0  0  0  0
   20.2357  -15.2739  -16.1741 C   0  0  2  0  0  0  0  0  0  0  0  0
   21.5664  -15.2729  -16.8569 N   0  0  0  0  0  0  0  0  0  0  0  0
   22.6877  -15.5421  -16.0205 C   0  0  0  0  0  0  0  0  0  0  0  0
   21.6806  -14.0095  -17.6292 O   0  0  0  0  0  0  0  0  0  0  0  0
   22.5580  -13.1562  -17.3672 O   0  0  0  0  0  0  0  0  0  0  0  0
  2  1  1  0
  3  2  2  0
  4  2  1  0
  5  4  1  0
  6  5  1  0
  7  6  1  0
  8  7  1  0
  8  9  1  1
 10  8  1  0
 10 11  2  0
 13 14  1  1
 13 12  1  0
 15 16  1  1
 15 13  1  0
 16 10  1  0
 17 15  1  0
 18 17  2  0
 20 21  2  0
 20 19  1  0
 22 20  1  0
 23 22  1  0
 24 23  1  6
 24 25  1  0
 25 17  1  0
 26 28  1  0
 26 24  1  0
 27 26  2  0
M  END
$$$$
