RVQ.pdb
     RDKit          3D

 28 27  0  0  1  0  0  0  0  0999 V2000
   26.8247  -17.4754  -17.3186 N   0  0  0  0  0  0  0  0  0  0  0  0
   26.0043  -17.9919  -18.3586 C   0  0  0  0  0  0  0  0  0  0  0  0
   26.4107  -17.8985  -19.5747 N   0  0  0  0  0  0  0  0  0  0  0  0
   24.7533  -18.6054  -18.0922 N   0  0  0  0  0  0  0  0  0  0  0  0
   24.3489  -18.9452  -16.7584 C   0  0  0  0  0  0  0  0  0  0  0  0
   25.3624  -19.8138  -16.0561 C   0  0  0  0  0  0  0  0  0  0  0  0
   24.8229  -20.2392  -14.7259 C   0  0  0  0  0  0  0  0  0  0  0  0
   25.7848  -21.0958  -13.9372 C   0  0  2  0  0  0  0  0  0  0  0  0
   26.0047  -22.3178  -14.6765 N   0  0  0  0  0  0  0  0  0  0  0  0
   25.2139  -21.3576  -12.5829 C   0  0  0  0  0  0  0  0  0  0  0  0
   24.7372  -22.5137  -12.3701 O   0  0  0  0  0  0  0  0  0  0  0  0
   25.8406  -18.1878  -20.3958 C   0  0  0  0  0  0  0  0  0  0  0  0
   26.5479  -19.6414   -9.1550 C   0  0  1  0  0  0  0  0  0  0  0  0
   25.0447  -19.6976   -9.2617 C   0  0  0  0  0  0  0  0  0  0  0  0
   24.3548  -19.9772   -7.9651 C   0  0  2  0  0  0  0  0  0  0  0  0
   24.5812  -20.7074  -10.2920 N   0  0  0  0  0  0  0  0  0  0  0  0
   25.1827  -20.3866  -11.5443 C   0  0  0  0  0  0  0  0  0  0  0  0
   23.1042  -20.8151  -10.3521 O   0  0  0  0  0  0  0  0  0  0  0  0
   22.5044  -20.0907  -11.1876 N   0  0  0  0  0  0  0  0  0  0  0  0
   18.9379  -24.2259   -6.7436 C   0  0  0  0  0  0  0  0  0  0  0  0
   18.1479  -23.6291   -7.7532 O   0  0  0  0  0  0  0  0  0  0  0  0
   16.9069  -23.8236   -7.7775 C   0  0  0  0  0  0  0  0  0  0  0  0
   18.7951  -22.7812   -8.7702 C   0  0  0  0  0  0  0  0  0  0  0  0
   20.2772  -22.6281   -8.5336 C   0  0  2  0  0  0  0  0  0  0  0  0
   20.9004  -21.7879   -9.6026 N   0  0  0  0  0  0  0  0  0  0  0  0
   22.3186  -21.6683   -9.5431 C   0  0  0  0  0  0  0  0  0  0  0  0
   20.1868  -20.4858   -9.6318 O   0  0  0  0  0  0  0  0  0  0  0  0
   20.5071  -19.5437   -8.8725 O   0  0  0  0  0  0  0  0  0  0  0  0
  2  1  1  0
  3  2  2  0
  4  2  1  0
  5  4  1  0
  6  5  1  0
  7  6  1  0
  8  7  1  0
  8  9  1  6
 10  8  1  0
 10 11  2  0
 13 14  1  6
 13 12  1  0
 15 16  1  1
 15 13  1  0
 16 10  1  0
 17 15  1  0
 18 17  2  0
 20 21  2  0
 20 19  1  0
 22 20  1  0
 23 22  1  0
 24 23  1  6
 24 25  1  0
 25 17  1  0
 26 28  1  0
 26 24  1  0
 27 26  2  0
M  END
$$$$
