RVQ.pdb
     RDKit          3D

 28 27  0  0  1  0  0  0  0  0999 V2000
   22.7396  -16.5234  -18.7321 N   0  0  0  0  0  0  0  0  0  0  0  0
   23.6535  -16.4739  -17.6441 C   0  0  0  0  0  0  0  0  0  0  0  0
   23.6286  -15.4571  -16.8578 N   0  0  0  0  0  0  0  0  0  0  0  0
   24.5893  -17.5124  -17.4031 N   0  0  0  0  0  0  0  0  0  0  0  0
   24.5746  -18.7314  -18.1595 C   0  0  0  0  0  0  0  0  0  0  0  0
   25.7433  -19.6254  -17.8282 C   0  0  0  0  0  0  0  0  0  0  0  0
   25.3192  -20.6561  -16.8286 C   0  0  0  0  0  0  0  0  0  0  0  0
   26.3321  -20.8753  -15.7300 C   0  0  2  0  0  0  0  0  0  0  0  0
   27.3993  -21.6914  -16.2620 N   0  0  0  0  0  0  0  0  0  0  0  0
   25.6613  -21.5236  -14.5644 C   0  0  0  0  0  0  0  0  0  0  0  0
   24.9764  -22.5655  -14.7977 O   0  0  0  0  0  0  0  0  0  0  0  0
   24.2952  -15.3224  -16.0701 C   0  0  0  0  0  0  0  0  0  0  0  0
   24.3323  -21.3800   -9.7911 C   0  0  1  0  0  0  0  0  0  0  0  0
   25.2505  -20.9334  -10.9009 C   0  0  0  0  0  0  0  0  0  0  0  0
   25.4241  -19.4508  -10.9845 C   0  0  2  0  0  0  0  0  0  0  0  0
   24.8082  -21.4528  -12.2539 N   0  0  0  0  0  0  0  0  0  0  0  0
   25.7558  -21.0328  -13.2330 C   0  0  0  0  0  0  0  0  0  0  0  0
   23.4124  -21.0725  -12.5758 O   0  0  0  0  0  0  0  0  0  0  0  0
   23.2229  -19.9323  -13.0724 N   0  0  0  0  0  0  0  0  0  0  0  0
   19.4117  -23.4757  -16.1068 C   0  0  0  0  0  0  0  0  0  0  0  0
   19.7234  -24.2745  -14.9824 O   0  0  0  0  0  0  0  0  0  0  0  0
   19.5846  -25.5219  -15.0394 C   0  0  0  0  0  0  0  0  0  0  0  0
   20.2100  -23.6287  -13.7502 C   0  0  0  0  0  0  0  0  0  0  0  0
   20.3574  -22.1351  -13.9027 C   0  0  1  0  0  0  0  0  0  0  0  0
   20.9328  -21.5300  -12.6617 N   0  0  0  0  0  0  0  0  0  0  0  0
   22.2789  -21.8918  -12.3675 C   0  0  0  0  0  0  0  0  0  0  0  0
   19.9835  -21.7852  -11.5486 O   0  0  0  0  0  0  0  0  0  0  0  0
   20.2971  -22.4962  -10.5674 O   0  0  0  0  0  0  0  0  0  0  0  0
  2  1  1  0
  3  2  2  0
  4  2  1  0
  5  4  1  0
  6  5  1  0
  7  6  1  0
  8  7  1  0
  8  9  1  6
 10  8  1  0
 10 11  2  0
 13 14  1  1
 13 12  1  0
 15 16  1  6
 15 13  1  0
 16 10  1  0
 17 15  1  0
 18 17  2  0
 20 21  2  0
 20 19  1  0
 22 20  1  0
 23 22  1  0
 24 23  1  6
 24 25  1  0
 25 17  1  0
 26 28  1  0
 26 24  1  0
 27 26  2  0
M  END
$$$$
