HKD.pdb
     RDKit          3D

 28 28  0  0  1  0  0  0  0  0999 V2000
    5.5749  -16.5809   25.4073 N   0  0  0  0  0  0  0  0  0  0  0  0
    6.4202  -15.5155   24.8987 C   0  0  1  0  0  0  0  0  0  0  0  0
    7.2690  -14.9273   26.0199 C   0  0  0  0  0  0  0  0  0  0  0  0
    6.7866  -13.6292   26.4861 C   0  0  0  0  0  0  0  0  0  0  0  0
    5.6646  -12.9117   26.1006 C   0  0  0  0  0  0  0  0  0  0  0  0
    5.6558  -11.7646   26.8244 N   0  0  0  0  0  0  0  0  0  0  0  0
    6.7350  -11.7817   27.6236 C   0  0  0  0  0  0  0  0  0  0  0  0
    7.4201  -12.8998   27.4259 N   0  0  0  0  0  0  0  0  0  0  0  0
    7.3065  -16.0951   23.8647 C   0  0  0  0  0  0  0  0  0  0  0  0
    7.3849  -17.3286   23.6657 O   0  0  0  0  0  0  0  0  0  0  0  0
    8.0939  -15.2362   23.0687 N   0  0  0  0  0  0  0  0  0  0  0  0
    8.9303  -15.6568   21.9564 C   0  0  1  0  0  0  0  0  0  0  0  0
    9.1086  -14.5412   20.9639 C   0  0  0  0  0  0  0  0  0  0  0  0
    8.3028  -14.7867   19.7466 C   0  0  0  0  0  0  0  0  0  0  0  0
    8.6735  -13.9526   18.5542 C   0  0  0  0  0  0  0  0  0  0  0  0
    7.7017  -14.1066   17.4078 C   0  0  0  0  0  0  0  0  0  0  0  0
    8.1856  -13.2508   16.3319 N   0  0  0  0  0  0  0  0  0  0  0  0
   10.2149  -16.1766   22.4719 C   0  0  0  0  0  0  0  0  0  0  0  0
   11.0252  -15.5122   23.1712 O   0  0  0  0  0  0  0  0  0  0  0  0
   10.6416  -17.5215   22.2044 N   0  0  0  0  0  0  0  0  0  0  0  0
   11.9643  -17.8266   21.6550 C   0  0  1  0  0  0  0  0  0  0  0  0
   12.0634  -17.4202   20.2258 C   0  0  0  0  0  0  0  0  0  0  0  0
   13.3655  -17.7899   19.6547 C   0  0  0  0  0  0  0  0  0  0  0  0
   13.9261  -17.1835   18.6838 O   0  0  0  0  0  0  0  0  0  0  0  0
   12.9973  -17.0615   22.4349 C   0  0  0  0  0  0  0  0  0  0  0  0
   13.8458  -17.7410   23.1082 O   0  0  0  0  0  0  0  0  0  0  0  0
   14.1171  -18.8730   20.1411 O   0  0  0  0  0  0  0  0  0  0  0  0
   13.1042  -15.7038   22.4840 O   0  0  0  0  0  0  0  0  0  0  0  0
  2  1  1  1
  3  4  1  0
  3  2  1  0
  4  5  2  0
  6  5  1  0
  7  6  1  0
  8  7  2  0
  8  4  1  0
  9 11  1  0
  9  2  1  0
 10  9  2  0
 12 11  1  0
 12 13  1  6
 13 14  1  0
 14 15  1  0
 15 16  1  0
 17 16  1  0
 18 12  1  0
 19 18  2  0
 20 18  1  0
 21 25  1  0
 21 20  1  0
 21 22  1  6
 23 27  1  0
 23 22  1  0
 24 23  2  0
 25 28  1  0
 26 25  2  0
M  END
$$$$
