HKD.pdb
     RDKit          3D

 28 28  0  0  1  0  0  0  0  0999 V2000
    9.1727  -16.5267   18.9196 N   0  0  0  0  0  0  0  0  0  0  0  0
    9.7668  -15.2720   19.3449 C   0  0  1  0  0  0  0  0  0  0  0  0
    8.7060  -14.1803   19.4255 C   0  0  0  0  0  0  0  0  0  0  0  0
    8.0128  -13.9571   18.1587 C   0  0  0  0  0  0  0  0  0  0  0  0
    7.8108  -12.7791   17.4561 C   0  0  0  0  0  0  0  0  0  0  0  0
    7.1092  -13.0954   16.3392 N   0  0  0  0  0  0  0  0  0  0  0  0
    6.8906  -14.4203   16.3598 C   0  0  0  0  0  0  0  0  0  0  0  0
    7.4309  -14.9457   17.4509 N   0  0  0  0  0  0  0  0  0  0  0  0
   10.3575  -15.4821   20.6856 C   0  0  0  0  0  0  0  0  0  0  0  0
   10.9033  -14.5570   21.3287 O   0  0  0  0  0  0  0  0  0  0  0  0
   10.3078  -16.7659   21.2694 N   0  0  0  0  0  0  0  0  0  0  0  0
   10.9561  -17.1464   22.5138 C   0  0  1  0  0  0  0  0  0  0  0  0
   10.4155  -18.4528   23.0260 C   0  0  0  0  0  0  0  0  0  0  0  0
   11.1021  -18.8523   24.2751 C   0  0  0  0  0  0  0  0  0  0  0  0
   10.7435  -20.2147   24.7953 C   0  0  0  0  0  0  0  0  0  0  0  0
   11.4681  -20.5615   26.0749 C   0  0  0  0  0  0  0  0  0  0  0  0
   11.1770  -21.9620   26.3535 N   0  0  0  0  0  0  0  0  0  0  0  0
   12.4220  -17.1680   22.3219 C   0  0  0  0  0  0  0  0  0  0  0  0
   13.0514  -18.0854   21.7306 O   0  0  0  0  0  0  0  0  0  0  0  0
   13.2585  -16.1079   22.8103 N   0  0  0  0  0  0  0  0  0  0  0  0
   14.7202  -16.1902   22.7821 C   0  0  1  0  0  0  0  0  0  0  0  0
   15.3167  -14.9967   22.1207 C   0  0  0  0  0  0  0  0  0  0  0  0
   15.0721  -15.0109   20.6722 C   0  0  0  0  0  0  0  0  0  0  0  0
   15.2569  -16.0224   19.9189 O   0  0  0  0  0  0  0  0  0  0  0  0
   15.2263  -16.2469   24.1968 C   0  0  0  0  0  0  0  0  0  0  0  0
   16.4863  -16.3870   24.3637 O   0  0  0  0  0  0  0  0  0  0  0  0
   14.6069  -13.8804   19.9794 O   0  0  0  0  0  0  0  0  0  0  0  0
   14.4536  -16.1616   25.3160 O   0  0  0  0  0  0  0  0  0  0  0  0
  2  1  1  1
  3  4  1  0
  3  2  1  0
  4  5  2  0
  6  5  1  0
  7  6  1  0
  8  7  2  0
  8  4  1  0
  9 11  1  0
  9  2  1  0
 10  9  2  0
 12 11  1  0
 12 13  1  6
 13 14  1  0
 14 15  1  0
 15 16  1  0
 17 16  1  0
 18 12  1  0
 19 18  2  0
 20 18  1  0
 21 25  1  0
 21 20  1  0
 21 22  1  1
 23 27  1  0
 23 22  1  0
 24 23  2  0
 25 28  1  0
 26 25  2  0
M  END
$$$$
