HKD.pdb
     RDKit          3D

 28 28  0  0  1  0  0  0  0  0999 V2000
    7.7774  -16.9248   20.5347 N   0  0  0  0  0  0  0  0  0  0  0  0
    9.0551  -16.2696   20.3198 C   0  0  1  0  0  0  0  0  0  0  0  0
    8.9890  -15.3600   19.0984 C   0  0  0  0  0  0  0  0  0  0  0  0
    8.7655  -16.0873   17.8510 C   0  0  0  0  0  0  0  0  0  0  0  0
    9.3437  -17.2625   17.3961 C   0  0  0  0  0  0  0  0  0  0  0  0
    8.8057  -17.5276   16.1795 N   0  0  0  0  0  0  0  0  0  0  0  0
    7.9298  -16.5482   15.9019 C   0  0  0  0  0  0  0  0  0  0  0  0
    7.8999  -15.6782   16.9022 N   0  0  0  0  0  0  0  0  0  0  0  0
    9.3554  -15.4578   21.5204 C   0  0  0  0  0  0  0  0  0  0  0  0
   10.3795  -14.7428   21.6057 O   0  0  0  0  0  0  0  0  0  0  0  0
    8.4619  -15.4822   22.6124 N   0  0  0  0  0  0  0  0  0  0  0  0
    8.7017  -14.8626   23.9055 C   0  0  1  0  0  0  0  0  0  0  0  0
    7.4585  -14.1916   24.4208 C   0  0  0  0  0  0  0  0  0  0  0  0
    7.7054  -13.5701   25.7415 C   0  0  0  0  0  0  0  0  0  0  0  0
    6.5188  -12.8892   26.3608 C   0  0  0  0  0  0  0  0  0  0  0  0
    6.8601  -12.1746   27.6473 C   0  0  0  0  0  0  0  0  0  0  0  0
    5.6195  -11.5932   28.1442 N   0  0  0  0  0  0  0  0  0  0  0  0
    9.2413  -15.8693   24.8444 C   0  0  0  0  0  0  0  0  0  0  0  0
    8.6458  -16.9292   25.1750 O   0  0  0  0  0  0  0  0  0  0  0  0
   10.5263  -15.7048   25.4640 N   0  0  0  0  0  0  0  0  0  0  0  0
   11.1063  -16.7233   26.3418 C   0  0  1  0  0  0  0  0  0  0  0  0
   12.5934  -16.7221   26.2632 C   0  0  0  0  0  0  0  0  0  0  0  0
   13.0604  -17.2515   24.9748 C   0  0  0  0  0  0  0  0  0  0  0  0
   12.3318  -17.8998   24.1541 O   0  0  0  0  0  0  0  0  0  0  0  0
   10.7094  -16.4189   27.7598 C   0  0  0  0  0  0  0  0  0  0  0  0
   10.2907  -15.2370   28.0107 O   0  0  0  0  0  0  0  0  0  0  0  0
   14.3837  -17.0866   24.5320 O   0  0  0  0  0  0  0  0  0  0  0  0
   10.7590  -17.2980   28.7998 O   0  0  0  0  0  0  0  0  0  0  0  0
  2  1  1  1
  3  4  1  0
  3  2  1  0
  4  5  2  0
  6  5  1  0
  7  6  1  0
  8  7  2  0
  8  4  1  0
  9 11  1  0
  9  2  1  0
 10  9  2  0
 12 11  1  0
 12 13  1  1
 13 14  1  0
 14 15  1  0
 15 16  1  0
 17 16  1  0
 18 12  1  0
 19 18  2  0
 20 18  1  0
 21 25  1  0
 21 20  1  0
 21 22  1  1
 23 27  1  0
 23 22  1  0
 24 23  2  0
 25 28  1  0
 26 25  2  0
M  END
$$$$
