HKD.pdb
     RDKit          3D

 28 28  0  0  1  0  0  0  0  0999 V2000
   14.3922  -13.9166   17.0475 N   0  0  0  0  0  0  0  0  0  0  0  0
   13.3589  -14.8866   17.3627 C   0  0  1  0  0  0  0  0  0  0  0  0
   13.8797  -16.3049   17.1608 C   0  0  0  0  0  0  0  0  0  0  0  0
   13.9857  -16.6838   15.7536 C   0  0  0  0  0  0  0  0  0  0  0  0
   14.4811  -15.9628   14.6780 C   0  0  0  0  0  0  0  0  0  0  0  0
   14.3608  -16.7500   13.5799 N   0  0  0  0  0  0  0  0  0  0  0  0
   13.8109  -17.9108   13.9721 C   0  0  0  0  0  0  0  0  0  0  0  0
   13.5824  -17.8787   15.2779 N   0  0  0  0  0  0  0  0  0  0  0  0
   12.9804  -14.7002   18.7814 C   0  0  0  0  0  0  0  0  0  0  0  0
   13.8108  -14.3678   19.6572 O   0  0  0  0  0  0  0  0  0  0  0  0
   11.6388  -14.9002   19.1709 N   0  0  0  0  0  0  0  0  0  0  0  0
   11.1253  -14.7387   20.5213 C   0  0  1  0  0  0  0  0  0  0  0  0
    9.6271  -14.6085   20.5165 C   0  0  0  0  0  0  0  0  0  0  0  0
    9.1905  -13.5970   19.5277 C   0  0  0  0  0  0  0  0  0  0  0  0
    7.7050  -13.4036   19.4228 C   0  0  0  0  0  0  0  0  0  0  0  0
    7.3207  -12.3804   18.3798 C   0  0  0  0  0  0  0  0  0  0  0  0
    6.9484  -13.1235   17.1826 N   0  0  0  0  0  0  0  0  0  0  0  0
   11.6014  -15.8529   21.3686 C   0  0  0  0  0  0  0  0  0  0  0  0
   11.4885  -17.0727   21.0743 O   0  0  0  0  0  0  0  0  0  0  0  0
   12.2499  -15.6142   22.6275 N   0  0  0  0  0  0  0  0  0  0  0  0
   12.6519  -16.7049   23.5181 C   0  0  1  0  0  0  0  0  0  0  0  0
   13.8818  -16.3549   24.2812 C   0  0  0  0  0  0  0  0  0  0  0  0
   15.0483  -16.2488   23.3944 C   0  0  0  0  0  0  0  0  0  0  0  0
   15.1408  -16.8093   22.2534 O   0  0  0  0  0  0  0  0  0  0  0  0
   11.5429  -16.9562   24.5019 C   0  0  0  0  0  0  0  0  0  0  0  0
   10.5447  -16.1573   24.4770 O   0  0  0  0  0  0  0  0  0  0  0  0
   16.1890  -15.5055   23.7419 O   0  0  0  0  0  0  0  0  0  0  0  0
   11.5133  -17.9646   25.4180 O   0  0  0  0  0  0  0  0  0  0  0  0
  2  1  1  1
  3  4  1  0
  3  2  1  0
  4  5  2  0
  6  5  1  0
  7  6  1  0
  8  7  2  0
  8  4  1  0
  9 11  1  0
  9  2  1  0
 10  9  2  0
 12 11  1  0
 12 13  1  6
 13 14  1  0
 14 15  1  0
 15 16  1  0
 17 16  1  0
 18 12  1  0
 19 18  2  0
 20 18  1  0
 21 25  1  0
 21 20  1  0
 21 22  1  1
 23 27  1  0
 23 22  1  0
 24 23  2  0
 25 28  1  0
 26 25  2  0
M  END
$$$$
