HKD.pdb
     RDKit          3D

 28 28  0  0  1  0  0  0  0  0999 V2000
   12.9377  -13.5817   17.4773 N   0  0  0  0  0  0  0  0  0  0  0  0
   13.2316  -14.7610   18.2718 C   0  0  1  0  0  0  0  0  0  0  0  0
   14.4191  -14.5017   19.1916 C   0  0  0  0  0  0  0  0  0  0  0  0
   15.6785  -14.3308   18.4708 C   0  0  0  0  0  0  0  0  0  0  0  0
   16.5276  -13.2359   18.4202 C   0  0  0  0  0  0  0  0  0  0  0  0
   17.5647  -13.5716   17.6130 N   0  0  0  0  0  0  0  0  0  0  0  0
   17.3554  -14.8275   17.1859 C   0  0  0  0  0  0  0  0  0  0  0  0
   16.2231  -15.2909   17.6973 N   0  0  0  0  0  0  0  0  0  0  0  0
   12.0357  -15.0663   19.0886 C   0  0  0  0  0  0  0  0  0  0  0  0
   11.2988  -14.1694   19.5574 O   0  0  0  0  0  0  0  0  0  0  0  0
   11.7044  -16.4124   19.3529 N   0  0  0  0  0  0  0  0  0  0  0  0
   10.5332  -16.8580   20.0901 C   0  0  1  0  0  0  0  0  0  0  0  0
    9.6956  -17.7904   19.2592 C   0  0  0  0  0  0  0  0  0  0  0  0
    8.5717  -18.3362   20.0531 C   0  0  0  0  0  0  0  0  0  0  0  0
    7.6398  -19.2443   19.3035 C   0  0  0  0  0  0  0  0  0  0  0  0
    6.4999  -19.7471   20.1581 C   0  0  0  0  0  0  0  0  0  0  0  0
    5.7559  -20.6999   19.3441 N   0  0  0  0  0  0  0  0  0  0  0  0
   10.9550  -17.4566   21.3746 C   0  0  0  0  0  0  0  0  0  0  0  0
   10.1783  -18.0278   22.1856 O   0  0  0  0  0  0  0  0  0  0  0  0
   12.3262  -17.4301   21.8005 N   0  0  0  0  0  0  0  0  0  0  0  0
   12.7499  -17.9493   23.1025 C   0  0  1  0  0  0  0  0  0  0  0  0
   14.2111  -18.2357   23.1213 C   0  0  0  0  0  0  0  0  0  0  0  0
   14.6249  -18.9792   21.9237 C   0  0  0  0  0  0  0  0  0  0  0  0
   14.1689  -20.1217   21.5900 O   0  0  0  0  0  0  0  0  0  0  0  0
   12.4596  -16.9121   24.1516 C   0  0  0  0  0  0  0  0  0  0  0  0
   11.9873  -15.7922   23.7542 O   0  0  0  0  0  0  0  0  0  0  0  0
   15.5856  -18.4813   21.0271 O   0  0  0  0  0  0  0  0  0  0  0  0
   12.6583  -17.0664   25.4909 O   0  0  0  0  0  0  0  0  0  0  0  0
  2  1  1  1
  3  4  1  0
  3  2  1  0
  4  5  2  0
  6  5  1  0
  7  6  1  0
  8  7  2  0
  8  4  1  0
  9 11  1  0
  9  2  1  0
 10  9  2  0
 12 11  1  0
 12 13  1  6
 13 14  1  0
 14 15  1  0
 15 16  1  0
 17 16  1  0
 18 12  1  0
 19 18  2  0
 20 18  1  0
 21 25  1  0
 21 20  1  0
 21 22  1  6
 23 27  1  0
 23 22  1  0
 24 23  2  0
 25 28  1  0
 26 25  2  0
M  END
$$$$
