HKD.pdb
     RDKit          3D

 28 28  0  0  1  0  0  0  0  0999 V2000
    8.0435  -16.8681   19.9057 N   0  0  0  0  0  0  0  0  0  0  0  0
    9.4641  -16.5694   19.9316 C   0  0  1  0  0  0  0  0  0  0  0  0
    9.8360  -15.6468   18.7766 C   0  0  0  0  0  0  0  0  0  0  0  0
    8.9191  -14.5196   18.6226 C   0  0  0  0  0  0  0  0  0  0  0  0
    8.9704  -13.2539   19.1861 C   0  0  0  0  0  0  0  0  0  0  0  0
    7.8881  -12.5718   18.7355 N   0  0  0  0  0  0  0  0  0  0  0  0
    7.2003  -13.3929   17.9254 C   0  0  0  0  0  0  0  0  0  0  0  0
    7.8139  -14.5662   17.8524 N   0  0  0  0  0  0  0  0  0  0  0  0
    9.7615  -15.8938   21.2145 C   0  0  0  0  0  0  0  0  0  0  0  0
   10.9011  -15.4559   21.4916 O   0  0  0  0  0  0  0  0  0  0  0  0
    8.7313  -15.7310   22.1650 N   0  0  0  0  0  0  0  0  0  0  0  0
    8.9071  -15.2085   23.5103 C   0  0  1  0  0  0  0  0  0  0  0  0
    7.7074  -14.4098   23.9395 C   0  0  0  0  0  0  0  0  0  0  0  0
    7.9418  -13.7755   25.2564 C   0  0  0  0  0  0  0  0  0  0  0  0
    6.8048  -12.9453   25.7788 C   0  0  0  0  0  0  0  0  0  0  0  0
    7.1157  -12.2978   27.1079 C   0  0  0  0  0  0  0  0  0  0  0  0
    5.8959  -11.6294   27.5427 N   0  0  0  0  0  0  0  0  0  0  0  0
    9.2181  -16.3187   24.4359 C   0  0  0  0  0  0  0  0  0  0  0  0
    8.4861  -17.3290   24.6109 O   0  0  0  0  0  0  0  0  0  0  0  0
   10.4181  -16.3241   25.2248 N   0  0  0  0  0  0  0  0  0  0  0  0
   10.8161  -17.4784   26.0332 C   0  0  1  0  0  0  0  0  0  0  0  0
   12.2980  -17.5786   26.1407 C   0  0  0  0  0  0  0  0  0  0  0  0
   12.9347  -17.5151   24.8183 C   0  0  0  0  0  0  0  0  0  0  0  0
   13.3584  -16.4442   24.2718 O   0  0  0  0  0  0  0  0  0  0  0  0
   10.2536  -17.3130   27.4177 C   0  0  0  0  0  0  0  0  0  0  0  0
    9.7617  -16.1716   27.7183 O   0  0  0  0  0  0  0  0  0  0  0  0
   13.1300  -18.6581   24.0246 O   0  0  0  0  0  0  0  0  0  0  0  0
   10.2246  -18.2785   28.3790 O   0  0  0  0  0  0  0  0  0  0  0  0
  2  1  1  1
  3  4  1  0
  3  2  1  0
  4  5  2  0
  6  5  1  0
  7  6  1  0
  8  7  2  0
  8  4  1  0
  9 11  1  0
  9  2  1  0
 10  9  2  0
 12 11  1  0
 12 13  1  1
 13 14  1  0
 14 15  1  0
 15 16  1  0
 17 16  1  0
 18 12  1  0
 19 18  2  0
 20 18  1  0
 21 25  1  0
 21 20  1  0
 21 22  1  1
 23 27  1  0
 23 22  1  0
 24 23  2  0
 25 28  1  0
 26 25  2  0
M  END
$$$$
