HKD.pdb
     RDKit          3D

 28 28  0  0  1  0  0  0  0  0999 V2000
   11.0834  -13.6662   19.6010 N   0  0  0  0  0  0  0  0  0  0  0  0
    9.7154  -13.8923   20.0318 C   0  0  1  0  0  0  0  0  0  0  0  0
    9.1320  -15.1155   19.3340 C   0  0  0  0  0  0  0  0  0  0  0  0
    8.6274  -14.8269   17.9935 C   0  0  0  0  0  0  0  0  0  0  0  0
    8.7017  -13.6573   17.2528 C   0  0  0  0  0  0  0  0  0  0  0  0
    8.0828  -13.8938   16.0693 N   0  0  0  0  0  0  0  0  0  0  0  0
    7.6460  -15.1636   16.0873 C   0  0  0  0  0  0  0  0  0  0  0  0
    7.9696  -15.7314   17.2412 N   0  0  0  0  0  0  0  0  0  0  0  0
    9.7333  -14.1233   21.4936 C   0  0  0  0  0  0  0  0  0  0  0  0
   10.6570  -14.7497   22.0607 O   0  0  0  0  0  0  0  0  0  0  0  0
    8.6779  -13.6229   22.2855 N   0  0  0  0  0  0  0  0  0  0  0  0
    8.5604  -13.7858   23.7254 C   0  0  1  0  0  0  0  0  0  0  0  0
    7.4655  -12.9162   24.2789 C   0  0  0  0  0  0  0  0  0  0  0  0
    7.3612  -13.0730   25.7472 C   0  0  0  0  0  0  0  0  0  0  0  0
    6.4176  -12.1230   26.4272 C   0  0  0  0  0  0  0  0  0  0  0  0
    6.3382  -12.3455   27.9194 C   0  0  0  0  0  0  0  0  0  0  0  0
    5.3206  -11.4327   28.4245 N   0  0  0  0  0  0  0  0  0  0  0  0
    8.3748  -15.2167   24.0482 C   0  0  0  0  0  0  0  0  0  0  0  0
    7.7032  -16.0245   23.3529 O   0  0  0  0  0  0  0  0  0  0  0  0
    8.9695  -15.8059   25.2150 N   0  0  0  0  0  0  0  0  0  0  0  0
    9.4786  -17.1789   25.2235 C   0  0  1  0  0  0  0  0  0  0  0  0
   10.4624  -17.3980   24.1274 C   0  0  0  0  0  0  0  0  0  0  0  0
   11.0700  -18.7327   24.2141 C   0  0  0  0  0  0  0  0  0  0  0  0
   10.4597  -19.7791   24.6109 O   0  0  0  0  0  0  0  0  0  0  0  0
   10.1713  -17.4270   26.5348 C   0  0  0  0  0  0  0  0  0  0  0  0
   10.6322  -18.6017   26.7414 O   0  0  0  0  0  0  0  0  0  0  0  0
   12.4093  -18.9710   23.8622 O   0  0  0  0  0  0  0  0  0  0  0  0
   10.3486  -16.5039   27.5214 O   0  0  0  0  0  0  0  0  0  0  0  0
  2  1  1  6
  3  4  1  0
  3  2  1  0
  4  5  2  0
  6  5  1  0
  7  6  1  0
  8  7  2  0
  8  4  1  0
  9 11  1  0
  9  2  1  0
 10  9  2  0
 12 11  1  0
 12 13  1  6
 13 14  1  0
 14 15  1  0
 15 16  1  0
 17 16  1  0
 18 12  1  0
 19 18  2  0
 20 18  1  0
 21 25  1  0
 21 20  1  0
 21 22  1  6
 23 27  1  0
 23 22  1  0
 24 23  2  0
 25 28  1  0
 26 25  2  0
M  END
$$$$
