HKD.pdb
     RDKit          3D

 28 28  0  0  1  0  0  0  0  0999 V2000
    7.8474  -15.9101   19.8387 N   0  0  0  0  0  0  0  0  0  0  0  0
    8.8173  -14.8322   19.7629 C   0  0  1  0  0  0  0  0  0  0  0  0
    8.2307  -13.6387   19.0179 C   0  0  0  0  0  0  0  0  0  0  0  0
    7.9398  -13.9232   17.6145 C   0  0  0  0  0  0  0  0  0  0  0  0
    8.4100  -13.2991   16.4692 C   0  0  0  0  0  0  0  0  0  0  0  0
    7.8447  -13.9298   15.4098 N   0  0  0  0  0  0  0  0  0  0  0  0
    7.0570  -14.9047   15.8920 C   0  0  0  0  0  0  0  0  0  0  0  0
    7.1087  -14.9071   17.2171 N   0  0  0  0  0  0  0  0  0  0  0  0
    9.1553  -14.4291   21.1464 C   0  0  0  0  0  0  0  0  0  0  0  0
   10.0635  -13.6059   21.4004 O   0  0  0  0  0  0  0  0  0  0  0  0
    8.4336  -14.9850   22.2242 N   0  0  0  0  0  0  0  0  0  0  0  0
    8.6645  -14.6891   23.6287 C   0  0  1  0  0  0  0  0  0  0  0  0
    7.4714  -14.0072   24.2393 C   0  0  0  0  0  0  0  0  0  0  0  0
    7.7593  -13.5895   25.6300 C   0  0  0  0  0  0  0  0  0  0  0  0
    6.6586  -12.8279   26.3108 C   0  0  0  0  0  0  0  0  0  0  0  0
    7.0210  -12.4066   27.7157 C   0  0  0  0  0  0  0  0  0  0  0  0
    5.8524  -11.7297   28.2636 N   0  0  0  0  0  0  0  0  0  0  0  0
    9.0428  -15.9289   24.3400 C   0  0  0  0  0  0  0  0  0  0  0  0
    8.3227  -16.9603   24.4100 O   0  0  0  0  0  0  0  0  0  0  0  0
   10.3011  -16.0487   25.0216 N   0  0  0  0  0  0  0  0  0  0  0  0
   10.7003  -17.2753   25.7147 C   0  0  1  0  0  0  0  0  0  0  0  0
   12.1684  -17.5023   25.6107 C   0  0  0  0  0  0  0  0  0  0  0  0
   12.5670  -17.7927   24.2268 C   0  0  0  0  0  0  0  0  0  0  0  0
   11.7520  -17.9712   23.2632 O   0  0  0  0  0  0  0  0  0  0  0  0
   10.3461  -17.1427   27.1699 C   0  0  0  0  0  0  0  0  0  0  0  0
   10.1238  -15.9645   27.6143 O   0  0  0  0  0  0  0  0  0  0  0  0
   13.9140  -17.9051   23.8426 O   0  0  0  0  0  0  0  0  0  0  0  0
   10.2427  -18.1739   28.0547 O   0  0  0  0  0  0  0  0  0  0  0  0
  2  1  1  1
  3  4  1  0
  3  2  1  0
  4  5  2  0
  6  5  1  0
  7  6  1  0
  8  7  2  0
  8  4  1  0
  9 11  1  0
  9  2  1  0
 10  9  2  0
 12 11  1  0
 12 13  1  1
 13 14  1  0
 14 15  1  0
 15 16  1  0
 17 16  1  0
 18 12  1  0
 19 18  2  0
 20 18  1  0
 21 25  1  0
 21 20  1  0
 21 22  1  1
 23 27  1  0
 23 22  1  0
 24 23  2  0
 25 28  1  0
 26 25  2  0
M  END
$$$$
