HKD.pdb
     RDKit          3D

 28 28  0  0  1  0  0  0  0  0999 V2000
    8.0812  -17.6764   15.2787 N   0  0  0  0  0  0  0  0  0  0  0  0
    9.3942  -17.4662   15.8619 C   0  0  1  0  0  0  0  0  0  0  0  0
   10.2140  -16.5131   14.9998 C   0  0  0  0  0  0  0  0  0  0  0  0
   10.6789  -17.1196   13.7544 C   0  0  0  0  0  0  0  0  0  0  0  0
   10.5349  -18.4200   13.2958 C   0  0  0  0  0  0  0  0  0  0  0  0
   11.1421  -18.4861   12.0847 N   0  0  0  0  0  0  0  0  0  0  0  0
   11.6393  -17.2683   11.8140 C   0  0  0  0  0  0  0  0  0  0  0  0
   11.3650  -16.4410   12.8134 N   0  0  0  0  0  0  0  0  0  0  0  0
    9.2036  -16.8728   17.2043 C   0  0  0  0  0  0  0  0  0  0  0  0
    8.6530  -15.7611   17.3724 O   0  0  0  0  0  0  0  0  0  0  0  0
    9.6532  -17.5771   18.3416 N   0  0  0  0  0  0  0  0  0  0  0  0
    9.4388  -17.1676   19.7199 C   0  0  1  0  0  0  0  0  0  0  0  0
    8.1360  -17.7044   20.2454 C   0  0  0  0  0  0  0  0  0  0  0  0
    8.0142  -19.1534   19.9676 C   0  0  0  0  0  0  0  0  0  0  0  0
    6.6942  -19.7673   20.3362 C   0  0  0  0  0  0  0  0  0  0  0  0
    6.6383  -21.2496   20.0500 C   0  0  0  0  0  0  0  0  0  0  0  0
    5.2840  -21.6854   20.3656 N   0  0  0  0  0  0  0  0  0  0  0  0
   10.5990  -17.5714   20.5426 C   0  0  0  0  0  0  0  0  0  0  0  0
   11.2245  -18.6571   20.4112 O   0  0  0  0  0  0  0  0  0  0  0  0
   11.1129  -16.7244   21.5822 N   0  0  0  0  0  0  0  0  0  0  0  0
   12.1772  -17.1591   22.4892 C   0  0  1  0  0  0  0  0  0  0  0  0
   13.1833  -16.0814   22.6986 C   0  0  0  0  0  0  0  0  0  0  0  0
   14.0865  -15.9628   21.5461 C   0  0  0  0  0  0  0  0  0  0  0  0
   14.1222  -16.7815   20.5698 O   0  0  0  0  0  0  0  0  0  0  0  0
   11.5662  -17.4983   23.8205 C   0  0  0  0  0  0  0  0  0  0  0  0
   10.3651  -17.1126   24.0297 O   0  0  0  0  0  0  0  0  0  0  0  0
   15.0124  -14.9129   21.4243 O   0  0  0  0  0  0  0  0  0  0  0  0
   12.1862  -18.1824   24.8228 O   0  0  0  0  0  0  0  0  0  0  0  0
  2  1  1  6
  3  4  1  0
  3  2  1  0
  4  5  2  0
  6  5  1  0
  7  6  1  0
  8  7  2  0
  8  4  1  0
  9 11  1  0
  9  2  1  0
 10  9  2  0
 12 11  1  0
 12 13  1  1
 13 14  1  0
 14 15  1  0
 15 16  1  0
 17 16  1  0
 18 12  1  0
 19 18  2  0
 20 18  1  0
 21 25  1  0
 21 20  1  0
 21 22  1  1
 23 27  1  0
 23 22  1  0
 24 23  2  0
 25 28  1  0
 26 25  2  0
M  END
$$$$
