HKD.pdb
     RDKit          3D

 28 28  0  0  1  0  0  0  0  0999 V2000
    9.8364  -15.4996   19.4460 N   0  0  0  0  0  0  0  0  0  0  0  0
    9.3847  -15.0336   20.7448 C   0  0  1  0  0  0  0  0  0  0  0  0
    7.8994  -14.6937   20.7022 C   0  0  0  0  0  0  0  0  0  0  0  0
    7.5640  -13.7083   19.6768 C   0  0  0  0  0  0  0  0  0  0  0  0
    7.6753  -12.3267   19.7073 C   0  0  0  0  0  0  0  0  0  0  0  0
    7.2334  -11.8638   18.5114 N   0  0  0  0  0  0  0  0  0  0  0  0
    6.8652  -12.9261   17.7770 C   0  0  0  0  0  0  0  0  0  0  0  0
    7.0609  -14.0390   18.4709 N   0  0  0  0  0  0  0  0  0  0  0  0
    9.6109  -16.1233   21.7206 C   0  0  0  0  0  0  0  0  0  0  0  0
    9.1485  -16.0868   22.8834 O   0  0  0  0  0  0  0  0  0  0  0  0
   10.3718  -17.2481   21.3367 N   0  0  0  0  0  0  0  0  0  0  0  0
   10.7266  -18.3568   22.2076 C   0  0  1  0  0  0  0  0  0  0  0  0
   11.0544  -19.5873   21.4076 C   0  0  0  0  0  0  0  0  0  0  0  0
    9.8241  -20.2000   20.8577 C   0  0  0  0  0  0  0  0  0  0  0  0
   10.0438  -21.3890   19.9671 C   0  0  0  0  0  0  0  0  0  0  0  0
    8.7521  -21.9883   19.4624 C   0  0  0  0  0  0  0  0  0  0  0  0
    9.1189  -23.0618   18.5476 N   0  0  0  0  0  0  0  0  0  0  0  0
   11.8265  -17.9475   23.1069 C   0  0  0  0  0  0  0  0  0  0  0  0
   12.7982  -17.2230   22.7630 O   0  0  0  0  0  0  0  0  0  0  0  0
   11.8639  -18.3592   24.4822 N   0  0  0  0  0  0  0  0  0  0  0  0
   12.9182  -17.9224   25.3998 C   0  0  1  0  0  0  0  0  0  0  0  0
   12.5094  -18.1054   26.8200 C   0  0  0  0  0  0  0  0  0  0  0  0
   12.0673  -19.4830   27.0751 C   0  0  0  0  0  0  0  0  0  0  0  0
   12.6284  -20.5218   26.5946 O   0  0  0  0  0  0  0  0  0  0  0  0
   14.1463  -18.7538   25.1523 C   0  0  0  0  0  0  0  0  0  0  0  0
   13.9925  -19.8519   24.5154 O   0  0  0  0  0  0  0  0  0  0  0  0
   10.9584  -19.7763   27.8867 O   0  0  0  0  0  0  0  0  0  0  0  0
   15.4098  -18.4343   25.5506 O   0  0  0  0  0  0  0  0  0  0  0  0
  2  1  1  6
  3  4  1  0
  3  2  1  0
  4  5  2  0
  6  5  1  0
  7  6  1  0
  8  7  2  0
  8  4  1  0
  9 11  1  0
  9  2  1  0
 10  9  2  0
 12 11  1  0
 12 13  1  6
 13 14  1  0
 14 15  1  0
 15 16  1  0
 17 16  1  0
 18 12  1  0
 19 18  2  0
 20 18  1  0
 21 25  1  0
 21 20  1  0
 21 22  1  1
 23 27  1  0
 23 22  1  0
 24 23  2  0
 25 28  1  0
 26 25  2  0
M  END
$$$$
