HKD.pdb
     RDKit          3D

 28 28  0  0  1  0  0  0  0  0999 V2000
    8.7324  -16.4302   19.7999 N   0  0  0  0  0  0  0  0  0  0  0  0
    8.6375  -15.3732   20.7908 C   0  0  1  0  0  0  0  0  0  0  0  0
    7.4783  -14.4389   20.4643 C   0  0  0  0  0  0  0  0  0  0  0  0
    7.5801  -13.8384   19.1361 C   0  0  0  0  0  0  0  0  0  0  0  0
    8.2678  -12.7061   18.7273 C   0  0  0  0  0  0  0  0  0  0  0  0
    8.0491  -12.5646   17.3962 N   0  0  0  0  0  0  0  0  0  0  0  0
    7.2554  -13.5754   17.0065 C   0  0  0  0  0  0  0  0  0  0  0  0
    6.9689  -14.3457   18.0472 N   0  0  0  0  0  0  0  0  0  0  0  0
    8.4012  -16.0067   22.1075 C   0  0  0  0  0  0  0  0  0  0  0  0
    8.2818  -15.3388   23.1595 O   0  0  0  0  0  0  0  0  0  0  0  0
    8.3039  -17.4121   22.1908 N   0  0  0  0  0  0  0  0  0  0  0  0
    8.2320  -18.1754   23.4261 C   0  0  1  0  0  0  0  0  0  0  0  0
    7.3013  -19.3478   23.2820 C   0  0  0  0  0  0  0  0  0  0  0  0
    7.2619  -20.1441   24.5293 C   0  0  0  0  0  0  0  0  0  0  0  0
    6.4393  -21.3986   24.4624 C   0  0  0  0  0  0  0  0  0  0  0  0
    6.4941  -22.2028   25.7402 C   0  0  0  0  0  0  0  0  0  0  0  0
    5.7144  -23.4117   25.5070 N   0  0  0  0  0  0  0  0  0  0  0  0
    9.5939  -18.5721   23.8429 C   0  0  0  0  0  0  0  0  0  0  0  0
   10.2939  -19.4429   23.2606 O   0  0  0  0  0  0  0  0  0  0  0  0
   10.2366  -17.9703   24.9774 N   0  0  0  0  0  0  0  0  0  0  0  0
   11.5638  -18.3866   25.4351 C   0  0  1  0  0  0  0  0  0  0  0  0
   12.5356  -17.2600   25.3731 C   0  0  0  0  0  0  0  0  0  0  0  0
   12.9488  -16.9867   23.9900 C   0  0  0  0  0  0  0  0  0  0  0  0
   12.4332  -16.0886   23.2469 O   0  0  0  0  0  0  0  0  0  0  0  0
   11.4593  -18.8403   26.8648 C   0  0  0  0  0  0  0  0  0  0  0  0
   10.3580  -18.6122   27.4733 O   0  0  0  0  0  0  0  0  0  0  0  0
   13.9692  -17.7145   23.3548 O   0  0  0  0  0  0  0  0  0  0  0  0
   12.4408  -19.4744   27.5659 O   0  0  0  0  0  0  0  0  0  0  0  0
  2  1  1  6
  3  4  1  0
  3  2  1  0
  4  5  2  0
  6  5  1  0
  7  6  1  0
  8  7  2  0
  8  4  1  0
  9 11  1  0
  9  2  1  0
 10  9  2  0
 12 11  1  0
 12 13  1  6
 13 14  1  0
 14 15  1  0
 15 16  1  0
 17 16  1  0
 18 12  1  0
 19 18  2  0
 20 18  1  0
 21 25  1  0
 21 20  1  0
 21 22  1  1
 23 27  1  0
 23 22  1  0
 24 23  2  0
 25 28  1  0
 26 25  2  0
M  END
$$$$
