WYT.pdb
     RDKit          3D

 34 36  0  0  1  0  0  0  0  0999 V2000
   28.3754  -21.0904  -16.6184 N   0  0  0  0  0  0  0  0  0  0  0  0
   27.2305  -20.2360  -16.3762 C   0  0  1  0  0  0  0  0  0  0  0  0
   26.4076  -20.0798  -17.6374 C   0  0  0  0  0  0  0  0  0  0  0  0
   27.0875  -19.1990  -18.6212 C   0  0  0  0  0  0  0  0  0  0  0  0
   27.7498  -19.5853  -19.7876 C   0  0  0  0  0  0  0  0  0  0  0  0
   28.2315  -18.4953  -20.4056 N   0  0  0  0  0  0  0  0  0  0  0  0
   27.9229  -17.3859  -19.7061 C   0  0  0  0  0  0  0  0  0  0  0  0
   28.2000  -16.0540  -19.9438 C   0  0  0  0  0  0  0  0  0  0  0  0
   27.7490  -15.1172  -19.0370 C   0  0  0  0  0  0  0  0  0  0  0  0
   27.0398  -15.5325  -17.9275 C   0  0  0  0  0  0  0  0  0  0  0  0
   26.7724  -16.8675  -17.7065 C   0  0  0  0  0  0  0  0  0  0  0  0
   27.2122  -17.8188  -18.5970 C   0  0  0  0  0  0  0  0  0  0  0  0
   26.4174  -20.7070  -15.2373 C   0  0  0  0  0  0  0  0  0  0  0  0
   26.1878  -21.9461  -15.1434 O   0  0  0  0  0  0  0  0  0  0  0  0
   30.9196  -21.6822  -10.5622 O   0  0  0  0  0  0  0  0  0  0  0  0
   29.6339  -21.2388  -10.8532 C   0  0  0  0  0  0  0  0  0  0  0  0
   29.4120  -20.3681  -11.8998 C   0  0  0  0  0  0  0  0  0  0  0  0
   28.1238  -19.9320  -12.1813 C   0  0  0  0  0  0  0  0  0  0  0  0
   27.0287  -20.3407  -11.4425 C   0  0  0  0  0  0  0  0  0  0  0  0
   25.7018  -19.8382  -11.7989 C   0  0  0  0  0  0  0  0  0  0  0  0
   25.1761  -20.3732  -13.1071 C   0  0  2  0  0  0  0  0  0  0  0  0
   25.8792  -19.8647  -14.2460 N   0  0  0  0  0  0  0  0  0  0  0  0
   23.7204  -20.0719  -13.1598 C   0  0  0  0  0  0  0  0  0  0  0  0
   23.3082  -18.8851  -13.2140 O   0  0  0  0  0  0  0  0  0  0  0  0
   27.2465  -21.2008  -10.4085 C   0  0  0  0  0  0  0  0  0  0  0  0
   28.5343  -21.6427  -10.1197 C   0  0  0  0  0  0  0  0  0  0  0  0
   21.0834  -21.2386  -15.5086 C   0  0  0  0  0  0  0  0  0  0  0  0
   20.5446  -21.6244  -14.1451 C   0  0  1  0  0  0  0  0  0  0  0  0
   20.8885  -22.9602  -13.9401 O   0  0  0  0  0  0  0  0  0  0  0  0
   21.3050  -20.8101  -13.1234 C   0  0  2  0  0  0  0  0  0  0  0  0
   22.7243  -21.0923  -13.1523 N   0  0  0  0  0  0  0  0  0  0  0  0
   20.7341  -20.9309  -11.7709 C   0  0  0  0  0  0  0  0  0  0  0  0
   19.4326  -20.5670  -11.5336 O   0  0  0  0  0  0  0  0  0  0  0  0
   21.4379  -21.3654  -10.8408 O   0  0  0  0  0  0  0  0  0  0  0  0
  2  1  1  6
  2  3  1  0
  3  4  1  0
  4  5  2  0
  6  5  1  0
  7  6  1  0
  8  7  2  0
  9  8  1  0
 10  9  2  0
 10 11  1  0
 11 12  2  0
 12  7  1  0
 12  4  1  0
 13  2  1  0
 13 14  2  0
 15 16  1  0
 16 26  2  0
 16 17  1  0
 17 18  2  0
 18 19  1  0
 19 20  1  0
 21 20  1  1
 22 21  1  0
 22 13  1  0
 23 21  1  0
 24 23  2  0
 25 19  2  0
 26 25  1  0
 28 27  1  6
 28 30  1  0
 29 28  1  0
 30 32  1  0
 30 31  1  1
 31 23  1  0
 32 33  1  0
 34 32  2  0
M  END
$$$$
