WYT.pdb
     RDKit          3D

 34 36  0  0  1  0  0  0  0  0999 V2000
   22.7546   -6.5974  -21.9011 N   0  0  0  0  0  0  0  0  0  0  0  0
   21.9908   -5.6631  -21.0991 C   0  0  1  0  0  0  0  0  0  0  0  0
   20.7185   -5.2637  -21.8158 C   0  0  0  0  0  0  0  0  0  0  0  0
   21.0087   -4.4203  -23.0035 C   0  0  0  0  0  0  0  0  0  0  0  0
   21.5109   -4.8387  -24.2368 C   0  0  0  0  0  0  0  0  0  0  0  0
   21.6346   -3.7767  -25.0486 N   0  0  0  0  0  0  0  0  0  0  0  0
   21.2369   -2.6554  -24.4161 C   0  0  0  0  0  0  0  0  0  0  0  0
   21.1838   -1.3421  -24.8397 C   0  0  0  0  0  0  0  0  0  0  0  0
   20.7230   -0.3857  -23.9587 C   0  0  0  0  0  0  0  0  0  0  0  0
   20.3313   -0.7638  -22.6898 C   0  0  0  0  0  0  0  0  0  0  0  0
   20.3913   -2.0808  -22.2840 C   0  0  0  0  0  0  0  0  0  0  0  0
   20.8473   -3.0510  -23.1455 C   0  0  0  0  0  0  0  0  0  0  0  0
   21.7244   -6.1838  -19.7434 C   0  0  0  0  0  0  0  0  0  0  0  0
   21.7548   -7.4353  -19.5710 O   0  0  0  0  0  0  0  0  0  0  0  0
   21.3653   -8.1630  -11.3124 O   0  0  0  0  0  0  0  0  0  0  0  0
   21.6178   -7.6243  -12.5696 C   0  0  0  0  0  0  0  0  0  0  0  0
   21.7568   -8.4448  -13.6696 C   0  0  0  0  0  0  0  0  0  0  0  0
   22.0088   -7.8958  -14.9202 C   0  0  0  0  0  0  0  0  0  0  0  0
   22.1294   -6.5323  -15.1165 C   0  0  0  0  0  0  0  0  0  0  0  0
   22.3956   -6.0278  -16.4637 C   0  0  0  0  0  0  0  0  0  0  0  0
   21.1673   -5.9255  -17.3324 C   0  0  2  0  0  0  0  0  0  0  0  0
   21.4378   -5.3760  -18.6266 N   0  0  0  0  0  0  0  0  0  0  0  0
   20.1548   -5.1351  -16.5823 C   0  0  0  0  0  0  0  0  0  0  0  0
   20.3703   -3.9346  -16.2759 O   0  0  0  0  0  0  0  0  0  0  0  0
   21.9923   -5.7208  -14.0308 C   0  0  0  0  0  0  0  0  0  0  0  0
   21.7397   -6.2628  -12.7740 C   0  0  0  0  0  0  0  0  0  0  0  0
   16.5805   -4.7378  -17.5651 C   0  0  0  0  0  0  0  0  0  0  0  0
   16.5095   -5.1448  -16.1066 C   0  0  1  0  0  0  0  0  0  0  0  0
   16.2939   -6.5224  -16.0835 O   0  0  0  0  0  0  0  0  0  0  0  0
   17.8782   -4.9013  -15.5131 C   0  0  2  0  0  0  0  0  0  0  0  0
   18.9026   -5.6816  -16.1739 N   0  0  0  0  0  0  0  0  0  0  0  0
   17.8950   -5.0731  -14.0503 C   0  0  0  0  0  0  0  0  0  0  0  0
   17.0957   -4.2940  -13.2523 O   0  0  0  0  0  0  0  0  0  0  0  0
   18.6388   -5.9299  -13.5383 O   0  0  0  0  0  0  0  0  0  0  0  0
  2  1  1  6
  2  3  1  0
  3  4  1  0
  4  5  2  0
  6  5  1  0
  7  6  1  0
  8  7  2  0
  9  8  1  0
 10  9  2  0
 10 11  1  0
 11 12  2  0
 12  7  1  0
 12  4  1  0
 13  2  1  0
 13 14  2  0
 15 16  1  0
 16 26  2  0
 16 17  1  0
 17 18  2  0
 18 19  1  0
 19 20  1  0
 21 20  1  1
 22 21  1  0
 22 13  1  0
 23 21  1  0
 24 23  2  0
 25 19  2  0
 26 25  1  0
 28 27  1  6
 28 30  1  0
 29 28  1  0
 30 32  1  0
 30 31  1  6
 31 23  1  0
 32 33  1  0
 34 32  2  0
M  END
$$$$
