WYT.pdb
     RDKit          3D

 34 36  0  0  1  0  0  0  0  0999 V2000
   25.0165  -20.9428  -16.6806 N   0  0  0  0  0  0  0  0  0  0  0  0
   23.6657  -20.4381  -16.5384 C   0  0  1  0  0  0  0  0  0  0  0  0
   23.0069  -20.2933  -17.8938 C   0  0  0  0  0  0  0  0  0  0  0  0
   23.6996  -19.2765  -18.7260 C   0  0  0  0  0  0  0  0  0  0  0  0
   24.8475  -19.4551  -19.4999 C   0  0  0  0  0  0  0  0  0  0  0  0
   25.1607  -18.2969  -20.1022 N   0  0  0  0  0  0  0  0  0  0  0  0
   24.2723  -17.3406  -19.7683 C   0  0  0  0  0  0  0  0  0  0  0  0
   24.1845  -16.0122  -20.1354 C   0  0  0  0  0  0  0  0  0  0  0  0
   23.1469  -15.2576  -19.6284 C   0  0  0  0  0  0  0  0  0  0  0  0
   22.2332  -15.8452  -18.7760 C   0  0  0  0  0  0  0  0  0  0  0  0
   22.3369  -17.1738  -18.4202 C   0  0  0  0  0  0  0  0  0  0  0  0
   23.3631  -17.9451  -18.9136 C   0  0  0  0  0  0  0  0  0  0  0  0
   22.8600  -21.2611  -15.6145 C   0  0  0  0  0  0  0  0  0  0  0  0
   22.9256  -22.5180  -15.7274 O   0  0  0  0  0  0  0  0  0  0  0  0
   27.3384  -21.6354  -11.5286 O   0  0  0  0  0  0  0  0  0  0  0  0
   25.9603  -21.6029  -11.7143 C   0  0  0  0  0  0  0  0  0  0  0  0
   25.2817  -20.4021  -11.7242 C   0  0  0  0  0  0  0  0  0  0  0  0
   23.9056  -20.3817  -11.9105 C   0  0  0  0  0  0  0  0  0  0  0  0
   23.1683  -21.5377  -12.0904 C   0  0  0  0  0  0  0  0  0  0  0  0
   21.7213  -21.4369  -12.2805 C   0  0  0  0  0  0  0  0  0  0  0  0
   21.2820  -21.5736  -13.7166 C   0  0  2  0  0  0  0  0  0  0  0  0
   22.0210  -20.7367  -14.6129 N   0  0  0  0  0  0  0  0  0  0  0  0
   19.8203  -21.3018  -13.7639 C   0  0  0  0  0  0  0  0  0  0  0  0
   19.3832  -20.1836  -14.1382 O   0  0  0  0  0  0  0  0  0  0  0  0
   23.8374  -22.7245  -12.0807 C   0  0  0  0  0  0  0  0  0  0  0  0
   25.2165  -22.7538  -11.8947 C   0  0  0  0  0  0  0  0  0  0  0  0
   18.5005  -21.8866  -16.1262 C   0  0  0  0  0  0  0  0  0  0  0  0
   17.4949  -22.7474  -15.3875 C   0  0  1  0  0  0  0  0  0  0  0  0
   17.9860  -24.0523  -15.4145 O   0  0  0  0  0  0  0  0  0  0  0  0
   17.5069  -22.3000  -13.9437 C   0  0  2  0  0  0  0  0  0  0  0  0
   18.8459  -22.2753  -13.3947 N   0  0  0  0  0  0  0  0  0  0  0  0
   16.5699  -23.0710  -13.1087 C   0  0  0  0  0  0  0  0  0  0  0  0
   15.2212  -23.0238  -13.3571 O   0  0  0  0  0  0  0  0  0  0  0  0
   17.0062  -23.7677  -12.1741 O   0  0  0  0  0  0  0  0  0  0  0  0
  2  1  1  6
  2  3  1  0
  3  4  1  0
  4  5  2  0
  6  5  1  0
  7  6  1  0
  8  7  2  0
  9  8  1  0
 10  9  2  0
 10 11  1  0
 11 12  2  0
 12  7  1  0
 12  4  1  0
 13  2  1  0
 13 14  2  0
 15 16  1  0
 16 26  2  0
 16 17  1  0
 17 18  2  0
 18 19  1  0
 19 20  1  0
 21 20  1  1
 22 21  1  0
 22 13  1  0
 23 21  1  0
 24 23  2  0
 25 19  2  0
 26 25  1  0
 28 27  1  6
 28 30  1  0
 29 28  1  0
 30 32  1  0
 30 31  1  1
 31 23  1  0
 32 33  1  0
 34 32  2  0
M  END
$$$$
