WYT.pdb
     RDKit          3D

 34 36  0  0  1  0  0  0  0  0999 V2000
   26.4865  -22.5338  -13.9392 N   0  0  0  0  0  0  0  0  0  0  0  0
   26.0383  -21.5920  -12.9334 C   0  0  1  0  0  0  0  0  0  0  0  0
   26.7355  -20.2591  -13.1051 C   0  0  0  0  0  0  0  0  0  0  0  0
   28.0739  -20.2620  -12.4611 C   0  0  0  0  0  0  0  0  0  0  0  0
   29.2995  -19.9547  -13.0543 C   0  0  0  0  0  0  0  0  0  0  0  0
   30.2763  -20.0736  -12.1410 N   0  0  0  0  0  0  0  0  0  0  0  0
   29.7630  -20.4488  -10.9531 C   0  0  0  0  0  0  0  0  0  0  0  0
   30.3692  -20.6929   -9.7364 C   0  0  0  0  0  0  0  0  0  0  0  0
   29.5770  -21.0699   -8.6717 C   0  0  0  0  0  0  0  0  0  0  0  0
   28.2132  -21.1919   -8.8496 C   0  0  0  0  0  0  0  0  0  0  0  0
   27.6252  -20.9440  -10.0725 C   0  0  0  0  0  0  0  0  0  0  0  0
   28.3953  -20.5669  -11.1478 C   0  0  0  0  0  0  0  0  0  0  0  0
   24.5685  -21.4521  -12.9197 C   0  0  0  0  0  0  0  0  0  0  0  0
   23.9156  -21.9455  -13.8826 O   0  0  0  0  0  0  0  0  0  0  0  0
   16.1787  -20.0076  -10.4793 O   0  0  0  0  0  0  0  0  0  0  0  0
   17.5683  -20.0560  -10.5145 C   0  0  0  0  0  0  0  0  0  0  0  0
   18.3008  -18.9396  -10.8603 C   0  0  0  0  0  0  0  0  0  0  0  0
   19.6879  -18.9995  -10.8921 C   0  0  0  0  0  0  0  0  0  0  0  0
   20.3837  -20.1546  -10.5858 C   0  0  0  0  0  0  0  0  0  0  0  0
   21.8454  -20.1413  -10.6415 C   0  0  0  0  0  0  0  0  0  0  0  0
   22.4145  -20.7203  -11.9123 C   0  0  2  0  0  0  0  0  0  0  0  0
   23.8438  -20.8035  -11.9018 N   0  0  0  0  0  0  0  0  0  0  0  0
   21.9036  -19.9011  -13.0439 C   0  0  0  0  0  0  0  0  0  0  0  0
   22.3128  -18.7261  -13.2269 O   0  0  0  0  0  0  0  0  0  0  0  0
   19.6613  -21.2581  -10.2441 C   0  0  0  0  0  0  0  0  0  0  0  0
   18.2708  -21.2066  -10.2097 C   0  0  0  0  0  0  0  0  0  0  0  0
   22.2535  -19.8103  -16.5062 C   0  0  0  0  0  0  0  0  0  0  0  0
   20.7573  -20.0254  -16.3909 C   0  0  1  0  0  0  0  0  0  0  0  0
   20.5438  -21.4025  -16.4449 O   0  0  0  0  0  0  0  0  0  0  0  0
   20.3509  -19.5687  -15.0084 C   0  0  2  0  0  0  0  0  0  0  0  0
   20.9374  -20.3906  -13.9714 N   0  0  0  0  0  0  0  0  0  0  0  0
   18.8906  -19.4391  -14.8661 C   0  0  0  0  0  0  0  0  0  0  0  0
   18.1883  -18.5870  -15.6807 O   0  0  0  0  0  0  0  0  0  0  0  0
   18.2933  -20.1070  -14.0021 O   0  0  0  0  0  0  0  0  0  0  0  0
  2  1  1  6
  2  3  1  0
  3  4  1  0
  4  5  2  0
  6  5  1  0
  7  6  1  0
  8  7  2  0
  9  8  1  0
 10  9  2  0
 10 11  1  0
 11 12  2  0
 12  7  1  0
 12  4  1  0
 13  2  1  0
 13 14  2  0
 15 16  1  0
 16 26  2  0
 16 17  1  0
 17 18  2  0
 18 19  1  0
 19 20  1  0
 21 20  1  1
 22 21  1  0
 22 13  1  0
 23 21  1  0
 24 23  2  0
 25 19  2  0
 26 25  1  0
 28 27  1  1
 28 30  1  0
 29 28  1  0
 30 32  1  0
 30 31  1  1
 31 23  1  0
 32 33  1  0
 34 32  2  0
M  END
$$$$
