WYT.pdb
     RDKit          3D

 34 36  0  0  1  0  0  0  0  0999 V2000
   19.2716  -13.5460  -20.1597 N   0  0  0  0  0  0  0  0  0  0  0  0
   19.3769  -13.2669  -18.7418 C   0  0  1  0  0  0  0  0  0  0  0  0
   20.6664  -13.8306  -18.1835 C   0  0  0  0  0  0  0  0  0  0  0  0
   20.7609  -15.2950  -18.4134 C   0  0  0  0  0  0  0  0  0  0  0  0
   21.6779  -15.9676  -19.2228 C   0  0  0  0  0  0  0  0  0  0  0  0
   21.4349  -17.2867  -19.1664 N   0  0  0  0  0  0  0  0  0  0  0  0
   20.3908  -17.5359  -18.3521 C   0  0  0  0  0  0  0  0  0  0  0  0
   19.7837  -18.7216  -17.9881 C   0  0  0  0  0  0  0  0  0  0  0  0
   18.7126  -18.6719  -17.1201 C   0  0  0  0  0  0  0  0  0  0  0  0
   18.2809  -17.4500  -16.6434 C   0  0  0  0  0  0  0  0  0  0  0  0
   18.8998  -16.2756  -17.0181 C   0  0  0  0  0  0  0  0  0  0  0  0
   19.9693  -16.3012  -17.8823 C   0  0  0  0  0  0  0  0  0  0  0  0
   19.2261  -11.8281  -18.4465 C   0  0  0  0  0  0  0  0  0  0  0  0
   19.7339  -10.9994  -19.2541 O   0  0  0  0  0  0  0  0  0  0  0  0
   16.1251   -3.9671  -16.1922 O   0  0  0  0  0  0  0  0  0  0  0  0
   16.3284   -5.3383  -16.3066 C   0  0  0  0  0  0  0  0  0  0  0  0
   16.4688   -5.9258  -17.5466 C   0  0  0  0  0  0  0  0  0  0  0  0
   16.6715   -7.2959  -17.6488 C   0  0  0  0  0  0  0  0  0  0  0  0
   16.7404   -8.1164  -16.5377 C   0  0  0  0  0  0  0  0  0  0  0  0
   16.9560   -9.5512  -16.7245 C   0  0  0  0  0  0  0  0  0  0  0  0
   18.3681   -9.9125  -17.1109 C   0  0  2  0  0  0  0  0  0  0  0  0
   18.5519  -11.3167  -17.3215 N   0  0  0  0  0  0  0  0  0  0  0  0
   19.2704   -9.3753  -16.0574 C   0  0  0  0  0  0  0  0  0  0  0  0
   19.2482   -9.8408  -14.8893 O   0  0  0  0  0  0  0  0  0  0  0  0
   16.6018   -7.5372  -15.3123 C   0  0  0  0  0  0  0  0  0  0  0  0
   16.3984   -6.1648  -15.2011 C   0  0  0  0  0  0  0  0  0  0  0  0
   22.8493   -9.3366  -15.8944 C   0  0  0  0  0  0  0  0  0  0  0  0
   22.5294   -7.8687  -15.6916 C   0  0  1  0  0  0  0  0  0  0  0  0
   22.6407   -7.2568  -16.9398 O   0  0  0  0  0  0  0  0  0  0  0  0
   21.0756   -7.7855  -15.2863 C   0  0  2  0  0  0  0  0  0  0  0  0
   20.1971   -8.3202  -16.3048 N   0  0  0  0  0  0  0  0  0  0  0  0
   20.6871   -6.4294  -14.8626 C   0  0  0  0  0  0  0  0  0  0  0  0
   21.3033   -5.8360  -13.7898 O   0  0  0  0  0  0  0  0  0  0  0  0
   19.7953   -5.8212  -15.4824 O   0  0  0  0  0  0  0  0  0  0  0  0
  2  1  1  6
  2  3  1  0
  3  4  1  0
  4  5  2  0
  6  5  1  0
  7  6  1  0
  8  7  2  0
  9  8  1  0
 10  9  2  0
 10 11  1  0
 11 12  2  0
 12  7  1  0
 12  4  1  0
 13  2  1  0
 13 14  2  0
 15 16  1  0
 16 26  2  0
 16 17  1  0
 17 18  2  0
 18 19  1  0
 19 20  1  0
 21 20  1  1
 22 21  1  0
 22 13  1  0
 23 21  1  0
 24 23  2  0
 25 19  2  0
 26 25  1  0
 28 27  1  6
 28 30  1  0
 29 28  1  0
 30 32  1  0
 30 31  1  6
 31 23  1  0
 32 33  1  0
 34 32  2  0
M  END
$$$$
