WYT.pdb
     RDKit          3D

 34 36  0  0  1  0  0  0  0  0999 V2000
   27.1019  -19.7127  -12.2908 N   0  0  0  0  0  0  0  0  0  0  0  0
   26.1221  -20.7515  -12.5369 C   0  0  1  0  0  0  0  0  0  0  0  0
   26.2345  -21.8453  -11.4963 C   0  0  0  0  0  0  0  0  0  0  0  0
   27.5104  -21.7456  -10.7424 C   0  0  0  0  0  0  0  0  0  0  0  0
   28.7796  -22.1383  -11.1705 C   0  0  0  0  0  0  0  0  0  0  0  0
   29.6727  -21.8846  -10.2008 N   0  0  0  0  0  0  0  0  0  0  0  0
   29.0609  -21.3362   -9.1329 C   0  0  0  0  0  0  0  0  0  0  0  0
   29.5597  -20.9130   -7.9167 C   0  0  0  0  0  0  0  0  0  0  0  0
   28.6812  -20.3805   -6.9958 C   0  0  0  0  0  0  0  0  0  0  0  0
   27.3405  -20.2861   -7.3120 C   0  0  0  0  0  0  0  0  0  0  0  0
   26.8603  -20.7141   -8.5322 C   0  0  0  0  0  0  0  0  0  0  0  0
   27.7177  -21.2482   -9.4654 C   0  0  0  0  0  0  0  0  0  0  0  0
   24.7512  -20.2109  -12.6286 C   0  0  0  0  0  0  0  0  0  0  0  0
   24.3288  -19.4974  -11.6750 O   0  0  0  0  0  0  0  0  0  0  0  0
   17.6961  -15.7507  -14.7587 O   0  0  0  0  0  0  0  0  0  0  0  0
   18.8837  -16.4748  -14.7645 C   0  0  0  0  0  0  0  0  0  0  0  0
   19.1052  -17.4516  -15.7129 C   0  0  0  0  0  0  0  0  0  0  0  0
   20.2948  -18.1684  -15.7092 C   0  0  0  0  0  0  0  0  0  0  0  0
   21.2898  -17.9416  -14.7760 C   0  0  0  0  0  0  0  0  0  0  0  0
   22.5161  -18.7370  -14.8353 C   0  0  0  0  0  0  0  0  0  0  0  0
   22.5882  -19.8283  -13.7970 C   0  0  2  0  0  0  0  0  0  0  0  0
   23.8806  -20.4386  -13.7113 N   0  0  0  0  0  0  0  0  0  0  0  0
   21.5172  -20.8123  -14.1087 C   0  0  0  0  0  0  0  0  0  0  0  0
   21.6388  -21.6171  -15.0675 O   0  0  0  0  0  0  0  0  0  0  0  0
   21.0721  -16.9771  -13.8387 C   0  0  0  0  0  0  0  0  0  0  0  0
   19.8827  -16.2541  -13.8354 C   0  0  0  0  0  0  0  0  0  0  0  0
   20.2784  -23.6190  -12.3746 C   0  0  0  0  0  0  0  0  0  0  0  0
   19.0057  -22.8125  -12.5418 C   0  0  1  0  0  0  0  0  0  0  0  0
   18.8472  -22.0649  -11.3752 O   0  0  0  0  0  0  0  0  0  0  0  0
   19.2489  -21.8318  -13.6660 C   0  0  2  0  0  0  0  0  0  0  0  0
   20.3114  -20.9002  -13.3527 N   0  0  0  0  0  0  0  0  0  0  0  0
   18.0143  -21.1539  -14.0973 C   0  0  0  0  0  0  0  0  0  0  0  0
   16.9420  -21.8853  -14.5423 O   0  0  0  0  0  0  0  0  0  0  0  0
   17.9462  -19.9117  -14.0569 O   0  0  0  0  0  0  0  0  0  0  0  0
  2  1  1  1
  2  3  1  0
  3  4  1  0
  4  5  2  0
  6  5  1  0
  7  6  1  0
  8  7  2  0
  9  8  1  0
 10  9  2  0
 10 11  1  0
 11 12  2  0
 12  7  1  0
 12  4  1  0
 13  2  1  0
 13 14  2  0
 15 16  1  0
 16 26  2  0
 16 17  1  0
 17 18  2  0
 18 19  1  0
 19 20  1  0
 21 20  1  6
 22 21  1  0
 22 13  1  0
 23 21  1  0
 24 23  2  0
 25 19  2  0
 26 25  1  0
 28 27  1  1
 28 30  1  0
 29 28  1  0
 30 32  1  0
 30 31  1  1
 31 23  1  0
 32 33  1  0
 34 32  2  0
M  END
$$$$
