WYT.pdb
     RDKit          3D

 34 36  0  0  1  0  0  0  0  0999 V2000
   27.3541  -21.4566  -18.3161 N   0  0  0  0  0  0  0  0  0  0  0  0
   26.6988  -20.5044  -17.4424 C   0  0  1  0  0  0  0  0  0  0  0  0
   25.2701  -20.2718  -17.8862 C   0  0  0  0  0  0  0  0  0  0  0  0
   25.2078  -19.3441  -19.0445 C   0  0  0  0  0  0  0  0  0  0  0  0
   25.3433  -19.6667  -20.3958 C   0  0  0  0  0  0  0  0  0  0  0  0
   25.2263  -18.5502  -21.1320 N   0  0  0  0  0  0  0  0  0  0  0  0
   25.0169  -17.4840  -20.3352 C   0  0  0  0  0  0  0  0  0  0  0  0
   24.8385  -16.1473  -20.6324 C   0  0  0  0  0  0  0  0  0  0  0  0
   24.6399  -15.2637  -19.5917 C   0  0  0  0  0  0  0  0  0  0  0  0
   24.6251  -15.7352  -18.2940 C   0  0  0  0  0  0  0  0  0  0  0  0
   24.8052  -17.0743  -18.0162 C   0  0  0  0  0  0  0  0  0  0  0  0
   25.0048  -17.9731  -19.0378 C   0  0  0  0  0  0  0  0  0  0  0  0
   26.7814  -20.9047  -16.0236 C   0  0  0  0  0  0  0  0  0  0  0  0
   26.4768  -22.0937  -15.7231 O   0  0  0  0  0  0  0  0  0  0  0  0
   26.8876  -20.6128   -7.1703 O   0  0  0  0  0  0  0  0  0  0  0  0
   27.1245  -20.3643   -8.5181 C   0  0  0  0  0  0  0  0  0  0  0  0
   26.5025  -19.3123   -9.1576 C   0  0  0  0  0  0  0  0  0  0  0  0
   26.7465  -19.0735  -10.5038 C   0  0  0  0  0  0  0  0  0  0  0  0
   27.6047  -19.8613  -11.2489 C   0  0  0  0  0  0  0  0  0  0  0  0
   27.8116  -19.5481  -12.6629 C   0  0  0  0  0  0  0  0  0  0  0  0
   26.9600  -20.3653  -13.6014 C   0  0  2  0  0  0  0  0  0  0  0  0
   27.1781  -20.0469  -14.9802 N   0  0  0  0  0  0  0  0  0  0  0  0
   25.5416  -20.1777  -13.1948 C   0  0  0  0  0  0  0  0  0  0  0  0
   24.9753  -19.0621  -13.3228 O   0  0  0  0  0  0  0  0  0  0  0  0
   28.2197  -20.9007  -10.6185 C   0  0  0  0  0  0  0  0  0  0  0  0
   27.9807  -21.1469   -9.2695 C   0  0  0  0  0  0  0  0  0  0  0  0
   22.5166  -21.4648  -14.4635 C   0  0  0  0  0  0  0  0  0  0  0  0
   22.4292  -21.9208  -13.0204 C   0  0  1  0  0  0  0  0  0  0  0  0
   22.9294  -23.2219  -12.9788 O   0  0  0  0  0  0  0  0  0  0  0  0
   23.3805  -21.0557  -12.2256 C   0  0  2  0  0  0  0  0  0  0  0  0
   24.7542  -21.2322  -12.6459 N   0  0  0  0  0  0  0  0  0  0  0  0
   23.2103  -21.2222  -10.7720 C   0  0  0  0  0  0  0  0  0  0  0  0
   21.9865  -21.0092  -10.1892 O   0  0  0  0  0  0  0  0  0  0  0  0
   24.1829  -21.5577  -10.0714 O   0  0  0  0  0  0  0  0  0  0  0  0
  2  1  1  6
  2  3  1  0
  3  4  1  0
  4  5  2  0
  6  5  1  0
  7  6  1  0
  8  7  2  0
  9  8  1  0
 10  9  2  0
 10 11  1  0
 11 12  2  0
 12  7  1  0
 12  4  1  0
 13  2  1  0
 13 14  2  0
 15 16  1  0
 16 26  2  0
 16 17  1  0
 17 18  2  0
 18 19  1  0
 19 20  1  0
 21 20  1  1
 22 21  1  0
 22 13  1  0
 23 21  1  0
 24 23  2  0
 25 19  2  0
 26 25  1  0
 28 27  1  6
 28 30  1  0
 29 28  1  0
 30 32  1  0
 30 31  1  6
 31 23  1  0
 32 33  1  0
 34 32  2  0
M  END
$$$$
