WYT.pdb
     RDKit          3D

 34 36  0  0  1  0  0  0  0  0999 V2000
   27.3273  -21.8899  -13.3152 N   0  0  0  0  0  0  0  0  0  0  0  0
   26.2713  -21.3635  -12.4742 C   0  0  1  0  0  0  0  0  0  0  0  0
   26.7309  -20.1052  -11.7689 C   0  0  0  0  0  0  0  0  0  0  0  0
   27.8047  -20.3980  -10.7853 C   0  0  0  0  0  0  0  0  0  0  0  0
   29.0943  -20.8604  -11.0523 C   0  0  0  0  0  0  0  0  0  0  0  0
   29.7627  -21.0018   -9.8966 N   0  0  0  0  0  0  0  0  0  0  0  0
   28.9790  -20.6543   -8.8572 C   0  0  0  0  0  0  0  0  0  0  0  0
   29.2253  -20.6354   -7.4985 C   0  0  0  0  0  0  0  0  0  0  0  0
   28.2152  -20.2247   -6.6533 C   0  0  0  0  0  0  0  0  0  0  0  0
   26.9975  -19.8474   -7.1836 C   0  0  0  0  0  0  0  0  0  0  0  0
   26.7695  -19.8727   -8.5438 C   0  0  0  0  0  0  0  0  0  0  0  0
   27.7619  -20.2786   -9.4051 C   0  0  0  0  0  0  0  0  0  0  0  0
   25.0171  -21.1529  -13.2245 C   0  0  0  0  0  0  0  0  0  0  0  0
   24.9288  -20.1281  -13.9586 O   0  0  0  0  0  0  0  0  0  0  0  0
   25.5273  -21.3847  -19.6785 O   0  0  0  0  0  0  0  0  0  0  0  0
   24.7996  -21.7222  -18.5422 C   0  0  0  0  0  0  0  0  0  0  0  0
   23.5414  -21.1969  -18.3330 C   0  0  0  0  0  0  0  0  0  0  0  0
   22.8239  -21.5409  -17.1947 C   0  0  0  0  0  0  0  0  0  0  0  0
   23.3257  -22.4062  -16.2398 C   0  0  0  0  0  0  0  0  0  0  0  0
   22.5110  -22.7214  -15.0664 C   0  0  0  0  0  0  0  0  0  0  0  0
   22.7073  -21.7710  -13.9121 C   0  0  2  0  0  0  0  0  0  0  0  0
   23.9097  -22.0209  -13.1761 N   0  0  0  0  0  0  0  0  0  0  0  0
   21.4931  -21.8509  -13.0567 C   0  0  0  0  0  0  0  0  0  0  0  0
   21.3043  -22.8325  -12.2937 O   0  0  0  0  0  0  0  0  0  0  0  0
   24.5683  -22.9257  -16.4453 C   0  0  0  0  0  0  0  0  0  0  0  0
   25.2941  -22.5861  -17.5834 C   0  0  0  0  0  0  0  0  0  0  0  0
   20.2259  -19.4284  -10.5611 C   0  0  0  0  0  0  0  0  0  0  0  0
   19.0374  -19.6389  -11.4784 C   0  0  1  0  0  0  0  0  0  0  0  0
   19.0562  -18.5977  -12.4060 O   0  0  0  0  0  0  0  0  0  0  0  0
   19.2912  -20.9176  -12.2435 C   0  0  2  0  0  0  0  0  0  0  0  0
   20.4897  -20.8377  -13.0511 N   0  0  0  0  0  0  0  0  0  0  0  0
   18.1167  -21.3504  -13.0199 C   0  0  0  0  0  0  0  0  0  0  0  0
   16.9537  -21.6984  -12.3802 O   0  0  0  0  0  0  0  0  0  0  0  0
   18.1821  -21.3997  -14.2619 O   0  0  0  0  0  0  0  0  0  0  0  0
  2  1  1  6
  2  3  1  0
  3  4  1  0
  4  5  2  0
  6  5  1  0
  7  6  1  0
  8  7  2  0
  9  8  1  0
 10  9  2  0
 10 11  1  0
 11 12  2  0
 12  7  1  0
 12  4  1  0
 13  2  1  0
 13 14  2  0
 15 16  1  0
 16 26  2  0
 16 17  1  0
 17 18  2  0
 18 19  1  0
 19 20  1  0
 21 20  1  6
 22 21  1  0
 22 13  1  0
 23 21  1  0
 24 23  2  0
 25 19  2  0
 26 25  1  0
 28 27  1  1
 28 30  1  0
 29 28  1  0
 30 32  1  0
 30 31  1  6
 31 23  1  0
 32 33  1  0
 34 32  2  0
M  END
$$$$
