WYT.pdb
     RDKit          3D

 34 36  0  0  1  0  0  0  0  0999 V2000
   27.1474  -22.5746  -14.2742 N   0  0  0  0  0  0  0  0  0  0  0  0
   26.1141  -21.9279  -13.4909 C   0  0  1  0  0  0  0  0  0  0  0  0
   26.5745  -20.5617  -13.0285 C   0  0  0  0  0  0  0  0  0  0  0  0
   27.6225  -20.6699  -11.9816 C   0  0  0  0  0  0  0  0  0  0  0  0
   29.0012  -20.5269  -12.1458 C   0  0  0  0  0  0  0  0  0  0  0  0
   29.6089  -20.6972  -10.9609 N   0  0  0  0  0  0  0  0  0  0  0  0
   28.6986  -20.9498  -10.0002 C   0  0  0  0  0  0  0  0  0  0  0  0
   28.8455  -21.1886   -8.6480 C   0  0  0  0  0  0  0  0  0  0  0  0
   27.7130  -21.4205   -7.8950 C   0  0  0  0  0  0  0  0  0  0  0  0
   26.4757  -21.4077   -8.5078 C   0  0  0  0  0  0  0  0  0  0  0  0
   26.3484  -21.1674   -9.8600 C   0  0  0  0  0  0  0  0  0  0  0  0
   27.4635  -20.9337  -10.6302 C   0  0  0  0  0  0  0  0  0  0  0  0
   24.8276  -21.8654  -14.2128 C   0  0  0  0  0  0  0  0  0  0  0  0
   24.8569  -21.7184  -15.4676 O   0  0  0  0  0  0  0  0  0  0  0  0
   16.5864  -23.6248  -16.7558 O   0  0  0  0  0  0  0  0  0  0  0  0
   17.7652  -23.4844  -16.0309 C   0  0  0  0  0  0  0  0  0  0  0  0
   17.7749  -22.8010  -14.8328 C   0  0  0  0  0  0  0  0  0  0  0  0
   18.9578  -22.6670  -14.1174 C   0  0  0  0  0  0  0  0  0  0  0  0
   20.1535  -23.2003  -14.5626 C   0  0  0  0  0  0  0  0  0  0  0  0
   21.3591  -23.0180  -13.7541 C   0  0  0  0  0  0  0  0  0  0  0  0
   22.3496  -22.0457  -14.3434 C   0  0  2  0  0  0  0  0  0  0  0  0
   23.5666  -21.9589  -13.5941 N   0  0  0  0  0  0  0  0  0  0  0  0
   21.6654  -20.7307  -14.4659 C   0  0  0  0  0  0  0  0  0  0  0  0
   21.4221  -20.0321  -13.4488 O   0  0  0  0  0  0  0  0  0  0  0  0
   20.1452  -23.8755  -15.7458 C   0  0  0  0  0  0  0  0  0  0  0  0
   18.9640  -24.0144  -16.4690 C   0  0  0  0  0  0  0  0  0  0  0  0
   19.9986  -17.0175  -17.2593 C   0  0  0  0  0  0  0  0  0  0  0  0
   20.7190  -18.3514  -17.2506 C   0  0  1  0  0  0  0  0  0  0  0  0
   22.0707  -18.0797  -17.4602 O   0  0  0  0  0  0  0  0  0  0  0  0
   20.5922  -18.9125  -15.8527 C   0  0  2  0  0  0  0  0  0  0  0  0
   21.2524  -20.1938  -15.7207 N   0  0  0  0  0  0  0  0  0  0  0  0
   19.1957  -18.9476  -15.3858 C   0  0  0  0  0  0  0  0  0  0  0  0
   18.7506  -18.0341  -14.4638 O   0  0  0  0  0  0  0  0  0  0  0  0
   18.4177  -19.8111  -15.8314 O   0  0  0  0  0  0  0  0  0  0  0  0
  2  1  1  6
  2  3  1  0
  3  4  1  0
  4  5  2  0
  6  5  1  0
  7  6  1  0
  8  7  2  0
  9  8  1  0
 10  9  2  0
 10 11  1  0
 11 12  2  0
 12  7  1  0
 12  4  1  0
 13  2  1  0
 13 14  2  0
 15 16  1  0
 16 26  2  0
 16 17  1  0
 17 18  2  0
 18 19  1  0
 19 20  1  0
 21 20  1  1
 22 21  1  0
 22 13  1  0
 23 21  1  0
 24 23  2  0
 25 19  2  0
 26 25  1  0
 28 27  1  1
 28 30  1  0
 29 28  1  0
 30 32  1  0
 30 31  1  6
 31 23  1  0
 32 33  1  0
 34 32  2  0
M  END
$$$$
