WYT.pdb
     RDKit          3D

 34 36  0  0  1  0  0  0  0  0999 V2000
   28.3425  -20.8640  -10.4865 N   0  0  0  0  0  0  0  0  0  0  0  0
   27.0654  -21.5359  -10.3557 C   0  0  1  0  0  0  0  0  0  0  0  0
   26.6948  -21.6935   -8.8962 C   0  0  0  0  0  0  0  0  0  0  0  0
   27.1148  -20.5115   -8.1009 C   0  0  0  0  0  0  0  0  0  0  0  0
   26.7970  -19.1735   -8.3402 C   0  0  0  0  0  0  0  0  0  0  0  0
   27.3674  -18.4068   -7.3974 N   0  0  0  0  0  0  0  0  0  0  0  0
   28.0589  -19.1701   -6.5287 C   0  0  0  0  0  0  0  0  0  0  0  0
   28.7988  -18.8347   -5.4119 C   0  0  0  0  0  0  0  0  0  0  0  0
   29.4089  -19.8467   -4.6998 C   0  0  0  0  0  0  0  0  0  0  0  0
   29.2645  -21.1544   -5.1188 C   0  0  0  0  0  0  0  0  0  0  0  0
   28.5214  -21.4705   -6.2371 C   0  0  0  0  0  0  0  0  0  0  0  0
   27.9044  -20.4781   -6.9622 C   0  0  0  0  0  0  0  0  0  0  0  0
   26.0025  -20.8632  -11.1289 C   0  0  0  0  0  0  0  0  0  0  0  0
   25.9505  -19.6011  -11.0941 O   0  0  0  0  0  0  0  0  0  0  0  0
   27.2923  -25.3308  -15.9581 O   0  0  0  0  0  0  0  0  0  0  0  0
   26.5453  -24.2468  -15.5093 C   0  0  0  0  0  0  0  0  0  0  0  0
   27.0430  -22.9639  -15.6046 C   0  0  0  0  0  0  0  0  0  0  0  0
   26.2883  -21.8891  -15.1531 C   0  0  0  0  0  0  0  0  0  0  0  0
   25.0314  -22.0509  -14.5997 C   0  0  0  0  0  0  0  0  0  0  0  0
   24.2959  -20.8706  -14.1460 C   0  0  0  0  0  0  0  0  0  0  0  0
   24.0414  -20.8421  -12.6599 C   0  0  2  0  0  0  0  0  0  0  0  0
   25.0401  -21.5368  -11.9049 N   0  0  0  0  0  0  0  0  0  0  0  0
   22.6769  -21.3877  -12.4302 C   0  0  0  0  0  0  0  0  0  0  0  0
   22.4946  -22.6201  -12.2582 O   0  0  0  0  0  0  0  0  0  0  0  0
   24.5386  -23.3176  -14.5049 C   0  0  0  0  0  0  0  0  0  0  0  0
   25.2885  -24.4004  -14.9550 C   0  0  0  0  0  0  0  0  0  0  0  0
   19.9995  -20.3960   -9.8734 C   0  0  0  0  0  0  0  0  0  0  0  0
   19.3715  -20.2374  -11.2440 C   0  0  1  0  0  0  0  0  0  0  0  0
   19.5569  -18.9072  -11.6197 O   0  0  0  0  0  0  0  0  0  0  0  0
   20.1797  -21.0839  -12.2006 C   0  0  2  0  0  0  0  0  0  0  0  0
   21.5157  -20.5609  -12.3918 N   0  0  0  0  0  0  0  0  0  0  0  0
   19.4783  -21.3171  -13.4747 C   0  0  0  0  0  0  0  0  0  0  0  0
   18.2742  -21.9746  -13.4920 O   0  0  0  0  0  0  0  0  0  0  0  0
   19.9826  -20.9146  -14.5391 O   0  0  0  0  0  0  0  0  0  0  0  0
  2  1  1  1
  2  3  1  0
  3  4  1  0
  4  5  2  0
  6  5  1  0
  7  6  1  0
  8  7  2  0
  9  8  1  0
 10  9  2  0
 10 11  1  0
 11 12  2  0
 12  7  1  0
 12  4  1  0
 13  2  1  0
 13 14  2  0
 15 16  1  0
 16 26  2  0
 16 17  1  0
 17 18  2  0
 18 19  1  0
 19 20  1  0
 21 20  1  6
 22 21  1  0
 22 13  1  0
 23 21  1  0
 24 23  2  0
 25 19  2  0
 26 25  1  0
 28 27  1  1
 28 30  1  0
 29 28  1  0
 30 32  1  0
 30 31  1  6
 31 23  1  0
 32 33  1  0
 34 32  2  0
M  END
$$$$
