WYT.pdb
     RDKit          3D

 34 36  0  0  1  0  0  0  0  0999 V2000
   21.3748  -19.6121  -17.4973 N   0  0  0  0  0  0  0  0  0  0  0  0
   22.6548  -20.0361  -16.9669 C   0  0  1  0  0  0  0  0  0  0  0  0
   23.7708  -19.1762  -17.5209 C   0  0  0  0  0  0  0  0  0  0  0  0
   23.7107  -19.1009  -19.0031 C   0  0  0  0  0  0  0  0  0  0  0  0
   23.6880  -17.9497  -19.7922 C   0  0  0  0  0  0  0  0  0  0  0  0
   23.6313  -18.3005  -21.0867 N   0  0  0  0  0  0  0  0  0  0  0  0
   23.6146  -19.6423  -21.2076 C   0  0  0  0  0  0  0  0  0  0  0  0
   23.5616  -20.4547  -22.3232 C   0  0  0  0  0  0  0  0  0  0  0  0
   23.5576  -21.8221  -22.1405 C   0  0  0  0  0  0  0  0  0  0  0  0
   23.6063  -22.3363  -20.8599 C   0  0  0  0  0  0  0  0  0  0  0  0
   23.6588  -21.5093  -19.7573 C   0  0  0  0  0  0  0  0  0  0  0  0
   23.6638  -20.1431  -19.9156 C   0  0  0  0  0  0  0  0  0  0  0  0
   22.6603  -20.0698  -15.4907 C   0  0  0  0  0  0  0  0  0  0  0  0
   22.3821  -19.0043  -14.8710 O   0  0  0  0  0  0  0  0  0  0  0  0
   16.7043  -20.1271  -13.1000 O   0  0  0  0  0  0  0  0  0  0  0  0
   18.0099  -20.5882  -12.9676 C   0  0  0  0  0  0  0  0  0  0  0  0
   18.5360  -21.4774  -13.8814 C   0  0  0  0  0  0  0  0  0  0  0  0
   19.8409  -21.9311  -13.7393 C   0  0  0  0  0  0  0  0  0  0  0  0
   20.6550  -21.5220  -12.6990 C   0  0  0  0  0  0  0  0  0  0  0  0
   22.0191  -22.0437  -12.6150 C   0  0  0  0  0  0  0  0  0  0  0  0
   23.0482  -21.1779  -13.2972 C   0  0  2  0  0  0  0  0  0  0  0  0
   22.9559  -21.2139  -14.7255 N   0  0  0  0  0  0  0  0  0  0  0  0
   24.3860  -21.6034  -12.8056 C   0  0  0  0  0  0  0  0  0  0  0  0
   24.7372  -22.8101  -12.8518 O   0  0  0  0  0  0  0  0  0  0  0  0
   20.1364  -20.6437  -11.7957 C   0  0  0  0  0  0  0  0  0  0  0  0
   18.8296  -20.1841  -11.9308 C   0  0  0  0  0  0  0  0  0  0  0  0
   27.7272  -21.1524  -13.8269 C   0  0  0  0  0  0  0  0  0  0  0  0
   27.7763  -20.5529  -12.4354 C   0  0  1  0  0  0  0  0  0  0  0  0
   27.5704  -19.1814  -12.5810 O   0  0  0  0  0  0  0  0  0  0  0  0
   26.5890  -21.1003  -11.6766 C   0  0  2  0  0  0  0  0  0  0  0  0
   25.3325  -20.6851  -12.2629 N   0  0  0  0  0  0  0  0  0  0  0  0
   26.6611  -20.8094  -10.2345 C   0  0  0  0  0  0  0  0  0  0  0  0
   27.7848  -21.1354   -9.5177 O   0  0  0  0  0  0  0  0  0  0  0  0
   25.6968  -20.2654   -9.6659 O   0  0  0  0  0  0  0  0  0  0  0  0
  2  1  1  1
  2  3  1  0
  3  4  1  0
  4  5  2  0
  6  5  1  0
  7  6  1  0
  8  7  2  0
  9  8  1  0
 10  9  2  0
 10 11  1  0
 11 12  2  0
 12  7  1  0
 12  4  1  0
 13  2  1  0
 13 14  2  0
 15 16  1  0
 16 26  2  0
 16 17  1  0
 17 18  2  0
 18 19  1  0
 19 20  1  0
 21 20  1  1
 22 21  1  0
 22 13  1  0
 23 21  1  0
 24 23  2  0
 25 19  2  0
 26 25  1  0
 28 27  1  6
 28 30  1  0
 29 28  1  0
 30 32  1  0
 30 31  1  6
 31 23  1  0
 32 33  1  0
 34 32  2  0
M  END
$$$$
