WYT.pdb
     RDKit          3D

 34 36  0  0  1  0  0  0  0  0999 V2000
   29.6664  -35.3826   -8.7152 N   0  0  0  0  0  0  0  0  0  0  0  0
   29.3978  -34.6950   -7.4684 C   0  0  1  0  0  0  0  0  0  0  0  0
   27.9224  -34.7570   -7.1345 C   0  0  0  0  0  0  0  0  0  0  0  0
   27.1865  -33.6075   -7.7204 C   0  0  0  0  0  0  0  0  0  0  0  0
   27.2595  -33.1352   -9.0318 C   0  0  0  0  0  0  0  0  0  0  0  0
   26.4429  -32.0785   -9.1686 N   0  0  0  0  0  0  0  0  0  0  0  0
   25.8194  -31.8151   -8.0036 C   0  0  0  0  0  0  0  0  0  0  0  0
   24.9023  -30.8404   -7.6627 C   0  0  0  0  0  0  0  0  0  0  0  0
   24.4249  -30.8114   -6.3686 C   0  0  0  0  0  0  0  0  0  0  0  0
   24.8725  -31.7484   -5.4585 C   0  0  0  0  0  0  0  0  0  0  0  0
   25.7890  -32.7148   -5.8172 C   0  0  0  0  0  0  0  0  0  0  0  0
   26.2785  -32.7627   -7.1015 C   0  0  0  0  0  0  0  0  0  0  0  0
   30.2386  -35.1990   -6.3643 C   0  0  0  0  0  0  0  0  0  0  0  0
   30.8342  -36.3016   -6.5266 O   0  0  0  0  0  0  0  0  0  0  0  0
   35.7315  -34.5998   -8.7620 O   0  0  0  0  0  0  0  0  0  0  0  0
   34.9701  -34.5354   -7.5998 C   0  0  0  0  0  0  0  0  0  0  0  0
   34.1371  -33.4613   -7.3653 C   0  0  0  0  0  0  0  0  0  0  0  0
   33.3814  -33.4076   -6.2013 C   0  0  0  0  0  0  0  0  0  0  0  0
   33.4277  -34.4054   -5.2451 C   0  0  0  0  0  0  0  0  0  0  0  0
   32.6026  -34.2789   -4.0437 C   0  0  0  0  0  0  0  0  0  0  0  0
   31.2948  -35.0260   -4.1183 C   0  0  2  0  0  0  0  0  0  0  0  0
   30.4214  -34.5304   -5.1389 N   0  0  0  0  0  0  0  0  0  0  0  0
   30.6737  -34.9744   -2.7677 C   0  0  0  0  0  0  0  0  0  0  0  0
   30.3245  -33.8786   -2.2590 O   0  0  0  0  0  0  0  0  0  0  0  0
   34.2501  -35.4669   -5.4755 C   0  0  0  0  0  0  0  0  0  0  0  0
   35.0108  -35.5285   -6.6395 C   0  0  0  0  0  0  0  0  0  0  0  0
   27.7785  -37.1633   -1.3841 C   0  0  0  0  0  0  0  0  0  0  0  0
   28.9395  -37.2865   -0.4170 C   0  0  1  0  0  0  0  0  0  0  0  0
   29.6488  -38.4297   -0.7839 O   0  0  0  0  0  0  0  0  0  0  0  0
   29.8478  -36.1039   -0.6647 C   0  0  2  0  0  0  0  0  0  0  0  0
   30.4414  -36.1429   -1.9842 N   0  0  0  0  0  0  0  0  0  0  0  0
   30.8515  -35.9337    0.3998 C   0  0  0  0  0  0  0  0  0  0  0  0
   32.1902  -35.9987    0.1061 O   0  0  0  0  0  0  0  0  0  0  0  0
   30.4807  -35.7300    1.5705 O   0  0  0  0  0  0  0  0  0  0  0  0
  2  1  1  6
  2  3  1  0
  3  4  1  0
  4  5  2  0
  6  5  1  0
  7  6  1  0
  8  7  2  0
  9  8  1  0
 10  9  2  0
 10 11  1  0
 11 12  2  0
 12  7  1  0
 12  4  1  0
 13  2  1  0
 13 14  2  0
 15 16  1  0
 16 26  2  0
 16 17  1  0
 17 18  2  0
 18 19  1  0
 19 20  1  0
 21 20  1  1
 22 21  1  0
 22 13  1  0
 23 21  1  0
 24 23  2  0
 25 19  2  0
 26 25  1  0
 28 27  1  6
 28 30  1  0
 29 28  1  0
 30 32  1  0
 30 31  1  6
 31 23  1  0
 32 33  1  0
 34 32  2  0
M  END
$$$$
