LPL.pdb
     RDKit          3D

 24 24  0  0  1  0  0  0  0  0999 V2000
    7.2911  -12.0693   20.4626 C   0  0  0  0  0  0  0  0  0  0  0  0
    7.9470  -13.4211   20.4915 C   0  0  2  0  0  0  0  0  0  0  0  0
    9.0833  -13.3858   19.4536 C   0  0  0  0  0  0  0  0  0  0  0  0
    7.0360  -14.5299   20.1455 C   0  0  0  0  0  0  0  0  0  0  0  0
    7.3910  -15.9109   20.5165 C   0  0  2  0  0  0  0  0  0  0  0  0
    6.2032  -16.7255   20.1222 N   0  0  0  0  0  0  0  0  0  0  0  0
    7.6861  -16.2294   21.8921 C   0  0  0  0  0  0  0  0  0  0  0  0
    6.7231  -16.2116   22.7363 O   0  0  0  0  0  0  0  0  0  0  0  0
    8.9602  -16.5723   22.4519 N   0  0  0  0  0  0  0  0  0  0  0  0
   10.1554  -16.6549   21.6549 C   0  0  0  0  0  0  0  0  0  0  0  0
   10.9916  -17.6953   22.3653 C   0  0  0  0  0  0  0  0  0  0  0  0
   10.4178  -17.8462   23.7369 C   0  0  0  0  0  0  0  0  0  0  0  0
    9.3024  -16.8844   23.7919 C   0  0  1  0  0  0  0  0  0  0  0  0
    9.5615  -15.7036   24.6493 C   0  0  0  0  0  0  0  0  0  0  0  0
   10.3752  -14.8456   24.2192 O   0  0  0  0  0  0  0  0  0  0  0  0
    7.9985  -12.0852   25.4850 C   0  0  0  0  0  0  0  0  0  0  0  0
    7.2400  -13.2431   26.1442 C   0  0  2  0  0  0  0  0  0  0  0  0
    5.9338  -12.7176   26.6487 C   0  0  0  0  0  0  0  0  0  0  0  0
    8.0692  -13.7585   27.2937 C   0  0  0  0  0  0  0  0  0  0  0  0
    9.3399  -14.4396   26.8360 C   0  0  2  0  0  0  0  0  0  0  0  0
    8.9680  -15.4650   25.9118 N   0  0  0  0  0  0  0  0  0  0  0  0
   10.0283  -15.0010   28.0453 C   0  0  0  0  0  0  0  0  0  0  0  0
   10.5989  -14.2722   28.8921 O   0  0  0  0  0  0  0  0  0  0  0  0
   10.0492  -16.3698   28.2583 O   0  0  0  0  0  0  0  0  0  0  0  0
  2  1  1  6
  2  3  1  0
  4  2  1  0
  4  5  1  0
  5  7  1  0
  5  6  1  1
  7  8  2  0
  9 13  1  0
  9  7  1  0
 10  9  1  0
 11 10  1  0
 11 12  1  0
 12 13  1  0
 13 14  1  1
 14 15  2  0
 17 16  1  1
 17 19  1  0
 18 17  1  0
 20 19  1  1
 20 21  1  0
 20 22  1  0
 21 14  1  0
 22 23  2  0
 22 24  1  0
M  END
$$$$
