LPL.pdb
     RDKit          3D

 24 24  0  0  1  0  0  0  0  0999 V2000
    3.1727  -18.1463   20.5054 C   0  0  0  0  0  0  0  0  0  0  0  0
    4.1854  -18.8332   21.3778 C   0  0  2  0  0  0  0  0  0  0  0  0
    3.4632  -19.2118   22.6834 C   0  0  0  0  0  0  0  0  0  0  0  0
    5.3465  -17.9874   21.7176 C   0  0  0  0  0  0  0  0  0  0  0  0
    6.2437  -17.5136   20.6491 C   0  0  2  0  0  0  0  0  0  0  0  0
    6.6876  -18.7560   19.9497 N   0  0  0  0  0  0  0  0  0  0  0  0
    7.4325  -16.7707   20.9894 C   0  0  0  0  0  0  0  0  0  0  0  0
    8.5324  -17.4149   21.1146 O   0  0  0  0  0  0  0  0  0  0  0  0
    7.5421  -15.3593   21.2138 N   0  0  0  0  0  0  0  0  0  0  0  0
    6.3924  -14.4957   21.2680 C   0  0  0  0  0  0  0  0  0  0  0  0
    6.9149  -13.1675   20.7689 C   0  0  0  0  0  0  0  0  0  0  0  0
    8.4058  -13.2334   20.8492 C   0  0  0  0  0  0  0  0  0  0  0  0
    8.6994  -14.5642   21.4103 C   0  0  1  0  0  0  0  0  0  0  0  0
    9.1949  -14.5376   22.8069 C   0  0  0  0  0  0  0  0  0  0  0  0
   10.3529  -14.0847   22.9998 O   0  0  0  0  0  0  0  0  0  0  0  0
    7.2362  -11.8417   26.2244 C   0  0  0  0  0  0  0  0  0  0  0  0
    7.3224  -13.2690   25.6712 C   0  0  2  0  0  0  0  0  0  0  0  0
    6.2639  -14.0911   26.3351 C   0  0  0  0  0  0  0  0  0  0  0  0
    8.6873  -13.8215   25.9977 C   0  0  0  0  0  0  0  0  0  0  0  0
    8.9831  -15.1126   25.2672 C   0  0  2  0  0  0  0  0  0  0  0  0
    8.4707  -14.9812   23.9390 N   0  0  0  0  0  0  0  0  0  0  0  0
    8.3189  -16.2320   26.0135 C   0  0  0  0  0  0  0  0  0  0  0  0
    8.5798  -16.4867   27.2140 O   0  0  0  0  0  0  0  0  0  0  0  0
    7.3800  -17.0282   25.3779 O   0  0  0  0  0  0  0  0  0  0  0  0
  2  1  1  6
  2  3  1  0
  4  2  1  0
  4  5  1  0
  5  7  1  0
  5  6  1  1
  7  8  2  0
  9 13  1  0
  9  7  1  0
 10  9  1  0
 11 10  1  0
 11 12  1  0
 12 13  1  0
 13 14  1  1
 14 15  2  0
 17 16  1  1
 17 19  1  0
 18 17  1  0
 20 19  1  1
 20 21  1  0
 20 22  1  0
 21 14  1  0
 22 23  2  0
 22 24  1  0
M  END
$$$$
