LPL.pdb
     RDKit          3D

 24 24  0  0  1  0  0  0  0  0999 V2000
    3.4700  -18.5324   21.1099 C   0  0  0  0  0  0  0  0  0  0  0  0
    4.5323  -19.3040   21.8412 C   0  0  2  0  0  0  0  0  0  0  0  0
    3.9033  -19.7836   23.1617 C   0  0  0  0  0  0  0  0  0  0  0  0
    5.7316  -18.5049   22.1610 C   0  0  0  0  0  0  0  0  0  0  0  0
    6.5494  -17.9450   21.0707 C   0  0  2  0  0  0  0  0  0  0  0  0
    7.0622  -19.1373   20.3323 N   0  0  0  0  0  0  0  0  0  0  0  0
    7.6886  -17.1170   21.3829 C   0  0  0  0  0  0  0  0  0  0  0  0
    8.8175  -17.6904   21.5755 O   0  0  0  0  0  0  0  0  0  0  0  0
    7.7181  -15.6897   21.5104 N   0  0  0  0  0  0  0  0  0  0  0  0
    6.5342  -14.8805   21.3920 C   0  0  0  0  0  0  0  0  0  0  0  0
    7.0478  -13.5673   20.8462 C   0  0  0  0  0  0  0  0  0  0  0  0
    8.5253  -13.5559   21.0704 C   0  0  0  0  0  0  0  0  0  0  0  0
    8.8174  -14.8282   21.7545 C   0  0  1  0  0  0  0  0  0  0  0  0
    9.1738  -14.6796   23.1853 C   0  0  0  0  0  0  0  0  0  0  0  0
   10.2794  -14.1411   23.4517 O   0  0  0  0  0  0  0  0  0  0  0  0
    7.7678  -12.0078   26.1819 C   0  0  0  0  0  0  0  0  0  0  0  0
    6.8708  -13.1708   25.7422 C   0  0  2  0  0  0  0  0  0  0  0  0
    5.4885  -12.9117   26.2511 C   0  0  0  0  0  0  0  0  0  0  0  0
    7.4144  -14.4420   26.3451 C   0  0  0  0  0  0  0  0  0  0  0  0
    8.6760  -14.9185   25.6600 C   0  0  2  0  0  0  0  0  0  0  0  0
    8.3711  -15.0952   24.2744 N   0  0  0  0  0  0  0  0  0  0  0  0
    9.0991  -16.2046   26.3068 C   0  0  0  0  0  0  0  0  0  0  0  0
    9.5253  -16.2550   27.4857 O   0  0  0  0  0  0  0  0  0  0  0  0
    9.0266  -17.3934   25.5992 O   0  0  0  0  0  0  0  0  0  0  0  0
  2  1  1  1
  2  3  1  0
  4  2  1  0
  4  5  1  0
  5  7  1  0
  5  6  1  1
  7  8  2  0
  9 13  1  0
  9  7  1  0
 10  9  1  0
 11 10  1  0
 11 12  1  0
 12 13  1  0
 13 14  1  1
 14 15  2  0
 17 16  1  1
 17 19  1  0
 18 17  1  0
 20 19  1  1
 20 21  1  0
 20 22  1  0
 21 14  1  0
 22 23  2  0
 22 24  1  0
M  END
$$$$
