LPL.pdb
     RDKit          3D

 24 24  0  0  1  0  0  0  0  0999 V2000
    3.2158  -18.2606   19.9668 C   0  0  0  0  0  0  0  0  0  0  0  0
    3.7306  -18.8210   21.2627 C   0  0  2  0  0  0  0  0  0  0  0  0
    2.5847  -18.7038   22.2838 C   0  0  0  0  0  0  0  0  0  0  0  0
    4.9037  -18.1008   21.7960 C   0  0  0  0  0  0  0  0  0  0  0  0
    6.1449  -18.0377   21.0045 C   0  0  2  0  0  0  0  0  0  0  0  0
    6.6401  -19.4458   20.9652 N   0  0  0  0  0  0  0  0  0  0  0  0
    7.2407  -17.2151   21.4558 C   0  0  0  0  0  0  0  0  0  0  0  0
    8.1102  -17.7414   22.2351 O   0  0  0  0  0  0  0  0  0  0  0  0
    7.4866  -15.8403   21.1339 N   0  0  0  0  0  0  0  0  0  0  0  0
    6.5572  -15.0485   20.3725 C   0  0  0  0  0  0  0  0  0  0  0  0
    7.4371  -14.0503   19.6545 C   0  0  0  0  0  0  0  0  0  0  0  0
    8.7576  -14.0584   20.3541 C   0  0  0  0  0  0  0  0  0  0  0  0
    8.5993  -15.0231   21.4571 C   0  0  1  0  0  0  0  0  0  0  0  0
    8.5339  -14.4021   22.8012 C   0  0  0  0  0  0  0  0  0  0  0  0
    8.3111  -13.1649   22.8550 O   0  0  0  0  0  0  0  0  0  0  0  0
    5.5103  -13.1037   27.0564 C   0  0  0  0  0  0  0  0  0  0  0  0
    7.0013  -13.4289   26.9080 C   0  0  2  0  0  0  0  0  0  0  0  0
    7.7747  -12.1604   27.0804 C   0  0  0  0  0  0  0  0  0  0  0  0
    7.2281  -13.9896   25.5263 C   0  0  0  0  0  0  0  0  0  0  0  0
    8.6354  -14.5092   25.3324 C   0  0  2  0  0  0  0  0  0  0  0  0
    8.7026  -15.0888   24.0272 N   0  0  0  0  0  0  0  0  0  0  0  0
    8.9103  -15.5199   26.4067 C   0  0  0  0  0  0  0  0  0  0  0  0
    9.0810  -15.1952   27.6064 O   0  0  0  0  0  0  0  0  0  0  0  0
    8.9831  -16.8666   26.0897 O   0  0  0  0  0  0  0  0  0  0  0  0
  2  1  1  6
  2  3  1  0
  4  2  1  0
  4  5  1  0
  5  7  1  0
  5  6  1  1
  7  8  2  0
  9 13  1  0
  9  7  1  0
 10  9  1  0
 11 10  1  0
 11 12  1  0
 12 13  1  0
 13 14  1  1
 14 15  2  0
 17 16  1  6
 17 19  1  0
 18 17  1  0
 20 19  1  1
 20 21  1  0
 20 22  1  0
 21 14  1  0
 22 23  2  0
 22 24  1  0
M  END
$$$$
