LPL.pdb
     RDKit          3D

 24 24  0  0  1  0  0  0  0  0999 V2000
    9.6897  -20.3056   19.1468 C   0  0  0  0  0  0  0  0  0  0  0  0
   10.7962  -20.1337   20.1492 C   0  0  2  0  0  0  0  0  0  0  0  0
   10.7820  -21.3851   21.0454 C   0  0  0  0  0  0  0  0  0  0  0  0
   10.6379  -18.9444   21.0091 C   0  0  0  0  0  0  0  0  0  0  0  0
   10.5660  -17.6051   20.3990 C   0  0  2  0  0  0  0  0  0  0  0  0
   11.9712  -17.2957   19.9998 N   0  0  0  0  0  0  0  0  0  0  0  0
   10.0905  -16.4880   21.1780 C   0  0  0  0  0  0  0  0  0  0  0  0
   10.9528  -15.7775   21.8040 O   0  0  0  0  0  0  0  0  0  0  0  0
    8.7332  -16.0600   21.3470 N   0  0  0  0  0  0  0  0  0  0  0  0
    7.6374  -16.6772   20.6477 C   0  0  0  0  0  0  0  0  0  0  0  0
    6.6304  -15.5595   20.4967 C   0  0  0  0  0  0  0  0  0  0  0  0
    7.0225  -14.4923   21.4666 C   0  0  0  0  0  0  0  0  0  0  0  0
    8.2083  -15.0247   22.1612 C   0  0  1  0  0  0  0  0  0  0  0  0
    7.9612  -15.4176   23.5688 C   0  0  0  0  0  0  0  0  0  0  0  0
    7.7821  -16.6407   23.8036 O   0  0  0  0  0  0  0  0  0  0  0  0
    8.1291  -12.0132   26.9748 C   0  0  0  0  0  0  0  0  0  0  0  0
    6.8992  -12.5087   26.2051 C   0  0  2  0  0  0  0  0  0  0  0  0
    5.7314  -11.6599   26.5959 C   0  0  0  0  0  0  0  0  0  0  0  0
    6.6469  -13.9449   26.5903 C   0  0  0  0  0  0  0  0  0  0  0  0
    7.6895  -14.8890   26.0336 C   0  0  2  0  0  0  0  0  0  0  0  0
    7.9100  -14.5277   24.6681 N   0  0  0  0  0  0  0  0  0  0  0  0
    7.1656  -16.2891   26.1629 C   0  0  0  0  0  0  0  0  0  0  0  0
    6.3644  -16.7855   25.3348 O   0  0  0  0  0  0  0  0  0  0  0  0
    7.5647  -17.0836   27.2253 O   0  0  0  0  0  0  0  0  0  0  0  0
  2  1  1  6
  2  3  1  0
  4  2  1  0
  4  5  1  0
  5  7  1  0
  5  6  1  1
  7  8  2  0
  9 13  1  0
  9  7  1  0
 10  9  1  0
 11 10  1  0
 11 12  1  0
 12 13  1  0
 13 14  1  1
 14 15  2  0
 17 16  1  1
 17 19  1  0
 18 17  1  0
 20 19  1  6
 20 21  1  0
 20 22  1  0
 21 14  1  0
 22 23  2  0
 22 24  1  0
M  END
$$$$
