LPL.pdb
     RDKit          3D

 24 24  0  0  1  0  0  0  0  0999 V2000
    6.6333  -14.2951   27.3438 C   0  0  0  0  0  0  0  0  0  0  0  0
    6.6307  -13.6868   25.9696 C   0  0  2  0  0  0  0  0  0  0  0  0
    6.2515  -12.2048   26.1404 C   0  0  0  0  0  0  0  0  0  0  0  0
    5.6623  -14.3109   25.0466 C   0  0  0  0  0  0  0  0  0  0  0  0
    5.8786  -15.6931   24.5846 C   0  0  2  0  0  0  0  0  0  0  0  0
    5.3470  -16.5479   25.6876 N   0  0  0  0  0  0  0  0  0  0  0  0
    7.2164  -16.1517   24.2998 C   0  0  0  0  0  0  0  0  0  0  0  0
    7.5624  -17.3083   24.7273 O   0  0  0  0  0  0  0  0  0  0  0  0
    8.2398  -15.4548   23.5779 N   0  0  0  0  0  0  0  0  0  0  0  0
    8.1429  -14.0543   23.2618 C   0  0  0  0  0  0  0  0  0  0  0  0
    8.9203  -13.9209   21.9718 C   0  0  0  0  0  0  0  0  0  0  0  0
    9.7549  -15.1538   21.8422 C   0  0  0  0  0  0  0  0  0  0  0  0
    9.4647  -15.9403   23.0544 C   0  0  1  0  0  0  0  0  0  0  0  0
   10.5771  -15.9789   24.0330 C   0  0  0  0  0  0  0  0  0  0  0  0
   11.7166  -15.6344   23.6253 O   0  0  0  0  0  0  0  0  0  0  0  0
   10.7277  -12.9332   26.5230 C   0  0  0  0  0  0  0  0  0  0  0  0
   10.8232  -14.2594   27.2864 C   0  0  2  0  0  0  0  0  0  0  0  0
   11.1122  -13.9518   28.7212 C   0  0  0  0  0  0  0  0  0  0  0  0
   11.9504  -15.0669   26.6930 C   0  0  0  0  0  0  0  0  0  0  0  0
   11.5305  -16.4740   26.3296 C   0  0  2  0  0  0  0  0  0  0  0  0
   10.4601  -16.3724   25.3874 N   0  0  0  0  0  0  0  0  0  0  0  0
   11.1027  -17.1712   27.5875 C   0  0  0  0  0  0  0  0  0  0  0  0
   11.9076  -17.4469   28.5095 O   0  0  0  0  0  0  0  0  0  0  0  0
    9.7773  -17.5344   27.7626 O   0  0  0  0  0  0  0  0  0  0  0  0
  2  1  1  1
  2  3  1  0
  4  2  1  0
  4  5  1  0
  5  7  1  0
  5  6  1  1
  7  8  2  0
  9 13  1  0
  9  7  1  0
 10  9  1  0
 11 10  1  0
 11 12  1  0
 12 13  1  0
 13 14  1  1
 14 15  2  0
 17 16  1  6
 17 19  1  0
 18 17  1  0
 20 19  1  1
 20 21  1  0
 20 22  1  0
 21 14  1  0
 22 23  2  0
 22 24  1  0
M  END
$$$$
