LPL.pdb
     RDKit          3D

 24 24  0  0  1  0  0  0  0  0999 V2000
    7.2624  -11.7981   25.7105 C   0  0  0  0  0  0  0  0  0  0  0  0
    6.0596  -12.6255   26.0675 C   0  0  2  0  0  0  0  0  0  0  0  0
    5.5642  -12.1219   27.4351 C   0  0  0  0  0  0  0  0  0  0  0  0
    6.3452  -14.0694   26.1796 C   0  0  0  0  0  0  0  0  0  0  0  0
    6.2607  -14.9266   24.9841 C   0  0  2  0  0  0  0  0  0  0  0  0
    5.0423  -15.7616   25.2031 N   0  0  0  0  0  0  0  0  0  0  0  0
    7.3425  -15.8283   24.6717 C   0  0  0  0  0  0  0  0  0  0  0  0
    7.3321  -16.9923   25.2059 O   0  0  0  0  0  0  0  0  0  0  0  0
    8.4632  -15.5785   23.8139 N   0  0  0  0  0  0  0  0  0  0  0  0
    8.5764  -14.3826   23.0217 C   0  0  0  0  0  0  0  0  0  0  0  0
    9.3753  -14.8228   21.8159 C   0  0  0  0  0  0  0  0  0  0  0  0
   10.0200  -16.1218   22.1769 C   0  0  0  0  0  0  0  0  0  0  0  0
    9.6073  -16.3790   23.5682 C   0  0  1  0  0  0  0  0  0  0  0  0
   10.6940  -16.2168   24.5629 C   0  0  0  0  0  0  0  0  0  0  0  0
   11.3634  -15.1524   24.5179 O   0  0  0  0  0  0  0  0  0  0  0  0
   12.2984  -14.0099   27.3026 C   0  0  0  0  0  0  0  0  0  0  0  0
   10.8695  -14.5194   27.0806 C   0  0  2  0  0  0  0  0  0  0  0  0
    9.9377  -13.6509   27.8643 C   0  0  0  0  0  0  0  0  0  0  0  0
   10.7918  -15.9416   27.5768 C   0  0  0  0  0  0  0  0  0  0  0  0
   11.6882  -16.8796   26.7992 C   0  0  2  0  0  0  0  0  0  0  0  0
   11.0386  -17.1629   25.5575 N   0  0  0  0  0  0  0  0  0  0  0  0
   11.8880  -18.1195   27.6202 C   0  0  0  0  0  0  0  0  0  0  0  0
   11.1508  -19.1280   27.5039 O   0  0  0  0  0  0  0  0  0  0  0  0
   12.9158  -18.1792   28.5473 O   0  0  0  0  0  0  0  0  0  0  0  0
  2  1  1  1
  2  3  1  0
  4  2  1  0
  4  5  1  0
  5  7  1  0
  5  6  1  1
  7  8  2  0
  9 13  1  0
  9  7  1  0
 10  9  1  0
 11 10  1  0
 11 12  1  0
 12 13  1  0
 13 14  1  1
 14 15  2  0
 17 16  1  1
 17 19  1  0
 18 17  1  0
 20 19  1  1
 20 21  1  0
 20 22  1  0
 21 14  1  0
 22 23  2  0
 22 24  1  0
M  END
$$$$
