LPL.pdb
     RDKit          3D

 24 24  0  0  1  0  0  0  0  0999 V2000
    5.4697  -11.8301   25.5821 C   0  0  0  0  0  0  0  0  0  0  0  0
    5.9420  -12.8455   26.5844 C   0  0  2  0  0  0  0  0  0  0  0  0
    6.6361  -12.0643   27.7146 C   0  0  0  0  0  0  0  0  0  0  0  0
    6.9047  -13.8194   26.0334 C   0  0  0  0  0  0  0  0  0  0  0  0
    6.4285  -14.8994   25.1513 C   0  0  2  0  0  0  0  0  0  0  0  0
    5.6165  -15.7829   26.0400 N   0  0  0  0  0  0  0  0  0  0  0  0
    7.3823  -15.7421   24.4723 C   0  0  0  0  0  0  0  0  0  0  0  0
    7.3976  -16.9902   24.7593 O   0  0  0  0  0  0  0  0  0  0  0  0
    8.3461  -15.3474   23.4877 N   0  0  0  0  0  0  0  0  0  0  0  0
    8.4235  -14.0031   22.9801 C   0  0  0  0  0  0  0  0  0  0  0  0
    8.9447  -14.1787   21.5716 C   0  0  0  0  0  0  0  0  0  0  0  0
    9.5209  -15.5554   21.4939 C   0  0  0  0  0  0  0  0  0  0  0  0
    9.3468  -16.1189   22.8446 C   0  0  1  0  0  0  0  0  0  0  0  0
   10.6069  -16.2516   23.6133 C   0  0  0  0  0  0  0  0  0  0  0  0
   11.6226  -15.6609   23.1631 O   0  0  0  0  0  0  0  0  0  0  0  0
    9.1203  -13.9549   28.1914 C   0  0  0  0  0  0  0  0  0  0  0  0
   10.3321  -14.8181   27.8211 C   0  0  2  0  0  0  0  0  0  0  0  0
   11.5373  -13.9338   27.7730 C   0  0  0  0  0  0  0  0  0  0  0  0
   10.0825  -15.4268   26.4639 C   0  0  0  0  0  0  0  0  0  0  0  0
   11.1240  -16.4570   26.0870 C   0  0  2  0  0  0  0  0  0  0  0  0
   10.7588  -16.9895   24.8115 N   0  0  0  0  0  0  0  0  0  0  0  0
   11.1377  -17.5153   27.1505 C   0  0  0  0  0  0  0  0  0  0  0  0
   10.1802  -18.3077   27.3218 O   0  0  0  0  0  0  0  0  0  0  0  0
   12.2345  -17.6437   27.9871 O   0  0  0  0  0  0  0  0  0  0  0  0
  2  1  1  6
  2  3  1  0
  4  2  1  0
  4  5  1  0
  5  7  1  0
  5  6  1  1
  7  8  2  0
  9 13  1  0
  9  7  1  0
 10  9  1  0
 11 10  1  0
 11 12  1  0
 12 13  1  0
 13 14  1  1
 14 15  2  0
 17 16  1  6
 17 19  1  0
 18 17  1  0
 20 19  1  1
 20 21  1  0
 20 22  1  0
 21 14  1  0
 22 23  2  0
 22 24  1  0
M  END
$$$$
