LPL.pdb
     RDKit          3D

 24 24  0  0  1  0  0  0  0  0999 V2000
    7.6178  -20.7986   19.7651 C   0  0  0  0  0  0  0  0  0  0  0  0
    8.8285  -19.9496   19.4967 C   0  0  2  0  0  0  0  0  0  0  0  0
   10.0227  -20.9107   19.3560 C   0  0  0  0  0  0  0  0  0  0  0  0
    9.1300  -18.9886   20.5759 C   0  0  0  0  0  0  0  0  0  0  0  0
    9.6027  -17.6345   20.2383 C   0  0  2  0  0  0  0  0  0  0  0  0
   10.8963  -17.8527   19.5250 N   0  0  0  0  0  0  0  0  0  0  0  0
    9.8544  -16.6809   21.2910 C   0  0  0  0  0  0  0  0  0  0  0  0
   11.0709  -16.4457   21.6150 O   0  0  0  0  0  0  0  0  0  0  0  0
    8.8854  -15.9413   22.0449 N   0  0  0  0  0  0  0  0  0  0  0  0
    7.4811  -15.9682   21.7323 C   0  0  0  0  0  0  0  0  0  0  0  0
    6.9860  -14.6110   22.1784 C   0  0  0  0  0  0  0  0  0  0  0  0
    8.0310  -14.0483   23.0865 C   0  0  0  0  0  0  0  0  0  0  0  0
    9.0710  -15.0897   23.1632 C   0  0  1  0  0  0  0  0  0  0  0  0
    9.1299  -15.7932   24.4663 C   0  0  0  0  0  0  0  0  0  0  0  0
    8.3869  -16.7979   24.6138 O   0  0  0  0  0  0  0  0  0  0  0  0
   10.7386  -13.2663   28.8982 C   0  0  0  0  0  0  0  0  0  0  0  0
   10.2185  -14.0716   27.7017 C   0  0  2  0  0  0  0  0  0  0  0  0
    8.7285  -14.1499   27.8045 C   0  0  0  0  0  0  0  0  0  0  0  0
   10.8152  -15.4553   27.7673 C   0  0  0  0  0  0  0  0  0  0  0  0
   10.4529  -16.3033   26.5682 C   0  0  2  0  0  0  0  0  0  0  0  0
    9.9535  -15.4250   25.5568 N   0  0  0  0  0  0  0  0  0  0  0  0
    9.4199  -17.3021   27.0000 C   0  0  0  0  0  0  0  0  0  0  0  0
    9.6854  -18.2489   27.7791 O   0  0  0  0  0  0  0  0  0  0  0  0
    8.1184  -17.1981   26.5365 O   0  0  0  0  0  0  0  0  0  0  0  0
  2  1  1  1
  2  3  1  0
  4  2  1  0
  4  5  1  0
  5  7  1  0
  5  6  1  1
  7  8  2  0
  9 13  1  0
  9  7  1  0
 10  9  1  0
 11 10  1  0
 11 12  1  0
 12 13  1  0
 13 14  1  1
 14 15  2  0
 17 16  1  1
 17 19  1  0
 18 17  1  0
 20 19  1  1
 20 21  1  0
 20 22  1  0
 21 14  1  0
 22 23  2  0
 22 24  1  0
M  END
$$$$
