LPL.pdb
     RDKit          3D

 24 24  0  0  1  0  0  0  0  0999 V2000
    9.5104  -13.6923   20.1128 C   0  0  0  0  0  0  0  0  0  0  0  0
    8.1931  -13.7653   19.3931 C   0  0  2  0  0  0  0  0  0  0  0  0
    7.7283  -12.3150   19.1693 C   0  0  0  0  0  0  0  0  0  0  0  0
    7.1438  -14.4784   20.1478 C   0  0  0  0  0  0  0  0  0  0  0  0
    7.4066  -15.8335   20.6631 C   0  0  2  0  0  0  0  0  0  0  0  0
    6.1389  -16.5836   20.4177 N   0  0  0  0  0  0  0  0  0  0  0  0
    7.7462  -16.0176   22.0530 C   0  0  0  0  0  0  0  0  0  0  0  0
    6.8250  -15.8514   22.9271 O   0  0  0  0  0  0  0  0  0  0  0  0
    9.0239  -16.3723   22.5969 N   0  0  0  0  0  0  0  0  0  0  0  0
   10.2248  -16.3772   21.8042 C   0  0  0  0  0  0  0  0  0  0  0  0
   11.0780  -17.4464   22.4483 C   0  0  0  0  0  0  0  0  0  0  0  0
   10.5000  -17.7010   23.8027 C   0  0  0  0  0  0  0  0  0  0  0  0
    9.3651  -16.7675   23.9151 C   0  0  1  0  0  0  0  0  0  0  0  0
    9.5957  -15.6424   24.8519 C   0  0  0  0  0  0  0  0  0  0  0  0
   10.4281  -14.7646   24.5057 O   0  0  0  0  0  0  0  0  0  0  0  0
    7.6351  -12.1425   26.0886 C   0  0  0  0  0  0  0  0  0  0  0  0
    7.0158  -13.4352   26.6329 C   0  0  2  0  0  0  0  0  0  0  0  0
    5.7006  -13.0949   27.2583 C   0  0  0  0  0  0  0  0  0  0  0  0
    7.9496  -14.0069   27.6703 C   0  0  0  0  0  0  0  0  0  0  0  0
    9.2599  -14.4773   27.0786 C   0  0  2  0  0  0  0  0  0  0  0  0
    8.9557  -15.4774   26.1033 N   0  0  0  0  0  0  0  0  0  0  0  0
   10.1042  -15.0224   28.1926 C   0  0  0  0  0  0  0  0  0  0  0  0
   10.2026  -16.2522   28.4207 O   0  0  0  0  0  0  0  0  0  0  0  0
   10.8108  -14.1588   29.0138 O   0  0  0  0  0  0  0  0  0  0  0  0
  2  1  1  1
  2  3  1  0
  4  2  1  0
  4  5  1  0
  5  7  1  0
  5  6  1  1
  7  8  2  0
  9 13  1  0
  9  7  1  0
 10  9  1  0
 11 10  1  0
 11 12  1  0
 12 13  1  0
 13 14  1  1
 14 15  2  0
 17 16  1  1
 17 19  1  0
 18 17  1  0
 20 19  1  1
 20 21  1  0
 20 22  1  0
 21 14  1  0
 22 23  2  0
 22 24  1  0
M  END
$$$$
