LPL.pdb
     RDKit          3D

 24 24  0  0  1  0  0  0  0  0999 V2000
    6.6334  -12.9314   27.1370 C   0  0  0  0  0  0  0  0  0  0  0  0
    6.6549  -13.6064   25.7945 C   0  0  2  0  0  0  0  0  0  0  0  0
    6.0375  -12.6169   24.7898 C   0  0  0  0  0  0  0  0  0  0  0  0
    5.8777  -14.8606   25.7488 C   0  0  0  0  0  0  0  0  0  0  0  0
    6.0942  -15.8153   24.6476 C   0  0  2  0  0  0  0  0  0  0  0  0
    5.2995  -17.0202   25.0303 N   0  0  0  0  0  0  0  0  0  0  0  0
    7.4301  -16.2671   24.3440 C   0  0  0  0  0  0  0  0  0  0  0  0
    7.7722  -17.4408   24.7256 O   0  0  0  0  0  0  0  0  0  0  0  0
    8.4556  -15.5460   23.6493 N   0  0  0  0  0  0  0  0  0  0  0  0
    8.3052  -14.1666   23.2683 C   0  0  0  0  0  0  0  0  0  0  0  0
    9.1463  -14.0439   22.0178 C   0  0  0  0  0  0  0  0  0  0  0  0
   10.0488  -15.2346   21.9869 C   0  0  0  0  0  0  0  0  0  0  0  0
    9.7314  -15.9860   23.2144 C   0  0  1  0  0  0  0  0  0  0  0  0
   10.7873  -15.9256   24.2527 C   0  0  0  0  0  0  0  0  0  0  0  0
   11.8370  -15.2912   23.9719 O   0  0  0  0  0  0  0  0  0  0  0  0
   10.2708  -12.9701   27.4752 C   0  0  0  0  0  0  0  0  0  0  0  0
   10.3829  -14.4921   27.6221 C   0  0  2  0  0  0  0  0  0  0  0  0
   10.3756  -14.8216   29.0810 C   0  0  0  0  0  0  0  0  0  0  0  0
   11.6834  -14.9332   26.9985 C   0  0  0  0  0  0  0  0  0  0  0  0
   11.6673  -16.3882   26.5851 C   0  0  2  0  0  0  0  0  0  0  0  0
   10.7094  -16.5245   25.5326 N   0  0  0  0  0  0  0  0  0  0  0  0
   11.2980  -17.2088   27.7857 C   0  0  0  0  0  0  0  0  0  0  0  0
   12.0412  -17.2983   28.7925 O   0  0  0  0  0  0  0  0  0  0  0  0
   10.0989  -17.9024   27.8095 O   0  0  0  0  0  0  0  0  0  0  0  0
  2  1  1  1
  2  3  1  0
  4  2  1  0
  4  5  1  0
  5  7  1  0
  5  6  1  1
  7  8  2  0
  9 13  1  0
  9  7  1  0
 10  9  1  0
 11 10  1  0
 11 12  1  0
 12 13  1  0
 13 14  1  1
 14 15  2  0
 17 16  1  1
 17 19  1  0
 18 17  1  0
 20 19  1  1
 20 21  1  0
 20 22  1  0
 21 14  1  0
 22 23  2  0
 22 24  1  0
M  END
$$$$
