LPL.pdb
     RDKit          3D

 24 24  0  0  1  0  0  0  0  0999 V2000
   10.0501  -13.4787   19.8098 C   0  0  0  0  0  0  0  0  0  0  0  0
    8.7705  -13.3865   19.0271 C   0  0  2  0  0  0  0  0  0  0  0  0
    8.2523  -11.9464   19.1910 C   0  0  0  0  0  0  0  0  0  0  0  0
    7.7213  -14.3139   19.4945 C   0  0  0  0  0  0  0  0  0  0  0  0
    8.0868  -15.6753   19.9233 C   0  0  2  0  0  0  0  0  0  0  0  0
    7.0612  -16.5584   19.2923 N   0  0  0  0  0  0  0  0  0  0  0  0
    8.1184  -15.9990   21.3287 C   0  0  0  0  0  0  0  0  0  0  0  0
    7.0474  -15.8328   22.0112 O   0  0  0  0  0  0  0  0  0  0  0  0
    9.2314  -16.4969   22.0821 N   0  0  0  0  0  0  0  0  0  0  0  0
   10.5437  -16.6466   21.5112 C   0  0  0  0  0  0  0  0  0  0  0  0
   11.1413  -17.8041   22.2789 C   0  0  0  0  0  0  0  0  0  0  0  0
   10.3097  -17.9812   23.5078 C   0  0  0  0  0  0  0  0  0  0  0  0
    9.2886  -16.9209   23.4338 C   0  0  1  0  0  0  0  0  0  0  0  0
    9.4805  -15.8247   24.4125 C   0  0  0  0  0  0  0  0  0  0  0  0
   10.4379  -15.0331   24.2120 O   0  0  0  0  0  0  0  0  0  0  0  0
    7.7663  -11.9971   25.6604 C   0  0  0  0  0  0  0  0  0  0  0  0
    6.9212  -13.2539   25.8992 C   0  0  2  0  0  0  0  0  0  0  0  0
    5.5550  -12.8225   26.3284 C   0  0  0  0  0  0  0  0  0  0  0  0
    7.5750  -14.0634   26.9909 C   0  0  0  0  0  0  0  0  0  0  0  0
    8.9156  -14.6271   26.5748 C   0  0  2  0  0  0  0  0  0  0  0  0
    8.6744  -15.5980   25.5535 N   0  0  0  0  0  0  0  0  0  0  0  0
    9.5592  -15.2380   27.7847 C   0  0  0  0  0  0  0  0  0  0  0  0
   10.0838  -14.5441   28.6888 O   0  0  0  0  0  0  0  0  0  0  0  0
    9.5888  -16.6150   27.9338 O   0  0  0  0  0  0  0  0  0  0  0  0
  2  1  1  1
  2  3  1  0
  4  2  1  0
  4  5  1  0
  5  7  1  0
  5  6  1  6
  7  8  2  0
  9 13  1  0
  9  7  1  0
 10  9  1  0
 11 10  1  0
 11 12  1  0
 12 13  1  0
 13 14  1  1
 14 15  2  0
 17 16  1  1
 17 19  1  0
 18 17  1  0
 20 19  1  1
 20 21  1  0
 20 22  1  0
 21 14  1  0
 22 23  2  0
 22 24  1  0
M  END
$$$$
