LPL.pdb
     RDKit          3D

 24 24  0  0  1  0  0  0  0  0999 V2000
    9.1538  -20.7365   21.7482 C   0  0  0  0  0  0  0  0  0  0  0  0
    8.7833  -19.5510   20.9021 C   0  0  2  0  0  0  0  0  0  0  0  0
    7.6467  -20.0082   19.9701 C   0  0  0  0  0  0  0  0  0  0  0  0
    9.8929  -19.0470   20.0691 C   0  0  0  0  0  0  0  0  0  0  0  0
   10.0475  -17.5972   19.8563 C   0  0  2  0  0  0  0  0  0  0  0  0
   11.3690  -17.4538   19.1759 N   0  0  0  0  0  0  0  0  0  0  0  0
   10.0546  -16.7041   20.9891 C   0  0  0  0  0  0  0  0  0  0  0  0
   11.1826  -16.4105   21.5200 O   0  0  0  0  0  0  0  0  0  0  0  0
    8.9241  -16.0855   21.6165 N   0  0  0  0  0  0  0  0  0  0  0  0
    7.5697  -16.3914   21.2390 C   0  0  0  0  0  0  0  0  0  0  0  0
    6.8181  -15.1104   21.5222 C   0  0  0  0  0  0  0  0  0  0  0  0
    7.6868  -14.2906   22.4203 C   0  0  0  0  0  0  0  0  0  0  0  0
    8.8844  -15.1178   22.6520 C   0  0  1  0  0  0  0  0  0  0  0  0
    8.9778  -15.6799   24.0202 C   0  0  0  0  0  0  0  0  0  0  0  0
    8.4707  -16.8150   24.2135 O   0  0  0  0  0  0  0  0  0  0  0  0
    8.7170  -13.5142   27.3860 C   0  0  0  0  0  0  0  0  0  0  0  0
    9.8543  -14.2774   28.0749 C   0  0  2  0  0  0  0  0  0  0  0  0
   10.4227  -13.4010   29.1453 C   0  0  0  0  0  0  0  0  0  0  0  0
   10.9105  -14.5853   27.0431 C   0  0  0  0  0  0  0  0  0  0  0  0
   10.4758  -15.6548   26.0657 C   0  0  2  0  0  0  0  0  0  0  0  0
    9.5905  -15.0421   25.1251 N   0  0  0  0  0  0  0  0  0  0  0  0
    9.7980  -16.7459   26.8412 C   0  0  0  0  0  0  0  0  0  0  0  0
   10.4010  -17.4337   27.6998 O   0  0  0  0  0  0  0  0  0  0  0  0
    8.4589  -17.0244   26.6207 O   0  0  0  0  0  0  0  0  0  0  0  0
  2  1  1  6
  2  3  1  0
  4  2  1  0
  4  5  1  0
  5  7  1  0
  5  6  1  1
  7  8  2  0
  9 13  1  0
  9  7  1  0
 10  9  1  0
 11 10  1  0
 11 12  1  0
 12 13  1  0
 13 14  1  1
 14 15  2  0
 17 16  1  6
 17 19  1  0
 18 17  1  0
 20 19  1  1
 20 21  1  0
 20 22  1  0
 21 14  1  0
 22 23  2  0
 22 24  1  0
M  END
$$$$
