LPL.pdb
     RDKit          3D

 24 24  0  0  1  0  0  0  0  0999 V2000
    3.0809  -18.0017   20.6857 C   0  0  0  0  0  0  0  0  0  0  0  0
    3.9542  -18.8350   21.5809 C   0  0  2  0  0  0  0  0  0  0  0  0
    3.1135  -19.1835   22.8224 C   0  0  0  0  0  0  0  0  0  0  0  0
    5.1781  -18.1414   22.0282 C   0  0  0  0  0  0  0  0  0  0  0  0
    6.2281  -17.8070   21.0501 C   0  0  2  0  0  0  0  0  0  0  0  0
    6.6883  -19.1264   20.5237 N   0  0  0  0  0  0  0  0  0  0  0  0
    7.4030  -17.0881   21.4787 C   0  0  0  0  0  0  0  0  0  0  0  0
    8.4622  -17.7605   21.7363 O   0  0  0  0  0  0  0  0  0  0  0  0
    7.5392  -15.6729   21.6599 N   0  0  0  0  0  0  0  0  0  0  0  0
    6.4536  -14.7577   21.4266 C   0  0  0  0  0  0  0  0  0  0  0  0
    7.1428  -13.4829   20.9952 C   0  0  0  0  0  0  0  0  0  0  0  0
    8.5761  -13.6100   21.3987 C   0  0  0  0  0  0  0  0  0  0  0  0
    8.6695  -14.9201   22.0674 C   0  0  1  0  0  0  0  0  0  0  0  0
    8.8557  -14.8398   23.5355 C   0  0  0  0  0  0  0  0  0  0  0  0
    9.6353  -13.9532   23.9707 O   0  0  0  0  0  0  0  0  0  0  0  0
    7.8467  -12.5178   26.6575 C   0  0  0  0  0  0  0  0  0  0  0  0
    6.9440  -13.4211   25.8092 C   0  0  2  0  0  0  0  0  0  0  0  0
    5.5402  -12.9181   25.9244 C   0  0  0  0  0  0  0  0  0  0  0  0
    7.0365  -14.8256   26.3511 C   0  0  0  0  0  0  0  0  0  0  0  0
    8.2937  -15.5398   25.9068 C   0  0  2  0  0  0  0  0  0  0  0  0
    8.2278  -15.6802   24.4856 N   0  0  0  0  0  0  0  0  0  0  0  0
    8.3413  -16.8709   26.5976 C   0  0  0  0  0  0  0  0  0  0  0  0
    8.0728  -17.9444   26.0063 O   0  0  0  0  0  0  0  0  0  0  0  0
    8.6913  -16.9456   27.9360 O   0  0  0  0  0  0  0  0  0  0  0  0
  2  1  1  6
  2  3  1  0
  4  2  1  0
  4  5  1  0
  5  7  1  0
  5  6  1  1
  7  8  2  0
  9 13  1  0
  9  7  1  0
 10  9  1  0
 11 10  1  0
 11 12  1  0
 12 13  1  0
 13 14  1  1
 14 15  2  0
 17 16  1  1
 17 19  1  0
 18 17  1  0
 20 19  1  1
 20 21  1  0
 20 22  1  0
 21 14  1  0
 22 23  2  0
 22 24  1  0
M  END
$$$$
