LPL.pdb
     RDKit          3D

 24 24  0  0  1  0  0  0  0  0999 V2000
    7.4072  -18.4506   25.1160 C   0  0  0  0  0  0  0  0  0  0  0  0
    6.4648  -18.8975   24.0340 C   0  0  2  0  0  0  0  0  0  0  0  0
    5.5378  -19.9544   24.6609 C   0  0  0  0  0  0  0  0  0  0  0  0
    7.1420  -19.5043   22.8712 C   0  0  0  0  0  0  0  0  0  0  0  0
    7.5302  -18.6595   21.7281 C   0  0  2  0  0  0  0  0  0  0  0  0
    8.2612  -19.5810   20.8082 N   0  0  0  0  0  0  0  0  0  0  0  0
    8.3781  -17.5121   21.9412 C   0  0  0  0  0  0  0  0  0  0  0  0
    9.6216  -17.7144   22.1719 O   0  0  0  0  0  0  0  0  0  0  0  0
    7.9933  -16.1316   21.9287 N   0  0  0  0  0  0  0  0  0  0  0  0
    6.6202  -15.7148   21.8223 C   0  0  0  0  0  0  0  0  0  0  0  0
    6.7018  -14.3803   21.1161 C   0  0  0  0  0  0  0  0  0  0  0  0
    8.1193  -13.9202   21.2267 C   0  0  0  0  0  0  0  0  0  0  0  0
    8.8013  -14.9690   22.0059 C   0  0  1  0  0  0  0  0  0  0  0  0
    9.1608  -14.5629   23.3851 C   0  0  0  0  0  0  0  0  0  0  0  0
   10.1381  -13.7819   23.5205 O   0  0  0  0  0  0  0  0  0  0  0  0
    7.3434  -11.8628   26.0197 C   0  0  0  0  0  0  0  0  0  0  0  0
    6.6631  -13.2254   25.8428 C   0  0  2  0  0  0  0  0  0  0  0  0
    5.2899  -13.1407   26.4295 C   0  0  0  0  0  0  0  0  0  0  0  0
    7.4773  -14.2600   26.5786 C   0  0  0  0  0  0  0  0  0  0  0  0
    8.7917  -14.5619   25.8936 C   0  0  2  0  0  0  0  0  0  0  0  0
    8.4938  -14.9835   24.5604 N   0  0  0  0  0  0  0  0  0  0  0  0
    9.4882  -15.6360   26.6762 C   0  0  0  0  0  0  0  0  0  0  0  0
    9.9463  -15.4383   27.8273 O   0  0  0  0  0  0  0  0  0  0  0  0
    9.6442  -16.9003   26.1317 O   0  0  0  0  0  0  0  0  0  0  0  0
  2  1  1  1
  2  3  1  0
  4  2  1  0
  4  5  1  0
  5  7  1  0
  5  6  1  6
  7  8  2  0
  9 13  1  0
  9  7  1  0
 10  9  1  0
 11 10  1  0
 11 12  1  0
 12 13  1  0
 13 14  1  1
 14 15  2  0
 17 16  1  1
 17 19  1  0
 18 17  1  0
 20 19  1  1
 20 21  1  0
 20 22  1  0
 21 14  1  0
 22 23  2  0
 22 24  1  0
M  END
$$$$
