LNC.pdb
     RDKit          3D

 23 22  0  0  1  0  0  0  0  0999 V2000
    8.9886  -12.5712   18.4793 C   0  0  0  0  0  0  0  0  0  0  0  0
    7.8099  -13.4369   18.8724 C   0  0  2  0  0  0  0  0  0  0  0  0
    6.7870  -12.5221   19.5362 C   0  0  0  0  0  0  0  0  0  0  0  0
    8.2436  -14.5449   19.8272 C   0  0  0  0  0  0  0  0  0  0  0  0
    9.1944  -15.4367   19.0629 C   0  0  2  0  0  0  0  0  0  0  0  0
    8.3872  -16.1927   18.1131 N   0  0  0  0  0  0  0  0  0  0  0  0
    9.9070  -16.3849   19.9410 C   0  0  0  0  0  0  0  0  0  0  0  0
    9.2658  -17.3938   20.3425 O   0  0  0  0  0  0  0  0  0  0  0  0
   13.5186  -19.5257   20.0186 N   0  0  0  0  0  0  0  0  0  0  0  0
   13.6503  -18.1175   19.8988 C   0  0  0  0  0  0  0  0  0  0  0  0
   14.0093  -17.6325   18.8000 O   0  0  0  0  0  0  0  0  0  0  0  0
   13.3579  -17.2891   21.0764 C   0  0  0  0  0  0  0  0  0  0  0  0
   11.8814  -17.0910   21.3399 C   0  0  2  0  0  0  0  0  0  0  0  0
   11.2420  -16.2456   20.3603 N   0  0  0  0  0  0  0  0  0  0  0  0
   11.7459  -16.5492   22.7153 C   0  0  0  0  0  0  0  0  0  0  0  0
   12.5811  -15.7031   23.1281 O   0  0  0  0  0  0  0  0  0  0  0  0
   10.7224  -16.9281   23.6071 N   0  0  0  0  0  0  0  0  0  0  0  0
   10.5958  -16.4517   24.9609 C   0  0  1  0  0  0  0  0  0  0  0  0
    9.1048  -16.1543   25.1719 C   0  0  0  0  0  0  0  0  0  0  0  0
    8.5270  -14.9319   23.9628 S   0  0  0  0  0  0  0  0  0  0  0  0
   10.9712  -17.4540   25.9685 C   0  0  0  0  0  0  0  0  0  0  0  0
   10.9644  -17.1455   27.1716 O   0  0  0  0  0  0  0  0  0  0  0  0
   11.3274  -18.7226   25.5896 O   0  0  0  0  0  0  0  0  0  0  0  0
  2  1  1  1
  2  3  1  0
  4  5  1  0
  4  2  1  0
  5  6  1  6
  7  5  1  0
  7  8  2  0
 10 12  1  0
 10  9  1  0
 11 10  2  0
 13 12  1  6
 13 14  1  0
 14  7  1  0
 15 13  1  0
 15 17  1  0
 16 15  2  0
 18 17  1  0
 18 21  1  0
 19 20  1  0
 18 19  1  1
 21 22  2  0
 21 23  1  0
M  END
$$$$
