LNC.pdb
     RDKit          3D

 23 22  0  0  1  0  0  0  0  0999 V2000
    7.9830  -12.0075   19.4888 C   0  0  0  0  0  0  0  0  0  0  0  0
    8.3718  -13.3704   18.9554 C   0  0  2  0  0  0  0  0  0  0  0  0
    7.5212  -13.6230   17.7159 C   0  0  0  0  0  0  0  0  0  0  0  0
    8.1337  -14.4527   20.0039 C   0  0  0  0  0  0  0  0  0  0  0  0
    9.4839  -14.8127   20.5788 C   0  0  2  0  0  0  0  0  0  0  0  0
   10.0629  -15.8147   19.6920 N   0  0  0  0  0  0  0  0  0  0  0  0
    9.3851  -15.3809   21.9372 C   0  0  0  0  0  0  0  0  0  0  0  0
    8.5227  -14.8822   22.7104 O   0  0  0  0  0  0  0  0  0  0  0  0
   11.4782  -19.9318   22.1810 N   0  0  0  0  0  0  0  0  0  0  0  0
   10.4882  -19.3899   23.0418 C   0  0  0  0  0  0  0  0  0  0  0  0
    9.3342  -19.8795   23.0241 O   0  0  0  0  0  0  0  0  0  0  0  0
   10.8651  -18.2731   23.9189 C   0  0  0  0  0  0  0  0  0  0  0  0
   10.0216  -17.0311   23.7331 C   0  0  2  0  0  0  0  0  0  0  0  0
   10.1785  -16.4324   22.4292 N   0  0  0  0  0  0  0  0  0  0  0  0
   10.3751  -16.0885   24.8241 C   0  0  0  0  0  0  0  0  0  0  0  0
   11.5859  -15.8170   25.0340 O   0  0  0  0  0  0  0  0  0  0  0  0
    9.4242  -15.4653   25.6571 N   0  0  0  0  0  0  0  0  0  0  0  0
    9.7440  -14.5839   26.7509 C   0  0  1  0  0  0  0  0  0  0  0  0
    8.4772  -13.7602   27.0208 C   0  0  0  0  0  0  0  0  0  0  0  0
    8.7279  -12.6633   28.4434 S   0  0  0  0  0  0  0  0  0  0  0  0
   10.0572  -15.2945   27.9990 C   0  0  0  0  0  0  0  0  0  0  0  0
    9.5967  -16.4323   28.1884 O   0  0  0  0  0  0  0  0  0  0  0  0
   10.8518  -14.7107   28.9518 O   0  0  0  0  0  0  0  0  0  0  0  0
  2  1  1  1
  2  3  1  0
  4  5  1  0
  4  2  1  0
  5  6  1  6
  7  5  1  0
  7  8  2  0
 10 12  1  0
 10  9  1  0
 11 10  2  0
 13 12  1  6
 13 14  1  0
 14  7  1  0
 15 13  1  0
 15 17  1  0
 16 15  2  0
 18 17  1  0
 18 21  1  0
 19 20  1  0
 18 19  1  1
 21 22  2  0
 21 23  1  0
M  END
$$$$
