LNC.pdb
     RDKit          3D

 23 22  0  0  1  0  0  0  0  0999 V2000
    8.8624  -13.4370   20.2042 C   0  0  0  0  0  0  0  0  0  0  0  0
    7.3646  -13.4201   20.4264 C   0  0  2  0  0  0  0  0  0  0  0  0
    6.9734  -11.9756   20.7162 C   0  0  0  0  0  0  0  0  0  0  0  0
    6.9773  -14.3284   21.5894 C   0  0  0  0  0  0  0  0  0  0  0  0
    7.5590  -15.6917   21.2952 C   0  0  2  0  0  0  0  0  0  0  0  0
    6.4316  -16.5890   21.0737 N   0  0  0  0  0  0  0  0  0  0  0  0
    8.3682  -16.2128   22.4140 C   0  0  0  0  0  0  0  0  0  0  0  0
    7.7755  -16.9158   23.2770 O   0  0  0  0  0  0  0  0  0  0  0  0
   14.0953  -16.6899   24.6375 N   0  0  0  0  0  0  0  0  0  0  0  0
   12.8283  -17.2653   24.3577 C   0  0  0  0  0  0  0  0  0  0  0  0
   12.4573  -18.2663   25.0150 O   0  0  0  0  0  0  0  0  0  0  0  0
   12.0056  -16.6566   23.3036 C   0  0  0  0  0  0  0  0  0  0  0  0
   10.5378  -16.5465   23.6529 C   0  0  2  0  0  0  0  0  0  0  0  0
    9.7447  -15.9835   22.5865 N   0  0  0  0  0  0  0  0  0  0  0  0
   10.4383  -15.7487   24.9009 C   0  0  0  0  0  0  0  0  0  0  0  0
   11.0877  -16.1114   25.9160 O   0  0  0  0  0  0  0  0  0  0  0  0
    9.6481  -14.5884   25.0257 N   0  0  0  0  0  0  0  0  0  0  0  0
    9.5968  -13.7528   26.1982 C   0  0  1  0  0  0  0  0  0  0  0  0
    8.5950  -12.6336   25.8824 C   0  0  0  0  0  0  0  0  0  0  0  0
    6.9239  -13.3145   25.6991 S   0  0  0  0  0  0  0  0  0  0  0  0
    9.0874  -14.4496   27.3881 C   0  0  0  0  0  0  0  0  0  0  0  0
    8.6256  -15.5970   27.2753 O   0  0  0  0  0  0  0  0  0  0  0  0
    9.1188  -13.8424   28.6170 O   0  0  0  0  0  0  0  0  0  0  0  0
  2  1  1  1
  2  3  1  0
  4  5  1  0
  4  2  1  0
  5  6  1  1
  7  5  1  0
  7  8  2  0
 10 12  1  0
 10  9  1  0
 11 10  2  0
 13 12  1  6
 13 14  1  0
 14  7  1  0
 15 13  1  0
 15 17  1  0
 16 15  2  0
 18 17  1  0
 18 21  1  0
 19 20  1  0
 18 19  1  6
 21 22  2  0
 21 23  1  0
M  END
$$$$
