LNC.pdb
     RDKit          3D

 23 22  0  0  1  0  0  0  0  0999 V2000
    9.0113  -12.5947   19.5189 C   0  0  0  0  0  0  0  0  0  0  0  0
    8.0870  -13.7563   19.2198 C   0  0  2  0  0  0  0  0  0  0  0  0
    7.0868  -13.2726   18.1762 C   0  0  0  0  0  0  0  0  0  0  0  0
    7.3681  -14.2183   20.4837 C   0  0  0  0  0  0  0  0  0  0  0  0
    8.4347  -14.5215   21.5103 C   0  0  2  0  0  0  0  0  0  0  0  0
    9.3378  -15.4908   20.9018 N   0  0  0  0  0  0  0  0  0  0  0  0
    7.8777  -15.1026   22.7472 C   0  0  0  0  0  0  0  0  0  0  0  0
    6.8243  -14.5829   23.2061 O   0  0  0  0  0  0  0  0  0  0  0  0
    6.1391  -18.7501   26.1025 N   0  0  0  0  0  0  0  0  0  0  0  0
    7.5415  -18.8905   25.9350 C   0  0  0  0  0  0  0  0  0  0  0  0
    8.1910  -19.5504   26.7801 O   0  0  0  0  0  0  0  0  0  0  0  0
    8.1702  -18.2514   24.7710 C   0  0  0  0  0  0  0  0  0  0  0  0
    7.8529  -16.7790   24.6294 C   0  0  2  0  0  0  0  0  0  0  0  0
    8.4335  -16.1879   23.4476 N   0  0  0  0  0  0  0  0  0  0  0  0
    8.3114  -16.1059   25.8706 C   0  0  0  0  0  0  0  0  0  0  0  0
    7.8106  -16.4442   26.9746 O   0  0  0  0  0  0  0  0  0  0  0  0
    9.2904  -15.0924   25.8940 N   0  0  0  0  0  0  0  0  0  0  0  0
    9.6699  -14.3452   27.0659 C   0  0  1  0  0  0  0  0  0  0  0  0
    8.3918  -13.6600   27.5688 C   0  0  0  0  0  0  0  0  0  0  0  0
    7.6761  -12.6222   26.2647 S   0  0  0  0  0  0  0  0  0  0  0  0
   10.1533  -15.1923   28.1656 C   0  0  0  0  0  0  0  0  0  0  0  0
   10.1659  -16.4267   28.0281 O   0  0  0  0  0  0  0  0  0  0  0  0
   10.5887  -14.6301   29.3379 O   0  0  0  0  0  0  0  0  0  0  0  0
  2  1  1  1
  2  3  1  0
  4  5  1  0
  4  2  1  0
  5  6  1  6
  7  5  1  0
  7  8  2  0
 10 12  1  0
 10  9  1  0
 11 10  2  0
 13 12  1  1
 13 14  1  0
 14  7  1  0
 15 13  1  0
 15 17  1  0
 16 15  2  0
 18 17  1  0
 18 21  1  0
 19 20  1  0
 18 19  1  1
 21 22  2  0
 21 23  1  0
M  END
$$$$
