LNC.pdb
     RDKit          3D

 23 22  0  0  1  0  0  0  0  0999 V2000
    9.2750  -12.8315   19.2975 C   0  0  0  0  0  0  0  0  0  0  0  0
    7.9613  -13.5402   19.5533 C   0  0  2  0  0  0  0  0  0  0  0  0
    6.8760  -12.4702   19.5813 C   0  0  0  0  0  0  0  0  0  0  0  0
    8.0030  -14.3021   20.8744 C   0  0  0  0  0  0  0  0  0  0  0  0
    9.2005  -15.2216   20.8141 C   0  0  2  0  0  0  0  0  0  0  0  0
    8.9103  -16.2207   19.7928 N   0  0  0  0  0  0  0  0  0  0  0  0
    9.4476  -15.9104   22.0957 C   0  0  0  0  0  0  0  0  0  0  0  0
    8.4810  -15.9960   22.9011 O   0  0  0  0  0  0  0  0  0  0  0  0
   10.5351  -19.5223   22.4639 N   0  0  0  0  0  0  0  0  0  0  0  0
   11.8266  -19.3227   23.0178 C   0  0  0  0  0  0  0  0  0  0  0  0
   12.6904  -20.2214   22.8838 O   0  0  0  0  0  0  0  0  0  0  0  0
   12.0921  -18.0637   23.7270 C   0  0  0  0  0  0  0  0  0  0  0  0
   10.9168  -17.1117   23.7547 C   0  0  2  0  0  0  0  0  0  0  0  0
   10.6760  -16.4753   22.4818 N   0  0  0  0  0  0  0  0  0  0  0  0
   11.1735  -16.1224   24.8314 C   0  0  0  0  0  0  0  0  0  0  0  0
   11.6911  -15.0136   24.5371 O   0  0  0  0  0  0  0  0  0  0  0  0
   10.8694  -16.3483   26.1889 N   0  0  0  0  0  0  0  0  0  0  0  0
   10.7915  -15.3194   27.1944 C   0  0  1  0  0  0  0  0  0  0  0  0
    9.6613  -14.3778   26.7561 C   0  0  0  0  0  0  0  0  0  0  0  0
    9.4273  -13.0592   27.9793 S   0  0  0  0  0  0  0  0  0  0  0  0
   10.4221  -15.8298   28.5225 C   0  0  0  0  0  0  0  0  0  0  0  0
    9.8299  -16.9174   28.6179 O   0  0  0  0  0  0  0  0  0  0  0  0
   10.7262  -15.1149   29.6523 O   0  0  0  0  0  0  0  0  0  0  0  0
  2  1  1  1
  2  3  1  0
  4  5  1  0
  4  2  1  0
  5  6  1  6
  7  5  1  0
  7  8  2  0
 10 12  1  0
 10  9  1  0
 11 10  2  0
 13 12  1  6
 13 14  1  0
 14  7  1  0
 15 13  1  0
 15 17  1  0
 16 15  2  0
 18 17  1  0
 18 21  1  0
 19 20  1  0
 18 19  1  6
 21 22  2  0
 21 23  1  0
M  END
$$$$
