LNC.pdb
     RDKit          3D

 23 22  0  0  1  0  0  0  0  0999 V2000
    8.3637  -12.2685   18.6630 C   0  0  0  0  0  0  0  0  0  0  0  0
    7.7571  -13.5379   19.2233 C   0  0  2  0  0  0  0  0  0  0  0  0
    6.7382  -13.1176   20.2764 C   0  0  0  0  0  0  0  0  0  0  0  0
    8.8323  -14.4292   19.8372 C   0  0  0  0  0  0  0  0  0  0  0  0
    9.7836  -14.8012   18.7237 C   0  0  2  0  0  0  0  0  0  0  0  0
    9.0430  -15.6638   17.8110 N   0  0  0  0  0  0  0  0  0  0  0  0
   10.9671  -15.5337   19.2143 C   0  0  0  0  0  0  0  0  0  0  0  0
   10.8224  -16.7602   19.4695 O   0  0  0  0  0  0  0  0  0  0  0  0
   15.3730  -13.8609   17.7382 N   0  0  0  0  0  0  0  0  0  0  0  0
   15.0158  -15.0740   18.3828 C   0  0  0  0  0  0  0  0  0  0  0  0
   15.0071  -16.1360   17.7166 O   0  0  0  0  0  0  0  0  0  0  0  0
   14.6708  -15.0276   19.8101 C   0  0  0  0  0  0  0  0  0  0  0  0
   13.3122  -15.6081   20.1355 C   0  0  2  0  0  0  0  0  0  0  0  0
   12.2376  -14.9663   19.4168 N   0  0  0  0  0  0  0  0  0  0  0  0
   13.1314  -15.5148   21.6060 C   0  0  0  0  0  0  0  0  0  0  0  0
   13.1095  -14.3812   22.1522 O   0  0  0  0  0  0  0  0  0  0  0  0
   12.9797  -16.6353   22.4474 N   0  0  0  0  0  0  0  0  0  0  0  0
   12.7440  -16.5693   23.8671 C   0  0  1  0  0  0  0  0  0  0  0  0
   11.3296  -15.9987   24.0398 C   0  0  0  0  0  0  0  0  0  0  0  0
   10.1393  -16.9522   23.0580 S   0  0  0  0  0  0  0  0  0  0  0  0
   12.7486  -17.8862   24.5201 C   0  0  0  0  0  0  0  0  0  0  0  0
   12.8574  -18.9124   23.8289 O   0  0  0  0  0  0  0  0  0  0  0  0
   12.6340  -17.9880   25.8826 O   0  0  0  0  0  0  0  0  0  0  0  0
  2  1  1  1
  2  3  1  0
  4  5  1  0
  4  2  1  0
  5  6  1  6
  7  5  1  0
  7  8  2  0
 10 12  1  0
 10  9  1  0
 11 10  2  0
 13 12  1  1
 13 14  1  0
 14  7  1  0
 15 13  1  0
 15 17  1  0
 16 15  2  0
 18 17  1  0
 18 21  1  0
 19 20  1  0
 18 19  1  6
 21 22  2  0
 21 23  1  0
M  END
$$$$
