LNC.pdb
     RDKit          3D

 23 22  0  0  1  0  0  0  0  0999 V2000
    9.0091  -12.6636   18.3730 C   0  0  0  0  0  0  0  0  0  0  0  0
    7.8761  -13.6566   18.2192 C   0  0  2  0  0  0  0  0  0  0  0  0
    6.6887  -12.8923   17.6451 C   0  0  0  0  0  0  0  0  0  0  0  0
    7.5166  -14.2835   19.5627 C   0  0  0  0  0  0  0  0  0  0  0  0
    8.8162  -14.6725   20.2283 C   0  0  2  0  0  0  0  0  0  0  0  0
    9.3960  -15.7402   19.4225 N   0  0  0  0  0  0  0  0  0  0  0  0
    8.6186  -15.1693   21.6038 C   0  0  0  0  0  0  0  0  0  0  0  0
    7.5637  -14.8180   22.1988 O   0  0  0  0  0  0  0  0  0  0  0  0
   11.3251  -19.2537   22.5814 N   0  0  0  0  0  0  0  0  0  0  0  0
   10.2037  -18.7990   23.3233 C   0  0  0  0  0  0  0  0  0  0  0  0
    9.1584  -19.4910   23.3291 O   0  0  0  0  0  0  0  0  0  0  0  0
   10.3217  -17.5302   24.0545 C   0  0  0  0  0  0  0  0  0  0  0  0
    9.3111  -16.4834   23.6404 C   0  0  2  0  0  0  0  0  0  0  0  0
    9.5165  -16.0016   22.2954 N   0  0  0  0  0  0  0  0  0  0  0  0
    9.3742  -15.3872   24.6395 C   0  0  0  0  0  0  0  0  0  0  0  0
   10.4032  -14.6648   24.6956 O   0  0  0  0  0  0  0  0  0  0  0  0
    8.3362  -15.0968   25.5476 N   0  0  0  0  0  0  0  0  0  0  0  0
    8.3664  -14.0286   26.5138 C   0  0  1  0  0  0  0  0  0  0  0  0
    6.9978  -13.3386   26.4314 C   0  0  0  0  0  0  0  0  0  0  0  0
    6.9120  -11.9622   27.6096 S   0  0  0  0  0  0  0  0  0  0  0  0
    8.5170  -14.4994   27.8982 C   0  0  0  0  0  0  0  0  0  0  0  0
    8.2058  -15.6670   28.1854 O   0  0  0  0  0  0  0  0  0  0  0  0
    8.9973  -13.6604   28.8705 O   0  0  0  0  0  0  0  0  0  0  0  0
  2  1  1  1
  2  3  1  0
  4  5  1  0
  4  2  1  0
  5  6  1  6
  7  5  1  0
  7  8  2  0
 10 12  1  0
 10  9  1  0
 11 10  2  0
 13 12  1  1
 13 14  1  0
 14  7  1  0
 15 13  1  0
 15 17  1  0
 16 15  2  0
 18 17  1  0
 18 21  1  0
 19 20  1  0
 18 19  1  1
 21 22  2  0
 21 23  1  0
M  END
$$$$
