LNC.pdb
     RDKit          3D

 23 22  0  0  1  0  0  0  0  0999 V2000
    9.6449  -12.9396   19.0313 C   0  0  0  0  0  0  0  0  0  0  0  0
    8.1895  -13.1476   18.6682 C   0  0  2  0  0  0  0  0  0  0  0  0
    7.4124  -11.9735   19.2524 C   0  0  0  0  0  0  0  0  0  0  0  0
    7.6732  -14.4695   19.2280 C   0  0  0  0  0  0  0  0  0  0  0  0
    8.7494  -15.5013   18.9826 C   0  0  2  0  0  0  0  0  0  0  0  0
    8.3007  -16.3154   17.8596 N   0  0  0  0  0  0  0  0  0  0  0  0
    8.9655  -16.3791   20.1492 C   0  0  0  0  0  0  0  0  0  0  0  0
    7.9433  -16.8771   20.6944 O   0  0  0  0  0  0  0  0  0  0  0  0
   12.2663  -19.5408   19.5635 N   0  0  0  0  0  0  0  0  0  0  0  0
   11.3947  -19.5248   20.6837 C   0  0  0  0  0  0  0  0  0  0  0  0
   10.4939  -20.3930   20.7647 O   0  0  0  0  0  0  0  0  0  0  0  0
   11.5905  -18.4844   21.7023 C   0  0  0  0  0  0  0  0  0  0  0  0
   10.4193  -17.5385   21.8510 C   0  0  2  0  0  0  0  0  0  0  0  0
   10.2219  -16.6986   20.6939 N   0  0  0  0  0  0  0  0  0  0  0  0
   10.6463  -16.7428   23.0835 C   0  0  0  0  0  0  0  0  0  0  0  0
   11.6465  -15.9817   23.1486 O   0  0  0  0  0  0  0  0  0  0  0  0
    9.7980  -16.7849   24.2082 N   0  0  0  0  0  0  0  0  0  0  0  0
   10.0710  -16.1386   25.4665 C   0  0  1  0  0  0  0  0  0  0  0  0
    8.8775  -15.2127   25.7396 C   0  0  0  0  0  0  0  0  0  0  0  0
    7.3188  -16.0698   25.3851 S   0  0  0  0  0  0  0  0  0  0  0  0
   10.1448  -17.0741   26.5979 C   0  0  0  0  0  0  0  0  0  0  0  0
    9.8094  -18.2590   26.4360 O   0  0  0  0  0  0  0  0  0  0  0  0
   10.5800  -16.6480   27.8263 O   0  0  0  0  0  0  0  0  0  0  0  0
  2  1  1  1
  2  3  1  0
  4  5  1  0
  4  2  1  0
  5  6  1  6
  7  5  1  0
  7  8  2  0
 10 12  1  0
 10  9  1  0
 11 10  2  0
 13 12  1  6
 13 14  1  0
 14  7  1  0
 15 13  1  0
 15 17  1  0
 16 15  2  0
 18 17  1  0
 18 21  1  0
 19 20  1  0
 18 19  1  1
 21 22  2  0
 21 23  1  0
M  END
$$$$
