LNC.pdb
     RDKit          3D

 23 22  0  0  1  0  0  0  0  0999 V2000
    9.2912  -13.8698   19.8450 C   0  0  0  0  0  0  0  0  0  0  0  0
    7.8478  -13.6304   19.4544 C   0  0  2  0  0  0  0  0  0  0  0  0
    7.6861  -12.1293   19.2445 C   0  0  0  0  0  0  0  0  0  0  0  0
    6.9007  -14.1290   20.5415 C   0  0  0  0  0  0  0  0  0  0  0  0
    7.3504  -15.5235   20.9109 C   0  0  2  0  0  0  0  0  0  0  0  0
    6.5924  -16.4439   20.0720 N   0  0  0  0  0  0  0  0  0  0  0  0
    7.0866  -15.8445   22.3270 C   0  0  0  0  0  0  0  0  0  0  0  0
    5.8991  -15.7258   22.7345 O   0  0  0  0  0  0  0  0  0  0  0  0
    7.6613  -19.8812   23.6245 N   0  0  0  0  0  0  0  0  0  0  0  0
    7.1365  -18.8962   24.5015 C   0  0  0  0  0  0  0  0  0  0  0  0
    5.9071  -18.8946   24.7469 O   0  0  0  0  0  0  0  0  0  0  0  0
    8.0652  -17.9182   25.0842 C   0  0  0  0  0  0  0  0  0  0  0  0
    7.8077  -16.4908   24.6542 C   0  0  2  0  0  0  0  0  0  0  0  0
    8.0580  -16.2707   23.2499 N   0  0  0  0  0  0  0  0  0  0  0  0
    8.6419  -15.6125   25.5123 C   0  0  0  0  0  0  0  0  0  0  0  0
    9.8765  -15.5234   25.2847 O   0  0  0  0  0  0  0  0  0  0  0  0
    8.1316  -14.8567   26.5868 N   0  0  0  0  0  0  0  0  0  0  0  0
    8.9250  -14.0227   27.4532 C   0  0  1  0  0  0  0  0  0  0  0  0
    7.9363  -13.1084   28.1897 C   0  0  0  0  0  0  0  0  0  0  0  0
    6.6774  -12.4847   27.0425 S   0  0  0  0  0  0  0  0  0  0  0  0
    9.6486  -14.7779   28.4860 C   0  0  0  0  0  0  0  0  0  0  0  0
    9.4436  -15.9965   28.6105 O   0  0  0  0  0  0  0  0  0  0  0  0
   10.5452  -14.1473   29.3097 O   0  0  0  0  0  0  0  0  0  0  0  0
  2  1  1  1
  2  3  1  0
  4  5  1  0
  4  2  1  0
  5  6  1  6
  7  5  1  0
  7  8  2  0
 10 12  1  0
 10  9  1  0
 11 10  2  0
 13 12  1  1
 13 14  1  0
 14  7  1  0
 15 13  1  0
 15 17  1  0
 16 15  2  0
 18 17  1  0
 18 21  1  0
 19 20  1  0
 18 19  1  1
 21 22  2  0
 21 23  1  0
M  END
$$$$
