LNC.pdb
     RDKit          3D

 23 22  0  0  1  0  0  0  0  0999 V2000
    9.4498  -13.0067   19.3869 C   0  0  0  0  0  0  0  0  0  0  0  0
    8.0143  -13.4389   19.6005 C   0  0  2  0  0  0  0  0  0  0  0  0
    7.1705  -12.1706   19.6545 C   0  0  0  0  0  0  0  0  0  0  0  0
    7.8735  -14.2369   20.8931 C   0  0  0  0  0  0  0  0  0  0  0  0
    8.8112  -15.4170   20.7857 C   0  0  2  0  0  0  0  0  0  0  0  0
    8.1694  -16.3827   19.9021 N   0  0  0  0  0  0  0  0  0  0  0  0
    9.0605  -16.0596   22.0906 C   0  0  0  0  0  0  0  0  0  0  0  0
    8.0606  -16.5106   22.7128 O   0  0  0  0  0  0  0  0  0  0  0  0
   12.1223  -19.4505   22.2482 N   0  0  0  0  0  0  0  0  0  0  0  0
   11.2929  -19.0402   23.3245 C   0  0  0  0  0  0  0  0  0  0  0  0
   10.3023  -19.7450   23.6306 O   0  0  0  0  0  0  0  0  0  0  0  0
   11.6367  -17.8005   24.0339 C   0  0  0  0  0  0  0  0  0  0  0  0
   10.5477  -16.7508   24.0049 C   0  0  2  0  0  0  0  0  0  0  0  0
   10.3254  -16.2048   22.6874 N   0  0  0  0  0  0  0  0  0  0  0  0
   10.9182  -15.7010   24.9868 C   0  0  0  0  0  0  0  0  0  0  0  0
   11.9787  -15.0453   24.8153 O   0  0  0  0  0  0  0  0  0  0  0  0
   10.1446  -15.3842   26.1215 N   0  0  0  0  0  0  0  0  0  0  0  0
   10.6057  -14.5941   27.2344 C   0  0  1  0  0  0  0  0  0  0  0  0
    9.7471  -13.3218   27.2406 C   0  0  0  0  0  0  0  0  0  0  0  0
    7.9972  -13.7393   27.0092 S   0  0  0  0  0  0  0  0  0  0  0  0
   10.4008  -15.2458   28.5360 C   0  0  0  0  0  0  0  0  0  0  0  0
    9.8046  -16.3341   28.5891 O   0  0  0  0  0  0  0  0  0  0  0  0
   10.8623  -14.6615   29.6873 O   0  0  0  0  0  0  0  0  0  0  0  0
  2  1  1  1
  2  3  1  0
  4  5  1  0
  4  2  1  0
  5  6  1  6
  7  5  1  0
  7  8  2  0
 10 12  1  0
 10  9  1  0
 11 10  2  0
 13 12  1  6
 13 14  1  0
 14  7  1  0
 15 13  1  0
 15 17  1  0
 16 15  2  0
 18 17  1  0
 18 21  1  0
 19 20  1  0
 18 19  1  1
 21 22  2  0
 21 23  1  0
M  END
$$$$
