LNC.pdb
     RDKit          3D

 23 22  0  0  1  0  0  0  0  0999 V2000
    9.7218  -13.0442   19.4581 C   0  0  0  0  0  0  0  0  0  0  0  0
    8.2756  -13.4905   19.5078 C   0  0  2  0  0  0  0  0  0  0  0  0
    7.4205  -12.2287   19.5306 C   0  0  0  0  0  0  0  0  0  0  0  0
    8.0122  -14.3439   20.7446 C   0  0  0  0  0  0  0  0  0  0  0  0
    8.9540  -15.5235   20.6736 C   0  0  2  0  0  0  0  0  0  0  0  0
    8.3977  -16.4447   19.6900 N   0  0  0  0  0  0  0  0  0  0  0  0
    9.0767  -16.2257   21.9658 C   0  0  0  0  0  0  0  0  0  0  0  0
    8.1606  -17.0365   22.2718 O   0  0  0  0  0  0  0  0  0  0  0  0
   12.6653  -18.9240   25.9439 N   0  0  0  0  0  0  0  0  0  0  0  0
   11.3972  -18.4591   25.5075 C   0  0  0  0  0  0  0  0  0  0  0  0
   10.3922  -18.6722   26.2259 O   0  0  0  0  0  0  0  0  0  0  0  0
   11.3218  -17.7450   24.2258 C   0  0  0  0  0  0  0  0  0  0  0  0
   10.2192  -16.7113   24.1595 C   0  0  2  0  0  0  0  0  0  0  0  0
   10.1355  -16.0572   22.8757 N   0  0  0  0  0  0  0  0  0  0  0  0
   10.4515  -15.7448   25.2620 C   0  0  0  0  0  0  0  0  0  0  0  0
   11.5647  -15.1636   25.3460 O   0  0  0  0  0  0  0  0  0  0  0  0
    9.4877  -15.4290   26.2406 N   0  0  0  0  0  0  0  0  0  0  0  0
    9.7070  -14.5373   27.3507 C   0  0  1  0  0  0  0  0  0  0  0  0
    8.3431  -13.9109   27.6721 C   0  0  0  0  0  0  0  0  0  0  0  0
    7.5635  -13.2836   26.1593 S   0  0  0  0  0  0  0  0  0  0  0  0
   10.1519  -15.2251   28.5713 C   0  0  0  0  0  0  0  0  0  0  0  0
   10.3967  -14.5627   29.5930 O   0  0  0  0  0  0  0  0  0  0  0  0
   10.2975  -16.5883   28.5884 O   0  0  0  0  0  0  0  0  0  0  0  0
  2  1  1  1
  2  3  1  0
  4  5  1  0
  4  2  1  0
  5  6  1  6
  7  5  1  0
  7  8  2  0
 10 12  1  0
 10  9  1  0
 11 10  2  0
 13 12  1  6
 13 14  1  0
 14  7  1  0
 15 13  1  0
 15 17  1  0
 16 15  2  0
 18 17  1  0
 18 21  1  0
 19 20  1  0
 18 19  1  1
 21 22  2  0
 21 23  1  0
M  END
$$$$
