LNC.pdb
     RDKit          3D

 23 22  0  0  1  0  0  0  0  0999 V2000
    8.9437  -12.6458   19.8585 C   0  0  0  0  0  0  0  0  0  0  0  0
    8.0904  -13.7909   19.3546 C   0  0  2  0  0  0  0  0  0  0  0  0
    7.0845  -13.1990   18.3740 C   0  0  0  0  0  0  0  0  0  0  0  0
    7.3748  -14.4848   20.5096 C   0  0  0  0  0  0  0  0  0  0  0  0
    8.4155  -14.7592   21.5703 C   0  0  2  0  0  0  0  0  0  0  0  0
    9.4640  -15.5474   20.9341 N   0  0  0  0  0  0  0  0  0  0  0  0
    7.8716  -15.5237   22.7094 C   0  0  0  0  0  0  0  0  0  0  0  0
    6.8197  -15.0854   23.2495 O   0  0  0  0  0  0  0  0  0  0  0  0
    7.2693  -20.6465   25.4740 N   0  0  0  0  0  0  0  0  0  0  0  0
    8.0996  -19.5224   25.7227 C   0  0  0  0  0  0  0  0  0  0  0  0
    8.3704  -19.2180   26.9083 O   0  0  0  0  0  0  0  0  0  0  0  0
    8.6058  -18.7635   24.5711 C   0  0  0  0  0  0  0  0  0  0  0  0
    7.8669  -17.4690   24.3125 C   0  0  2  0  0  0  0  0  0  0  0  0
    8.4382  -16.6992   23.2335 N   0  0  0  0  0  0  0  0  0  0  0  0
    7.8456  -16.7089   25.5874 C   0  0  0  0  0  0  0  0  0  0  0  0
    7.0264  -17.0363   26.4850 O   0  0  0  0  0  0  0  0  0  0  0  0
    8.7000  -15.6226   25.8641 N   0  0  0  0  0  0  0  0  0  0  0  0
    8.6080  -14.7829   27.0311 C   0  0  1  0  0  0  0  0  0  0  0  0
   10.0474  -14.3866   27.3873 C   0  0  0  0  0  0  0  0  0  0  0  0
   10.1149  -13.6877   29.0597 S   0  0  0  0  0  0  0  0  0  0  0  0
    7.8743  -13.5318   26.7921 C   0  0  0  0  0  0  0  0  0  0  0  0
    7.6708  -12.7510   27.7364 O   0  0  0  0  0  0  0  0  0  0  0  0
    7.4153  -13.2227   25.5377 O   0  0  0  0  0  0  0  0  0  0  0  0
  2  1  1  1
  2  3  1  0
  4  5  1  0
  4  2  1  0
  5  6  1  6
  7  5  1  0
  7  8  2  0
 10 12  1  0
 10  9  1  0
 11 10  2  0
 13 12  1  1
 13 14  1  0
 14  7  1  0
 15 13  1  0
 15 17  1  0
 16 15  2  0
 18 17  1  0
 18 21  1  0
 19 20  1  0
 18 19  1  6
 21 22  2  0
 21 23  1  0
M  END
$$$$
