LNC.pdb
     RDKit          3D

 23 22  0  0  1  0  0  0  0  0999 V2000
    7.4804  -14.4674   19.4333 C   0  0  0  0  0  0  0  0  0  0  0  0
    7.6863  -13.6668   20.7020 C   0  0  2  0  0  0  0  0  0  0  0  0
    7.6076  -12.1939   20.3171 C   0  0  0  0  0  0  0  0  0  0  0  0
    9.0368  -13.9884   21.3347 C   0  0  0  0  0  0  0  0  0  0  0  0
    8.8581  -15.2612   22.1293 C   0  0  2  0  0  0  0  0  0  0  0  0
    7.4261  -15.4170   22.3539 N   0  0  0  0  0  0  0  0  0  0  0  0
    9.5412  -15.2105   23.4365 C   0  0  0  0  0  0  0  0  0  0  0  0
   10.7808  -14.9786   23.4317 O   0  0  0  0  0  0  0  0  0  0  0  0
    9.3062  -13.3017   29.0987 N   0  0  0  0  0  0  0  0  0  0  0  0
    9.9456  -13.9739   28.0244 C   0  0  0  0  0  0  0  0  0  0  0  0
   11.1002  -14.4312   28.1955 O   0  0  0  0  0  0  0  0  0  0  0  0
    9.2192  -14.1027   26.7539 C   0  0  0  0  0  0  0  0  0  0  0  0
    9.5893  -15.3321   25.9537 C   0  0  2  0  0  0  0  0  0  0  0  0
    8.9135  -15.4009   24.6802 N   0  0  0  0  0  0  0  0  0  0  0  0
    9.3002  -16.5159   26.8015 C   0  0  0  0  0  0  0  0  0  0  0  0
    8.4927  -16.4032   27.7603 O   0  0  0  0  0  0  0  0  0  0  0  0
    9.8825  -17.7832   26.5988 N   0  0  0  0  0  0  0  0  0  0  0  0
    9.2344  -19.0386   26.8810 C   0  0  1  0  0  0  0  0  0  0  0  0
    8.0620  -19.1455   25.8961 C   0  0  0  0  0  0  0  0  0  0  0  0
    6.5736  -19.7373   26.7472 S   0  0  0  0  0  0  0  0  0  0  0  0
   10.0946  -20.2057   26.6388 C   0  0  0  0  0  0  0  0  0  0  0  0
    9.7717  -21.3116   27.1027 O   0  0  0  0  0  0  0  0  0  0  0  0
   11.2471  -20.0810   25.9064 O   0  0  0  0  0  0  0  0  0  0  0  0
  2  1  1  6
  2  3  1  0
  4  5  1  0
  4  2  1  0
  5  6  1  1
  7  5  1  0
  7  8  2  0
 10 12  1  0
 10  9  1  0
 11 10  2  0
 13 12  1  1
 13 14  1  0
 14  7  1  0
 15 13  1  0
 15 17  1  0
 16 15  2  0
 18 17  1  0
 18 21  1  0
 19 20  1  0
 18 19  1  6
 21 22  2  0
 21 23  1  0
M  END
$$$$
