LNC.pdb
     RDKit          3D

 23 22  0  0  1  0  0  0  0  0999 V2000
    9.4686  -12.9202   18.8839 C   0  0  0  0  0  0  0  0  0  0  0  0
    8.1854  -13.6970   19.0918 C   0  0  2  0  0  0  0  0  0  0  0  0
    7.0344  -12.7488   18.7762 C   0  0  0  0  0  0  0  0  0  0  0  0
    8.0861  -14.2089   20.5256 C   0  0  0  0  0  0  0  0  0  0  0  0
    9.3098  -15.0597   20.7745 C   0  0  2  0  0  0  0  0  0  0  0  0
    9.2989  -16.1136   19.7673 N   0  0  0  0  0  0  0  0  0  0  0  0
    9.3015  -15.6816   22.1128 C   0  0  0  0  0  0  0  0  0  0  0  0
    8.4387  -15.2702   22.9354 O   0  0  0  0  0  0  0  0  0  0  0  0
   12.0566  -19.9345   25.6792 N   0  0  0  0  0  0  0  0  0  0  0  0
   10.8938  -19.2729   25.2050 C   0  0  0  0  0  0  0  0  0  0  0  0
    9.8535  -19.2973   25.9042 O   0  0  0  0  0  0  0  0  0  0  0  0
   10.9646  -18.5861   23.9082 C   0  0  0  0  0  0  0  0  0  0  0  0
   10.1410  -17.3192   23.8353 C   0  0  2  0  0  0  0  0  0  0  0  0
   10.1810  -16.6942   22.5350 N   0  0  0  0  0  0  0  0  0  0  0  0
   10.6290  -16.4117   24.9039 C   0  0  0  0  0  0  0  0  0  0  0  0
   11.7293  -15.8196   24.7529 O   0  0  0  0  0  0  0  0  0  0  0  0
    9.9267  -16.1648   26.1007 N   0  0  0  0  0  0  0  0  0  0  0  0
   10.4069  -15.3377   27.1781 C   0  0  1  0  0  0  0  0  0  0  0  0
    9.3967  -14.1908   27.3198 C   0  0  0  0  0  0  0  0  0  0  0  0
    9.9037  -13.0624   28.6463 S   0  0  0  0  0  0  0  0  0  0  0  0
   10.4404  -16.0308   28.4740 C   0  0  0  0  0  0  0  0  0  0  0  0
    9.8808  -17.1330   28.5939 O   0  0  0  0  0  0  0  0  0  0  0  0
   11.0835  -15.4697   29.5471 O   0  0  0  0  0  0  0  0  0  0  0  0
  2  1  1  1
  2  3  1  0
  4  5  1  0
  4  2  1  0
  5  6  1  6
  7  5  1  0
  7  8  2  0
 10 12  1  0
 10  9  1  0
 11 10  2  0
 13 12  1  6
 13 14  1  0
 14  7  1  0
 15 13  1  0
 15 17  1  0
 16 15  2  0
 18 17  1  0
 18 21  1  0
 19 20  1  0
 18 19  1  1
 21 22  2  0
 21 23  1  0
M  END
$$$$
