HIY.pdb
     RDKit          3D

 31 32  0  0  1  0  0  0  0  0999 V2000
    9.0404  -18.5737   17.7176 N   0  0  0  0  0  0  0  0  0  0  0  0
    8.1759  -18.4195   18.8684 C   0  0  1  0  0  0  0  0  0  0  0  0
    8.0980  -19.7675   19.5474 C   0  0  0  0  0  0  0  0  0  0  0  0
    7.3361  -20.6661   18.6370 C   0  0  0  0  0  0  0  0  0  0  0  0
    5.9837  -20.5731   18.3141 C   0  0  0  0  0  0  0  0  0  0  0  0
    5.6378  -21.5498   17.4653 N   0  0  0  0  0  0  0  0  0  0  0  0
    6.7697  -22.2627   17.2493 C   0  0  0  0  0  0  0  0  0  0  0  0
    7.7886  -21.7310   17.9534 N   0  0  0  0  0  0  0  0  0  0  0  0
    8.7750  -17.4000   19.7638 C   0  0  0  0  0  0  0  0  0  0  0  0
    9.9961  -17.4509   20.1038 O   0  0  0  0  0  0  0  0  0  0  0  0
    6.7117  -12.3315   19.5855 C   0  0  0  0  0  0  0  0  0  0  0  0
    7.6402  -13.4899   19.6699 C   0  0  0  0  0  0  0  0  0  0  0  0
    7.7519  -14.1098   21.0075 C   0  0  2  0  0  0  0  0  0  0  0  0
    8.1836  -13.0735   22.0541 C   0  0  0  0  0  0  0  0  0  0  0  0
    8.6126  -15.3024   21.1737 C   0  0  2  0  0  0  0  0  0  0  0  0
    8.0173  -16.3308   20.2767 N   0  0  0  0  0  0  0  0  0  0  0  0
    8.5564  -15.9205   22.5439 C   0  0  0  0  0  0  0  0  0  0  0  0
    7.4298  -16.1198   23.0968 O   0  0  0  0  0  0  0  0  0  0  0  0
    5.1702  -20.6854   22.8088 O   0  0  0  0  0  0  0  0  0  0  0  0
    6.2583  -20.0399   23.3484 C   0  0  0  0  0  0  0  0  0  0  0  0
    7.4748  -20.2010   22.7036 C   0  0  0  0  0  0  0  0  0  0  0  0
    8.5838  -19.5686   23.2174 C   0  0  0  0  0  0  0  0  0  0  0  0
    8.4775  -18.7926   24.3510 C   0  0  0  0  0  0  0  0  0  0  0  0
    9.6739  -18.1368   24.8684 C   0  0  0  0  0  0  0  0  0  0  0  0
    9.7867  -16.6723   24.6501 C   0  0  2  0  0  0  0  0  0  0  0  0
    9.7164  -16.2995   23.2580 N   0  0  0  0  0  0  0  0  0  0  0  0
   10.8323  -15.9845   25.4282 C   0  0  0  0  0  0  0  0  0  0  0  0
   11.6653  -15.2037   24.8439 O   0  0  0  0  0  0  0  0  0  0  0  0
    7.2770  -18.6385   24.9806 C   0  0  0  0  0  0  0  0  0  0  0  0
    6.1601  -19.2660   24.4763 C   0  0  0  0  0  0  0  0  0  0  0  0
   11.0281  -16.0966   26.7945 O   0  0  0  0  0  0  0  0  0  0  0  0
  2  1  1  6
  3  4  1  0
  3  2  1  0
  4  8  1  0
  4  5  2  0
  5  6  1  0
  7  6  1  0
  8  7  2  0
  9 16  1  0
  9  2  1  0
 10  9  2  0
 11 12  1  0
 13 12  1  0
 13 15  1  0
 13 14  1  1
 15 16  1  6
 17 15  1  0
 18 17  2  0
 20 19  1  0
 20 30  2  0
 21 20  1  0
 22 21  2  0
 22 23  1  0
 23 29  2  0
 24 23  1  0
 25 26  1  0
 25 24  1  6
 26 17  1  0
 27 25  1  0
 28 27  2  0
 29 30  1  0
 31 27  1  0
M  END
$$$$
