HIY.pdb
     RDKit          3D

 31 32  0  0  1  0  0  0  0  0999 V2000
    9.6784  -18.2006   18.0670 N   0  0  0  0  0  0  0  0  0  0  0  0
   10.9255  -18.0071   18.7760 C   0  0  1  0  0  0  0  0  0  0  0  0
   11.9694  -17.6443   17.7450 C   0  0  0  0  0  0  0  0  0  0  0  0
   11.9164  -18.6928   16.6895 C   0  0  0  0  0  0  0  0  0  0  0  0
   12.2227  -20.0438   16.8408 C   0  0  0  0  0  0  0  0  0  0  0  0
   12.0640  -20.6919   15.6794 N   0  0  0  0  0  0  0  0  0  0  0  0
   11.6571  -19.7531   14.7909 C   0  0  0  0  0  0  0  0  0  0  0  0
   11.5690  -18.5534   15.3987 N   0  0  0  0  0  0  0  0  0  0  0  0
   10.7347  -16.9111   19.7571 C   0  0  0  0  0  0  0  0  0  0  0  0
   11.7188  -16.3709   20.3480 O   0  0  0  0  0  0  0  0  0  0  0  0
    7.4172  -12.9128   18.9264 C   0  0  0  0  0  0  0  0  0  0  0  0
    8.5461  -13.7120   19.4726 C   0  0  0  0  0  0  0  0  0  0  0  0
    8.2288  -14.5049   20.6794 C   0  0  2  0  0  0  0  0  0  0  0  0
    7.8193  -13.5891   21.8411 C   0  0  0  0  0  0  0  0  0  0  0  0
    9.2361  -15.4600   21.1932 C   0  0  2  0  0  0  0  0  0  0  0  0
    9.4551  -16.4209   20.0773 N   0  0  0  0  0  0  0  0  0  0  0  0
    8.7550  -16.3129   22.3351 C   0  0  0  0  0  0  0  0  0  0  0  0
    7.9088  -17.2353   22.1162 O   0  0  0  0  0  0  0  0  0  0  0  0
    5.5176  -11.3329   28.5349 O   0  0  0  0  0  0  0  0  0  0  0  0
    6.1854  -11.9946   27.5309 C   0  0  0  0  0  0  0  0  0  0  0  0
    7.4421  -12.4974   27.8300 C   0  0  0  0  0  0  0  0  0  0  0  0
    8.1375  -13.1650   26.8479 C   0  0  0  0  0  0  0  0  0  0  0  0
    7.5874  -13.3256   25.5949 C   0  0  0  0  0  0  0  0  0  0  0  0
    8.3529  -14.0386   24.5775 C   0  0  0  0  0  0  0  0  0  0  0  0
    8.4865  -15.5083   24.7424 C   0  0  2  0  0  0  0  0  0  0  0  0
    9.2083  -16.1367   23.6627 N   0  0  0  0  0  0  0  0  0  0  0  0
    7.2717  -16.2199   25.1781 C   0  0  0  0  0  0  0  0  0  0  0  0
    7.2512  -16.8362   26.3027 O   0  0  0  0  0  0  0  0  0  0  0  0
    6.3501  -12.8281   25.3075 C   0  0  0  0  0  0  0  0  0  0  0  0
    5.6443  -12.1583   26.2815 C   0  0  0  0  0  0  0  0  0  0  0  0
    6.0862  -16.3045   24.4675 O   0  0  0  0  0  0  0  0  0  0  0  0
  2  1  1  6
  3  4  1  0
  3  2  1  0
  4  8  1  0
  4  5  2  0
  5  6  1  0
  7  6  1  0
  8  7  2  0
  9 16  1  0
  9  2  1  0
 10  9  2  0
 11 12  1  0
 13 12  1  0
 13 15  1  0
 13 14  1  1
 15 16  1  6
 17 15  1  0
 18 17  2  0
 20 19  1  0
 20 30  2  0
 21 20  1  0
 22 21  2  0
 22 23  1  0
 23 29  2  0
 24 23  1  0
 25 26  1  0
 25 24  1  6
 26 17  1  0
 27 25  1  0
 28 27  2  0
 29 30  1  0
 31 27  1  0
M  END
$$$$
