HIY.pdb
     RDKit          3D

 31 32  0  0  1  0  0  0  0  0999 V2000
    9.6808  -18.2087   17.1891 N   0  0  0  0  0  0  0  0  0  0  0  0
    8.8469  -18.3073   18.3681 C   0  0  1  0  0  0  0  0  0  0  0  0
    8.9170  -19.7409   18.8414 C   0  0  0  0  0  0  0  0  0  0  0  0
    8.0986  -20.5484   17.8956 C   0  0  0  0  0  0  0  0  0  0  0  0
    6.7112  -20.6791   17.8958 C   0  0  0  0  0  0  0  0  0  0  0  0
    6.3176  -21.4846   16.9007 N   0  0  0  0  0  0  0  0  0  0  0  0
    7.4542  -21.8654   16.2689 C   0  0  0  0  0  0  0  0  0  0  0  0
    8.5228  -21.3026   16.8672 N   0  0  0  0  0  0  0  0  0  0  0  0
    9.3809  -17.3761   19.3918 C   0  0  0  0  0  0  0  0  0  0  0  0
   10.6239  -17.1441   19.4936 O   0  0  0  0  0  0  0  0  0  0  0  0
    6.7305  -12.8705   19.8265 C   0  0  0  0  0  0  0  0  0  0  0  0
    7.8357  -13.8653   19.8433 C   0  0  0  0  0  0  0  0  0  0  0  0
    8.0309  -14.5662   21.1303 C   0  0  2  0  0  0  0  0  0  0  0  0
    8.3289  -13.5662   22.2559 C   0  0  0  0  0  0  0  0  0  0  0  0
    9.0387  -15.6472   21.2106 C   0  0  2  0  0  0  0  0  0  0  0  0
    8.5344  -16.7081   20.2959 N   0  0  0  0  0  0  0  0  0  0  0  0
    9.1221  -16.3177   22.5545 C   0  0  0  0  0  0  0  0  0  0  0  0
    8.0679  -16.7836   23.0899 O   0  0  0  0  0  0  0  0  0  0  0  0
   10.4730  -14.0051   30.6213 O   0  0  0  0  0  0  0  0  0  0  0  0
   10.4257  -14.1897   29.2591 C   0  0  0  0  0  0  0  0  0  0  0  0
   11.2716  -15.1462   28.7194 C   0  0  0  0  0  0  0  0  0  0  0  0
   11.2494  -15.3561   27.3595 C   0  0  0  0  0  0  0  0  0  0  0  0
   10.3998  -14.6251   26.5581 C   0  0  0  0  0  0  0  0  0  0  0  0
   10.4028  -14.8736   25.1202 C   0  0  0  0  0  0  0  0  0  0  0  0
   10.5328  -16.2863   24.6814 C   0  0  2  0  0  0  0  0  0  0  0  0
   10.3378  -16.4595   23.2623 N   0  0  0  0  0  0  0  0  0  0  0  0
    9.8630  -17.2879   25.5301 C   0  0  0  0  0  0  0  0  0  0  0  0
    8.5826  -17.3466   25.5736 O   0  0  0  0  0  0  0  0  0  0  0  0
    9.5700  -13.6853   27.0960 C   0  0  0  0  0  0  0  0  0  0  0  0
    9.5828  -13.4660   28.4552 C   0  0  0  0  0  0  0  0  0  0  0  0
   10.4976  -18.2213   26.3322 O   0  0  0  0  0  0  0  0  0  0  0  0
  2  1  1  6
  3  4  1  0
  3  2  1  0
  4  8  1  0
  4  5  2  0
  5  6  1  0
  7  6  1  0
  8  7  2  0
  9 16  1  0
  9  2  1  0
 10  9  2  0
 11 12  1  0
 13 12  1  0
 13 15  1  0
 13 14  1  1
 15 16  1  6
 17 15  1  0
 18 17  2  0
 20 19  1  0
 20 30  2  0
 21 20  1  0
 22 21  2  0
 22 23  1  0
 23 29  2  0
 24 23  1  0
 25 26  1  0
 25 24  1  1
 26 17  1  0
 27 25  1  0
 28 27  2  0
 29 30  1  0
 31 27  1  0
M  END
$$$$
