HIY.pdb
     RDKit          3D

 31 32  0  0  1  0  0  0  0  0999 V2000
    8.4807  -18.8705   17.7271 N   0  0  0  0  0  0  0  0  0  0  0  0
    8.4609  -18.7084   19.1654 C   0  0  1  0  0  0  0  0  0  0  0  0
    9.3504  -19.7843   19.7446 C   0  0  0  0  0  0  0  0  0  0  0  0
    8.6811  -21.0873   19.4786 C   0  0  0  0  0  0  0  0  0  0  0  0
    7.5685  -21.6031   20.1405 C   0  0  0  0  0  0  0  0  0  0  0  0
    7.2393  -22.8002   19.6379 N   0  0  0  0  0  0  0  0  0  0  0  0
    8.1422  -23.0446   18.6575 C   0  0  0  0  0  0  0  0  0  0  0  0
    9.0072  -22.0154   18.5629 N   0  0  0  0  0  0  0  0  0  0  0  0
    8.9758  -17.3547   19.4856 C   0  0  0  0  0  0  0  0  0  0  0  0
    9.3850  -16.5687   18.5778 O   0  0  0  0  0  0  0  0  0  0  0  0
    7.1482  -12.5024   19.9715 C   0  0  0  0  0  0  0  0  0  0  0  0
    8.2938  -13.2036   20.6097 C   0  0  0  0  0  0  0  0  0  0  0  0
    8.2895  -14.6749   20.4651 C   0  0  2  0  0  0  0  0  0  0  0  0
    6.9398  -15.2616   20.9012 C   0  0  0  0  0  0  0  0  0  0  0  0
    9.3559  -15.4617   21.1244 C   0  0  2  0  0  0  0  0  0  0  0  0
    9.0339  -16.8806   20.8092 N   0  0  0  0  0  0  0  0  0  0  0  0
    9.3349  -15.3960   22.6271 C   0  0  0  0  0  0  0  0  0  0  0  0
    8.2724  -15.7012   23.2538 O   0  0  0  0  0  0  0  0  0  0  0  0
   10.4726  -15.4477   31.1472 O   0  0  0  0  0  0  0  0  0  0  0  0
   10.2616  -15.2821   29.7982 C   0  0  0  0  0  0  0  0  0  0  0  0
    9.9399  -16.4127   29.0635 C   0  0  0  0  0  0  0  0  0  0  0  0
    9.7224  -16.2820   27.7110 C   0  0  0  0  0  0  0  0  0  0  0  0
    9.8247  -15.0475   27.1075 C   0  0  0  0  0  0  0  0  0  0  0  0
    9.5878  -14.9456   25.6713 C   0  0  0  0  0  0  0  0  0  0  0  0
   10.7111  -15.3207   24.7754 C   0  0  2  0  0  0  0  0  0  0  0  0
   10.4602  -15.0069   23.3896 N   0  0  0  0  0  0  0  0  0  0  0  0
   11.3118  -16.6447   25.0164 C   0  0  0  0  0  0  0  0  0  0  0  0
   10.7198  -17.7074   24.6100 O   0  0  0  0  0  0  0  0  0  0  0  0
   10.1418  -13.9390   27.8367 C   0  0  0  0  0  0  0  0  0  0  0  0
   10.3617  -14.0566   29.1908 C   0  0  0  0  0  0  0  0  0  0  0  0
   12.5082  -16.8818   25.6721 O   0  0  0  0  0  0  0  0  0  0  0  0
  2  1  1  6
  3  4  1  0
  3  2  1  0
  4  8  1  0
  4  5  2  0
  5  6  1  0
  7  6  1  0
  8  7  2  0
  9 16  1  0
  9  2  1  0
 10  9  2  0
 11 12  1  0
 13 12  1  0
 13 15  1  0
 13 14  1  1
 15 16  1  1
 17 15  1  0
 18 17  2  0
 20 19  1  0
 20 30  2  0
 21 20  1  0
 22 21  2  0
 22 23  1  0
 23 29  2  0
 24 23  1  0
 25 26  1  0
 25 24  1  1
 26 17  1  0
 27 25  1  0
 28 27  2  0
 29 30  1  0
 31 27  1  0
M  END
$$$$
