HIY.pdb
     RDKit          3D

 31 32  0  0  1  0  0  0  0  0999 V2000
    8.2990  -14.6105   20.5694 N   0  0  0  0  0  0  0  0  0  0  0  0
    8.1610  -15.5812   21.6343 C   0  0  1  0  0  0  0  0  0  0  0  0
    8.9033  -16.8239   21.1996 C   0  0  0  0  0  0  0  0  0  0  0  0
    8.1609  -17.3862   20.0381 C   0  0  0  0  0  0  0  0  0  0  0  0
    6.7784  -17.5091   19.9131 C   0  0  0  0  0  0  0  0  0  0  0  0
    6.4631  -18.0593   18.7333 N   0  0  0  0  0  0  0  0  0  0  0  0
    7.6444  -18.2858   18.1095 C   0  0  0  0  0  0  0  0  0  0  0  0
    8.6629  -17.8813   18.8940 N   0  0  0  0  0  0  0  0  0  0  0  0
    8.7528  -15.0043   22.8660 C   0  0  0  0  0  0  0  0  0  0  0  0
    9.1939  -13.8152   22.8960 O   0  0  0  0  0  0  0  0  0  0  0  0
    6.7591  -12.0558   25.2203 C   0  0  0  0  0  0  0  0  0  0  0  0
    7.8337  -12.9877   24.7866 C   0  0  0  0  0  0  0  0  0  0  0  0
    7.9736  -14.2105   25.6057 C   0  0  2  0  0  0  0  0  0  0  0  0
    7.9465  -13.8701   27.1022 C   0  0  0  0  0  0  0  0  0  0  0  0
    9.1309  -15.1022   25.3683 C   0  0  2  0  0  0  0  0  0  0  0  0
    8.8521  -15.7483   24.0563 N   0  0  0  0  0  0  0  0  0  0  0  0
    9.2386  -16.2483   26.3366 C   0  0  0  0  0  0  0  0  0  0  0  0
    8.2213  -16.9749   26.5647 O   0  0  0  0  0  0  0  0  0  0  0  0
   12.1742  -19.5916   21.9136 O   0  0  0  0  0  0  0  0  0  0  0  0
   12.1166  -19.2938   23.2552 C   0  0  0  0  0  0  0  0  0  0  0  0
   11.4204  -20.1728   24.0702 C   0  0  0  0  0  0  0  0  0  0  0  0
   11.3434  -19.9044   25.4177 C   0  0  0  0  0  0  0  0  0  0  0  0
   11.9496  -18.7815   25.9376 C   0  0  0  0  0  0  0  0  0  0  0  0
   11.8476  -18.5278   27.3709 C   0  0  0  0  0  0  0  0  0  0  0  0
   10.6849  -17.7272   27.8318 C   0  0  2  0  0  0  0  0  0  0  0  0
   10.4382  -16.5635   27.0153 N   0  0  0  0  0  0  0  0  0  0  0  0
   10.5959  -17.4998   29.2852 C   0  0  0  0  0  0  0  0  0  0  0  0
   10.4478  -16.3123   29.7463 O   0  0  0  0  0  0  0  0  0  0  0  0
   12.6332  -17.9207   25.1296 C   0  0  0  0  0  0  0  0  0  0  0  0
   12.7175  -18.1783   23.7797 C   0  0  0  0  0  0  0  0  0  0  0  0
   10.6615  -18.4794   30.2617 O   0  0  0  0  0  0  0  0  0  0  0  0
  2  1  1  6
  3  4  1  0
  3  2  1  0
  4  8  1  0
  4  5  2  0
  5  6  1  0
  7  6  1  0
  8  7  2  0
  9 16  1  0
  9  2  1  0
 10  9  2  0
 11 12  1  0
 13 12  1  0
 13 15  1  0
 13 14  1  1
 15 16  1  6
 17 15  1  0
 18 17  2  0
 20 19  1  0
 20 30  2  0
 21 20  1  0
 22 21  2  0
 22 23  1  0
 23 29  2  0
 24 23  1  0
 25 26  1  0
 25 24  1  1
 26 17  1  0
 27 25  1  0
 28 27  2  0
 29 30  1  0
 31 27  1  0
M  END
$$$$
