HIY.pdb
     RDKit          3D

 31 32  0  0  1  0  0  0  0  0999 V2000
    8.5988  -12.5930   19.4166 N   0  0  0  0  0  0  0  0  0  0  0  0
    8.1844  -13.7818   20.1311 C   0  0  1  0  0  0  0  0  0  0  0  0
    8.7516  -14.9673   19.3847 C   0  0  0  0  0  0  0  0  0  0  0  0
    7.9972  -15.0734   18.1056 C   0  0  0  0  0  0  0  0  0  0  0  0
    7.3316  -14.0440   17.4428 C   0  0  0  0  0  0  0  0  0  0  0  0
    6.7621  -14.5024   16.3205 N   0  0  0  0  0  0  0  0  0  0  0  0
    7.0658  -15.8220   16.2705 C   0  0  0  0  0  0  0  0  0  0  0  0
    7.8074  -16.1635   17.3428 N   0  0  0  0  0  0  0  0  0  0  0  0
    8.7256  -13.7051   21.5100 C   0  0  0  0  0  0  0  0  0  0  0  0
    9.8906  -13.2597   21.7416 O   0  0  0  0  0  0  0  0  0  0  0  0
    5.3890  -12.1263   25.3944 C   0  0  0  0  0  0  0  0  0  0  0  0
    6.6540  -12.3288   24.6393 C   0  0  0  0  0  0  0  0  0  0  0  0
    7.2928  -13.6490   24.8257 C   0  0  2  0  0  0  0  0  0  0  0  0
    7.6519  -13.8774   26.3004 C   0  0  0  0  0  0  0  0  0  0  0  0
    8.4838  -13.9884   24.0151 C   0  0  2  0  0  0  0  0  0  0  0  0
    7.9727  -14.1224   22.6232 N   0  0  0  0  0  0  0  0  0  0  0  0
    9.0827  -15.3325   24.3269 C   0  0  0  0  0  0  0  0  0  0  0  0
    8.5336  -16.3848   23.8731 O   0  0  0  0  0  0  0  0  0  0  0  0
   10.6220  -15.4493   31.6859 O   0  0  0  0  0  0  0  0  0  0  0  0
   10.9631  -15.6812   30.3738 C   0  0  0  0  0  0  0  0  0  0  0  0
   11.2507  -16.9890   30.0153 C   0  0  0  0  0  0  0  0  0  0  0  0
   11.5957  -17.2557   28.7101 C   0  0  0  0  0  0  0  0  0  0  0  0
   11.6516  -16.2364   27.7847 C   0  0  0  0  0  0  0  0  0  0  0  0
   12.0212  -16.5551   26.4096 C   0  0  0  0  0  0  0  0  0  0  0  0
   10.9124  -16.7241   25.4363 C   0  0  2  0  0  0  0  0  0  0  0  0
   10.2487  -15.4846   25.1121 N   0  0  0  0  0  0  0  0  0  0  0  0
   10.0150  -17.8683   25.6756 C   0  0  0  0  0  0  0  0  0  0  0  0
   10.4465  -19.0684   25.5398 O   0  0  0  0  0  0  0  0  0  0  0  0
   11.3672  -14.9515   28.1445 C   0  0  0  0  0  0  0  0  0  0  0  0
   11.0208  -14.6718   29.4473 C   0  0  0  0  0  0  0  0  0  0  0  0
    8.6837  -17.7869   26.0478 O   0  0  0  0  0  0  0  0  0  0  0  0
  2  1  1  6
  3  4  1  0
  3  2  1  0
  4  8  1  0
  4  5  2  0
  5  6  1  0
  7  6  1  0
  8  7  2  0
  9 16  1  0
  9  2  1  0
 10  9  2  0
 11 12  1  0
 13 12  1  0
 13 15  1  0
 13 14  1  1
 15 16  1  6
 17 15  1  0
 18 17  2  0
 20 19  1  0
 20 30  2  0
 21 20  1  0
 22 21  2  0
 22 23  1  0
 23 29  2  0
 24 23  1  0
 25 26  1  0
 25 24  1  1
 26 17  1  0
 27 25  1  0
 28 27  2  0
 29 30  1  0
 31 27  1  0
M  END
$$$$
