HIY.pdb
     RDKit          3D

 31 32  0  0  1  0  0  0  0  0999 V2000
    9.0104  -18.6589   18.4430 N   0  0  0  0  0  0  0  0  0  0  0  0
    8.3392  -18.2132   19.6455 C   0  0  1  0  0  0  0  0  0  0  0  0
    8.4425  -19.3357   20.6523 C   0  0  0  0  0  0  0  0  0  0  0  0
    7.5313  -20.4176   20.1878 C   0  0  0  0  0  0  0  0  0  0  0  0
    6.6868  -20.3775   19.0800 C   0  0  0  0  0  0  0  0  0  0  0  0
    6.0126  -21.5291   18.9645 N   0  0  0  0  0  0  0  0  0  0  0  0
    6.4286  -22.3001   19.9983 C   0  0  0  0  0  0  0  0  0  0  0  0
    7.3404  -21.6315   20.7318 N   0  0  0  0  0  0  0  0  0  0  0  0
    9.0235  -16.9902   20.1312 C   0  0  0  0  0  0  0  0  0  0  0  0
   10.2360  -16.7505   19.8451 O   0  0  0  0  0  0  0  0  0  0  0  0
    7.3959  -12.4149   18.8350 C   0  0  0  0  0  0  0  0  0  0  0  0
    8.2885  -13.4877   19.3485 C   0  0  0  0  0  0  0  0  0  0  0  0
    8.2465  -13.6934   20.8119 C   0  0  2  0  0  0  0  0  0  0  0  0
    8.6241  -12.4043   21.5546 C   0  0  0  0  0  0  0  0  0  0  0  0
    9.0337  -14.7994   21.4018 C   0  0  2  0  0  0  0  0  0  0  0  0
    8.3604  -16.0408   20.9307 N   0  0  0  0  0  0  0  0  0  0  0  0
    8.9621  -14.8788   22.9023 C   0  0  0  0  0  0  0  0  0  0  0  0
    8.2295  -14.0594   23.5398 O   0  0  0  0  0  0  0  0  0  0  0  0
    5.4147  -11.5208   26.7398 O   0  0  0  0  0  0  0  0  0  0  0  0
    6.1092  -12.6666   26.4288 C   0  0  0  0  0  0  0  0  0  0  0  0
    5.3662  -13.7785   26.0638 C   0  0  0  0  0  0  0  0  0  0  0  0
    6.0300  -14.9414   25.7463 C   0  0  0  0  0  0  0  0  0  0  0  0
    7.4062  -14.9902   25.7930 C   0  0  0  0  0  0  0  0  0  0  0  0
    8.0772  -16.2397   25.4501 C   0  0  0  0  0  0  0  0  0  0  0  0
    9.5040  -16.1496   25.0485 C   0  0  2  0  0  0  0  0  0  0  0  0
    9.6810  -15.8393   23.6505 N   0  0  0  0  0  0  0  0  0  0  0  0
   10.3871  -17.2083   25.5692 C   0  0  0  0  0  0  0  0  0  0  0  0
   10.6312  -17.2870   26.8259 O   0  0  0  0  0  0  0  0  0  0  0  0
    8.1311  -13.8919   26.1530 C   0  0  0  0  0  0  0  0  0  0  0  0
    7.4787  -12.7225   26.4730 C   0  0  0  0  0  0  0  0  0  0  0  0
   11.0200  -18.1783   24.8103 O   0  0  0  0  0  0  0  0  0  0  0  0
  2  1  1  6
  3  4  1  0
  3  2  1  0
  4  8  1  0
  4  5  2  0
  5  6  1  0
  7  6  1  0
  8  7  2  0
  9 16  1  0
  9  2  1  0
 10  9  2  0
 11 12  1  0
 13 12  1  0
 13 15  1  0
 13 14  1  1
 15 16  1  6
 17 15  1  0
 18 17  2  0
 20 19  1  0
 20 30  2  0
 21 20  1  0
 22 21  2  0
 22 23  1  0
 23 29  2  0
 24 23  1  0
 25 26  1  0
 25 24  1  6
 26 17  1  0
 27 25  1  0
 28 27  2  0
 29 30  1  0
 31 27  1  0
M  END
$$$$
