HIY.pdb
     RDKit          3D

 31 32  0  0  1  0  0  0  0  0999 V2000
    9.9311  -17.9436   17.4694 N   0  0  0  0  0  0  0  0  0  0  0  0
    9.1964  -17.9265   18.7165 C   0  0  1  0  0  0  0  0  0  0  0  0
    9.5686  -19.1844   19.4670 C   0  0  0  0  0  0  0  0  0  0  0  0
    8.6008  -20.2370   19.0524 C   0  0  0  0  0  0  0  0  0  0  0  0
    7.5913  -20.1123   18.0999 C   0  0  0  0  0  0  0  0  0  0  0  0
    6.9131  -21.2616   17.9847 N   0  0  0  0  0  0  0  0  0  0  0  0
    7.4915  -22.1157   18.8634 C   0  0  0  0  0  0  0  0  0  0  0  0
    8.5046  -21.4992   19.5038 N   0  0  0  0  0  0  0  0  0  0  0  0
    9.5933  -16.7126   19.4708 C   0  0  0  0  0  0  0  0  0  0  0  0
   10.7451  -16.1973   19.3399 O   0  0  0  0  0  0  0  0  0  0  0  0
    6.3827  -12.4702   19.8223 C   0  0  0  0  0  0  0  0  0  0  0  0
    7.5932  -13.3335   19.7954 C   0  0  0  0  0  0  0  0  0  0  0  0
    7.9365  -13.9748   21.0825 C   0  0  2  0  0  0  0  0  0  0  0  0
    8.0949  -12.9239   22.1900 C   0  0  0  0  0  0  0  0  0  0  0  0
    9.1115  -14.8729   21.1434 C   0  0  2  0  0  0  0  0  0  0  0  0
    8.7118  -16.0776   20.3652 N   0  0  0  0  0  0  0  0  0  0  0  0
    9.4187  -15.3985   22.5189 C   0  0  0  0  0  0  0  0  0  0  0  0
    8.6165  -16.2136   23.0729 O   0  0  0  0  0  0  0  0  0  0  0  0
   10.8019  -15.8701   30.9694 O   0  0  0  0  0  0  0  0  0  0  0  0
   10.5495  -15.6901   29.6293 C   0  0  0  0  0  0  0  0  0  0  0  0
   10.7340  -14.4161   29.1152 C   0  0  0  0  0  0  0  0  0  0  0  0
   10.4903  -14.2016   27.7779 C   0  0  0  0  0  0  0  0  0  0  0  0
   10.0713  -15.2388   26.9735 C   0  0  0  0  0  0  0  0  0  0  0  0
    9.8220  -14.9755   25.5601 C   0  0  0  0  0  0  0  0  0  0  0  0
   10.8900  -15.3641   24.6043 C   0  0  2  0  0  0  0  0  0  0  0  0
   10.5780  -15.0251   23.2370 N   0  0  0  0  0  0  0  0  0  0  0  0
   11.4700  -16.7050   24.7979 C   0  0  0  0  0  0  0  0  0  0  0  0
   12.4512  -16.8749   25.6062 O   0  0  0  0  0  0  0  0  0  0  0  0
    9.8917  -16.4902   27.4863 C   0  0  0  0  0  0  0  0  0  0  0  0
   10.1323  -16.7177   28.8227 C   0  0  0  0  0  0  0  0  0  0  0  0
   11.0525  -17.8647   24.1667 O   0  0  0  0  0  0  0  0  0  0  0  0
  2  1  1  6
  3  4  1  0
  3  2  1  0
  4  8  1  0
  4  5  2  0
  5  6  1  0
  7  6  1  0
  8  7  2  0
  9 16  1  0
  9  2  1  0
 10  9  2  0
 11 12  1  0
 13 12  1  0
 13 15  1  0
 13 14  1  1
 15 16  1  6
 17 15  1  0
 18 17  2  0
 20 19  1  0
 20 30  2  0
 21 20  1  0
 22 21  2  0
 22 23  1  0
 23 29  2  0
 24 23  1  0
 25 26  1  0
 25 24  1  1
 26 17  1  0
 27 25  1  0
 28 27  2  0
 29 30  1  0
 31 27  1  0
M  END
$$$$
