HIY.pdb
     RDKit          3D

 31 32  0  0  1  0  0  0  0  0999 V2000
   10.0710  -17.6512   17.2059 N   0  0  0  0  0  0  0  0  0  0  0  0
    9.4618  -18.0651   18.4521 C   0  0  1  0  0  0  0  0  0  0  0  0
   10.1801  -19.3165   18.9020 C   0  0  0  0  0  0  0  0  0  0  0  0
    9.6374  -20.4410   18.0912 C   0  0  0  0  0  0  0  0  0  0  0  0
    8.5337  -21.2339   18.3995 C   0  0  0  0  0  0  0  0  0  0  0  0
    8.3346  -22.1499   17.4427 N   0  0  0  0  0  0  0  0  0  0  0  0
    9.3113  -21.9390   16.5274 C   0  0  0  0  0  0  0  0  0  0  0  0
   10.0927  -20.9127   16.9180 N   0  0  0  0  0  0  0  0  0  0  0  0
    9.6273  -16.9669   19.4352 C   0  0  0  0  0  0  0  0  0  0  0  0
   10.7721  -16.5053   19.7278 O   0  0  0  0  0  0  0  0  0  0  0  0
    7.9689  -12.6084   19.4712 C   0  0  0  0  0  0  0  0  0  0  0  0
    7.1021  -13.7846   19.7477 C   0  0  0  0  0  0  0  0  0  0  0  0
    7.4163  -14.5182   20.9923 C   0  0  2  0  0  0  0  0  0  0  0  0
    7.3594  -13.5810   22.2065 C   0  0  0  0  0  0  0  0  0  0  0  0
    8.6817  -15.2819   21.0725 C   0  0  2  0  0  0  0  0  0  0  0  0
    8.5235  -16.3873   20.0879 N   0  0  0  0  0  0  0  0  0  0  0  0
    8.9026  -15.9781   22.3875 C   0  0  0  0  0  0  0  0  0  0  0  0
    8.0074  -16.7561   22.8438 O   0  0  0  0  0  0  0  0  0  0  0  0
   11.0418  -15.0841   30.8296 O   0  0  0  0  0  0  0  0  0  0  0  0
   10.8775  -14.9667   29.4690 C   0  0  0  0  0  0  0  0  0  0  0  0
   11.7332  -15.6999   28.6617 C   0  0  0  0  0  0  0  0  0  0  0  0
   11.5958  -15.6053   27.2957 C   0  0  0  0  0  0  0  0  0  0  0  0
   10.6239  -14.7952   26.7502 C   0  0  0  0  0  0  0  0  0  0  0  0
   10.5066  -14.7187   25.2978 C   0  0  0  0  0  0  0  0  0  0  0  0
   10.2117  -15.9839   24.5786 C   0  0  2  0  0  0  0  0  0  0  0  0
   10.0793  -15.8080   23.1526 N   0  0  0  0  0  0  0  0  0  0  0  0
    9.1953  -16.8536   25.1969 C   0  0  0  0  0  0  0  0  0  0  0  0
    7.9517  -16.5486   25.1235 O   0  0  0  0  0  0  0  0  0  0  0  0
    9.7851  -14.0763   27.5508 C   0  0  0  0  0  0  0  0  0  0  0  0
    9.9125  -14.1624   28.9190 C   0  0  0  0  0  0  0  0  0  0  0  0
    9.4481  -18.0258   25.8894 O   0  0  0  0  0  0  0  0  0  0  0  0
  2  1  1  6
  3  4  1  0
  3  2  1  0
  4  8  1  0
  4  5  2  0
  5  6  1  0
  7  6  1  0
  8  7  2  0
  9 16  1  0
  9  2  1  0
 10  9  2  0
 11 12  1  0
 13 12  1  0
 13 15  1  0
 13 14  1  1
 15 16  1  6
 17 15  1  0
 18 17  2  0
 20 19  1  0
 20 30  2  0
 21 20  1  0
 22 21  2  0
 22 23  1  0
 23 29  2  0
 24 23  1  0
 25 26  1  0
 25 24  1  1
 26 17  1  0
 27 25  1  0
 28 27  2  0
 29 30  1  0
 31 27  1  0
M  END
$$$$
