HIY.pdb
     RDKit          3D

 31 32  0  0  1  0  0  0  0  0999 V2000
    8.9655  -15.7088   20.5627 N   0  0  0  0  0  0  0  0  0  0  0  0
    8.1101  -16.0074   21.6916 C   0  0  1  0  0  0  0  0  0  0  0  0
    8.0272  -17.5127   21.7985 C   0  0  0  0  0  0  0  0  0  0  0  0
    7.1905  -17.9810   20.6596 C   0  0  0  0  0  0  0  0  0  0  0  0
    6.6568  -17.1959   19.6395 C   0  0  0  0  0  0  0  0  0  0  0  0
    5.9563  -17.9530   18.7850 N   0  0  0  0  0  0  0  0  0  0  0  0
    6.0450  -19.2182   19.2621 C   0  0  0  0  0  0  0  0  0  0  0  0
    6.7863  -19.2335   20.3876 N   0  0  0  0  0  0  0  0  0  0  0  0
    8.7225  -15.4148   22.9057 C   0  0  0  0  0  0  0  0  0  0  0  0
    9.9812  -15.3366   23.0431 O   0  0  0  0  0  0  0  0  0  0  0  0
    5.8648  -11.6495   25.6079 C   0  0  0  0  0  0  0  0  0  0  0  0
    7.0313  -12.3662   25.0274 C   0  0  0  0  0  0  0  0  0  0  0  0
    7.5109  -13.5244   25.8111 C   0  0  2  0  0  0  0  0  0  0  0  0
    8.0117  -13.0785   27.1918 C   0  0  0  0  0  0  0  0  0  0  0  0
    8.5418  -14.4088   25.2228 C   0  0  2  0  0  0  0  0  0  0  0  0
    7.9365  -14.9129   23.9595 N   0  0  0  0  0  0  0  0  0  0  0  0
    8.8248  -15.6492   26.0254 C   0  0  0  0  0  0  0  0  0  0  0  0
    7.9228  -16.5355   26.1499 O   0  0  0  0  0  0  0  0  0  0  0  0
   16.2375  -15.7408   24.9913 O   0  0  0  0  0  0  0  0  0  0  0  0
   15.0541  -16.2940   25.4219 C   0  0  0  0  0  0  0  0  0  0  0  0
   13.9943  -16.2984   24.5284 C   0  0  0  0  0  0  0  0  0  0  0  0
   12.7959  -16.8444   24.9275 C   0  0  0  0  0  0  0  0  0  0  0  0
   12.6613  -17.3741   26.1923 C   0  0  0  0  0  0  0  0  0  0  0  0
   11.3762  -17.9448   26.5821 C   0  0  0  0  0  0  0  0  0  0  0  0
   10.4633  -17.0747   27.3662 C   0  0  2  0  0  0  0  0  0  0  0  0
   10.0682  -15.8820   26.6569 N   0  0  0  0  0  0  0  0  0  0  0  0
   10.8270  -16.8685   28.7794 C   0  0  0  0  0  0  0  0  0  0  0  0
   10.8769  -15.6839   29.2683 O   0  0  0  0  0  0  0  0  0  0  0  0
   13.7086  -17.3665   27.0666 C   0  0  0  0  0  0  0  0  0  0  0  0
   14.9128  -16.8230   26.6792 C   0  0  0  0  0  0  0  0  0  0  0  0
   11.1417  -17.8663   29.6866 O   0  0  0  0  0  0  0  0  0  0  0  0
  2  1  1  6
  3  4  1  0
  3  2  1  0
  4  8  1  0
  4  5  2  0
  5  6  1  0
  7  6  1  0
  8  7  2  0
  9 16  1  0
  9  2  1  0
 10  9  2  0
 11 12  1  0
 13 12  1  0
 13 15  1  0
 13 14  1  1
 15 16  1  6
 17 15  1  0
 18 17  2  0
 20 19  1  0
 20 30  2  0
 21 20  1  0
 22 21  2  0
 22 23  1  0
 23 29  2  0
 24 23  1  0
 25 26  1  0
 25 24  1  6
 26 17  1  0
 27 25  1  0
 28 27  2  0
 29 30  1  0
 31 27  1  0
M  END
$$$$
