HIY.pdb
     RDKit          3D

 31 32  0  0  1  0  0  0  0  0999 V2000
    9.4012  -14.7756   20.5029 N   0  0  0  0  0  0  0  0  0  0  0  0
    8.3442  -15.1560   21.4158 C   0  0  1  0  0  0  0  0  0  0  0  0
    8.0412  -16.6143   21.1595 C   0  0  0  0  0  0  0  0  0  0  0  0
    7.4634  -16.7010   19.7901 C   0  0  0  0  0  0  0  0  0  0  0  0
    7.4068  -15.6801   18.8433 C   0  0  0  0  0  0  0  0  0  0  0  0
    6.8180  -16.1153   17.7217 N   0  0  0  0  0  0  0  0  0  0  0  0
    6.5009  -17.4117   17.9559 C   0  0  0  0  0  0  0  0  0  0  0  0
    6.8890  -17.7621   19.1981 N   0  0  0  0  0  0  0  0  0  0  0  0
    8.8301  -14.9429   22.8009 C   0  0  0  0  0  0  0  0  0  0  0  0
   10.0618  -15.0284   23.0924 O   0  0  0  0  0  0  0  0  0  0  0  0
    6.0956  -11.5092   26.0192 C   0  0  0  0  0  0  0  0  0  0  0  0
    7.2547  -12.2430   25.4453 C   0  0  0  0  0  0  0  0  0  0  0  0
    7.4119  -13.6359   25.9152 C   0  0  2  0  0  0  0  0  0  0  0  0
    7.6760  -13.6747   27.4267 C   0  0  0  0  0  0  0  0  0  0  0  0
    8.4176  -14.5026   25.2606 C   0  0  2  0  0  0  0  0  0  0  0  0
    7.9484  -14.6365   23.8540 N   0  0  0  0  0  0  0  0  0  0  0  0
    8.4523  -15.9133   25.7815 C   0  0  0  0  0  0  0  0  0  0  0  0
    7.6140  -16.7636   25.3468 O   0  0  0  0  0  0  0  0  0  0  0  0
   14.3243  -17.8203   22.7659 O   0  0  0  0  0  0  0  0  0  0  0  0
   13.2435  -18.0258   23.5915 C   0  0  0  0  0  0  0  0  0  0  0  0
   11.9831  -17.9031   23.0278 C   0  0  0  0  0  0  0  0  0  0  0  0
   10.8800  -18.1024   23.8261 C   0  0  0  0  0  0  0  0  0  0  0  0
   11.0352  -18.4174   25.1585 C   0  0  0  0  0  0  0  0  0  0  0  0
    9.8437  -18.6217   25.9756 C   0  0  0  0  0  0  0  0  0  0  0  0
    9.6575  -17.7113   27.1340 C   0  0  2  0  0  0  0  0  0  0  0  0
    9.3904  -16.3475   26.7461 N   0  0  0  0  0  0  0  0  0  0  0  0
   10.6216  -17.8688   28.2375 C   0  0  0  0  0  0  0  0  0  0  0  0
   10.8937  -19.0347   28.6973 O   0  0  0  0  0  0  0  0  0  0  0  0
   12.2788  -18.5366   25.7066 C   0  0  0  0  0  0  0  0  0  0  0  0
   13.3903  -18.3396   24.9184 C   0  0  0  0  0  0  0  0  0  0  0  0
   11.3006  -16.8410   28.8699 O   0  0  0  0  0  0  0  0  0  0  0  0
  2  1  1  6
  3  4  1  0
  3  2  1  0
  4  8  1  0
  4  5  2  0
  5  6  1  0
  7  6  1  0
  8  7  2  0
  9 16  1  0
  9  2  1  0
 10  9  2  0
 11 12  1  0
 13 12  1  0
 13 15  1  0
 13 14  1  1
 15 16  1  6
 17 15  1  0
 18 17  2  0
 20 19  1  0
 20 30  2  0
 21 20  1  0
 22 21  2  0
 22 23  1  0
 23 29  2  0
 24 23  1  0
 25 26  1  0
 25 24  1  6
 26 17  1  0
 27 25  1  0
 28 27  2  0
 29 30  1  0
 31 27  1  0
M  END
$$$$
