HIY.pdb
     RDKit          3D

 31 32  0  0  1  0  0  0  0  0999 V2000
    7.7505  -16.8282   21.5849 N   0  0  0  0  0  0  0  0  0  0  0  0
    8.4798  -15.7031   21.0395 C   0  0  1  0  0  0  0  0  0  0  0  0
    7.5998  -15.0747   19.9836 C   0  0  0  0  0  0  0  0  0  0  0  0
    7.5153  -16.0456   18.8581 C   0  0  0  0  0  0  0  0  0  0  0  0
    8.5708  -16.5046   18.0726 C   0  0  0  0  0  0  0  0  0  0  0  0
    8.1264  -17.3713   17.1531 N   0  0  0  0  0  0  0  0  0  0  0  0
    6.7895  -17.4626   17.3545 C   0  0  0  0  0  0  0  0  0  0  0  0
    6.4240  -16.6662   18.3785 N   0  0  0  0  0  0  0  0  0  0  0  0
    8.7576  -14.7525   22.1437 C   0  0  0  0  0  0  0  0  0  0  0  0
    9.4055  -13.6795   21.9482 O   0  0  0  0  0  0  0  0  0  0  0  0
    6.1817  -12.2693   26.8400 C   0  0  0  0  0  0  0  0  0  0  0  0
    7.5029  -12.7507   26.3560 C   0  0  0  0  0  0  0  0  0  0  0  0
    7.4545  -13.6334   25.1710 C   0  0  2  0  0  0  0  0  0  0  0  0
    6.5505  -14.8462   25.4312 C   0  0  0  0  0  0  0  0  0  0  0  0
    8.7249  -14.1338   24.5993 C   0  0  2  0  0  0  0  0  0  0  0  0
    8.3158  -14.9968   23.4573 N   0  0  0  0  0  0  0  0  0  0  0  0
    9.4937  -15.0528   25.5088 C   0  0  0  0  0  0  0  0  0  0  0  0
    9.0437  -15.3079   26.6695 O   0  0  0  0  0  0  0  0  0  0  0  0
    9.0260  -20.1200   30.5872 O   0  0  0  0  0  0  0  0  0  0  0  0
    9.2654  -19.6254   29.3263 C   0  0  0  0  0  0  0  0  0  0  0  0
    9.8847  -18.3883   29.2379 C   0  0  0  0  0  0  0  0  0  0  0  0
   10.1390  -17.8644   27.9911 C   0  0  0  0  0  0  0  0  0  0  0  0
    9.7814  -18.5628   26.8584 C   0  0  0  0  0  0  0  0  0  0  0  0
   10.0659  -17.9771   25.5526 C   0  0  0  0  0  0  0  0  0  0  0  0
   11.1655  -16.9813   25.4865 C   0  0  2  0  0  0  0  0  0  0  0  0
   10.7126  -15.6593   25.1273 N   0  0  0  0  0  0  0  0  0  0  0  0
   12.3957  -17.4254   24.8071 C   0  0  0  0  0  0  0  0  0  0  0  0
   12.7107  -16.9451   23.6604 O   0  0  0  0  0  0  0  0  0  0  0  0
    9.1721  -19.7797   26.9529 C   0  0  0  0  0  0  0  0  0  0  0  0
    8.9123  -20.3148   28.1946 C   0  0  0  0  0  0  0  0  0  0  0  0
   13.2964  -18.3573   25.2946 O   0  0  0  0  0  0  0  0  0  0  0  0
  2  1  1  1
  3  4  1  0
  3  2  1  0
  4  8  1  0
  4  5  2  0
  5  6  1  0
  7  6  1  0
  8  7  2  0
  9 16  1  0
  9  2  1  0
 10  9  2  0
 11 12  1  0
 13 12  1  0
 13 15  1  0
 13 14  1  1
 15 16  1  6
 17 15  1  0
 18 17  2  0
 20 19  1  0
 20 30  2  0
 21 20  1  0
 22 21  2  0
 22 23  1  0
 23 29  2  0
 24 23  1  0
 25 26  1  0
 25 24  1  6
 26 17  1  0
 27 25  1  0
 28 27  2  0
 29 30  1  0
 31 27  1  0
M  END
$$$$
