KHW.pdb
     RDKit          3D

 34 36  0  0  1  0  0  0  0  0999 V2000
   29.3816  -23.5944  -17.4709 N   0  0  0  0  0  0  0  0  0  0  0  0
   27.9923  -23.0965  -17.4324 C   0  0  1  0  0  0  0  0  0  0  0  0
   27.0345  -24.2291  -17.3369 C   0  0  0  0  0  0  0  0  0  0  0  0
   27.4180  -25.4572  -18.0372 C   0  0  0  0  0  0  0  0  0  0  0  0
   26.4741  -26.3100  -18.7610 C   0  0  0  0  0  0  0  0  0  0  0  0
   26.9596  -27.4670  -19.5573 C   0  0  0  0  0  0  0  0  0  0  0  0
   25.7303  -28.0396  -20.1828 N   0  0  0  0  0  0  0  0  0  0  0  0
   27.8618  -22.2150  -16.2041 C   0  0  0  0  0  0  0  0  0  0  0  0
   28.6219  -22.4317  -15.2343 O   0  0  0  0  0  0  0  0  0  0  0  0
   26.9161  -21.1637  -16.1205 N   0  0  0  0  0  0  0  0  0  0  0  0
   26.7842  -20.3106  -14.9752 C   0  0  1  0  0  0  0  0  0  0  0  0
   26.7086  -18.8464  -15.3350 C   0  0  0  0  0  0  0  0  0  0  0  0
   27.9535  -18.3205  -15.9398 C   0  0  0  0  0  0  0  0  0  0  0  0
   29.0706  -19.1184  -16.0648 C   0  0  0  0  0  0  0  0  0  0  0  0
   30.0286  -18.3751  -16.6415 N   0  0  0  0  0  0  0  0  0  0  0  0
   29.5273  -17.1506  -16.8705 C   0  0  0  0  0  0  0  0  0  0  0  0
   28.2591  -17.1374  -16.4350 N   0  0  0  0  0  0  0  0  0  0  0  0
   25.6496  -20.7122  -14.0932 C   0  0  0  0  0  0  0  0  0  0  0  0
   24.4765  -20.8222  -14.5233 O   0  0  0  0  0  0  0  0  0  0  0  0
   25.8232  -20.9978  -12.7034 N   0  0  0  0  0  0  0  0  0  0  0  0
   24.8176  -21.3453  -11.7751 C   0  0  1  0  0  0  0  0  0  0  0  0
   25.2279  -21.8272  -10.4378 C   0  0  0  0  0  0  0  0  0  0  0  0
   26.0747  -20.9138   -9.6542 C   0  0  0  0  0  0  0  0  0  0  0  0
   25.7483  -19.8296   -8.8706 C   0  0  0  0  0  0  0  0  0  0  0  0
   26.8859  -19.3024   -8.3577 N   0  0  0  0  0  0  0  0  0  0  0  0
   27.9505  -20.0067   -8.7799 C   0  0  0  0  0  0  0  0  0  0  0  0
   29.3119  -19.9160   -8.5733 C   0  0  0  0  0  0  0  0  0  0  0  0
   30.2166  -20.7945   -9.1436 C   0  0  0  0  0  0  0  0  0  0  0  0
   29.6994  -21.7996   -9.9535 C   0  0  0  0  0  0  0  0  0  0  0  0
   28.3550  -21.8865  -10.1553 C   0  0  0  0  0  0  0  0  0  0  0  0
   27.4478  -21.0097   -9.5868 C   0  0  0  0  0  0  0  0  0  0  0  0
   23.7898  -20.2897  -11.5798 C   0  0  0  0  0  0  0  0  0  0  0  0
   24.0518  -19.1210  -11.9187 O   0  0  0  0  0  0  0  0  0  0  0  0
   22.5758  -20.5984  -11.0338 O   0  0  0  0  0  0  0  0  0  0  0  0
  2  1  1  1
  3  2  1  0
  4  3  1  0
  5  4  1  0
  6  5  1  0
  6  7  1  0
  8  9  2  0
  8  2  1  0
 10  8  1  0
 11 10  1  0
 11 12  1  6
 12 13  1  0
 13 17  1  0
 13 14  2  0
 14 15  1  0
 16 15  1  0
 17 16  2  0
 18 20  1  0
 18 11  1  0
 19 18  2  0
 21 22  1  1
 21 20  1  0
 22 23  1  0
 23 31  1  0
 24 23  2  0
 24 25  1  0
 25 26  1  0
 26 27  2  0
 27 28  1  0
 29 28  2  0
 30 29  1  0
 31 30  2  0
 31 26  1  0
 32 21  1  0
 32 34  1  0
 33 32  2  0
M  END
$$$$
