KHW.pdb
     RDKit          3D

 34 36  0  0  1  0  0  0  0  0999 V2000
   23.2946  -23.7684  -14.9895 N   0  0  0  0  0  0  0  0  0  0  0  0
   24.3315  -22.7177  -15.0093 C   0  0  1  0  0  0  0  0  0  0  0  0
   25.5427  -23.1933  -15.7276 C   0  0  0  0  0  0  0  0  0  0  0  0
   26.6630  -22.2519  -15.7939 C   0  0  0  0  0  0  0  0  0  0  0  0
   27.8607  -22.4680  -16.6069 C   0  0  0  0  0  0  0  0  0  0  0  0
   28.9981  -23.2650  -16.0782 C   0  0  0  0  0  0  0  0  0  0  0  0
   30.0385  -23.1970  -17.1476 N   0  0  0  0  0  0  0  0  0  0  0  0
   23.7474  -21.5197  -15.7347 C   0  0  0  0  0  0  0  0  0  0  0  0
   23.6420  -21.5731  -16.9802 O   0  0  0  0  0  0  0  0  0  0  0  0
   23.3208  -20.3531  -15.0537 N   0  0  0  0  0  0  0  0  0  0  0  0
   22.7242  -19.2281  -15.7137 C   0  0  1  0  0  0  0  0  0  0  0  0
   21.2788  -19.4588  -16.0835 C   0  0  0  0  0  0  0  0  0  0  0  0
   20.3759  -19.5500  -14.9136 C   0  0  0  0  0  0  0  0  0  0  0  0
   19.9380  -20.7729  -14.4523 C   0  0  0  0  0  0  0  0  0  0  0  0
   19.1438  -20.5388  -13.3952 N   0  0  0  0  0  0  0  0  0  0  0  0
   19.0862  -19.2114  -13.2009 C   0  0  0  0  0  0  0  0  0  0  0  0
   19.8451  -18.6252  -14.1382 N   0  0  0  0  0  0  0  0  0  0  0  0
   22.8920  -17.9609  -14.9439 C   0  0  0  0  0  0  0  0  0  0  0  0
   22.8013  -17.9227  -13.6935 O   0  0  0  0  0  0  0  0  0  0  0  0
   23.1668  -16.7098  -15.5781 N   0  0  0  0  0  0  0  0  0  0  0  0
   23.5490  -15.5044  -14.9497 C   0  0  1  0  0  0  0  0  0  0  0  0
   24.9375  -15.3759  -14.4553 C   0  0  0  0  0  0  0  0  0  0  0  0
   25.9948  -15.8203  -15.3772 C   0  0  0  0  0  0  0  0  0  0  0  0
   26.5051  -15.2355  -16.5145 C   0  0  0  0  0  0  0  0  0  0  0  0
   27.4688  -16.0390  -17.0251 N   0  0  0  0  0  0  0  0  0  0  0  0
   27.6081  -17.1346  -16.2582 C   0  0  0  0  0  0  0  0  0  0  0  0
   28.4171  -18.2515  -16.3078 C   0  0  0  0  0  0  0  0  0  0  0  0
   28.3567  -19.2630  -15.3652 C   0  0  0  0  0  0  0  0  0  0  0  0
   27.4312  -19.1172  -14.3377 C   0  0  0  0  0  0  0  0  0  0  0  0
   26.6340  -18.0135  -14.2915 C   0  0  0  0  0  0  0  0  0  0  0  0
   26.6918  -17.0004  -15.2325 C   0  0  0  0  0  0  0  0  0  0  0  0
   23.2374  -14.2878  -15.7444 C   0  0  0  0  0  0  0  0  0  0  0  0
   22.9207  -14.4127  -16.9418 O   0  0  0  0  0  0  0  0  0  0  0  0
   23.3003  -13.0502  -15.1687 O   0  0  0  0  0  0  0  0  0  0  0  0
  2  1  1  6
  3  2  1  0
  4  3  1  0
  5  4  1  0
  6  5  1  0
  6  7  1  0
  8  9  2  0
  8  2  1  0
 10  8  1  0
 11 10  1  0
 11 12  1  1
 12 13  1  0
 13 17  1  0
 13 14  2  0
 14 15  1  0
 16 15  1  0
 17 16  2  0
 18 20  1  0
 18 11  1  0
 19 18  2  0
 21 22  1  6
 21 20  1  0
 22 23  1  0
 23 31  1  0
 24 23  2  0
 24 25  1  0
 25 26  1  0
 26 27  2  0
 27 28  1  0
 29 28  2  0
 30 29  1  0
 31 30  2  0
 31 26  1  0
 32 21  1  0
 32 34  1  0
 33 32  2  0
M  END
$$$$
