KHW.pdb
     RDKit          3D

 34 36  0  0  1  0  0  0  0  0999 V2000
   25.4193  -21.4175  -17.1534 N   0  0  0  0  0  0  0  0  0  0  0  0
   26.7692  -21.1741  -16.6072 C   0  0  1  0  0  0  0  0  0  0  0  0
   27.5044  -20.1951  -17.4500 C   0  0  0  0  0  0  0  0  0  0  0  0
   28.5835  -20.7402  -18.2772 C   0  0  0  0  0  0  0  0  0  0  0  0
   28.4391  -21.9226  -19.1276 C   0  0  0  0  0  0  0  0  0  0  0  0
   29.5874  -22.4209  -19.9286 C   0  0  0  0  0  0  0  0  0  0  0  0
   29.0966  -23.6886  -20.5472 N   0  0  0  0  0  0  0  0  0  0  0  0
   26.5963  -20.6122  -15.2082 C   0  0  0  0  0  0  0  0  0  0  0  0
   27.5569  -19.9994  -14.6916 O   0  0  0  0  0  0  0  0  0  0  0  0
   25.3931  -20.7574  -14.4747 N   0  0  0  0  0  0  0  0  0  0  0  0
   25.1944  -20.2017  -13.1675 C   0  0  1  0  0  0  0  0  0  0  0  0
   23.8826  -19.4671  -13.0313 C   0  0  0  0  0  0  0  0  0  0  0  0
   23.7885  -18.2607  -13.8846 C   0  0  0  0  0  0  0  0  0  0  0  0
   24.8733  -17.8249  -14.6148 C   0  0  0  0  0  0  0  0  0  0  0  0
   24.4891  -16.7241  -15.2808 N   0  0  0  0  0  0  0  0  0  0  0  0
   23.2044  -16.4783  -14.9771 C   0  0  0  0  0  0  0  0  0  0  0  0
   22.7948  -17.4277  -14.1232 N   0  0  0  0  0  0  0  0  0  0  0  0
   25.3639  -21.2153  -12.0856 C   0  0  0  0  0  0  0  0  0  0  0  0
   25.0180  -22.4120  -12.2322 O   0  0  0  0  0  0  0  0  0  0  0  0
   25.9304  -20.8912  -10.8139 N   0  0  0  0  0  0  0  0  0  0  0  0
   25.8704  -21.6657   -9.6347 C   0  0  1  0  0  0  0  0  0  0  0  0
   27.0206  -21.6254   -8.7049 C   0  0  0  0  0  0  0  0  0  0  0  0
   27.1986  -20.3735   -7.9522 C   0  0  0  0  0  0  0  0  0  0  0  0
   26.6336  -19.1295   -8.1231 C   0  0  0  0  0  0  0  0  0  0  0  0
   27.1223  -18.2932   -7.1761 N   0  0  0  0  0  0  0  0  0  0  0  0
   27.9915  -18.9492   -6.3874 C   0  0  0  0  0  0  0  0  0  0  0  0
   28.7624  -18.5973   -5.2982 C   0  0  0  0  0  0  0  0  0  0  0  0
   29.5977  -19.4912   -4.6512 C   0  0  0  0  0  0  0  0  0  0  0  0
   29.6386  -20.7908   -5.1441 C   0  0  0  0  0  0  0  0  0  0  0  0
   28.8764  -21.1350   -6.2194 C   0  0  0  0  0  0  0  0  0  0  0  0
   28.0404  -20.2437   -6.8687 C   0  0  0  0  0  0  0  0  0  0  0  0
   24.6356  -21.4497   -8.8364 C   0  0  0  0  0  0  0  0  0  0  0  0
   23.9304  -20.4514   -9.0722 O   0  0  0  0  0  0  0  0  0  0  0  0
   24.2816  -22.3336   -7.8563 O   0  0  0  0  0  0  0  0  0  0  0  0
  2  1  1  6
  3  2  1  0
  4  3  1  0
  5  4  1  0
  6  5  1  0
  6  7  1  0
  8  9  2  0
  8  2  1  0
 10  8  1  0
 11 10  1  0
 11 12  1  6
 12 13  1  0
 13 17  1  0
 13 14  2  0
 14 15  1  0
 16 15  1  0
 17 16  2  0
 18 20  1  0
 18 11  1  0
 19 18  2  0
 21 22  1  1
 21 20  1  0
 22 23  1  0
 23 31  1  0
 24 23  2  0
 24 25  1  0
 25 26  1  0
 26 27  2  0
 27 28  1  0
 29 28  2  0
 30 29  1  0
 31 30  2  0
 31 26  1  0
 32 21  1  0
 32 34  1  0
 33 32  2  0
M  END
$$$$
