KHW.pdb
     RDKit          3D

 34 36  0  0  1  0  0  0  0  0999 V2000
   45.6450  -11.1516   -9.9492 N   0  0  0  0  0  0  0  0  0  0  0  0
   45.1647  -10.2809   -8.8579 C   0  0  1  0  0  0  0  0  0  0  0  0
   45.8134   -8.9456   -8.9318 C   0  0  0  0  0  0  0  0  0  0  0  0
   46.6842   -8.5899   -7.8089 C   0  0  0  0  0  0  0  0  0  0  0  0
   46.3794   -7.5303   -6.8464 C   0  0  0  0  0  0  0  0  0  0  0  0
   47.3574   -7.1678   -5.7878 C   0  0  0  0  0  0  0  0  0  0  0  0
   46.6911   -6.0790   -5.0125 N   0  0  0  0  0  0  0  0  0  0  0  0
   43.6646  -10.1278   -9.0286 C   0  0  0  0  0  0  0  0  0  0  0  0
   43.1100  -10.7311   -9.9738 O   0  0  0  0  0  0  0  0  0  0  0  0
   42.8786   -9.3315   -8.1598 N   0  0  0  0  0  0  0  0  0  0  0  0
   41.4483   -9.4138   -8.0923 C   0  0  1  0  0  0  0  0  0  0  0  0
   40.9475  -10.8210   -7.8730 C   0  0  0  0  0  0  0  0  0  0  0  0
   39.4893  -10.8987   -7.6275 C   0  0  0  0  0  0  0  0  0  0  0  0
   38.5914  -10.8099   -8.6696 C   0  0  0  0  0  0  0  0  0  0  0  0
   37.3600  -10.9119   -8.1441 N   0  0  0  0  0  0  0  0  0  0  0  0
   37.4829  -11.0598   -6.8152 C   0  0  0  0  0  0  0  0  0  0  0  0
   38.7909  -11.0492   -6.5195 N   0  0  0  0  0  0  0  0  0  0  0  0
   40.8697   -8.4696   -7.0923 C   0  0  0  0  0  0  0  0  0  0  0  0
   41.1571   -8.5304   -5.8729 O   0  0  0  0  0  0  0  0  0  0  0  0
   39.9523   -7.4356   -7.4560 N   0  0  0  0  0  0  0  0  0  0  0  0
   40.0867   -6.0528   -7.2037 C   0  0  1  0  0  0  0  0  0  0  0  0
   41.3947   -5.4120   -7.4637 C   0  0  0  0  0  0  0  0  0  0  0  0
   41.5118   -3.9997   -7.0676 C   0  0  0  0  0  0  0  0  0  0  0  0
   41.5226   -3.4091   -5.8238 C   0  0  0  0  0  0  0  0  0  0  0  0
   41.6439   -2.0686   -5.9770 N   0  0  0  0  0  0  0  0  0  0  0  0
   41.7134   -1.7594   -7.2837 C   0  0  0  0  0  0  0  0  0  0  0  0
   41.8384   -0.5816   -7.9919 C   0  0  0  0  0  0  0  0  0  0  0  0
   41.8866   -0.5401   -9.3744 C   0  0  0  0  0  0  0  0  0  0  0  0
   41.8032   -1.7536  -10.0481 C   0  0  0  0  0  0  0  0  0  0  0  0
   41.6799   -2.9146   -9.3461 C   0  0  0  0  0  0  0  0  0  0  0  0
   41.6312   -2.9596   -7.9639 C   0  0  0  0  0  0  0  0  0  0  0  0
   39.0387   -5.2198   -7.8493 C   0  0  0  0  0  0  0  0  0  0  0  0
   38.9543   -4.0148   -7.5488 O   0  0  0  0  0  0  0  0  0  0  0  0
   38.1793   -5.7704   -8.7577 O   0  0  0  0  0  0  0  0  0  0  0  0
  2  1  1  6
  3  2  1  0
  4  3  1  0
  5  4  1  0
  6  5  1  0
  6  7  1  0
  8  9  2  0
  8  2  1  0
 10  8  1  0
 11 10  1  0
 11 12  1  1
 12 13  1  0
 13 17  1  0
 13 14  2  0
 14 15  1  0
 16 15  1  0
 17 16  2  0
 18 20  1  0
 18 11  1  0
 19 18  2  0
 21 22  1  6
 21 20  1  0
 22 23  1  0
 23 31  1  0
 24 23  2  0
 24 25  1  0
 25 26  1  0
 26 27  2  0
 27 28  1  0
 29 28  2  0
 30 29  1  0
 31 30  2  0
 31 26  1  0
 32 21  1  0
 32 34  1  0
 33 32  2  0
M  END
$$$$
