KHW.pdb
     RDKit          3D

 34 36  0  0  1  0  0  0  0  0999 V2000
   30.4149  -24.3111  -18.1179 N   0  0  0  0  0  0  0  0  0  0  0  0
   29.0534  -24.4272  -17.5588 C   0  0  1  0  0  0  0  0  0  0  0  0
   28.8982  -25.7106  -16.8254 C   0  0  0  0  0  0  0  0  0  0  0  0
   28.6759  -26.9006  -17.6502 C   0  0  0  0  0  0  0  0  0  0  0  0
   27.6951  -26.9677  -18.7345 C   0  0  0  0  0  0  0  0  0  0  0  0
   27.4878  -28.2319  -19.4876 C   0  0  0  0  0  0  0  0  0  0  0  0
   26.9375  -29.1876  -18.4804 N   0  0  0  0  0  0  0  0  0  0  0  0
   28.8578  -23.2669  -16.6006 C   0  0  0  0  0  0  0  0  0  0  0  0
   29.6281  -23.1705  -15.6196 O   0  0  0  0  0  0  0  0  0  0  0  0
   27.8405  -22.2974  -16.7794 N   0  0  0  0  0  0  0  0  0  0  0  0
   27.5857  -21.2399  -15.8446 C   0  0  1  0  0  0  0  0  0  0  0  0
   27.1259  -19.9638  -16.5074 C   0  0  0  0  0  0  0  0  0  0  0  0
   26.7238  -18.9102  -15.5479 C   0  0  0  0  0  0  0  0  0  0  0  0
   27.6516  -18.0278  -15.0373 C   0  0  0  0  0  0  0  0  0  0  0  0
   26.9986  -17.2003  -14.2056 N   0  0  0  0  0  0  0  0  0  0  0  0
   25.7031  -17.5533  -14.1957 C   0  0  0  0  0  0  0  0  0  0  0  0
   25.5556  -18.5994  -15.0217 N   0  0  0  0  0  0  0  0  0  0  0  0
   26.6518  -21.6536  -14.7568 C   0  0  0  0  0  0  0  0  0  0  0  0
   25.6123  -22.3170  -14.9861 O   0  0  0  0  0  0  0  0  0  0  0  0
   26.8789  -21.3229  -13.3849 N   0  0  0  0  0  0  0  0  0  0  0  0
   26.0707  -21.6733  -12.2812 C   0  0  1  0  0  0  0  0  0  0  0  0
   26.7333  -22.0574  -11.0153 C   0  0  0  0  0  0  0  0  0  0  0  0
   26.6492  -21.0786   -9.9198 C   0  0  0  0  0  0  0  0  0  0  0  0
   25.6241  -20.2461   -9.5300 C   0  0  0  0  0  0  0  0  0  0  0  0
   26.0327  -19.5191   -8.4625 N   0  0  0  0  0  0  0  0  0  0  0  0
   27.2955  -19.8480   -8.1382 C   0  0  0  0  0  0  0  0  0  0  0  0
   28.1818  -19.4331   -7.1652 C   0  0  0  0  0  0  0  0  0  0  0  0
   29.4609  -19.9484   -7.0478 C   0  0  0  0  0  0  0  0  0  0  0  0
   29.8376  -20.9240   -7.9644 C   0  0  0  0  0  0  0  0  0  0  0  0
   28.9603  -21.3315   -8.9236 C   0  0  0  0  0  0  0  0  0  0  0  0
   27.6808  -20.8181   -9.0438 C   0  0  0  0  0  0  0  0  0  0  0  0
   25.0266  -20.6663  -11.9578 C   0  0  0  0  0  0  0  0  0  0  0  0
   25.2839  -19.4581  -12.1111 O   0  0  0  0  0  0  0  0  0  0  0  0
   23.8027  -21.0621  -11.4968 O   0  0  0  0  0  0  0  0  0  0  0  0
  2  1  1  1
  3  2  1  0
  4  3  1  0
  5  4  1  0
  6  5  1  0
  6  7  1  0
  8  9  2  0
  8  2  1  0
 10  8  1  0
 11 10  1  0
 11 12  1  6
 12 13  1  0
 13 17  1  0
 13 14  2  0
 14 15  1  0
 16 15  1  0
 17 16  2  0
 18 20  1  0
 18 11  1  0
 19 18  2  0
 21 22  1  1
 21 20  1  0
 22 23  1  0
 23 31  1  0
 24 23  2  0
 24 25  1  0
 25 26  1  0
 26 27  2  0
 27 28  1  0
 29 28  2  0
 30 29  1  0
 31 30  2  0
 31 26  1  0
 32 21  1  0
 32 34  1  0
 33 32  2  0
M  END
$$$$
