KHW.pdb
     RDKit          3D

 34 36  0  0  1  0  0  0  0  0999 V2000
   28.6367  -20.3928  -19.1492 N   0  0  0  0  0  0  0  0  0  0  0  0
   27.9830  -19.6580  -18.0480 C   0  0  1  0  0  0  0  0  0  0  0  0
   27.3220  -18.4294  -18.5607 C   0  0  0  0  0  0  0  0  0  0  0  0
   28.1976  -17.4499  -19.2084 C   0  0  0  0  0  0  0  0  0  0  0  0
   27.7551  -16.1238  -19.6419 C   0  0  0  0  0  0  0  0  0  0  0  0
   28.7159  -15.1707  -20.2559 C   0  0  0  0  0  0  0  0  0  0  0  0
   29.2076  -14.3406  -19.1159 N   0  0  0  0  0  0  0  0  0  0  0  0
   26.9415  -20.5816  -17.4439 C   0  0  0  0  0  0  0  0  0  0  0  0
   26.2022  -21.2296  -18.2176 O   0  0  0  0  0  0  0  0  0  0  0  0
   26.7808  -20.7331  -16.0445 N   0  0  0  0  0  0  0  0  0  0  0  0
   25.7446  -21.5275  -15.4510 C   0  0  1  0  0  0  0  0  0  0  0  0
   26.2761  -22.7161  -14.6869 C   0  0  0  0  0  0  0  0  0  0  0  0
   27.1436  -23.6009  -15.4974 C   0  0  0  0  0  0  0  0  0  0  0  0
   26.7041  -24.8425  -15.9037 C   0  0  0  0  0  0  0  0  0  0  0  0
   27.6965  -25.4040  -16.6129 N   0  0  0  0  0  0  0  0  0  0  0  0
   28.7248  -24.5414  -16.6493 C   0  0  0  0  0  0  0  0  0  0  0  0
   28.3676  -23.4464  -15.9625 N   0  0  0  0  0  0  0  0  0  0  0  0
   24.8134  -20.7161  -14.6138 C   0  0  0  0  0  0  0  0  0  0  0  0
   25.2220  -19.9758  -13.6874 O   0  0  0  0  0  0  0  0  0  0  0  0
   23.3978  -20.7280  -14.8111 N   0  0  0  0  0  0  0  0  0  0  0  0
   22.4423  -19.9164  -14.1613 C   0  0  1  0  0  0  0  0  0  0  0  0
   22.6196  -18.4480  -14.2017 C   0  0  0  0  0  0  0  0  0  0  0  0
   22.8594  -17.8630  -15.5305 C   0  0  0  0  0  0  0  0  0  0  0  0
   22.1444  -17.9628  -16.7029 C   0  0  0  0  0  0  0  0  0  0  0  0
   22.7762  -17.2459  -17.6631 N   0  0  0  0  0  0  0  0  0  0  0  0
   23.8851  -16.6774  -17.1579 C   0  0  0  0  0  0  0  0  0  0  0  0
   24.8749  -15.8659  -17.6737 C   0  0  0  0  0  0  0  0  0  0  0  0
   25.9384  -15.4073  -16.9161 C   0  0  0  0  0  0  0  0  0  0  0  0
   25.9819  -15.7988  -15.5825 C   0  0  0  0  0  0  0  0  0  0  0  0
   25.0032  -16.5999  -15.0763 C   0  0  0  0  0  0  0  0  0  0  0  0
   23.9386  -17.0603  -15.8311 C   0  0  0  0  0  0  0  0  0  0  0  0
   21.0387  -20.2134  -14.5491 C   0  0  0  0  0  0  0  0  0  0  0  0
   20.8255  -20.9533  -15.5271 O   0  0  0  0  0  0  0  0  0  0  0  0
   19.9979  -19.6795  -13.8428 O   0  0  0  0  0  0  0  0  0  0  0  0
  2  1  1  6
  3  2  1  0
  4  3  1  0
  5  4  1  0
  6  5  1  0
  6  7  1  0
  8  9  2  0
  8  2  1  0
 10  8  1  0
 11 10  1  0
 11 12  1  1
 12 13  1  0
 13 17  1  0
 13 14  2  0
 14 15  1  0
 16 15  1  0
 17 16  2  0
 18 20  1  0
 18 11  1  0
 19 18  2  0
 21 22  1  6
 21 20  1  0
 22 23  1  0
 23 31  1  0
 24 23  2  0
 24 25  1  0
 25 26  1  0
 26 27  2  0
 27 28  1  0
 29 28  2  0
 30 29  1  0
 31 30  2  0
 31 26  1  0
 32 21  1  0
 32 34  1  0
 33 32  2  0
M  END
$$$$
