KHW.pdb
     RDKit          3D

 34 36  0  0  1  0  0  0  0  0999 V2000
   28.2045  -17.2994  -15.3111 N   0  0  0  0  0  0  0  0  0  0  0  0
   27.5864  -18.6303  -15.4742 C   0  0  1  0  0  0  0  0  0  0  0  0
   28.6315  -19.6826  -15.5714 C   0  0  0  0  0  0  0  0  0  0  0  0
   29.5870  -19.5412  -16.6726 C   0  0  0  0  0  0  0  0  0  0  0  0
   29.4433  -20.2111  -17.9660 C   0  0  0  0  0  0  0  0  0  0  0  0
   30.4293  -19.9745  -19.0523 C   0  0  0  0  0  0  0  0  0  0  0  0
   29.9067  -20.7525  -20.2151 N   0  0  0  0  0  0  0  0  0  0  0  0
   26.7240  -18.8811  -14.2510 C   0  0  0  0  0  0  0  0  0  0  0  0
   26.1526  -17.9047  -13.7170 O   0  0  0  0  0  0  0  0  0  0  0  0
   26.5461  -20.1736  -13.6991 N   0  0  0  0  0  0  0  0  0  0  0  0
   25.5129  -20.4938  -12.7574 C   0  0  1  0  0  0  0  0  0  0  0  0
   24.3974  -21.3131  -13.3604 C   0  0  0  0  0  0  0  0  0  0  0  0
   23.4887  -20.5286  -14.2271 C   0  0  0  0  0  0  0  0  0  0  0  0
   23.7414  -20.3910  -15.5751 C   0  0  0  0  0  0  0  0  0  0  0  0
   22.7574  -19.6363  -16.0899 N   0  0  0  0  0  0  0  0  0  0  0  0
   21.9153  -19.3115  -15.0957 C   0  0  0  0  0  0  0  0  0  0  0  0
   22.3792  -19.8658  -13.9662 N   0  0  0  0  0  0  0  0  0  0  0  0
   26.0480  -21.1328  -11.5197 C   0  0  0  0  0  0  0  0  0  0  0  0
   27.0388  -21.9016  -11.5405 O   0  0  0  0  0  0  0  0  0  0  0  0
   25.4691  -20.9120  -10.2316 N   0  0  0  0  0  0  0  0  0  0  0  0
   26.1245  -20.9787   -8.9826 C   0  0  1  0  0  0  0  0  0  0  0  0
   27.3893  -20.2311   -8.8087 C   0  0  0  0  0  0  0  0  0  0  0  0
   27.6932  -19.7862   -7.4394 C   0  0  0  0  0  0  0  0  0  0  0  0
   27.0621  -18.8711   -6.6268 C   0  0  0  0  0  0  0  0  0  0  0  0
   27.7271  -18.8004   -5.4487 N   0  0  0  0  0  0  0  0  0  0  0  0
   28.7764  -19.6411   -5.4616 C   0  0  0  0  0  0  0  0  0  0  0  0
   29.7650  -19.9654   -4.5550 C   0  0  0  0  0  0  0  0  0  0  0  0
   30.7567  -20.8917   -4.8271 C   0  0  0  0  0  0  0  0  0  0  0  0
   30.7271  -21.5033   -6.0756 C   0  0  0  0  0  0  0  0  0  0  0  0
   29.7499  -21.1810   -6.9683 C   0  0  0  0  0  0  0  0  0  0  0  0
   28.7570  -20.2553   -6.6994 C   0  0  0  0  0  0  0  0  0  0  0  0
   25.2473  -20.6589   -7.8263 C   0  0  0  0  0  0  0  0  0  0  0  0
   25.6357  -20.9393   -6.6773 O   0  0  0  0  0  0  0  0  0  0  0  0
   24.0313  -20.0675   -8.0228 O   0  0  0  0  0  0  0  0  0  0  0  0
  2  1  1  1
  3  2  1  0
  4  3  1  0
  5  4  1  0
  6  5  1  0
  6  7  1  0
  8  9  2  0
  8  2  1  0
 10  8  1  0
 11 10  1  0
 11 12  1  6
 12 13  1  0
 13 17  1  0
 13 14  2  0
 14 15  1  0
 16 15  1  0
 17 16  2  0
 18 20  1  0
 18 11  1  0
 19 18  2  0
 21 22  1  6
 21 20  1  0
 22 23  1  0
 23 31  1  0
 24 23  2  0
 24 25  1  0
 25 26  1  0
 26 27  2  0
 27 28  1  0
 29 28  2  0
 30 29  1  0
 31 30  2  0
 31 26  1  0
 32 21  1  0
 32 34  1  0
 33 32  2  0
M  END
$$$$
