KHW.pdb
     RDKit          3D

 34 36  0  0  1  0  0  0  0  0999 V2000
   17.2744  -11.3241  -24.0037 N   0  0  0  0  0  0  0  0  0  0  0  0
   16.6635  -12.2085  -22.9915 C   0  0  1  0  0  0  0  0  0  0  0  0
   17.5175  -13.4024  -22.7581 C   0  0  0  0  0  0  0  0  0  0  0  0
   17.3012  -14.5351  -23.6616 C   0  0  0  0  0  0  0  0  0  0  0  0
   18.0313  -15.8003  -23.5698 C   0  0  0  0  0  0  0  0  0  0  0  0
   17.7214  -16.9195  -24.4970 C   0  0  0  0  0  0  0  0  0  0  0  0
   18.7810  -17.9377  -24.2301 N   0  0  0  0  0  0  0  0  0  0  0  0
   16.5436  -11.4099  -21.7067 C   0  0  0  0  0  0  0  0  0  0  0  0
   17.2358  -10.3751  -21.5839 O   0  0  0  0  0  0  0  0  0  0  0  0
   15.6804  -11.7943  -20.6512 N   0  0  0  0  0  0  0  0  0  0  0  0
   15.3155  -10.9215  -19.5732 C   0  0  1  0  0  0  0  0  0  0  0  0
   14.7622   -9.5988  -20.0458 C   0  0  0  0  0  0  0  0  0  0  0  0
   15.8073   -8.5971  -20.3566 C   0  0  0  0  0  0  0  0  0  0  0  0
   16.9748   -8.5436  -19.6258 C   0  0  0  0  0  0  0  0  0  0  0  0
   17.7178   -7.5474  -20.1341 N   0  0  0  0  0  0  0  0  0  0  0  0
   17.0371   -6.9945  -21.1510 C   0  0  0  0  0  0  0  0  0  0  0  0
   15.8731   -7.6495  -21.2709 N   0  0  0  0  0  0  0  0  0  0  0  0
   14.3974  -11.5761  -18.5959 C   0  0  0  0  0  0  0  0  0  0  0  0
   13.3005  -12.0761  -18.9424 O   0  0  0  0  0  0  0  0  0  0  0  0
   14.7056  -11.6769  -17.2039 N   0  0  0  0  0  0  0  0  0  0  0  0
   13.8876  -12.2209  -16.1896 C   0  0  1  0  0  0  0  0  0  0  0  0
   14.2631  -13.5273  -15.6052 C   0  0  0  0  0  0  0  0  0  0  0  0
   14.4690  -14.6269  -16.5611 C   0  0  0  0  0  0  0  0  0  0  0  0
   15.5094  -14.8898  -17.4239 C   0  0  0  0  0  0  0  0  0  0  0  0
   15.2329  -16.0248  -18.1097 N   0  0  0  0  0  0  0  0  0  0  0  0
   14.0423  -16.5166  -17.7243 C   0  0  0  0  0  0  0  0  0  0  0  0
   13.2909  -17.6175  -18.0818 C   0  0  0  0  0  0  0  0  0  0  0  0
   12.0610  -17.9016  -17.5143 C   0  0  0  0  0  0  0  0  0  0  0  0
   11.5913  -17.0210  -16.5461 C   0  0  0  0  0  0  0  0  0  0  0  0
   12.3355  -15.9352  -16.1953 C   0  0  0  0  0  0  0  0  0  0  0  0
   13.5654  -15.6482  -16.7609 C   0  0  0  0  0  0  0  0  0  0  0  0
   13.6190  -11.2839  -15.0676 C   0  0  0  0  0  0  0  0  0  0  0  0
   12.7861  -11.6036  -14.1995 O   0  0  0  0  0  0  0  0  0  0  0  0
   14.2757  -10.0881  -14.9923 O   0  0  0  0  0  0  0  0  0  0  0  0
  2  1  1  6
  3  2  1  0
  4  3  1  0
  5  4  1  0
  6  5  1  0
  6  7  1  0
  8  9  2  0
  8  2  1  0
 10  8  1  0
 11 10  1  0
 11 12  1  6
 12 13  1  0
 13 17  1  0
 13 14  2  0
 14 15  1  0
 16 15  1  0
 17 16  2  0
 18 20  1  0
 18 11  1  0
 19 18  2  0
 21 22  1  1
 21 20  1  0
 22 23  1  0
 23 31  1  0
 24 23  2  0
 24 25  1  0
 25 26  1  0
 26 27  2  0
 27 28  1  0
 29 28  2  0
 30 29  1  0
 31 30  2  0
 31 26  1  0
 32 21  1  0
 32 34  1  0
 33 32  2  0
M  END
$$$$
