HHN.pdb
     RDKit          3D

 29 30  0  0  1  0  0  0  0  0999 V2000
   13.4721  -14.2211   18.6288 N   0  0  0  0  0  0  0  0  0  0  0  0
   12.4838  -15.2153   18.9131 C   0  0  1  0  0  0  0  0  0  0  0  0
   13.1510  -16.5774   19.1535 C   0  0  0  0  0  0  0  0  0  0  0  0
   13.6828  -17.1407   17.9048 C   0  0  0  0  0  0  0  0  0  0  0  0
   13.5808  -16.5459   16.6664 C   0  0  0  0  0  0  0  0  0  0  0  0
   14.1867  -17.3544   15.7506 N   0  0  0  0  0  0  0  0  0  0  0  0
   14.6595  -18.4403   16.4176 C   0  0  0  0  0  0  0  0  0  0  0  0
   14.3470  -18.2941   17.7119 N   0  0  0  0  0  0  0  0  0  0  0  0
   11.6669  -14.9016   20.1053 C   0  0  0  0  0  0  0  0  0  0  0  0
   12.1077  -14.1030   20.9523 O   0  0  0  0  0  0  0  0  0  0  0  0
   10.3885  -15.4546   20.3640 N   0  0  0  0  0  0  0  0  0  0  0  0
    9.6114  -15.1827   21.5124 C   0  0  1  0  0  0  0  0  0  0  0  0
    8.1566  -14.9344   21.3025 C   0  0  0  0  0  0  0  0  0  0  0  0
    7.9408  -13.9630   20.1945 C   0  0  0  0  0  0  0  0  0  0  0  0
    7.4880  -14.2020   18.9115 C   0  0  0  0  0  0  0  0  0  0  0  0
    7.4305  -13.0509   18.2086 N   0  0  0  0  0  0  0  0  0  0  0  0
    7.8460  -12.0850   19.0446 C   0  0  0  0  0  0  0  0  0  0  0  0
    8.1545  -12.6153   20.2357 N   0  0  0  0  0  0  0  0  0  0  0  0
    9.8142  -16.2640   22.5165 C   0  0  0  0  0  0  0  0  0  0  0  0
    8.8955  -16.5925   23.3096 O   0  0  0  0  0  0  0  0  0  0  0  0
   11.9554  -20.3953   24.8910 N   0  0  0  0  0  0  0  0  0  0  0  0
   12.4734  -20.2805   23.5521 C   0  0  0  0  0  0  0  0  0  0  0  0
   13.1914  -21.1661   23.0697 O   0  0  0  0  0  0  0  0  0  0  0  0
   12.1022  -19.0723   22.8151 C   0  0  0  0  0  0  0  0  0  0  0  0
   11.2453  -18.0866   23.5441 C   0  0  2  0  0  0  0  0  0  0  0  0
   11.0484  -16.9610   22.6140 N   0  0  0  0  0  0  0  0  0  0  0  0
   11.7532  -17.6265   24.8335 C   0  0  0  0  0  0  0  0  0  0  0  0
   11.6665  -18.3033   25.8822 O   0  0  0  0  0  0  0  0  0  0  0  0
   12.3669  -16.3515   24.8664 O   0  0  0  0  0  0  0  0  0  0  0  0
  2  3  1  0
  2  1  1  1
  4  8  1  0
  4  3  1  0
  5  4  2  0
  6  5  1  0
  6  7  1  0
  7  8  2  0
  9  2  1  0
 10  9  2  0
 11  9  1  0
 12 11  1  0
 13 14  1  0
 12 13  1  6
 14 15  2  0
 15 16  1  0
 17 16  1  0
 18 14  1  0
 18 17  2  0
 19 12  1  0
 19 26  1  0
 20 19  2  0
 22 21  1  0
 23 22  2  0
 24 22  1  0
 25 24  1  6
 25 27  1  0
 25 26  1  0
 27 29  1  0
 28 27  2  0
M  END
$$$$
