HHN.pdb
     RDKit          3D

 29 30  0  0  1  0  0  0  0  0999 V2000
    9.0078  -18.9580   15.5049 N   0  0  0  0  0  0  0  0  0  0  0  0
   10.2890  -18.3444   15.6731 C   0  0  1  0  0  0  0  0  0  0  0  0
   10.8635  -17.9270   14.3115 C   0  0  0  0  0  0  0  0  0  0  0  0
    9.8671  -17.2039   13.5091 C   0  0  0  0  0  0  0  0  0  0  0  0
    8.6412  -17.7085   13.1346 C   0  0  0  0  0  0  0  0  0  0  0  0
    7.9920  -16.7593   12.4017 N   0  0  0  0  0  0  0  0  0  0  0  0
    8.8101  -15.6767   12.3237 C   0  0  0  0  0  0  0  0  0  0  0  0
    9.9331  -15.9627   12.9956 N   0  0  0  0  0  0  0  0  0  0  0  0
   10.2508  -17.1397   16.5299 C   0  0  0  0  0  0  0  0  0  0  0  0
   11.2778  -16.4471   16.6525 O   0  0  0  0  0  0  0  0  0  0  0  0
    9.1057  -16.7024   17.2402 N   0  0  0  0  0  0  0  0  0  0  0  0
    9.1018  -15.6665   18.2013 C   0  0  1  0  0  0  0  0  0  0  0  0
    7.7879  -15.0332   18.5089 C   0  0  0  0  0  0  0  0  0  0  0  0
    7.9584  -13.8940   19.4529 C   0  0  0  0  0  0  0  0  0  0  0  0
    8.4194  -12.6180   19.1933 C   0  0  0  0  0  0  0  0  0  0  0  0
    8.4242  -11.8784   20.3225 N   0  0  0  0  0  0  0  0  0  0  0  0
    7.9671  -12.6843   21.2954 C   0  0  0  0  0  0  0  0  0  0  0  0
    7.6845  -13.8926   20.7904 N   0  0  0  0  0  0  0  0  0  0  0  0
    9.7522  -16.1473   19.4520 C   0  0  0  0  0  0  0  0  0  0  0  0
    9.6701  -17.3517   19.8035 O   0  0  0  0  0  0  0  0  0  0  0  0
   13.8851  -14.1901   19.9456 N   0  0  0  0  0  0  0  0  0  0  0  0
   13.3656  -15.3053   20.6942 C   0  0  0  0  0  0  0  0  0  0  0  0
   13.7601  -16.4580   20.4746 O   0  0  0  0  0  0  0  0  0  0  0  0
   12.3611  -14.9918   21.7108 C   0  0  0  0  0  0  0  0  0  0  0  0
   11.0463  -15.6936   21.5840 C   0  0  2  0  0  0  0  0  0  0  0  0
   10.4862  -15.2656   20.2903 N   0  0  0  0  0  0  0  0  0  0  0  0
   10.0963  -15.4759   22.6713 C   0  0  0  0  0  0  0  0  0  0  0  0
    9.0124  -14.8695   22.5196 O   0  0  0  0  0  0  0  0  0  0  0  0
   10.4461  -15.9862   23.9443 O   0  0  0  0  0  0  0  0  0  0  0  0
  2  3  1  0
  2  1  1  6
  4  8  1  0
  4  3  1  0
  5  4  2  0
  6  5  1  0
  6  7  1  0
  7  8  2  0
  9  2  1  0
 10  9  2  0
 11  9  1  0
 12 11  1  0
 13 14  1  0
 12 13  1  1
 14 15  2  0
 15 16  1  0
 17 16  1  0
 18 14  1  0
 18 17  2  0
 19 12  1  0
 19 26  1  0
 20 19  2  0
 22 21  1  0
 23 22  2  0
 24 22  1  0
 25 24  1  1
 25 27  1  0
 25 26  1  0
 27 29  1  0
 28 27  2  0
M  END
$$$$
