HHN.pdb
     RDKit          3D

 29 30  0  0  1  0  0  0  0  0999 V2000
   13.3407  -14.0770   16.0037 N   0  0  0  0  0  0  0  0  0  0  0  0
   13.1338  -15.2258   16.8305 C   0  0  1  0  0  0  0  0  0  0  0  0
   14.4260  -16.0492   16.9329 C   0  0  0  0  0  0  0  0  0  0  0  0
   14.8344  -16.5698   15.6208 C   0  0  0  0  0  0  0  0  0  0  0  0
   14.0997  -17.4533   14.8609 C   0  0  0  0  0  0  0  0  0  0  0  0
   14.7899  -17.7092   13.7129 N   0  0  0  0  0  0  0  0  0  0  0  0
   15.9420  -16.9897   13.7629 C   0  0  0  0  0  0  0  0  0  0  0  0
   15.9511  -16.3108   14.9175 N   0  0  0  0  0  0  0  0  0  0  0  0
   12.7108  -14.8859   18.2061 C   0  0  0  0  0  0  0  0  0  0  0  0
   13.3506  -14.0313   18.8462 O   0  0  0  0  0  0  0  0  0  0  0  0
   11.6047  -15.4734   18.8683 N   0  0  0  0  0  0  0  0  0  0  0  0
   11.2006  -15.1668   20.1872 C   0  0  1  0  0  0  0  0  0  0  0  0
    9.7394  -15.2198   20.4773 C   0  0  0  0  0  0  0  0  0  0  0  0
    8.9863  -14.3153   19.5648 C   0  0  0  0  0  0  0  0  0  0  0  0
    8.5691  -13.0171   19.7854 C   0  0  0  0  0  0  0  0  0  0  0  0
    7.9130  -12.5416   18.7057 N   0  0  0  0  0  0  0  0  0  0  0  0
    7.9148  -13.5366   17.8031 C   0  0  0  0  0  0  0  0  0  0  0  0
    8.5529  -14.6035   18.3027 N   0  0  0  0  0  0  0  0  0  0  0  0
   11.9522  -16.0214   21.1480 C   0  0  0  0  0  0  0  0  0  0  0  0
   12.0138  -17.2680   20.9957 O   0  0  0  0  0  0  0  0  0  0  0  0
   16.3717  -17.1454   23.9621 N   0  0  0  0  0  0  0  0  0  0  0  0
   15.5832  -16.0502   24.4649 C   0  0  0  0  0  0  0  0  0  0  0  0
   15.7204  -15.6486   25.6278 O   0  0  0  0  0  0  0  0  0  0  0  0
   14.6286  -15.4557   23.5288 C   0  0  0  0  0  0  0  0  0  0  0  0
   13.4254  -16.2791   23.1947 C   0  0  2  0  0  0  0  0  0  0  0  0
   12.6243  -15.4612   22.2674 N   0  0  0  0  0  0  0  0  0  0  0  0
   12.6250  -16.7331   24.3284 C   0  0  0  0  0  0  0  0  0  0  0  0
   11.5455  -16.1950   24.6610 O   0  0  0  0  0  0  0  0  0  0  0  0
   13.1194  -17.8354   25.0660 O   0  0  0  0  0  0  0  0  0  0  0  0
  2  3  1  0
  2  1  1  6
  4  8  1  0
  4  3  1  0
  5  4  2  0
  6  5  1  0
  6  7  1  0
  7  8  2  0
  9  2  1  0
 10  9  2  0
 11  9  1  0
 12 11  1  0
 13 14  1  0
 12 13  1  6
 14 15  2  0
 15 16  1  0
 17 16  1  0
 18 14  1  0
 18 17  2  0
 19 12  1  0
 19 26  1  0
 20 19  2  0
 22 21  1  0
 23 22  2  0
 24 22  1  0
 25 24  1  1
 25 27  1  0
 25 26  1  0
 27 29  1  0
 28 27  2  0
M  END
$$$$
