HHN.pdb
     RDKit          3D

 29 30  0  0  1  0  0  0  0  0999 V2000
    7.9713  -15.4278   20.0640 N   0  0  0  0  0  0  0  0  0  0  0  0
    7.8763  -16.5516   20.9439 C   0  0  1  0  0  0  0  0  0  0  0  0
    8.7192  -17.7193   20.4109 C   0  0  0  0  0  0  0  0  0  0  0  0
    8.1905  -18.2229   19.1356 C   0  0  0  0  0  0  0  0  0  0  0  0
    7.0595  -17.7471   18.5094 C   0  0  0  0  0  0  0  0  0  0  0  0
    6.8797  -18.4507   17.3552 N   0  0  0  0  0  0  0  0  0  0  0  0
    7.8916  -19.3541   17.2687 C   0  0  0  0  0  0  0  0  0  0  0  0
    8.6698  -19.2022   18.3483 N   0  0  0  0  0  0  0  0  0  0  0  0
    8.3385  -16.2577   22.3175 C   0  0  0  0  0  0  0  0  0  0  0  0
    9.4010  -15.6302   22.4811 O   0  0  0  0  0  0  0  0  0  0  0  0
    7.6469  -16.6454   23.4916 N   0  0  0  0  0  0  0  0  0  0  0  0
    8.0393  -16.3058   24.8059 C   0  0  1  0  0  0  0  0  0  0  0  0
    7.0017  -15.6970   25.6863 C   0  0  0  0  0  0  0  0  0  0  0  0
    6.8960  -14.2316   25.4433 C   0  0  0  0  0  0  0  0  0  0  0  0
    7.6293  -13.4440   24.5772 C   0  0  0  0  0  0  0  0  0  0  0  0
    7.2267  -12.1577   24.6521 N   0  0  0  0  0  0  0  0  0  0  0  0
    6.2404  -12.1307   25.5639 C   0  0  0  0  0  0  0  0  0  0  0  0
    6.0315  -13.3633   26.0455 N   0  0  0  0  0  0  0  0  0  0  0  0
    8.6474  -17.4948   25.4653 C   0  0  0  0  0  0  0  0  0  0  0  0
    8.0489  -18.6004   25.4877 O   0  0  0  0  0  0  0  0  0  0  0  0
   12.7902  -17.8860   24.1757 N   0  0  0  0  0  0  0  0  0  0  0  0
   12.0861  -18.9101   24.9033 C   0  0  0  0  0  0  0  0  0  0  0  0
   11.6598  -19.9202   24.3284 O   0  0  0  0  0  0  0  0  0  0  0  0
   11.9117  -18.6821   26.3381 C   0  0  0  0  0  0  0  0  0  0  0  0
   10.5026  -18.5606   26.8248 C   0  0  2  0  0  0  0  0  0  0  0  0
    9.9212  -17.4232   26.0906 N   0  0  0  0  0  0  0  0  0  0  0  0
   10.3341  -18.4031   28.2666 C   0  0  0  0  0  0  0  0  0  0  0  0
    9.8823  -17.3609   28.7913 O   0  0  0  0  0  0  0  0  0  0  0  0
   10.7082  -19.4976   29.0824 O   0  0  0  0  0  0  0  0  0  0  0  0
  2  3  1  0
  2  1  1  6
  4  8  1  0
  4  3  1  0
  5  4  2  0
  6  5  1  0
  6  7  1  0
  7  8  2  0
  9  2  1  0
 10  9  2  0
 11  9  1  0
 12 11  1  0
 13 14  1  0
 12 13  1  1
 14 15  2  0
 15 16  1  0
 17 16  1  0
 18 14  1  0
 18 17  2  0
 19 12  1  0
 19 26  1  0
 20 19  2  0
 22 21  1  0
 23 22  2  0
 24 22  1  0
 25 24  1  1
 25 27  1  0
 25 26  1  0
 27 29  1  0
 28 27  2  0
M  END
$$$$
