HHN.pdb
     RDKit          3D

 29 30  0  0  1  0  0  0  0  0999 V2000
   10.8104  -16.5984   14.5907 N   0  0  0  0  0  0  0  0  0  0  0  0
   10.1035  -16.1686   15.7577 C   0  0  1  0  0  0  0  0  0  0  0  0
    9.5016  -17.3756   16.4917 C   0  0  0  0  0  0  0  0  0  0  0  0
   10.5136  -18.4128   16.7358 C   0  0  0  0  0  0  0  0  0  0  0  0
   11.8469  -18.3049   16.4065 C   0  0  0  0  0  0  0  0  0  0  0  0
   12.4761  -19.4552   16.7814 N   0  0  0  0  0  0  0  0  0  0  0  0
   11.5392  -20.2676   17.3380 C   0  0  0  0  0  0  0  0  0  0  0  0
   10.3651  -19.6237   17.3018 N   0  0  0  0  0  0  0  0  0  0  0  0
   10.9567  -15.4401   16.7212 C   0  0  0  0  0  0  0  0  0  0  0  0
   12.0631  -15.0079   16.3490 O   0  0  0  0  0  0  0  0  0  0  0  0
   10.6023  -15.1900   18.0698 N   0  0  0  0  0  0  0  0  0  0  0  0
   11.1831  -14.1906   18.8826 C   0  0  1  0  0  0  0  0  0  0  0  0
   10.3482  -12.9928   19.1835 C   0  0  0  0  0  0  0  0  0  0  0  0
    8.9627  -13.3938   19.5541 C   0  0  0  0  0  0  0  0  0  0  0  0
    7.8021  -12.6469   19.4964 C   0  0  0  0  0  0  0  0  0  0  0  0
    6.7490  -13.3763   19.9222 N   0  0  0  0  0  0  0  0  0  0  0  0
    7.2417  -14.5827   20.2490 C   0  0  0  0  0  0  0  0  0  0  0  0
    8.5639  -14.6080   20.0341 N   0  0  0  0  0  0  0  0  0  0  0  0
   11.6835  -14.8050   20.1437 C   0  0  0  0  0  0  0  0  0  0  0  0
   12.3522  -14.1341   20.9706 O   0  0  0  0  0  0  0  0  0  0  0  0
    9.5784  -16.3462   22.6353 N   0  0  0  0  0  0  0  0  0  0  0  0
    9.8767  -17.7346   22.3959 C   0  0  0  0  0  0  0  0  0  0  0  0
    9.0289  -18.6125   22.6038 O   0  0  0  0  0  0  0  0  0  0  0  0
   11.2209  -18.0326   21.9006 C   0  0  0  0  0  0  0  0  0  0  0  0
   12.0860  -16.8556   21.5785 C   0  0  2  0  0  0  0  0  0  0  0  0
   11.4244  -16.1664   20.4570 N   0  0  0  0  0  0  0  0  0  0  0  0
   13.4819  -17.1521   21.2695 C   0  0  0  0  0  0  0  0  0  0  0  0
   13.8713  -17.4942   20.1307 O   0  0  0  0  0  0  0  0  0  0  0  0
   14.4144  -17.0382   22.3283 O   0  0  0  0  0  0  0  0  0  0  0  0
  2  3  1  0
  2  1  1  6
  4  8  1  0
  4  3  1  0
  5  4  2  0
  6  5  1  0
  6  7  1  0
  7  8  2  0
  9  2  1  0
 10  9  2  0
 11  9  1  0
 12 11  1  0
 13 14  1  0
 12 13  1  1
 14 15  2  0
 15 16  1  0
 17 16  1  0
 18 14  1  0
 18 17  2  0
 19 12  1  0
 19 26  1  0
 20 19  2  0
 22 21  1  0
 23 22  2  0
 24 22  1  0
 25 24  1  6
 25 27  1  0
 25 26  1  0
 27 29  1  0
 28 27  2  0
M  END
$$$$
