HHN.pdb
     RDKit          3D

 29 30  0  0  1  0  0  0  0  0999 V2000
   15.1829  -12.9566   16.9533 N   0  0  0  0  0  0  0  0  0  0  0  0
   14.8246  -14.2981   17.2972 C   0  0  1  0  0  0  0  0  0  0  0  0
   16.0684  -15.1987   17.2989 C   0  0  0  0  0  0  0  0  0  0  0  0
   16.7397  -15.1868   15.9917 C   0  0  0  0  0  0  0  0  0  0  0  0
   16.1447  -15.5306   14.7978 C   0  0  0  0  0  0  0  0  0  0  0  0
   17.0693  -15.3998   13.8040 N   0  0  0  0  0  0  0  0  0  0  0  0
   18.2266  -14.9786   14.3791 C   0  0  0  0  0  0  0  0  0  0  0  0
   18.0091  -14.8561   15.6951 N   0  0  0  0  0  0  0  0  0  0  0  0
   14.1908  -14.4095   18.6287 C   0  0  0  0  0  0  0  0  0  0  0  0
   14.5266  -13.6201   19.5306 O   0  0  0  0  0  0  0  0  0  0  0  0
   13.2056  -15.3703   18.9649 N   0  0  0  0  0  0  0  0  0  0  0  0
   12.5392  -15.4382   20.2091 C   0  0  1  0  0  0  0  0  0  0  0  0
   11.0880  -15.7781   20.1823 C   0  0  0  0  0  0  0  0  0  0  0  0
   10.5439  -15.8820   21.5647 C   0  0  0  0  0  0  0  0  0  0  0  0
   10.0456  -16.9935   22.2161 C   0  0  0  0  0  0  0  0  0  0  0  0
    9.6489  -16.6708   23.4654 N   0  0  0  0  0  0  0  0  0  0  0  0
    9.8954  -15.3576   23.6050 C   0  0  0  0  0  0  0  0  0  0  0  0
   10.4306  -14.8723   22.4766 N   0  0  0  0  0  0  0  0  0  0  0  0
   13.2730  -16.3648   21.1154 C   0  0  0  0  0  0  0  0  0  0  0  0
   13.5359  -17.5429   20.7631 O   0  0  0  0  0  0  0  0  0  0  0  0
   16.9050  -14.6138   22.1624 N   0  0  0  0  0  0  0  0  0  0  0  0
   16.5447  -15.9903   22.3844 C   0  0  0  0  0  0  0  0  0  0  0  0
   16.9078  -16.8773   21.6009 O   0  0  0  0  0  0  0  0  0  0  0  0
   15.7375  -16.2652   23.5735 C   0  0  0  0  0  0  0  0  0  0  0  0
   14.3883  -16.8657   23.3360 C   0  0  2  0  0  0  0  0  0  0  0  0
   13.7010  -15.9528   22.4060 N   0  0  0  0  0  0  0  0  0  0  0  0
   13.5806  -17.1174   24.5261 C   0  0  0  0  0  0  0  0  0  0  0  0
   12.4801  -16.5599   24.7346 O   0  0  0  0  0  0  0  0  0  0  0  0
   14.0931  -18.0400   25.4693 O   0  0  0  0  0  0  0  0  0  0  0  0
  2  3  1  0
  2  1  1  1
  4  8  1  0
  4  3  1  0
  5  4  2  0
  6  5  1  0
  6  7  1  0
  7  8  2  0
  9  2  1  0
 10  9  2  0
 11  9  1  0
 12 11  1  0
 13 14  1  0
 12 13  1  6
 14 15  2  0
 15 16  1  0
 17 16  1  0
 18 14  1  0
 18 17  2  0
 19 12  1  0
 19 26  1  0
 20 19  2  0
 22 21  1  0
 23 22  2  0
 24 22  1  0
 25 24  1  1
 25 27  1  0
 25 26  1  0
 27 29  1  0
 28 27  2  0
M  END
$$$$
