HHN.pdb
     RDKit          3D

 29 30  0  0  1  0  0  0  0  0999 V2000
   13.4068  -17.4223   10.3337 N   0  0  0  0  0  0  0  0  0  0  0  0
   13.3182  -18.6270   11.1000 C   0  0  1  0  0  0  0  0  0  0  0  0
   14.5361  -19.5223   10.8293 C   0  0  0  0  0  0  0  0  0  0  0  0
   14.4025  -20.2359    9.5516 C   0  0  0  0  0  0  0  0  0  0  0  0
   13.3003  -20.9694    9.1710 C   0  0  0  0  0  0  0  0  0  0  0  0
   13.5347  -21.4839    7.9301 N   0  0  0  0  0  0  0  0  0  0  0  0
   14.7719  -21.0717    7.5467 C   0  0  0  0  0  0  0  0  0  0  0  0
   15.2783  -20.3223    8.5347 N   0  0  0  0  0  0  0  0  0  0  0  0
   13.2552  -18.3877   12.5580 C   0  0  0  0  0  0  0  0  0  0  0  0
   13.8507  -17.4067   13.0401 O   0  0  0  0  0  0  0  0  0  0  0  0
   12.5509  -19.2104   13.4714 N   0  0  0  0  0  0  0  0  0  0  0  0
   12.4740  -18.9841   14.8640 C   0  0  1  0  0  0  0  0  0  0  0  0
   11.2289  -19.4264   15.5542 C   0  0  0  0  0  0  0  0  0  0  0  0
   10.0532  -18.6498   15.0721 C   0  0  0  0  0  0  0  0  0  0  0  0
   10.0215  -17.3859   14.5156 C   0  0  0  0  0  0  0  0  0  0  0  0
    8.7542  -17.0362   14.2090 N   0  0  0  0  0  0  0  0  0  0  0  0
    7.9849  -18.0765   14.5705 C   0  0  0  0  0  0  0  0  0  0  0  0
    8.7477  -19.0487   15.0881 N   0  0  0  0  0  0  0  0  0  0  0  0
   13.6719  -19.5686   15.5288 C   0  0  0  0  0  0  0  0  0  0  0  0
   14.4915  -20.2723   14.8853 O   0  0  0  0  0  0  0  0  0  0  0  0
   17.6063  -20.6118   18.5586 N   0  0  0  0  0  0  0  0  0  0  0  0
   17.5644  -19.4135   17.7610 C   0  0  0  0  0  0  0  0  0  0  0  0
   18.5835  -18.7348   17.5784 O   0  0  0  0  0  0  0  0  0  0  0  0
   16.2637  -19.0588   17.1924 C   0  0  0  0  0  0  0  0  0  0  0  0
   15.1084  -19.9228   17.5872 C   0  0  2  0  0  0  0  0  0  0  0  0
   13.9310  -19.3530   16.9091 N   0  0  0  0  0  0  0  0  0  0  0  0
   14.8764  -20.0661   19.0217 C   0  0  0  0  0  0  0  0  0  0  0  0
   15.6360  -20.7155   19.7746 O   0  0  0  0  0  0  0  0  0  0  0  0
   13.7307  -19.4293   19.5559 O   0  0  0  0  0  0  0  0  0  0  0  0
  2  3  1  0
  2  1  1  6
  4  8  1  0
  4  3  1  0
  5  4  2  0
  6  5  1  0
  6  7  1  0
  7  8  2  0
  9  2  1  0
 10  9  2  0
 11  9  1  0
 12 11  1  0
 13 14  1  0
 12 13  1  1
 14 15  2  0
 15 16  1  0
 17 16  1  0
 18 14  1  0
 18 17  2  0
 19 12  1  0
 19 26  1  0
 20 19  2  0
 22 21  1  0
 23 22  2  0
 24 22  1  0
 25 24  1  1
 25 27  1  0
 25 26  1  0
 27 29  1  0
 28 27  2  0
M  END
$$$$
