HHN.pdb
     RDKit          3D

 29 30  0  0  1  0  0  0  0  0999 V2000
    9.8371  -15.7239   17.0875 N   0  0  0  0  0  0  0  0  0  0  0  0
   10.5975  -14.7684   17.8326 C   0  0  1  0  0  0  0  0  0  0  0  0
    9.8989  -14.4510   19.1628 C   0  0  0  0  0  0  0  0  0  0  0  0
    8.6215  -13.7580   18.9445 C   0  0  0  0  0  0  0  0  0  0  0  0
    8.1023  -13.4343   17.7102 C   0  0  0  0  0  0  0  0  0  0  0  0
    6.9092  -12.8015   17.8990 N   0  0  0  0  0  0  0  0  0  0  0  0
    6.6926  -12.7347   19.2392 C   0  0  0  0  0  0  0  0  0  0  0  0
    7.7330  -13.3150   19.8516 N   0  0  0  0  0  0  0  0  0  0  0  0
   11.9670  -15.2298   18.1465 C   0  0  0  0  0  0  0  0  0  0  0  0
   12.1646  -16.4367   18.3785 O   0  0  0  0  0  0  0  0  0  0  0  0
   13.1003  -14.3817   18.2050 N   0  0  0  0  0  0  0  0  0  0  0  0
   14.4308  -14.8269   18.3737 C   0  0  1  0  0  0  0  0  0  0  0  0
   15.4669  -14.2126   17.4955 C   0  0  0  0  0  0  0  0  0  0  0  0
   15.4209  -14.8048   16.1299 C   0  0  0  0  0  0  0  0  0  0  0  0
   14.9274  -16.0337   15.7370 C   0  0  0  0  0  0  0  0  0  0  0  0
   15.0707  -16.1965   14.4046 N   0  0  0  0  0  0  0  0  0  0  0  0
   15.6537  -15.0730   13.9546 C   0  0  0  0  0  0  0  0  0  0  0  0
   15.8692  -14.2316   14.9748 N   0  0  0  0  0  0  0  0  0  0  0  0
   14.8199  -14.6968   19.8056 C   0  0  0  0  0  0  0  0  0  0  0  0
   14.7109  -13.5994   20.4096 O   0  0  0  0  0  0  0  0  0  0  0  0
   14.4548  -16.5783   25.0532 N   0  0  0  0  0  0  0  0  0  0  0  0
   15.4291  -16.9853   24.0739 C   0  0  0  0  0  0  0  0  0  0  0  0
   16.5157  -17.4671   24.4196 O   0  0  0  0  0  0  0  0  0  0  0  0
   15.0567  -16.7953   22.6716 C   0  0  0  0  0  0  0  0  0  0  0  0
   15.7521  -15.6889   21.9439 C   0  0  2  0  0  0  0  0  0  0  0  0
   15.3266  -15.8038   20.5380 N   0  0  0  0  0  0  0  0  0  0  0  0
   17.2077  -15.6633   22.0570 C   0  0  0  0  0  0  0  0  0  0  0  0
   17.9704  -16.0432   21.1409 O   0  0  0  0  0  0  0  0  0  0  0  0
   17.7511  -15.1808   23.2717 O   0  0  0  0  0  0  0  0  0  0  0  0
  2  3  1  0
  2  1  1  1
  4  8  1  0
  4  3  1  0
  5  4  2  0
  6  5  1  0
  6  7  1  0
  7  8  2  0
  9  2  1  0
 10  9  2  0
 11  9  1  0
 12 11  1  0
 13 14  1  0
 12 13  1  6
 14 15  2  0
 15 16  1  0
 17 16  1  0
 18 14  1  0
 18 17  2  0
 19 12  1  0
 19 26  1  0
 20 19  2  0
 22 21  1  0
 23 22  2  0
 24 22  1  0
 25 24  1  1
 25 27  1  0
 25 26  1  0
 27 29  1  0
 28 27  2  0
M  END
$$$$
