HHN.pdb
     RDKit          3D

 29 30  0  0  1  0  0  0  0  0999 V2000
   12.9612  -16.3444   18.6342 N   0  0  0  0  0  0  0  0  0  0  0  0
   13.2661  -15.3043   19.5678 C   0  0  1  0  0  0  0  0  0  0  0  0
   13.5156  -13.9811   18.8296 C   0  0  0  0  0  0  0  0  0  0  0  0
   14.6357  -14.0978   17.8855 C   0  0  0  0  0  0  0  0  0  0  0  0
   15.8285  -14.7325   18.1536 C   0  0  0  0  0  0  0  0  0  0  0  0
   16.6218  -14.6403   17.0483 N   0  0  0  0  0  0  0  0  0  0  0  0
   15.9248  -13.9540   16.1045 C   0  0  0  0  0  0  0  0  0  0  0  0
   14.7327  -13.6361   16.6261 N   0  0  0  0  0  0  0  0  0  0  0  0
   12.1880  -15.0699   20.5525 C   0  0  0  0  0  0  0  0  0  0  0  0
   12.3215  -14.1658   21.3977 O   0  0  0  0  0  0  0  0  0  0  0  0
   10.9840  -15.8145   20.6091 N   0  0  0  0  0  0  0  0  0  0  0  0
    9.9717  -15.6352   21.5786 C   0  0  1  0  0  0  0  0  0  0  0  0
    8.5640  -15.6012   21.0894 C   0  0  0  0  0  0  0  0  0  0  0  0
    8.4174  -14.6318   19.9684 C   0  0  0  0  0  0  0  0  0  0  0  0
    8.7111  -13.2821   19.9490 C   0  0  0  0  0  0  0  0  0  0  0  0
    8.4365  -12.7561   18.7364 N   0  0  0  0  0  0  0  0  0  0  0  0
    7.9698  -13.7706   17.9895 C   0  0  0  0  0  0  0  0  0  0  0  0
    7.9527  -14.8983   18.7127 N   0  0  0  0  0  0  0  0  0  0  0  0
   10.1244  -16.6578   22.6507 C   0  0  0  0  0  0  0  0  0  0  0  0
   10.8244  -17.6867   22.4701 O   0  0  0  0  0  0  0  0  0  0  0  0
    9.2541  -14.5231   26.7283 N   0  0  0  0  0  0  0  0  0  0  0  0
    9.8714  -15.8240   26.7037 C   0  0  0  0  0  0  0  0  0  0  0  0
   11.0366  -15.9827   27.0906 O   0  0  0  0  0  0  0  0  0  0  0  0
    9.0466  -16.9232   26.2013 C   0  0  0  0  0  0  0  0  0  0  0  0
    9.5039  -17.5705   24.9328 C   0  0  2  0  0  0  0  0  0  0  0  0
    9.4871  -16.5085   23.9117 N   0  0  0  0  0  0  0  0  0  0  0  0
    8.7408  -18.7368   24.4974 C   0  0  0  0  0  0  0  0  0  0  0  0
    8.0249  -18.7401   23.4713 O   0  0  0  0  0  0  0  0  0  0  0  0
    8.8357  -19.9029   25.2941 O   0  0  0  0  0  0  0  0  0  0  0  0
  2  3  1  0
  2  1  1  6
  4  8  1  0
  4  3  1  0
  5  4  2  0
  6  5  1  0
  6  7  1  0
  7  8  2  0
  9  2  1  0
 10  9  2  0
 11  9  1  0
 12 11  1  0
 13 14  1  0
 12 13  1  6
 14 15  2  0
 15 16  1  0
 17 16  1  0
 18 14  1  0
 18 17  2  0
 19 12  1  0
 19 26  1  0
 20 19  2  0
 22 21  1  0
 23 22  2  0
 24 22  1  0
 25 24  1  1
 25 27  1  0
 25 26  1  0
 27 29  1  0
 28 27  2  0
M  END
$$$$
