HHN.pdb
     RDKit          3D

 29 30  0  0  1  0  0  0  0  0999 V2000
   12.1586  -14.7752   18.4745 N   0  0  0  0  0  0  0  0  0  0  0  0
   12.9255  -15.2675   19.5771 C   0  0  1  0  0  0  0  0  0  0  0  0
   14.2218  -14.4584   19.7290 C   0  0  0  0  0  0  0  0  0  0  0  0
   15.1628  -14.7452   18.6373 C   0  0  0  0  0  0  0  0  0  0  0  0
   15.5665  -13.8342   17.6861 C   0  0  0  0  0  0  0  0  0  0  0  0
   16.4382  -14.4542   16.8404 N   0  0  0  0  0  0  0  0  0  0  0  0
   16.5723  -15.7383   17.2655 C   0  0  0  0  0  0  0  0  0  0  0  0
   15.7978  -15.8946   18.3472 N   0  0  0  0  0  0  0  0  0  0  0  0
   12.2036  -15.2002   20.8660 C   0  0  0  0  0  0  0  0  0  0  0  0
   11.7169  -14.1157   21.2353 O   0  0  0  0  0  0  0  0  0  0  0  0
   12.0188  -16.3037   21.7350 N   0  0  0  0  0  0  0  0  0  0  0  0
   11.3398  -16.2484   22.9730 C   0  0  1  0  0  0  0  0  0  0  0  0
    9.8878  -16.5860   22.9646 C   0  0  0  0  0  0  0  0  0  0  0  0
    9.5814  -17.5753   21.8945 C   0  0  0  0  0  0  0  0  0  0  0  0
   10.4170  -18.0749   20.9144 C   0  0  0  0  0  0  0  0  0  0  0  0
    9.7560  -18.9559   20.1339 N   0  0  0  0  0  0  0  0  0  0  0  0
    8.5044  -19.0142   20.6186 C   0  0  0  0  0  0  0  0  0  0  0  0
    8.3851  -18.1940   21.6713 N   0  0  0  0  0  0  0  0  0  0  0  0
   12.0615  -17.0838   23.9729 C   0  0  0  0  0  0  0  0  0  0  0  0
   12.6189  -18.1596   23.6370 O   0  0  0  0  0  0  0  0  0  0  0  0
   14.7136  -16.3139   25.3539 N   0  0  0  0  0  0  0  0  0  0  0  0
   14.5580  -16.2143   26.7822 C   0  0  0  0  0  0  0  0  0  0  0  0
   15.3874  -15.6067   27.4717 O   0  0  0  0  0  0  0  0  0  0  0  0
   13.3784  -16.8658   27.3524 C   0  0  0  0  0  0  0  0  0  0  0  0
   12.5240  -17.6427   26.4018 C   0  0  2  0  0  0  0  0  0  0  0  0
   12.1460  -16.6967   25.3373 N   0  0  0  0  0  0  0  0  0  0  0  0
   11.3488  -18.2894   26.9785 C   0  0  0  0  0  0  0  0  0  0  0  0
   10.1817  -17.8821   26.7853 O   0  0  0  0  0  0  0  0  0  0  0  0
   11.5727  -19.4279   27.7892 O   0  0  0  0  0  0  0  0  0  0  0  0
  2  3  1  0
  2  1  1  6
  4  8  1  0
  4  3  1  0
  5  4  2  0
  6  5  1  0
  6  7  1  0
  7  8  2  0
  9  2  1  0
 10  9  2  0
 11  9  1  0
 12 11  1  0
 13 14  1  0
 12 13  1  6
 14 15  2  0
 15 16  1  0
 17 16  1  0
 18 14  1  0
 18 17  2  0
 19 12  1  0
 19 26  1  0
 20 19  2  0
 22 21  1  0
 23 22  2  0
 24 22  1  0
 25 24  1  1
 25 27  1  0
 25 26  1  0
 27 29  1  0
 28 27  2  0
M  END
$$$$
