HHN.pdb
     RDKit          3D

 29 30  0  0  1  0  0  0  0  0999 V2000
   15.2475  -14.3053   17.2008 N   0  0  0  0  0  0  0  0  0  0  0  0
   13.8749  -14.6999   17.2809 C   0  0  1  0  0  0  0  0  0  0  0  0
   13.7259  -16.1871   16.9286 C   0  0  0  0  0  0  0  0  0  0  0  0
   13.8722  -16.4122   15.4838 C   0  0  0  0  0  0  0  0  0  0  0  0
   14.1660  -15.4332   14.5602 C   0  0  0  0  0  0  0  0  0  0  0  0
   14.2225  -16.0104   13.3260 N   0  0  0  0  0  0  0  0  0  0  0  0
   13.9656  -17.3356   13.4855 C   0  0  0  0  0  0  0  0  0  0  0  0
   13.7574  -17.5584   14.7898 N   0  0  0  0  0  0  0  0  0  0  0  0
   13.2873  -14.4978   18.6229 C   0  0  0  0  0  0  0  0  0  0  0  0
   13.9947  -14.6794   19.6308 O   0  0  0  0  0  0  0  0  0  0  0  0
   11.9466  -14.1033   18.8551 N   0  0  0  0  0  0  0  0  0  0  0  0
   11.3685  -13.9299   20.1328 C   0  0  1  0  0  0  0  0  0  0  0  0
   10.1816  -13.0326   20.2229 C   0  0  0  0  0  0  0  0  0  0  0  0
    9.1180  -13.4663   19.2750 C   0  0  0  0  0  0  0  0  0  0  0  0
    9.1712  -14.4517   18.3084 C   0  0  0  0  0  0  0  0  0  0  0  0
    7.9926  -14.5376   17.6557 N   0  0  0  0  0  0  0  0  0  0  0  0
    7.1947  -13.6085   18.2078 C   0  0  0  0  0  0  0  0  0  0  0  0
    7.8539  -12.9600   19.1774 N   0  0  0  0  0  0  0  0  0  0  0  0
   11.0584  -15.2622   20.7223 C   0  0  0  0  0  0  0  0  0  0  0  0
   10.3987  -16.1178   20.0790 O   0  0  0  0  0  0  0  0  0  0  0  0
   13.5608  -16.4332   24.3086 N   0  0  0  0  0  0  0  0  0  0  0  0
   13.7209  -17.0714   23.0276 C   0  0  0  0  0  0  0  0  0  0  0  0
   14.8169  -17.0770   22.4522 O   0  0  0  0  0  0  0  0  0  0  0  0
   12.5263  -17.7001   22.4630 C   0  0  0  0  0  0  0  0  0  0  0  0
   11.2448  -16.9431   22.6106 C   0  0  2  0  0  0  0  0  0  0  0  0
   11.4950  -15.6132   22.0280 N   0  0  0  0  0  0  0  0  0  0  0  0
   10.7161  -16.8367   23.9675 C   0  0  0  0  0  0  0  0  0  0  0  0
   10.5904  -15.7460   24.5676 O   0  0  0  0  0  0  0  0  0  0  0  0
   10.3369  -18.0409   24.6075 O   0  0  0  0  0  0  0  0  0  0  0  0
  2  3  1  0
  2  1  1  1
  4  8  1  0
  4  3  1  0
  5  4  2  0
  6  5  1  0
  6  7  1  0
  7  8  2  0
  9  2  1  0
 10  9  2  0
 11  9  1  0
 12 11  1  0
 13 14  1  0
 12 13  1  6
 14 15  2  0
 15 16  1  0
 17 16  1  0
 18 14  1  0
 18 17  2  0
 19 12  1  0
 19 26  1  0
 20 19  2  0
 22 21  1  0
 23 22  2  0
 24 22  1  0
 25 24  1  1
 25 27  1  0
 25 26  1  0
 27 29  1  0
 28 27  2  0
M  END
$$$$
