HHN.pdb
     RDKit          3D

 29 30  0  0  1  0  0  0  0  0999 V2000
   11.3366  -17.9333   16.7280 N   0  0  0  0  0  0  0  0  0  0  0  0
   11.9275  -18.5766   17.8608 C   0  0  1  0  0  0  0  0  0  0  0  0
   13.4178  -18.2199   17.9598 C   0  0  0  0  0  0  0  0  0  0  0  0
   14.2037  -18.9130   16.9295 C   0  0  0  0  0  0  0  0  0  0  0  0
   13.7559  -19.9810   16.1834 C   0  0  0  0  0  0  0  0  0  0  0  0
   14.7530  -20.3589   15.3333 N   0  0  0  0  0  0  0  0  0  0  0  0
   15.8086  -19.5310   15.5522 C   0  0  0  0  0  0  0  0  0  0  0  0
   15.4596  -18.6682   16.5155 N   0  0  0  0  0  0  0  0  0  0  0  0
   11.2923  -18.2007   19.1423 C   0  0  0  0  0  0  0  0  0  0  0  0
   11.0514  -17.0016   19.3736 O   0  0  0  0  0  0  0  0  0  0  0  0
   10.9276  -19.1244   20.1527 N   0  0  0  0  0  0  0  0  0  0  0  0
   10.3382  -18.7744   21.3883 C   0  0  1  0  0  0  0  0  0  0  0  0
    8.8488  -18.7727   21.4517 C   0  0  0  0  0  0  0  0  0  0  0  0
    8.2877  -19.9469   20.7276 C   0  0  0  0  0  0  0  0  0  0  0  0
    8.9556  -20.9172   20.0060 C   0  0  0  0  0  0  0  0  0  0  0  0
    8.0831  -21.8150   19.5009 N   0  0  0  0  0  0  0  0  0  0  0  0
    6.8651  -21.4141   19.9018 C   0  0  0  0  0  0  0  0  0  0  0  0
    6.9717  -20.2985   20.6361 N   0  0  0  0  0  0  0  0  0  0  0  0
   10.9030  -19.6308   22.4681 C   0  0  0  0  0  0  0  0  0  0  0  0
   11.4985  -20.7050   22.1985 O   0  0  0  0  0  0  0  0  0  0  0  0
   13.6863  -21.3606   26.5153 N   0  0  0  0  0  0  0  0  0  0  0  0
   12.9311  -20.1590   26.7596 C   0  0  0  0  0  0  0  0  0  0  0  0
   12.7727  -19.7299   27.9100 O   0  0  0  0  0  0  0  0  0  0  0  0
   12.3748  -19.4925   25.5817 C   0  0  0  0  0  0  0  0  0  0  0  0
   11.2094  -20.1639   24.9273 C   0  0  2  0  0  0  0  0  0  0  0  0
   10.7899  -19.2665   23.8367 N   0  0  0  0  0  0  0  0  0  0  0  0
   10.0880  -20.4967   25.8013 C   0  0  0  0  0  0  0  0  0  0  0  0
    9.0472  -19.8056   25.8695 O   0  0  0  0  0  0  0  0  0  0  0  0
   10.2141  -21.6611   26.5961 O   0  0  0  0  0  0  0  0  0  0  0  0
  2  3  1  0
  2  1  1  6
  4  8  1  0
  4  3  1  0
  5  4  2  0
  6  5  1  0
  6  7  1  0
  7  8  2  0
  9  2  1  0
 10  9  2  0
 11  9  1  0
 12 11  1  0
 13 14  1  0
 12 13  1  6
 14 15  2  0
 15 16  1  0
 17 16  1  0
 18 14  1  0
 18 17  2  0
 19 12  1  0
 19 26  1  0
 20 19  2  0
 22 21  1  0
 23 22  2  0
 24 22  1  0
 25 24  1  1
 25 27  1  0
 25 26  1  0
 27 29  1  0
 28 27  2  0
M  END
$$$$
