HHN.pdb
     RDKit          3D

 29 30  0  0  1  0  0  0  0  0999 V2000
    9.9335  -15.7626   17.5817 N   0  0  0  0  0  0  0  0  0  0  0  0
   10.7494  -14.7732   18.2154 C   0  0  1  0  0  0  0  0  0  0  0  0
   10.1093  -14.3192   19.5353 C   0  0  0  0  0  0  0  0  0  0  0  0
    8.7654  -13.7665   19.3162 C   0  0  0  0  0  0  0  0  0  0  0  0
    8.1334  -13.6942   18.0943 C   0  0  0  0  0  0  0  0  0  0  0  0
    6.9075  -13.1258   18.2779 N   0  0  0  0  0  0  0  0  0  0  0  0
    6.7828  -12.8490   19.6029 C   0  0  0  0  0  0  0  0  0  0  0  0
    7.9099  -13.2413   20.2111 N   0  0  0  0  0  0  0  0  0  0  0  0
   12.1144  -15.2523   18.5227 C   0  0  0  0  0  0  0  0  0  0  0  0
   12.2875  -16.4492   18.8173 O   0  0  0  0  0  0  0  0  0  0  0  0
   13.2696  -14.4324   18.5070 N   0  0  0  0  0  0  0  0  0  0  0  0
   14.5795  -14.8821   18.7875 C   0  0  1  0  0  0  0  0  0  0  0  0
   15.6880  -14.2730   17.9986 C   0  0  0  0  0  0  0  0  0  0  0  0
   15.7561  -14.8691   16.6355 C   0  0  0  0  0  0  0  0  0  0  0  0
   15.4198  -16.1471   16.2333 C   0  0  0  0  0  0  0  0  0  0  0  0
   15.6257  -16.2948   14.9074 N   0  0  0  0  0  0  0  0  0  0  0  0
   16.0914  -15.1128   14.4707 C   0  0  0  0  0  0  0  0  0  0  0  0
   16.1747  -14.2505   15.4928 N   0  0  0  0  0  0  0  0  0  0  0  0
   14.8475  -14.7510   20.2468 C   0  0  0  0  0  0  0  0  0  0  0  0
   14.9765  -13.6211   20.7831 O   0  0  0  0  0  0  0  0  0  0  0  0
   12.4812  -15.6690   22.4770 N   0  0  0  0  0  0  0  0  0  0  0  0
   13.0354  -16.8288   23.1264 C   0  0  0  0  0  0  0  0  0  0  0  0
   12.3000  -17.6959   23.6163 O   0  0  0  0  0  0  0  0  0  0  0  0
   14.4956  -16.9126   23.1678 C   0  0  0  0  0  0  0  0  0  0  0  0
   15.2438  -15.7877   22.5258 C   0  0  2  0  0  0  0  0  0  0  0  0
   14.9668  -15.8937   21.0826 N   0  0  0  0  0  0  0  0  0  0  0  0
   16.6794  -15.7409   22.7883 C   0  0  0  0  0  0  0  0  0  0  0  0
   17.5391  -16.0786   21.9443 O   0  0  0  0  0  0  0  0  0  0  0  0
   17.0862  -15.2879   24.0661 O   0  0  0  0  0  0  0  0  0  0  0  0
  2  3  1  0
  2  1  1  1
  4  8  1  0
  4  3  1  0
  5  4  2  0
  6  5  1  0
  6  7  1  0
  7  8  2  0
  9  2  1  0
 10  9  2  0
 11  9  1  0
 12 11  1  0
 13 14  1  0
 12 13  1  6
 14 15  2  0
 15 16  1  0
 17 16  1  0
 18 14  1  0
 18 17  2  0
 19 12  1  0
 19 26  1  0
 20 19  2  0
 22 21  1  0
 23 22  2  0
 24 22  1  0
 25 24  1  1
 25 27  1  0
 25 26  1  0
 27 29  1  0
 28 27  2  0
M  END
$$$$
