SYE.pdb
     RDKit          3D

 28 28  0  0  1  0  0  0  0  0999 V2000
    9.3734  -19.4367   18.5476 O   0  0  0  0  0  0  0  0  0  0  0  0
    8.9698  -18.6483   19.6328 C   0  0  0  0  0  0  0  0  0  0  0  0
    9.0242  -17.1797   19.2431 C   0  0  2  0  0  0  0  0  0  0  0  0
   10.1140  -16.9572   18.3419 N   0  0  0  0  0  0  0  0  0  0  0  0
    9.1655  -16.4125   20.5108 C   0  0  0  0  0  0  0  0  0  0  0  0
   10.3246  -16.1671   20.9336 O   0  0  0  0  0  0  0  0  0  0  0  0
    7.2320  -11.8255   27.8143 O   0  0  0  0  0  0  0  0  0  0  0  0
    7.1395  -12.5541   26.6349 C   0  0  0  0  0  0  0  0  0  0  0  0
    7.7732  -12.0803   25.5064 C   0  0  0  0  0  0  0  0  0  0  0  0
    7.7097  -12.7778   24.2942 C   0  0  0  0  0  0  0  0  0  0  0  0
    7.0136  -13.9541   24.1961 C   0  0  0  0  0  0  0  0  0  0  0  0
    6.9203  -14.7109   22.9334 C   0  0  0  0  0  0  0  0  0  0  0  0
    8.2650  -15.2687   22.5475 C   0  0  2  0  0  0  0  0  0  0  0  0
    8.0621  -15.9438   21.2670 N   0  0  0  0  0  0  0  0  0  0  0  0
    8.7139  -16.2338   23.5484 C   0  0  0  0  0  0  0  0  0  0  0  0
    8.2023  -17.3687   23.7243 O   0  0  0  0  0  0  0  0  0  0  0  0
    6.3819  -14.4185   25.3377 C   0  0  0  0  0  0  0  0  0  0  0  0
    6.4420  -13.7340   26.5348 C   0  0  0  0  0  0  0  0  0  0  0  0
    9.8011  -15.8861   24.3905 N   0  0  0  0  0  0  0  0  0  0  0  0
   10.3113  -16.8529   25.3397 C   0  0  1  0  0  0  0  0  0  0  0  0
   11.7940  -16.9317   25.1056 C   0  0  0  0  0  0  0  0  0  0  0  0
   12.1788  -17.6185   23.8428 C   0  0  0  0  0  0  0  0  0  0  0  0
   13.6500  -17.5868   23.6831 C   0  0  0  0  0  0  0  0  0  0  0  0
   14.2919  -16.5628   24.0045 O   0  0  0  0  0  0  0  0  0  0  0  0
    9.9296  -16.4106   26.6938 C   0  0  0  0  0  0  0  0  0  0  0  0
   10.2276  -17.1420   27.6662 O   0  0  0  0  0  0  0  0  0  0  0  0
   14.3722  -18.6701   23.1791 O   0  0  0  0  0  0  0  0  0  0  0  0
    9.2576  -15.2339   26.9884 O   0  0  0  0  0  0  0  0  0  0  0  0
  2  1  1  0
  3  4  1  6
  3  2  1  0
  5  3  1  0
  6  5  2  0
  8  7  1  0
  9  8  2  0
 10  9  1  0
 11 17  1  0
 11 10  2  0
 12 11  1  0
 13 12  1  1
 13 15  1  0
 13 14  1  0
 14  5  1  0
 15 16  2  0
 17 18  2  0
 18  8  1  0
 19 20  1  0
 19 15  1  0
 20 25  1  0
 20 21  1  1
 22 21  1  0
 23 24  2  0
 23 22  1  0
 25 26  2  0
 25 28  1  0
 27 23  1  0
M  END
$$$$
