SYE.pdb
     RDKit          3D

 28 28  0  0  1  0  0  0  0  0999 V2000
    7.6842  -16.6477   19.9535 O   0  0  0  0  0  0  0  0  0  0  0  0
    6.6223  -15.8469   20.3929 C   0  0  0  0  0  0  0  0  0  0  0  0
    7.1407  -14.4610   20.7427 C   0  0  2  0  0  0  0  0  0  0  0  0
    7.7922  -13.8858   19.6051 N   0  0  0  0  0  0  0  0  0  0  0  0
    8.0601  -14.6350   21.9002 C   0  0  0  0  0  0  0  0  0  0  0  0
    9.2975  -14.6802   21.6778 O   0  0  0  0  0  0  0  0  0  0  0  0
   11.1844  -14.7104   30.1405 O   0  0  0  0  0  0  0  0  0  0  0  0
   10.3567  -14.6514   29.0261 C   0  0  0  0  0  0  0  0  0  0  0  0
    9.7100  -15.7966   28.6140 C   0  0  0  0  0  0  0  0  0  0  0  0
    8.8656  -15.7886   27.4973 C   0  0  0  0  0  0  0  0  0  0  0  0
    8.6585  -14.6387   26.7813 C   0  0  0  0  0  0  0  0  0  0  0  0
    7.7813  -14.5963   25.5961 C   0  0  0  0  0  0  0  0  0  0  0  0
    8.5710  -14.8585   24.3408 C   0  0  2  0  0  0  0  0  0  0  0  0
    7.6145  -14.7526   23.2406 N   0  0  0  0  0  0  0  0  0  0  0  0
    9.1359  -16.2055   24.3755 C   0  0  0  0  0  0  0  0  0  0  0  0
    8.4743  -17.2608   24.2042 O   0  0  0  0  0  0  0  0  0  0  0  0
    9.3144  -13.4956   27.2067 C   0  0  0  0  0  0  0  0  0  0  0  0
   10.1477  -13.4990   28.3071 C   0  0  0  0  0  0  0  0  0  0  0  0
   10.5254  -16.3556   24.6179 N   0  0  0  0  0  0  0  0  0  0  0  0
   11.1211  -17.6746   24.5857 C   0  0  1  0  0  0  0  0  0  0  0  0
   12.3328  -17.5687   23.7024 C   0  0  0  0  0  0  0  0  0  0  0  0
   12.1203  -18.0523   22.3112 C   0  0  0  0  0  0  0  0  0  0  0  0
   13.2399  -17.6095   21.4501 C   0  0  0  0  0  0  0  0  0  0  0  0
   14.4138  -17.9328   21.7352 O   0  0  0  0  0  0  0  0  0  0  0  0
   11.4109  -18.0802   25.9737 C   0  0  0  0  0  0  0  0  0  0  0  0
   11.9568  -19.1906   26.1689 O   0  0  0  0  0  0  0  0  0  0  0  0
   13.0438  -16.8302   20.3085 O   0  0  0  0  0  0  0  0  0  0  0  0
   11.1266  -17.3244   27.1011 O   0  0  0  0  0  0  0  0  0  0  0  0
  2  1  1  0
  3  4  1  6
  3  2  1  0
  5  3  1  0
  6  5  2  0
  8  7  1  0
  9  8  2  0
 10  9  1  0
 11 17  1  0
 11 10  2  0
 12 11  1  0
 13 12  1  1
 13 15  1  0
 13 14  1  0
 14  5  1  0
 15 16  2  0
 17 18  2  0
 18  8  1  0
 19 20  1  0
 19 15  1  0
 20 25  1  0
 20 21  1  6
 22 21  1  0
 23 24  2  0
 23 22  1  0
 25 26  2  0
 25 28  1  0
 27 23  1  0
M  END
$$$$
