SYE.pdb
     RDKit          3D

 28 28  0  0  1  0  0  0  0  0999 V2000
    9.2275  -18.5397   20.3980 O   0  0  0  0  0  0  0  0  0  0  0  0
    8.0324  -17.8101   20.4360 C   0  0  0  0  0  0  0  0  0  0  0  0
    8.3422  -16.3225   20.3838 C   0  0  2  0  0  0  0  0  0  0  0  0
    9.1283  -16.0315   19.2234 N   0  0  0  0  0  0  0  0  0  0  0  0
    9.0512  -15.9953   21.6510 C   0  0  0  0  0  0  0  0  0  0  0  0
   10.3088  -15.9632   21.6399 O   0  0  0  0  0  0  0  0  0  0  0  0
   10.5682  -14.2257   30.1808 O   0  0  0  0  0  0  0  0  0  0  0  0
    9.9656  -14.4590   28.9509 C   0  0  0  0  0  0  0  0  0  0  0  0
    9.8425  -13.4149   28.0596 C   0  0  0  0  0  0  0  0  0  0  0  0
    9.2430  -13.5992   26.8079 C   0  0  0  0  0  0  0  0  0  0  0  0
    8.7606  -14.8259   26.4336 C   0  0  0  0  0  0  0  0  0  0  0  0
    8.1172  -15.0536   25.1259 C   0  0  0  0  0  0  0  0  0  0  0  0
    9.1385  -15.4520   24.0932 C   0  0  2  0  0  0  0  0  0  0  0  0
    8.3836  -15.7178   22.8701 N   0  0  0  0  0  0  0  0  0  0  0  0
    9.8341  -16.6649   24.5172 C   0  0  0  0  0  0  0  0  0  0  0  0
    9.3230  -17.8136   24.5264 O   0  0  0  0  0  0  0  0  0  0  0  0
    8.8911  -15.8658   27.3388 C   0  0  0  0  0  0  0  0  0  0  0  0
    9.4816  -15.6887   28.5738 C   0  0  0  0  0  0  0  0  0  0  0  0
   11.1802  -16.5616   24.9525 N   0  0  0  0  0  0  0  0  0  0  0  0
   11.9376  -17.7629   25.2335 C   0  0  1  0  0  0  0  0  0  0  0  0
   13.1979  -17.6667   24.4197 C   0  0  0  0  0  0  0  0  0  0  0  0
   14.0300  -16.4699   24.7189 C   0  0  0  0  0  0  0  0  0  0  0  0
   15.1650  -16.3988   23.7713 C   0  0  0  0  0  0  0  0  0  0  0  0
   15.2252  -17.1929   22.8072 O   0  0  0  0  0  0  0  0  0  0  0  0
   12.1556  -17.8366   26.6902 C   0  0  0  0  0  0  0  0  0  0  0  0
   11.7724  -16.8780   27.3998 O   0  0  0  0  0  0  0  0  0  0  0  0
   16.1952  -15.4661   23.9053 O   0  0  0  0  0  0  0  0  0  0  0  0
   12.7584  -18.8946   27.3536 O   0  0  0  0  0  0  0  0  0  0  0  0
  2  1  1  0
  3  4  1  6
  3  2  1  0
  5  3  1  0
  6  5  2  0
  8  7  1  0
  9  8  2  0
 10  9  1  0
 11 17  1  0
 11 10  2  0
 12 11  1  0
 13 12  1  1
 13 15  1  0
 13 14  1  0
 14  5  1  0
 15 16  2  0
 17 18  2  0
 18  8  1  0
 19 20  1  0
 19 15  1  0
 20 25  1  0
 20 21  1  6
 22 21  1  0
 23 24  2  0
 23 22  1  0
 25 26  2  0
 25 28  1  0
 27 23  1  0
M  END
$$$$
