SYE.pdb
     RDKit          3D

 28 28  0  0  1  0  0  0  0  0999 V2000
   10.2398  -18.7951   20.1932 O   0  0  0  0  0  0  0  0  0  0  0  0
    9.1852  -18.2473   19.4518 C   0  0  0  0  0  0  0  0  0  0  0  0
    9.4233  -16.7592   19.2507 C   0  0  2  0  0  0  0  0  0  0  0  0
   10.6557  -16.5556   18.5513 N   0  0  0  0  0  0  0  0  0  0  0  0
    9.4283  -16.1464   20.6072 C   0  0  0  0  0  0  0  0  0  0  0  0
   10.5376  -15.8838   21.1391 O   0  0  0  0  0  0  0  0  0  0  0  0
    6.6360  -12.1076   27.9616 O   0  0  0  0  0  0  0  0  0  0  0  0
    6.6885  -12.7842   26.7492 C   0  0  0  0  0  0  0  0  0  0  0  0
    7.2367  -12.1507   25.6548 C   0  0  0  0  0  0  0  0  0  0  0  0
    7.3124  -12.7901   24.4115 C   0  0  0  0  0  0  0  0  0  0  0  0
    6.8420  -14.0666   24.2482 C   0  0  0  0  0  0  0  0  0  0  0  0
    6.8995  -14.7671   22.9513 C   0  0  0  0  0  0  0  0  0  0  0  0
    8.3164  -15.1553   22.6193 C   0  0  2  0  0  0  0  0  0  0  0  0
    8.2482  -15.8431   21.3313 N   0  0  0  0  0  0  0  0  0  0  0  0
    8.8392  -16.0641   23.6369 C   0  0  0  0  0  0  0  0  0  0  0  0
    8.5708  -17.2905   23.7033 O   0  0  0  0  0  0  0  0  0  0  0  0
    6.2939  -14.6911   25.3561 C   0  0  0  0  0  0  0  0  0  0  0  0
    6.2174  -14.0646   26.5837 C   0  0  0  0  0  0  0  0  0  0  0  0
    9.7121  -15.5471   24.6283 N   0  0  0  0  0  0  0  0  0  0  0  0
   10.5283  -16.4529   25.4088 C   0  0  1  0  0  0  0  0  0  0  0  0
   11.9426  -16.2580   24.9384 C   0  0  0  0  0  0  0  0  0  0  0  0
   12.5976  -17.4969   24.4381 C   0  0  0  0  0  0  0  0  0  0  0  0
   13.9903  -17.1996   24.0342 C   0  0  0  0  0  0  0  0  0  0  0  0
   14.4584  -16.0521   24.2014 O   0  0  0  0  0  0  0  0  0  0  0  0
   10.3122  -16.1499   26.8359 C   0  0  0  0  0  0  0  0  0  0  0  0
   10.8624  -16.8817   27.6909 O   0  0  0  0  0  0  0  0  0  0  0  0
   14.8257  -18.1609   23.4624 O   0  0  0  0  0  0  0  0  0  0  0  0
    9.5391  -15.1059   27.3211 O   0  0  0  0  0  0  0  0  0  0  0  0
  2  1  1  0
  3  4  1  1
  3  2  1  0
  5  3  1  0
  6  5  2  0
  8  7  1  0
  9  8  2  0
 10  9  1  0
 11 17  1  0
 11 10  2  0
 12 11  1  0
 13 12  1  1
 13 15  1  0
 13 14  1  0
 14  5  1  0
 15 16  2  0
 17 18  2  0
 18  8  1  0
 19 20  1  0
 19 15  1  0
 20 25  1  0
 20 21  1  6
 22 21  1  0
 23 24  2  0
 23 22  1  0
 25 26  2  0
 25 28  1  0
 27 23  1  0
M  END
$$$$
