SYE.pdb
     RDKit          3D

 28 28  0  0  1  0  0  0  0  0999 V2000
    8.5344  -19.3186   20.4769 O   0  0  0  0  0  0  0  0  0  0  0  0
    9.3667  -18.7692   19.4933 C   0  0  0  0  0  0  0  0  0  0  0  0
    8.9665  -17.3251   19.2363 C   0  0  2  0  0  0  0  0  0  0  0  0
    9.8087  -16.7612   18.2254 N   0  0  0  0  0  0  0  0  0  0  0  0
    9.0858  -16.6167   20.5400 C   0  0  0  0  0  0  0  0  0  0  0  0
   10.2346  -16.3027   20.9453 O   0  0  0  0  0  0  0  0  0  0  0  0
    6.9941  -11.8833   27.6926 O   0  0  0  0  0  0  0  0  0  0  0  0
    6.9303  -12.6746   26.5524 C   0  0  0  0  0  0  0  0  0  0  0  0
    7.4365  -12.1817   25.3690 C   0  0  0  0  0  0  0  0  0  0  0  0
    7.3957  -12.9402   24.1929 C   0  0  0  0  0  0  0  0  0  0  0  0
    6.8496  -14.1969   24.1861 C   0  0  0  0  0  0  0  0  0  0  0  0
    6.7840  -15.0203   22.9639 C   0  0  0  0  0  0  0  0  0  0  0  0
    8.1514  -15.5311   22.5931 C   0  0  2  0  0  0  0  0  0  0  0  0
    7.9727  -16.2772   21.3490 N   0  0  0  0  0  0  0  0  0  0  0  0
    8.6536  -16.4231   23.6356 C   0  0  0  0  0  0  0  0  0  0  0  0
    8.2114  -17.5786   23.8592 O   0  0  0  0  0  0  0  0  0  0  0  0
    6.3449  -14.6796   25.3820 C   0  0  0  0  0  0  0  0  0  0  0  0
    6.3832  -13.9353   26.5438 C   0  0  0  0  0  0  0  0  0  0  0  0
    9.7135  -15.9738   24.4644 N   0  0  0  0  0  0  0  0  0  0  0  0
   10.2642  -16.8595   25.4684 C   0  0  1  0  0  0  0  0  0  0  0  0
   11.7478  -16.8973   25.2293 C   0  0  0  0  0  0  0  0  0  0  0  0
   12.1364  -17.3364   23.8617 C   0  0  0  0  0  0  0  0  0  0  0  0
   13.6118  -17.3681   23.7457 C   0  0  0  0  0  0  0  0  0  0  0  0
   14.2488  -18.3682   24.1430 O   0  0  0  0  0  0  0  0  0  0  0  0
    9.8724  -16.3480   26.7950 C   0  0  0  0  0  0  0  0  0  0  0  0
    9.4789  -15.1620   26.8844 O   0  0  0  0  0  0  0  0  0  0  0  0
   14.3432  -16.3108   23.2014 O   0  0  0  0  0  0  0  0  0  0  0  0
    9.9021  -17.0799   27.9724 O   0  0  0  0  0  0  0  0  0  0  0  0
  2  1  1  0
  3  4  1  6
  3  2  1  0
  5  3  1  0
  6  5  2  0
  8  7  1  0
  9  8  2  0
 10  9  1  0
 11 17  1  0
 11 10  2  0
 12 11  1  0
 13 12  1  1
 13 15  1  0
 13 14  1  0
 14  5  1  0
 15 16  2  0
 17 18  2  0
 18  8  1  0
 19 20  1  0
 19 15  1  0
 20 25  1  0
 20 21  1  1
 22 21  1  0
 23 24  2  0
 23 22  1  0
 25 26  2  0
 25 28  1  0
 27 23  1  0
M  END
$$$$
