SYE.pdb
     RDKit          3D

 28 28  0  0  1  0  0  0  0  0999 V2000
    8.3506  -17.3187   20.2748 O   0  0  0  0  0  0  0  0  0  0  0  0
    7.2841  -16.4164   20.3782 C   0  0  0  0  0  0  0  0  0  0  0  0
    7.8248  -15.0116   20.5925 C   0  0  2  0  0  0  0  0  0  0  0  0
    8.6038  -14.6139   19.4591 N   0  0  0  0  0  0  0  0  0  0  0  0
    8.6232  -15.0546   21.8479 C   0  0  0  0  0  0  0  0  0  0  0  0
    9.8755  -15.1318   21.7561 O   0  0  0  0  0  0  0  0  0  0  0  0
   10.8350  -14.6947   30.3946 O   0  0  0  0  0  0  0  0  0  0  0  0
   10.1269  -14.7473   29.2003 C   0  0  0  0  0  0  0  0  0  0  0  0
   10.0553  -13.6157   28.4168 C   0  0  0  0  0  0  0  0  0  0  0  0
    9.3540  -13.6180   27.2050 C   0  0  0  0  0  0  0  0  0  0  0  0
    8.7176  -14.7484   26.7637 C   0  0  0  0  0  0  0  0  0  0  0  0
    7.9643  -14.7839   25.4960 C   0  0  0  0  0  0  0  0  0  0  0  0
    8.8860  -15.0605   24.3375 C   0  0  2  0  0  0  0  0  0  0  0  0
    8.0464  -15.0130   23.1419 N   0  0  0  0  0  0  0  0  0  0  0  0
    9.4771  -16.3898   24.4728 C   0  0  0  0  0  0  0  0  0  0  0  0
    8.8623  -17.4675   24.2698 O   0  0  0  0  0  0  0  0  0  0  0  0
    8.7979  -15.8780   27.5609 C   0  0  0  0  0  0  0  0  0  0  0  0
    9.4883  -15.8802   28.7562 C   0  0  0  0  0  0  0  0  0  0  0  0
   10.8380  -16.4942   24.8592 N   0  0  0  0  0  0  0  0  0  0  0  0
   11.4437  -17.8008   25.0069 C   0  0  1  0  0  0  0  0  0  0  0  0
   12.7433  -17.7507   24.2531 C   0  0  0  0  0  0  0  0  0  0  0  0
   12.5922  -17.5708   22.7837 C   0  0  0  0  0  0  0  0  0  0  0  0
   13.9268  -17.4752   22.1505 C   0  0  0  0  0  0  0  0  0  0  0  0
   14.3712  -18.4333   21.4810 O   0  0  0  0  0  0  0  0  0  0  0  0
   11.5841  -18.0801   26.4481 C   0  0  0  0  0  0  0  0  0  0  0  0
   11.3429  -19.2393   26.8572 O   0  0  0  0  0  0  0  0  0  0  0  0
   14.7318  -16.3406   22.2676 O   0  0  0  0  0  0  0  0  0  0  0  0
   11.9674  -17.1537   27.4062 O   0  0  0  0  0  0  0  0  0  0  0  0
  2  1  1  0
  3  4  1  6
  3  2  1  0
  5  3  1  0
  6  5  2  0
  8  7  1  0
  9  8  2  0
 10  9  1  0
 11 17  1  0
 11 10  2  0
 12 11  1  0
 13 12  1  1
 13 15  1  0
 13 14  1  0
 14  5  1  0
 15 16  2  0
 17 18  2  0
 18  8  1  0
 19 20  1  0
 19 15  1  0
 20 25  1  0
 20 21  1  6
 22 21  1  0
 23 24  2  0
 23 22  1  0
 25 26  2  0
 25 28  1  0
 27 23  1  0
M  END
$$$$
