SYE.pdb
     RDKit          3D

 28 28  0  0  1  0  0  0  0  0999 V2000
    8.9560  -17.7477   19.8420 O   0  0  0  0  0  0  0  0  0  0  0  0
    7.7652  -17.1067   20.2069 C   0  0  0  0  0  0  0  0  0  0  0  0
    8.0108  -15.6120   20.3374 C   0  0  2  0  0  0  0  0  0  0  0  0
    8.7487  -15.1412   19.2046 N   0  0  0  0  0  0  0  0  0  0  0  0
    8.7434  -15.4159   21.6181 C   0  0  0  0  0  0  0  0  0  0  0  0
    9.9893  -15.2472   21.5729 O   0  0  0  0  0  0  0  0  0  0  0  0
   10.4633  -14.1610   30.1928 O   0  0  0  0  0  0  0  0  0  0  0  0
    9.8321  -14.4048   28.9793 C   0  0  0  0  0  0  0  0  0  0  0  0
    9.5515  -13.3421   28.1478 C   0  0  0  0  0  0  0  0  0  0  0  0
    8.9169  -13.5360   26.9150 C   0  0  0  0  0  0  0  0  0  0  0  0
    8.5562  -14.7912   26.5002 C   0  0  0  0  0  0  0  0  0  0  0  0
    7.8802  -15.0305   25.2112 C   0  0  0  0  0  0  0  0  0  0  0  0
    8.8891  -15.2253   24.1100 C   0  0  2  0  0  0  0  0  0  0  0  0
    8.1108  -15.4091   22.8865 N   0  0  0  0  0  0  0  0  0  0  0  0
    9.6905  -16.4191   24.3691 C   0  0  0  0  0  0  0  0  0  0  0  0
    9.2844  -17.5985   24.2116 O   0  0  0  0  0  0  0  0  0  0  0  0
    8.8443  -15.8496   27.3455 C   0  0  0  0  0  0  0  0  0  0  0  0
    9.4699  -15.6630   28.5617 C   0  0  0  0  0  0  0  0  0  0  0  0
   11.0221  -16.2588   24.8310 N   0  0  0  0  0  0  0  0  0  0  0  0
   11.8499  -17.4255   25.0532 C   0  0  1  0  0  0  0  0  0  0  0  0
   13.2295  -17.0597   24.5815 C   0  0  0  0  0  0  0  0  0  0  0  0
   13.3814  -17.0246   23.1017 C   0  0  0  0  0  0  0  0  0  0  0  0
   14.7689  -16.6486   22.7488 C   0  0  0  0  0  0  0  0  0  0  0  0
   15.3023  -17.1200   21.7207 O   0  0  0  0  0  0  0  0  0  0  0  0
   11.7672  -17.7802   26.4823 C   0  0  0  0  0  0  0  0  0  0  0  0
   11.6921  -18.9915   26.7926 O   0  0  0  0  0  0  0  0  0  0  0  0
   15.5282  -15.7725   23.5267 O   0  0  0  0  0  0  0  0  0  0  0  0
   11.7659  -16.8722   27.5304 O   0  0  0  0  0  0  0  0  0  0  0  0
  2  1  1  0
  3  4  1  6
  3  2  1  0
  5  3  1  0
  6  5  2  0
  8  7  1  0
  9  8  2  0
 10  9  1  0
 11 17  1  0
 11 10  2  0
 12 11  1  0
 13 12  1  1
 13 15  1  0
 13 14  1  0
 14  5  1  0
 15 16  2  0
 17 18  2  0
 18  8  1  0
 19 20  1  0
 19 15  1  0
 20 25  1  0
 20 21  1  1
 22 21  1  0
 23 24  2  0
 23 22  1  0
 25 26  2  0
 25 28  1  0
 27 23  1  0
M  END
$$$$
