SYE.pdb
     RDKit          3D

 28 28  0  0  1  0  0  0  0  0999 V2000
    9.7810  -19.0923   19.7768 O   0  0  0  0  0  0  0  0  0  0  0  0
    8.7693  -18.1375   19.6126 C   0  0  0  0  0  0  0  0  0  0  0  0
    9.3915  -16.7611   19.4394 C   0  0  2  0  0  0  0  0  0  0  0  0
   10.6944  -16.8875   18.8598 N   0  0  0  0  0  0  0  0  0  0  0  0
    9.4257  -16.1412   20.7922 C   0  0  0  0  0  0  0  0  0  0  0  0
   10.4930  -16.2127   21.4544 O   0  0  0  0  0  0  0  0  0  0  0  0
    6.8106  -12.1934   28.2616 O   0  0  0  0  0  0  0  0  0  0  0  0
    6.8715  -12.6990   26.9688 C   0  0  0  0  0  0  0  0  0  0  0  0
    7.6425  -12.0449   26.0323 C   0  0  0  0  0  0  0  0  0  0  0  0
    7.7363  -12.5147   24.7167 C   0  0  0  0  0  0  0  0  0  0  0  0
    7.0620  -13.6407   24.3231 C   0  0  0  0  0  0  0  0  0  0  0  0
    7.1328  -14.1592   22.9440 C   0  0  0  0  0  0  0  0  0  0  0  0
    8.3793  -14.9816   22.7486 C   0  0  2  0  0  0  0  0  0  0  0  0
    8.3185  -15.4742   21.3738 N   0  0  0  0  0  0  0  0  0  0  0  0
    8.3868  -16.1097   23.6771 C   0  0  0  0  0  0  0  0  0  0  0  0
    7.5963  -17.0856   23.6197 O   0  0  0  0  0  0  0  0  0  0  0  0
    6.2912  -14.2879   25.2744 C   0  0  0  0  0  0  0  0  0  0  0  0
    6.1960  -13.8283   26.5725 C   0  0  0  0  0  0  0  0  0  0  0  0
    9.3445  -16.1245   24.7234 N   0  0  0  0  0  0  0  0  0  0  0  0
    9.3594  -17.2224   25.6669 C   0  0  1  0  0  0  0  0  0  0  0  0
   10.3594  -18.2150   25.1431 C   0  0  0  0  0  0  0  0  0  0  0  0
   11.7470  -17.6881   25.0370 C   0  0  0  0  0  0  0  0  0  0  0  0
   12.6502  -18.7508   24.5410 C   0  0  0  0  0  0  0  0  0  0  0  0
   12.2803  -19.9452   24.5605 O   0  0  0  0  0  0  0  0  0  0  0  0
    9.6805  -16.6771   26.9990 C   0  0  0  0  0  0  0  0  0  0  0  0
   10.0148  -15.4729   27.0857 O   0  0  0  0  0  0  0  0  0  0  0  0
   13.9247  -18.4774   24.0410 O   0  0  0  0  0  0  0  0  0  0  0  0
    9.6432  -17.3953   28.1847 O   0  0  0  0  0  0  0  0  0  0  0  0
  2  1  1  0
  3  4  1  1
  3  2  1  0
  5  3  1  0
  6  5  2  0
  8  7  1  0
  9  8  2  0
 10  9  1  0
 11 17  1  0
 11 10  2  0
 12 11  1  0
 13 12  1  1
 13 15  1  0
 13 14  1  0
 14  5  1  0
 15 16  2  0
 17 18  2  0
 18  8  1  0
 19 20  1  0
 19 15  1  0
 20 25  1  0
 20 21  1  6
 22 21  1  0
 23 24  2  0
 23 22  1  0
 25 26  2  0
 25 28  1  0
 27 23  1  0
M  END
$$$$
