SYE.pdb
     RDKit          3D

 28 28  0  0  1  0  0  0  0  0999 V2000
    7.6885  -16.7329   20.1836 O   0  0  0  0  0  0  0  0  0  0  0  0
    6.6519  -15.8551   20.5258 C   0  0  0  0  0  0  0  0  0  0  0  0
    7.2274  -14.4803   20.8265 C   0  0  2  0  0  0  0  0  0  0  0  0
    7.9448  -13.9951   19.6867 N   0  0  0  0  0  0  0  0  0  0  0  0
    8.0976  -14.6408   22.0235 C   0  0  0  0  0  0  0  0  0  0  0  0
    9.3276  -14.8350   21.8451 O   0  0  0  0  0  0  0  0  0  0  0  0
   10.8976  -14.9184   30.3876 O   0  0  0  0  0  0  0  0  0  0  0  0
   10.1255  -14.7675   29.2424 C   0  0  0  0  0  0  0  0  0  0  0  0
    9.4025  -15.8453   28.7784 C   0  0  0  0  0  0  0  0  0  0  0  0
    8.6096  -15.7437   27.6290 C   0  0  0  0  0  0  0  0  0  0  0  0
    8.5305  -14.5668   26.9318 C   0  0  0  0  0  0  0  0  0  0  0  0
    7.7107  -14.4269   25.7135 C   0  0  0  0  0  0  0  0  0  0  0  0
    8.5168  -14.7693   24.4882 C   0  0  2  0  0  0  0  0  0  0  0  0
    7.6128  -14.5862   23.3543 N   0  0  0  0  0  0  0  0  0  0  0  0
    8.9558  -16.1616   24.5494 C   0  0  0  0  0  0  0  0  0  0  0  0
    8.1966  -17.1550   24.4173 O   0  0  0  0  0  0  0  0  0  0  0  0
    9.2619  -13.4921   27.4093 C   0  0  0  0  0  0  0  0  0  0  0  0
   10.0448  -13.5878   28.5421 C   0  0  0  0  0  0  0  0  0  0  0  0
   10.3300  -16.4334   24.7724 N   0  0  0  0  0  0  0  0  0  0  0  0
   10.7917  -17.8047   24.8198 C   0  0  1  0  0  0  0  0  0  0  0  0
   11.6107  -18.0171   23.5773 C   0  0  0  0  0  0  0  0  0  0  0  0
   12.8206  -17.1555   23.4870 C   0  0  0  0  0  0  0  0  0  0  0  0
   13.5267  -17.4147   22.2121 C   0  0  0  0  0  0  0  0  0  0  0  0
   14.0164  -18.5431   21.9868 O   0  0  0  0  0  0  0  0  0  0  0  0
   11.5336  -17.9949   26.0801 C   0  0  0  0  0  0  0  0  0  0  0  0
   11.4562  -19.1046   26.6561 O   0  0  0  0  0  0  0  0  0  0  0  0
   13.6755  -16.4374   21.2263 O   0  0  0  0  0  0  0  0  0  0  0  0
   12.3237  -17.0340   26.6929 O   0  0  0  0  0  0  0  0  0  0  0  0
  2  1  1  0
  3  4  1  6
  3  2  1  0
  5  3  1  0
  6  5  2  0
  8  7  1  0
  9  8  2  0
 10  9  1  0
 11 17  1  0
 11 10  2  0
 12 11  1  0
 13 12  1  1
 13 15  1  0
 13 14  1  0
 14  5  1  0
 15 16  2  0
 17 18  2  0
 18  8  1  0
 19 20  1  0
 19 15  1  0
 20 25  1  0
 20 21  1  6
 22 21  1  0
 23 24  2  0
 23 22  1  0
 25 26  2  0
 25 28  1  0
 27 23  1  0
M  END
$$$$
