SYE.pdb
     RDKit          3D

 28 28  0  0  1  0  0  0  0  0999 V2000
    6.4255  -16.5332   19.1339 O   0  0  0  0  0  0  0  0  0  0  0  0
    7.3921  -16.3635   20.1334 C   0  0  0  0  0  0  0  0  0  0  0  0
    7.3596  -14.9284   20.6345 C   0  0  2  0  0  0  0  0  0  0  0  0
    7.8015  -14.0434   19.5997 N   0  0  0  0  0  0  0  0  0  0  0  0
    8.2348  -14.8826   21.8377 C   0  0  0  0  0  0  0  0  0  0  0  0
    9.4727  -14.7347   21.6697 O   0  0  0  0  0  0  0  0  0  0  0  0
   11.0312  -14.5927   30.1922 O   0  0  0  0  0  0  0  0  0  0  0  0
   10.2541  -14.5795   29.0405 C   0  0  0  0  0  0  0  0  0  0  0  0
    9.5521  -15.7146   28.6963 C   0  0  0  0  0  0  0  0  0  0  0  0
    8.7552  -15.7514   27.5458 C   0  0  0  0  0  0  0  0  0  0  0  0
    8.6512  -14.6568   26.7280 C   0  0  0  0  0  0  0  0  0  0  0  0
    7.8265  -14.6633   25.5049 C   0  0  0  0  0  0  0  0  0  0  0  0
    8.6641  -15.0057   24.3009 C   0  0  2  0  0  0  0  0  0  0  0  0
    7.7463  -14.9969   23.1633 N   0  0  0  0  0  0  0  0  0  0  0  0
    9.2449  -16.3374   24.4561 C   0  0  0  0  0  0  0  0  0  0  0  0
    8.5799  -17.4027   24.5166 O   0  0  0  0  0  0  0  0  0  0  0  0
    9.3616  -13.5233   27.0859 C   0  0  0  0  0  0  0  0  0  0  0  0
   10.1484  -13.4826   28.2194 C   0  0  0  0  0  0  0  0  0  0  0  0
   10.6552  -16.4592   24.5466 N   0  0  0  0  0  0  0  0  0  0  0  0
   11.2585  -17.7730   24.6244 C   0  0  1  0  0  0  0  0  0  0  0  0
   12.4600  -17.7394   23.7217 C   0  0  0  0  0  0  0  0  0  0  0  0
   12.1351  -17.7455   22.2696 C   0  0  0  0  0  0  0  0  0  0  0  0
   13.3817  -17.6543   21.4765 C   0  0  0  0  0  0  0  0  0  0  0  0
   13.3630  -17.1330   20.3400 O   0  0  0  0  0  0  0  0  0  0  0  0
   11.5655  -18.0529   26.0394 C   0  0  0  0  0  0  0  0  0  0  0  0
   11.6079  -19.2470   26.4155 O   0  0  0  0  0  0  0  0  0  0  0  0
   14.6055  -18.1335   21.9473 O   0  0  0  0  0  0  0  0  0  0  0  0
   11.8161  -17.0909   27.0063 O   0  0  0  0  0  0  0  0  0  0  0  0
  2  1  1  0
  3  4  1  6
  3  2  1  0
  5  3  1  0
  6  5  2  0
  8  7  1  0
  9  8  2  0
 10  9  1  0
 11 17  1  0
 11 10  2  0
 12 11  1  0
 13 12  1  1
 13 15  1  0
 13 14  1  0
 14  5  1  0
 15 16  2  0
 17 18  2  0
 18  8  1  0
 19 20  1  0
 19 15  1  0
 20 25  1  0
 20 21  1  6
 22 21  1  0
 23 24  2  0
 23 22  1  0
 25 26  2  0
 25 28  1  0
 27 23  1  0
M  END
$$$$
