SYE.pdb
     RDKit          3D

 28 28  0  0  1  0  0  0  0  0999 V2000
    7.4814  -17.7727   20.9119 O   0  0  0  0  0  0  0  0  0  0  0  0
    7.6555  -16.8162   19.9035 C   0  0  0  0  0  0  0  0  0  0  0  0
    7.2190  -15.4524   20.4146 C   0  0  2  0  0  0  0  0  0  0  0  0
    7.3443  -14.4807   19.3708 N   0  0  0  0  0  0  0  0  0  0  0  0
    8.0828  -15.1459   21.5873 C   0  0  0  0  0  0  0  0  0  0  0  0
    9.2742  -14.8014   21.3768 O   0  0  0  0  0  0  0  0  0  0  0  0
   10.8969  -14.2204   29.9165 O   0  0  0  0  0  0  0  0  0  0  0  0
   10.1155  -14.4135   28.7840 C   0  0  0  0  0  0  0  0  0  0  0  0
    9.7557  -13.3193   28.0272 C   0  0  0  0  0  0  0  0  0  0  0  0
    8.9695  -13.4618   26.8775 C   0  0  0  0  0  0  0  0  0  0  0  0
    8.5349  -14.6964   26.4722 C   0  0  0  0  0  0  0  0  0  0  0  0
    7.6998  -14.8818   25.2705 C   0  0  0  0  0  0  0  0  0  0  0  0
    8.5596  -15.0192   24.0416 C   0  0  2  0  0  0  0  0  0  0  0  0
    7.6332  -15.2218   22.9294 N   0  0  0  0  0  0  0  0  0  0  0  0
    9.4373  -16.1802   24.1705 C   0  0  0  0  0  0  0  0  0  0  0  0
    9.0782  -17.3700   23.9806 O   0  0  0  0  0  0  0  0  0  0  0  0
    8.9040  -15.7870   27.2419 C   0  0  0  0  0  0  0  0  0  0  0  0
    9.6790  -15.6511   28.3760 C   0  0  0  0  0  0  0  0  0  0  0  0
   10.7926  -15.9727   24.5343 N   0  0  0  0  0  0  0  0  0  0  0  0
   11.7356  -17.0673   24.4432 C   0  0  1  0  0  0  0  0  0  0  0  0
   12.9810  -16.5002   23.8211 C   0  0  0  0  0  0  0  0  0  0  0  0
   14.1525  -17.4172   23.8513 C   0  0  0  0  0  0  0  0  0  0  0  0
   15.3146  -16.7674   23.2044 C   0  0  0  0  0  0  0  0  0  0  0  0
   15.5471  -16.9660   21.9918 O   0  0  0  0  0  0  0  0  0  0  0  0
   11.9269  -17.6208   25.7968 C   0  0  0  0  0  0  0  0  0  0  0  0
   11.6545  -16.8960   26.7815 O   0  0  0  0  0  0  0  0  0  0  0  0
   16.1837  -15.9240   23.8990 O   0  0  0  0  0  0  0  0  0  0  0  0
   12.3900  -18.8973   26.0780 O   0  0  0  0  0  0  0  0  0  0  0  0
  2  1  1  0
  3  4  1  6
  3  2  1  0
  5  3  1  0
  6  5  2  0
  8  7  1  0
  9  8  2  0
 10  9  1  0
 11 17  1  0
 11 10  2  0
 12 11  1  0
 13 12  1  1
 13 15  1  0
 13 14  1  0
 14  5  1  0
 15 16  2  0
 17 18  2  0
 18  8  1  0
 19 20  1  0
 19 15  1  0
 20 25  1  0
 20 21  1  1
 22 21  1  0
 23 24  2  0
 23 22  1  0
 25 26  2  0
 25 28  1  0
 27 23  1  0
M  END
$$$$
