SYE.pdb
     RDKit          3D

 28 28  0  0  1  0  0  0  0  0999 V2000
    7.3000  -16.4069   20.2195 O   0  0  0  0  0  0  0  0  0  0  0  0
    6.2572  -15.5772   20.6510 C   0  0  0  0  0  0  0  0  0  0  0  0
    6.8047  -14.1949   20.9690 C   0  0  2  0  0  0  0  0  0  0  0  0
    7.3997  -13.6277   19.7970 N   0  0  0  0  0  0  0  0  0  0  0  0
    7.7826  -14.3739   22.0768 C   0  0  0  0  0  0  0  0  0  0  0  0
    9.0062  -14.4279   21.7895 O   0  0  0  0  0  0  0  0  0  0  0  0
   11.2741  -15.1471   30.1457 O   0  0  0  0  0  0  0  0  0  0  0  0
   10.4019  -14.9619   29.0801 C   0  0  0  0  0  0  0  0  0  0  0  0
    9.7157  -16.0489   28.5830 C   0  0  0  0  0  0  0  0  0  0  0  0
    8.8257  -15.9140   27.5107 C   0  0  0  0  0  0  0  0  0  0  0  0
    8.6120  -14.6941   26.9243 C   0  0  0  0  0  0  0  0  0  0  0  0
    7.6871  -14.5174   25.7888 C   0  0  0  0  0  0  0  0  0  0  0  0
    8.4163  -14.6728   24.4802 C   0  0  2  0  0  0  0  0  0  0  0  0
    7.4074  -14.4868   23.4390 N   0  0  0  0  0  0  0  0  0  0  0  0
    8.9872  -16.0140   24.3800 C   0  0  0  0  0  0  0  0  0  0  0  0
    8.3292  -17.0506   24.1093 O   0  0  0  0  0  0  0  0  0  0  0  0
    9.3079  -13.6107   27.4339 C   0  0  0  0  0  0  0  0  0  0  0  0
   10.1862  -13.7392   28.4910 C   0  0  0  0  0  0  0  0  0  0  0  0
   10.3786  -16.1804   24.5999 N   0  0  0  0  0  0  0  0  0  0  0  0
   10.9803  -17.4866   24.4333 C   0  0  1  0  0  0  0  0  0  0  0  0
   11.9708  -17.3545   23.3104 C   0  0  0  0  0  0  0  0  0  0  0  0
   12.7903  -18.5732   23.0704 C   0  0  0  0  0  0  0  0  0  0  0  0
   13.7293  -18.3336   21.9515 C   0  0  0  0  0  0  0  0  0  0  0  0
   14.9631  -18.3615   22.1538 O   0  0  0  0  0  0  0  0  0  0  0  0
   11.5705  -17.8868   25.7242 C   0  0  0  0  0  0  0  0  0  0  0  0
   11.8601  -16.9913   26.5508 O   0  0  0  0  0  0  0  0  0  0  0  0
   13.2938  -18.0718   20.6512 O   0  0  0  0  0  0  0  0  0  0  0  0
   11.8367  -19.1924   26.1086 O   0  0  0  0  0  0  0  0  0  0  0  0
  2  1  1  0
  3  4  1  6
  3  2  1  0
  5  3  1  0
  6  5  2  0
  8  7  1  0
  9  8  2  0
 10  9  1  0
 11 17  1  0
 11 10  2  0
 12 11  1  0
 13 12  1  1
 13 15  1  0
 13 14  1  0
 14  5  1  0
 15 16  2  0
 17 18  2  0
 18  8  1  0
 19 20  1  0
 19 15  1  0
 20 25  1  0
 20 21  1  6
 22 21  1  0
 23 24  2  0
 23 22  1  0
 25 26  2  0
 25 28  1  0
 27 23  1  0
M  END
$$$$
