SYE.pdb
     RDKit          3D

 28 28  0  0  1  0  0  0  0  0999 V2000
    8.4871  -19.9870   18.9003 O   0  0  0  0  0  0  0  0  0  0  0  0
    8.8113  -19.1184   19.9503 C   0  0  0  0  0  0  0  0  0  0  0  0
    8.2326  -17.7410   19.6687 C   0  0  2  0  0  0  0  0  0  0  0  0
    8.7970  -17.2153   18.4627 N   0  0  0  0  0  0  0  0  0  0  0  0
    8.5441  -16.9021   20.8582 C   0  0  0  0  0  0  0  0  0  0  0  0
    9.6779  -16.3615   20.9266 O   0  0  0  0  0  0  0  0  0  0  0  0
    7.4674  -11.9217   28.0650 O   0  0  0  0  0  0  0  0  0  0  0  0
    7.2729  -12.7856   26.9944 C   0  0  0  0  0  0  0  0  0  0  0  0
    7.0332  -12.2560   25.7447 C   0  0  0  0  0  0  0  0  0  0  0  0
    6.8310  -13.0845   24.6344 C   0  0  0  0  0  0  0  0  0  0  0  0
    6.8657  -14.4486   24.7601 C   0  0  0  0  0  0  0  0  0  0  0  0
    6.6499  -15.3507   23.6132 C   0  0  0  0  0  0  0  0  0  0  0  0
    7.9659  -15.7815   23.0209 C   0  0  2  0  0  0  0  0  0  0  0  0
    7.6298  -16.6805   21.9184 N   0  0  0  0  0  0  0  0  0  0  0  0
    8.7549  -16.4990   24.0196 C   0  0  0  0  0  0  0  0  0  0  0  0
    8.5177  -17.6709   24.4081 O   0  0  0  0  0  0  0  0  0  0  0  0
    7.1075  -14.9669   26.0213 C   0  0  0  0  0  0  0  0  0  0  0  0
    7.3076  -14.1538   27.1186 C   0  0  0  0  0  0  0  0  0  0  0  0
    9.8703  -15.8461   24.6041 N   0  0  0  0  0  0  0  0  0  0  0  0
   10.8362  -16.6146   25.3606 C   0  0  1  0  0  0  0  0  0  0  0  0
   12.1922  -16.1686   24.8894 C   0  0  0  0  0  0  0  0  0  0  0  0
   12.8707  -17.1302   23.9788 C   0  0  0  0  0  0  0  0  0  0  0  0
   14.1516  -16.5566   23.5082 C   0  0  0  0  0  0  0  0  0  0  0  0
   14.5286  -16.7503   22.3317 O   0  0  0  0  0  0  0  0  0  0  0  0
   10.5821  -16.3846   26.7951 C   0  0  0  0  0  0  0  0  0  0  0  0
    9.7571  -15.4998   27.1202 O   0  0  0  0  0  0  0  0  0  0  0  0
   14.9781  -15.7922   24.3339 O   0  0  0  0  0  0  0  0  0  0  0  0
   11.1883  -17.0761   27.8330 O   0  0  0  0  0  0  0  0  0  0  0  0
  2  1  1  0
  3  4  1  6
  3  2  1  0
  5  3  1  0
  6  5  2  0
  8  7  1  0
  9  8  2  0
 10  9  1  0
 11 17  1  0
 11 10  2  0
 12 11  1  0
 13 12  1  1
 13 15  1  0
 13 14  1  0
 14  5  1  0
 15 16  2  0
 17 18  2  0
 18  8  1  0
 19 20  1  0
 19 15  1  0
 20 25  1  0
 20 21  1  6
 22 21  1  0
 23 24  2  0
 23 22  1  0
 25 26  2  0
 25 28  1  0
 27 23  1  0
M  END
$$$$
