SYE.pdb
     RDKit          3D

 28 28  0  0  1  0  0  0  0  0999 V2000
    7.1933  -16.4467   20.5373 O   0  0  0  0  0  0  0  0  0  0  0  0
    6.3042  -15.3735   20.6785 C   0  0  0  0  0  0  0  0  0  0  0  0
    7.0869  -14.0919   20.9160 C   0  0  2  0  0  0  0  0  0  0  0  0
    7.7980  -13.7306   19.7271 N   0  0  0  0  0  0  0  0  0  0  0  0
    7.9942  -14.3593   22.0653 C   0  0  0  0  0  0  0  0  0  0  0  0
    9.1934  -14.6522   21.8231 O   0  0  0  0  0  0  0  0  0  0  0  0
   11.0034  -15.3428   30.3200 O   0  0  0  0  0  0  0  0  0  0  0  0
   10.2122  -15.0879   29.2067 C   0  0  0  0  0  0  0  0  0  0  0  0
   10.2585  -13.8383   28.6272 C   0  0  0  0  0  0  0  0  0  0  0  0
    9.4805  -13.5323   27.5042 C   0  0  0  0  0  0  0  0  0  0  0  0
    8.6490  -14.4693   26.9491 C   0  0  0  0  0  0  0  0  0  0  0  0
    7.8105  -14.1787   25.7708 C   0  0  0  0  0  0  0  0  0  0  0  0
    8.5158  -14.5843   24.5034 C   0  0  2  0  0  0  0  0  0  0  0  0
    7.5777  -14.3013   23.4189 N   0  0  0  0  0  0  0  0  0  0  0  0
    8.8190  -16.0133   24.5332 C   0  0  0  0  0  0  0  0  0  0  0  0
    7.9542  -16.9258   24.5339 O   0  0  0  0  0  0  0  0  0  0  0  0
    8.6124  -15.7206   27.5415 C   0  0  0  0  0  0  0  0  0  0  0  0
    9.3779  -16.0266   28.6486 C   0  0  0  0  0  0  0  0  0  0  0  0
   10.1773  -16.4211   24.5637 N   0  0  0  0  0  0  0  0  0  0  0  0
   10.5020  -17.8298   24.6410 C   0  0  1  0  0  0  0  0  0  0  0  0
   11.2181  -18.1682   23.3635 C   0  0  0  0  0  0  0  0  0  0  0  0
   12.2750  -17.1943   22.9776 C   0  0  0  0  0  0  0  0  0  0  0  0
   12.9693  -17.6649   21.7579 C   0  0  0  0  0  0  0  0  0  0  0  0
   12.6431  -18.7521   21.2329 O   0  0  0  0  0  0  0  0  0  0  0  0
   11.2970  -18.0501   25.8635 C   0  0  0  0  0  0  0  0  0  0  0  0
   11.6477  -19.2194   26.1442 O   0  0  0  0  0  0  0  0  0  0  0  0
   13.9944  -16.9367   21.1515 O   0  0  0  0  0  0  0  0  0  0  0  0
   11.6972  -17.0564   26.7441 O   0  0  0  0  0  0  0  0  0  0  0  0
  2  1  1  0
  3  4  1  6
  3  2  1  0
  5  3  1  0
  6  5  2  0
  8  7  1  0
  9  8  2  0
 10  9  1  0
 11 17  1  0
 11 10  2  0
 12 11  1  0
 13 12  1  1
 13 15  1  0
 13 14  1  0
 14  5  1  0
 15 16  2  0
 17 18  2  0
 18  8  1  0
 19 20  1  0
 19 15  1  0
 20 25  1  0
 20 21  1  6
 22 21  1  0
 23 24  2  0
 23 22  1  0
 25 26  2  0
 25 28  1  0
 27 23  1  0
M  END
$$$$
