TEH.pdb
     RDKit          3D

 27 27  0  0  1  0  0  0  0  0999 V2000
   26.5756  -10.6413  -15.3104 C   0  0  0  0  0  0  0  0  0  0  0  0
   26.7663  -11.2306  -16.6925 C   0  0  1  0  0  0  0  0  0  0  0  0
   27.9143  -12.0105  -16.7309 O   0  0  0  0  0  0  0  0  0  0  0  0
   25.5812  -12.1295  -17.0605 C   0  0  2  0  0  0  0  0  0  0  0  0
   25.8401  -12.7669  -18.3530 N   0  0  0  0  0  0  0  0  0  0  0  0
   24.3198  -11.3828  -17.1616 C   0  0  0  0  0  0  0  0  0  0  0  0
   24.0864  -10.6292  -18.1724 O   0  0  0  0  0  0  0  0  0  0  0  0
   23.3228  -11.4682  -16.1547 N   0  0  0  0  0  0  0  0  0  0  0  0
   22.0719  -10.7197  -16.3041 C   0  0  1  0  0  0  0  0  0  0  0  0
   20.9484  -11.4332  -15.5580 C   0  0  0  0  0  0  0  0  0  0  0  0
   20.5560  -12.7085  -16.2636 C   0  0  0  0  0  0  0  0  0  0  0  0
   19.4745  -13.4259  -15.5888 C   0  0  0  0  0  0  0  0  0  0  0  0
   19.0084  -12.9726  -14.5124 O   0  0  0  0  0  0  0  0  0  0  0  0
   22.2907   -9.3683  -15.7589 C   0  0  0  0  0  0  0  0  0  0  0  0
   22.9343   -9.2258  -14.6983 O   0  0  0  0  0  0  0  0  0  0  0  0
   18.9099  -14.6077  -16.0682 O   0  0  0  0  0  0  0  0  0  0  0  0
   21.7979   -8.1692  -16.3859 N   0  0  0  0  0  0  0  0  0  0  0  0
   21.9537   -6.8773  -15.8075 C   0  0  1  0  0  0  0  0  0  0  0  0
   21.7715   -5.7609  -16.7794 C   0  0  0  0  0  0  0  0  0  0  0  0
   21.9366   -4.4015  -16.2887 C   0  0  0  0  0  0  0  0  0  0  0  0
   22.6405   -3.9044  -15.2319 C   0  0  0  0  0  0  0  0  0  0  0  0
   22.5161   -2.5437  -15.1926 N   0  0  0  0  0  0  0  0  0  0  0  0
   21.7480   -2.2164  -16.2113 C   0  0  0  0  0  0  0  0  0  0  0  0
   21.3818   -3.3012  -16.8903 N   0  0  0  0  0  0  0  0  0  0  0  0
   21.0446   -6.6398  -14.6323 C   0  0  0  0  0  0  0  0  0  0  0  0
   21.5924   -6.2121  -13.5858 O   0  0  0  0  0  0  0  0  0  0  0  0
   19.6964   -6.8574  -14.6375 O   0  0  0  0  0  0  0  0  0  0  0  0
  2  1  1  1
  2  3  1  0
  4  2  1  0
  4  5  1  6
  6  7  2  0
  6  4  1  0
  8  6  1  0
  9 10  1  1
  9  8  1  0
 11 12  1  0
 11 10  1  0
 12 13  2  0
 14  9  1  0
 15 14  2  0
 16 12  1  0
 17 14  1  0
 18 17  1  0
 18 19  1  6
 20 19  1  0
 20 21  2  0
 22 21  1  0
 23 22  1  0
 24 23  2  0
 24 20  1  0
 25 18  1  0
 25 27  1  0
 26 25  2  0
M  END
$$$$
