TEH.pdb
     RDKit          3D

 27 27  0  0  1  0  0  0  0  0999 V2000
   21.2514  -11.8477   11.2764 C   0  0  0  0  0  0  0  0  0  0  0  0
   20.7722  -12.8459   10.2432 C   0  0  1  0  0  0  0  0  0  0  0  0
   21.0076  -12.3657    8.9619 O   0  0  0  0  0  0  0  0  0  0  0  0
   21.5263  -14.1719   10.3884 C   0  0  2  0  0  0  0  0  0  0  0  0
   22.9390  -13.9634   10.0646 N   0  0  0  0  0  0  0  0  0  0  0  0
   21.0012  -15.2172    9.4992 C   0  0  0  0  0  0  0  0  0  0  0  0
   21.6026  -15.5054    8.4040 O   0  0  0  0  0  0  0  0  0  0  0  0
   19.8214  -15.9397    9.8171 N   0  0  0  0  0  0  0  0  0  0  0  0
   19.3894  -17.0430    8.9550 C   0  0  1  0  0  0  0  0  0  0  0  0
   18.8105  -18.1697    9.8056 C   0  0  0  0  0  0  0  0  0  0  0  0
   18.2631  -19.2759    8.9369 C   0  0  0  0  0  0  0  0  0  0  0  0
   19.1373  -20.4475    8.8841 C   0  0  0  0  0  0  0  0  0  0  0  0
   19.1259  -21.2714    9.8341 O   0  0  0  0  0  0  0  0  0  0  0  0
   18.3779  -16.5138    8.0232 C   0  0  0  0  0  0  0  0  0  0  0  0
   17.5191  -15.7066    8.4356 O   0  0  0  0  0  0  0  0  0  0  0  0
   20.0047  -20.7214    7.8269 O   0  0  0  0  0  0  0  0  0  0  0  0
   18.3133  -16.8763    6.6310 N   0  0  0  0  0  0  0  0  0  0  0  0
   17.2750  -16.4282    5.7654 C   0  0  1  0  0  0  0  0  0  0  0  0
   17.7535  -15.5402    4.6670 C   0  0  0  0  0  0  0  0  0  0  0  0
   18.3046  -14.2450    5.0340 C   0  0  0  0  0  0  0  0  0  0  0  0
   18.5228  -13.6711    6.2516 C   0  0  0  0  0  0  0  0  0  0  0  0
   19.0953  -12.4408    6.0867 N   0  0  0  0  0  0  0  0  0  0  0  0
   19.2248  -12.2680    4.7875 C   0  0  0  0  0  0  0  0  0  0  0  0
   18.7628  -13.3262    4.1251 N   0  0  0  0  0  0  0  0  0  0  0  0
   16.4822  -17.5536    5.1579 C   0  0  0  0  0  0  0  0  0  0  0  0
   16.9675  -18.7052    5.2860 O   0  0  0  0  0  0  0  0  0  0  0  0
   15.2994  -17.3990    4.4931 O   0  0  0  0  0  0  0  0  0  0  0  0
  2  1  1  1
  2  3  1  0
  4  2  1  0
  4  5  1  6
  6  7  2  0
  6  4  1  0
  8  6  1  0
  9 10  1  1
  9  8  1  0
 11 12  1  0
 11 10  1  0
 12 13  2  0
 14  9  1  0
 15 14  2  0
 16 12  1  0
 17 14  1  0
 18 17  1  0
 18 19  1  6
 20 19  1  0
 20 21  2  0
 22 21  1  0
 23 22  1  0
 24 23  2  0
 24 20  1  0
 25 18  1  0
 25 27  1  0
 26 25  2  0
M  END
$$$$
