TEH.pdb
     RDKit          3D

 27 27  0  0  1  0  0  0  0  0999 V2000
   28.7204  -35.4029  -17.1832 C   0  0  0  0  0  0  0  0  0  0  0  0
   29.0846  -34.2648  -18.1138 C   0  0  1  0  0  0  0  0  0  0  0  0
   30.2625  -34.5520  -18.7902 O   0  0  0  0  0  0  0  0  0  0  0  0
   27.9860  -34.0562  -19.1614 C   0  0  2  0  0  0  0  0  0  0  0  0
   28.3064  -32.8788  -19.9709 N   0  0  0  0  0  0  0  0  0  0  0  0
   26.6634  -33.8503  -18.5554 C   0  0  0  0  0  0  0  0  0  0  0  0
   26.1165  -32.6906  -18.5602 O   0  0  0  0  0  0  0  0  0  0  0  0
   25.9494  -34.9171  -17.9495 N   0  0  0  0  0  0  0  0  0  0  0  0
   24.6004  -34.6851  -17.4264 C   0  0  1  0  0  0  0  0  0  0  0  0
   23.7415  -35.9284  -17.6373 C   0  0  0  0  0  0  0  0  0  0  0  0
   22.3369  -35.7070  -17.1313 C   0  0  0  0  0  0  0  0  0  0  0  0
   21.4898  -36.8929  -17.2576 C   0  0  0  0  0  0  0  0  0  0  0  0
   20.3745  -36.7985  -17.8307 O   0  0  0  0  0  0  0  0  0  0  0  0
   24.7242  -34.3678  -15.9927 C   0  0  0  0  0  0  0  0  0  0  0  0
   25.5192  -35.0174  -15.2818 O   0  0  0  0  0  0  0  0  0  0  0  0
   21.8420  -38.1529  -16.7746 O   0  0  0  0  0  0  0  0  0  0  0  0
   23.9684  -33.3299  -15.3404 N   0  0  0  0  0  0  0  0  0  0  0  0
   24.1209  -33.0175  -13.9595 C   0  0  1  0  0  0  0  0  0  0  0  0
   23.3165  -31.8411  -13.5200 C   0  0  0  0  0  0  0  0  0  0  0  0
   23.5002  -31.3654  -12.1577 C   0  0  0  0  0  0  0  0  0  0  0  0
   24.3728  -31.7447  -11.1809 C   0  0  0  0  0  0  0  0  0  0  0  0
   24.1827  -30.9755  -10.0670 N   0  0  0  0  0  0  0  0  0  0  0  0
   23.2086  -30.1392  -10.3611 C   0  0  0  0  0  0  0  0  0  0  0  0
   22.7750  -30.3421  -11.6032 N   0  0  0  0  0  0  0  0  0  0  0  0
   23.8080  -34.1755  -13.0512 C   0  0  0  0  0  0  0  0  0  0  0  0
   22.7207  -34.7678  -13.2634 O   0  0  0  0  0  0  0  0  0  0  0  0
   24.6149  -34.6067  -12.0373 O   0  0  0  0  0  0  0  0  0  0  0  0
  2  1  1  1
  2  3  1  0
  4  2  1  0
  4  5  1  1
  6  7  2  0
  6  4  1  0
  8  6  1  0
  9 10  1  1
  9  8  1  0
 11 12  1  0
 11 10  1  0
 12 13  2  0
 14  9  1  0
 15 14  2  0
 16 12  1  0
 17 14  1  0
 18 17  1  0
 18 19  1  1
 20 19  1  0
 20 21  2  0
 22 21  1  0
 23 22  1  0
 24 23  2  0
 24 20  1  0
 25 18  1  0
 25 27  1  0
 26 25  2  0
M  END
$$$$
