TEH.pdb
     RDKit          3D

 27 27  0  0  1  0  0  0  0  0999 V2000
   27.7187  -11.4664  -15.7673 C   0  0  0  0  0  0  0  0  0  0  0  0
   27.8928  -12.7485  -16.5544 C   0  0  1  0  0  0  0  0  0  0  0  0
   28.9104  -13.5176  -16.0061 O   0  0  0  0  0  0  0  0  0  0  0  0
   26.6074  -13.5815  -16.5139 C   0  0  2  0  0  0  0  0  0  0  0  0
   26.8265  -14.8447  -17.2213 N   0  0  0  0  0  0  0  0  0  0  0  0
   25.4720  -12.8938  -17.1439 C   0  0  0  0  0  0  0  0  0  0  0  0
   25.1237  -13.1749  -18.3455 O   0  0  0  0  0  0  0  0  0  0  0  0
   24.7261  -11.9038  -16.4523 N   0  0  0  0  0  0  0  0  0  0  0  0
   23.5312  -11.3266  -17.0740 C   0  0  1  0  0  0  0  0  0  0  0  0
   22.4189  -12.3698  -17.1269 C   0  0  0  0  0  0  0  0  0  0  0  0
   21.1130  -11.7458  -17.5548 C   0  0  0  0  0  0  0  0  0  0  0  0
   20.0239  -12.7164  -17.6635 C   0  0  0  0  0  0  0  0  0  0  0  0
   19.5856  -13.0299  -18.7997 O   0  0  0  0  0  0  0  0  0  0  0  0
   23.1239  -10.1630  -16.2668 C   0  0  0  0  0  0  0  0  0  0  0  0
   22.9295  -10.2982  -15.0408 O   0  0  0  0  0  0  0  0  0  0  0  0
   19.4226  -13.3339  -16.5671 O   0  0  0  0  0  0  0  0  0  0  0  0
   22.9301   -8.8451  -16.8139 N   0  0  0  0  0  0  0  0  0  0  0  0
   22.5885   -7.7199  -16.0108 C   0  0  1  0  0  0  0  0  0  0  0  0
   22.6673   -6.4201  -16.7377 C   0  0  0  0  0  0  0  0  0  0  0  0
   22.3986   -5.2051  -15.9845 C   0  0  0  0  0  0  0  0  0  0  0  0
   22.1547   -5.0026  -14.6582 C   0  0  0  0  0  0  0  0  0  0  0  0
   21.9908   -3.6672  -14.4169 N   0  0  0  0  0  0  0  0  0  0  0  0
   22.1334   -3.0646  -15.5794 C   0  0  0  0  0  0  0  0  0  0  0  0
   22.3785   -3.9519  -16.5409 N   0  0  0  0  0  0  0  0  0  0  0  0
   21.2267   -7.8323  -15.3807 C   0  0  0  0  0  0  0  0  0  0  0  0
   20.3039   -8.2456  -16.1263 O   0  0  0  0  0  0  0  0  0  0  0  0
   20.9441   -7.5185  -14.0820 O   0  0  0  0  0  0  0  0  0  0  0  0
  2  1  1  1
  2  3  1  0
  4  2  1  0
  4  5  1  6
  6  7  2  0
  6  4  1  0
  8  6  1  0
  9 10  1  1
  9  8  1  0
 11 12  1  0
 11 10  1  0
 12 13  2  0
 14  9  1  0
 15 14  2  0
 16 12  1  0
 17 14  1  0
 18 17  1  0
 18 19  1  6
 20 19  1  0
 20 21  2  0
 22 21  1  0
 23 22  1  0
 24 23  2  0
 24 20  1  0
 25 18  1  0
 25 27  1  0
 26 25  2  0
M  END
$$$$
