TEH.pdb
     RDKit          3D

 27 27  0  0  1  0  0  0  0  0999 V2000
   26.6280  -11.1609  -16.2197 C   0  0  0  0  0  0  0  0  0  0  0  0
   28.1060  -10.9695  -16.4892 C   0  0  1  0  0  0  0  0  0  0  0  0
   28.7463  -12.1990  -16.5658 O   0  0  0  0  0  0  0  0  0  0  0  0
   28.3188  -10.2506  -17.8255 C   0  0  2  0  0  0  0  0  0  0  0  0
   29.7546  -10.1221  -18.0829 N   0  0  0  0  0  0  0  0  0  0  0  0
   27.7279   -8.9054  -17.8403 C   0  0  0  0  0  0  0  0  0  0  0  0
   28.3884   -7.8974  -17.4023 O   0  0  0  0  0  0  0  0  0  0  0  0
   26.4178   -8.6745  -18.3357 N   0  0  0  0  0  0  0  0  0  0  0  0
   25.8597   -7.3198  -18.3128 C   0  0  1  0  0  0  0  0  0  0  0  0
   25.8970   -6.7199  -19.7152 C   0  0  0  0  0  0  0  0  0  0  0  0
   25.2678   -5.3481  -19.7329 C   0  0  0  0  0  0  0  0  0  0  0  0
   25.2278   -4.7544  -21.0693 C   0  0  0  0  0  0  0  0  0  0  0  0
   24.1519   -4.2630  -21.4961 O   0  0  0  0  0  0  0  0  0  0  0  0
   24.4751   -7.4141  -17.8172 C   0  0  0  0  0  0  0  0  0  0  0  0
   23.7326   -8.3308  -18.2266 O   0  0  0  0  0  0  0  0  0  0  0  0
   26.3277   -4.6939  -21.9246 O   0  0  0  0  0  0  0  0  0  0  0  0
   23.9072   -6.4938  -16.8663 N   0  0  0  0  0  0  0  0  0  0  0  0
   22.5690   -6.6037  -16.3921 C   0  0  1  0  0  0  0  0  0  0  0  0
   22.4301   -7.4742  -15.1891 C   0  0  0  0  0  0  0  0  0  0  0  0
   22.5399   -8.9124  -15.3770 C   0  0  0  0  0  0  0  0  0  0  0  0
   22.7982   -9.6586  -16.4886 C   0  0  0  0  0  0  0  0  0  0  0  0
   22.8335  -10.9844  -16.1575 N   0  0  0  0  0  0  0  0  0  0  0  0
   22.6007  -11.0449  -14.8626 C   0  0  0  0  0  0  0  0  0  0  0  0
   22.4203   -9.8253  -14.3607 N   0  0  0  0  0  0  0  0  0  0  0  0
   21.9341   -5.2726  -16.0936 C   0  0  0  0  0  0  0  0  0  0  0  0
   22.6777   -4.2665  -16.2072 O   0  0  0  0  0  0  0  0  0  0  0  0
   20.6331   -5.1005  -15.7157 O   0  0  0  0  0  0  0  0  0  0  0  0
  2  1  1  6
  2  3  1  0
  4  2  1  0
  4  5  1  1
  6  7  2  0
  6  4  1  0
  8  6  1  0
  9 10  1  6
  9  8  1  0
 11 12  1  0
 11 10  1  0
 12 13  2  0
 14  9  1  0
 15 14  2  0
 16 12  1  0
 17 14  1  0
 18 17  1  0
 18 19  1  1
 20 19  1  0
 20 21  2  0
 22 21  1  0
 23 22  1  0
 24 23  2  0
 24 20  1  0
 25 18  1  0
 25 27  1  0
 26 25  2  0
M  END
$$$$
