TEH.pdb
     RDKit          3D

 27 27  0  0  1  0  0  0  0  0999 V2000
   26.8015  -11.3179  -14.8231 C   0  0  0  0  0  0  0  0  0  0  0  0
   27.2733  -11.6968  -16.2115 C   0  0  1  0  0  0  0  0  0  0  0  0
   28.5677  -12.1963  -16.1624 O   0  0  0  0  0  0  0  0  0  0  0  0
   26.3759  -12.7887  -16.8036 C   0  0  2  0  0  0  0  0  0  0  0  0
   26.9110  -13.2039  -18.1018 N   0  0  0  0  0  0  0  0  0  0  0  0
   24.9930  -12.3333  -17.0017 C   0  0  0  0  0  0  0  0  0  0  0  0
   24.6804  -11.6190  -18.0196 O   0  0  0  0  0  0  0  0  0  0  0  0
   23.9627  -12.6650  -16.0834 N   0  0  0  0  0  0  0  0  0  0  0  0
   22.6057  -12.1549  -16.2972 C   0  0  1  0  0  0  0  0  0  0  0  0
   21.5850  -13.1619  -15.7754 C   0  0  0  0  0  0  0  0  0  0  0  0
   21.4893  -14.3579  -16.6910 C   0  0  0  0  0  0  0  0  0  0  0  0
   20.4818  -15.3277  -16.2616 C   0  0  0  0  0  0  0  0  0  0  0  0
   20.8244  -16.5160  -16.0336 O   0  0  0  0  0  0  0  0  0  0  0  0
   22.4918  -10.8713  -15.5823 C   0  0  0  0  0  0  0  0  0  0  0  0
   22.9495  -10.7649  -14.4254 O   0  0  0  0  0  0  0  0  0  0  0  0
   19.1336  -15.0184  -16.0831 O   0  0  0  0  0  0  0  0  0  0  0  0
   21.8708   -9.7005  -16.1457 N   0  0  0  0  0  0  0  0  0  0  0  0
   21.6910   -8.4943  -15.4105 C   0  0  1  0  0  0  0  0  0  0  0  0
   22.4514   -7.3371  -15.9645 C   0  0  0  0  0  0  0  0  0  0  0  0
   22.2472   -6.0350  -15.3490 C   0  0  0  0  0  0  0  0  0  0  0  0
   22.2428   -5.6472  -14.0418 C   0  0  0  0  0  0  0  0  0  0  0  0
   22.0375   -4.2982  -13.9605 N   0  0  0  0  0  0  0  0  0  0  0  0
   21.9192   -3.8702  -15.2005 C   0  0  0  0  0  0  0  0  0  0  0  0
   22.0393   -4.8804  -16.0590 N   0  0  0  0  0  0  0  0  0  0  0  0
   20.2473   -8.0939  -15.2714 C   0  0  0  0  0  0  0  0  0  0  0  0
   19.4904   -8.4115  -16.2224 O   0  0  0  0  0  0  0  0  0  0  0  0
   19.7276   -7.4229  -14.2016 O   0  0  0  0  0  0  0  0  0  0  0  0
  2  1  1  1
  2  3  1  0
  4  2  1  0
  4  5  1  6
  6  7  2  0
  6  4  1  0
  8  6  1  0
  9 10  1  1
  9  8  1  0
 11 12  1  0
 11 10  1  0
 12 13  2  0
 14  9  1  0
 15 14  2  0
 16 12  1  0
 17 14  1  0
 18 17  1  0
 18 19  1  6
 20 19  1  0
 20 21  2  0
 22 21  1  0
 23 22  1  0
 24 23  2  0
 24 20  1  0
 25 18  1  0
 25 27  1  0
 26 25  2  0
M  END
$$$$
