TEH.pdb
     RDKit          3D

 27 27  0  0  1  0  0  0  0  0999 V2000
   21.7366  -13.4394  -15.9457 C   0  0  0  0  0  0  0  0  0  0  0  0
   21.1862  -14.2670  -17.0885 C   0  0  1  0  0  0  0  0  0  0  0  0
   21.5344  -15.6016  -16.9299 O   0  0  0  0  0  0  0  0  0  0  0  0
   19.6564  -14.1865  -17.1209 C   0  0  2  0  0  0  0  0  0  0  0  0
   19.1507  -15.0207  -18.2129 N   0  0  0  0  0  0  0  0  0  0  0  0
   19.1701  -12.8155  -17.3278 C   0  0  0  0  0  0  0  0  0  0  0  0
   19.2093  -12.2775  -18.4911 O   0  0  0  0  0  0  0  0  0  0  0  0
   18.6436  -12.0444  -16.2586 N   0  0  0  0  0  0  0  0  0  0  0  0
   18.0827  -10.7173  -16.5261 C   0  0  1  0  0  0  0  0  0  0  0  0
   16.6597  -10.6364  -15.9815 C   0  0  0  0  0  0  0  0  0  0  0  0
   16.6371  -10.8745  -14.4913 C   0  0  0  0  0  0  0  0  0  0  0  0
   15.3003  -10.7449  -13.9116 C   0  0  0  0  0  0  0  0  0  0  0  0
   14.6534  -11.7804  -13.6106 O   0  0  0  0  0  0  0  0  0  0  0  0
   18.9533   -9.7233  -15.8739 C   0  0  0  0  0  0  0  0  0  0  0  0
   19.4045   -9.9506  -14.7319 O   0  0  0  0  0  0  0  0  0  0  0  0
   14.6776   -9.5220  -13.6631 O   0  0  0  0  0  0  0  0  0  0  0  0
   19.3280   -8.4735  -16.4835 N   0  0  0  0  0  0  0  0  0  0  0  0
   20.0551   -7.4649  -15.7893 C   0  0  1  0  0  0  0  0  0  0  0  0
   20.4808   -6.3296  -16.6577 C   0  0  0  0  0  0  0  0  0  0  0  0
   21.2513   -5.2592  -16.0443 C   0  0  0  0  0  0  0  0  0  0  0  0
   22.5929   -5.0174  -16.0151 C   0  0  0  0  0  0  0  0  0  0  0  0
   22.8389   -3.8573  -15.3351 N   0  0  0  0  0  0  0  0  0  0  0  0
   21.6639   -3.3986  -14.9560 C   0  0  0  0  0  0  0  0  0  0  0  0
   20.6901   -4.2103  -15.3621 N   0  0  0  0  0  0  0  0  0  0  0  0
   19.3132   -6.9075  -14.6049 C   0  0  0  0  0  0  0  0  0  0  0  0
   18.0693   -6.7904  -14.7357 O   0  0  0  0  0  0  0  0  0  0  0  0
   19.8981   -6.5311  -13.4297 O   0  0  0  0  0  0  0  0  0  0  0  0
  2  1  1  1
  2  3  1  0
  4  2  1  0
  4  5  1  6
  6  7  2  0
  6  4  1  0
  8  6  1  0
  9 10  1  1
  9  8  1  0
 11 12  1  0
 11 10  1  0
 12 13  2  0
 14  9  1  0
 15 14  2  0
 16 12  1  0
 17 14  1  0
 18 17  1  0
 18 19  1  6
 20 19  1  0
 20 21  2  0
 22 21  1  0
 23 22  1  0
 24 23  2  0
 24 20  1  0
 25 18  1  0
 25 27  1  0
 26 25  2  0
M  END
$$$$
