TEH.pdb
     RDKit          3D

 27 27  0  0  1  0  0  0  0  0999 V2000
   18.6186  -13.2553  -15.8470 C   0  0  0  0  0  0  0  0  0  0  0  0
   17.6404  -12.3098  -16.5126 C   0  0  1  0  0  0  0  0  0  0  0  0
   16.3867  -12.8989  -16.6061 O   0  0  0  0  0  0  0  0  0  0  0  0
   17.4906  -11.0261  -15.6894 C   0  0  2  0  0  0  0  0  0  0  0  0
   16.4883  -10.1627  -16.3171 N   0  0  0  0  0  0  0  0  0  0  0  0
   18.7479  -10.2724  -15.5900 C   0  0  0  0  0  0  0  0  0  0  0  0
   19.7691  -10.7805  -15.0042 O   0  0  0  0  0  0  0  0  0  0  0  0
   18.8773   -8.9677  -16.1340 N   0  0  0  0  0  0  0  0  0  0  0  0
   20.1016   -8.1984  -15.8962 C   0  0  1  0  0  0  0  0  0  0  0  0
   20.2658   -7.1369  -16.9798 C   0  0  0  0  0  0  0  0  0  0  0  0
   19.1255   -6.1486  -16.9451 C   0  0  0  0  0  0  0  0  0  0  0  0
   19.2936   -5.0479  -17.8938 C   0  0  0  0  0  0  0  0  0  0  0  0
   18.9223   -5.1964  -19.0860 O   0  0  0  0  0  0  0  0  0  0  0  0
   19.9893   -7.5782  -14.5642 C   0  0  0  0  0  0  0  0  0  0  0  0
   18.8786   -7.1735  -14.1619 O   0  0  0  0  0  0  0  0  0  0  0  0
   19.8511   -3.8140  -17.5597 O   0  0  0  0  0  0  0  0  0  0  0  0
   21.1064   -7.4034  -13.6724 N   0  0  0  0  0  0  0  0  0  0  0  0
   20.9871   -6.7696  -12.4028 C   0  0  1  0  0  0  0  0  0  0  0  0
   22.0236   -7.1989  -11.4201 C   0  0  0  0  0  0  0  0  0  0  0  0
   21.9700   -6.6251  -10.0845 C   0  0  0  0  0  0  0  0  0  0  0  0
   21.0132   -5.8792   -9.4621 C   0  0  0  0  0  0  0  0  0  0  0  0
   21.4056   -5.5978   -8.1833 N   0  0  0  0  0  0  0  0  0  0  0  0
   22.5843   -6.1647   -8.0286 C   0  0  0  0  0  0  0  0  0  0  0  0
   22.9549   -6.7887   -9.1445 N   0  0  0  0  0  0  0  0  0  0  0  0
   21.0018   -5.2673  -12.4859 C   0  0  0  0  0  0  0  0  0  0  0  0
   21.8931   -4.7616  -13.2125 O   0  0  0  0  0  0  0  0  0  0  0  0
   20.1273   -4.4454  -11.8343 O   0  0  0  0  0  0  0  0  0  0  0  0
  2  1  1  1
  2  3  1  0
  4  2  1  0
  4  5  1  6
  6  7  2  0
  6  4  1  0
  8  6  1  0
  9 10  1  6
  9  8  1  0
 11 12  1  0
 11 10  1  0
 12 13  2  0
 14  9  1  0
 15 14  2  0
 16 12  1  0
 17 14  1  0
 18 17  1  0
 18 19  1  1
 20 19  1  0
 20 21  2  0
 22 21  1  0
 23 22  1  0
 24 23  2  0
 24 20  1  0
 25 18  1  0
 25 27  1  0
 26 25  2  0
M  END
$$$$
