TEH.pdb
     RDKit          3D

 27 27  0  0  1  0  0  0  0  0999 V2000
   20.6765   -6.3440  -22.8527 C   0  0  0  0  0  0  0  0  0  0  0  0
   20.6954   -6.8960  -21.4425 C   0  0  1  0  0  0  0  0  0  0  0  0
   20.2979   -8.2262  -21.4391 O   0  0  0  0  0  0  0  0  0  0  0  0
   22.1115   -6.8325  -20.8607 C   0  0  2  0  0  0  0  0  0  0  0  0
   23.0210   -7.5978  -21.7158 N   0  0  0  0  0  0  0  0  0  0  0  0
   22.1858   -7.3853  -19.5013 C   0  0  0  0  0  0  0  0  0  0  0  0
   22.6753   -8.5528  -19.2972 O   0  0  0  0  0  0  0  0  0  0  0  0
   21.7240   -6.6544  -18.3755 N   0  0  0  0  0  0  0  0  0  0  0  0
   21.8267   -7.2398  -17.0361 C   0  0  1  0  0  0  0  0  0  0  0  0
   22.0266   -6.1361  -16.0017 C   0  0  0  0  0  0  0  0  0  0  0  0
   22.0231   -6.7004  -14.6019 C   0  0  0  0  0  0  0  0  0  0  0  0
   22.1623   -5.6725  -13.5704 C   0  0  0  0  0  0  0  0  0  0  0  0
   21.8795   -4.4783  -13.8448 O   0  0  0  0  0  0  0  0  0  0  0  0
   20.5825   -7.9855  -16.7765 C   0  0  0  0  0  0  0  0  0  0  0  0
   19.4790   -7.4305  -16.9595 O   0  0  0  0  0  0  0  0  0  0  0  0
   22.5978   -5.9312  -12.2710 O   0  0  0  0  0  0  0  0  0  0  0  0
   20.5551   -9.3488  -16.3134 N   0  0  0  0  0  0  0  0  0  0  0  0
   19.3432  -10.0565  -16.0720 C   0  0  1  0  0  0  0  0  0  0  0  0
   19.5474  -11.4950  -15.7356 C   0  0  0  0  0  0  0  0  0  0  0  0
   18.3652  -12.3191  -15.5381 C   0  0  0  0  0  0  0  0  0  0  0  0
   17.0366  -12.0170  -15.5942 C   0  0  0  0  0  0  0  0  0  0  0  0
   16.2964  -13.1434  -15.3667 N   0  0  0  0  0  0  0  0  0  0  0  0
   17.1614  -14.1180  -15.1755 C   0  0  0  0  0  0  0  0  0  0  0  0
   18.4089  -13.6634  -15.2705 N   0  0  0  0  0  0  0  0  0  0  0  0
   18.4950   -9.4312  -14.9980 C   0  0  0  0  0  0  0  0  0  0  0  0
   19.0968   -9.0741  -13.9547 O   0  0  0  0  0  0  0  0  0  0  0  0
   17.1464   -9.2363  -15.0893 O   0  0  0  0  0  0  0  0  0  0  0  0
  2  1  1  6
  2  3  1  0
  4  2  1  0
  4  5  1  6
  6  7  2  0
  6  4  1  0
  8  6  1  0
  9 10  1  1
  9  8  1  0
 11 12  1  0
 11 10  1  0
 12 13  2  0
 14  9  1  0
 15 14  2  0
 16 12  1  0
 17 14  1  0
 18 17  1  0
 18 19  1  1
 20 19  1  0
 20 21  2  0
 22 21  1  0
 23 22  1  0
 24 23  2  0
 24 20  1  0
 25 18  1  0
 25 27  1  0
 26 25  2  0
M  END
$$$$
