TEH.pdb
     RDKit          3D

 27 27  0  0  1  0  0  0  0  0999 V2000
   17.1706  -13.0406  -14.5962 C   0  0  0  0  0  0  0  0  0  0  0  0
   17.1708  -13.6634  -15.9767 C   0  0  1  0  0  0  0  0  0  0  0  0
   16.4978  -14.8776  -15.9590 O   0  0  0  0  0  0  0  0  0  0  0  0
   16.4552  -12.7499  -16.9774 C   0  0  2  0  0  0  0  0  0  0  0  0
   16.4350  -13.3940  -18.2922 N   0  0  0  0  0  0  0  0  0  0  0  0
   17.1136  -11.4437  -17.1163 C   0  0  0  0  0  0  0  0  0  0  0  0
   18.0555  -11.2749  -17.9699 O   0  0  0  0  0  0  0  0  0  0  0  0
   16.7345  -10.3318  -16.3195 N   0  0  0  0  0  0  0  0  0  0  0  0
   17.4668   -9.0681  -16.4385 C   0  0  1  0  0  0  0  0  0  0  0  0
   16.6793   -7.9472  -15.7665 C   0  0  0  0  0  0  0  0  0  0  0  0
   15.3795   -7.6914  -16.4897 C   0  0  0  0  0  0  0  0  0  0  0  0
   14.3669   -7.0635  -15.6412 C   0  0  0  0  0  0  0  0  0  0  0  0
   13.3880   -7.7431  -15.2397 O   0  0  0  0  0  0  0  0  0  0  0  0
   18.7797   -9.2488  -15.7941 C   0  0  0  0  0  0  0  0  0  0  0  0
   18.8668   -9.9214  -14.7455 O   0  0  0  0  0  0  0  0  0  0  0  0
   14.4126   -5.7297  -15.2361 O   0  0  0  0  0  0  0  0  0  0  0  0
   20.0013   -8.6856  -16.3080 N   0  0  0  0  0  0  0  0  0  0  0  0
   21.2462   -8.7923  -15.6249 C   0  0  1  0  0  0  0  0  0  0  0  0
   22.1605   -9.8181  -16.2044 C   0  0  0  0  0  0  0  0  0  0  0  0
   23.4932   -9.9379  -15.6338 C   0  0  0  0  0  0  0  0  0  0  0  0
   23.9385   -9.8134  -14.3510 C   0  0  0  0  0  0  0  0  0  0  0  0
   25.2843  -10.0484  -14.3040 N   0  0  0  0  0  0  0  0  0  0  0  0
   25.6535  -10.3128  -15.5403 C   0  0  0  0  0  0  0  0  0  0  0  0
   24.6093  -10.2563  -16.3641 N   0  0  0  0  0  0  0  0  0  0  0  0
   21.9887   -7.4865  -15.5374 C   0  0  0  0  0  0  0  0  0  0  0  0
   21.7272   -6.6399  -16.4280 O   0  0  0  0  0  0  0  0  0  0  0  0
   22.9056   -7.1780  -14.5735 O   0  0  0  0  0  0  0  0  0  0  0  0
  2  1  1  1
  2  3  1  0
  4  2  1  0
  4  5  1  6
  6  7  2  0
  6  4  1  0
  8  6  1  0
  9 10  1  1
  9  8  1  0
 11 12  1  0
 11 10  1  0
 12 13  2  0
 14  9  1  0
 15 14  2  0
 16 12  1  0
 17 14  1  0
 18 17  1  0
 18 19  1  6
 20 19  1  0
 20 21  2  0
 22 21  1  0
 23 22  1  0
 24 23  2  0
 24 20  1  0
 25 18  1  0
 25 27  1  0
 26 25  2  0
M  END
$$$$
