TEH.pdb
     RDKit          3D

 27 27  0  0  1  0  0  0  0  0999 V2000
   17.2659  -12.5754  -16.2349 C   0  0  0  0  0  0  0  0  0  0  0  0
   17.9263  -11.7849  -15.1246 C   0  0  1  0  0  0  0  0  0  0  0  0
   18.8802  -10.9221  -15.6474 O   0  0  0  0  0  0  0  0  0  0  0  0
   16.8899  -10.9361  -14.3808 C   0  0  2  0  0  0  0  0  0  0  0  0
   16.2794   -9.9885  -15.3154 N   0  0  0  0  0  0  0  0  0  0  0  0
   17.4798  -10.1723  -13.2728 C   0  0  0  0  0  0  0  0  0  0  0  0
   17.9734  -10.7751  -12.2543 O   0  0  0  0  0  0  0  0  0  0  0  0
   17.5254   -8.7537  -13.2894 N   0  0  0  0  0  0  0  0  0  0  0  0
   18.2559   -8.0369  -12.2406 C   0  0  1  0  0  0  0  0  0  0  0  0
   19.3660   -7.1960  -12.8640 C   0  0  0  0  0  0  0  0  0  0  0  0
   20.1278   -6.4366  -11.8053 C   0  0  0  0  0  0  0  0  0  0  0  0
   21.1920   -5.5983  -12.3571 C   0  0  0  0  0  0  0  0  0  0  0  0
   22.3824   -6.0013  -12.3142 O   0  0  0  0  0  0  0  0  0  0  0  0
   17.2900   -7.1858  -11.5237 C   0  0  0  0  0  0  0  0  0  0  0  0
   16.4713   -6.4993  -12.1701 O   0  0  0  0  0  0  0  0  0  0  0  0
   20.9728   -4.3514  -12.9423 O   0  0  0  0  0  0  0  0  0  0  0  0
   17.2267   -7.0912  -10.0881 N   0  0  0  0  0  0  0  0  0  0  0  0
   16.3102   -6.2365   -9.4118 C   0  0  1  0  0  0  0  0  0  0  0  0
   15.4789   -6.9384   -8.3917 C   0  0  0  0  0  0  0  0  0  0  0  0
   14.4900   -7.8944   -8.8647 C   0  0  0  0  0  0  0  0  0  0  0  0
   14.1661   -8.3075  -10.1233 C   0  0  0  0  0  0  0  0  0  0  0  0
   13.1830   -9.2551  -10.0602 N   0  0  0  0  0  0  0  0  0  0  0  0
   12.9122   -9.4175   -8.7815 C   0  0  0  0  0  0  0  0  0  0  0  0
   13.6742   -8.6206   -8.0356 N   0  0  0  0  0  0  0  0  0  0  0  0
   16.9735   -5.0557   -8.7561 C   0  0  0  0  0  0  0  0  0  0  0  0
   18.2245   -5.1090   -8.6545 O   0  0  0  0  0  0  0  0  0  0  0  0
   16.3121   -3.9609   -8.2777 O   0  0  0  0  0  0  0  0  0  0  0  0
  2  1  1  6
  2  3  1  0
  4  2  1  0
  4  5  1  6
  6  7  2  0
  6  4  1  0
  8  6  1  0
  9 10  1  6
  9  8  1  0
 11 12  1  0
 11 10  1  0
 12 13  2  0
 14  9  1  0
 15 14  2  0
 16 12  1  0
 17 14  1  0
 18 17  1  0
 18 19  1  1
 20 19  1  0
 20 21  2  0
 22 21  1  0
 23 22  1  0
 24 23  2  0
 24 20  1  0
 25 18  1  0
 25 27  1  0
 26 25  2  0
M  END
$$$$
