TYG.pdb
     RDKit          3D

 24 24  0  0  1  0  0  0  0  0999 V2000
   20.3895  -22.2068  -13.1068 C   0  0  0  0  0  0  0  0  0  0  0  0
   21.8404  -21.8050  -13.2630 C   0  0  1  0  0  0  0  0  0  0  0  0
   22.0872  -21.4339  -14.5713 O   0  0  0  0  0  0  0  0  0  0  0  0
   22.2046  -20.7277  -12.2636 C   0  0  2  0  0  0  0  0  0  0  0  0
   21.4781  -19.5133  -12.4624 N   0  0  0  0  0  0  0  0  0  0  0  0
   23.6692  -20.5361  -12.1678 C   0  0  0  0  0  0  0  0  0  0  0  0
   24.1044  -19.3763  -12.4231 O   0  0  0  0  0  0  0  0  0  0  0  0
   27.2551  -18.9125   -5.8328 O   0  0  0  0  0  0  0  0  0  0  0  0
   27.1088  -19.6663   -7.0025 C   0  0  0  0  0  0  0  0  0  0  0  0
   28.2120  -20.0532   -7.7308 C   0  0  0  0  0  0  0  0  0  0  0  0
   28.0787  -20.7946   -8.8825 C   0  0  0  0  0  0  0  0  0  0  0  0
   26.8446  -21.1842   -9.3614 C   0  0  0  0  0  0  0  0  0  0  0  0
   26.6435  -21.9750  -10.5711 C   0  0  0  0  0  0  0  0  0  0  0  0
   26.0027  -21.2423  -11.7241 C   0  0  2  0  0  0  0  0  0  0  0  0
   24.5814  -21.5410  -11.8188 N   0  0  0  0  0  0  0  0  0  0  0  0
   26.6864  -21.5454  -12.9990 C   0  0  0  0  0  0  0  0  0  0  0  0
   26.4751  -22.6488  -13.5507 O   0  0  0  0  0  0  0  0  0  0  0  0
   25.7463  -20.7939   -8.6278 C   0  0  0  0  0  0  0  0  0  0  0  0
   25.8679  -20.0414   -7.4576 C   0  0  0  0  0  0  0  0  0  0  0  0
   27.5682  -20.6235  -13.6061 N   0  0  0  0  0  0  0  0  0  0  0  0
   28.2821  -20.9927  -14.8192 C   0  0  0  0  0  0  0  0  0  0  0  0
   27.4939  -20.6252  -16.0161 C   0  0  0  0  0  0  0  0  0  0  0  0
   28.1977  -20.4434  -17.2082 O   0  0  0  0  0  0  0  0  0  0  0  0
   26.2618  -20.4673  -16.0406 O   0  0  0  0  0  0  0  0  0  0  0  0
  2  1  1  6
  2  3  1  0
  4  6  1  0
  4  2  1  0
  4  5  1  6
  6  7  2  0
  8  9  1  0
  9 10  2  0
 10 11  1  0
 12 11  2  0
 12 13  1  0
 14 13  1  1
 14 16  1  0
 15 14  1  0
 15  6  1  0
 16 17  2  0
 16 20  1  0
 18 12  1  0
 19  9  1  0
 19 18  2  0
 20 21  1  0
 21 22  1  0
 22 23  1  0
 24 22  2  0
M  END
$$$$
