TYG.pdb
     RDKit          3D

 24 24  0  0  1  0  0  0  0  0999 V2000
   19.5641  -13.3467  -17.1883 C   0  0  0  0  0  0  0  0  0  0  0  0
   18.2230  -13.0792  -16.5394 C   0  0  1  0  0  0  0  0  0  0  0  0
   17.5685  -14.2733  -16.3031 O   0  0  0  0  0  0  0  0  0  0  0  0
   18.3941  -12.2409  -15.2904 C   0  0  2  0  0  0  0  0  0  0  0  0
   17.1963  -12.1397  -14.5178 N   0  0  0  0  0  0  0  0  0  0  0  0
   19.0248  -10.9346  -15.5845 C   0  0  0  0  0  0  0  0  0  0  0  0
   18.2777  -10.0486  -16.0910 O   0  0  0  0  0  0  0  0  0  0  0  0
   23.3636   -3.3640  -14.8921 O   0  0  0  0  0  0  0  0  0  0  0  0
   22.9320   -4.6893  -14.7692 C   0  0  0  0  0  0  0  0  0  0  0  0
   21.6916   -4.9777  -14.2443 C   0  0  0  0  0  0  0  0  0  0  0  0
   21.2580   -6.2778  -14.1192 C   0  0  0  0  0  0  0  0  0  0  0  0
   22.0365   -7.3481  -14.5098 C   0  0  0  0  0  0  0  0  0  0  0  0
   21.6266   -8.7447  -14.4070 C   0  0  0  0  0  0  0  0  0  0  0  0
   20.8772   -9.2886  -15.5983 C   0  0  2  0  0  0  0  0  0  0  0  0
   20.3703  -10.6283  -15.3403 N   0  0  0  0  0  0  0  0  0  0  0  0
   21.7180   -9.2732  -16.8139 C   0  0  0  0  0  0  0  0  0  0  0  0
   22.6169  -10.1353  -16.9380 O   0  0  0  0  0  0  0  0  0  0  0  0
   23.2752   -7.0518  -15.0339 C   0  0  0  0  0  0  0  0  0  0  0  0
   23.7271   -5.7371  -15.1660 C   0  0  0  0  0  0  0  0  0  0  0  0
   21.5316   -8.3132  -17.8335 N   0  0  0  0  0  0  0  0  0  0  0  0
   22.4050   -8.3115  -18.9975 C   0  0  0  0  0  0  0  0  0  0  0  0
   21.7888   -9.0702  -20.1083 C   0  0  0  0  0  0  0  0  0  0  0  0
   21.9405   -8.5480  -21.3943 O   0  0  0  0  0  0  0  0  0  0  0  0
   21.1512  -10.1291  -19.9842 O   0  0  0  0  0  0  0  0  0  0  0  0
  2  1  1  1
  2  3  1  0
  4  6  1  0
  4  2  1  0
  4  5  1  6
  6  7  2  0
  8  9  1  0
  9 10  2  0
 10 11  1  0
 12 11  2  0
 12 13  1  0
 14 13  1  1
 14 16  1  0
 15 14  1  0
 15  6  1  0
 16 17  2  0
 16 20  1  0
 18 12  1  0
 19  9  1  0
 19 18  2  0
 20 21  1  0
 21 22  1  0
 22 23  1  0
 24 22  2  0
M  END
$$$$
