TYG.pdb
     RDKit          3D

 24 24  0  0  1  0  0  0  0  0999 V2000
   20.8730  -22.6703  -14.2345 C   0  0  0  0  0  0  0  0  0  0  0  0
   22.1967  -21.9380  -14.2855 C   0  0  1  0  0  0  0  0  0  0  0  0
   22.3378  -21.3062  -15.5066 O   0  0  0  0  0  0  0  0  0  0  0  0
   22.3267  -20.9915  -13.1111 C   0  0  2  0  0  0  0  0  0  0  0  0
   21.2996  -19.9984  -13.0784 N   0  0  0  0  0  0  0  0  0  0  0  0
   23.6943  -20.4370  -12.9977 C   0  0  0  0  0  0  0  0  0  0  0  0
   23.8027  -19.1800  -13.0872 O   0  0  0  0  0  0  0  0  0  0  0  0
   24.9573  -19.9991   -6.2889 O   0  0  0  0  0  0  0  0  0  0  0  0
   25.4411  -20.2820   -7.5709 C   0  0  0  0  0  0  0  0  0  0  0  0
   26.2774  -19.3981   -8.2163 C   0  0  0  0  0  0  0  0  0  0  0  0
   26.7585  -19.6671   -9.4773 C   0  0  0  0  0  0  0  0  0  0  0  0
   26.4305  -20.8249  -10.1525 C   0  0  0  0  0  0  0  0  0  0  0  0
   26.9151  -21.1654  -11.4861 C   0  0  0  0  0  0  0  0  0  0  0  0
   26.1421  -20.5573  -12.6303 C   0  0  2  0  0  0  0  0  0  0  0  0
   24.8499  -21.2049  -12.8016 N   0  0  0  0  0  0  0  0  0  0  0  0
   26.9194  -20.6016  -13.8867 C   0  0  0  0  0  0  0  0  0  0  0  0
   26.9963  -21.6831  -14.5120 O   0  0  0  0  0  0  0  0  0  0  0  0
   25.5940  -21.7038   -9.5008 C   0  0  0  0  0  0  0  0  0  0  0  0
   25.0989  -21.4428   -8.2214 C   0  0  0  0  0  0  0  0  0  0  0  0
   27.5741  -19.4577  -14.3955 N   0  0  0  0  0  0  0  0  0  0  0  0
   28.3506  -19.5514  -15.6226 C   0  0  0  0  0  0  0  0  0  0  0  0
   27.5414  -19.1157  -16.7821 C   0  0  0  0  0  0  0  0  0  0  0  0
   28.1813  -18.3313  -17.7437 O   0  0  0  0  0  0  0  0  0  0  0  0
   26.3441  -19.3931  -16.9635 O   0  0  0  0  0  0  0  0  0  0  0  0
  2  1  1  6
  2  3  1  0
  4  6  1  0
  4  2  1  0
  4  5  1  6
  6  7  2  0
  8  9  1  0
  9 10  2  0
 10 11  1  0
 12 11  2  0
 12 13  1  0
 14 13  1  1
 14 16  1  0
 15 14  1  0
 15  6  1  0
 16 17  2  0
 16 20  1  0
 18 12  1  0
 19  9  1  0
 19 18  2  0
 20 21  1  0
 21 22  1  0
 22 23  1  0
 24 22  2  0
M  END
$$$$
