TYG.pdb
     RDKit          3D

 24 24  0  0  1  0  0  0  0  0999 V2000
   25.7984  -10.1598  -17.7415 C   0  0  0  0  0  0  0  0  0  0  0  0
   25.2323  -11.2917  -18.5718 C   0  0  1  0  0  0  0  0  0  0  0  0
   26.2435  -12.1625  -18.9314 O   0  0  0  0  0  0  0  0  0  0  0  0
   24.0972  -11.9736  -17.8380 C   0  0  2  0  0  0  0  0  0  0  0  0
   23.5843  -13.1101  -18.5362 N   0  0  0  0  0  0  0  0  0  0  0  0
   23.0533  -11.0114  -17.4196 C   0  0  0  0  0  0  0  0  0  0  0  0
   22.2485  -10.6267  -18.3163 O   0  0  0  0  0  0  0  0  0  0  0  0
   17.7914  -14.2625  -17.6195 O   0  0  0  0  0  0  0  0  0  0  0  0
   18.5254  -13.2672  -16.9651 C   0  0  0  0  0  0  0  0  0  0  0  0
   19.6078  -13.5955  -16.1790 C   0  0  0  0  0  0  0  0  0  0  0  0
   20.3361  -12.6240  -15.5313 C   0  0  0  0  0  0  0  0  0  0  0  0
   20.0218  -11.2844  -15.6355 C   0  0  0  0  0  0  0  0  0  0  0  0
   20.7611  -10.2121  -14.9777 C   0  0  0  0  0  0  0  0  0  0  0  0
   21.8438   -9.5684  -15.8083 C   0  0  2  0  0  0  0  0  0  0  0  0
   22.9073  -10.5126  -16.1182 N   0  0  0  0  0  0  0  0  0  0  0  0
   22.3894   -8.3674  -15.1414 C   0  0  0  0  0  0  0  0  0  0  0  0
   23.1820   -8.5152  -14.1842 O   0  0  0  0  0  0  0  0  0  0  0  0
   18.9385  -10.9639  -16.4233 C   0  0  0  0  0  0  0  0  0  0  0  0
   18.1912  -11.9400  -17.0858 C   0  0  0  0  0  0  0  0  0  0  0  0
   22.0387   -7.0635  -15.5572 N   0  0  0  0  0  0  0  0  0  0  0  0
   22.6840   -5.9096  -14.9492 C   0  0  0  0  0  0  0  0  0  0  0  0
   21.9727   -5.5090  -13.7153 C   0  0  0  0  0  0  0  0  0  0  0  0
   22.4787   -4.4091  -13.0198 O   0  0  0  0  0  0  0  0  0  0  0  0
   20.9663   -6.0731  -13.2545 O   0  0  0  0  0  0  0  0  0  0  0  0
  2  1  1  1
  2  3  1  0
  4  6  1  0
  4  2  1  0
  4  5  1  6
  6  7  2  0
  8  9  1  0
  9 10  2  0
 10 11  1  0
 12 11  2  0
 12 13  1  0
 14 13  1  1
 14 16  1  0
 15 14  1  0
 15  6  1  0
 16 17  2  0
 16 20  1  0
 18 12  1  0
 19  9  1  0
 19 18  2  0
 20 21  1  0
 21 22  1  0
 22 23  1  0
 24 22  2  0
M  END
$$$$
