TYG.pdb
     RDKit          3D

 24 24  0  0  1  0  0  0  0  0999 V2000
   20.0811   -7.0964  -16.9191 C   0  0  0  0  0  0  0  0  0  0  0  0
   20.5919   -6.6256  -15.5744 C   0  0  1  0  0  0  0  0  0  0  0  0
   19.7989   -5.5958  -15.1045 O   0  0  0  0  0  0  0  0  0  0  0  0
   20.6899   -7.7857  -14.6066 C   0  0  2  0  0  0  0  0  0  0  0  0
   20.9479   -7.3718  -13.2634 N   0  0  0  0  0  0  0  0  0  0  0  0
   21.6138   -8.8345  -15.0940 C   0  0  0  0  0  0  0  0  0  0  0  0
   22.8463   -8.5509  -15.0814 O   0  0  0  0  0  0  0  0  0  0  0  0
   26.0210  -16.2538  -16.5444 O   0  0  0  0  0  0  0  0  0  0  0  0
   25.0848  -15.2743  -16.1955 C   0  0  0  0  0  0  0  0  0  0  0  0
   23.7750  -15.3759  -16.6095 C   0  0  0  0  0  0  0  0  0  0  0  0
   22.8467  -14.4178  -16.2717 C   0  0  0  0  0  0  0  0  0  0  0  0
   23.1780  -13.3172  -15.5083 C   0  0  0  0  0  0  0  0  0  0  0  0
   22.2357  -12.2748  -15.1147 C   0  0  0  0  0  0  0  0  0  0  0  0
   22.2031  -11.0605  -16.0097 C   0  0  2  0  0  0  0  0  0  0  0  0
   21.2126  -10.0944  -15.5579 N   0  0  0  0  0  0  0  0  0  0  0  0
   21.9604  -11.4381  -17.4180 C   0  0  0  0  0  0  0  0  0  0  0  0
   20.7847  -11.6445  -17.7943 O   0  0  0  0  0  0  0  0  0  0  0  0
   24.4893  -13.2224  -15.0978 C   0  0  0  0  0  0  0  0  0  0  0  0
   25.4409  -14.1876  -15.4339 C   0  0  0  0  0  0  0  0  0  0  0  0
   23.0189  -11.5707  -18.3442 N   0  0  0  0  0  0  0  0  0  0  0  0
   22.7321  -11.9019  -19.7318 C   0  0  0  0  0  0  0  0  0  0  0  0
   22.9401  -13.3467  -19.9729 C   0  0  0  0  0  0  0  0  0  0  0  0
   24.1909  -13.8717  -19.6421 O   0  0  0  0  0  0  0  0  0  0  0  0
   22.0920  -14.1227  -20.4442 O   0  0  0  0  0  0  0  0  0  0  0  0
  2  1  1  6
  2  3  1  0
  4  6  1  0
  4  2  1  0
  4  5  1  1
  6  7  2  0
  8  9  1  0
  9 10  2  0
 10 11  1  0
 12 11  2  0
 12 13  1  0
 14 13  1  1
 14 16  1  0
 15 14  1  0
 15  6  1  0
 16 17  2  0
 16 20  1  0
 18 12  1  0
 19  9  1  0
 19 18  2  0
 20 21  1  0
 21 22  1  0
 22 23  1  0
 24 22  2  0
M  END
$$$$
