TYG.pdb
     RDKit          3D

 24 24  0  0  1  0  0  0  0  0999 V2000
   25.7948  -16.8869  -18.3915 C   0  0  0  0  0  0  0  0  0  0  0  0
   26.6282  -17.7892  -19.2760 C   0  0  1  0  0  0  0  0  0  0  0  0
   27.0737  -17.0854  -20.3788 O   0  0  0  0  0  0  0  0  0  0  0  0
   27.7529  -18.4203  -18.4829 C   0  0  2  0  0  0  0  0  0  0  0  0
   28.6133  -19.2325  -19.2841 N   0  0  0  0  0  0  0  0  0  0  0  0
   27.2561  -19.1002  -17.2657 C   0  0  0  0  0  0  0  0  0  0  0  0
   26.7224  -20.2348  -17.4312 O   0  0  0  0  0  0  0  0  0  0  0  0
   25.2281  -21.2490   -8.8726 O   0  0  0  0  0  0  0  0  0  0  0  0
   25.7982  -20.7150  -10.0334 C   0  0  0  0  0  0  0  0  0  0  0  0
   26.4714  -21.5247  -10.9213 C   0  0  0  0  0  0  0  0  0  0  0  0
   27.0358  -21.0091  -12.0657 C   0  0  0  0  0  0  0  0  0  0  0  0
   26.9564  -19.6675  -12.3786 C   0  0  0  0  0  0  0  0  0  0  0  0
   27.5290  -19.0672  -13.5789 C   0  0  0  0  0  0  0  0  0  0  0  0
   26.7421  -19.2817  -14.8483 C   0  0  2  0  0  0  0  0  0  0  0  0
   27.3402  -18.5730  -15.9700 N   0  0  0  0  0  0  0  0  0  0  0  0
   25.3278  -18.8883  -14.6759 C   0  0  0  0  0  0  0  0  0  0  0  0
   25.0427  -17.6713  -14.6102 O   0  0  0  0  0  0  0  0  0  0  0  0
   26.2816  -18.8643  -11.4862 C   0  0  0  0  0  0  0  0  0  0  0  0
   25.7047  -19.3749  -10.3215 C   0  0  0  0  0  0  0  0  0  0  0  0
   24.2958  -19.8488  -14.5841 N   0  0  0  0  0  0  0  0  0  0  0  0
   22.9460  -19.4327  -14.2343 C   0  0  0  0  0  0  0  0  0  0  0  0
   22.2402  -20.5160  -13.5149 C   0  0  0  0  0  0  0  0  0  0  0  0
   20.9397  -20.2486  -13.0828 O   0  0  0  0  0  0  0  0  0  0  0  0
   22.7140  -21.6377  -13.2680 O   0  0  0  0  0  0  0  0  0  0  0  0
  2  1  1  1
  2  3  1  0
  4  6  1  0
  4  2  1  0
  4  5  1  6
  6  7  2  0
  8  9  1  0
  9 10  2  0
 10 11  1  0
 12 11  2  0
 12 13  1  0
 14 13  1  1
 14 16  1  0
 15 14  1  0
 15  6  1  0
 16 17  2  0
 16 20  1  0
 18 12  1  0
 19  9  1  0
 19 18  2  0
 20 21  1  0
 21 22  1  0
 22 23  1  0
 24 22  2  0
M  END
$$$$
