TYG.pdb
     RDKit          3D

 24 24  0  0  1  0  0  0  0  0999 V2000
   19.9959   -7.2597  -19.7434 C   0  0  0  0  0  0  0  0  0  0  0  0
   20.0752   -8.7521  -19.5035 C   0  0  1  0  0  0  0  0  0  0  0  0
   20.0997   -9.4219  -20.7122 O   0  0  0  0  0  0  0  0  0  0  0  0
   21.2564   -9.0865  -18.6176 C   0  0  2  0  0  0  0  0  0  0  0  0
   21.4954  -10.4915  -18.5129 N   0  0  0  0  0  0  0  0  0  0  0  0
   21.1785   -8.3970  -17.3102 C   0  0  0  0  0  0  0  0  0  0  0  0
   20.5625   -9.0047  -16.3877 O   0  0  0  0  0  0  0  0  0  0  0  0
   26.3450  -11.0330  -15.1684 O   0  0  0  0  0  0  0  0  0  0  0  0
   25.5276   -9.8976  -15.1492 C   0  0  0  0  0  0  0  0  0  0  0  0
   24.4993   -9.7883  -14.2393 C   0  0  0  0  0  0  0  0  0  0  0  0
   23.6898   -8.6757  -14.2124 C   0  0  0  0  0  0  0  0  0  0  0  0
   23.8657   -7.6232  -15.0872 C   0  0  0  0  0  0  0  0  0  0  0  0
   23.0436   -6.4178  -15.1004 C   0  0  0  0  0  0  0  0  0  0  0  0
   21.6677   -6.5795  -15.6983 C   0  0  2  0  0  0  0  0  0  0  0  0
   21.7343   -7.1393  -17.0401 N   0  0  0  0  0  0  0  0  0  0  0  0
   20.9305   -5.2984  -15.7026 C   0  0  0  0  0  0  0  0  0  0  0  0
   21.5132   -4.2671  -16.1071 O   0  0  0  0  0  0  0  0  0  0  0  0
   24.8960   -7.7396  -15.9938 C   0  0  0  0  0  0  0  0  0  0  0  0
   25.7245   -8.8631  -16.0317 C   0  0  0  0  0  0  0  0  0  0  0  0
   19.5906   -5.2112  -15.2632 N   0  0  0  0  0  0  0  0  0  0  0  0
   18.8704   -3.9517  -15.3752 C   0  0  0  0  0  0  0  0  0  0  0  0
   17.4627   -4.1208  -14.9521 C   0  0  0  0  0  0  0  0  0  0  0  0
   17.0386   -5.4192  -14.6625 O   0  0  0  0  0  0  0  0  0  0  0  0
   16.6354   -3.2013  -14.8357 O   0  0  0  0  0  0  0  0  0  0  0  0
  2  1  1  6
  2  3  1  0
  4  6  1  0
  4  2  1  0
  4  5  1  1
  6  7  2  0
  8  9  1  0
  9 10  2  0
 10 11  1  0
 12 11  2  0
 12 13  1  0
 14 13  1  6
 14 16  1  0
 15 14  1  0
 15  6  1  0
 16 17  2  0
 16 20  1  0
 18 12  1  0
 19  9  1  0
 19 18  2  0
 20 21  1  0
 21 22  1  0
 22 23  1  0
 24 22  2  0
M  END
$$$$
