TYG.pdb
     RDKit          3D

 24 24  0  0  1  0  0  0  0  0999 V2000
   23.8062   -2.6704  -20.4389 C   0  0  0  0  0  0  0  0  0  0  0  0
   24.3344   -3.7985  -21.2987 C   0  0  1  0  0  0  0  0  0  0  0  0
   25.1556   -3.2909  -22.2878 O   0  0  0  0  0  0  0  0  0  0  0  0
   25.0160   -4.8452  -20.4433 C   0  0  2  0  0  0  0  0  0  0  0  0
   25.6189   -5.8881  -21.2120 N   0  0  0  0  0  0  0  0  0  0  0  0
   24.1312   -5.3372  -19.3635 C   0  0  0  0  0  0  0  0  0  0  0  0
   23.2640   -6.1971  -19.6926 O   0  0  0  0  0  0  0  0  0  0  0  0
   20.5231   -8.0072  -11.7894 O   0  0  0  0  0  0  0  0  0  0  0  0
   21.3674   -7.4937  -12.7799 C   0  0  0  0  0  0  0  0  0  0  0  0
   21.9081   -8.3209  -13.7394 C   0  0  0  0  0  0  0  0  0  0  0  0
   22.7396   -7.8256  -14.7177 C   0  0  0  0  0  0  0  0  0  0  0  0
   23.0706   -6.4877  -14.7863 C   0  0  0  0  0  0  0  0  0  0  0  0
   23.9405   -5.9063  -15.8033 C   0  0  0  0  0  0  0  0  0  0  0  0
   23.2439   -5.4229  -17.0513 C   0  0  2  0  0  0  0  0  0  0  0  0
   24.1961   -4.9162  -18.0285 N   0  0  0  0  0  0  0  0  0  0  0  0
   22.2252   -4.3996  -16.7352 C   0  0  0  0  0  0  0  0  0  0  0  0
   22.5985   -3.2974  -16.2743 O   0  0  0  0  0  0  0  0  0  0  0  0
   22.5260   -5.6668  -13.8238 C   0  0  0  0  0  0  0  0  0  0  0  0
   21.6810   -6.1568  -12.8257 C   0  0  0  0  0  0  0  0  0  0  0  0
   20.8474   -4.6354  -16.9400 N   0  0  0  0  0  0  0  0  0  0  0  0
   19.8816   -3.5831  -16.6619 C   0  0  0  0  0  0  0  0  0  0  0  0
   19.2801   -3.7729  -15.3234 C   0  0  0  0  0  0  0  0  0  0  0  0
   18.6789   -2.6590  -14.7342 O   0  0  0  0  0  0  0  0  0  0  0  0
   19.2697   -4.8408  -14.6887 O   0  0  0  0  0  0  0  0  0  0  0  0
  2  1  1  1
  2  3  1  0
  4  6  1  0
  4  2  1  0
  4  5  1  6
  6  7  2  0
  8  9  1  0
  9 10  2  0
 10 11  1  0
 12 11  2  0
 12 13  1  0
 14 13  1  1
 14 16  1  0
 15 14  1  0
 15  6  1  0
 16 17  2  0
 16 20  1  0
 18 12  1  0
 19  9  1  0
 19 18  2  0
 20 21  1  0
 21 22  1  0
 22 23  1  0
 24 22  2  0
M  END
$$$$
