TYG.pdb
     RDKit          3D

 24 24  0  0  1  0  0  0  0  0999 V2000
   22.2867  -21.9485  -14.6435 C   0  0  0  0  0  0  0  0  0  0  0  0
   21.3351  -21.2190  -13.7197 C   0  0  1  0  0  0  0  0  0  0  0  0
   20.0846  -21.8051  -13.7748 O   0  0  0  0  0  0  0  0  0  0  0  0
   21.8985  -21.1579  -12.3159 C   0  0  2  0  0  0  0  0  0  0  0  0
   20.9759  -20.6185  -11.3672 N   0  0  0  0  0  0  0  0  0  0  0  0
   23.2305  -20.5134  -12.2833 C   0  0  0  0  0  0  0  0  0  0  0  0
   23.2454  -19.2544  -12.1638 O   0  0  0  0  0  0  0  0  0  0  0  0
   25.9015  -19.7963   -5.8477 O   0  0  0  0  0  0  0  0  0  0  0  0
   26.0847  -20.1351   -7.1928 C   0  0  0  0  0  0  0  0  0  0  0  0
   25.4105  -21.2011   -7.7462 C   0  0  0  0  0  0  0  0  0  0  0  0
   25.5838  -21.5425   -9.0681 C   0  0  0  0  0  0  0  0  0  0  0  0
   26.4339  -20.8406   -9.8981 C   0  0  0  0  0  0  0  0  0  0  0  0
   26.6518  -21.1526  -11.3068 C   0  0  0  0  0  0  0  0  0  0  0  0
   25.7084  -20.4785  -12.2723 C   0  0  2  0  0  0  0  0  0  0  0  0
   24.4486  -21.2002  -12.3749 N   0  0  0  0  0  0  0  0  0  0  0  0
   26.3283  -20.3176  -13.6045 C   0  0  0  0  0  0  0  0  0  0  0  0
   26.5664  -21.3390  -14.2876 O   0  0  0  0  0  0  0  0  0  0  0  0
   27.1043  -19.7760   -9.3378 C   0  0  0  0  0  0  0  0  0  0  0  0
   26.9374  -19.4193   -7.9980 C   0  0  0  0  0  0  0  0  0  0  0  0
   26.6566  -19.0446  -14.1218 N   0  0  0  0  0  0  0  0  0  0  0  0
   27.3796  -18.9368  -15.3800 C   0  0  0  0  0  0  0  0  0  0  0  0
   26.4444  -18.6593  -16.4924 C   0  0  0  0  0  0  0  0  0  0  0  0
   27.0058  -18.2914  -17.7168 O   0  0  0  0  0  0  0  0  0  0  0  0
   25.2060  -18.7285  -16.4201 O   0  0  0  0  0  0  0  0  0  0  0  0
  2  1  1  6
  2  3  1  0
  4  6  1  0
  4  2  1  0
  4  5  1  1
  6  7  2  0
  8  9  1  0
  9 10  2  0
 10 11  1  0
 12 11  2  0
 12 13  1  0
 14 13  1  1
 14 16  1  0
 15 14  1  0
 15  6  1  0
 16 17  2  0
 16 20  1  0
 18 12  1  0
 19  9  1  0
 19 18  2  0
 20 21  1  0
 21 22  1  0
 22 23  1  0
 24 22  2  0
M  END
$$$$
