TYG.pdb
     RDKit          3D

 24 24  0  0  1  0  0  0  0  0999 V2000
   18.6239   -8.5176  -19.7644 C   0  0  0  0  0  0  0  0  0  0  0  0
   18.5858   -7.5541  -18.5977 C   0  0  1  0  0  0  0  0  0  0  0  0
   17.2748   -7.2901  -18.2486 O   0  0  0  0  0  0  0  0  0  0  0  0
   19.4103   -8.0833  -17.4435 C   0  0  2  0  0  0  0  0  0  0  0  0
   18.9401   -9.3399  -16.9518 N   0  0  0  0  0  0  0  0  0  0  0  0
   19.5995   -7.0640  -16.3872 C   0  0  0  0  0  0  0  0  0  0  0  0
   18.9709   -7.2491  -15.3054 O   0  0  0  0  0  0  0  0  0  0  0  0
   23.6327  -10.3674  -13.4290 O   0  0  0  0  0  0  0  0  0  0  0  0
   23.2132   -9.0739  -13.7588 C   0  0  0  0  0  0  0  0  0  0  0  0
   22.4515   -8.3373  -12.8787 C   0  0  0  0  0  0  0  0  0  0  0  0
   22.0339   -7.0644  -13.1937 C   0  0  0  0  0  0  0  0  0  0  0  0
   22.3542   -6.4673  -14.3958 C   0  0  0  0  0  0  0  0  0  0  0  0
   21.9453   -5.1204  -14.7803 C   0  0  0  0  0  0  0  0  0  0  0  0
   20.5715   -5.0118  -15.3947 C   0  0  2  0  0  0  0  0  0  0  0  0
   20.4153   -5.9315  -16.5119 N   0  0  0  0  0  0  0  0  0  0  0  0
   20.2794   -3.6251  -15.8147 C   0  0  0  0  0  0  0  0  0  0  0  0
   21.0525   -3.0628  -16.6226 O   0  0  0  0  0  0  0  0  0  0  0  0
   23.1161   -7.2098  -15.2704 C   0  0  0  0  0  0  0  0  0  0  0  0
   23.5462   -8.5024  -14.9630 C   0  0  0  0  0  0  0  0  0  0  0  0
   19.1540   -2.9233  -15.3281 N   0  0  0  0  0  0  0  0  0  0  0  0
   18.8596   -1.5883  -15.8267 C   0  0  0  0  0  0  0  0  0  0  0  0
   19.6289   -0.5731  -15.0740 C   0  0  0  0  0  0  0  0  0  0  0  0
   19.4444    0.7620  -15.4387 O   0  0  0  0  0  0  0  0  0  0  0  0
   20.4211   -0.8170  -14.1485 O   0  0  0  0  0  0  0  0  0  0  0  0
  2  1  1  6
  2  3  1  0
  4  6  1  0
  4  2  1  0
  4  5  1  1
  6  7  2  0
  8  9  1  0
  9 10  2  0
 10 11  1  0
 12 11  2  0
 12 13  1  0
 14 13  1  6
 14 16  1  0
 15 14  1  0
 15  6  1  0
 16 17  2  0
 16 20  1  0
 18 12  1  0
 19  9  1  0
 19 18  2  0
 20 21  1  0
 21 22  1  0
 22 23  1  0
 24 22  2  0
M  END
$$$$
