TYG.pdb
     RDKit          3D

 24 24  0  0  1  0  0  0  0  0999 V2000
   24.0858   -8.0488  -17.2767 C   0  0  0  0  0  0  0  0  0  0  0  0
   23.7333   -9.1709  -18.2294 C   0  0  1  0  0  0  0  0  0  0  0  0
   24.8857   -9.7024  -18.7767 O   0  0  0  0  0  0  0  0  0  0  0  0
   22.8749  -10.2075  -17.5361 C   0  0  2  0  0  0  0  0  0  0  0  0
   22.5982  -11.3432  -18.3581 N   0  0  0  0  0  0  0  0  0  0  0  0
   21.6678   -9.6061  -16.9261 C   0  0  0  0  0  0  0  0  0  0  0  0
   20.7113   -9.3419  -17.7103 O   0  0  0  0  0  0  0  0  0  0  0  0
   16.5215  -13.6049  -16.7275 O   0  0  0  0  0  0  0  0  0  0  0  0
   17.2619  -12.6024  -16.0915 C   0  0  0  0  0  0  0  0  0  0  0  0
   16.6291  -11.5376  -15.4891 C   0  0  0  0  0  0  0  0  0  0  0  0
   17.3483  -10.5464  -14.8611 C   0  0  0  0  0  0  0  0  0  0  0  0
   18.7268  -10.5690  -14.8039 C   0  0  0  0  0  0  0  0  0  0  0  0
   19.5400   -9.5508  -14.1473 C   0  0  0  0  0  0  0  0  0  0  0  0
   20.3262   -8.6549  -15.0724 C   0  0  2  0  0  0  0  0  0  0  0  0
   21.5254   -9.3186  -15.5620 N   0  0  0  0  0  0  0  0  0  0  0  0
   20.6680   -7.3747  -14.4175 C   0  0  0  0  0  0  0  0  0  0  0  0
   21.3866   -7.3930  -13.3929 O   0  0  0  0  0  0  0  0  0  0  0  0
   19.3524  -11.6368  -15.4083 C   0  0  0  0  0  0  0  0  0  0  0  0
   18.6344  -12.6489  -16.0488 C   0  0  0  0  0  0  0  0  0  0  0  0
   20.2050   -6.1375  -14.9184 N   0  0  0  0  0  0  0  0  0  0  0  0
   20.6784   -4.8933  -14.3306 C   0  0  0  0  0  0  0  0  0  0  0  0
   22.0789   -4.6321  -14.7297 C   0  0  0  0  0  0  0  0  0  0  0  0
   22.2863   -3.6849  -15.7344 O   0  0  0  0  0  0  0  0  0  0  0  0
   23.0773   -5.1878  -14.2420 O   0  0  0  0  0  0  0  0  0  0  0  0
  2  1  1  1
  2  3  1  0
  4  6  1  0
  4  2  1  0
  4  5  1  6
  6  7  2  0
  8  9  1  0
  9 10  2  0
 10 11  1  0
 12 11  2  0
 12 13  1  0
 14 13  1  1
 14 16  1  0
 15 14  1  0
 15  6  1  0
 16 17  2  0
 16 20  1  0
 18 12  1  0
 19  9  1  0
 19 18  2  0
 20 21  1  0
 21 22  1  0
 22 23  1  0
 24 22  2  0
M  END
$$$$
