TYG.pdb
     RDKit          3D

 24 24  0  0  1  0  0  0  0  0999 V2000
   20.4372  -22.3585  -13.8110 C   0  0  0  0  0  0  0  0  0  0  0  0
   21.8281  -21.7618  -13.8353 C   0  0  1  0  0  0  0  0  0  0  0  0
   21.9817  -20.9732  -14.9598 O   0  0  0  0  0  0  0  0  0  0  0  0
   22.1102  -21.0175  -12.5475 C   0  0  2  0  0  0  0  0  0  0  0  0
   21.2162  -19.9246  -12.3272 N   0  0  0  0  0  0  0  0  0  0  0  0
   23.5390  -20.6519  -12.4229 C   0  0  0  0  0  0  0  0  0  0  0  0
   23.8038  -19.4158  -12.3837 O   0  0  0  0  0  0  0  0  0  0  0  0
   27.2245  -19.1024   -6.2596 O   0  0  0  0  0  0  0  0  0  0  0  0
   27.1029  -19.7747   -7.4805 C   0  0  0  0  0  0  0  0  0  0  0  0
   25.8618  -20.0969   -7.9839 C   0  0  0  0  0  0  0  0  0  0  0  0
   25.7316  -20.7581   -9.1837 C   0  0  0  0  0  0  0  0  0  0  0  0
   26.8274  -21.1284   -9.9362 C   0  0  0  0  0  0  0  0  0  0  0  0
   26.7495  -21.8241  -11.2164 C   0  0  0  0  0  0  0  0  0  0  0  0
   25.9709  -21.1108  -12.2942 C   0  0  2  0  0  0  0  0  0  0  0  0
   24.5919  -21.5735  -12.3476 N   0  0  0  0  0  0  0  0  0  0  0  0
   26.6224  -21.2569  -13.6129 C   0  0  0  0  0  0  0  0  0  0  0  0
   26.9298  -22.4028  -14.0115 O   0  0  0  0  0  0  0  0  0  0  0  0
   28.0648  -20.8028   -9.4266 C   0  0  0  0  0  0  0  0  0  0  0  0
   28.2107  -20.1321   -8.2104 C   0  0  0  0  0  0  0  0  0  0  0  0
   26.9047  -20.1391  -14.4295 N   0  0  0  0  0  0  0  0  0  0  0  0
   27.4565  -20.3342  -15.7617 C   0  0  0  0  0  0  0  0  0  0  0  0
   27.4951  -19.0520  -16.4991 C   0  0  0  0  0  0  0  0  0  0  0  0
   28.1496  -19.0487  -17.7325 O   0  0  0  0  0  0  0  0  0  0  0  0
   26.9928  -17.9857  -16.1067 O   0  0  0  0  0  0  0  0  0  0  0  0
  2  1  1  1
  2  3  1  0
  4  6  1  0
  4  2  1  0
  4  5  1  6
  6  7  2  0
  8  9  1  0
  9 10  2  0
 10 11  1  0
 12 11  2  0
 12 13  1  0
 14 13  1  1
 14 16  1  0
 15 14  1  0
 15  6  1  0
 16 17  2  0
 16 20  1  0
 18 12  1  0
 19  9  1  0
 19 18  2  0
 20 21  1  0
 21 22  1  0
 22 23  1  0
 24 22  2  0
M  END
$$$$
