TYG.pdb
     RDKit          3D

 24 24  0  0  1  0  0  0  0  0999 V2000
   26.6842  -18.0870  -13.7804 C   0  0  0  0  0  0  0  0  0  0  0  0
   27.6249  -19.1918  -14.2113 C   0  0  1  0  0  0  0  0  0  0  0  0
   28.6118  -18.6763  -15.0300 O   0  0  0  0  0  0  0  0  0  0  0  0
   28.1777  -19.9206  -13.0049 C   0  0  2  0  0  0  0  0  0  0  0  0
   29.2455  -20.8119  -13.3324 N   0  0  0  0  0  0  0  0  0  0  0  0
   27.1056  -20.5469  -12.1993 C   0  0  0  0  0  0  0  0  0  0  0  0
   26.9858  -21.8021  -12.2979 O   0  0  0  0  0  0  0  0  0  0  0  0
   29.2682  -20.3127   -5.7452 O   0  0  0  0  0  0  0  0  0  0  0  0
   28.1838  -20.2222   -6.6247 C   0  0  0  0  0  0  0  0  0  0  0  0
   27.5981  -19.0050   -6.8940 C   0  0  0  0  0  0  0  0  0  0  0  0
   26.5311  -18.9055   -7.7574 C   0  0  0  0  0  0  0  0  0  0  0  0
   25.9991  -20.0098   -8.3911 C   0  0  0  0  0  0  0  0  0  0  0  0
   24.8746  -19.9634   -9.3199 C   0  0  0  0  0  0  0  0  0  0  0  0
   25.1414  -20.5404  -10.6883 C   0  0  2  0  0  0  0  0  0  0  0  0
   26.2352  -19.8472  -11.3528 N   0  0  0  0  0  0  0  0  0  0  0  0
   23.9239  -20.5195  -11.5262 C   0  0  0  0  0  0  0  0  0  0  0  0
   23.2085  -19.4925  -11.5273 O   0  0  0  0  0  0  0  0  0  0  0  0
   26.5900  -21.2233   -8.1171 C   0  0  0  0  0  0  0  0  0  0  0  0
   27.6731  -21.3378   -7.2430 C   0  0  0  0  0  0  0  0  0  0  0  0
   23.5510  -21.6259  -12.3217 N   0  0  0  0  0  0  0  0  0  0  0  0
   22.3166  -21.5835  -13.0911 C   0  0  0  0  0  0  0  0  0  0  0  0
   22.1576  -22.8229  -13.8835 C   0  0  0  0  0  0  0  0  0  0  0  0
   23.2237  -23.7245  -13.8723 O   0  0  0  0  0  0  0  0  0  0  0  0
   21.1543  -23.1199  -14.5533 O   0  0  0  0  0  0  0  0  0  0  0  0
  2  1  1  1
  2  3  1  0
  4  6  1  0
  4  2  1  0
  4  5  1  6
  6  7  2  0
  8  9  1  0
  9 10  2  0
 10 11  1  0
 12 11  2  0
 12 13  1  0
 14 13  1  1
 14 16  1  0
 15 14  1  0
 15  6  1  0
 16 17  2  0
 16 20  1  0
 18 12  1  0
 19  9  1  0
 19 18  2  0
 20 21  1  0
 21 22  1  0
 22 23  1  0
 24 22  2  0
M  END
$$$$
