TYG.pdb
     RDKit          3D

 24 24  0  0  1  0  0  0  0  0999 V2000
   27.3968  -32.7858  -18.3430 C   0  0  0  0  0  0  0  0  0  0  0  0
   28.6448  -32.0692  -17.8737 C   0  0  1  0  0  0  0  0  0  0  0  0
   28.9949  -31.0898  -18.7839 O   0  0  0  0  0  0  0  0  0  0  0  0
   28.4544  -31.5325  -16.4710 C   0  0  2  0  0  0  0  0  0  0  0  0
   29.5855  -30.8001  -15.9954 N   0  0  0  0  0  0  0  0  0  0  0  0
   27.9895  -32.5822  -15.5368 C   0  0  0  0  0  0  0  0  0  0  0  0
   28.8836  -33.3063  -15.0115 O   0  0  0  0  0  0  0  0  0  0  0  0
   23.5752  -37.4545   -9.6222 O   0  0  0  0  0  0  0  0  0  0  0  0
   23.9771  -36.4795  -10.5416 C   0  0  0  0  0  0  0  0  0  0  0  0
   25.2361  -35.9251  -10.4716 C   0  0  0  0  0  0  0  0  0  0  0  0
   25.6408  -34.9654  -11.3711 C   0  0  0  0  0  0  0  0  0  0  0  0
   24.8136  -34.5143  -12.3792 C   0  0  0  0  0  0  0  0  0  0  0  0
   25.1908  -33.5053  -13.3635 C   0  0  0  0  0  0  0  0  0  0  0  0
   26.2898  -33.9089  -14.3153 C   0  0  2  0  0  0  0  0  0  0  0  0
   26.6476  -32.8158  -15.2073 N   0  0  0  0  0  0  0  0  0  0  0  0
   25.9157  -35.1124  -15.0877 C   0  0  0  0  0  0  0  0  0  0  0  0
   25.0181  -35.0191  -15.9549 O   0  0  0  0  0  0  0  0  0  0  0  0
   23.5565  -35.0733  -12.4430 C   0  0  0  0  0  0  0  0  0  0  0  0
   23.1336  -36.0477  -11.5364 C   0  0  0  0  0  0  0  0  0  0  0  0
   26.5445  -36.3588  -14.8710 N   0  0  0  0  0  0  0  0  0  0  0  0
   26.1088  -37.5308  -15.6153 C   0  0  0  0  0  0  0  0  0  0  0  0
   26.9298  -38.7078  -15.2550 C   0  0  0  0  0  0  0  0  0  0  0  0
   26.6313  -39.9106  -15.8982 O   0  0  0  0  0  0  0  0  0  0  0  0
   27.8579  -38.7068  -14.4292 O   0  0  0  0  0  0  0  0  0  0  0  0
  2  1  1  6
  2  3  1  0
  4  6  1  0
  4  2  1  0
  4  5  1  1
  6  7  2  0
  8  9  1  0
  9 10  2  0
 10 11  1  0
 12 11  2  0
 12 13  1  0
 14 13  1  6
 14 16  1  0
 15 14  1  0
 15  6  1  0
 16 17  2  0
 16 20  1  0
 18 12  1  0
 19  9  1  0
 19 18  2  0
 20 21  1  0
 21 22  1  0
 22 23  1  0
 24 22  2  0
M  END
$$$$
