ARK.pdb
     RDKit          3D

 26 25  0  0  1  0  0  0  0  0999 V2000
   26.3010  -17.7366  -17.9438 C   0  0  0  0  0  0  0  0  0  0  0  0
   27.1978  -18.8096  -17.3382 C   0  0  2  0  0  0  0  0  0  0  0  0
   27.6638  -19.6378  -18.4048 N   0  0  0  0  0  0  0  0  0  0  0  0
   26.3740  -19.5476  -16.3489 C   0  0  0  0  0  0  0  0  0  0  0  0
   25.5140  -20.3500  -16.7867 O   0  0  0  0  0  0  0  0  0  0  0  0
   23.0289  -19.7587   -9.7572 N   0  0  0  0  0  0  0  0  0  0  0  0
   23.7835  -20.5639   -8.8674 C   0  0  0  0  0  0  0  0  0  0  0  0
   23.2481  -21.0889   -7.8022 N   0  0  0  0  0  0  0  0  0  0  0  0
   25.1636  -20.8455   -9.0891 N   0  0  0  0  0  0  0  0  0  0  0  0
   25.8760  -20.2970  -10.1890 C   0  0  0  0  0  0  0  0  0  0  0  0
   25.2631  -20.5576  -11.5463 C   0  0  0  0  0  0  0  0  0  0  0  0
   26.1574  -19.8699  -12.5516 C   0  0  0  0  0  0  0  0  0  0  0  0
   25.6916  -20.0462  -13.9671 C   0  0  2  0  0  0  0  0  0  0  0  0
   26.5030  -19.3983  -14.9492 N   0  0  0  0  0  0  0  0  0  0  0  0
   24.2800  -19.5908  -14.0982 C   0  0  0  0  0  0  0  0  0  0  0  0
   23.9796  -18.3749  -13.9549 O   0  0  0  0  0  0  0  0  0  0  0  0
   23.8903  -21.5824   -7.1539 N   0  0  0  0  0  0  0  0  0  0  0  0
   23.2250  -20.4784  -14.3843 C   0  0  2  0  0  0  0  0  0  0  0  0
   21.8505  -20.0670  -14.6377 C   0  0  0  0  0  0  0  0  0  0  0  0
   21.1041  -21.0934  -15.4211 C   0  0  0  0  0  0  0  0  0  0  0  0
   20.1461  -21.9199  -14.6226 C   0  0  0  0  0  0  0  0  0  0  0  0
   19.5389  -23.0438  -15.4615 C   0  0  0  0  0  0  0  0  0  0  0  0
   18.5440  -23.8172  -14.5904 N   0  0  0  0  0  0  0  0  0  0  0  0
   17.9129  -24.8697  -15.3256 C   0  0  0  0  0  0  0  0  0  0  0  0
   21.2012  -19.8630  -13.3247 O   0  0  0  0  0  0  0  0  0  0  0  0
   20.1485  -18.9933  -13.1052 O   0  0  0  0  0  0  0  0  0  0  0  0
  2  1  1  6
  2  3  1  0
  4  2  1  0
  4  5  2  0
  6  7  1  0
  7  8  2  0
  7  9  1  0
  9 10  1  0
 11 10  1  0
 12 11  1  0
 13 14  1  0
 13 12  1  1
 14  4  1  0
 15 13  1  0
 16 15  2  0
 17 15  1  0
 18 19  1  6
 18 17  1  0
 19 20  1  0
 20 21  1  0
 21 22  1  0
 23 22  1  0
 24 18  1  0
 25 24  1  0
 26 24  2  0
M  END
$$$$
