ARK.pdb
     RDKit          3D

 26 25  0  0  1  0  0  0  0  0999 V2000
   27.8211  -22.6378  -15.7808 C   0  0  0  0  0  0  0  0  0  0  0  0
   26.6916  -21.6594  -16.0800 C   0  0  2  0  0  0  0  0  0  0  0  0
   27.2557  -20.3478  -16.1286 N   0  0  0  0  0  0  0  0  0  0  0  0
   25.6891  -21.8192  -14.9976 C   0  0  0  0  0  0  0  0  0  0  0  0
   25.0406  -22.8929  -14.9552 O   0  0  0  0  0  0  0  0  0  0  0  0
   27.9892  -21.3823   -9.4436 N   0  0  0  0  0  0  0  0  0  0  0  0
   27.3496  -20.5286   -8.5100 C   0  0  0  0  0  0  0  0  0  0  0  0
   28.0200  -19.9136   -7.5777 N   0  0  0  0  0  0  0  0  0  0  0  0
   25.9434  -20.2940   -8.5408 N   0  0  0  0  0  0  0  0  0  0  0  0
   25.0842  -20.9896   -9.4330 C   0  0  0  0  0  0  0  0  0  0  0  0
   25.6101  -21.1455  -10.8419 C   0  0  0  0  0  0  0  0  0  0  0  0
   24.7444  -20.2666  -11.7145 C   0  0  0  0  0  0  0  0  0  0  0  0
   24.3970  -20.9052  -13.0272 C   0  0  2  0  0  0  0  0  0  0  0  0
   25.4253  -20.8355  -14.0173 N   0  0  0  0  0  0  0  0  0  0  0  0
   23.1395  -20.3144  -13.5630 C   0  0  0  0  0  0  0  0  0  0  0  0
   23.1125  -19.1241  -13.9770 O   0  0  0  0  0  0  0  0  0  0  0  0
   27.4763  -19.3013   -6.9409 N   0  0  0  0  0  0  0  0  0  0  0  0
   21.9356  -21.0414  -13.6342 C   0  0  2  0  0  0  0  0  0  0  0  0
   20.6914  -20.5190  -14.1835 C   0  0  0  0  0  0  0  0  0  0  0  0
   19.8696  -21.5964  -14.8065 C   0  0  0  0  0  0  0  0  0  0  0  0
   18.5783  -21.1357  -15.4055 C   0  0  0  0  0  0  0  0  0  0  0  0
   17.7904  -22.2994  -16.0058 C   0  0  0  0  0  0  0  0  0  0  0  0
   16.5827  -21.7316  -16.7581 N   0  0  0  0  0  0  0  0  0  0  0  0
   15.8336  -22.7665  -17.4018 C   0  0  0  0  0  0  0  0  0  0  0  0
   19.9449  -19.8942  -13.0702 O   0  0  0  0  0  0  0  0  0  0  0  0
   19.0766  -18.8280  -13.2186 O   0  0  0  0  0  0  0  0  0  0  0  0
  2  1  1  1
  2  3  1  0
  4  2  1  0
  4  5  2  0
  6  7  1  0
  7  8  2  0
  7  9  1  0
  9 10  1  0
 11 10  1  0
 12 11  1  0
 13 14  1  0
 13 12  1  1
 14  4  1  0
 15 13  1  0
 16 15  2  0
 17 15  1  0
 18 19  1  1
 18 17  1  0
 19 20  1  0
 20 21  1  0
 21 22  1  0
 23 22  1  0
 24 18  1  0
 25 24  1  0
 26 24  2  0
M  END
$$$$
