ARK.pdb
     RDKit          3D

 26 25  0  0  1  0  0  0  0  0999 V2000
   19.8025  -29.4487  -14.2227 C   0  0  0  0  0  0  0  0  0  0  0  0
   20.6705  -28.2534  -14.5975 C   0  0  2  0  0  0  0  0  0  0  0  0
   22.0350  -28.6714  -14.5328 N   0  0  0  0  0  0  0  0  0  0  0  0
   20.3493  -27.1723  -13.6331 C   0  0  0  0  0  0  0  0  0  0  0  0
   20.9643  -27.1627  -12.5392 O   0  0  0  0  0  0  0  0  0  0  0  0
   20.7766  -21.0533  -15.0254 N   0  0  0  0  0  0  0  0  0  0  0  0
   20.8822  -20.4712  -13.7372 C   0  0  0  0  0  0  0  0  0  0  0  0
   21.7662  -19.5511  -13.4751 N   0  0  0  0  0  0  0  0  0  0  0  0
   20.0286  -20.8563  -12.6618 N   0  0  0  0  0  0  0  0  0  0  0  0
   19.7456  -22.2190  -12.3771 C   0  0  0  0  0  0  0  0  0  0  0  0
   18.3552  -22.6790  -12.7525 C   0  0  0  0  0  0  0  0  0  0  0  0
   18.5375  -23.8519  -13.6877 C   0  0  0  0  0  0  0  0  0  0  0  0
   19.1104  -25.0603  -13.0070 C   0  0  2  0  0  0  0  0  0  0  0  0
   19.3948  -26.1584  -13.8765 N   0  0  0  0  0  0  0  0  0  0  0  0
   18.2040  -25.5048  -11.9123 C   0  0  0  0  0  0  0  0  0  0  0  0
   17.1416  -26.1322  -12.1707 O   0  0  0  0  0  0  0  0  0  0  0  0
   21.7630  -19.1637  -12.5127 N   0  0  0  0  0  0  0  0  0  0  0  0
   18.4810  -25.2522  -10.5550 C   0  0  2  0  0  0  0  0  0  0  0  0
   17.6006  -25.6207   -9.4541 C   0  0  0  0  0  0  0  0  0  0  0  0
   18.3056  -25.5593   -8.1413 C   0  0  0  0  0  0  0  0  0  0  0  0
   17.4703  -25.9420   -6.9605 C   0  0  0  0  0  0  0  0  0  0  0  0
   18.3023  -26.0042   -5.6801 C   0  0  0  0  0  0  0  0  0  0  0  0
   17.4254  -26.5685   -4.5578 N   0  0  0  0  0  0  0  0  0  0  0  0
   18.1666  -26.7279   -3.3447 C   0  0  0  0  0  0  0  0  0  0  0  0
   16.4638  -24.6747   -9.4618 O   0  0  0  0  0  0  0  0  0  0  0  0
   16.5800  -23.3226   -9.7284 O   0  0  0  0  0  0  0  0  0  0  0  0
  2  1  1  1
  2  3  1  0
  4  2  1  0
  4  5  2  0
  6  7  1  0
  7  8  2  0
  7  9  1  0
  9 10  1  0
 11 10  1  0
 12 11  1  0
 13 14  1  0
 13 12  1  6
 14  4  1  0
 15 13  1  0
 16 15  2  0
 17 15  1  0
 18 19  1  6
 18 17  1  0
 19 20  1  0
 20 21  1  0
 21 22  1  0
 23 22  1  0
 24 18  1  0
 25 24  1  0
 26 24  2  0
M  END
$$$$
