ARK.pdb
     RDKit          3D

 26 25  0  0  1  0  0  0  0  0999 V2000
   26.1542  -17.4014  -20.8890 C   0  0  0  0  0  0  0  0  0  0  0  0
   26.8185  -16.9809  -19.5835 C   0  0  2  0  0  0  0  0  0  0  0  0
   28.2195  -17.2304  -19.7100 N   0  0  0  0  0  0  0  0  0  0  0  0
   26.1833  -17.7771  -18.5043 C   0  0  0  0  0  0  0  0  0  0  0  0
   25.3859  -18.6861  -18.8403 O   0  0  0  0  0  0  0  0  0  0  0  0
   27.5136  -21.1971  -10.9069 N   0  0  0  0  0  0  0  0  0  0  0  0
   26.1161  -21.0423  -11.0870 C   0  0  0  0  0  0  0  0  0  0  0  0
   25.2985  -21.0012  -10.0737 N   0  0  0  0  0  0  0  0  0  0  0  0
   25.5300  -20.9204  -12.3812 N   0  0  0  0  0  0  0  0  0  0  0  0
   26.1650  -20.2026  -13.4299 C   0  0  0  0  0  0  0  0  0  0  0  0
   25.7087  -18.7710  -13.5972 C   0  0  0  0  0  0  0  0  0  0  0  0
   26.5134  -18.2035  -14.7435 C   0  0  0  0  0  0  0  0  0  0  0  0
   25.7937  -18.2783  -16.0580 C   0  0  2  0  0  0  0  0  0  0  0  0
   26.4249  -17.5700  -17.1269 N   0  0  0  0  0  0  0  0  0  0  0  0
   24.3911  -17.8046  -15.8974 C   0  0  0  0  0  0  0  0  0  0  0  0
   24.1462  -16.6006  -15.6157 O   0  0  0  0  0  0  0  0  0  0  0  0
   24.3015  -20.8106  -10.2881 N   0  0  0  0  0  0  0  0  0  0  0  0
   23.2840  -18.6614  -16.0492 C   0  0  2  0  0  0  0  0  0  0  0  0
   21.9028  -18.2722  -15.7974 C   0  0  0  0  0  0  0  0  0  0  0  0
   20.9899  -18.7554  -16.8732 C   0  0  0  0  0  0  0  0  0  0  0  0
   19.5366  -18.4988  -16.6269 C   0  0  0  0  0  0  0  0  0  0  0  0
   18.6661  -19.0872  -17.7367 C   0  0  0  0  0  0  0  0  0  0  0  0
   17.2003  -18.7695  -17.4245 N   0  0  0  0  0  0  0  0  0  0  0  0
   16.3365  -19.1909  -18.4841 C   0  0  0  0  0  0  0  0  0  0  0  0
   21.5082  -18.8590  -14.4985 O   0  0  0  0  0  0  0  0  0  0  0  0
   20.4858  -18.3722  -13.7045 O   0  0  0  0  0  0  0  0  0  0  0  0
  2  1  1  6
  2  3  1  0
  4  2  1  0
  4  5  2  0
  6  7  1  0
  7  8  2  0
  7  9  1  0
  9 10  1  0
 11 10  1  0
 12 11  1  0
 13 14  1  0
 13 12  1  1
 14  4  1  0
 15 13  1  0
 16 15  2  0
 17 15  1  0
 18 19  1  6
 18 17  1  0
 19 20  1  0
 20 21  1  0
 21 22  1  0
 23 22  1  0
 24 18  1  0
 25 24  1  0
 26 24  2  0
M  END
$$$$
