ARK.pdb
     RDKit          3D

 26 25  0  0  1  0  0  0  0  0999 V2000
   18.6663   -8.9247  -15.0358 C   0  0  0  0  0  0  0  0  0  0  0  0
   17.7860   -9.9250  -14.2963 C   0  0  2  0  0  0  0  0  0  0  0  0
   17.0027  -10.6163  -15.2706 N   0  0  0  0  0  0  0  0  0  0  0  0
   16.9635   -9.1451  -13.3386 C   0  0  0  0  0  0  0  0  0  0  0  0
   16.1867   -8.2774  -13.8064 O   0  0  0  0  0  0  0  0  0  0  0  0
   12.0086  -11.1899   -8.2451 N   0  0  0  0  0  0  0  0  0  0  0  0
   11.4190  -10.8689   -9.4936 C   0  0  0  0  0  0  0  0  0  0  0  0
   10.2361  -11.3051   -9.8213 N   0  0  0  0  0  0  0  0  0  0  0  0
   12.0833  -10.0519  -10.4551 N   0  0  0  0  0  0  0  0  0  0  0  0
   13.3309   -9.4305  -10.1806 C   0  0  0  0  0  0  0  0  0  0  0  0
   14.5232  -10.3601  -10.1673 C   0  0  0  0  0  0  0  0  0  0  0  0
   15.7226   -9.5027   -9.8364 C   0  0  0  0  0  0  0  0  0  0  0  0
   16.1717   -8.6537  -10.9893 C   0  0  2  0  0  0  0  0  0  0  0  0
   17.0056   -9.3240  -11.9370 N   0  0  0  0  0  0  0  0  0  0  0  0
   16.8607   -7.4340  -10.4845 C   0  0  0  0  0  0  0  0  0  0  0  0
   18.0710   -7.4763  -10.1344 O   0  0  0  0  0  0  0  0  0  0  0  0
    9.8814  -11.0295  -10.7564 N   0  0  0  0  0  0  0  0  0  0  0  0
   16.2083   -6.1910  -10.3735 C   0  0  2  0  0  0  0  0  0  0  0  0
   16.8565   -4.9577   -9.9476 C   0  0  0  0  0  0  0  0  0  0  0  0
   15.9279   -3.7931  -10.0236 C   0  0  0  0  0  0  0  0  0  0  0  0
   16.5049   -2.4967   -9.5494 C   0  0  0  0  0  0  0  0  0  0  0  0
   15.5119   -1.3466   -9.7124 C   0  0  0  0  0  0  0  0  0  0  0  0
   16.1859   -0.0527   -9.2448 N   0  0  0  0  0  0  0  0  0  0  0  0
   15.3001    1.0658   -9.3487 C   0  0  0  0  0  0  0  0  0  0  0  0
   17.3070   -5.1543   -8.5527 O   0  0  0  0  0  0  0  0  0  0  0  0
   16.8413   -6.1551   -7.7195 O   0  0  0  0  0  0  0  0  0  0  0  0
  2  1  1  6
  2  3  1  0
  4  2  1  0
  4  5  2  0
  6  7  1  0
  7  8  2  0
  7  9  1  0
  9 10  1  0
 11 10  1  0
 12 11  1  0
 13 14  1  0
 13 12  1  1
 14  4  1  0
 15 13  1  0
 16 15  2  0
 17 15  1  0
 18 19  1  6
 18 17  1  0
 19 20  1  0
 20 21  1  0
 21 22  1  0
 23 22  1  0
 24 18  1  0
 25 24  1  0
 26 24  2  0
M  END
$$$$
