ARK.pdb
     RDKit          3D

 26 25  0  0  1  0  0  0  0  0999 V2000
   11.8795  -20.6614   -3.1798 C   0  0  0  0  0  0  0  0  0  0  0  0
   12.5087  -20.8948   -4.5481 C   0  0  2  0  0  0  0  0  0  0  0  0
   11.4955  -20.6834   -5.5328 N   0  0  0  0  0  0  0  0  0  0  0  0
   13.0345  -22.2824   -4.5463 C   0  0  0  0  0  0  0  0  0  0  0  0
   12.2070  -23.2214   -4.6390 O   0  0  0  0  0  0  0  0  0  0  0  0
   17.7606  -27.7190   -7.4063 N   0  0  0  0  0  0  0  0  0  0  0  0
   18.0603  -26.5015   -8.0675 C   0  0  0  0  0  0  0  0  0  0  0  0
   18.1691  -26.4385   -9.3641 N   0  0  0  0  0  0  0  0  0  0  0  0
   18.2556  -25.2824   -7.3541 N   0  0  0  0  0  0  0  0  0  0  0  0
   18.2442  -25.2317   -5.9344 C   0  0  0  0  0  0  0  0  0  0  0  0
   16.8796  -25.3647   -5.2972 C   0  0  0  0  0  0  0  0  0  0  0  0
   16.2993  -23.9703   -5.2492 C   0  0  0  0  0  0  0  0  0  0  0  0
   14.9638  -23.9148   -4.5672 C   0  0  2  0  0  0  0  0  0  0  0  0
   14.4075  -22.6038   -4.4466 N   0  0  0  0  0  0  0  0  0  0  0  0
   15.0521  -24.5511   -3.2238 C   0  0  0  0  0  0  0  0  0  0  0  0
   15.7799  -24.0543   -2.3224 O   0  0  0  0  0  0  0  0  0  0  0  0
   18.3972  -25.5102   -9.7671 N   0  0  0  0  0  0  0  0  0  0  0  0
   14.3399  -25.7206   -2.8953 C   0  0  1  0  0  0  0  0  0  0  0  0
   14.5781  -26.5198   -1.7007 C   0  0  0  0  0  0  0  0  0  0  0  0
   15.8659  -27.2671   -1.7862 C   0  0  0  0  0  0  0  0  0  0  0  0
   16.2479  -28.0061   -0.5426 C   0  0  0  0  0  0  0  0  0  0  0  0
   17.5810  -28.7347   -0.7089 C   0  0  0  0  0  0  0  0  0  0  0  0
   17.9146  -29.4439    0.6073 N   0  0  0  0  0  0  0  0  0  0  0  0
   19.1393  -30.1770    0.5108 C   0  0  0  0  0  0  0  0  0  0  0  0
   14.6071  -25.5936   -0.5480 O   0  0  0  0  0  0  0  0  0  0  0  0
   14.1334  -25.9074    0.7129 O   0  0  0  0  0  0  0  0  0  0  0  0
  2  1  1  1
  2  3  1  0
  4  2  1  0
  4  5  2  0
  6  7  1  0
  7  8  2  0
  7  9  1  0
  9 10  1  0
 11 10  1  0
 12 11  1  0
 13 14  1  0
 13 12  1  1
 14  4  1  0
 15 13  1  0
 16 15  2  0
 17 15  1  0
 18 19  1  6
 18 17  1  0
 19 20  1  0
 20 21  1  0
 21 22  1  0
 23 22  1  0
 24 18  1  0
 25 24  1  0
 26 24  2  0
M  END
$$$$
