ARK.pdb
     RDKit          3D

 26 25  0  0  1  0  0  0  0  0999 V2000
   34.3550   -4.1047  -19.7622 C   0  0  0  0  0  0  0  0  0  0  0  0
   33.2643   -5.0820  -19.3406 C   0  0  2  0  0  0  0  0  0  0  0  0
   32.6695   -4.5778  -18.1437 N   0  0  0  0  0  0  0  0  0  0  0  0
   33.9204   -6.3996  -19.1511 C   0  0  0  0  0  0  0  0  0  0  0  0
   34.6629   -6.8207  -20.0711 O   0  0  0  0  0  0  0  0  0  0  0  0
   37.1075   -8.5067  -11.6977 N   0  0  0  0  0  0  0  0  0  0  0  0
   37.7799   -7.6033  -12.5586 C   0  0  0  0  0  0  0  0  0  0  0  0
   38.8299   -6.9403  -12.1652 N   0  0  0  0  0  0  0  0  0  0  0  0
   37.3485   -7.3729  -13.8980 N   0  0  0  0  0  0  0  0  0  0  0  0
   36.3294   -8.1549  -14.5049 C   0  0  0  0  0  0  0  0  0  0  0  0
   35.9418   -7.7321  -15.9038 C   0  0  0  0  0  0  0  0  0  0  0  0
   34.8398   -8.6706  -16.3375 C   0  0  0  0  0  0  0  0  0  0  0  0
   34.4085   -8.4508  -17.7579 C   0  0  2  0  0  0  0  0  0  0  0  0
   33.7566   -7.2020  -17.9990 N   0  0  0  0  0  0  0  0  0  0  0  0
   33.5339   -9.5710  -18.2027 C   0  0  0  0  0  0  0  0  0  0  0  0
   32.3036   -9.5754  -17.9286 O   0  0  0  0  0  0  0  0  0  0  0  0
   39.2425   -6.2757  -12.8467 N   0  0  0  0  0  0  0  0  0  0  0  0
   34.0265  -10.6648  -18.9402 C   0  0  2  0  0  0  0  0  0  0  0  0
   33.2179  -11.7991  -19.3671 C   0  0  0  0  0  0  0  0  0  0  0  0
   34.0641  -12.9230  -19.8621 C   0  0  0  0  0  0  0  0  0  0  0  0
   33.3041  -14.0783  -20.4331 C   0  0  0  0  0  0  0  0  0  0  0  0
   34.2407  -15.1939  -20.8953 C   0  0  0  0  0  0  0  0  0  0  0  0
   33.4045  -16.2750  -21.5873 N   0  0  0  0  0  0  0  0  0  0  0  0
   34.2168  -17.3738  -22.0104 C   0  0  0  0  0  0  0  0  0  0  0  0
   32.4244  -12.2403  -18.1997 O   0  0  0  0  0  0  0  0  0  0  0  0
   32.9361  -12.3881  -16.9234 O   0  0  0  0  0  0  0  0  0  0  0  0
  2  1  1  1
  2  3  1  0
  4  2  1  0
  4  5  2  0
  6  7  1  0
  7  8  2  0
  7  9  1  0
  9 10  1  0
 11 10  1  0
 12 11  1  0
 13 14  1  0
 13 12  1  1
 14  4  1  0
 15 13  1  0
 16 15  2  0
 17 15  1  0
 18 19  1  6
 18 17  1  0
 19 20  1  0
 20 21  1  0
 21 22  1  0
 23 22  1  0
 24 18  1  0
 25 24  1  0
 26 24  2  0
M  END
$$$$
