ARK.pdb
     RDKit          3D

 26 25  0  0  1  0  0  0  0  0999 V2000
   20.2715  -19.3435  -16.6101 C   0  0  0  0  0  0  0  0  0  0  0  0
   20.8992  -20.2122  -15.5266 C   0  0  2  0  0  0  0  0  0  0  0  0
   20.0485  -20.1574  -14.3802 N   0  0  0  0  0  0  0  0  0  0  0  0
   22.2539  -19.6637  -15.2698 C   0  0  0  0  0  0  0  0  0  0  0  0
   22.3604  -18.4250  -15.0990 O   0  0  0  0  0  0  0  0  0  0  0  0
   26.3780  -19.9771   -9.2566 N   0  0  0  0  0  0  0  0  0  0  0  0
   25.3751  -20.9338   -9.5537 C   0  0  0  0  0  0  0  0  0  0  0  0
   24.1876  -20.8641   -9.0227 N   0  0  0  0  0  0  0  0  0  0  0  0
   25.6077  -22.0193  -10.4485 N   0  0  0  0  0  0  0  0  0  0  0  0
   25.9588  -21.8104  -11.8091 C   0  0  0  0  0  0  0  0  0  0  0  0
   25.0806  -20.8331  -12.5571 C   0  0  0  0  0  0  0  0  0  0  0  0
   25.5337  -20.8767  -13.9980 C   0  0  0  0  0  0  0  0  0  0  0  0
   24.7332  -19.9751  -14.8912 C   0  0  2  0  0  0  0  0  0  0  0  0
   23.4242  -20.4541  -15.2070 N   0  0  0  0  0  0  0  0  0  0  0  0
   25.4873  -19.7026  -16.1460 C   0  0  0  0  0  0  0  0  0  0  0  0
   25.5615  -20.5730  -17.0547 O   0  0  0  0  0  0  0  0  0  0  0  0
   23.5043  -21.5879   -9.3150 N   0  0  0  0  0  0  0  0  0  0  0  0
   26.1456  -18.4798  -16.3795 C   0  0  2  0  0  0  0  0  0  0  0  0
   26.9149  -18.1765  -17.5790 C   0  0  0  0  0  0  0  0  0  0  0  0
   27.5025  -16.8068  -17.5243 C   0  0  0  0  0  0  0  0  0  0  0  0
   28.2702  -16.4028  -18.7433 C   0  0  0  0  0  0  0  0  0  0  0  0
   28.8467  -14.9944  -18.6031 C   0  0  0  0  0  0  0  0  0  0  0  0
   29.5641  -14.6310  -19.9071 N   0  0  0  0  0  0  0  0  0  0  0  0
   30.1736  -13.3394  -19.8264 C   0  0  0  0  0  0  0  0  0  0  0  0
   27.9922  -19.1847  -17.6796 O   0  0  0  0  0  0  0  0  0  0  0  0
   28.4863  -19.6773  -18.8737 O   0  0  0  0  0  0  0  0  0  0  0  0
  2  1  1  6
  2  3  1  0
  4  2  1  0
  4  5  2  0
  6  7  1  0
  7  8  2  0
  7  9  1  0
  9 10  1  0
 11 10  1  0
 12 11  1  0
 13 14  1  0
 13 12  1  1
 14  4  1  0
 15 13  1  0
 16 15  2  0
 17 15  1  0
 18 19  1  6
 18 17  1  0
 19 20  1  0
 20 21  1  0
 21 22  1  0
 23 22  1  0
 24 18  1  0
 25 24  1  0
 26 24  2  0
M  END
$$$$
