ARK.pdb
     RDKit          3D

 26 25  0  0  1  0  0  0  0  0999 V2000
   16.0956  -25.9412   -5.2195 C   0  0  0  0  0  0  0  0  0  0  0  0
   15.9813  -26.1610   -3.7158 C   0  0  2  0  0  0  0  0  0  0  0  0
   15.7497  -27.5537   -3.4977 N   0  0  0  0  0  0  0  0  0  0  0  0
   14.8643  -25.3066   -3.2421 C   0  0  0  0  0  0  0  0  0  0  0  0
   13.7109  -25.8014   -3.2379 O   0  0  0  0  0  0  0  0  0  0  0  0
   14.3030  -18.2092    2.0495 N   0  0  0  0  0  0  0  0  0  0  0  0
   13.0233  -18.8107    1.9503 C   0  0  0  0  0  0  0  0  0  0  0  0
   11.9361  -18.1510    2.2324 N   0  0  0  0  0  0  0  0  0  0  0  0
   12.8549  -20.1645    1.5352 N   0  0  0  0  0  0  0  0  0  0  0  0
   13.8178  -20.8296    0.7299 C   0  0  0  0  0  0  0  0  0  0  0  0
   13.2674  -21.5018   -0.5074 C   0  0  0  0  0  0  0  0  0  0  0  0
   14.4116  -22.2878   -1.1044 C   0  0  0  0  0  0  0  0  0  0  0  0
   13.9915  -23.1477   -2.2601 C   0  0  2  0  0  0  0  0  0  0  0  0
   15.0259  -23.9744   -2.7979 N   0  0  0  0  0  0  0  0  0  0  0  0
   13.4098  -22.3014   -3.3384 C   0  0  0  0  0  0  0  0  0  0  0  0
   14.1538  -21.6213   -4.0954 O   0  0  0  0  0  0  0  0  0  0  0  0
   11.0394  -18.6583    2.1104 N   0  0  0  0  0  0  0  0  0  0  0  0
   12.0226  -22.2178   -3.5655 C   0  0  2  0  0  0  0  0  0  0  0  0
   11.4037  -21.3568   -4.5646 C   0  0  0  0  0  0  0  0  0  0  0  0
   10.2020  -20.6597   -4.0222 C   0  0  0  0  0  0  0  0  0  0  0  0
    9.4777  -19.7969   -5.0068 C   0  0  0  0  0  0  0  0  0  0  0  0
    8.2003  -19.2102   -4.4069 C   0  0  0  0  0  0  0  0  0  0  0  0
    7.4881  -18.3904   -5.4874 N   0  0  0  0  0  0  0  0  0  0  0  0
    6.1908  -17.9701   -5.0551 C   0  0  0  0  0  0  0  0  0  0  0  0
   12.4179  -20.3646   -4.9820 O   0  0  0  0  0  0  0  0  0  0  0  0
   12.8284  -20.1759   -6.2892 O   0  0  0  0  0  0  0  0  0  0  0  0
  2  1  1  6
  2  3  1  0
  4  2  1  0
  4  5  2  0
  6  7  1  0
  7  8  2  0
  7  9  1  0
  9 10  1  0
 11 10  1  0
 12 11  1  0
 13 14  1  0
 13 12  1  1
 14  4  1  0
 15 13  1  0
 16 15  2  0
 17 15  1  0
 18 19  1  1
 18 17  1  0
 19 20  1  0
 20 21  1  0
 21 22  1  0
 23 22  1  0
 24 18  1  0
 25 24  1  0
 26 24  2  0
M  END
$$$$
