ARK.pdb
     RDKit          3D

 26 25  0  0  1  0  0  0  0  0999 V2000
   25.0941  -22.5177  -21.1789 C   0  0  0  0  0  0  0  0  0  0  0  0
   25.9648  -21.7067  -20.2267 C   0  0  2  0  0  0  0  0  0  0  0  0
   27.2298  -22.3636  -20.1302 N   0  0  0  0  0  0  0  0  0  0  0  0
   25.2424  -21.6474  -18.9318 C   0  0  0  0  0  0  0  0  0  0  0  0
   24.4625  -22.5905  -18.6536 O   0  0  0  0  0  0  0  0  0  0  0  0
   25.9300  -21.0192  -11.1644 N   0  0  0  0  0  0  0  0  0  0  0  0
   27.0736  -20.7858  -11.9688 C   0  0  0  0  0  0  0  0  0  0  0  0
   28.1962  -21.4112  -11.7558 N   0  0  0  0  0  0  0  0  0  0  0  0
   27.0584  -19.8599  -13.0531 N   0  0  0  0  0  0  0  0  0  0  0  0
   25.9011  -19.1038  -13.3804 C   0  0  0  0  0  0  0  0  0  0  0  0
   24.9281  -19.7886  -14.3132 C   0  0  0  0  0  0  0  0  0  0  0  0
   25.6440  -19.9344  -15.6359 C   0  0  0  0  0  0  0  0  0  0  0  0
   24.7853  -20.5488  -16.7021 C   0  0  2  0  0  0  0  0  0  0  0  0
   25.3829  -20.5941  -17.9996 N   0  0  0  0  0  0  0  0  0  0  0  0
   23.4777  -19.8399  -16.7731 C   0  0  0  0  0  0  0  0  0  0  0  0
   23.4077  -18.6601  -17.2114 O   0  0  0  0  0  0  0  0  0  0  0  0
   28.9986  -21.1442  -12.3567 N   0  0  0  0  0  0  0  0  0  0  0  0
   22.2718  -20.4395  -16.3618 C   0  0  2  0  0  0  0  0  0  0  0  0
   20.9738  -19.7783  -16.3895 C   0  0  0  0  0  0  0  0  0  0  0  0
   19.8578  -20.7479  -16.1930 C   0  0  0  0  0  0  0  0  0  0  0  0
   19.4401  -21.4844  -17.4265 C   0  0  0  0  0  0  0  0  0  0  0  0
   18.2879  -22.4474  -17.1429 C   0  0  0  0  0  0  0  0  0  0  0  0
   17.8250  -23.0555  -18.4706 N   0  0  0  0  0  0  0  0  0  0  0  0
   16.8495  -24.0814  -18.2643 C   0  0  0  0  0  0  0  0  0  0  0  0
   20.9668  -18.7732  -15.3046 O   0  0  0  0  0  0  0  0  0  0  0  0
   20.2734  -17.5777  -15.3575 O   0  0  0  0  0  0  0  0  0  0  0  0
  2  1  1  6
  2  3  1  0
  4  2  1  0
  4  5  2  0
  6  7  1  0
  7  8  2  0
  7  9  1  0
  9 10  1  0
 11 10  1  0
 12 11  1  0
 13 14  1  0
 13 12  1  1
 14  4  1  0
 15 13  1  0
 16 15  2  0
 17 15  1  0
 18 19  1  6
 18 17  1  0
 19 20  1  0
 20 21  1  0
 21 22  1  0
 23 22  1  0
 24 18  1  0
 25 24  1  0
 26 24  2  0
M  END
$$$$
