ARK.pdb
     RDKit          3D

 26 25  0  0  1  0  0  0  0  0999 V2000
   24.3070  -12.7490  -17.9616 C   0  0  0  0  0  0  0  0  0  0  0  0
   24.2815  -11.4860  -17.1092 C   0  0  2  0  0  0  0  0  0  0  0  0
   24.5546  -11.8679  -15.7600 N   0  0  0  0  0  0  0  0  0  0  0  0
   22.9369  -10.8818  -17.2796 C   0  0  0  0  0  0  0  0  0  0  0  0
   22.6120  -10.4924  -18.4276 O   0  0  0  0  0  0  0  0  0  0  0  0
   15.2080  -12.3770  -13.3595 N   0  0  0  0  0  0  0  0  0  0  0  0
   14.9184  -11.3725  -14.3169 C   0  0  0  0  0  0  0  0  0  0  0  0
   13.6926  -11.0505  -14.6178 N   0  0  0  0  0  0  0  0  0  0  0  0
   15.9479  -10.6596  -14.9988 N   0  0  0  0  0  0  0  0  0  0  0  0
   17.3099  -11.0579  -14.9319 C   0  0  0  0  0  0  0  0  0  0  0  0
   18.2568  -10.2588  -15.7982 C   0  0  0  0  0  0  0  0  0  0  0  0
   19.6193  -10.8893  -15.6262 C   0  0  0  0  0  0  0  0  0  0  0  0
   20.7037  -10.1479  -16.3514 C   0  0  2  0  0  0  0  0  0  0  0  0
   22.0069  -10.7213  -16.2272 N   0  0  0  0  0  0  0  0  0  0  0  0
   20.7329   -8.7270  -15.9071 C   0  0  0  0  0  0  0  0  0  0  0  0
   21.3025   -8.4003  -14.8311 O   0  0  0  0  0  0  0  0  0  0  0  0
   13.5685  -10.3223  -15.3462 N   0  0  0  0  0  0  0  0  0  0  0  0
   20.1366   -7.6916  -16.6524 C   0  0  2  0  0  0  0  0  0  0  0  0
   20.0655   -6.3026  -16.2187 C   0  0  0  0  0  0  0  0  0  0  0  0
   19.8068   -5.3814  -17.3627 C   0  0  0  0  0  0  0  0  0  0  0  0
   19.5721   -3.9541  -16.9801 C   0  0  0  0  0  0  0  0  0  0  0  0
   19.3487   -3.0725  -18.2083 C   0  0  0  0  0  0  0  0  0  0  0  0
   19.0160   -1.6542  -17.7343 N   0  0  0  0  0  0  0  0  0  0  0  0
   18.6752   -0.8023  -18.8318 C   0  0  0  0  0  0  0  0  0  0  0  0
   18.9683   -6.2034  -15.2320 O   0  0  0  0  0  0  0  0  0  0  0  0
   18.9928   -5.3770  -14.1233 O   0  0  0  0  0  0  0  0  0  0  0  0
  2  1  1  6
  2  3  1  0
  4  2  1  0
  4  5  2  0
  6  7  1  0
  7  8  2  0
  7  9  1  0
  9 10  1  0
 11 10  1  0
 12 11  1  0
 13 14  1  0
 13 12  1  1
 14  4  1  0
 15 13  1  0
 16 15  2  0
 17 15  1  0
 18 19  1  6
 18 17  1  0
 19 20  1  0
 20 21  1  0
 21 22  1  0
 23 22  1  0
 24 18  1  0
 25 24  1  0
 26 24  2  0
M  END
$$$$
