ARK.pdb
     RDKit          3D

 26 25  0  0  1  0  0  0  0  0999 V2000
   27.6838  -19.2010  -17.3214 C   0  0  0  0  0  0  0  0  0  0  0  0
   28.1604  -20.4918  -16.6664 C   0  0  2  0  0  0  0  0  0  0  0  0
   28.4772  -21.4156  -17.7091 N   0  0  0  0  0  0  0  0  0  0  0  0
   27.0569  -20.9609  -15.7921 C   0  0  0  0  0  0  0  0  0  0  0  0
   26.2225  -21.7603  -16.2818 O   0  0  0  0  0  0  0  0  0  0  0  0
   22.4621  -19.8396   -9.8880 N   0  0  0  0  0  0  0  0  0  0  0  0
   22.9403  -20.7253   -8.8898 C   0  0  0  0  0  0  0  0  0  0  0  0
   22.1684  -21.1535   -7.9318 N   0  0  0  0  0  0  0  0  0  0  0  0
   24.2857  -21.1973   -8.8802 N   0  0  0  0  0  0  0  0  0  0  0  0
   25.2313  -20.7942   -9.8609 C   0  0  0  0  0  0  0  0  0  0  0  0
   24.8451  -21.0998  -11.2903 C   0  0  0  0  0  0  0  0  0  0  0  0
   26.0020  -20.6402  -12.1469 C   0  0  0  0  0  0  0  0  0  0  0  0
   25.7839  -20.8919  -13.6100 C   0  0  2  0  0  0  0  0  0  0  0  0
   26.8942  -20.5599  -14.4464 N   0  0  0  0  0  0  0  0  0  0  0  0
   24.5679  -20.1687  -14.0746 C   0  0  0  0  0  0  0  0  0  0  0  0
   24.5660  -18.9124  -14.1781 O   0  0  0  0  0  0  0  0  0  0  0  0
   22.6150  -21.7401   -7.2020 N   0  0  0  0  0  0  0  0  0  0  0  0
   23.3772  -20.8381  -14.4167 C   0  0  2  0  0  0  0  0  0  0  0  0
   22.1902  -20.1831  -14.9502 C   0  0  0  0  0  0  0  0  0  0  0  0
   21.6786  -20.8771  -16.1671 C   0  0  0  0  0  0  0  0  0  0  0  0
   20.5028  -20.2199  -16.8182 C   0  0  0  0  0  0  0  0  0  0  0  0
   20.0126  -21.0156  -18.0275 C   0  0  0  0  0  0  0  0  0  0  0  0
   18.8852  -20.2282  -18.7026 N   0  0  0  0  0  0  0  0  0  0  0  0
   18.4812  -20.8415  -19.9303 C   0  0  0  0  0  0  0  0  0  0  0  0
   21.1610  -20.2006  -13.8883 O   0  0  0  0  0  0  0  0  0  0  0  0
   20.3070  -19.1472  -13.6165 O   0  0  0  0  0  0  0  0  0  0  0  0
  2  1  1  6
  2  3  1  0
  4  2  1  0
  4  5  2  0
  6  7  1  0
  7  8  2  0
  7  9  1  0
  9 10  1  0
 11 10  1  0
 12 11  1  0
 13 14  1  0
 13 12  1  1
 14  4  1  0
 15 13  1  0
 16 15  2  0
 17 15  1  0
 18 19  1  6
 18 17  1  0
 19 20  1  0
 20 21  1  0
 21 22  1  0
 23 22  1  0
 24 18  1  0
 25 24  1  0
 26 24  2  0
M  END
$$$$
