SGH.pdb
     RDKit          3D

 21 21  0  0  1  0  0  0  0  0999 V2000
   12.9634  -21.3802   10.5504 O   0  0  0  0  0  0  0  0  0  0  0  0
   11.9400  -21.9757   11.3020 C   0  0  0  0  0  0  0  0  0  0  0  0
   11.0400  -20.8593   11.8337 C   0  0  2  0  0  0  0  0  0  0  0  0
   11.3938  -19.6627   11.1253 N   0  0  0  0  0  0  0  0  0  0  0  0
   11.2893  -20.7464   13.2945 C   0  0  0  0  0  0  0  0  0  0  0  0
   11.1354  -19.6270   13.8471 O   0  0  0  0  0  0  0  0  0  0  0  0
   11.6917  -21.9123   14.0041 N   0  0  0  0  0  0  0  0  0  0  0  0
   11.8349  -21.8817   15.4268 C   0  0  0  0  0  0  0  0  0  0  0  0
   13.2288  -21.5825   15.8543 C   0  0  0  0  0  0  0  0  0  0  0  0
   14.1651  -21.6762   15.0212 O   0  0  0  0  0  0  0  0  0  0  0  0
   13.5581  -21.1905   17.1772 N   0  0  0  0  0  0  0  0  0  0  0  0
   14.8568  -20.6651   17.5522 C   0  0  1  0  0  0  0  0  0  0  0  0
   15.2647  -19.4875   16.6957 C   0  0  0  0  0  0  0  0  0  0  0  0
   16.1699  -19.9184   15.6042 C   0  0  0  0  0  0  0  0  0  0  0  0
   16.6785  -21.1725   15.3516 C   0  0  0  0  0  0  0  0  0  0  0  0
   17.4638  -21.1005   14.2457 N   0  0  0  0  0  0  0  0  0  0  0  0
   17.4482  -19.8185   13.8103 C   0  0  0  0  0  0  0  0  0  0  0  0
   16.6562  -19.1140   14.6485 N   0  0  0  0  0  0  0  0  0  0  0  0
   14.9413  -20.3845   18.9842 C   0  0  0  0  0  0  0  0  0  0  0  0
   13.9800  -19.9090   19.6371 O   0  0  0  0  0  0  0  0  0  0  0  0
   16.1182  -20.6460   19.6659 O   0  0  0  0  0  0  0  0  0  0  0  0
  2  1  1  0
  3  2  1  0
  3  4  1  6
  5  7  1  0
  5  3  1  0
  6  5  2  0
  8  9  1  0
  8  7  1  0
  9 11  1  0
 10  9  2  0
 11 12  1  0
 12 13  1  6
 13 14  1  0
 14 18  1  0
 15 14  2  0
 15 16  1  0
 16 17  1  0
 18 17  2  0
 19 12  1  0
 19 21  1  0
 20 19  2  0
M  END
$$$$
