SGH.pdb
     RDKit          3D

 21 21  0  0  1  0  0  0  0  0999 V2000
    9.3670  -18.7634   18.6159 O   0  0  0  0  0  0  0  0  0  0  0  0
    9.3223  -17.8405   19.6710 C   0  0  0  0  0  0  0  0  0  0  0  0
    9.8901  -18.5249   20.9153 C   0  0  2  0  0  0  0  0  0  0  0  0
    9.0658  -19.6699   21.1767 N   0  0  0  0  0  0  0  0  0  0  0  0
    9.8506  -17.5348   22.0231 C   0  0  0  0  0  0  0  0  0  0  0  0
    8.8997  -17.5878   22.8447 O   0  0  0  0  0  0  0  0  0  0  0  0
   10.8927  -16.5693   22.1047 N   0  0  0  0  0  0  0  0  0  0  0  0
   10.9113  -15.6109   23.1662 C   0  0  0  0  0  0  0  0  0  0  0  0
   11.6042  -16.1183   24.3818 C   0  0  0  0  0  0  0  0  0  0  0  0
   12.8408  -15.9350   24.5110 O   0  0  0  0  0  0  0  0  0  0  0  0
   10.9267  -16.8099   25.4186 N   0  0  0  0  0  0  0  0  0  0  0  0
   11.5944  -17.3361   26.5936 C   0  0  1  0  0  0  0  0  0  0  0  0
   10.7721  -17.1490   27.8488 C   0  0  0  0  0  0  0  0  0  0  0  0
   10.4323  -15.7202   28.0478 C   0  0  0  0  0  0  0  0  0  0  0  0
   10.6554  -14.6561   27.2034 C   0  0  0  0  0  0  0  0  0  0  0  0
   10.1782  -13.5317   27.7974 N   0  0  0  0  0  0  0  0  0  0  0  0
    9.6626  -13.8855   28.9983 C   0  0  0  0  0  0  0  0  0  0  0  0
    9.8259  -15.2201   29.1337 N   0  0  0  0  0  0  0  0  0  0  0  0
   12.0343  -18.7167   26.4012 C   0  0  0  0  0  0  0  0  0  0  0  0
   11.7373  -19.3841   25.3799 O   0  0  0  0  0  0  0  0  0  0  0  0
   12.8094  -19.3308   27.3708 O   0  0  0  0  0  0  0  0  0  0  0  0
  2  1  1  0
  3  2  1  0
  3  4  1  1
  5  7  1  0
  5  3  1  0
  6  5  2  0
  8  9  1  0
  8  7  1  0
  9 11  1  0
 10  9  2  0
 11 12  1  0
 12 13  1  1
 13 14  1  0
 14 18  1  0
 15 14  2  0
 15 16  1  0
 16 17  1  0
 18 17  2  0
 19 12  1  0
 19 21  1  0
 20 19  2  0
M  END
$$$$
