SGH.pdb
     RDKit          3D

 21 21  0  0  1  0  0  0  0  0999 V2000
   10.1065  -17.3185   18.0660 O   0  0  0  0  0  0  0  0  0  0  0  0
   10.1606  -18.5414   18.7506 C   0  0  0  0  0  0  0  0  0  0  0  0
    9.2037  -18.4538   19.9404 C   0  0  2  0  0  0  0  0  0  0  0  0
    7.9179  -18.0892   19.4183 N   0  0  0  0  0  0  0  0  0  0  0  0
    9.7467  -17.4309   20.8720 C   0  0  0  0  0  0  0  0  0  0  0  0
   10.8969  -17.6027   21.3511 O   0  0  0  0  0  0  0  0  0  0  0  0
    8.9391  -16.3008   21.1808 N   0  0  0  0  0  0  0  0  0  0  0  0
    9.3682  -15.3486   22.1579 C   0  0  0  0  0  0  0  0  0  0  0  0
    9.0665  -15.7825   23.5493 C   0  0  0  0  0  0  0  0  0  0  0  0
    8.1425  -16.6098   23.7528 O   0  0  0  0  0  0  0  0  0  0  0  0
    9.7818  -15.3006   24.6755 N   0  0  0  0  0  0  0  0  0  0  0  0
    9.4315  -15.6321   26.0432 C   0  0  1  0  0  0  0  0  0  0  0  0
    7.9393  -15.5698   26.2808 C   0  0  0  0  0  0  0  0  0  0  0  0
    7.4274  -14.1969   26.0586 C   0  0  0  0  0  0  0  0  0  0  0  0
    8.1371  -13.0278   25.9015 C   0  0  0  0  0  0  0  0  0  0  0  0
    7.2535  -12.0120   25.7229 N   0  0  0  0  0  0  0  0  0  0  0  0
    6.0060  -12.5365   25.7673 C   0  0  0  0  0  0  0  0  0  0  0  0
    6.1311  -13.8664   25.9722 N   0  0  0  0  0  0  0  0  0  0  0  0
   10.0238  -16.8988   26.4685 C   0  0  0  0  0  0  0  0  0  0  0  0
    9.7928  -17.4088   27.5924 O   0  0  0  0  0  0  0  0  0  0  0  0
   10.8755  -17.5787   25.6138 O   0  0  0  0  0  0  0  0  0  0  0  0
  2  1  1  0
  3  2  1  0
  3  4  1  6
  5  7  1  0
  5  3  1  0
  6  5  2  0
  8  9  1  0
  8  7  1  0
  9 11  1  0
 10  9  2  0
 11 12  1  0
 12 13  1  6
 13 14  1  0
 14 18  1  0
 15 14  2  0
 15 16  1  0
 16 17  1  0
 18 17  2  0
 19 12  1  0
 19 21  1  0
 20 19  2  0
M  END
$$$$
