SGH.pdb
     RDKit          3D

 21 21  0  0  1  0  0  0  0  0999 V2000
    8.9010  -15.2792   20.1659 O   0  0  0  0  0  0  0  0  0  0  0  0
    9.4327  -16.5422   20.4644 C   0  0  0  0  0  0  0  0  0  0  0  0
    8.2646  -17.4817   20.7675 C   0  0  2  0  0  0  0  0  0  0  0  0
    7.3269  -17.3455   19.6900 N   0  0  0  0  0  0  0  0  0  0  0  0
    7.6894  -17.0671   22.0737 C   0  0  0  0  0  0  0  0  0  0  0  0
    6.5414  -16.5533   22.0904 O   0  0  0  0  0  0  0  0  0  0  0  0
    8.4648  -17.2705   23.2493 N   0  0  0  0  0  0  0  0  0  0  0  0
    7.9377  -16.9273   24.5337 C   0  0  0  0  0  0  0  0  0  0  0  0
    8.8782  -16.0961   25.3336 C   0  0  0  0  0  0  0  0  0  0  0  0
   10.0437  -15.8969   24.9077 O   0  0  0  0  0  0  0  0  0  0  0  0
    8.5182  -15.5080   26.5733 N   0  0  0  0  0  0  0  0  0  0  0  0
    9.4119  -14.6655   27.3446 C   0  0  1  0  0  0  0  0  0  0  0  0
    8.6817  -13.5244   28.0167 C   0  0  0  0  0  0  0  0  0  0  0  0
    7.7439  -12.8708   27.0735 C   0  0  0  0  0  0  0  0  0  0  0  0
    6.4423  -12.4768   27.2873 C   0  0  0  0  0  0  0  0  0  0  0  0
    5.9700  -11.9216   26.1413 N   0  0  0  0  0  0  0  0  0  0  0  0
    6.9618  -11.9666   25.2207 C   0  0  0  0  0  0  0  0  0  0  0  0
    8.0331  -12.5471   25.8052 N   0  0  0  0  0  0  0  0  0  0  0  0
   10.2322  -15.4421   28.2721 C   0  0  0  0  0  0  0  0  0  0  0  0
   11.1168  -14.9180   28.9928 O   0  0  0  0  0  0  0  0  0  0  0  0
   10.0423  -16.8101   28.3751 O   0  0  0  0  0  0  0  0  0  0  0  0
  2  1  1  0
  3  2  1  0
  3  4  1  6
  5  7  1  0
  5  3  1  0
  6  5  2  0
  8  9  1  0
  8  7  1  0
  9 11  1  0
 10  9  2  0
 11 12  1  0
 12 13  1  1
 13 14  1  0
 14 18  1  0
 15 14  2  0
 15 16  1  0
 16 17  1  0
 18 17  2  0
 19 12  1  0
 19 21  1  0
 20 19  2  0
M  END
$$$$
