SGH.pdb
     RDKit          3D

 21 21  0  0  1  0  0  0  0  0999 V2000
    8.6481  -16.8856   15.6287 O   0  0  0  0  0  0  0  0  0  0  0  0
    9.4497  -16.6950   16.7637 C   0  0  0  0  0  0  0  0  0  0  0  0
   10.7502  -17.4719   16.5535 C   0  0  2  0  0  0  0  0  0  0  0  0
   10.4218  -18.8667   16.6275 N   0  0  0  0  0  0  0  0  0  0  0  0
   11.6936  -17.0553   17.6238 C   0  0  0  0  0  0  0  0  0  0  0  0
   11.8845  -17.8323   18.5943 O   0  0  0  0  0  0  0  0  0  0  0  0
   12.3399  -15.7935   17.5022 N   0  0  0  0  0  0  0  0  0  0  0  0
   13.3597  -15.4093   18.4284 C   0  0  0  0  0  0  0  0  0  0  0  0
   12.8210  -15.1286   19.7872 C   0  0  0  0  0  0  0  0  0  0  0  0
   13.5595  -14.5827   20.6451 O   0  0  0  0  0  0  0  0  0  0  0  0
   11.4934  -15.4522   20.1680 N   0  0  0  0  0  0  0  0  0  0  0  0
   10.9404  -15.1405   21.4720 C   0  0  1  0  0  0  0  0  0  0  0  0
    9.4357  -14.9947   21.4334 C   0  0  0  0  0  0  0  0  0  0  0  0
    9.0310  -13.9702   20.4419 C   0  0  0  0  0  0  0  0  0  0  0  0
    9.8259  -13.1091   19.7196 C   0  0  0  0  0  0  0  0  0  0  0  0
    9.0243  -12.3461   18.9322 N   0  0  0  0  0  0  0  0  0  0  0  0
    7.7436  -12.7234   19.1573 C   0  0  0  0  0  0  0  0  0  0  0  0
    7.7668  -13.7121   20.0782 N   0  0  0  0  0  0  0  0  0  0  0  0
   11.3960  -16.0765   22.4980 C   0  0  0  0  0  0  0  0  0  0  0  0
   11.1960  -15.8860   23.7228 O   0  0  0  0  0  0  0  0  0  0  0  0
   12.0766  -17.2239   22.1257 O   0  0  0  0  0  0  0  0  0  0  0  0
  2  1  1  0
  3  2  1  0
  3  4  1  1
  5  7  1  0
  5  3  1  0
  6  5  2  0
  8  9  1  0
  8  7  1  0
  9 11  1  0
 10  9  2  0
 11 12  1  0
 12 13  1  6
 13 14  1  0
 14 18  1  0
 15 14  2  0
 15 16  1  0
 16 17  1  0
 18 17  2  0
 19 12  1  0
 19 21  1  0
 20 19  2  0
M  END
$$$$
