SGH.pdb
     RDKit          3D

 21 21  0  0  1  0  0  0  0  0999 V2000
    8.6487  -16.5966   13.3420 O   0  0  0  0  0  0  0  0  0  0  0  0
    9.2387  -15.5035   13.9932 C   0  0  0  0  0  0  0  0  0  0  0  0
    9.4355  -15.8844   15.4613 C   0  0  2  0  0  0  0  0  0  0  0  0
    8.1441  -16.2334   15.9804 N   0  0  0  0  0  0  0  0  0  0  0  0
   10.0225  -14.7057   16.1505 C   0  0  0  0  0  0  0  0  0  0  0  0
   11.1913  -14.3521   15.8491 O   0  0  0  0  0  0  0  0  0  0  0  0
    9.2342  -14.0287   17.1226 N   0  0  0  0  0  0  0  0  0  0  0  0
    9.7973  -12.9713   17.9038 C   0  0  0  0  0  0  0  0  0  0  0  0
   10.4190  -13.4611   19.1643 C   0  0  0  0  0  0  0  0  0  0  0  0
   10.9378  -12.6373   19.9592 O   0  0  0  0  0  0  0  0  0  0  0  0
   10.4554  -14.8341   19.5187 N   0  0  0  0  0  0  0  0  0  0  0  0
   11.0082  -15.3197   20.7685 C   0  0  1  0  0  0  0  0  0  0  0  0
   10.0004  -16.1161   21.5666 C   0  0  0  0  0  0  0  0  0  0  0  0
    8.7356  -15.3597   21.7225 C   0  0  0  0  0  0  0  0  0  0  0  0
    8.2747  -14.6688   22.8204 C   0  0  0  0  0  0  0  0  0  0  0  0
    7.0673  -14.1297   22.5104 N   0  0  0  0  0  0  0  0  0  0  0  0
    6.7744  -14.4774   21.2350 C   0  0  0  0  0  0  0  0  0  0  0  0
    7.8001  -15.2253   20.7716 N   0  0  0  0  0  0  0  0  0  0  0  0
   12.2687  -16.0324   20.5696 C   0  0  0  0  0  0  0  0  0  0  0  0
   12.7501  -16.2480   19.4301 O   0  0  0  0  0  0  0  0  0  0  0  0
   12.9749  -16.4958   21.6671 O   0  0  0  0  0  0  0  0  0  0  0  0
  2  1  1  0
  3  2  1  0
  3  4  1  1
  5  7  1  0
  5  3  1  0
  6  5  2  0
  8  9  1  0
  8  7  1  0
  9 11  1  0
 10  9  2  0
 11 12  1  0
 12 13  1  6
 13 14  1  0
 14 18  1  0
 15 14  2  0
 15 16  1  0
 16 17  1  0
 18 17  2  0
 19 12  1  0
 19 21  1  0
 20 19  2  0
M  END
$$$$
