SGH.pdb
     RDKit          3D

 21 21  0  0  1  0  0  0  0  0999 V2000
    9.0788  -18.4103   14.4278 O   0  0  0  0  0  0  0  0  0  0  0  0
   10.4360  -18.5725   14.7419 C   0  0  0  0  0  0  0  0  0  0  0  0
   10.8636  -17.3798   15.5984 C   0  0  2  0  0  0  0  0  0  0  0  0
   12.2613  -17.5443   15.8781 N   0  0  0  0  0  0  0  0  0  0  0  0
   10.0339  -17.3990   16.8314 C   0  0  0  0  0  0  0  0  0  0  0  0
    8.8534  -16.9693   16.7697 O   0  0  0  0  0  0  0  0  0  0  0  0
   10.6137  -17.9036   18.0288 N   0  0  0  0  0  0  0  0  0  0  0  0
    9.8533  -17.9484   19.2394 C   0  0  0  0  0  0  0  0  0  0  0  0
   10.1360  -16.7935   20.1345 C   0  0  0  0  0  0  0  0  0  0  0  0
   11.2416  -16.2017   20.0507 O   0  0  0  0  0  0  0  0  0  0  0  0
    9.2041  -16.3198   21.0934 N   0  0  0  0  0  0  0  0  0  0  0  0
    9.4600  -15.1855   21.9601 C   0  0  1  0  0  0  0  0  0  0  0  0
    8.4156  -14.1027   21.8057 C   0  0  0  0  0  0  0  0  0  0  0  0
    8.3201  -13.6603   20.3946 C   0  0  0  0  0  0  0  0  0  0  0  0
    8.8741  -12.5486   19.8010 C   0  0  0  0  0  0  0  0  0  0  0  0
    8.5235  -12.5451   18.4888 N   0  0  0  0  0  0  0  0  0  0  0  0
    7.7598  -13.6399   18.2620 C   0  0  0  0  0  0  0  0  0  0  0  0
    7.6466  -14.3063   19.4322 N   0  0  0  0  0  0  0  0  0  0  0  0
    9.6581  -15.5920   23.3500 C   0  0  0  0  0  0  0  0  0  0  0  0
    9.3838  -16.7460   23.7619 O   0  0  0  0  0  0  0  0  0  0  0  0
   10.1671  -14.6844   24.2640 O   0  0  0  0  0  0  0  0  0  0  0  0
  2  1  1  0
  3  2  1  0
  3  4  1  1
  5  7  1  0
  5  3  1  0
  6  5  2  0
  8  9  1  0
  8  7  1  0
  9 11  1  0
 10  9  2  0
 11 12  1  0
 12 13  1  1
 13 14  1  0
 14 18  1  0
 15 14  2  0
 15 16  1  0
 16 17  1  0
 18 17  2  0
 19 12  1  0
 19 21  1  0
 20 19  2  0
M  END
$$$$
