SGH.pdb
     RDKit          3D

 21 21  0  0  1  0  0  0  0  0999 V2000
   10.2915  -18.4368   14.5413 O   0  0  0  0  0  0  0  0  0  0  0  0
    9.1353  -18.1381   15.2768 C   0  0  0  0  0  0  0  0  0  0  0  0
    9.4106  -16.8699   16.0860 C   0  0  2  0  0  0  0  0  0  0  0  0
    9.9986  -15.9185   15.1871 N   0  0  0  0  0  0  0  0  0  0  0  0
   10.3274  -17.2416   17.1952 C   0  0  0  0  0  0  0  0  0  0  0  0
    9.9356  -18.0830   18.0441 O   0  0  0  0  0  0  0  0  0  0  0  0
   11.6100  -16.6278   17.2470 N   0  0  0  0  0  0  0  0  0  0  0  0
   12.5339  -16.9656   18.2852 C   0  0  0  0  0  0  0  0  0  0  0  0
   12.3225  -16.1636   19.5211 C   0  0  0  0  0  0  0  0  0  0  0  0
   13.2359  -15.4027   19.9288 O   0  0  0  0  0  0  0  0  0  0  0  0
   11.1213  -16.2164   20.2739 N   0  0  0  0  0  0  0  0  0  0  0  0
   10.8989  -15.4343   21.4747 C   0  0  1  0  0  0  0  0  0  0  0  0
    9.4814  -14.9147   21.5626 C   0  0  0  0  0  0  0  0  0  0  0  0
    9.1559  -14.0709   20.3886 C   0  0  0  0  0  0  0  0  0  0  0  0
    9.9794  -13.6706   19.3606 C   0  0  0  0  0  0  0  0  0  0  0  0
    9.2536  -12.9059   18.5045 N   0  0  0  0  0  0  0  0  0  0  0  0
    7.9915  -12.8273   18.9886 C   0  0  0  0  0  0  0  0  0  0  0  0
    7.9506  -13.5417   20.1349 N   0  0  0  0  0  0  0  0  0  0  0  0
   11.3198  -16.1479   22.6789 C   0  0  0  0  0  0  0  0  0  0  0  0
   11.6179  -17.3676   22.6716 O   0  0  0  0  0  0  0  0  0  0  0  0
   11.3996  -15.4709   23.8845 O   0  0  0  0  0  0  0  0  0  0  0  0
  2  1  1  0
  3  2  1  0
  3  4  1  6
  5  7  1  0
  5  3  1  0
  6  5  2  0
  8  9  1  0
  8  7  1  0
  9 11  1  0
 10  9  2  0
 11 12  1  0
 12 13  1  1
 13 14  1  0
 14 18  1  0
 15 14  2  0
 15 16  1  0
 16 17  1  0
 18 17  2  0
 19 12  1  0
 19 21  1  0
 20 19  2  0
M  END
$$$$
