SGH.pdb
     RDKit          3D

 21 21  0  0  1  0  0  0  0  0999 V2000
    6.0007  -22.0009   18.6759 O   0  0  0  0  0  0  0  0  0  0  0  0
    7.3670  -21.6859   18.7085 C   0  0  0  0  0  0  0  0  0  0  0  0
    7.5315  -20.4021   19.5232 C   0  0  2  0  0  0  0  0  0  0  0  0
    6.6098  -19.4431   18.9850 N   0  0  0  0  0  0  0  0  0  0  0  0
    8.9459  -19.9669   19.3845 C   0  0  0  0  0  0  0  0  0  0  0  0
    9.8486  -20.6830   19.8889 O   0  0  0  0  0  0  0  0  0  0  0  0
    9.2158  -18.7571   18.6859 N   0  0  0  0  0  0  0  0  0  0  0  0
   10.5520  -18.2553   18.5948 C   0  0  0  0  0  0  0  0  0  0  0  0
   10.8884  -17.3217   19.7040 C   0  0  0  0  0  0  0  0  0  0  0  0
   11.9909  -16.7184   19.6923 O   0  0  0  0  0  0  0  0  0  0  0  0
   10.0118  -17.0750   20.7917 N   0  0  0  0  0  0  0  0  0  0  0  0
   10.2747  -16.0843   21.8177 C   0  0  1  0  0  0  0  0  0  0  0  0
    9.0436  -15.2742   22.1572 C   0  0  0  0  0  0  0  0  0  0  0  0
    8.5821  -14.4994   20.9812 C   0  0  0  0  0  0  0  0  0  0  0  0
    9.1781  -14.3700   19.7470 C   0  0  0  0  0  0  0  0  0  0  0  0
    8.4008  -13.5629   18.9795 N   0  0  0  0  0  0  0  0  0  0  0  0
    7.3315  -13.1908   19.7220 C   0  0  0  0  0  0  0  0  0  0  0  0
    7.4584  -13.7697   20.9364 N   0  0  0  0  0  0  0  0  0  0  0  0
   10.9132  -16.6708   22.9944 C   0  0  0  0  0  0  0  0  0  0  0  0
   11.0079  -17.9114   23.1636 O   0  0  0  0  0  0  0  0  0  0  0  0
   11.4405  -15.8437   23.9722 O   0  0  0  0  0  0  0  0  0  0  0  0
  2  1  1  0
  3  2  1  0
  3  4  1  6
  5  7  1  0
  5  3  1  0
  6  5  2  0
  8  9  1  0
  8  7  1  0
  9 11  1  0
 10  9  2  0
 11 12  1  0
 12 13  1  1
 13 14  1  0
 14 18  1  0
 15 14  2  0
 15 16  1  0
 16 17  1  0
 18 17  2  0
 19 12  1  0
 19 21  1  0
 20 19  2  0
M  END
$$$$
