RAH.pdb
     RDKit          3D

 27 27  0  0  1  0  0  0  0  0999 V2000
    7.7370  -13.5554   19.9313 N   0  0  0  0  0  0  0  0  0  0  0  0
    8.0706  -13.5719   18.5550 C   0  0  0  0  0  0  0  0  0  0  0  0
    8.3247  -12.5101   17.8678 N   0  0  0  0  0  0  0  0  0  0  0  0
    8.1435  -14.8203   17.8351 N   0  0  0  0  0  0  0  0  0  0  0  0
    8.4627  -16.0526   18.5233 C   0  0  0  0  0  0  0  0  0  0  0  0
    9.8303  -16.5244   18.1005 C   0  0  0  0  0  0  0  0  0  0  0  0
   10.7328  -16.5487   19.2795 C   0  0  0  0  0  0  0  0  0  0  0  0
   11.0331  -15.2025   19.8872 C   0  0  2  0  0  0  0  0  0  0  0  0
   11.9877  -14.5657   18.9623 N   0  0  0  0  0  0  0  0  0  0  0  0
   11.6391  -15.2781   21.2188 C   0  0  0  0  0  0  0  0  0  0  0  0
   12.5452  -14.4532   21.5557 O   0  0  0  0  0  0  0  0  0  0  0  0
    8.3809  -12.6328   16.8322 C   0  0  0  0  0  0  0  0  0  0  0  0
   10.1176  -14.7909   23.6911 C   0  0  2  0  0  0  0  0  0  0  0  0
   11.1001  -15.9592   23.5987 N   0  0  0  0  0  0  0  0  0  0  0  0
   11.2864  -16.2287   22.1984 C   0  0  0  0  0  0  0  0  0  0  0  0
   10.6206  -17.1226   24.3772 O   0  0  0  0  0  0  0  0  0  0  0  0
   10.1911  -16.8703   25.5273 N   0  0  0  0  0  0  0  0  0  0  0  0
   10.6167  -18.4416   23.9257 C   0  0  2  0  0  0  0  0  0  0  0  0
   11.4972  -19.5224   24.2906 C   0  0  0  0  0  0  0  0  0  0  0  0
   12.4341  -19.7620   23.1378 C   0  0  0  0  0  0  0  0  0  0  0  0
   11.8126  -19.8973   21.8309 C   0  0  0  0  0  0  0  0  0  0  0  0
   10.4752  -19.8123   21.5237 N   0  0  0  0  0  0  0  0  0  0  0  0
   10.3135  -20.0058   20.1810 C   0  0  0  0  0  0  0  0  0  0  0  0
   11.5456  -20.2092   19.6625 N   0  0  0  0  0  0  0  0  0  0  0  0
   12.4376  -20.1405   20.6700 C   0  0  0  0  0  0  0  0  0  0  0  0
   12.1984  -19.3291   25.5830 O   0  0  0  0  0  0  0  0  0  0  0  0
   12.0938  -20.1693   26.6683 O   0  0  0  0  0  0  0  0  0  0  0  0
  2  1  1  0
  2  4  1  0
  3  2  2  0
  5  4  1  0
  6  5  1  0
  7  6  1  0
  8  9  1  6
  8  7  1  0
 10 11  2  0
 10  8  1  0
 13 12  1  6
 13 14  1  0
 13 15  1  0
 14 10  1  0
 15 17  1  0
 16 15  2  0
 17 18  1  0
 18 25  1  0
 18 19  1  6
 20 19  1  0
 21 20  2  0
 22 21  1  0
 23 22  1  0
 23 24  2  0
 24 20  1  0
 25 27  2  0
 25 26  1  0
M  END
$$$$
