RAH.pdb
     RDKit          3D

 27 27  0  0  1  0  0  0  0  0999 V2000
   14.3093  -14.9821   17.3707 N   0  0  0  0  0  0  0  0  0  0  0  0
   14.4905  -14.4420   18.6672 C   0  0  0  0  0  0  0  0  0  0  0  0
   15.4074  -13.5841   18.9629 N   0  0  0  0  0  0  0  0  0  0  0  0
   13.6278  -14.8409   19.7528 N   0  0  0  0  0  0  0  0  0  0  0  0
   12.4221  -14.0979   20.0498 C   0  0  0  0  0  0  0  0  0  0  0  0
   11.5239  -14.0931   18.8395 C   0  0  0  0  0  0  0  0  0  0  0  0
   10.8646  -15.4170   18.7061 C   0  0  0  0  0  0  0  0  0  0  0  0
    9.3656  -15.3764   18.5535 C   0  0  2  0  0  0  0  0  0  0  0  0
    9.0130  -13.9457   18.5856 N   0  0  0  0  0  0  0  0  0  0  0  0
    8.6445  -16.0682   19.6247 C   0  0  0  0  0  0  0  0  0  0  0  0
    8.1762  -15.4116   20.6068 O   0  0  0  0  0  0  0  0  0  0  0  0
   15.3622  -13.1716   19.9213 C   0  0  0  0  0  0  0  0  0  0  0  0
    7.3999  -19.5422   20.1954 C   0  0  1  0  0  0  0  0  0  0  0  0
    7.8354  -18.1868   20.7542 N   0  0  0  0  0  0  0  0  0  0  0  0
    8.4169  -17.4592   19.6584 C   0  0  0  0  0  0  0  0  0  0  0  0
    8.7393  -18.3531   21.9137 O   0  0  0  0  0  0  0  0  0  0  0  0
    8.2534  -18.9485   22.9038 N   0  0  0  0  0  0  0  0  0  0  0  0
   10.0574  -17.9028   21.9727 C   0  0  1  0  0  0  0  0  0  0  0  0
   11.0041  -18.0228   23.0524 C   0  0  0  0  0  0  0  0  0  0  0  0
   12.3780  -17.7788   22.4892 C   0  0  0  0  0  0  0  0  0  0  0  0
   12.8352  -18.7329   21.4925 C   0  0  0  0  0  0  0  0  0  0  0  0
   12.2994  -19.9651   21.2010 N   0  0  0  0  0  0  0  0  0  0  0  0
   13.0322  -20.5448   20.2043 C   0  0  0  0  0  0  0  0  0  0  0  0
   14.0154  -19.6741   19.8826 N   0  0  0  0  0  0  0  0  0  0  0  0
   13.8824  -18.5875   20.6681 C   0  0  0  0  0  0  0  0  0  0  0  0
   10.6970  -17.1764   24.2307 O   0  0  0  0  0  0  0  0  0  0  0  0
   11.1198  -17.4327   25.5153 O   0  0  0  0  0  0  0  0  0  0  0  0
  2  1  1  0
  2  4  1  0
  3  2  2  0
  5  4  1  0
  6  5  1  0
  7  6  1  0
  8  9  1  1
  8  7  1  0
 10 11  2  0
 10  8  1  0
 13 12  1  6
 13 14  1  0
 13 15  1  0
 14 10  1  0
 15 17  1  0
 16 15  2  0
 17 18  1  0
 18 25  1  0
 18 19  1  1
 20 19  1  0
 21 20  2  0
 22 21  1  0
 23 22  1  0
 23 24  2  0
 24 20  1  0
 25 27  2  0
 25 26  1  0
M  END
$$$$
