RAH.pdb
     RDKit          3D

 27 27  0  0  1  0  0  0  0  0999 V2000
   11.1718  -13.6160   19.9833 N   0  0  0  0  0  0  0  0  0  0  0  0
    9.9227  -13.1190   19.5379 C   0  0  0  0  0  0  0  0  0  0  0  0
    9.6626  -11.8636   19.3941 N   0  0  0  0  0  0  0  0  0  0  0  0
    8.8482  -14.0258   19.2138 N   0  0  0  0  0  0  0  0  0  0  0  0
    7.5071  -13.7869   19.7022 C   0  0  0  0  0  0  0  0  0  0  0  0
    7.4927  -13.8971   21.2053 C   0  0  0  0  0  0  0  0  0  0  0  0
    6.4113  -14.8246   21.6241 C   0  0  0  0  0  0  0  0  0  0  0  0
    6.8109  -16.2744   21.7252 C   0  0  2  0  0  0  0  0  0  0  0  0
    5.5535  -17.0316   21.5912 N   0  0  0  0  0  0  0  0  0  0  0  0
    7.4437  -16.6246   22.9991 C   0  0  0  0  0  0  0  0  0  0  0  0
    6.7717  -16.5888   24.0771 O   0  0  0  0  0  0  0  0  0  0  0  0
    8.6668  -11.6180   19.1975 C   0  0  0  0  0  0  0  0  0  0  0  0
   10.7175  -18.0990   24.0163 C   0  0  1  0  0  0  0  0  0  0  0  0
    9.4583  -17.3085   24.3748 N   0  0  0  0  0  0  0  0  0  0  0  0
    8.7918  -17.0145   23.1348 C   0  0  0  0  0  0  0  0  0  0  0  0
    9.7904  -16.1114   25.1785 O   0  0  0  0  0  0  0  0  0  0  0  0
   10.2968  -15.1539   24.5481 N   0  0  0  0  0  0  0  0  0  0  0  0
    9.5818  -15.9854   26.5512 C   0  0  1  0  0  0  0  0  0  0  0  0
    9.9364  -14.8924   27.4208 C   0  0  0  0  0  0  0  0  0  0  0  0
    8.6802  -14.4188   28.1005 C   0  0  0  0  0  0  0  0  0  0  0  0
    7.6705  -13.8335   27.2341 C   0  0  0  0  0  0  0  0  0  0  0  0
    7.7436  -13.6310   25.8762 N   0  0  0  0  0  0  0  0  0  0  0  0
    6.5839  -13.0483   25.4497 C   0  0  0  0  0  0  0  0  0  0  0  0
    5.7991  -12.8922   26.5397 N   0  0  0  0  0  0  0  0  0  0  0  0
    6.4687  -13.3704   27.6066 C   0  0  0  0  0  0  0  0  0  0  0  0
   11.0342  -15.1983   28.3696 O   0  0  0  0  0  0  0  0  0  0  0  0
   11.6473  -14.2763   29.1874 O   0  0  0  0  0  0  0  0  0  0  0  0
  2  1  1  0
  2  4  1  0
  3  2  2  0
  5  4  1  0
  6  5  1  0
  7  6  1  0
  8  9  1  1
  8  7  1  0
 10 11  2  0
 10  8  1  0
 13 12  1  1
 13 14  1  0
 13 15  1  0
 14 10  1  0
 15 17  1  0
 16 15  2  0
 17 18  1  0
 18 25  1  0
 18 19  1  1
 20 19  1  0
 21 20  2  0
 22 21  1  0
 23 22  1  0
 23 24  2  0
 24 20  1  0
 25 27  2  0
 25 26  1  0
M  END
$$$$
