RAH.pdb
     RDKit          3D

 27 27  0  0  1  0  0  0  0  0999 V2000
    7.8945  -13.2878   15.9844 N   0  0  0  0  0  0  0  0  0  0  0  0
    8.1962  -13.3679   17.3657 C   0  0  0  0  0  0  0  0  0  0  0  0
    9.3959  -13.3347   17.8389 N   0  0  0  0  0  0  0  0  0  0  0  0
    7.1387  -13.4948   18.3392 N   0  0  0  0  0  0  0  0  0  0  0  0
    7.4361  -13.8410   19.7124 C   0  0  0  0  0  0  0  0  0  0  0  0
    8.0714  -15.2069   19.7600 C   0  0  0  0  0  0  0  0  0  0  0  0
    8.3226  -15.5879   21.1731 C   0  0  0  0  0  0  0  0  0  0  0  0
    8.9922  -16.9239   21.3695 C   0  0  2  0  0  0  0  0  0  0  0  0
    7.9824  -17.9232   20.9773 N   0  0  0  0  0  0  0  0  0  0  0  0
    9.4033  -17.1804   22.7520 C   0  0  0  0  0  0  0  0  0  0  0  0
    8.5909  -17.7126   23.5715 O   0  0  0  0  0  0  0  0  0  0  0  0
    9.4964  -13.5413   18.8577 C   0  0  0  0  0  0  0  0  0  0  0  0
   12.6165  -16.7961   24.6481 C   0  0  1  0  0  0  0  0  0  0  0  0
   11.1345  -17.1707   24.6018 N   0  0  0  0  0  0  0  0  0  0  0  0
   10.6778  -16.8735   23.2709 C   0  0  0  0  0  0  0  0  0  0  0  0
   10.3756  -16.4792   25.6673 O   0  0  0  0  0  0  0  0  0  0  0  0
    9.1416  -16.3712   25.4765 N   0  0  0  0  0  0  0  0  0  0  0  0
   10.9300  -15.9561   26.8347 C   0  0  2  0  0  0  0  0  0  0  0  0
   10.3184  -15.7931   28.1292 C   0  0  0  0  0  0  0  0  0  0  0  0
    8.8285  -15.9080   27.9522 C   0  0  0  0  0  0  0  0  0  0  0  0
    8.1760  -14.7805   27.3074 C   0  0  0  0  0  0  0  0  0  0  0  0
    8.7586  -13.6229   26.8482 N   0  0  0  0  0  0  0  0  0  0  0  0
    7.7913  -12.8185   26.3155 C   0  0  0  0  0  0  0  0  0  0  0  0
    6.6175  -13.4771   26.4456 N   0  0  0  0  0  0  0  0  0  0  0  0
    6.8670  -14.6576   27.0452 C   0  0  0  0  0  0  0  0  0  0  0  0
   10.8538  -16.6971   29.1758 O   0  0  0  0  0  0  0  0  0  0  0  0
   10.4604  -16.6938   30.4948 O   0  0  0  0  0  0  0  0  0  0  0  0
  2  1  1  0
  2  4  1  0
  3  2  2  0
  5  4  1  0
  6  5  1  0
  7  6  1  0
  8  9  1  1
  8  7  1  0
 10 11  2  0
 10  8  1  0
 13 12  1  6
 13 14  1  0
 13 15  1  0
 14 10  1  0
 15 17  1  0
 16 15  2  0
 17 18  1  0
 18 25  1  0
 18 19  1  6
 20 19  1  0
 21 20  2  0
 22 21  1  0
 23 22  1  0
 23 24  2  0
 24 20  1  0
 25 27  2  0
 25 26  1  0
M  END
$$$$
