RAH.pdb
     RDKit          3D

 27 27  0  0  1  0  0  0  0  0999 V2000
   11.4289  -15.8985   13.0786 N   0  0  0  0  0  0  0  0  0  0  0  0
   10.7990  -16.6280   12.0410 C   0  0  0  0  0  0  0  0  0  0  0  0
   11.4302  -17.4068   11.2291 N   0  0  0  0  0  0  0  0  0  0  0  0
    9.3737  -16.5292   11.8386 N   0  0  0  0  0  0  0  0  0  0  0  0
    8.5477  -15.7743   12.7561 C   0  0  0  0  0  0  0  0  0  0  0  0
    8.7098  -16.3268   14.1490 C   0  0  0  0  0  0  0  0  0  0  0  0
    8.7437  -15.2082   15.1251 C   0  0  0  0  0  0  0  0  0  0  0  0
    8.9084  -15.6174   16.5664 C   0  0  2  0  0  0  0  0  0  0  0  0
    7.9994  -16.7631   16.7486 N   0  0  0  0  0  0  0  0  0  0  0  0
    8.5482  -14.5676   17.5227 C   0  0  0  0  0  0  0  0  0  0  0  0
    7.5278  -13.8388   17.3165 O   0  0  0  0  0  0  0  0  0  0  0  0
   10.8636  -17.8294   10.4602 C   0  0  0  0  0  0  0  0  0  0  0  0
    7.5953  -13.4999   20.1988 C   0  0  2  0  0  0  0  0  0  0  0  0
    8.9844  -13.2202   19.6234 N   0  0  0  0  0  0  0  0  0  0  0  0
    9.2687  -14.2868   18.7015 C   0  0  0  0  0  0  0  0  0  0  0  0
    9.9882  -13.0714   20.7002 O   0  0  0  0  0  0  0  0  0  0  0  0
    9.7467  -12.1853   21.5530 N   0  0  0  0  0  0  0  0  0  0  0  0
   11.1504  -13.8317   20.8223 C   0  0  1  0  0  0  0  0  0  0  0  0
   11.5253  -14.7439   21.8729 C   0  0  0  0  0  0  0  0  0  0  0  0
   10.3785  -15.6941   22.0883 C   0  0  0  0  0  0  0  0  0  0  0  0
   10.5989  -16.7447   23.0684 C   0  0  0  0  0  0  0  0  0  0  0  0
   11.6772  -16.8983   23.9073 N   0  0  0  0  0  0  0  0  0  0  0  0
   11.4954  -18.0201   24.6655 C   0  0  0  0  0  0  0  0  0  0  0  0
   10.3102  -18.5559   24.2958 N   0  0  0  0  0  0  0  0  0  0  0  0
    9.7830  -17.7752   23.3326 C   0  0  0  0  0  0  0  0  0  0  0  0
   12.8202  -15.4319   21.6511 O   0  0  0  0  0  0  0  0  0  0  0  0
   14.0550  -14.8972   21.9410 O   0  0  0  0  0  0  0  0  0  0  0  0
  2  1  1  0
  2  4  1  0
  3  2  2  0
  5  4  1  0
  6  5  1  0
  7  6  1  0
  8  9  1  1
  8  7  1  0
 10 11  2  0
 10  8  1  0
 13 12  1  6
 13 14  1  0
 13 15  1  0
 14 10  1  0
 15 17  1  0
 16 15  2  0
 17 18  1  0
 18 25  1  0
 18 19  1  1
 20 19  1  0
 21 20  2  0
 22 21  1  0
 23 22  1  0
 23 24  2  0
 24 20  1  0
 25 27  2  0
 25 26  1  0
M  END
$$$$
