RAH.pdb
     RDKit          3D

 27 27  0  0  1  0  0  0  0  0999 V2000
    8.4143  -12.4968   20.0141 N   0  0  0  0  0  0  0  0  0  0  0  0
    8.1739  -13.2781   18.8577 C   0  0  0  0  0  0  0  0  0  0  0  0
    8.4926  -12.9062   17.6642 N   0  0  0  0  0  0  0  0  0  0  0  0
    7.5398  -14.5697   18.9665 N   0  0  0  0  0  0  0  0  0  0  0  0
    6.9436  -14.9974   20.2136 C   0  0  0  0  0  0  0  0  0  0  0  0
    8.0127  -15.5599   21.1148 C   0  0  0  0  0  0  0  0  0  0  0  0
    8.1703  -17.0126   20.8502 C   0  0  0  0  0  0  0  0  0  0  0  0
    7.2075  -17.9085   21.5866 C   0  0  2  0  0  0  0  0  0  0  0  0
    5.9200  -17.7490   20.8872 N   0  0  0  0  0  0  0  0  0  0  0  0
    7.0303  -17.5522   22.9964 C   0  0  0  0  0  0  0  0  0  0  0  0
    6.2936  -16.5681   23.3187 O   0  0  0  0  0  0  0  0  0  0  0  0
    8.2324  -13.5594   16.8920 C   0  0  0  0  0  0  0  0  0  0  0  0
    7.2509  -19.1381   26.2393 C   0  0  2  0  0  0  0  0  0  0  0  0
    7.5554  -17.8606   25.4557 N   0  0  0  0  0  0  0  0  0  0  0  0
    7.6337  -18.2383   24.0702 C   0  0  0  0  0  0  0  0  0  0  0  0
    8.7746  -17.1976   25.9688 O   0  0  0  0  0  0  0  0  0  0  0  0
    9.7517  -17.9496   26.1933 N   0  0  0  0  0  0  0  0  0  0  0  0
    8.9010  -15.8304   26.2111 C   0  0  2  0  0  0  0  0  0  0  0  0
    9.5143  -15.1662   27.3332 C   0  0  0  0  0  0  0  0  0  0  0  0
    8.4280  -14.4649   28.1029 C   0  0  0  0  0  0  0  0  0  0  0  0
    7.6074  -13.5370   27.3424 C   0  0  0  0  0  0  0  0  0  0  0  0
    7.7977  -13.1132   26.0484 N   0  0  0  0  0  0  0  0  0  0  0  0
    6.8045  -12.2358   25.7165 C   0  0  0  0  0  0  0  0  0  0  0  0
    6.0053  -12.1191   26.8010 N   0  0  0  0  0  0  0  0  0  0  0  0
    6.5032  -12.9096   27.7718 C   0  0  0  0  0  0  0  0  0  0  0  0
   10.3546  -16.0473   28.1797 O   0  0  0  0  0  0  0  0  0  0  0  0
   10.8568  -17.2679   27.7892 O   0  0  0  0  0  0  0  0  0  0  0  0
  2  1  1  0
  2  4  1  0
  3  2  2  0
  5  4  1  0
  6  5  1  0
  7  6  1  0
  8  9  1  6
  8  7  1  0
 10 11  2  0
 10  8  1  0
 13 12  1  6
 13 14  1  0
 13 15  1  0
 14 10  1  0
 15 17  1  0
 16 15  2  0
 17 18  1  0
 18 25  1  0
 18 19  1  6
 20 19  1  0
 21 20  2  0
 22 21  1  0
 23 22  1  0
 23 24  2  0
 24 20  1  0
 25 27  2  0
 25 26  1  0
M  END
$$$$
