RAH.pdb
     RDKit          3D

 27 27  0  0  1  0  0  0  0  0999 V2000
   12.0620  -18.5490   15.9022 N   0  0  0  0  0  0  0  0  0  0  0  0
   10.7113  -18.1504   15.7524 C   0  0  0  0  0  0  0  0  0  0  0  0
   10.1191  -18.0447   14.6112 N   0  0  0  0  0  0  0  0  0  0  0  0
    9.9096  -17.8337   16.9096 N   0  0  0  0  0  0  0  0  0  0  0  0
    8.5446  -17.3773   16.7602 C   0  0  0  0  0  0  0  0  0  0  0  0
    8.5315  -15.8802   16.5866 C   0  0  0  0  0  0  0  0  0  0  0  0
    9.1125  -15.2361   17.7919 C   0  0  0  0  0  0  0  0  0  0  0  0
    8.2607  -14.1640   18.4217 C   0  0  2  0  0  0  0  0  0  0  0  0
    8.4704  -12.9658   17.5894 N   0  0  0  0  0  0  0  0  0  0  0  0
    8.6304  -13.8531   19.8048 C   0  0  0  0  0  0  0  0  0  0  0  0
    9.5634  -13.0245   20.0455 O   0  0  0  0  0  0  0  0  0  0  0  0
    9.1605  -17.6305   14.6250 C   0  0  0  0  0  0  0  0  0  0  0  0
    7.0064  -13.6747   22.9616 C   0  0  1  0  0  0  0  0  0  0  0  0
    8.3202  -14.1036   22.3067 N   0  0  0  0  0  0  0  0  0  0  0  0
    8.0120  -14.4197   20.9380 C   0  0  0  0  0  0  0  0  0  0  0  0
    8.9514  -15.2138   23.0538 O   0  0  0  0  0  0  0  0  0  0  0  0
    9.2136  -14.9825   24.2573 N   0  0  0  0  0  0  0  0  0  0  0  0
    9.2636  -16.4631   22.5194 C   0  0  2  0  0  0  0  0  0  0  0  0
   10.4261  -17.2808   22.7570 C   0  0  0  0  0  0  0  0  0  0  0  0
   11.0428  -17.6029   21.4228 C   0  0  0  0  0  0  0  0  0  0  0  0
   10.2167  -18.3763   20.5106 C   0  0  0  0  0  0  0  0  0  0  0  0
    8.9453  -18.8525   20.7271 N   0  0  0  0  0  0  0  0  0  0  0  0
    8.5311  -19.5361   19.6191 C   0  0  0  0  0  0  0  0  0  0  0  0
    9.5426  -19.4818   18.7234 N   0  0  0  0  0  0  0  0  0  0  0  0
   10.5507  -18.7793   19.2763 C   0  0  0  0  0  0  0  0  0  0  0  0
   11.3919  -16.7033   23.7229 O   0  0  0  0  0  0  0  0  0  0  0  0
   11.6752  -17.2301   24.9626 O   0  0  0  0  0  0  0  0  0  0  0  0
  2  1  1  0
  2  4  1  0
  3  2  2  0
  5  4  1  0
  6  5  1  0
  7  6  1  0
  8  9  1  6
  8  7  1  0
 10 11  2  0
 10  8  1  0
 13 12  1  6
 13 14  1  0
 13 15  1  0
 14 10  1  0
 15 17  1  0
 16 15  2  0
 17 18  1  0
 18 25  1  0
 18 19  1  6
 20 19  1  0
 21 20  2  0
 22 21  1  0
 23 22  1  0
 23 24  2  0
 24 20  1  0
 25 27  2  0
 25 26  1  0
M  END
$$$$
