RAH.pdb
     RDKit          3D

 27 27  0  0  1  0  0  0  0  0999 V2000
    8.8257  -18.4777   18.4968 N   0  0  0  0  0  0  0  0  0  0  0  0
    9.4380  -18.6067   19.7672 C   0  0  0  0  0  0  0  0  0  0  0  0
   10.6523  -19.0073   19.9386 N   0  0  0  0  0  0  0  0  0  0  0  0
    8.7058  -18.2847   20.9681 N   0  0  0  0  0  0  0  0  0  0  0  0
    7.5207  -17.4563   20.9112 C   0  0  0  0  0  0  0  0  0  0  0  0
    7.8850  -16.0341   21.2523 C   0  0  0  0  0  0  0  0  0  0  0  0
    6.6742  -15.1784   21.1679 C   0  0  0  0  0  0  0  0  0  0  0  0
    6.8828  -13.7313   21.5344 C   0  0  2  0  0  0  0  0  0  0  0  0
    7.6048  -13.1439   20.3917 N   0  0  0  0  0  0  0  0  0  0  0  0
    7.6783  -13.5391   22.7495 C   0  0  0  0  0  0  0  0  0  0  0  0
    8.9412  -13.6757   22.7141 O   0  0  0  0  0  0  0  0  0  0  0  0
   10.9762  -19.0893   20.9280 C   0  0  0  0  0  0  0  0  0  0  0  0
    7.0164  -12.2780   26.1965 C   0  0  1  0  0  0  0  0  0  0  0  0
    7.8751  -13.1036   25.2375 N   0  0  0  0  0  0  0  0  0  0  0  0
    7.1375  -13.2009   24.0068 C   0  0  0  0  0  0  0  0  0  0  0  0
    8.2312  -14.4113   25.8311 O   0  0  0  0  0  0  0  0  0  0  0  0
    7.2930  -15.2352   25.9397 N   0  0  0  0  0  0  0  0  0  0  0  0
    9.5059  -14.7737   26.2641 C   0  0  1  0  0  0  0  0  0  0  0  0
    9.9101  -15.9474   26.9960 C   0  0  0  0  0  0  0  0  0  0  0  0
   11.2637  -16.3635   26.4872 C   0  0  0  0  0  0  0  0  0  0  0  0
   11.3413  -16.6780   25.0703 C   0  0  0  0  0  0  0  0  0  0  0  0
   10.3222  -16.6557   24.1477 N   0  0  0  0  0  0  0  0  0  0  0  0
   10.8166  -17.0250   22.9289 C   0  0  0  0  0  0  0  0  0  0  0  0
   12.1347  -17.2739   23.0990 N   0  0  0  0  0  0  0  0  0  0  0  0
   12.4347  -17.0600   24.3950 C   0  0  0  0  0  0  0  0  0  0  0  0
    9.8617  -15.7945   28.4702 O   0  0  0  0  0  0  0  0  0  0  0  0
    9.9359  -16.8320   29.3717 O   0  0  0  0  0  0  0  0  0  0  0  0
  2  1  1  0
  2  4  1  0
  3  2  2  0
  5  4  1  0
  6  5  1  0
  7  6  1  0
  8  9  1  6
  8  7  1  0
 10 11  2  0
 10  8  1  0
 13 12  1  6
 13 14  1  0
 13 15  1  0
 14 10  1  0
 15 17  1  0
 16 15  2  0
 17 18  1  0
 18 25  1  0
 18 19  1  1
 20 19  1  0
 21 20  2  0
 22 21  1  0
 23 22  1  0
 23 24  2  0
 24 20  1  0
 25 27  2  0
 25 26  1  0
M  END
$$$$
