RAH.pdb
     RDKit          3D

 27 27  0  0  1  0  0  0  0  0999 V2000
    7.7664  -13.4370   19.1921 N   0  0  0  0  0  0  0  0  0  0  0  0
    7.6042  -13.7247   17.8150 C   0  0  0  0  0  0  0  0  0  0  0  0
    7.1828  -12.8657   16.9497 N   0  0  0  0  0  0  0  0  0  0  0  0
    7.9137  -15.0368   17.3005 N   0  0  0  0  0  0  0  0  0  0  0  0
    8.5595  -16.0251   18.1371 C   0  0  0  0  0  0  0  0  0  0  0  0
    8.6942  -17.3182   17.3747 C   0  0  0  0  0  0  0  0  0  0  0  0
    9.3161  -18.3460   18.2476 C   0  0  0  0  0  0  0  0  0  0  0  0
    9.4412  -19.7182   17.6366 C   0  0  2  0  0  0  0  0  0  0  0  0
    8.0570  -20.2017   17.4870 N   0  0  0  0  0  0  0  0  0  0  0  0
   10.1897  -20.6669   18.4648 C   0  0  0  0  0  0  0  0  0  0  0  0
    9.6208  -21.2505   19.4399 O   0  0  0  0  0  0  0  0  0  0  0  0
    7.1481  -13.1889   15.9572 C   0  0  0  0  0  0  0  0  0  0  0  0
   13.6501  -22.1028   18.3737 C   0  0  1  0  0  0  0  0  0  0  0  0
   12.3337  -21.8520   19.1107 N   0  0  0  0  0  0  0  0  0  0  0  0
   11.5444  -21.0006   18.2620 C   0  0  0  0  0  0  0  0  0  0  0  0
   12.5753  -21.2988   20.4615 O   0  0  0  0  0  0  0  0  0  0  0  0
   11.5579  -20.9126   21.0833 N   0  0  0  0  0  0  0  0  0  0  0  0
   13.8254  -21.1834   21.0678 C   0  0  1  0  0  0  0  0  0  0  0  0
   14.1446  -20.7268   22.3968 C   0  0  0  0  0  0  0  0  0  0  0  0
   13.2892  -21.4971   23.3659 C   0  0  0  0  0  0  0  0  0  0  0  0
   11.9845  -20.9257   23.6557 C   0  0  0  0  0  0  0  0  0  0  0  0
   11.4111  -19.8113   23.0905 N   0  0  0  0  0  0  0  0  0  0  0  0
   10.1798  -19.6126   23.6480 C   0  0  0  0  0  0  0  0  0  0  0  0
    9.9947  -20.6001   24.5530 N   0  0  0  0  0  0  0  0  0  0  0  0
   11.0915  -21.3827   24.5451 C   0  0  0  0  0  0  0  0  0  0  0  0
   15.5894  -20.7734   22.7280 O   0  0  0  0  0  0  0  0  0  0  0  0
   16.2998  -19.7410   23.2972 O   0  0  0  0  0  0  0  0  0  0  0  0
  2  1  1  0
  2  4  1  0
  3  2  2  0
  5  4  1  0
  6  5  1  0
  7  6  1  0
  8  9  1  1
  8  7  1  0
 10 11  2  0
 10  8  1  0
 13 12  1  6
 13 14  1  0
 13 15  1  0
 14 10  1  0
 15 17  1  0
 16 15  2  0
 17 18  1  0
 18 25  1  0
 18 19  1  1
 20 19  1  0
 21 20  2  0
 22 21  1  0
 23 22  1  0
 23 24  2  0
 24 20  1  0
 25 27  2  0
 25 26  1  0
M  END
$$$$
