RAH.pdb
     RDKit          3D

 27 27  0  0  1  0  0  0  0  0999 V2000
    5.0460  -21.0948   23.2162 N   0  0  0  0  0  0  0  0  0  0  0  0
    5.0006  -20.8008   21.8316 C   0  0  0  0  0  0  0  0  0  0  0  0
    4.4804  -21.5863   20.9503 N   0  0  0  0  0  0  0  0  0  0  0  0
    5.5534  -19.5670   21.3274 N   0  0  0  0  0  0  0  0  0  0  0  0
    6.4923  -18.8006   22.1178 C   0  0  0  0  0  0  0  0  0  0  0  0
    6.8208  -17.5158   21.4016 C   0  0  0  0  0  0  0  0  0  0  0  0
    7.7870  -16.7302   22.2107 C   0  0  0  0  0  0  0  0  0  0  0  0
    7.6117  -15.2344   22.1479 C   0  0  2  0  0  0  0  0  0  0  0  0
    8.2557  -14.8229   20.8877 N   0  0  0  0  0  0  0  0  0  0  0  0
    8.2423  -14.5192   23.2601 C   0  0  0  0  0  0  0  0  0  0  0  0
    9.5066  -14.5253   23.3882 O   0  0  0  0  0  0  0  0  0  0  0  0
    4.5157  -21.2569   19.9599 C   0  0  0  0  0  0  0  0  0  0  0  0
    6.9766  -12.5063   26.1618 C   0  0  1  0  0  0  0  0  0  0  0  0
    8.0628  -13.3597   25.5055 N   0  0  0  0  0  0  0  0  0  0  0  0
    7.5344  -13.7945   24.2406 C   0  0  0  0  0  0  0  0  0  0  0  0
    8.4829  -14.4653   26.3947 O   0  0  0  0  0  0  0  0  0  0  0  0
    7.6298  -15.3621   26.5911 N   0  0  0  0  0  0  0  0  0  0  0  0
    9.7301  -14.5690   27.0091 C   0  0  1  0  0  0  0  0  0  0  0  0
   10.1874  -15.5485   27.9619 C   0  0  0  0  0  0  0  0  0  0  0  0
   11.4408  -16.1744   27.4128 C   0  0  0  0  0  0  0  0  0  0  0  0
   11.2816  -16.9556   26.1975 C   0  0  0  0  0  0  0  0  0  0  0  0
   10.1109  -17.2731   25.5502 N   0  0  0  0  0  0  0  0  0  0  0  0
   10.4013  -18.0290   24.4499 C   0  0  0  0  0  0  0  0  0  0  0  0
   11.7450  -18.1771   24.4188 N   0  0  0  0  0  0  0  0  0  0  0  0
   12.2602  -17.5242   25.4788 C   0  0  0  0  0  0  0  0  0  0  0  0
   10.3498  -15.0292   29.3415 O   0  0  0  0  0  0  0  0  0  0  0  0
   10.5619  -15.8088   30.4558 O   0  0  0  0  0  0  0  0  0  0  0  0
  2  1  1  0
  2  4  1  0
  3  2  2  0
  5  4  1  0
  6  5  1  0
  7  6  1  0
  8  9  1  6
  8  7  1  0
 10 11  2  0
 10  8  1  0
 13 12  1  6
 13 14  1  0
 13 15  1  0
 14 10  1  0
 15 17  1  0
 16 15  2  0
 17 18  1  0
 18 25  1  0
 18 19  1  1
 20 19  1  0
 21 20  2  0
 22 21  1  0
 23 22  1  0
 23 24  2  0
 24 20  1  0
 25 27  2  0
 25 26  1  0
M  END
$$$$
