RAH.pdb
     RDKit          3D

 27 27  0  0  1  0  0  0  0  0999 V2000
    5.4272  -20.5388   15.7996 N   0  0  0  0  0  0  0  0  0  0  0  0
    5.1366  -21.0579   17.0848 C   0  0  0  0  0  0  0  0  0  0  0  0
    5.1031  -22.3186   17.3562 N   0  0  0  0  0  0  0  0  0  0  0  0
    4.8551  -20.1690   18.1861 N   0  0  0  0  0  0  0  0  0  0  0  0
    5.8371  -19.2004   18.6234 C   0  0  0  0  0  0  0  0  0  0  0  0
    7.1721  -19.5231   18.0028 C   0  0  0  0  0  0  0  0  0  0  0  0
    8.1820  -18.5334   18.4565 C   0  0  0  0  0  0  0  0  0  0  0  0
    7.9714  -17.1259   17.9599 C   0  0  2  0  0  0  0  0  0  0  0  0
    8.5920  -17.0913   16.6235 N   0  0  0  0  0  0  0  0  0  0  0  0
    8.5972  -16.1033   18.8016 C   0  0  0  0  0  0  0  0  0  0  0  0
    9.7982  -16.2450   19.1922 O   0  0  0  0  0  0  0  0  0  0  0  0
    4.9553  -22.5714   18.3586 C   0  0  0  0  0  0  0  0  0  0  0  0
    7.3707  -12.9468   20.4180 C   0  0  1  0  0  0  0  0  0  0  0  0
    8.4511  -14.0116   20.2236 N   0  0  0  0  0  0  0  0  0  0  0  0
    7.9518  -14.9261   19.2324 C   0  0  0  0  0  0  0  0  0  0  0  0
    8.8066  -14.6521   21.5092 O   0  0  0  0  0  0  0  0  0  0  0  0
    8.1116  -15.6425   21.8363 N   0  0  0  0  0  0  0  0  0  0  0  0
    9.8347  -14.2360   22.3540 C   0  0  2  0  0  0  0  0  0  0  0  0
   10.2842  -14.8294   23.5877 C   0  0  0  0  0  0  0  0  0  0  0  0
    9.1445  -15.6317   24.1547 C   0  0  0  0  0  0  0  0  0  0  0  0
    8.1019  -14.8708   24.8230 C   0  0  0  0  0  0  0  0  0  0  0  0
    8.0255  -13.5069   24.9782 N   0  0  0  0  0  0  0  0  0  0  0  0
    6.8897  -13.2005   25.6728 C   0  0  0  0  0  0  0  0  0  0  0  0
    6.2684  -14.3703   25.9447 N   0  0  0  0  0  0  0  0  0  0  0  0
    7.0119  -15.3669   25.4258 C   0  0  0  0  0  0  0  0  0  0  0  0
   11.5426  -15.6050   23.4694 O   0  0  0  0  0  0  0  0  0  0  0  0
   12.1355  -16.3043   24.4961 O   0  0  0  0  0  0  0  0  0  0  0  0
  2  1  1  0
  2  4  1  0
  3  2  2  0
  5  4  1  0
  6  5  1  0
  7  6  1  0
  8  9  1  6
  8  7  1  0
 10 11  2  0
 10  8  1  0
 13 12  1  6
 13 14  1  0
 13 15  1  0
 14 10  1  0
 15 17  1  0
 16 15  2  0
 17 18  1  0
 18 25  1  0
 18 19  1  6
 20 19  1  0
 21 20  2  0
 22 21  1  0
 23 22  1  0
 23 24  2  0
 24 20  1  0
 25 27  2  0
 25 26  1  0
M  END
$$$$
