RAH.pdb
     RDKit          3D

 27 27  0  0  1  0  0  0  0  0999 V2000
    7.1588  -14.1164   14.2044 N   0  0  0  0  0  0  0  0  0  0  0  0
    7.9390  -12.9380   14.2954 C   0  0  0  0  0  0  0  0  0  0  0  0
    8.1108  -12.1165   13.3157 N   0  0  0  0  0  0  0  0  0  0  0  0
    8.5994  -12.5917   15.5308 N   0  0  0  0  0  0  0  0  0  0  0  0
    8.5674  -13.4919   16.6633 C   0  0  0  0  0  0  0  0  0  0  0  0
    9.4164  -14.7016   16.3676 C   0  0  0  0  0  0  0  0  0  0  0  0
    9.3348  -15.6542   17.5039 C   0  0  0  0  0  0  0  0  0  0  0  0
   10.2106  -16.8751   17.3835 C   0  0  2  0  0  0  0  0  0  0  0  0
    9.4215  -17.9751   17.9661 N   0  0  0  0  0  0  0  0  0  0  0  0
   11.4796  -16.7647   18.1073 C   0  0  0  0  0  0  0  0  0  0  0  0
   12.4523  -17.5265   17.8104 O   0  0  0  0  0  0  0  0  0  0  0  0
    8.8032  -11.3504   13.4715 C   0  0  0  0  0  0  0  0  0  0  0  0
   13.0956  -13.9932   19.7342 C   0  0  2  0  0  0  0  0  0  0  0  0
   13.0114  -15.5197   19.6954 N   0  0  0  0  0  0  0  0  0  0  0  0
   11.7218  -15.8456   19.1486 C   0  0  0  0  0  0  0  0  0  0  0  0
   13.2633  -16.1023   21.0321 O   0  0  0  0  0  0  0  0  0  0  0  0
   14.4345  -15.9908   21.4643 N   0  0  0  0  0  0  0  0  0  0  0  0
   12.3090  -16.7477   21.8171 C   0  0  2  0  0  0  0  0  0  0  0  0
   12.4527  -17.2981   23.1411 C   0  0  0  0  0  0  0  0  0  0  0  0
   13.4570  -18.4163   23.0681 C   0  0  0  0  0  0  0  0  0  0  0  0
   13.1731  -19.4639   22.1014 C   0  0  0  0  0  0  0  0  0  0  0  0
   12.1130  -19.5372   21.2291 N   0  0  0  0  0  0  0  0  0  0  0  0
   12.2155  -20.6876   20.4992 C   0  0  0  0  0  0  0  0  0  0  0  0
   13.3338  -21.3208   20.9197 N   0  0  0  0  0  0  0  0  0  0  0  0
   13.8990  -20.5702   21.8853 C   0  0  0  0  0  0  0  0  0  0  0  0
   12.7687  -16.2964   24.1879 O   0  0  0  0  0  0  0  0  0  0  0  0
   12.9513  -16.5830   25.5217 O   0  0  0  0  0  0  0  0  0  0  0  0
  2  1  1  0
  2  4  1  0
  3  2  2  0
  5  4  1  0
  6  5  1  0
  7  6  1  0
  8  9  1  1
  8  7  1  0
 10 11  2  0
 10  8  1  0
 13 12  1  6
 13 14  1  0
 13 15  1  0
 14 10  1  0
 15 17  1  0
 16 15  2  0
 17 18  1  0
 18 25  1  0
 18 19  1  6
 20 19  1  0
 21 20  2  0
 22 21  1  0
 23 22  1  0
 23 24  2  0
 24 20  1  0
 25 27  2  0
 25 26  1  0
M  END
$$$$
