RAH.pdb
     RDKit          3D

 27 27  0  0  1  0  0  0  0  0999 V2000
   61.0760    4.9974   72.1782 N   0  0  0  0  0  0  0  0  0  0  0  0
   59.6874    5.0508   72.4515 C   0  0  0  0  0  0  0  0  0  0  0  0
   58.8439    5.7203   71.7412 N   0  0  0  0  0  0  0  0  0  0  0  0
   59.1351    4.3340   73.5754 N   0  0  0  0  0  0  0  0  0  0  0  0
   60.0017    3.7077   74.5504 C   0  0  0  0  0  0  0  0  0  0  0  0
   61.4006    3.6200   73.9964 C   0  0  0  0  0  0  0  0  0  0  0  0
   61.4751    2.5113   73.0113 C   0  0  0  0  0  0  0  0  0  0  0  0
   62.7708    1.7411   73.0067 C   0  0  2  0  0  0  0  0  0  0  0  0
   63.6066    2.3979   71.9859 N   0  0  0  0  0  0  0  0  0  0  0  0
   62.6155    0.3271   72.6567 C   0  0  0  0  0  0  0  0  0  0  0  0
   62.6752   -0.5647   73.5601 O   0  0  0  0  0  0  0  0  0  0  0  0
   58.3820    6.5291   72.2136 C   0  0  0  0  0  0  0  0  0  0  0  0
   60.4544   -0.5661   70.0371 C   0  0  2  0  0  0  0  0  0  0  0  0
   61.4837   -1.1952   70.9773 N   0  0  0  0  0  0  0  0  0  0  0  0
   62.3959   -0.1467   71.3471 C   0  0  0  0  0  0  0  0  0  0  0  0
   62.1346   -2.3661   70.3493 O   0  0  0  0  0  0  0  0  0  0  0  0
   63.2978   -2.6195   70.7412 N   0  0  0  0  0  0  0  0  0  0  0  0
   61.5533   -3.1805   69.3785 C   0  0  1  0  0  0  0  0  0  0  0  0
   60.3024   -3.0051   68.6851 C   0  0  0  0  0  0  0  0  0  0  0  0
   59.8024   -4.3671   68.2860 C   0  0  0  0  0  0  0  0  0  0  0  0
   60.4418   -4.9641   67.1252 C   0  0  0  0  0  0  0  0  0  0  0  0
   61.7798   -5.2224   66.9431 N   0  0  0  0  0  0  0  0  0  0  0  0
   61.9616   -5.7819   65.7101 C   0  0  0  0  0  0  0  0  0  0  0  0
   60.7412   -5.8683   65.1344 N   0  0  0  0  0  0  0  0  0  0  0  0
   59.8365   -5.3713   66.0003 C   0  0  0  0  0  0  0  0  0  0  0  0
   59.2974   -2.2092   69.4305 O   0  0  0  0  0  0  0  0  0  0  0  0
   59.1981   -0.8367   69.3967 O   0  0  0  0  0  0  0  0  0  0  0  0
  2  1  1  0
  2  4  1  0
  3  2  2  0
  5  4  1  0
  6  5  1  0
  7  6  1  0
  8  9  1  6
  8  7  1  0
 10 11  2  0
 10  8  1  0
 13 12  1  1
 13 14  1  0
 13 15  1  0
 14 10  1  0
 15 17  1  0
 16 15  2  0
 17 18  1  0
 18 25  1  0
 18 19  1  6
 20 19  1  0
 21 20  2  0
 22 21  1  0
 23 22  1  0
 23 24  2  0
 24 20  1  0
 25 27  2  0
 25 26  1  0
M  END
$$$$
