RAH.pdb
     RDKit          3D

 27 27  0  0  1  0  0  0  0  0999 V2000
    8.5958  -12.9777   16.7093 N   0  0  0  0  0  0  0  0  0  0  0  0
    8.9904  -12.9802   18.0694 C   0  0  0  0  0  0  0  0  0  0  0  0
    9.9046  -12.2074   18.5503 N   0  0  0  0  0  0  0  0  0  0  0  0
    8.3661  -13.8784   19.0104 N   0  0  0  0  0  0  0  0  0  0  0  0
    7.5490  -14.9802   18.5496 C   0  0  0  0  0  0  0  0  0  0  0  0
    8.4373  -16.0846   18.0371 C   0  0  0  0  0  0  0  0  0  0  0  0
    7.9412  -17.3921   18.5366 C   0  0  0  0  0  0  0  0  0  0  0  0
    8.7531  -18.5907   18.1170 C   0  0  2  0  0  0  0  0  0  0  0  0
    7.8045  -19.7188   18.1178 N   0  0  0  0  0  0  0  0  0  0  0  0
    9.8609  -18.9000   19.0243 C   0  0  0  0  0  0  0  0  0  0  0  0
    9.6694  -19.6471   20.0344 O   0  0  0  0  0  0  0  0  0  0  0  0
   10.1554  -12.3573   19.5529 C   0  0  0  0  0  0  0  0  0  0  0  0
   13.3776  -19.3178   18.7853 C   0  0  1  0  0  0  0  0  0  0  0  0
   12.2967  -18.7459   19.7037 N   0  0  0  0  0  0  0  0  0  0  0  0
   11.1761  -18.4184   18.8639 C   0  0  0  0  0  0  0  0  0  0  0  0
   12.8138  -17.6042   20.4901 O   0  0  0  0  0  0  0  0  0  0  0  0
   13.6356  -16.8633   19.9013 N   0  0  0  0  0  0  0  0  0  0  0  0
   12.4555  -17.3096   21.8048 C   0  0  1  0  0  0  0  0  0  0  0  0
   12.8566  -16.1911   22.6200 C   0  0  0  0  0  0  0  0  0  0  0  0
   11.8856  -16.0841   23.7645 C   0  0  0  0  0  0  0  0  0  0  0  0
   10.5062  -15.8018   23.4037 C   0  0  0  0  0  0  0  0  0  0  0  0
    9.9954  -15.5781   22.1471 N   0  0  0  0  0  0  0  0  0  0  0  0
    8.6532  -15.3436   22.2471 C   0  0  0  0  0  0  0  0  0  0  0  0
    8.3377  -15.4223   23.5596 N   0  0  0  0  0  0  0  0  0  0  0  0
    9.4656  -15.6991   24.2428 C   0  0  0  0  0  0  0  0  0  0  0  0
   14.2730  -16.2309   23.0573 O   0  0  0  0  0  0  0  0  0  0  0  0
   14.9886  -15.1444   23.5067 O   0  0  0  0  0  0  0  0  0  0  0  0
  2  1  1  0
  2  4  1  0
  3  2  2  0
  5  4  1  0
  6  5  1  0
  7  6  1  0
  8  9  1  1
  8  7  1  0
 10 11  2  0
 10  8  1  0
 13 12  1  1
 13 14  1  0
 13 15  1  0
 14 10  1  0
 15 17  1  0
 16 15  2  0
 17 18  1  0
 18 25  1  0
 18 19  1  1
 20 19  1  0
 21 20  2  0
 22 21  1  0
 23 22  1  0
 23 24  2  0
 24 20  1  0
 25 27  2  0
 25 26  1  0
M  END
$$$$
