RVY.pdb
     RDKit          3D

 31 31  0  0  1  0  0  0  0  0999 V2000
   26.7143  -21.0092  -10.8726 N   0  0  0  0  0  0  0  0  0  0  0  0
   25.3981  -20.5983  -10.5304 C   0  0  0  0  0  0  0  0  0  0  0  0
   25.1826  -20.1979   -9.3431 N   0  0  0  0  0  0  0  0  0  0  0  0
   24.3365  -20.6269  -11.4768 N   0  0  0  0  0  0  0  0  0  0  0  0
   24.5302  -21.2265  -12.7655 C   0  0  0  0  0  0  0  0  0  0  0  0
   25.1992  -20.2598  -13.7083 C   0  0  0  0  0  0  0  0  0  0  0  0
   24.2045  -19.6400  -14.6772 C   0  0  0  0  0  0  0  0  0  0  0  0
   23.9303  -20.6589  -15.7530 C   0  0  2  0  0  0  0  0  0  0  0  0
   25.1514  -20.8405  -16.5157 N   0  0  0  0  0  0  0  0  0  0  0  0
   22.8943  -20.1618  -16.7014 C   0  0  0  0  0  0  0  0  0  0  0  0
   23.2249  -19.2313  -17.4807 O   0  0  0  0  0  0  0  0  0  0  0  0
   24.2475  -19.9360   -8.9617 C   0  0  0  0  0  0  0  0  0  0  0  0
   21.5040  -21.7248  -19.5136 C   0  0  2  0  0  0  0  0  0  0  0  0
   20.3264  -21.2660  -18.7065 C   0  0  0  0  0  0  0  0  0  0  0  0
   19.5941  -22.4219  -18.1128 C   0  0  2  0  0  0  0  0  0  0  0  0
   20.6465  -20.1628  -17.7330 N   0  0  0  0  0  0  0  0  0  0  0  0
   21.5807  -20.6912  -16.7519 C   0  0  0  0  0  0  0  0  0  0  0  0
   19.4357  -19.6299  -17.1093 O   0  0  0  0  0  0  0  0  0  0  0  0
   19.0186  -20.1731  -16.0227 O   0  0  0  0  0  0  0  0  0  0  0  0
   21.0527  -13.0671  -15.8653 C   0  0  0  0  0  0  0  0  0  0  0  0
   20.0521  -13.9732  -16.2130 C   0  0  0  0  0  0  0  0  0  0  0  0
   19.9157  -14.3850  -17.5129 C   0  0  0  0  0  0  0  0  0  0  0  0
   18.9266  -15.2767  -17.8393 C   0  0  0  0  0  0  0  0  0  0  0  0
   18.0446  -15.7904  -16.9079 C   0  0  0  0  0  0  0  0  0  0  0  0
   16.9965  -16.7535  -17.3175 C   0  0  2  0  0  0  0  0  0  0  0  0
   17.3976  -18.1605  -16.9042 N   0  0  0  0  0  0  0  0  0  0  0  0
   18.6318  -18.5610  -17.5493 C   0  0  0  0  0  0  0  0  0  0  0  0
   16.3568  -19.1374  -17.2878 O   0  0  0  0  0  0  0  0  0  0  0  0
   15.2188  -19.3802  -16.5192 C   0  0  0  0  0  0  0  0  0  0  0  0
   18.1790  -15.3815  -15.6129 C   0  0  0  0  0  0  0  0  0  0  0  0
   19.1762  -14.4779  -15.2638 O   0  0  0  0  0  0  0  0  0  0  0  0
  1  2  1  0
  2  4  1  0
  2  3  2  0
  4  5  1  0
  6  5  1  0
  7  6  1  0
  8  7  1  0
  8  9  1  6
 10  8  1  0
 10 16  1  0
 11 10  2  0
 13 12  1  6
 13 14  1  0
 13 15  1  0
 15 17  1  0
 15 16  1  6
 17 18  2  0
 19 20  1  0
 20 30  2  0
 21 22  2  0
 21 20  1  0
 22 23  1  0
 23 24  1  0
 23 29  2  0
 25 24  1  1
 26 25  1  0
 26 17  1  0
 27 25  1  0
 28 27  1  0
 30 29  1  0
 31 27  2  0
M  END
$$$$
