RVY.pdb
     RDKit          3D

 31 31  0  0  1  0  0  0  0  0999 V2000
   27.6388  -17.1179  -19.3517 N   0  0  0  0  0  0  0  0  0  0  0  0
   26.2413  -17.0689  -19.1006 C   0  0  0  0  0  0  0  0  0  0  0  0
   25.5794  -16.0911  -19.5720 N   0  0  0  0  0  0  0  0  0  0  0  0
   25.5821  -18.0774  -18.3442 N   0  0  0  0  0  0  0  0  0  0  0  0
   26.3411  -19.0948  -17.6762 C   0  0  0  0  0  0  0  0  0  0  0  0
   25.7265  -20.4525  -17.9006 C   0  0  0  0  0  0  0  0  0  0  0  0
   24.8536  -20.8750  -16.7294 C   0  0  0  0  0  0  0  0  0  0  0  0
   25.7511  -21.5357  -15.7152 C   0  0  2  0  0  0  0  0  0  0  0  0
   26.2113  -22.7912  -16.2791 N   0  0  0  0  0  0  0  0  0  0  0  0
   24.9949  -21.8667  -14.4749 C   0  0  0  0  0  0  0  0  0  0  0  0
   24.1998  -22.8401  -14.5267 O   0  0  0  0  0  0  0  0  0  0  0  0
   24.5433  -15.9860  -19.5100 C   0  0  0  0  0  0  0  0  0  0  0  0
   26.3486  -21.8411  -10.8316 C   0  0  2  0  0  0  0  0  0  0  0  0
   25.0032  -21.1806  -10.8802 C   0  0  0  0  0  0  0  0  0  0  0  0
   25.0903  -19.7457  -10.4826 C   0  0  2  0  0  0  0  0  0  0  0  0
   24.2471  -21.4298  -12.1583 N   0  0  0  0  0  0  0  0  0  0  0  0
   25.1396  -21.1374  -13.2685 C   0  0  0  0  0  0  0  0  0  0  0  0
   23.0179  -20.6394  -12.2170 O   0  0  0  0  0  0  0  0  0  0  0  0
   23.1131  -19.3773  -12.4357 O   0  0  0  0  0  0  0  0  0  0  0  0
   19.9072  -24.3079  -17.1612 C   0  0  0  0  0  0  0  0  0  0  0  0
   20.0356  -23.2018  -16.3226 C   0  0  0  0  0  0  0  0  0  0  0  0
   21.2752  -22.6895  -16.0415 C   0  0  0  0  0  0  0  0  0  0  0  0
   21.3853  -21.6011  -15.2149 C   0  0  0  0  0  0  0  0  0  0  0  0
   20.2907  -20.9835  -14.6407 C   0  0  0  0  0  0  0  0  0  0  0  0
   20.4694  -19.8084  -13.7570 C   0  0  1  0  0  0  0  0  0  0  0  0
   20.5277  -20.2573  -12.3057 N   0  0  0  0  0  0  0  0  0  0  0  0
   21.6915  -21.0859  -12.0630 C   0  0  0  0  0  0  0  0  0  0  0  0
   19.3328  -21.0532  -11.9537 O   0  0  0  0  0  0  0  0  0  0  0  0
   18.0401  -20.5302  -11.9584 C   0  0  0  0  0  0  0  0  0  0  0  0
   19.0555  -21.4923  -14.9196 C   0  0  0  0  0  0  0  0  0  0  0  0
   18.9250  -22.5954  -15.7556 O   0  0  0  0  0  0  0  0  0  0  0  0
  1  2  1  0
  2  4  1  0
  2  3  2  0
  4  5  1  0
  6  5  1  0
  7  6  1  0
  8  7  1  0
  8  9  1  6
 10  8  1  0
 10 16  1  0
 11 10  2  0
 13 12  1  1
 13 14  1  0
 13 15  1  0
 15 17  1  0
 15 16  1  1
 17 18  2  0
 19 20  1  0
 20 30  2  0
 21 22  2  0
 21 20  1  0
 22 23  1  0
 23 24  1  0
 23 29  2  0
 25 24  1  1
 26 25  1  0
 26 17  1  0
 27 25  1  0
 28 27  1  0
 30 29  1  0
 31 27  2  0
M  END
$$$$
