RVY.pdb
     RDKit          3D

 31 31  0  0  1  0  0  0  0  0999 V2000
   28.8823  -19.4753  -19.3284 N   0  0  0  0  0  0  0  0  0  0  0  0
   29.5002  -18.4470  -18.5674 C   0  0  0  0  0  0  0  0  0  0  0  0
   30.1176  -17.5263  -19.1898 N   0  0  0  0  0  0  0  0  0  0  0  0
   29.4407  -18.4307  -17.1461 N   0  0  0  0  0  0  0  0  0  0  0  0
   28.5227  -19.2845  -16.4492 C   0  0  0  0  0  0  0  0  0  0  0  0
   27.1772  -18.6201  -16.3099 C   0  0  0  0  0  0  0  0  0  0  0  0
   26.1216  -19.5892  -15.8014 C   0  0  0  0  0  0  0  0  0  0  0  0
   26.8197  -20.5929  -14.9206 C   0  0  2  0  0  0  0  0  0  0  0  0
   27.2754  -21.6833  -15.7627 N   0  0  0  0  0  0  0  0  0  0  0  0
   25.8732  -21.1753  -13.9282 C   0  0  0  0  0  0  0  0  0  0  0  0
   25.1295  -22.1107  -14.3208 O   0  0  0  0  0  0  0  0  0  0  0  0
   30.6613  -16.7598  -18.7367 C   0  0  0  0  0  0  0  0  0  0  0  0
   26.6399  -21.6812  -10.0832 C   0  0  2  0  0  0  0  0  0  0  0  0
   25.2510  -21.1587  -10.2989 C   0  0  0  0  0  0  0  0  0  0  0  0
   25.0857  -19.8004   -9.7051 C   0  0  2  0  0  0  0  0  0  0  0  0
   24.7663  -21.2826  -11.7191 N   0  0  0  0  0  0  0  0  0  0  0  0
   25.7866  -20.7198  -12.5891 C   0  0  0  0  0  0  0  0  0  0  0  0
   23.4683  -20.6339  -11.9013 O   0  0  0  0  0  0  0  0  0  0  0  0
   23.4136  -19.3517  -11.8497 O   0  0  0  0  0  0  0  0  0  0  0  0
   21.5555  -23.4243  -18.0075 C   0  0  0  0  0  0  0  0  0  0  0  0
   21.4523  -22.5182  -16.9532 C   0  0  0  0  0  0  0  0  0  0  0  0
   20.2298  -22.2395  -16.4002 C   0  0  0  0  0  0  0  0  0  0  0  0
   20.1446  -21.3459  -15.3638 C   0  0  0  0  0  0  0  0  0  0  0  0
   21.2481  -20.7006  -14.8391 C   0  0  0  0  0  0  0  0  0  0  0  0
   21.0965  -19.7463  -13.7165 C   0  0  1  0  0  0  0  0  0  0  0  0
   21.0010  -20.5051  -12.4026 N   0  0  0  0  0  0  0  0  0  0  0  0
   22.2203  -21.2418  -12.1366 C   0  0  0  0  0  0  0  0  0  0  0  0
   19.8904  -21.4798  -12.4384 O   0  0  0  0  0  0  0  0  0  0  0  0
   20.0850  -22.8597  -12.3840 C   0  0  0  0  0  0  0  0  0  0  0  0
   22.4663  -20.9770  -15.3885 C   0  0  0  0  0  0  0  0  0  0  0  0
   22.5715  -21.8803  -16.4400 O   0  0  0  0  0  0  0  0  0  0  0  0
  1  2  1  0
  2  4  1  0
  2  3  2  0
  4  5  1  0
  6  5  1  0
  7  6  1  0
  8  7  1  0
  8  9  1  6
 10  8  1  0
 10 16  1  0
 11 10  2  0
 13 12  1  1
 13 14  1  0
 13 15  1  0
 15 17  1  0
 15 16  1  1
 17 18  2  0
 19 20  1  0
 20 30  2  0
 21 22  2  0
 21 20  1  0
 22 23  1  0
 23 24  1  0
 23 29  2  0
 25 24  1  1
 26 25  1  0
 26 17  1  0
 27 25  1  0
 28 27  1  0
 30 29  1  0
 31 27  2  0
M  END
$$$$
