RVY.pdb
     RDKit          3D

 31 31  0  0  1  0  0  0  0  0999 V2000
   20.8027  -27.7903  -18.0995 N   0  0  0  0  0  0  0  0  0  0  0  0
   21.8076  -28.7458  -17.7902 C   0  0  0  0  0  0  0  0  0  0  0  0
   21.9682  -29.7276  -18.5819 N   0  0  0  0  0  0  0  0  0  0  0  0
   22.6225  -28.6245  -16.6305 N   0  0  0  0  0  0  0  0  0  0  0  0
   22.3999  -27.5589  -15.6964 C   0  0  0  0  0  0  0  0  0  0  0  0
   21.8613  -28.0945  -14.3948 C   0  0  0  0  0  0  0  0  0  0  0  0
   21.5371  -26.9754  -13.4176 C   0  0  0  0  0  0  0  0  0  0  0  0
   20.1447  -27.2224  -12.8972 C   0  0  2  0  0  0  0  0  0  0  0  0
   19.2107  -26.9293  -13.9684 N   0  0  0  0  0  0  0  0  0  0  0  0
   19.8263  -26.2945  -11.7757 C   0  0  0  0  0  0  0  0  0  0  0  0
   20.5607  -26.3490  -10.7559 O   0  0  0  0  0  0  0  0  0  0  0  0
   22.6559  -30.4998  -18.4438 C   0  0  0  0  0  0  0  0  0  0  0  0
   16.2503  -24.0614  -11.6655 C   0  0  2  0  0  0  0  0  0  0  0  0
   17.5022  -23.4674  -11.0924 C   0  0  0  0  0  0  0  0  0  0  0  0
   17.1893  -22.4556  -10.0421 C   0  0  1  0  0  0  0  0  0  0  0  0
   18.5326  -24.4885  -10.6888 N   0  0  0  0  0  0  0  0  0  0  0  0
   18.7487  -25.3753  -11.8208 C   0  0  0  0  0  0  0  0  0  0  0  0
   18.1238  -25.2173   -9.4885 O   0  0  0  0  0  0  0  0  0  0  0  0
   17.7554  -26.4415   -9.6130 O   0  0  0  0  0  0  0  0  0  0  0  0
   16.9886  -29.1723   -1.8677 C   0  0  0  0  0  0  0  0  0  0  0  0
   17.4419  -28.4022   -2.9376 C   0  0  0  0  0  0  0  0  0  0  0  0
   17.6013  -28.9674   -4.1758 C   0  0  0  0  0  0  0  0  0  0  0  0
   18.0480  -28.1968   -5.2182 C   0  0  0  0  0  0  0  0  0  0  0  0
   18.3511  -26.8556   -5.0815 C   0  0  0  0  0  0  0  0  0  0  0  0
   18.8277  -26.0712   -6.2440 C   0  0  1  0  0  0  0  0  0  0  0  0
   17.6402  -25.5487   -7.0366 N   0  0  0  0  0  0  0  0  0  0  0  0
   18.0772  -24.7472   -8.1621 C   0  0  0  0  0  0  0  0  0  0  0  0
   16.7780  -24.6966   -6.1908 O   0  0  0  0  0  0  0  0  0  0  0  0
   17.0867  -23.3733   -5.8772 C   0  0  0  0  0  0  0  0  0  0  0  0
   18.1929  -26.2911   -3.8492 C   0  0  0  0  0  0  0  0  0  0  0  0
   17.7409  -27.0573   -2.7808 O   0  0  0  0  0  0  0  0  0  0  0  0
  1  2  1  0
  2  4  1  0
  2  3  2  0
  4  5  1  0
  6  5  1  0
  7  6  1  0
  8  7  1  0
  8  9  1  6
 10  8  1  0
 10 16  1  0
 11 10  2  0
 13 12  1  6
 13 14  1  0
 13 15  1  0
 15 17  1  0
 15 16  1  6
 17 18  2  0
 19 20  1  0
 20 30  2  0
 21 22  2  0
 21 20  1  0
 22 23  1  0
 23 24  1  0
 23 29  2  0
 25 24  1  6
 26 25  1  0
 26 17  1  0
 27 25  1  0
 28 27  1  0
 30 29  1  0
 31 27  2  0
M  END
$$$$
