RVY.pdb
     RDKit          3D

 31 31  0  0  1  0  0  0  0  0999 V2000
   21.2513  -20.2825  -18.1866 N   0  0  0  0  0  0  0  0  0  0  0  0
   21.8232  -19.3038  -17.3302 C   0  0  0  0  0  0  0  0  0  0  0  0
   21.0468  -18.4688  -16.7680 N   0  0  0  0  0  0  0  0  0  0  0  0
   23.2250  -19.2437  -17.0955 N   0  0  0  0  0  0  0  0  0  0  0  0
   24.0979  -20.2307  -17.6624 C   0  0  0  0  0  0  0  0  0  0  0  0
   24.9168  -20.8988  -16.5881 C   0  0  0  0  0  0  0  0  0  0  0  0
   25.6494  -19.8827  -15.7261 C   0  0  0  0  0  0  0  0  0  0  0  0
   26.5112  -20.6521  -14.7586 C   0  0  2  0  0  0  0  0  0  0  0  0
   27.2508  -21.6459  -15.5144 N   0  0  0  0  0  0  0  0  0  0  0  0
   25.6719  -21.3901  -13.7733 C   0  0  0  0  0  0  0  0  0  0  0  0
   25.4382  -22.6034  -14.0093 O   0  0  0  0  0  0  0  0  0  0  0  0
   21.3573  -17.6813  -16.1582 C   0  0  0  0  0  0  0  0  0  0  0  0
   26.1527  -21.2274   -9.9091 C   0  0  2  0  0  0  0  0  0  0  0  0
   24.7038  -21.1146  -10.2789 C   0  0  0  0  0  0  0  0  0  0  0  0
   24.1684  -19.7592   -9.9613 C   0  0  2  0  0  0  0  0  0  0  0  0
   24.3895  -21.6004  -11.6690 N   0  0  0  0  0  0  0  0  0  0  0  0
   25.1419  -20.7832  -12.6076 C   0  0  0  0  0  0  0  0  0  0  0  0
   22.9522  -21.5650  -11.9372 O   0  0  0  0  0  0  0  0  0  0  0  0
   22.4881  -20.6060  -12.6546 O   0  0  0  0  0  0  0  0  0  0  0  0
   14.3928  -23.2912  -13.0458 C   0  0  0  0  0  0  0  0  0  0  0  0
   15.7672  -23.3979  -12.8394 C   0  0  0  0  0  0  0  0  0  0  0  0
   16.2577  -23.6757  -11.5902 C   0  0  0  0  0  0  0  0  0  0  0  0
   17.6121  -23.7775  -11.4031 C   0  0  0  0  0  0  0  0  0  0  0  0
   18.5240  -23.6113  -12.4278 C   0  0  0  0  0  0  0  0  0  0  0  0
   19.9769  -23.7353  -12.1677 C   0  0  1  0  0  0  0  0  0  0  0  0
   20.5642  -22.3685  -11.8540 N   0  0  0  0  0  0  0  0  0  0  0  0
   21.9665  -22.4720  -11.5036 C   0  0  0  0  0  0  0  0  0  0  0  0
   19.8640  -21.7457  -10.7110 O   0  0  0  0  0  0  0  0  0  0  0  0
   18.8318  -20.8202  -10.8618 C   0  0  0  0  0  0  0  0  0  0  0  0
   18.0374  -23.3346  -13.6724 C   0  0  0  0  0  0  0  0  0  0  0  0
   16.6670  -23.2278  -13.8806 O   0  0  0  0  0  0  0  0  0  0  0  0
  1  2  1  0
  2  4  1  0
  2  3  2  0
  4  5  1  0
  6  5  1  0
  7  6  1  0
  8  7  1  0
  8  9  1  6
 10  8  1  0
 10 16  1  0
 11 10  2  0
 13 12  1  1
 13 14  1  0
 13 15  1  0
 15 17  1  0
 15 16  1  1
 17 18  2  0
 19 20  1  0
 20 30  2  0
 21 22  2  0
 21 20  1  0
 22 23  1  0
 23 24  1  0
 23 29  2  0
 25 24  1  6
 26 25  1  0
 26 17  1  0
 27 25  1  0
 28 27  1  0
 30 29  1  0
 31 27  2  0
M  END
$$$$
