RVY.pdb
     RDKit          3D

 31 31  0  0  1  0  0  0  0  0999 V2000
   24.2045  -29.2536  -16.9243 N   0  0  0  0  0  0  0  0  0  0  0  0
   25.5222  -28.7290  -17.0064 C   0  0  0  0  0  0  0  0  0  0  0  0
   26.4843  -29.5428  -17.1752 N   0  0  0  0  0  0  0  0  0  0  0  0
   25.7786  -27.3334  -16.9048 N   0  0  0  0  0  0  0  0  0  0  0  0
   24.6932  -26.4047  -16.7749 C   0  0  0  0  0  0  0  0  0  0  0  0
   25.0485  -25.0787  -17.3967 C   0  0  0  0  0  0  0  0  0  0  0  0
   26.4965  -24.7010  -17.1264 C   0  0  0  0  0  0  0  0  0  0  0  0
   26.7282  -23.3429  -17.7367 C   0  0  2  0  0  0  0  0  0  0  0  0
   27.6581  -23.5031  -18.8392 N   0  0  0  0  0  0  0  0  0  0  0  0
   27.3706  -22.4240  -16.7553 C   0  0  0  0  0  0  0  0  0  0  0  0
   28.5925  -22.6006  -16.5142 O   0  0  0  0  0  0  0  0  0  0  0  0
   27.4900  -29.2734  -17.2405 C   0  0  0  0  0  0  0  0  0  0  0  0
   28.0488  -18.7864  -16.6716 C   0  0  2  0  0  0  0  0  0  0  0  0
   27.2475  -19.1533  -15.4584 C   0  0  0  0  0  0  0  0  0  0  0  0
   25.8528  -18.6331  -15.5536 C   0  0  2  0  0  0  0  0  0  0  0  0
   27.3473  -20.6067  -15.0779 N   0  0  0  0  0  0  0  0  0  0  0  0
   26.6656  -21.3832  -16.1011 C   0  0  0  0  0  0  0  0  0  0  0  0
   26.7986  -20.8509  -13.7444 O   0  0  0  0  0  0  0  0  0  0  0  0
   25.5384  -21.0731  -13.6337 O   0  0  0  0  0  0  0  0  0  0  0  0
   25.1977  -19.9655   -5.1416 C   0  0  0  0  0  0  0  0  0  0  0  0
   25.8436  -20.1652   -6.3607 C   0  0  0  0  0  0  0  0  0  0  0  0
   26.5989  -19.1641   -6.9133 C   0  0  0  0  0  0  0  0  0  0  0  0
   27.2281  -19.3757   -8.1130 C   0  0  0  0  0  0  0  0  0  0  0  0
   27.1379  -20.5680   -8.8056 C   0  0  0  0  0  0  0  0  0  0  0  0
   27.8418  -20.7412  -10.0972 C   0  0  1  0  0  0  0  0  0  0  0  0
   26.8294  -20.8733  -11.2237 N   0  0  0  0  0  0  0  0  0  0  0  0
   27.4856  -20.8796  -12.5157 C   0  0  0  0  0  0  0  0  0  0  0  0
   25.8796  -19.7408  -11.2118 O   0  0  0  0  0  0  0  0  0  0  0  0
   24.5844  -19.8375  -10.7038 C   0  0  0  0  0  0  0  0  0  0  0  0
   26.3862  -21.5660   -8.2567 C   0  0  0  0  0  0  0  0  0  0  0  0
   25.7411  -21.3690   -7.0410 O   0  0  0  0  0  0  0  0  0  0  0  0
  1  2  1  0
  2  4  1  0
  2  3  2  0
  4  5  1  0
  6  5  1  0
  7  6  1  0
  8  7  1  0
  8  9  1  6
 10  8  1  0
 10 16  1  0
 11 10  2  0
 13 12  1  1
 13 14  1  0
 13 15  1  0
 15 17  1  0
 15 16  1  1
 17 18  2  0
 19 20  1  0
 20 30  2  0
 21 22  2  0
 21 20  1  0
 22 23  1  0
 23 24  1  0
 23 29  2  0
 25 24  1  1
 26 25  1  0
 26 17  1  0
 27 25  1  0
 28 27  1  0
 30 29  1  0
 31 27  2  0
M  END
$$$$
