RVY.pdb
     RDKit          3D

 31 31  0  0  1  0  0  0  0  0999 V2000
   18.6455  -17.7657  -14.9111 N   0  0  0  0  0  0  0  0  0  0  0  0
   18.9090  -17.3790  -16.2525 C   0  0  0  0  0  0  0  0  0  0  0  0
   18.7466  -16.1586  -16.5696 N   0  0  0  0  0  0  0  0  0  0  0  0
   19.3436  -18.3176  -17.2291 N   0  0  0  0  0  0  0  0  0  0  0  0
   19.8944  -19.5795  -16.8270 C   0  0  0  0  0  0  0  0  0  0  0  0
   21.1885  -19.3830  -16.0801 C   0  0  0  0  0  0  0  0  0  0  0  0
   21.8996  -20.7037  -15.8304 C   0  0  0  0  0  0  0  0  0  0  0  0
   23.1452  -20.7109  -16.6784 C   0  0  2  0  0  0  0  0  0  0  0  0
   23.0446  -21.8209  -17.6076 N   0  0  0  0  0  0  0  0  0  0  0  0
   24.3541  -20.9518  -15.8414 C   0  0  0  0  0  0  0  0  0  0  0  0
   24.5551  -22.1282  -15.4438 O   0  0  0  0  0  0  0  0  0  0  0  0
   18.9818  -15.7466  -17.4988 C   0  0  0  0  0  0  0  0  0  0  0  0
   28.6933  -19.4603  -14.0336 C   0  0  1  0  0  0  0  0  0  0  0  0
   27.5414  -19.3916  -14.9914 C   0  0  0  0  0  0  0  0  0  0  0  0
   27.9941  -19.5974  -16.3976 C   0  0  1  0  0  0  0  0  0  0  0  0
   26.3600  -20.2325  -14.5861 N   0  0  0  0  0  0  0  0  0  0  0  0
   25.2621  -19.9228  -15.4880 C   0  0  0  0  0  0  0  0  0  0  0  0
   26.0007  -20.0130  -13.1855 O   0  0  0  0  0  0  0  0  0  0  0  0
   25.5649  -18.8550  -12.8409 O   0  0  0  0  0  0  0  0  0  0  0  0
   19.7587  -19.7406  -12.3485 C   0  0  0  0  0  0  0  0  0  0  0  0
   20.9737  -20.1434  -11.7966 C   0  0  0  0  0  0  0  0  0  0  0  0
   21.7762  -21.0290  -12.4671 C   0  0  0  0  0  0  0  0  0  0  0  0
   22.9684  -21.4156  -11.9112 C   0  0  0  0  0  0  0  0  0  0  0  0
   23.4099  -20.9496  -10.6876 C   0  0  0  0  0  0  0  0  0  0  0  0
   24.7088  -21.4001  -10.1366 C   0  0  2  0  0  0  0  0  0  0  0  0
   25.8375  -20.5746  -10.7333 N   0  0  0  0  0  0  0  0  0  0  0  0
   26.0666  -20.9302  -12.1193 C   0  0  0  0  0  0  0  0  0  0  0  0
   27.1002  -20.8035   -9.9999 O   0  0  0  0  0  0  0  0  0  0  0  0
   27.2915  -20.4193   -8.6730 C   0  0  0  0  0  0  0  0  0  0  0  0
   22.6120  -20.0675  -10.0184 C   0  0  0  0  0  0  0  0  0  0  0  0
   21.3998  -19.6645  -10.5670 O   0  0  0  0  0  0  0  0  0  0  0  0
  1  2  1  0
  2  4  1  0
  2  3  2  0
  4  5  1  0
  6  5  1  0
  7  6  1  0
  8  7  1  0
  8  9  1  6
 10  8  1  0
 10 16  1  0
 11 10  2  0
 13 12  1  6
 13 14  1  0
 13 15  1  0
 15 17  1  0
 15 16  1  6
 17 18  2  0
 19 20  1  0
 20 30  2  0
 21 22  2  0
 21 20  1  0
 22 23  1  0
 23 24  1  0
 23 29  2  0
 25 24  1  6
 26 25  1  0
 26 17  1  0
 27 25  1  0
 28 27  1  0
 30 29  1  0
 31 27  2  0
M  END
$$$$
