RVY.pdb
     RDKit          3D

 31 31  0  0  1  0  0  0  0  0999 V2000
   27.3362  -26.1412  -15.8672 N   0  0  0  0  0  0  0  0  0  0  0  0
   28.0290  -25.8762  -17.0788 C   0  0  0  0  0  0  0  0  0  0  0  0
   28.1443  -26.8187  -17.9243 N   0  0  0  0  0  0  0  0  0  0  0  0
   28.5857  -24.5970  -17.3570 N   0  0  0  0  0  0  0  0  0  0  0  0
   28.1014  -23.4318  -16.6749 C   0  0  0  0  0  0  0  0  0  0  0  0
   26.8191  -22.9434  -17.2981 C   0  0  0  0  0  0  0  0  0  0  0  0
   26.2786  -21.7152  -16.5829 C   0  0  0  0  0  0  0  0  0  0  0  0
   26.4374  -20.5443  -17.5180 C   0  0  2  0  0  0  0  0  0  0  0  0
   27.7556  -19.9773  -17.3016 N   0  0  0  0  0  0  0  0  0  0  0  0
   25.4471  -19.4767  -17.2026 C   0  0  0  0  0  0  0  0  0  0  0  0
   25.8171  -18.5576  -16.4275 O   0  0  0  0  0  0  0  0  0  0  0  0
   28.6362  -26.7418  -18.8411 C   0  0  0  0  0  0  0  0  0  0  0  0
   21.5375  -16.8752  -18.5141 C   0  0  1  0  0  0  0  0  0  0  0  0
   22.6815  -17.8266  -18.7007 C   0  0  0  0  0  0  0  0  0  0  0  0
   23.6940  -17.2760  -19.6476 C   0  0  1  0  0  0  0  0  0  0  0  0
   23.2537  -18.3532  -17.4113 N   0  0  0  0  0  0  0  0  0  0  0  0
   24.1339  -19.4645  -17.7352 C   0  0  0  0  0  0  0  0  0  0  0  0
   22.1988  -18.7408  -16.4754 O   0  0  0  0  0  0  0  0  0  0  0  0
   21.5010  -19.7861  -16.7402 O   0  0  0  0  0  0  0  0  0  0  0  0
   16.1603  -19.2696  -10.0831 C   0  0  0  0  0  0  0  0  0  0  0  0
   17.2881  -18.9184  -10.8233 C   0  0  0  0  0  0  0  0  0  0  0  0
   17.2575  -17.8267  -11.6510 C   0  0  0  0  0  0  0  0  0  0  0  0
   18.3749  -17.4940  -12.3726 C   0  0  0  0  0  0  0  0  0  0  0  0
   19.5511  -18.2161  -12.3067 C   0  0  0  0  0  0  0  0  0  0  0  0
   20.7285  -17.8084  -13.1075 C   0  0  1  0  0  0  0  0  0  0  0  0
   20.7206  -18.5333  -14.4439 N   0  0  0  0  0  0  0  0  0  0  0  0
   21.8271  -18.1046  -15.2756 C   0  0  0  0  0  0  0  0  0  0  0  0
   19.4722  -18.2552  -15.1849 O   0  0  0  0  0  0  0  0  0  0  0  0
   18.3781  -19.1199  -15.1869 C   0  0  0  0  0  0  0  0  0  0  0  0
   19.5833  -19.3036  -11.4829 C   0  0  0  0  0  0  0  0  0  0  0  0
   18.4597  -19.6557  -10.7438 O   0  0  0  0  0  0  0  0  0  0  0  0
  1  2  1  0
  2  4  1  0
  2  3  2  0
  4  5  1  0
  6  5  1  0
  7  6  1  0
  8  7  1  0
  8  9  1  1
 10  8  1  0
 10 16  1  0
 11 10  2  0
 13 12  1  6
 13 14  1  0
 13 15  1  0
 15 17  1  0
 15 16  1  6
 17 18  2  0
 19 20  1  0
 20 30  2  0
 21 22  2  0
 21 20  1  0
 22 23  1  0
 23 24  1  0
 23 29  2  0
 25 24  1  1
 26 25  1  0
 26 17  1  0
 27 25  1  0
 28 27  1  0
 30 29  1  0
 31 27  2  0
M  END
$$$$
