RVY.pdb
     RDKit          3D

 31 31  0  0  1  0  0  0  0  0999 V2000
   19.9615  -26.7774  -16.5236 N   0  0  0  0  0  0  0  0  0  0  0  0
   19.6202  -25.4645  -16.9457 C   0  0  0  0  0  0  0  0  0  0  0  0
   18.6391  -25.3246  -17.7420 N   0  0  0  0  0  0  0  0  0  0  0  0
   20.3450  -24.3243  -16.5001 N   0  0  0  0  0  0  0  0  0  0  0  0
   21.7515  -24.4177  -16.2348 C   0  0  0  0  0  0  0  0  0  0  0  0
   21.9980  -24.9069  -14.8308 C   0  0  0  0  0  0  0  0  0  0  0  0
   23.0164  -24.0421  -14.1048 C   0  0  0  0  0  0  0  0  0  0  0  0
   24.1243  -23.7378  -15.0798 C   0  0  2  0  0  0  0  0  0  0  0  0
   24.6186  -24.9992  -15.5997 N   0  0  0  0  0  0  0  0  0  0  0  0
   25.2667  -23.0725  -14.3925 C   0  0  0  0  0  0  0  0  0  0  0  0
   25.9662  -23.7787  -13.6216 O   0  0  0  0  0  0  0  0  0  0  0  0
   18.2892  -24.4108  -18.1038 C   0  0  0  0  0  0  0  0  0  0  0  0
   25.6883  -18.8334  -14.1969 C   0  0  2  0  0  0  0  0  0  0  0  0
   26.8928  -19.7202  -14.3031 C   0  0  0  0  0  0  0  0  0  0  0  0
   28.1064  -19.0530  -13.7492 C   0  0  1  0  0  0  0  0  0  0  0  0
   26.6655  -21.1209  -13.7996 N   0  0  0  0  0  0  0  0  0  0  0  0
   25.5821  -21.7031  -14.5755 C   0  0  0  0  0  0  0  0  0  0  0  0
   26.3848  -21.1359  -12.3644 O   0  0  0  0  0  0  0  0  0  0  0  0
   25.1820  -20.9099  -11.9748 O   0  0  0  0  0  0  0  0  0  0  0  0
   27.0627  -19.1669   -3.8567 C   0  0  0  0  0  0  0  0  0  0  0  0
   27.3562  -19.6054   -5.1469 C   0  0  0  0  0  0  0  0  0  0  0  0
   27.8341  -18.7255   -6.0826 C   0  0  0  0  0  0  0  0  0  0  0  0
   28.1180  -19.1719   -7.3475 C   0  0  0  0  0  0  0  0  0  0  0  0
   27.9439  -20.4872   -7.7338 C   0  0  0  0  0  0  0  0  0  0  0  0
   28.2701  -20.9138   -9.1142 C   0  0  1  0  0  0  0  0  0  0  0  0
   26.9911  -21.0851   -9.9179 N   0  0  0  0  0  0  0  0  0  0  0  0
   27.2837  -21.3747  -11.3073 C   0  0  0  0  0  0  0  0  0  0  0  0
   26.1785  -19.8509   -9.8815 O   0  0  0  0  0  0  0  0  0  0  0  0
   24.9939  -19.7393   -9.1542 C   0  0  0  0  0  0  0  0  0  0  0  0
   27.4682  -21.3648   -6.8034 C   0  0  0  0  0  0  0  0  0  0  0  0
   27.1749  -20.9296   -5.5160 O   0  0  0  0  0  0  0  0  0  0  0  0
  1  2  1  0
  2  4  1  0
  2  3  2  0
  4  5  1  0
  6  5  1  0
  7  6  1  0
  8  7  1  0
  8  9  1  1
 10  8  1  0
 10 16  1  0
 11 10  2  0
 13 12  1  6
 13 14  1  0
 13 15  1  0
 15 17  1  0
 15 16  1  6
 17 18  2  0
 19 20  1  0
 20 30  2  0
 21 22  2  0
 21 20  1  0
 22 23  1  0
 23 24  1  0
 23 29  2  0
 25 24  1  1
 26 25  1  0
 26 17  1  0
 27 25  1  0
 28 27  1  0
 30 29  1  0
 31 27  2  0
M  END
$$$$
