RVY.pdb
     RDKit          3D

 31 31  0  0  1  0  0  0  0  0999 V2000
   23.6009  -23.3775  -19.4313 N   0  0  0  0  0  0  0  0  0  0  0  0
   24.1147  -23.3121  -20.7542 C   0  0  0  0  0  0  0  0  0  0  0  0
   23.5188  -22.5675  -21.5949 N   0  0  0  0  0  0  0  0  0  0  0  0
   25.2642  -24.0525  -21.1469 N   0  0  0  0  0  0  0  0  0  0  0  0
   26.0322  -24.7704  -20.1710 C   0  0  0  0  0  0  0  0  0  0  0  0
   27.2798  -24.0073  -19.8074 C   0  0  0  0  0  0  0  0  0  0  0  0
   27.5190  -24.0035  -18.3057 C   0  0  0  0  0  0  0  0  0  0  0  0
   26.4329  -23.1674  -17.6796 C   0  0  2  0  0  0  0  0  0  0  0  0
   26.0952  -22.1068  -18.6106 N   0  0  0  0  0  0  0  0  0  0  0  0
   26.9205  -22.5135  -16.4328 C   0  0  0  0  0  0  0  0  0  0  0  0
   27.5182  -23.2390  -15.5969 O   0  0  0  0  0  0  0  0  0  0  0  0
   23.8090  -22.4373  -22.5885 C   0  0  0  0  0  0  0  0  0  0  0  0
   29.1517  -19.3972  -16.0143 C   0  0  2  0  0  0  0  0  0  0  0  0
   27.8942  -19.2725  -15.2070 C   0  0  0  0  0  0  0  0  0  0  0  0
   26.9873  -18.2336  -15.7754 C   0  0  2  0  0  0  0  0  0  0  0  0
   27.2269  -20.5891  -14.9097 N   0  0  0  0  0  0  0  0  0  0  0  0
   26.7366  -21.1340  -16.1657 C   0  0  0  0  0  0  0  0  0  0  0  0
   26.1599  -20.4384  -13.9210 O   0  0  0  0  0  0  0  0  0  0  0  0
   25.1565  -19.6920  -14.2140 O   0  0  0  0  0  0  0  0  0  0  0  0
   18.8285  -19.4451  -10.9924 C   0  0  0  0  0  0  0  0  0  0  0  0
   20.0744  -20.0359  -11.1969 C   0  0  0  0  0  0  0  0  0  0  0  0
   20.7393  -19.8516  -12.3810 C   0  0  0  0  0  0  0  0  0  0  0  0
   21.9639  -20.4393  -12.5671 C   0  0  0  0  0  0  0  0  0  0  0  0
   22.5728  -21.2219  -11.6047 C   0  0  0  0  0  0  0  0  0  0  0  0
   23.8990  -21.8301  -11.8601 C   0  0  2  0  0  0  0  0  0  0  0  0
   24.9865  -20.7776  -11.7157 N   0  0  0  0  0  0  0  0  0  0  0  0
   26.0737  -21.0214  -12.6423 C   0  0  0  0  0  0  0  0  0  0  0  0
   25.5530  -20.7915  -10.3505 O   0  0  0  0  0  0  0  0  0  0  0  0
   26.8103  -21.3158  -10.0522 C   0  0  0  0  0  0  0  0  0  0  0  0
   21.9122  -21.4065  -10.4250 C   0  0  0  0  0  0  0  0  0  0  0  0
   20.6695  -20.8182  -10.2188 O   0  0  0  0  0  0  0  0  0  0  0  0
  1  2  1  0
  2  4  1  0
  2  3  2  0
  4  5  1  0
  6  5  1  0
  7  6  1  0
  8  7  1  0
  8  9  1  6
 10  8  1  0
 10 16  1  0
 11 10  2  0
 13 12  1  1
 13 14  1  0
 13 15  1  0
 15 17  1  0
 15 16  1  1
 17 18  2  0
 19 20  1  0
 20 30  2  0
 21 22  2  0
 21 20  1  0
 22 23  1  0
 23 24  1  0
 23 29  2  0
 25 24  1  6
 26 25  1  0
 26 17  1  0
 27 25  1  0
 28 27  1  0
 30 29  1  0
 31 27  2  0
M  END
$$$$
