RVY.pdb
     RDKit          3D

 31 31  0  0  1  0  0  0  0  0999 V2000
   29.2014  -23.5937  -16.2610 N   0  0  0  0  0  0  0  0  0  0  0  0
   29.7164  -22.8018  -17.3221 C   0  0  0  0  0  0  0  0  0  0  0  0
   30.3396  -23.3879  -18.2625 N   0  0  0  0  0  0  0  0  0  0  0  0
   29.5494  -21.3893  -17.3494 N   0  0  0  0  0  0  0  0  0  0  0  0
   28.4134  -20.7814  -16.7189 C   0  0  0  0  0  0  0  0  0  0  0  0
   27.1501  -21.0966  -17.4777 C   0  0  0  0  0  0  0  0  0  0  0  0
   25.9304  -21.0817  -16.5697 C   0  0  0  0  0  0  0  0  0  0  0  0
   26.1188  -22.1713  -15.5460 C   0  0  2  0  0  0  0  0  0  0  0  0
   25.8519  -23.4420  -16.1942 N   0  0  0  0  0  0  0  0  0  0  0  0
   25.1330  -22.0325  -14.4375 C   0  0  0  0  0  0  0  0  0  0  0  0
   24.0372  -22.6376  -14.5610 O   0  0  0  0  0  0  0  0  0  0  0  0
   30.8362  -22.9044  -19.0422 C   0  0  0  0  0  0  0  0  0  0  0  0
   24.0173  -20.3840   -9.8888 C   0  0  2  0  0  0  0  0  0  0  0  0
   24.9918  -20.6930  -10.9858 C   0  0  0  0  0  0  0  0  0  0  0  0
   26.0893  -21.5791  -10.5008 C   0  0  1  0  0  0  0  0  0  0  0  0
   24.3442  -21.1454  -12.2677 N   0  0  0  0  0  0  0  0  0  0  0  0
   25.3850  -21.2591  -13.2770 C   0  0  0  0  0  0  0  0  0  0  0  0
   23.2756  -20.2354  -12.6788 O   0  0  0  0  0  0  0  0  0  0  0  0
   23.5563  -18.9908  -12.8269 O   0  0  0  0  0  0  0  0  0  0  0  0
   19.9056  -24.1416  -17.6005 C   0  0  0  0  0  0  0  0  0  0  0  0
   20.1482  -22.9541  -16.9121 C   0  0  0  0  0  0  0  0  0  0  0  0
   21.4110  -22.4227  -16.8770 C   0  0  0  0  0  0  0  0  0  0  0  0
   21.6338  -21.2539  -16.1957 C   0  0  0  0  0  0  0  0  0  0  0  0
   20.6324  -20.5723  -15.5308 C   0  0  0  0  0  0  0  0  0  0  0  0
   20.9309  -19.3117  -14.8129 C   0  0  1  0  0  0  0  0  0  0  0  0
   20.9313  -19.5589  -13.3128 N   0  0  0  0  0  0  0  0  0  0  0  0
   21.9286  -20.5448  -12.9476 C   0  0  0  0  0  0  0  0  0  0  0  0
   19.6177  -20.0664  -12.8638 O   0  0  0  0  0  0  0  0  0  0  0  0
   18.4458  -19.3134  -12.9316 C   0  0  0  0  0  0  0  0  0  0  0  0
   19.3744  -21.1000  -15.5648 C   0  0  0  0  0  0  0  0  0  0  0  0
   19.1301  -22.2843  -16.2508 O   0  0  0  0  0  0  0  0  0  0  0  0
  1  2  1  0
  2  4  1  0
  2  3  2  0
  4  5  1  0
  6  5  1  0
  7  6  1  0
  8  7  1  0
  8  9  1  6
 10  8  1  0
 10 16  1  0
 11 10  2  0
 13 12  1  1
 13 14  1  0
 13 15  1  0
 15 17  1  0
 15 16  1  6
 17 18  2  0
 19 20  1  0
 20 30  2  0
 21 22  2  0
 21 20  1  0
 22 23  1  0
 23 24  1  0
 23 29  2  0
 25 24  1  1
 26 25  1  0
 26 17  1  0
 27 25  1  0
 28 27  1  0
 30 29  1  0
 31 27  2  0
M  END
$$$$
