RVY.pdb
     RDKit          3D

 31 31  0  0  1  0  0  0  0  0999 V2000
   28.6441  -17.3729  -19.2056 N   0  0  0  0  0  0  0  0  0  0  0  0
   29.8719  -17.6018  -18.5286 C   0  0  0  0  0  0  0  0  0  0  0  0
   30.9473  -17.2152  -19.0859 N   0  0  0  0  0  0  0  0  0  0  0  0
   29.9175  -18.2447  -17.2604 N   0  0  0  0  0  0  0  0  0  0  0  0
   28.7162  -18.4330  -16.4996 C   0  0  0  0  0  0  0  0  0  0  0  0
   27.8241  -19.4552  -17.1556 C   0  0  0  0  0  0  0  0  0  0  0  0
   26.7214  -19.9228  -16.2189 C   0  0  0  0  0  0  0  0  0  0  0  0
   27.3813  -20.6450  -15.0728 C   0  0  2  0  0  0  0  0  0  0  0  0
   28.0436  -21.8195  -15.6090 N   0  0  0  0  0  0  0  0  0  0  0  0
   26.3653  -21.1263  -14.0950 C   0  0  0  0  0  0  0  0  0  0  0  0
   25.7020  -22.1481  -14.4085 O   0  0  0  0  0  0  0  0  0  0  0  0
   31.8998  -17.2998  -18.6690 C   0  0  0  0  0  0  0  0  0  0  0  0
   24.3585  -20.9613   -9.5740 C   0  0  1  0  0  0  0  0  0  0  0  0
   25.4297  -20.6316  -10.5701 C   0  0  0  0  0  0  0  0  0  0  0  0
   26.7609  -21.1297  -10.1177 C   0  0  1  0  0  0  0  0  0  0  0  0
   25.0764  -20.9936  -11.9883 N   0  0  0  0  0  0  0  0  0  0  0  0
   26.1287  -20.4850  -12.8536 C   0  0  0  0  0  0  0  0  0  0  0  0
   23.7596  -20.4779  -12.3612 O   0  0  0  0  0  0  0  0  0  0  0  0
   23.5645  -19.2093  -12.3138 O   0  0  0  0  0  0  0  0  0  0  0  0
   22.8604  -23.3463  -18.6544 C   0  0  0  0  0  0  0  0  0  0  0  0
   22.5038  -22.4876  -17.6159 C   0  0  0  0  0  0  0  0  0  0  0  0
   23.4233  -21.6143  -17.0964 C   0  0  0  0  0  0  0  0  0  0  0  0
   23.0574  -20.7758  -16.0750 C   0  0  0  0  0  0  0  0  0  0  0  0
   21.7863  -20.7664  -15.5332 C   0  0  0  0  0  0  0  0  0  0  0  0
   21.4465  -19.8363  -14.4317 C   0  0  1  0  0  0  0  0  0  0  0  0
   21.3585  -20.5993  -13.1197 N   0  0  0  0  0  0  0  0  0  0  0  0
   22.6309  -21.2060  -12.7836 C   0  0  0  0  0  0  0  0  0  0  0  0
   20.3576  -21.6833  -13.2086 O   0  0  0  0  0  0  0  0  0  0  0  0
   19.0009  -21.4516  -13.4333 C   0  0  0  0  0  0  0  0  0  0  0  0
   20.8694  -21.6354  -16.0493 C   0  0  0  0  0  0  0  0  0  0  0  0
   21.2228  -22.4928  -17.0850 O   0  0  0  0  0  0  0  0  0  0  0  0
  1  2  1  0
  2  4  1  0
  2  3  2  0
  4  5  1  0
  6  5  1  0
  7  6  1  0
  8  7  1  0
  8  9  1  6
 10  8  1  0
 10 16  1  0
 11 10  2  0
 13 12  1  1
 13 14  1  0
 13 15  1  0
 15 17  1  0
 15 16  1  1
 17 18  2  0
 19 20  1  0
 20 30  2  0
 21 22  2  0
 21 20  1  0
 22 23  1  0
 23 24  1  0
 23 29  2  0
 25 24  1  1
 26 25  1  0
 26 17  1  0
 27 25  1  0
 28 27  1  0
 30 29  1  0
 31 27  2  0
M  END
$$$$
