RVY.pdb
     RDKit          3D

 31 31  0  0  1  0  0  0  0  0999 V2000
   19.2861  -13.1126  -17.0190 N   0  0  0  0  0  0  0  0  0  0  0  0
   20.2668  -12.6958  -17.9586 C   0  0  0  0  0  0  0  0  0  0  0  0
   20.4372  -11.4486  -18.1369 N   0  0  0  0  0  0  0  0  0  0  0  0
   21.0472  -13.6337  -18.6901 N   0  0  0  0  0  0  0  0  0  0  0  0
   20.8097  -15.0412  -18.5484 C   0  0  0  0  0  0  0  0  0  0  0  0
   20.9594  -15.4652  -17.1100 C   0  0  0  0  0  0  0  0  0  0  0  0
   21.7111  -16.7813  -16.9872 C   0  0  0  0  0  0  0  0  0  0  0  0
   22.8447  -16.7458  -17.9794 C   0  0  2  0  0  0  0  0  0  0  0  0
   22.3143  -17.1274  -19.2751 N   0  0  0  0  0  0  0  0  0  0  0  0
   23.8901  -17.7465  -17.6249 C   0  0  0  0  0  0  0  0  0  0  0  0
   23.6478  -18.9520  -17.8899 O   0  0  0  0  0  0  0  0  0  0  0  0
   21.1500  -11.0280  -18.7721 C   0  0  0  0  0  0  0  0  0  0  0  0
   28.5414  -18.8325  -16.4831 C   0  0  1  0  0  0  0  0  0  0  0  0
   27.4418  -17.9625  -17.0147 C   0  0  0  0  0  0  0  0  0  0  0  0
   27.6420  -17.6613  -18.4617 C   0  0  1  0  0  0  0  0  0  0  0  0
   26.0591  -18.4433  -16.6623 N   0  0  0  0  0  0  0  0  0  0  0  0
   25.1184  -17.3915  -17.0138 C   0  0  0  0  0  0  0  0  0  0  0  0
   25.9648  -18.8175  -15.2516 O   0  0  0  0  0  0  0  0  0  0  0  0
   25.7961  -17.8869  -14.3826 O   0  0  0  0  0  0  0  0  0  0  0  0
   23.9968  -21.3139   -7.2749 C   0  0  0  0  0  0  0  0  0  0  0  0
   24.1612  -20.9416   -8.6081 C   0  0  0  0  0  0  0  0  0  0  0  0
   23.1957  -21.2435   -9.5327 C   0  0  0  0  0  0  0  0  0  0  0  0
   23.3718  -20.8707  -10.8403 C   0  0  0  0  0  0  0  0  0  0  0  0
   24.4930  -20.1940  -11.2813 C   0  0  0  0  0  0  0  0  0  0  0  0
   24.6285  -19.8138  -12.7064 C   0  0  1  0  0  0  0  0  0  0  0  0
   25.9238  -20.3756  -13.2701 N   0  0  0  0  0  0  0  0  0  0  0  0
   26.0339  -20.1068  -14.6899 C   0  0  0  0  0  0  0  0  0  0  0  0
   25.9839  -21.8412  -13.0881 O   0  0  0  0  0  0  0  0  0  0  0  0
   25.4437  -22.7456  -14.0020 C   0  0  0  0  0  0  0  0  0  0  0  0
   25.4554  -19.8924  -10.3620 C   0  0  0  0  0  0  0  0  0  0  0  0
   25.2936  -20.2628   -9.0317 O   0  0  0  0  0  0  0  0  0  0  0  0
  1  2  1  0
  2  4  1  0
  2  3  2  0
  4  5  1  0
  6  5  1  0
  7  6  1  0
  8  7  1  0
  8  9  1  6
 10  8  1  0
 10 16  1  0
 11 10  2  0
 13 12  1  1
 13 14  1  0
 13 15  1  0
 15 17  1  0
 15 16  1  1
 17 18  2  0
 19 20  1  0
 20 30  2  0
 21 22  2  0
 21 20  1  0
 22 23  1  0
 23 24  1  0
 23 29  2  0
 25 24  1  1
 26 25  1  0
 26 17  1  0
 27 25  1  0
 28 27  1  0
 30 29  1  0
 31 27  2  0
M  END
$$$$
