KYW.pdb
     RDKit          3D

 36 38  0  0  1  0  0  0  0  0999 V2000
    8.0886  -16.1442   19.0919 N   0  0  0  0  0  0  0  0  0  0  0  0
    8.2641  -15.1190   20.0562 C   0  0  1  0  0  0  0  0  0  0  0  0
    7.1660  -14.0551   19.8265 C   0  0  0  0  0  0  0  0  0  0  0  0
    7.6159  -13.2332   18.6858 C   0  0  0  0  0  0  0  0  0  0  0  0
    7.7519  -13.8648   17.3555 C   0  0  0  0  0  0  0  0  0  0  0  0
    8.2111  -12.8979   16.3106 C   0  0  0  0  0  0  0  0  0  0  0  0
    8.3114  -13.5319   15.0451 N   0  0  0  0  0  0  0  0  0  0  0  0
    8.1497  -15.5495   21.4692 C   0  0  0  0  0  0  0  0  0  0  0  0
    8.2911  -14.6919   22.4105 O   0  0  0  0  0  0  0  0  0  0  0  0
    7.8405  -20.7370   28.6893 O   0  0  0  0  0  0  0  0  0  0  0  0
    7.6833  -20.2036   27.4212 C   0  0  0  0  0  0  0  0  0  0  0  0
    8.5537  -20.5232   26.4193 C   0  0  0  0  0  0  0  0  0  0  0  0
    8.4019  -19.9954   25.1559 C   0  0  0  0  0  0  0  0  0  0  0  0
    7.3831  -19.1392   24.8590 C   0  0  0  0  0  0  0  0  0  0  0  0
    7.1541  -18.5453   23.5483 C   0  0  0  0  0  0  0  0  0  0  0  0
    7.8420  -17.2374   23.2898 C   0  0  2  0  0  0  0  0  0  0  0  0
    7.8874  -16.8792   21.8896 N   0  0  0  0  0  0  0  0  0  0  0  0
    9.1522  -17.0744   23.9525 C   0  0  0  0  0  0  0  0  0  0  0  0
   10.1635  -17.6056   23.4384 O   0  0  0  0  0  0  0  0  0  0  0  0
    6.5082  -18.8312   25.9069 C   0  0  0  0  0  0  0  0  0  0  0  0
    6.6493  -19.3498   27.1668 C   0  0  0  0  0  0  0  0  0  0  0  0
    9.3059  -16.3329   25.1656 N   0  0  0  0  0  0  0  0  0  0  0  0
   10.6085  -16.1182   25.7411 C   0  0  1  0  0  0  0  0  0  0  0  0
   10.7298  -14.6963   26.2342 C   0  0  0  0  0  0  0  0  0  0  0  0
    9.4993  -14.2064   26.8644 C   0  0  0  0  0  0  0  0  0  0  0  0
    9.1303  -14.4403   28.1701 C   0  0  0  0  0  0  0  0  0  0  0  0
    7.9494  -13.8400   28.3928 N   0  0  0  0  0  0  0  0  0  0  0  0
    7.5566  -13.2309   27.2659 C   0  0  0  0  0  0  0  0  0  0  0  0
    6.4352  -12.4843   26.9589 C   0  0  0  0  0  0  0  0  0  0  0  0
    6.2479  -11.9483   25.7008 C   0  0  0  0  0  0  0  0  0  0  0  0
    7.2004  -12.1600   24.7221 C   0  0  0  0  0  0  0  0  0  0  0  0
    8.3213  -12.9034   25.0205 C   0  0  0  0  0  0  0  0  0  0  0  0
    8.5083  -13.4430   26.2897 C   0  0  0  0  0  0  0  0  0  0  0  0
   10.9002  -17.1167   26.7693 C   0  0  0  0  0  0  0  0  0  0  0  0
   12.1763  -17.2317   27.2778 O   0  0  0  0  0  0  0  0  0  0  0  0
   10.0323  -17.9014   27.2340 O   0  0  0  0  0  0  0  0  0  0  0  0
  2  3  1  0
  2  1  1  6
  4  3  1  0
  5  4  1  0
  5  6  1  0
  6  7  1  0
  8  2  1  0
  8 17  1  0
  9  8  2  0
 10 11  1  0
 11 21  2  0
 12 11  1  0
 12 13  2  0
 13 14  1  0
 14 20  2  0
 14 15  1  0
 16 15  1  6
 16 17  1  0
 18 16  1  0
 19 18  2  0
 21 20  1  0
 22 18  1  0
 23 34  1  0
 23 22  1  0
 23 24  1  1
 25 24  1  0
 26 25  2  0
 27 26  1  0
 28 27  1  0
 28 33  2  0
 29 28  1  0
 30 29  2  0
 30 31  1  0
 31 32  2  0
 32 33  1  0
 33 25  1  0
 34 35  1  0
 36 34  2  0
M  END
$$$$
