KYW.pdb
     RDKit          3D

 36 38  0  0  1  0  0  0  0  0999 V2000
    9.2779  -18.8626   18.9237 N   0  0  0  0  0  0  0  0  0  0  0  0
    8.8608  -18.6343   20.2601 C   0  0  1  0  0  0  0  0  0  0  0  0
    9.4787  -19.7390   21.1479 C   0  0  0  0  0  0  0  0  0  0  0  0
    8.7782  -20.9912   20.8009 C   0  0  0  0  0  0  0  0  0  0  0  0
    8.5199  -21.9873   21.8631 C   0  0  0  0  0  0  0  0  0  0  0  0
    7.9657  -23.2666   21.3212 C   0  0  0  0  0  0  0  0  0  0  0  0
    7.8459  -24.2397   22.3470 N   0  0  0  0  0  0  0  0  0  0  0  0
    9.2778  -17.3378   20.8432 C   0  0  0  0  0  0  0  0  0  0  0  0
   10.4287  -16.8516   20.5592 O   0  0  0  0  0  0  0  0  0  0  0  0
    7.2355  -12.9199   16.5840 O   0  0  0  0  0  0  0  0  0  0  0  0
    7.4379  -13.2288   17.9185 C   0  0  0  0  0  0  0  0  0  0  0  0
    6.7291  -14.2311   18.5157 C   0  0  0  0  0  0  0  0  0  0  0  0
    6.9264  -14.5426   19.8430 C   0  0  0  0  0  0  0  0  0  0  0  0
    7.8315  -13.8666   20.6067 C   0  0  0  0  0  0  0  0  0  0  0  0
    8.0997  -14.1408   22.0124 C   0  0  0  0  0  0  0  0  0  0  0  0
    8.9787  -15.3230   22.2956 C   0  0  2  0  0  0  0  0  0  0  0  0
    8.4853  -16.5558   21.7230 N   0  0  0  0  0  0  0  0  0  0  0  0
    9.3812  -15.4831   23.7079 C   0  0  0  0  0  0  0  0  0  0  0  0
    9.9848  -14.5450   24.2779 O   0  0  0  0  0  0  0  0  0  0  0  0
    8.5418  -12.8453   19.9659 C   0  0  0  0  0  0  0  0  0  0  0  0
    8.3539  -12.5267   18.6470 C   0  0  0  0  0  0  0  0  0  0  0  0
    9.1086  -16.6761   24.4478 N   0  0  0  0  0  0  0  0  0  0  0  0
    9.5428  -16.8146   25.8140 C   0  0  1  0  0  0  0  0  0  0  0  0
    8.3475  -16.9334   26.7286 C   0  0  0  0  0  0  0  0  0  0  0  0
    7.3612  -15.8688   26.5163 C   0  0  0  0  0  0  0  0  0  0  0  0
    6.1097  -16.0453   25.9701 C   0  0  0  0  0  0  0  0  0  0  0  0
    5.4904  -14.8540   25.9311 N   0  0  0  0  0  0  0  0  0  0  0  0
    6.3122  -13.9245   26.4371 C   0  0  0  0  0  0  0  0  0  0  0  0
    6.1677  -12.5631   26.6239 C   0  0  0  0  0  0  0  0  0  0  0  0
    7.1765  -11.8000   27.1763 C   0  0  0  0  0  0  0  0  0  0  0  0
    8.3600  -12.4062   27.5530 C   0  0  0  0  0  0  0  0  0  0  0  0
    8.5116  -13.7631   27.3699 C   0  0  0  0  0  0  0  0  0  0  0  0
    7.4932  -14.5309   26.8127 C   0  0  0  0  0  0  0  0  0  0  0  0
   10.4937  -17.9170   25.9543 C   0  0  0  0  0  0  0  0  0  0  0  0
   10.7637  -18.7370   24.8796 O   0  0  0  0  0  0  0  0  0  0  0  0
   11.1005  -18.1715   27.0276 O   0  0  0  0  0  0  0  0  0  0  0  0
  2  3  1  0
  2  1  1  6
  4  3  1  0
  5  4  1  0
  5  6  1  0
  6  7  1  0
  8  2  1  0
  8 17  1  0
  9  8  2  0
 10 11  1  0
 11 21  2  0
 12 11  1  0
 12 13  2  0
 13 14  1  0
 14 20  2  0
 14 15  1  0
 16 15  1  1
 16 17  1  0
 18 16  1  0
 19 18  2  0
 21 20  1  0
 22 18  1  0
 23 34  1  0
 23 22  1  0
 23 24  1  1
 25 24  1  0
 26 25  2  0
 27 26  1  0
 28 27  1  0
 28 33  2  0
 29 28  1  0
 30 29  2  0
 30 31  1  0
 31 32  2  0
 32 33  1  0
 33 25  1  0
 34 35  1  0
 36 34  2  0
M  END
$$$$
