KYW.pdb
     RDKit          3D

 36 38  0  0  1  0  0  0  0  0999 V2000
   11.3336  -16.6994   17.4861 N   0  0  0  0  0  0  0  0  0  0  0  0
   11.5065  -17.2817   18.7678 C   0  0  1  0  0  0  0  0  0  0  0  0
   13.0173  -17.5352   18.9767 C   0  0  0  0  0  0  0  0  0  0  0  0
   13.4431  -18.4322   17.8844 C   0  0  0  0  0  0  0  0  0  0  0  0
   14.8075  -19.0018   17.9139 C   0  0  0  0  0  0  0  0  0  0  0  0
   15.0768  -19.8953   16.7450 C   0  0  0  0  0  0  0  0  0  0  0  0
   16.3977  -20.4112   16.7973 N   0  0  0  0  0  0  0  0  0  0  0  0
   11.0530  -16.4527   19.9088 C   0  0  0  0  0  0  0  0  0  0  0  0
   11.5899  -15.3085   20.1188 O   0  0  0  0  0  0  0  0  0  0  0  0
    7.1824  -12.8105   16.7833 O   0  0  0  0  0  0  0  0  0  0  0  0
    7.4194  -13.4711   17.9769 C   0  0  0  0  0  0  0  0  0  0  0  0
    7.1123  -14.7943   18.1126 C   0  0  0  0  0  0  0  0  0  0  0  0
    7.3460  -15.4563   19.2979 C   0  0  0  0  0  0  0  0  0  0  0  0
    7.8896  -14.8200   20.3743 C   0  0  0  0  0  0  0  0  0  0  0  0
    8.1708  -15.4523   21.6566 C   0  0  0  0  0  0  0  0  0  0  0  0
    9.5791  -15.9272   21.8607 C   0  0  2  0  0  0  0  0  0  0  0  0
   10.0373  -16.8275   20.8261 N   0  0  0  0  0  0  0  0  0  0  0  0
    9.8826  -16.4305   23.2160 C   0  0  0  0  0  0  0  0  0  0  0  0
   10.2891  -17.6078   23.3503 O   0  0  0  0  0  0  0  0  0  0  0  0
    8.1931  -13.4646   20.2038 C   0  0  0  0  0  0  0  0  0  0  0  0
    7.9651  -12.7961   19.0302 C   0  0  0  0  0  0  0  0  0  0  0  0
    9.7244  -15.6198   24.3834 N   0  0  0  0  0  0  0  0  0  0  0  0
   10.0507  -16.1321   25.6893 C   0  0  1  0  0  0  0  0  0  0  0  0
    9.7112  -15.1098   26.7472 C   0  0  0  0  0  0  0  0  0  0  0  0
    8.3041  -14.6979   26.7089 C   0  0  0  0  0  0  0  0  0  0  0  0
    7.2336  -15.5484   26.5465 C   0  0  0  0  0  0  0  0  0  0  0  0
    6.1051  -14.8199   26.5611 N   0  0  0  0  0  0  0  0  0  0  0  0
    6.4272  -13.5301   26.7284 C   0  0  0  0  0  0  0  0  0  0  0  0
    5.6566  -12.3862   26.8122 C   0  0  0  0  0  0  0  0  0  0  0  0
    6.2289  -11.1427   26.9892 C   0  0  0  0  0  0  0  0  0  0  0  0
    7.6032  -11.0334   27.0853 C   0  0  0  0  0  0  0  0  0  0  0  0
    8.3783  -12.1693   27.0027 C   0  0  0  0  0  0  0  0  0  0  0  0
    7.7993  -13.4223   26.8242 C   0  0  0  0  0  0  0  0  0  0  0  0
    9.4223  -17.4333   25.9158 C   0  0  0  0  0  0  0  0  0  0  0  0
    9.8643  -18.2448   26.9387 O   0  0  0  0  0  0  0  0  0  0  0  0
    8.4734  -17.8719   25.2143 O   0  0  0  0  0  0  0  0  0  0  0  0
  2  3  1  0
  2  1  1  6
  4  3  1  0
  5  4  1  0
  5  6  1  0
  6  7  1  0
  8  2  1  0
  8 17  1  0
  9  8  2  0
 10 11  1  0
 11 21  2  0
 12 11  1  0
 12 13  2  0
 13 14  1  0
 14 20  2  0
 14 15  1  0
 16 15  1  1
 16 17  1  0
 18 16  1  0
 19 18  2  0
 21 20  1  0
 22 18  1  0
 23 34  1  0
 23 22  1  0
 23 24  1  1
 25 24  1  0
 26 25  2  0
 27 26  1  0
 28 27  1  0
 28 33  2  0
 29 28  1  0
 30 29  2  0
 30 31  1  0
 31 32  2  0
 32 33  1  0
 33 25  1  0
 34 35  1  0
 36 34  2  0
M  END
$$$$
