KYW.pdb
     RDKit          3D

 36 38  0  0  1  0  0  0  0  0999 V2000
    7.6505  -21.5148   21.8740 N   0  0  0  0  0  0  0  0  0  0  0  0
    7.4214  -20.3952   22.7141 C   0  0  1  0  0  0  0  0  0  0  0  0
    8.1978  -20.6210   24.0320 C   0  0  0  0  0  0  0  0  0  0  0  0
    7.7404  -21.9187   24.5667 C   0  0  0  0  0  0  0  0  0  0  0  0
    8.3462  -22.4353   25.8129 C   0  0  0  0  0  0  0  0  0  0  0  0
    7.8876  -23.8218   26.1366 C   0  0  0  0  0  0  0  0  0  0  0  0
    8.4929  -24.2877   27.3325 N   0  0  0  0  0  0  0  0  0  0  0  0
    7.8726  -19.0920   22.1731 C   0  0  0  0  0  0  0  0  0  0  0  0
    8.9454  -19.0280   21.4755 O   0  0  0  0  0  0  0  0  0  0  0  0
    8.5264  -11.2801   18.3859 O   0  0  0  0  0  0  0  0  0  0  0  0
    8.0803  -12.3382   19.1595 C   0  0  0  0  0  0  0  0  0  0  0  0
    7.9160  -12.1939   20.5070 C   0  0  0  0  0  0  0  0  0  0  0  0
    7.4725  -13.2434   21.2815 C   0  0  0  0  0  0  0  0  0  0  0  0
    7.1823  -14.4588   20.7359 C   0  0  0  0  0  0  0  0  0  0  0  0
    6.7046  -15.6124   21.4870 C   0  0  0  0  0  0  0  0  0  0  0  0
    7.7489  -16.6087   21.8963 C   0  0  2  0  0  0  0  0  0  0  0  0
    7.1962  -17.8596   22.3664 N   0  0  0  0  0  0  0  0  0  0  0  0
    8.7978  -16.0864   22.7958 C   0  0  0  0  0  0  0  0  0  0  0  0
    9.4302  -15.0586   22.4598 O   0  0  0  0  0  0  0  0  0  0  0  0
    7.3609  -14.5749   19.3528 C   0  0  0  0  0  0  0  0  0  0  0  0
    7.8013  -13.5386   18.5729 C   0  0  0  0  0  0  0  0  0  0  0  0
    9.1198  -16.7170   24.0383 N   0  0  0  0  0  0  0  0  0  0  0  0
   10.0992  -16.1450   24.9259 C   0  0  1  0  0  0  0  0  0  0  0  0
    9.5219  -16.0047   26.3140 C   0  0  0  0  0  0  0  0  0  0  0  0
    8.1686  -15.4392   26.3123 C   0  0  0  0  0  0  0  0  0  0  0  0
    7.0047  -16.1695   26.2245 C   0  0  0  0  0  0  0  0  0  0  0  0
    5.9654  -15.3190   26.2524 N   0  0  0  0  0  0  0  0  0  0  0  0
    6.4349  -14.0683   26.3556 C   0  0  0  0  0  0  0  0  0  0  0  0
    5.7999  -12.8430   26.4225 C   0  0  0  0  0  0  0  0  0  0  0  0
    6.5131  -11.6659   26.5278 C   0  0  0  0  0  0  0  0  0  0  0  0
    7.8939  -11.7081   26.5676 C   0  0  0  0  0  0  0  0  0  0  0  0
    8.5344  -12.9260   26.5014 C   0  0  0  0  0  0  0  0  0  0  0  0
    7.8134  -14.1118   26.3953 C   0  0  0  0  0  0  0  0  0  0  0  0
   11.3485  -16.9048   24.8902 C   0  0  0  0  0  0  0  0  0  0  0  0
   12.4575  -16.4421   25.5657 O   0  0  0  0  0  0  0  0  0  0  0  0
   11.4785  -17.9884   24.2628 O   0  0  0  0  0  0  0  0  0  0  0  0
  2  3  1  0
  2  1  1  6
  4  3  1  0
  5  4  1  0
  5  6  1  0
  6  7  1  0
  8  2  1  0
  8 17  1  0
  9  8  2  0
 10 11  1  0
 11 21  2  0
 12 11  1  0
 12 13  2  0
 13 14  1  0
 14 20  2  0
 14 15  1  0
 16 15  1  1
 16 17  1  0
 18 16  1  0
 19 18  2  0
 21 20  1  0
 22 18  1  0
 23 34  1  0
 23 22  1  0
 23 24  1  1
 25 24  1  0
 26 25  2  0
 27 26  1  0
 28 27  1  0
 28 33  2  0
 29 28  1  0
 30 29  2  0
 30 31  1  0
 31 32  2  0
 32 33  1  0
 33 25  1  0
 34 35  1  0
 36 34  2  0
M  END
$$$$
