KYW.pdb
     RDKit          3D

 36 38  0  0  1  0  0  0  0  0999 V2000
    7.9084  -17.4590   19.7084 N   0  0  0  0  0  0  0  0  0  0  0  0
    8.8421  -16.7604   20.5158 C   0  0  1  0  0  0  0  0  0  0  0  0
    8.2893  -15.3377   20.7620 C   0  0  0  0  0  0  0  0  0  0  0  0
    8.4524  -14.6029   19.4921 C   0  0  0  0  0  0  0  0  0  0  0  0
    8.1287  -13.1605   19.4507 C   0  0  0  0  0  0  0  0  0  0  0  0
    8.3772  -12.5599   18.1035 C   0  0  0  0  0  0  0  0  0  0  0  0
    8.0003  -11.1919   18.0832 N   0  0  0  0  0  0  0  0  0  0  0  0
    9.0980  -17.3535   21.8491 C   0  0  0  0  0  0  0  0  0  0  0  0
    8.1464  -17.9311   22.4834 O   0  0  0  0  0  0  0  0  0  0  0  0
   10.9139  -23.4026   20.3493 O   0  0  0  0  0  0  0  0  0  0  0  0
   11.1024  -22.3146   21.1847 C   0  0  0  0  0  0  0  0  0  0  0  0
   11.7739  -21.2096   20.7469 C   0  0  0  0  0  0  0  0  0  0  0  0
   11.9643  -20.1243   21.5738 C   0  0  0  0  0  0  0  0  0  0  0  0
   11.4923  -20.1116   22.8529 C   0  0  0  0  0  0  0  0  0  0  0  0
   11.6489  -19.0016   23.7838 C   0  0  0  0  0  0  0  0  0  0  0  0
   10.5430  -17.9879   23.7901 C   0  0  2  0  0  0  0  0  0  0  0  0
   10.3523  -17.3380   22.5125 N   0  0  0  0  0  0  0  0  0  0  0  0
   10.5803  -17.0239   24.9089 C   0  0  0  0  0  0  0  0  0  0  0  0
   11.1662  -15.9284   24.7480 O   0  0  0  0  0  0  0  0  0  0  0  0
   10.8086  -21.2585   23.2717 C   0  0  0  0  0  0  0  0  0  0  0  0
   10.6135  -22.3434   22.4586 C   0  0  0  0  0  0  0  0  0  0  0  0
    9.9728  -17.3001   26.1737 N   0  0  0  0  0  0  0  0  0  0  0  0
   10.1379  -16.4000   27.2858 C   0  0  1  0  0  0  0  0  0  0  0  0
    8.8051  -16.1419   27.9465 C   0  0  0  0  0  0  0  0  0  0  0  0
    7.8207  -15.5556   27.0307 C   0  0  0  0  0  0  0  0  0  0  0  0
    6.9507  -16.2709   26.2388 C   0  0  0  0  0  0  0  0  0  0  0  0
    6.2030  -15.4034   25.5369 N   0  0  0  0  0  0  0  0  0  0  0  0
    6.5725  -14.1566   25.8597 C   0  0  0  0  0  0  0  0  0  0  0  0
    6.1294  -12.9193   25.4332 C   0  0  0  0  0  0  0  0  0  0  0  0
    6.6767  -11.7499   25.9209 C   0  0  0  0  0  0  0  0  0  0  0  0
    7.6913  -11.8120   26.8573 C   0  0  0  0  0  0  0  0  0  0  0  0
    8.1385  -13.0419   27.2875 C   0  0  0  0  0  0  0  0  0  0  0  0
    7.5852  -14.2200   26.7945 C   0  0  0  0  0  0  0  0  0  0  0  0
   11.1600  -16.8889   28.2107 C   0  0  0  0  0  0  0  0  0  0  0  0
   11.5833  -16.0944   29.2546 O   0  0  0  0  0  0  0  0  0  0  0  0
   11.6934  -18.0248   28.1108 O   0  0  0  0  0  0  0  0  0  0  0  0
  2  3  1  0
  2  1  1  1
  4  3  1  0
  5  4  1  0
  5  6  1  0
  6  7  1  0
  8  2  1  0
  8 17  1  0
  9  8  2  0
 10 11  1  0
 11 21  2  0
 12 11  1  0
 12 13  2  0
 13 14  1  0
 14 20  2  0
 14 15  1  0
 16 15  1  6
 16 17  1  0
 18 16  1  0
 19 18  2  0
 21 20  1  0
 22 18  1  0
 23 34  1  0
 23 22  1  0
 23 24  1  1
 25 24  1  0
 26 25  2  0
 27 26  1  0
 28 27  1  0
 28 33  2  0
 29 28  1  0
 30 29  2  0
 30 31  1  0
 31 32  2  0
 32 33  1  0
 33 25  1  0
 34 35  1  0
 36 34  2  0
M  END
$$$$
