KYW.pdb
     RDKit          3D

 36 38  0  0  1  0  0  0  0  0999 V2000
   10.3482  -16.9739   20.3688 N   0  0  0  0  0  0  0  0  0  0  0  0
   10.1862  -18.1603   21.1291 C   0  0  1  0  0  0  0  0  0  0  0  0
   11.2352  -19.1861   20.6417 C   0  0  0  0  0  0  0  0  0  0  0  0
   11.1744  -19.1739   19.1668 C   0  0  0  0  0  0  0  0  0  0  0  0
   12.0588  -20.0815   18.4044 C   0  0  0  0  0  0  0  0  0  0  0  0
   11.8134  -20.0101   16.9306 C   0  0  0  0  0  0  0  0  0  0  0  0
   12.7722  -20.7787   16.2212 N   0  0  0  0  0  0  0  0  0  0  0  0
   10.3844  -18.0110   22.5897 C   0  0  0  0  0  0  0  0  0  0  0  0
   10.2626  -19.0297   23.3571 O   0  0  0  0  0  0  0  0  0  0  0  0
   10.6954  -14.4236   30.7110 O   0  0  0  0  0  0  0  0  0  0  0  0
   10.8159  -14.6557   29.3513 C   0  0  0  0  0  0  0  0  0  0  0  0
   11.6016  -15.6703   28.8857 C   0  0  0  0  0  0  0  0  0  0  0  0
   11.7251  -15.9056   27.5340 C   0  0  0  0  0  0  0  0  0  0  0  0
   11.0715  -15.1395   26.6147 C   0  0  0  0  0  0  0  0  0  0  0  0
   11.1477  -15.3294   25.1721 C   0  0  0  0  0  0  0  0  0  0  0  0
   10.8653  -16.7167   24.6758 C   0  0  2  0  0  0  0  0  0  0  0  0
   10.7096  -16.7925   23.2402 N   0  0  0  0  0  0  0  0  0  0  0  0
    9.7931  -17.4354   25.3943 C   0  0  0  0  0  0  0  0  0  0  0  0
    9.8609  -18.6819   25.4985 O   0  0  0  0  0  0  0  0  0  0  0  0
   10.2744  -14.1079   27.1233 C   0  0  0  0  0  0  0  0  0  0  0  0
   10.1442  -13.8645   28.4649 C   0  0  0  0  0  0  0  0  0  0  0  0
    8.6757  -16.7563   25.9732 N   0  0  0  0  0  0  0  0  0  0  0  0
    7.3816  -17.3848   26.0394 C   0  0  1  0  0  0  0  0  0  0  0  0
    6.5631  -17.0162   24.8254 C   0  0  0  0  0  0  0  0  0  0  0  0
    6.8310  -15.6542   24.3515 C   0  0  0  0  0  0  0  0  0  0  0  0
    7.2614  -15.3260   23.0855 C   0  0  0  0  0  0  0  0  0  0  0  0
    7.3989  -13.9917   23.0153 N   0  0  0  0  0  0  0  0  0  0  0  0
    7.0681  -13.4616   24.2006 C   0  0  0  0  0  0  0  0  0  0  0  0
    7.0364  -12.1573   24.6557 C   0  0  0  0  0  0  0  0  0  0  0  0
    6.6529  -11.8529   25.9462 C   0  0  0  0  0  0  0  0  0  0  0  0
    6.2916  -12.8719   26.8070 C   0  0  0  0  0  0  0  0  0  0  0  0
    6.3207  -14.1749   26.3607 C   0  0  0  0  0  0  0  0  0  0  0  0
    6.7076  -14.4798   25.0590 C   0  0  0  0  0  0  0  0  0  0  0  0
    7.5077  -18.8283   26.2388 C   0  0  0  0  0  0  0  0  0  0  0  0
    6.4396  -19.5547   26.7200 O   0  0  0  0  0  0  0  0  0  0  0  0
    8.5625  -19.4689   25.9902 O   0  0  0  0  0  0  0  0  0  0  0  0
  2  3  1  0
  2  1  1  6
  4  3  1  0
  5  4  1  0
  5  6  1  0
  6  7  1  0
  8  2  1  0
  8 17  1  0
  9  8  2  0
 10 11  1  0
 11 21  2  0
 12 11  1  0
 12 13  2  0
 13 14  1  0
 14 20  2  0
 14 15  1  0
 16 15  1  1
 16 17  1  0
 18 16  1  0
 19 18  2  0
 21 20  1  0
 22 18  1  0
 23 34  1  0
 23 22  1  0
 23 24  1  6
 25 24  1  0
 26 25  2  0
 27 26  1  0
 28 27  1  0
 28 33  2  0
 29 28  1  0
 30 29  2  0
 30 31  1  0
 31 32  2  0
 32 33  1  0
 33 25  1  0
 34 35  1  0
 36 34  2  0
M  END
$$$$
