KYW.pdb
     RDKit          3D

 36 38  0  0  1  0  0  0  0  0999 V2000
    6.6449  -17.4319   19.0884 N   0  0  0  0  0  0  0  0  0  0  0  0
    7.8186  -16.9458   19.7191 C   0  0  1  0  0  0  0  0  0  0  0  0
    7.9141  -15.4274   19.4437 C   0  0  0  0  0  0  0  0  0  0  0  0
    8.4162  -15.2862   18.0628 C   0  0  0  0  0  0  0  0  0  0  0  0
    8.6205  -13.9305   17.5083 C   0  0  0  0  0  0  0  0  0  0  0  0
    9.1067  -13.9612   16.0941 C   0  0  0  0  0  0  0  0  0  0  0  0
    9.2059  -12.6481   15.5655 N   0  0  0  0  0  0  0  0  0  0  0  0
    7.8660  -17.1147   21.1901 C   0  0  0  0  0  0  0  0  0  0  0  0
    6.8582  -16.7736   21.9040 O   0  0  0  0  0  0  0  0  0  0  0  0
    4.7971  -22.6452   22.1067 O   0  0  0  0  0  0  0  0  0  0  0  0
    5.8468  -21.8286   22.4922 C   0  0  0  0  0  0  0  0  0  0  0  0
    6.9321  -21.6612   21.6812 C   0  0  0  0  0  0  0  0  0  0  0  0
    7.9791  -20.8500   22.0598 C   0  0  0  0  0  0  0  0  0  0  0  0
    7.9721  -20.1869   23.2512 C   0  0  0  0  0  0  0  0  0  0  0  0
    9.0372  -19.3089   23.7180 C   0  0  0  0  0  0  0  0  0  0  0  0
    8.9133  -17.8637   23.3350 C   0  0  2  0  0  0  0  0  0  0  0  0
    8.9715  -17.6409   21.9074 N   0  0  0  0  0  0  0  0  0  0  0  0
    9.7887  -16.9380   24.0826 C   0  0  0  0  0  0  0  0  0  0  0  0
   10.9738  -16.7850   23.7065 O   0  0  0  0  0  0  0  0  0  0  0  0
    6.8462  -20.3789   24.0597 C   0  0  0  0  0  0  0  0  0  0  0  0
    5.7994  -21.1830   23.6938 C   0  0  0  0  0  0  0  0  0  0  0  0
    9.3304  -16.2116   25.2259 N   0  0  0  0  0  0  0  0  0  0  0  0
   10.2638  -15.6454   26.1654 C   0  0  1  0  0  0  0  0  0  0  0  0
    9.6333  -14.4757   26.8821 C   0  0  0  0  0  0  0  0  0  0  0  0
    8.1688  -14.4817   26.8010 C   0  0  0  0  0  0  0  0  0  0  0  0
    7.3799  -15.6101   26.7993 C   0  0  0  0  0  0  0  0  0  0  0  0
    6.0943  -15.2305   26.7136 N   0  0  0  0  0  0  0  0  0  0  0  0
    6.0428  -13.8926   26.6607 C   0  0  0  0  0  0  0  0  0  0  0  0
    4.9843  -13.0092   26.5685 C   0  0  0  0  0  0  0  0  0  0  0  0
    5.1857  -11.6443   26.5285 C   0  0  0  0  0  0  0  0  0  0  0  0
    6.4730  -11.1444   26.5815 C   0  0  0  0  0  0  0  0  0  0  0  0
    7.5336  -12.0188   26.6734 C   0  0  0  0  0  0  0  0  0  0  0  0
    7.3285  -13.3948   26.7136 C   0  0  0  0  0  0  0  0  0  0  0  0
   10.7850  -16.6692   27.0706 C   0  0  0  0  0  0  0  0  0  0  0  0
   10.2387  -17.9348   27.0693 O   0  0  0  0  0  0  0  0  0  0  0  0
   11.7307  -16.4612   27.8751 O   0  0  0  0  0  0  0  0  0  0  0  0
  2  3  1  0
  2  1  1  1
  4  3  1  0
  5  4  1  0
  5  6  1  0
  6  7  1  0
  8  2  1  0
  8 17  1  0
  9  8  2  0
 10 11  1  0
 11 21  2  0
 12 11  1  0
 12 13  2  0
 13 14  1  0
 14 20  2  0
 14 15  1  0
 16 15  1  6
 16 17  1  0
 18 16  1  0
 19 18  2  0
 21 20  1  0
 22 18  1  0
 23 34  1  0
 23 22  1  0
 23 24  1  1
 25 24  1  0
 26 25  2  0
 27 26  1  0
 28 27  1  0
 28 33  2  0
 29 28  1  0
 30 29  2  0
 30 31  1  0
 31 32  2  0
 32 33  1  0
 33 25  1  0
 34 35  1  0
 36 34  2  0
M  END
$$$$
