KYW.pdb
     RDKit          3D

 36 38  0  0  1  0  0  0  0  0999 V2000
    9.9264  -15.0187   18.5754 N   0  0  0  0  0  0  0  0  0  0  0  0
    9.1059  -14.4768   19.5977 C   0  0  1  0  0  0  0  0  0  0  0  0
    7.7041  -14.2201   18.9983 C   0  0  0  0  0  0  0  0  0  0  0  0
    7.9039  -13.3226   17.8434 C   0  0  0  0  0  0  0  0  0  0  0  0
    8.1926  -13.9117   16.5180 C   0  0  0  0  0  0  0  0  0  0  0  0
    8.3364  -12.8722   15.4522 C   0  0  0  0  0  0  0  0  0  0  0  0
    8.6868  -13.4657   14.2118 N   0  0  0  0  0  0  0  0  0  0  0  0
    8.9093  -15.3452   20.7817 C   0  0  0  0  0  0  0  0  0  0  0  0
    8.0569  -15.0157   21.6797 O   0  0  0  0  0  0  0  0  0  0  0  0
    6.1344  -20.9749   18.0605 O   0  0  0  0  0  0  0  0  0  0  0  0
    6.9743  -20.4412   19.0233 C   0  0  0  0  0  0  0  0  0  0  0  0
    8.2135  -19.9784   18.6861 C   0  0  0  0  0  0  0  0  0  0  0  0
    9.0531  -19.4465   19.6399 C   0  0  0  0  0  0  0  0  0  0  0  0
    8.6815  -19.3619   20.9491 C   0  0  0  0  0  0  0  0  0  0  0  0
    9.5099  -18.8085   22.0123 C   0  0  0  0  0  0  0  0  0  0  0  0
    9.4029  -17.3274   22.2259 C   0  0  2  0  0  0  0  0  0  0  0  0
    9.6084  -16.5569   21.0196 N   0  0  0  0  0  0  0  0  0  0  0  0
   10.1784  -16.7992   23.3669 C   0  0  0  0  0  0  0  0  0  0  0  0
   11.4240  -16.7125   23.2671 O   0  0  0  0  0  0  0  0  0  0  0  0
    7.4060  -19.8445   21.2627 C   0  0  0  0  0  0  0  0  0  0  0  0
    6.5627  -20.3756   20.3230 C   0  0  0  0  0  0  0  0  0  0  0  0
    9.5553  -16.3859   24.5859 N   0  0  0  0  0  0  0  0  0  0  0  0
   10.3414  -16.0986   25.7579 C   0  0  1  0  0  0  0  0  0  0  0  0
    9.7981  -14.8775   26.4603 C   0  0  0  0  0  0  0  0  0  0  0  0
    8.3663  -14.6719   26.2174 C   0  0  0  0  0  0  0  0  0  0  0  0
    7.4590  -15.6688   25.9367 C   0  0  0  0  0  0  0  0  0  0  0  0
    6.2487  -15.1094   25.7745 N   0  0  0  0  0  0  0  0  0  0  0  0
    6.3600  -13.7849   25.9440 C   0  0  0  0  0  0  0  0  0  0  0  0
    5.4325  -12.7623   25.8862 C   0  0  0  0  0  0  0  0  0  0  0  0
    5.7942  -11.4477   26.1010 C   0  0  0  0  0  0  0  0  0  0  0  0
    7.1126  -11.1416   26.3806 C   0  0  0  0  0  0  0  0  0  0  0  0
    8.0433  -12.1556   26.4399 C   0  0  0  0  0  0  0  0  0  0  0  0
    7.6765  -13.4806   26.2230 C   0  0  0  0  0  0  0  0  0  0  0  0
   10.4404  -17.2720   26.6254 C   0  0  0  0  0  0  0  0  0  0  0  0
    9.6854  -18.3939   26.3580 O   0  0  0  0  0  0  0  0  0  0  0  0
   11.1955  -17.3238   27.6313 O   0  0  0  0  0  0  0  0  0  0  0  0
  2  3  1  0
  2  1  1  6
  4  3  1  0
  5  4  1  0
  5  6  1  0
  6  7  1  0
  8  2  1  0
  8 17  1  0
  9  8  2  0
 10 11  1  0
 11 21  2  0
 12 11  1  0
 12 13  2  0
 13 14  1  0
 14 20  2  0
 14 15  1  0
 16 15  1  6
 16 17  1  0
 18 16  1  0
 19 18  2  0
 21 20  1  0
 22 18  1  0
 23 34  1  0
 23 22  1  0
 23 24  1  1
 25 24  1  0
 26 25  2  0
 27 26  1  0
 28 27  1  0
 28 33  2  0
 29 28  1  0
 30 29  2  0
 30 31  1  0
 31 32  2  0
 32 33  1  0
 33 25  1  0
 34 35  1  0
 36 34  2  0
M  END
$$$$
