KYW.pdb
     RDKit          3D

 36 38  0  0  1  0  0  0  0  0999 V2000
    7.3199  -17.1822   19.7163 N   0  0  0  0  0  0  0  0  0  0  0  0
    8.1236  -16.3046   20.4882 C   0  0  1  0  0  0  0  0  0  0  0  0
    7.2096  -15.1921   21.0516 C   0  0  0  0  0  0  0  0  0  0  0  0
    7.7699  -13.9125   20.5743 C   0  0  0  0  0  0  0  0  0  0  0  0
    7.8143  -13.6461   19.1203 C   0  0  0  0  0  0  0  0  0  0  0  0
    8.4027  -12.3077   18.8046 C   0  0  0  0  0  0  0  0  0  0  0  0
    8.6067  -12.1625   17.4078 N   0  0  0  0  0  0  0  0  0  0  0  0
    8.8053  -16.9229   21.6491 C   0  0  0  0  0  0  0  0  0  0  0  0
    8.1429  -17.6651   22.4565 O   0  0  0  0  0  0  0  0  0  0  0  0
   14.5419  -21.0899   26.7934 O   0  0  0  0  0  0  0  0  0  0  0  0
   13.9787  -20.2649   25.8346 C   0  0  0  0  0  0  0  0  0  0  0  0
   14.2822  -18.9345   25.7965 C   0  0  0  0  0  0  0  0  0  0  0  0
   13.7248  -18.1092   24.8448 C   0  0  0  0  0  0  0  0  0  0  0  0
   12.8542  -18.5859   23.9099 C   0  0  0  0  0  0  0  0  0  0  0  0
   12.2290  -17.7783   22.8706 C   0  0  0  0  0  0  0  0  0  0  0  0
   10.7875  -17.4255   23.0901 C   0  0  2  0  0  0  0  0  0  0  0  0
   10.1804  -16.7600   21.9590 N   0  0  0  0  0  0  0  0  0  0  0  0
   10.4951  -16.7408   24.3660 C   0  0  0  0  0  0  0  0  0  0  0  0
   10.7538  -15.5198   24.4737 O   0  0  0  0  0  0  0  0  0  0  0  0
   12.5633  -19.9531   23.9754 C   0  0  0  0  0  0  0  0  0  0  0  0
   13.1113  -20.7832   24.9171 C   0  0  0  0  0  0  0  0  0  0  0  0
    9.9293  -17.4257   25.4866 N   0  0  0  0  0  0  0  0  0  0  0  0
    9.8460  -16.7907   26.7765 C   0  0  1  0  0  0  0  0  0  0  0  0
    8.4283  -16.8489   27.2927 C   0  0  0  0  0  0  0  0  0  0  0  0
    7.5126  -15.9872   26.5377 C   0  0  0  0  0  0  0  0  0  0  0  0
    6.4870  -16.4323   25.7342 C   0  0  0  0  0  0  0  0  0  0  0  0
    5.8653  -15.3647   25.2069 N   0  0  0  0  0  0  0  0  0  0  0  0
    6.4663  -14.2529   25.6521 C   0  0  0  0  0  0  0  0  0  0  0  0
    6.2248  -12.9125   25.4191 C   0  0  0  0  0  0  0  0  0  0  0  0
    6.9962  -11.9285   26.0037 C   0  0  0  0  0  0  0  0  0  0  0  0
    8.0351  -12.2863   26.8419 C   0  0  0  0  0  0  0  0  0  0  0  0
    8.2823  -13.6207   27.0791 C   0  0  0  0  0  0  0  0  0  0  0  0
    7.5031  -14.6115   26.4887 C   0  0  0  0  0  0  0  0  0  0  0  0
   10.8259  -17.3545   27.7044 C   0  0  0  0  0  0  0  0  0  0  0  0
   11.0304  -16.7662   28.9342 O   0  0  0  0  0  0  0  0  0  0  0  0
   11.5151  -18.3750   27.4430 O   0  0  0  0  0  0  0  0  0  0  0  0
  2  3  1  0
  2  1  1  1
  4  3  1  0
  5  4  1  0
  5  6  1  0
  6  7  1  0
  8  2  1  0
  8 17  1  0
  9  8  2  0
 10 11  1  0
 11 21  2  0
 12 11  1  0
 12 13  2  0
 13 14  1  0
 14 20  2  0
 14 15  1  0
 16 15  1  6
 16 17  1  0
 18 16  1  0
 19 18  2  0
 21 20  1  0
 22 18  1  0
 23 34  1  0
 23 22  1  0
 23 24  1  1
 25 24  1  0
 26 25  2  0
 27 26  1  0
 28 27  1  0
 28 33  2  0
 29 28  1  0
 30 29  2  0
 30 31  1  0
 31 32  2  0
 32 33  1  0
 33 25  1  0
 34 35  1  0
 36 34  2  0
M  END
$$$$
