KYW.pdb
     RDKit          3D

 36 38  0  0  1  0  0  0  0  0999 V2000
    9.1195  -21.0663   21.5944 N   0  0  0  0  0  0  0  0  0  0  0  0
   10.2241  -20.3947   21.0108 C   0  0  1  0  0  0  0  0  0  0  0  0
   10.2322  -20.7148   19.4982 C   0  0  0  0  0  0  0  0  0  0  0  0
   11.1323  -21.8717   19.3231 C   0  0  0  0  0  0  0  0  0  0  0  0
   11.3863  -22.3835   17.9591 C   0  0  0  0  0  0  0  0  0  0  0  0
   12.3393  -23.5364   17.9520 C   0  0  0  0  0  0  0  0  0  0  0  0
   12.5564  -24.0040   16.6300 N   0  0  0  0  0  0  0  0  0  0  0  0
   10.2066  -18.9183   21.1326 C   0  0  0  0  0  0  0  0  0  0  0  0
   11.1696  -18.2269   20.6465 O   0  0  0  0  0  0  0  0  0  0  0  0
    7.6321  -10.5949   20.5139 O   0  0  0  0  0  0  0  0  0  0  0  0
    7.6878  -11.9695   20.6704 C   0  0  0  0  0  0  0  0  0  0  0  0
    8.1129  -12.7692   19.6490 C   0  0  0  0  0  0  0  0  0  0  0  0
    8.1702  -14.1374   19.7993 C   0  0  0  0  0  0  0  0  0  0  0  0
    7.8071  -14.7419   20.9663 C   0  0  0  0  0  0  0  0  0  0  0  0
    7.8453  -16.1792   21.2028 C   0  0  0  0  0  0  0  0  0  0  0  0
    9.1461  -16.7276   21.7107 C   0  0  2  0  0  0  0  0  0  0  0  0
    9.1783  -18.1722   21.7646 N   0  0  0  0  0  0  0  0  0  0  0  0
    9.6456  -16.1092   22.9558 C   0  0  0  0  0  0  0  0  0  0  0  0
    9.9615  -14.8971   22.9482 O   0  0  0  0  0  0  0  0  0  0  0  0
    7.3760  -13.8953   21.9938 C   0  0  0  0  0  0  0  0  0  0  0  0
    7.3148  -12.5339   21.8558 C   0  0  0  0  0  0  0  0  0  0  0  0
    9.7851  -16.8490   24.1717 N   0  0  0  0  0  0  0  0  0  0  0  0
   10.2816  -16.2191   25.3679 C   0  0  1  0  0  0  0  0  0  0  0  0
    9.2556  -16.3193   26.4710 C   0  0  0  0  0  0  0  0  0  0  0  0
    7.9667  -15.7228   26.1044 C   0  0  0  0  0  0  0  0  0  0  0  0
    6.8371  -16.4289   25.7564 C   0  0  0  0  0  0  0  0  0  0  0  0
    5.8547  -15.5537   25.4859 N   0  0  0  0  0  0  0  0  0  0  0  0
    6.3271  -14.3109   25.6518 C   0  0  0  0  0  0  0  0  0  0  0  0
    5.7392  -13.0691   25.5051 C   0  0  0  0  0  0  0  0  0  0  0  0
    6.4442  -11.9055   25.7376 C   0  0  0  0  0  0  0  0  0  0  0  0
    7.7685  -11.9782   26.1261 C   0  0  0  0  0  0  0  0  0  0  0  0
    8.3617  -13.2126   26.2745 C   0  0  0  0  0  0  0  0  0  0  0  0
    7.6491  -14.3849   26.0396 C   0  0  0  0  0  0  0  0  0  0  0  0
   11.5899  -16.7561   25.7407 C   0  0  0  0  0  0  0  0  0  0  0  0
   12.1498  -17.7809   25.0082 O   0  0  0  0  0  0  0  0  0  0  0  0
   12.2579  -16.3277   26.7180 O   0  0  0  0  0  0  0  0  0  0  0  0
  2  3  1  0
  2  1  1  6
  4  3  1  0
  5  4  1  0
  5  6  1  0
  6  7  1  0
  8  2  1  0
  8 17  1  0
  9  8  2  0
 10 11  1  0
 11 21  2  0
 12 11  1  0
 12 13  2  0
 13 14  1  0
 14 20  2  0
 14 15  1  0
 16 15  1  1
 16 17  1  0
 18 16  1  0
 19 18  2  0
 21 20  1  0
 22 18  1  0
 23 34  1  0
 23 22  1  0
 23 24  1  1
 25 24  1  0
 26 25  2  0
 27 26  1  0
 28 27  1  0
 28 33  2  0
 29 28  1  0
 30 29  2  0
 30 31  1  0
 31 32  2  0
 32 33  1  0
 33 25  1  0
 34 35  1  0
 36 34  2  0
M  END
$$$$
