KYW.pdb
     RDKit          3D

 36 38  0  0  1  0  0  0  0  0999 V2000
    8.3768  -17.4599   19.6185 N   0  0  0  0  0  0  0  0  0  0  0  0
    9.2360  -16.6767   20.4310 C   0  0  1  0  0  0  0  0  0  0  0  0
    8.6067  -15.2718   20.5749 C   0  0  0  0  0  0  0  0  0  0  0  0
    8.6991  -14.6369   19.2454 C   0  0  0  0  0  0  0  0  0  0  0  0
    8.3802  -13.1989   19.1130 C   0  0  0  0  0  0  0  0  0  0  0  0
    8.4805  -12.7215   17.6990 C   0  0  0  0  0  0  0  0  0  0  0  0
    8.1808  -11.3373   17.6108 N   0  0  0  0  0  0  0  0  0  0  0  0
    9.4523  -17.1882   21.8045 C   0  0  0  0  0  0  0  0  0  0  0  0
    8.5130  -17.8195   22.4051 O   0  0  0  0  0  0  0  0  0  0  0  0
   11.4615  -23.1271   20.5436 O   0  0  0  0  0  0  0  0  0  0  0  0
   11.5947  -22.0144   21.3568 C   0  0  0  0  0  0  0  0  0  0  0  0
   12.2809  -20.9158   20.9258 C   0  0  0  0  0  0  0  0  0  0  0  0
   12.4164  -19.8061   21.7308 C   0  0  0  0  0  0  0  0  0  0  0  0
   11.8737  -19.7621   22.9810 C   0  0  0  0  0  0  0  0  0  0  0  0
   11.9695  -18.6251   23.8871 C   0  0  0  0  0  0  0  0  0  0  0  0
   10.8310  -17.6494   23.8404 C   0  0  2  0  0  0  0  0  0  0  0  0
   10.6540  -17.0350   22.5434 N   0  0  0  0  0  0  0  0  0  0  0  0
   10.8056  -16.6599   24.9371 C   0  0  0  0  0  0  0  0  0  0  0  0
   11.4037  -15.5697   24.7860 O   0  0  0  0  0  0  0  0  0  0  0  0
   11.1768  -20.9033   23.3936 C   0  0  0  0  0  0  0  0  0  0  0  0
   11.0357  -22.0122   22.6020 C   0  0  0  0  0  0  0  0  0  0  0  0
   10.1236  -16.9056   26.1697 N   0  0  0  0  0  0  0  0  0  0  0  0
   10.1606  -15.9428   27.2401 C   0  0  1  0  0  0  0  0  0  0  0  0
    8.8106  -15.8609   27.9111 C   0  0  0  0  0  0  0  0  0  0  0  0
    7.7409  -15.4636   26.9896 C   0  0  0  0  0  0  0  0  0  0  0  0
    6.9096  -16.3322   26.3187 C   0  0  0  0  0  0  0  0  0  0  0  0
    6.0580  -15.6129   25.5692 N   0  0  0  0  0  0  0  0  0  0  0  0
    6.3238  -14.3114   25.7441 C   0  0  0  0  0  0  0  0  0  0  0  0
    5.7523  -13.1699   25.2154 C   0  0  0  0  0  0  0  0  0  0  0  0
    6.2088  -11.9119   25.5533 C   0  0  0  0  0  0  0  0  0  0  0  0
    7.2611  -11.7853   26.4402 C   0  0  0  0  0  0  0  0  0  0  0  0
    7.8363  -12.9187   26.9717 C   0  0  0  0  0  0  0  0  0  0  0  0
    7.3745  -14.1863   26.6297 C   0  0  0  0  0  0  0  0  0  0  0  0
   11.2542  -16.2298   28.1679 C   0  0  0  0  0  0  0  0  0  0  0  0
   11.5636  -15.3338   29.1688 O   0  0  0  0  0  0  0  0  0  0  0  0
   11.9518  -17.2761   28.1086 O   0  0  0  0  0  0  0  0  0  0  0  0
  2  3  1  0
  2  1  1  6
  4  3  1  0
  5  4  1  0
  5  6  1  0
  6  7  1  0
  8  2  1  0
  8 17  1  0
  9  8  2  0
 10 11  1  0
 11 21  2  0
 12 11  1  0
 12 13  2  0
 13 14  1  0
 14 20  2  0
 14 15  1  0
 16 15  1  6
 16 17  1  0
 18 16  1  0
 19 18  2  0
 21 20  1  0
 22 18  1  0
 23 34  1  0
 23 22  1  0
 23 24  1  1
 25 24  1  0
 26 25  2  0
 27 26  1  0
 28 27  1  0
 28 33  2  0
 29 28  1  0
 30 29  2  0
 30 31  1  0
 31 32  2  0
 32 33  1  0
 33 25  1  0
 34 35  1  0
 36 34  2  0
M  END
$$$$
