VDD.pdb
     RDKit          3D

 24 23  0  0  1  0  0  0  0  0999 V2000
    7.2237  -13.1062   22.1293 C   0  0  0  0  0  0  0  0  0  0  0  0
    8.4637  -13.2716   21.2878 C   0  0  2  0  0  0  0  0  0  0  0  0
    8.4681  -12.2383   20.2085 C   0  0  0  0  0  0  0  0  0  0  0  0
    8.4862  -14.6925   20.7688 C   0  0  2  0  0  0  0  0  0  0  0  0
    7.4245  -14.7580   19.7525 N   0  0  0  0  0  0  0  0  0  0  0  0
    8.2388  -15.6798   21.8417 C   0  0  0  0  0  0  0  0  0  0  0  0
    7.0711  -16.0620   22.0605 O   0  0  0  0  0  0  0  0  0  0  0  0
    9.3118  -16.1837   22.6090 N   0  0  0  0  0  0  0  0  0  0  0  0
    9.0831  -17.2460   23.6541 C   0  0  1  0  0  0  0  0  0  0  0  0
    9.7586  -18.4663   23.0470 C   0  0  0  0  0  0  0  0  0  0  0  0
    9.7641  -19.6874   23.8176 C   0  0  0  0  0  0  0  0  0  0  0  0
    9.0336  -19.9296   24.7836 O   0  0  0  0  0  0  0  0  0  0  0  0
    9.8707  -16.7617   24.8055 C   0  0  0  0  0  0  0  0  0  0  0  0
   11.0434  -16.3103   24.5522 O   0  0  0  0  0  0  0  0  0  0  0  0
   10.6634  -20.7259   23.4784 O   0  0  0  0  0  0  0  0  0  0  0  0
    9.4176  -16.7606   26.1414 N   0  0  0  0  0  0  0  0  0  0  0  0
   10.3606  -16.2892   27.1711 C   0  0  1  0  0  0  0  0  0  0  0  0
    9.6937  -15.2774   28.0721 C   0  0  0  0  0  0  0  0  0  0  0  0
    9.7936  -13.9130   27.4930 C   0  0  0  0  0  0  0  0  0  0  0  0
   10.6416  -13.6163   26.5943 O   0  0  0  0  0  0  0  0  0  0  0  0
   10.7997  -17.4576   27.9643 C   0  0  0  0  0  0  0  0  0  0  0  0
   10.3222  -18.6099   27.7850 O   0  0  0  0  0  0  0  0  0  0  0  0
    8.9467  -12.8762   27.9159 O   0  0  0  0  0  0  0  0  0  0  0  0
   11.7692  -17.3096   28.9470 O   0  0  0  0  0  0  0  0  0  0  0  0
  2  1  1  6
  2  3  1  0
  4  6  1  0
  4  2  1  0
  4  5  1  6
  6  7  2  0
  8  6  1  0
  8  9  1  0
  9 10  1  6
 11 10  1  0
 11 15  1  0
 12 11  2  0
 13 16  1  0
 13  9  1  0
 14 13  2  0
 17 21  1  0
 17 18  1  1
 17 16  1  0
 19 18  1  0
 19 23  1  0
 20 19  2  0
 21 24  1  0
 22 21  2  0
M  END
$$$$
