VDD.pdb
     RDKit          3D

 24 23  0  0  1  0  0  0  0  0999 V2000
    7.2471  -13.8357   21.6268 C   0  0  0  0  0  0  0  0  0  0  0  0
    8.1809  -13.4596   20.5045 C   0  0  2  0  0  0  0  0  0  0  0  0
    7.5034  -12.4735   19.6094 C   0  0  0  0  0  0  0  0  0  0  0  0
    8.5976  -14.7325   19.8011 C   0  0  2  0  0  0  0  0  0  0  0  0
    7.3895  -15.2183   19.1163 N   0  0  0  0  0  0  0  0  0  0  0  0
    9.1021  -15.7507   20.7476 C   0  0  0  0  0  0  0  0  0  0  0  0
    8.3091  -16.5922   21.2170 O   0  0  0  0  0  0  0  0  0  0  0  0
   10.4653  -15.7698   21.1153 N   0  0  0  0  0  0  0  0  0  0  0  0
   11.0127  -16.8624   21.9983 C   0  0  1  0  0  0  0  0  0  0  0  0
   12.5172  -16.6885   21.8552 C   0  0  0  0  0  0  0  0  0  0  0  0
   13.3727  -17.5221   22.6664 C   0  0  0  0  0  0  0  0  0  0  0  0
   12.9879  -18.3595   23.4888 O   0  0  0  0  0  0  0  0  0  0  0  0
   10.5895  -16.4471   23.3508 C   0  0  0  0  0  0  0  0  0  0  0  0
   10.6806  -15.1982   23.6247 O   0  0  0  0  0  0  0  0  0  0  0  0
   14.7781  -17.4094   22.5473 O   0  0  0  0  0  0  0  0  0  0  0  0
   10.0953  -17.3240   24.3391 N   0  0  0  0  0  0  0  0  0  0  0  0
    9.7111  -16.7315   25.6326 C   0  0  1  0  0  0  0  0  0  0  0  0
    8.3606  -16.0642   25.5255 C   0  0  0  0  0  0  0  0  0  0  0  0
    7.2977  -17.0697   25.2681 C   0  0  0  0  0  0  0  0  0  0  0  0
    7.5488  -18.3100   25.1520 O   0  0  0  0  0  0  0  0  0  0  0  0
    9.6594  -17.8140   26.6388 C   0  0  0  0  0  0  0  0  0  0  0  0
    9.7691  -19.0295   26.3251 O   0  0  0  0  0  0  0  0  0  0  0  0
    5.9514  -16.6928   25.1398 O   0  0  0  0  0  0  0  0  0  0  0  0
    9.4848  -17.5103   27.9823 O   0  0  0  0  0  0  0  0  0  0  0  0
  2  1  1  1
  2  3  1  0
  4  6  1  0
  4  2  1  0
  4  5  1  1
  6  7  2  0
  8  6  1  0
  8  9  1  0
  9 10  1  1
 11 10  1  0
 11 15  1  0
 12 11  2  0
 13 16  1  0
 13  9  1  0
 14 13  2  0
 17 21  1  0
 17 18  1  6
 17 16  1  0
 19 18  1  0
 19 23  1  0
 20 19  2  0
 21 24  1  0
 22 21  2  0
M  END
$$$$
