VDD.pdb
     RDKit          3D

 24 23  0  0  1  0  0  0  0  0999 V2000
    8.3063  -13.8987   20.5909 C   0  0  0  0  0  0  0  0  0  0  0  0
    8.7774  -12.9368   19.5298 C   0  0  2  0  0  0  0  0  0  0  0  0
    7.6995  -11.9389   19.2559 C   0  0  0  0  0  0  0  0  0  0  0  0
    9.1797  -13.7453   18.3161 C   0  0  2  0  0  0  0  0  0  0  0  0
    7.9791  -14.5037   17.9318 N   0  0  0  0  0  0  0  0  0  0  0  0
   10.3019  -14.6634   18.6071 C   0  0  0  0  0  0  0  0  0  0  0  0
   10.0603  -15.8636   18.8492 O   0  0  0  0  0  0  0  0  0  0  0  0
   11.6312  -14.1867   18.6107 N   0  0  0  0  0  0  0  0  0  0  0  0
   12.7908  -15.1313   18.8008 C   0  0  1  0  0  0  0  0  0  0  0  0
   13.9680  -14.3310   18.2645 C   0  0  0  0  0  0  0  0  0  0  0  0
   15.2576  -14.9787   18.2157 C   0  0  0  0  0  0  0  0  0  0  0  0
   16.3127  -14.4502   17.8508 O   0  0  0  0  0  0  0  0  0  0  0  0
   12.8945  -15.2471   20.2693 C   0  0  0  0  0  0  0  0  0  0  0  0
   12.9490  -14.1507   20.9311 O   0  0  0  0  0  0  0  0  0  0  0  0
   15.3770  -16.3328   18.6087 O   0  0  0  0  0  0  0  0  0  0  0  0
   12.9313  -16.4680   20.9752 N   0  0  0  0  0  0  0  0  0  0  0  0
   13.0016  -16.3929   22.4453 C   0  0  1  0  0  0  0  0  0  0  0  0
   11.8322  -17.1194   23.0659 C   0  0  0  0  0  0  0  0  0  0  0  0
   11.9734  -17.1744   24.5438 C   0  0  0  0  0  0  0  0  0  0  0  0
   12.9722  -16.6751   25.1504 O   0  0  0  0  0  0  0  0  0  0  0  0
   14.2700  -17.0175   22.8791 C   0  0  0  0  0  0  0  0  0  0  0  0
   14.5865  -17.1231   24.0942 O   0  0  0  0  0  0  0  0  0  0  0  0
   10.9995  -17.7870   25.3483 O   0  0  0  0  0  0  0  0  0  0  0  0
   15.1618  -17.5129   21.9374 O   0  0  0  0  0  0  0  0  0  0  0  0
  2  1  1  1
  2  3  1  0
  4  6  1  0
  4  2  1  0
  4  5  1  1
  6  7  2  0
  8  6  1  0
  8  9  1  0
  9 10  1  1
 11 10  1  0
 11 15  1  0
 12 11  2  0
 13 16  1  0
 13  9  1  0
 14 13  2  0
 17 21  1  0
 17 18  1  1
 17 16  1  0
 19 18  1  0
 19 23  1  0
 20 19  2  0
 21 24  1  0
 22 21  2  0
M  END
$$$$
