VDD.pdb
     RDKit          3D

 24 23  0  0  1  0  0  0  0  0999 V2000
    7.4672  -13.3313   21.1145 C   0  0  0  0  0  0  0  0  0  0  0  0
    8.5344  -13.3115   20.0496 C   0  0  2  0  0  0  0  0  0  0  0  0
    8.3391  -12.1132   19.1787 C   0  0  0  0  0  0  0  0  0  0  0  0
    8.4672  -14.6243   19.3008 C   0  0  2  0  0  0  0  0  0  0  0  0
    7.2144  -14.5757   18.5312 N   0  0  0  0  0  0  0  0  0  0  0  0
    8.4693  -15.7864   20.2156 C   0  0  0  0  0  0  0  0  0  0  0  0
    7.3909  -16.1757   20.7085 O   0  0  0  0  0  0  0  0  0  0  0  0
    9.6778  -16.4472   20.5270 N   0  0  0  0  0  0  0  0  0  0  0  0
    9.6950  -17.6235   21.4698 C   0  0  1  0  0  0  0  0  0  0  0  0
    9.8578  -18.8070   20.5281 C   0  0  0  0  0  0  0  0  0  0  0  0
    9.9642  -20.1236   21.1116 C   0  0  0  0  0  0  0  0  0  0  0  0
    9.2924  -20.5453   22.0583 O   0  0  0  0  0  0  0  0  0  0  0  0
   10.9403  -17.4225   22.2375 C   0  0  0  0  0  0  0  0  0  0  0  0
   11.9949  -17.1474   21.5627 O   0  0  0  0  0  0  0  0  0  0  0  0
   10.9020  -21.0468   20.5915 O   0  0  0  0  0  0  0  0  0  0  0  0
   11.0371  -17.5080   23.6423 N   0  0  0  0  0  0  0  0  0  0  0  0
   12.3877  -17.4448   24.2284 C   0  0  1  0  0  0  0  0  0  0  0  0
   13.0113  -16.0941   23.9694 C   0  0  0  0  0  0  0  0  0  0  0  0
   14.2811  -16.2391   23.2120 C   0  0  0  0  0  0  0  0  0  0  0  0
   14.8622  -17.3599   23.0673 O   0  0  0  0  0  0  0  0  0  0  0  0
   12.2699  -17.6740   25.6847 C   0  0  0  0  0  0  0  0  0  0  0  0
   11.1563  -17.6967   26.2739 O   0  0  0  0  0  0  0  0  0  0  0  0
   14.9053  -15.1329   22.6139 O   0  0  0  0  0  0  0  0  0  0  0  0
   13.4082  -17.8737   26.4541 O   0  0  0  0  0  0  0  0  0  0  0  0
  2  1  1  1
  2  3  1  0
  4  6  1  0
  4  2  1  0
  4  5  1  1
  6  7  2  0
  8  6  1  0
  8  9  1  0
  9 10  1  6
 11 10  1  0
 11 15  1  0
 12 11  2  0
 13 16  1  0
 13  9  1  0
 14 13  2  0
 17 21  1  0
 17 18  1  1
 17 16  1  0
 19 18  1  0
 19 23  1  0
 20 19  2  0
 21 24  1  0
 22 21  2  0
M  END
$$$$
