VDD.pdb
     RDKit          3D

 24 23  0  0  1  0  0  0  0  0999 V2000
    8.1033  -13.8675   21.0149 C   0  0  0  0  0  0  0  0  0  0  0  0
    8.7382  -13.1434   19.8548 C   0  0  2  0  0  0  0  0  0  0  0  0
    7.9007  -11.9594   19.4952 C   0  0  0  0  0  0  0  0  0  0  0  0
    8.9058  -14.1350   18.7246 C   0  0  2  0  0  0  0  0  0  0  0  0
    7.5409  -14.4899   18.3056 N   0  0  0  0  0  0  0  0  0  0  0  0
    9.6481  -15.3415   19.1494 C   0  0  0  0  0  0  0  0  0  0  0  0
    9.0138  -16.3758   19.4412 O   0  0  0  0  0  0  0  0  0  0  0  0
   11.0582  -15.3224   19.2236 N   0  0  0  0  0  0  0  0  0  0  0  0
   11.8313  -16.5708   19.5652 C   0  0  1  0  0  0  0  0  0  0  0  0
   13.0565  -16.4634   18.6699 C   0  0  0  0  0  0  0  0  0  0  0  0
   14.0656  -17.4900   18.7817 C   0  0  0  0  0  0  0  0  0  0  0  0
   13.9721  -18.6394   18.3392 O   0  0  0  0  0  0  0  0  0  0  0  0
   12.2218  -16.3515   20.9724 C   0  0  0  0  0  0  0  0  0  0  0  0
   12.1719  -15.1451   21.4027 O   0  0  0  0  0  0  0  0  0  0  0  0
   15.2832  -17.2065   19.4447 O   0  0  0  0  0  0  0  0  0  0  0  0
   12.6333  -17.3706   21.8568 N   0  0  0  0  0  0  0  0  0  0  0  0
   12.5764  -17.0729   23.2990 C   0  0  1  0  0  0  0  0  0  0  0  0
   11.3013  -17.6157   23.8987 C   0  0  0  0  0  0  0  0  0  0  0  0
   10.6255  -16.5792   24.7209 C   0  0  0  0  0  0  0  0  0  0  0  0
   11.1545  -15.4485   24.9587 O   0  0  0  0  0  0  0  0  0  0  0  0
   13.7462  -17.7044   23.9470 C   0  0  0  0  0  0  0  0  0  0  0  0
   14.0878  -18.8932   23.7065 O   0  0  0  0  0  0  0  0  0  0  0  0
    9.3570  -16.8025   25.2796 O   0  0  0  0  0  0  0  0  0  0  0  0
   14.5125  -16.9869   24.8557 O   0  0  0  0  0  0  0  0  0  0  0  0
  2  1  1  1
  2  3  1  0
  4  6  1  0
  4  2  1  0
  4  5  1  1
  6  7  2  0
  8  6  1  0
  8  9  1  0
  9 10  1  6
 11 10  1  0
 11 15  1  0
 12 11  2  0
 13 16  1  0
 13  9  1  0
 14 13  2  0
 17 21  1  0
 17 18  1  1
 17 16  1  0
 19 18  1  0
 19 23  1  0
 20 19  2  0
 21 24  1  0
 22 21  2  0
M  END
$$$$
