VDD.pdb
     RDKit          3D

 24 23  0  0  1  0  0  0  0  0999 V2000
    7.9828  -13.8135   22.0822 C   0  0  0  0  0  0  0  0  0  0  0  0
    8.4308  -13.5406   20.6688 C   0  0  2  0  0  0  0  0  0  0  0  0
    7.5962  -12.4445   20.0904 C   0  0  0  0  0  0  0  0  0  0  0  0
    8.3483  -14.8391   19.8969 C   0  0  2  0  0  0  0  0  0  0  0  0
    6.9150  -15.1620   19.8204 N   0  0  0  0  0  0  0  0  0  0  0  0
    9.0908  -15.9302   20.5641 C   0  0  0  0  0  0  0  0  0  0  0  0
    8.4656  -16.7557   21.2605 O   0  0  0  0  0  0  0  0  0  0  0  0
   10.4910  -16.0361   20.4142 N   0  0  0  0  0  0  0  0  0  0  0  0
   11.2474  -17.1940   21.0143 C   0  0  1  0  0  0  0  0  0  0  0  0
   12.4767  -17.2907   20.1235 C   0  0  0  0  0  0  0  0  0  0  0  0
   12.7101  -18.5348   19.4289 C   0  0  0  0  0  0  0  0  0  0  0  0
   12.4278  -19.6589   19.8559 O   0  0  0  0  0  0  0  0  0  0  0  0
   11.6360  -16.6890   22.3466 C   0  0  0  0  0  0  0  0  0  0  0  0
   11.4884  -15.4324   22.5518 O   0  0  0  0  0  0  0  0  0  0  0  0
   13.3103  -18.5201   18.1476 O   0  0  0  0  0  0  0  0  0  0  0  0
   12.1452  -17.4914   23.3892 N   0  0  0  0  0  0  0  0  0  0  0  0
   11.6498  -17.2194   24.7503 C   0  0  1  0  0  0  0  0  0  0  0  0
   10.1441  -17.3250   24.7934 C   0  0  0  0  0  0  0  0  0  0  0  0
    9.6416  -17.0977   26.1728 C   0  0  0  0  0  0  0  0  0  0  0  0
    8.6679  -16.3202   26.4222 O   0  0  0  0  0  0  0  0  0  0  0  0
   12.2506  -18.2124   25.6669 C   0  0  0  0  0  0  0  0  0  0  0  0
   12.1230  -19.4535   25.4909 O   0  0  0  0  0  0  0  0  0  0  0  0
   10.2251  -17.7382   27.2775 O   0  0  0  0  0  0  0  0  0  0  0  0
   12.9855  -17.7915   26.7671 O   0  0  0  0  0  0  0  0  0  0  0  0
  2  1  1  1
  2  3  1  0
  4  6  1  0
  4  2  1  0
  4  5  1  1
  6  7  2  0
  8  6  1  0
  8  9  1  0
  9 10  1  6
 11 10  1  0
 11 15  1  0
 12 11  2  0
 13 16  1  0
 13  9  1  0
 14 13  2  0
 17 21  1  0
 17 18  1  6
 17 16  1  0
 19 18  1  0
 19 23  1  0
 20 19  2  0
 21 24  1  0
 22 21  2  0
M  END
$$$$
