VDD.pdb
     RDKit          3D

 24 23  0  0  1  0  0  0  0  0999 V2000
    7.4985  -12.6285   19.2804 C   0  0  0  0  0  0  0  0  0  0  0  0
    8.6464  -13.5332   19.6504 C   0  0  2  0  0  0  0  0  0  0  0  0
    9.5828  -12.7972   20.5526 C   0  0  0  0  0  0  0  0  0  0  0  0
    9.2899  -14.0143   18.3686 C   0  0  2  0  0  0  0  0  0  0  0  0
    8.2243  -14.7078   17.6284 N   0  0  0  0  0  0  0  0  0  0  0  0
   10.4231  -14.9292   18.6251 C   0  0  0  0  0  0  0  0  0  0  0  0
   10.1924  -16.1301   18.8739 O   0  0  0  0  0  0  0  0  0  0  0  0
   11.7505  -14.4486   18.5887 N   0  0  0  0  0  0  0  0  0  0  0  0
   12.9143  -15.3718   18.8462 C   0  0  1  0  0  0  0  0  0  0  0  0
   14.0482  -14.7048   18.0824 C   0  0  0  0  0  0  0  0  0  0  0  0
   14.2400  -15.0754   16.7001 C   0  0  0  0  0  0  0  0  0  0  0  0
   14.8157  -14.3921   15.8472 O   0  0  0  0  0  0  0  0  0  0  0  0
   13.1415  -15.2314   20.2985 C   0  0  0  0  0  0  0  0  0  0  0  0
   13.3219  -14.0419   20.7409 O   0  0  0  0  0  0  0  0  0  0  0  0
   13.7457  -16.3160   16.2322 O   0  0  0  0  0  0  0  0  0  0  0  0
   13.1664  -16.3059   21.2122 N   0  0  0  0  0  0  0  0  0  0  0  0
   13.3795  -15.9761   22.6326 C   0  0  1  0  0  0  0  0  0  0  0  0
   12.8264  -17.0691   23.5156 C   0  0  0  0  0  0  0  0  0  0  0  0
   11.3453  -17.1255   23.4150 C   0  0  0  0  0  0  0  0  0  0  0  0
   10.6776  -16.2856   22.7342 O   0  0  0  0  0  0  0  0  0  0  0  0
   14.8338  -15.8328   22.8599 C   0  0  0  0  0  0  0  0  0  0  0  0
   15.6839  -16.1143   21.9733 O   0  0  0  0  0  0  0  0  0  0  0  0
   10.6058  -18.1202   24.0745 O   0  0  0  0  0  0  0  0  0  0  0  0
   15.3075  -15.3750   24.0820 O   0  0  0  0  0  0  0  0  0  0  0  0
  2  1  1  6
  2  3  1  0
  4  6  1  0
  4  2  1  0
  4  5  1  6
  6  7  2  0
  8  6  1  0
  8  9  1  0
  9 10  1  6
 11 10  1  0
 11 15  1  0
 12 11  2  0
 13 16  1  0
 13  9  1  0
 14 13  2  0
 17 21  1  0
 17 18  1  1
 17 16  1  0
 19 18  1  0
 19 23  1  0
 20 19  2  0
 21 24  1  0
 22 21  2  0
M  END
$$$$
