VDD.pdb
     RDKit          3D

 24 23  0  0  1  0  0  0  0  0999 V2000
    7.5678  -12.5787   19.1031 C   0  0  0  0  0  0  0  0  0  0  0  0
    8.6663  -13.5210   19.5255 C   0  0  2  0  0  0  0  0  0  0  0  0
    9.5961  -12.8092   20.4536 C   0  0  0  0  0  0  0  0  0  0  0  0
    9.3378  -14.0417   18.2738 C   0  0  2  0  0  0  0  0  0  0  0  0
    8.2816  -14.7326   17.5179 N   0  0  0  0  0  0  0  0  0  0  0  0
   10.4463  -14.9704   18.5833 C   0  0  0  0  0  0  0  0  0  0  0  0
   10.2009  -16.1855   18.7271 O   0  0  0  0  0  0  0  0  0  0  0  0
   11.7666  -14.4871   18.7143 N   0  0  0  0  0  0  0  0  0  0  0  0
   12.9021  -15.4208   19.0488 C   0  0  1  0  0  0  0  0  0  0  0  0
   14.1082  -14.7109   18.4528 C   0  0  0  0  0  0  0  0  0  0  0  0
   14.4951  -15.0546   17.1048 C   0  0  0  0  0  0  0  0  0  0  0  0
   15.0211  -14.2880   16.2916 O   0  0  0  0  0  0  0  0  0  0  0  0
   12.9662  -15.3598   20.5229 C   0  0  0  0  0  0  0  0  0  0  0  0
   13.3946  -14.2660   21.0360 O   0  0  0  0  0  0  0  0  0  0  0  0
   14.2750  -16.3678   16.6259 O   0  0  0  0  0  0  0  0  0  0  0  0
   12.5867  -16.4103   21.3846 N   0  0  0  0  0  0  0  0  0  0  0  0
   12.7787  -16.1970   22.8301 C   0  0  1  0  0  0  0  0  0  0  0  0
   12.0062  -17.2256   23.6211 C   0  0  0  0  0  0  0  0  0  0  0  0
   10.5730  -17.2199   23.2302 C   0  0  0  0  0  0  0  0  0  0  0  0
    9.9238  -16.1439   23.0421 O   0  0  0  0  0  0  0  0  0  0  0  0
   14.2228  -16.3148   23.1260 C   0  0  0  0  0  0  0  0  0  0  0  0
   14.7621  -15.7143   24.0937 O   0  0  0  0  0  0  0  0  0  0  0  0
    9.8609  -18.4161   23.0480 O   0  0  0  0  0  0  0  0  0  0  0  0
   15.0366  -17.1069   22.3273 O   0  0  0  0  0  0  0  0  0  0  0  0
  2  1  1  6
  2  3  1  0
  4  6  1  0
  4  2  1  0
  4  5  1  6
  6  7  2  0
  8  6  1  0
  8  9  1  0
  9 10  1  6
 11 10  1  0
 11 15  1  0
 12 11  2  0
 13 16  1  0
 13  9  1  0
 14 13  2  0
 17 21  1  0
 17 18  1  1
 17 16  1  0
 19 18  1  0
 19 23  1  0
 20 19  2  0
 21 24  1  0
 22 21  2  0
M  END
$$$$
