VDD.pdb
     RDKit          3D

 24 23  0  0  1  0  0  0  0  0999 V2000
    6.8045  -13.8300   20.3219 C   0  0  0  0  0  0  0  0  0  0  0  0
    8.1081  -13.1760   19.9398 C   0  0  2  0  0  0  0  0  0  0  0  0
    8.0101  -12.6629   18.5400 C   0  0  0  0  0  0  0  0  0  0  0  0
    9.2123  -14.1907   20.1392 C   0  0  2  0  0  0  0  0  0  0  0  0
    8.9849  -15.2265   19.1196 N   0  0  0  0  0  0  0  0  0  0  0  0
    9.1852  -14.7822   21.4944 C   0  0  0  0  0  0  0  0  0  0  0  0
    9.2541  -14.0311   22.4886 O   0  0  0  0  0  0  0  0  0  0  0  0
    9.0825  -16.1808   21.6606 N   0  0  0  0  0  0  0  0  0  0  0  0
    9.0945  -16.7989   23.0356 C   0  0  1  0  0  0  0  0  0  0  0  0
    8.1538  -17.9842   22.8798 C   0  0  0  0  0  0  0  0  0  0  0  0
    6.7584  -17.7835   23.1924 C   0  0  0  0  0  0  0  0  0  0  0  0
    6.3228  -17.0921   24.1185 O   0  0  0  0  0  0  0  0  0  0  0  0
   10.4834  -17.2803   23.1772 C   0  0  0  0  0  0  0  0  0  0  0  0
   10.7150  -18.4866   22.8107 O   0  0  0  0  0  0  0  0  0  0  0  0
    5.7661  -18.4096   22.4014 O   0  0  0  0  0  0  0  0  0  0  0  0
   11.5516  -16.5063   23.6768 N   0  0  0  0  0  0  0  0  0  0  0  0
   12.8447  -17.1874   23.8661 C   0  0  1  0  0  0  0  0  0  0  0  0
   13.9726  -16.1833   23.8728 C   0  0  0  0  0  0  0  0  0  0  0  0
   14.2227  -15.6663   22.5027 C   0  0  0  0  0  0  0  0  0  0  0  0
   13.8712  -16.3034   21.4609 O   0  0  0  0  0  0  0  0  0  0  0  0
   12.8028  -17.9062   25.1579 C   0  0  0  0  0  0  0  0  0  0  0  0
   12.0582  -17.5413   26.1066 O   0  0  0  0  0  0  0  0  0  0  0  0
   14.8659  -14.4363   22.2923 O   0  0  0  0  0  0  0  0  0  0  0  0
   13.6004  -19.0243   25.3605 O   0  0  0  0  0  0  0  0  0  0  0  0
  2  1  1  6
  2  3  1  0
  4  6  1  0
  4  2  1  0
  4  5  1  6
  6  7  2  0
  8  6  1  0
  8  9  1  0
  9 10  1  6
 11 10  1  0
 11 15  1  0
 12 11  2  0
 13 16  1  0
 13  9  1  0
 14 13  2  0
 17 21  1  0
 17 18  1  1
 17 16  1  0
 19 18  1  0
 19 23  1  0
 20 19  2  0
 21 24  1  0
 22 21  2  0
M  END
$$$$
