VDD.pdb
     RDKit          3D

 24 23  0  0  1  0  0  0  0  0999 V2000
    7.4928  -13.7473   20.5889 C   0  0  0  0  0  0  0  0  0  0  0  0
    8.4282  -12.9492   19.7164 C   0  0  2  0  0  0  0  0  0  0  0  0
    7.6505  -12.3212   18.6058 C   0  0  0  0  0  0  0  0  0  0  0  0
    9.5247  -13.8771   19.2414 C   0  0  2  0  0  0  0  0  0  0  0  0
    8.8637  -14.8474   18.3549 N   0  0  0  0  0  0  0  0  0  0  0  0
   10.1908  -14.5708   20.3647 C   0  0  0  0  0  0  0  0  0  0  0  0
   10.6623  -13.8970   21.3034 O   0  0  0  0  0  0  0  0  0  0  0  0
   10.2918  -15.9793   20.3743 N   0  0  0  0  0  0  0  0  0  0  0  0
   11.0088  -16.6955   21.4906 C   0  0  1  0  0  0  0  0  0  0  0  0
   10.4051  -18.0907   21.4377 C   0  0  0  0  0  0  0  0  0  0  0  0
    9.1105  -18.2889   22.0457 C   0  0  0  0  0  0  0  0  0  0  0  0
    8.7775  -17.8969   23.1687 O   0  0  0  0  0  0  0  0  0  0  0  0
   12.4077  -16.7397   21.0195 C   0  0  0  0  0  0  0  0  0  0  0  0
   12.5870  -16.9236   19.7637 O   0  0  0  0  0  0  0  0  0  0  0  0
    8.1027  -18.9849   21.3370 O   0  0  0  0  0  0  0  0  0  0  0  0
   13.5373  -16.5893   21.8511 N   0  0  0  0  0  0  0  0  0  0  0  0
   14.8289  -16.3301   21.1905 C   0  0  1  0  0  0  0  0  0  0  0  0
   14.7393  -15.0960   20.3250 C   0  0  0  0  0  0  0  0  0  0  0  0
   16.0176  -14.8672   19.6036 C   0  0  0  0  0  0  0  0  0  0  0  0
   16.1582  -13.9396   18.7466 O   0  0  0  0  0  0  0  0  0  0  0  0
   15.8530  -16.1360   22.2397 C   0  0  0  0  0  0  0  0  0  0  0  0
   15.9394  -15.0700   22.9059 O   0  0  0  0  0  0  0  0  0  0  0  0
   17.1427  -15.6738   19.8375 O   0  0  0  0  0  0  0  0  0  0  0  0
   16.7634  -17.1456   22.5216 O   0  0  0  0  0  0  0  0  0  0  0  0
  2  1  1  1
  2  3  1  0
  4  6  1  0
  4  2  1  0
  4  5  1  6
  6  7  2  0
  8  6  1  0
  8  9  1  0
  9 10  1  6
 11 10  1  0
 11 15  1  0
 12 11  2  0
 13 16  1  0
 13  9  1  0
 14 13  2  0
 17 21  1  0
 17 18  1  1
 17 16  1  0
 19 18  1  0
 19 23  1  0
 20 19  2  0
 21 24  1  0
 22 21  2  0
M  END
$$$$
