VDD.pdb
     RDKit          3D

 24 23  0  0  1  0  0  0  0  0999 V2000
    7.9267  -12.9651   26.9113 C   0  0  0  0  0  0  0  0  0  0  0  0
    7.3271  -12.4057   25.6462 C   0  0  2  0  0  0  0  0  0  0  0  0
    6.7106  -11.0766   25.9390 C   0  0  0  0  0  0  0  0  0  0  0  0
    6.3473  -13.4245   25.1071 C   0  0  2  0  0  0  0  0  0  0  0  0
    5.3454  -13.6083   26.1686 N   0  0  0  0  0  0  0  0  0  0  0  0
    7.0034  -14.7101   24.7850 C   0  0  0  0  0  0  0  0  0  0  0  0
    6.7682  -15.7090   25.4952 O   0  0  0  0  0  0  0  0  0  0  0  0
    7.8857  -14.8055   23.6865 N   0  0  0  0  0  0  0  0  0  0  0  0
    8.5682  -16.1079   23.3538 C   0  0  1  0  0  0  0  0  0  0  0  0
    8.8714  -15.9596   21.8705 C   0  0  0  0  0  0  0  0  0  0  0  0
    9.4576  -17.0877   21.1859 C   0  0  0  0  0  0  0  0  0  0  0  0
    9.4246  -18.2595   21.5749 O   0  0  0  0  0  0  0  0  0  0  0  0
    9.8236  -16.0386   24.1284 C   0  0  0  0  0  0  0  0  0  0  0  0
   10.8459  -15.5535   23.5260 O   0  0  0  0  0  0  0  0  0  0  0  0
   10.1386  -16.8876   19.9617 O   0  0  0  0  0  0  0  0  0  0  0  0
    9.9623  -16.4607   25.4672 N   0  0  0  0  0  0  0  0  0  0  0  0
   11.1808  -17.2145   25.8119 C   0  0  1  0  0  0  0  0  0  0  0  0
   10.8454  -18.6615   26.0840 C   0  0  0  0  0  0  0  0  0  0  0  0
   10.2197  -18.8120   27.4230 C   0  0  0  0  0  0  0  0  0  0  0  0
   10.7972  -18.4334   28.4898 O   0  0  0  0  0  0  0  0  0  0  0  0
   12.1191  -17.1208   24.6726 C   0  0  0  0  0  0  0  0  0  0  0  0
   11.8158  -16.5368   23.5980 O   0  0  0  0  0  0  0  0  0  0  0  0
    8.9472  -19.3855   27.5743 O   0  0  0  0  0  0  0  0  0  0  0  0
   13.3838  -17.6866   24.7617 O   0  0  0  0  0  0  0  0  0  0  0  0
  2  1  1  1
  2  3  1  0
  4  6  1  0
  4  2  1  0
  4  5  1  1
  6  7  2  0
  8  6  1  0
  8  9  1  0
  9 10  1  6
 11 10  1  0
 11 15  1  0
 12 11  2  0
 13 16  1  0
 13  9  1  0
 14 13  2  0
 17 21  1  0
 17 18  1  6
 17 16  1  0
 19 18  1  0
 19 23  1  0
 20 19  2  0
 21 24  1  0
 22 21  2  0
M  END
$$$$
