VDD.pdb
     RDKit          3D

 24 23  0  0  1  0  0  0  0  0999 V2000
    7.4961  -12.5837   20.5574 C   0  0  0  0  0  0  0  0  0  0  0  0
    8.4320  -13.2853   19.6062 C   0  0  2  0  0  0  0  0  0  0  0  0
    8.3712  -12.6158   18.2718 C   0  0  0  0  0  0  0  0  0  0  0  0
    8.0469  -14.7479   19.5703 C   0  0  2  0  0  0  0  0  0  0  0  0
    6.7087  -14.7884   18.9605 N   0  0  0  0  0  0  0  0  0  0  0  0
    8.0195  -15.3485   20.9215 C   0  0  0  0  0  0  0  0  0  0  0  0
    7.0737  -15.0781   21.6894 O   0  0  0  0  0  0  0  0  0  0  0  0
    9.0520  -16.2177   21.3370 N   0  0  0  0  0  0  0  0  0  0  0  0
    9.0286  -16.8466   22.7070 C   0  0  1  0  0  0  0  0  0  0  0  0
    8.2691  -18.1430   22.4691 C   0  0  0  0  0  0  0  0  0  0  0  0
    6.8326  -18.0698   22.3435 C   0  0  0  0  0  0  0  0  0  0  0  0
    6.2049  -18.0583   21.2798 O   0  0  0  0  0  0  0  0  0  0  0  0
   10.4518  -17.1432   22.9665 C   0  0  0  0  0  0  0  0  0  0  0  0
   11.1377  -17.5847   21.9776 O   0  0  0  0  0  0  0  0  0  0  0  0
    6.0299  -18.0040   23.5071 O   0  0  0  0  0  0  0  0  0  0  0  0
   11.0915  -16.9686   24.2116 N   0  0  0  0  0  0  0  0  0  0  0  0
   12.5227  -17.3122   24.2864 C   0  0  1  0  0  0  0  0  0  0  0  0
   13.3701  -16.0698   24.1502 C   0  0  0  0  0  0  0  0  0  0  0  0
   14.6307  -16.3716   23.4245 C   0  0  0  0  0  0  0  0  0  0  0  0
   14.9062  -17.5355   22.9953 O   0  0  0  0  0  0  0  0  0  0  0  0
   12.7755  -17.9533   25.5949 C   0  0  0  0  0  0  0  0  0  0  0  0
   12.1585  -17.6145   26.6401 O   0  0  0  0  0  0  0  0  0  0  0  0
   15.5872  -15.3743   23.1760 O   0  0  0  0  0  0  0  0  0  0  0  0
   13.7193  -18.9654   25.7054 O   0  0  0  0  0  0  0  0  0  0  0  0
  2  1  1  1
  2  3  1  0
  4  6  1  0
  4  2  1  0
  4  5  1  1
  6  7  2  0
  8  6  1  0
  8  9  1  0
  9 10  1  6
 11 10  1  0
 11 15  1  0
 12 11  2  0
 13 16  1  0
 13  9  1  0
 14 13  2  0
 17 21  1  0
 17 18  1  1
 17 16  1  0
 19 18  1  0
 19 23  1  0
 20 19  2  0
 21 24  1  0
 22 21  2  0
M  END
$$$$
