VDD.pdb
     RDKit          3D

 24 23  0  0  1  0  0  0  0  0999 V2000
    9.8815  -12.5404   19.4650 C   0  0  0  0  0  0  0  0  0  0  0  0
    8.4002  -12.7312   19.2590 C   0  0  2  0  0  0  0  0  0  0  0  0
    7.7178  -12.7609   20.5878 C   0  0  0  0  0  0  0  0  0  0  0  0
    8.2033  -13.9920   18.4464 C   0  0  2  0  0  0  0  0  0  0  0  0
    6.7669  -14.0381   18.1317 N   0  0  0  0  0  0  0  0  0  0  0  0
    8.6100  -15.2027   19.1921 C   0  0  0  0  0  0  0  0  0  0  0  0
    7.7675  -15.7967   19.8955 O   0  0  0  0  0  0  0  0  0  0  0  0
    9.9363  -15.6802   19.1085 N   0  0  0  0  0  0  0  0  0  0  0  0
   10.3377  -16.9689   19.7802 C   0  0  1  0  0  0  0  0  0  0  0  0
   11.1015  -17.6960   18.6838 C   0  0  0  0  0  0  0  0  0  0  0  0
   11.5402  -19.0459   18.9488 C   0  0  0  0  0  0  0  0  0  0  0  0
   12.1471  -19.4180   19.9581 O   0  0  0  0  0  0  0  0  0  0  0  0
   11.2761  -16.5241   20.8302 C   0  0  0  0  0  0  0  0  0  0  0  0
   11.4177  -15.2587   20.9776 O   0  0  0  0  0  0  0  0  0  0  0  0
   11.2774  -20.0663   18.0043 O   0  0  0  0  0  0  0  0  0  0  0  0
   12.0082  -17.3908   21.6685 N   0  0  0  0  0  0  0  0  0  0  0  0
   12.1352  -17.0072   23.0857 C   0  0  1  0  0  0  0  0  0  0  0  0
   10.7705  -16.8444   23.7114 C   0  0  0  0  0  0  0  0  0  0  0  0
   10.8910  -16.5250   25.1572 C   0  0  0  0  0  0  0  0  0  0  0  0
   11.0553  -17.4236   26.0406 O   0  0  0  0  0  0  0  0  0  0  0  0
   12.8865  -18.0712   23.7862 C   0  0  0  0  0  0  0  0  0  0  0  0
   13.7536  -17.8157   24.6640 O   0  0  0  0  0  0  0  0  0  0  0  0
   10.8286  -15.2012   25.6204 O   0  0  0  0  0  0  0  0  0  0  0  0
   12.6493  -19.4060   23.4866 O   0  0  0  0  0  0  0  0  0  0  0  0
  2  1  1  1
  2  3  1  0
  4  6  1  0
  4  2  1  0
  4  5  1  1
  6  7  2  0
  8  6  1  0
  8  9  1  0
  9 10  1  6
 11 10  1  0
 11 15  1  0
 12 11  2  0
 13 16  1  0
 13  9  1  0
 14 13  2  0
 17 21  1  0
 17 18  1  1
 17 16  1  0
 19 18  1  0
 19 23  1  0
 20 19  2  0
 21 24  1  0
 22 21  2  0
M  END
$$$$
