VDD.pdb
     RDKit          3D

 24 23  0  0  1  0  0  0  0  0999 V2000
    7.5775  -13.4176   20.7681 C   0  0  0  0  0  0  0  0  0  0  0  0
    8.5537  -13.0430   19.6819 C   0  0  2  0  0  0  0  0  0  0  0  0
    8.1379  -11.7438   19.0724 C   0  0  0  0  0  0  0  0  0  0  0  0
    8.6101  -14.1873   18.6939 C   0  0  2  0  0  0  0  0  0  0  0  0
    7.2545  -14.2898   18.1314 N   0  0  0  0  0  0  0  0  0  0  0  0
    9.0016  -15.4593   19.3387 C   0  0  0  0  0  0  0  0  0  0  0  0
    8.1147  -16.2710   19.6735 O   0  0  0  0  0  0  0  0  0  0  0  0
   10.3633  -15.7513   19.5724 N   0  0  0  0  0  0  0  0  0  0  0  0
   10.7927  -17.1226   20.0285 C   0  0  1  0  0  0  0  0  0  0  0  0
   11.7746  -17.5450   18.9461 C   0  0  0  0  0  0  0  0  0  0  0  0
   11.2453  -18.2022   17.7745 C   0  0  0  0  0  0  0  0  0  0  0  0
   10.3400  -19.0425   17.7705 O   0  0  0  0  0  0  0  0  0  0  0  0
   11.5218  -16.8481   21.2830 C   0  0  0  0  0  0  0  0  0  0  0  0
   12.0214  -15.6750   21.4140 O   0  0  0  0  0  0  0  0  0  0  0  0
   11.7738  -17.8930   16.4987 O   0  0  0  0  0  0  0  0  0  0  0  0
   11.6939  -17.7792   22.3287 N   0  0  0  0  0  0  0  0  0  0  0  0
   12.2707  -17.2769   23.5883 C   0  0  1  0  0  0  0  0  0  0  0  0
   11.7322  -18.0588   24.7626 C   0  0  0  0  0  0  0  0  0  0  0  0
   12.4939  -17.7412   25.9979 C   0  0  0  0  0  0  0  0  0  0  0  0
   13.3622  -18.5318   26.4835 O   0  0  0  0  0  0  0  0  0  0  0  0
   13.7402  -17.4267   23.5150 C   0  0  0  0  0  0  0  0  0  0  0  0
   14.2916  -18.3074   22.8023 O   0  0  0  0  0  0  0  0  0  0  0  0
   12.2881  -16.5396   26.6943 O   0  0  0  0  0  0  0  0  0  0  0  0
   14.5651  -16.5822   24.2457 O   0  0  0  0  0  0  0  0  0  0  0  0
  2  1  1  1
  2  3  1  0
  4  6  1  0
  4  2  1  0
  4  5  1  1
  6  7  2  0
  8  6  1  0
  8  9  1  0
  9 10  1  6
 11 10  1  0
 11 15  1  0
 12 11  2  0
 13 16  1  0
 13  9  1  0
 14 13  2  0
 17 21  1  0
 17 18  1  1
 17 16  1  0
 19 18  1  0
 19 23  1  0
 20 19  2  0
 21 24  1  0
 22 21  2  0
M  END
$$$$
