VDD.pdb
     RDKit          3D

 24 23  0  0  1  0  0  0  0  0999 V2000
    7.1219  -11.6760   24.8480 C   0  0  0  0  0  0  0  0  0  0  0  0
    6.2404  -12.3471   25.8705 C   0  0  2  0  0  0  0  0  0  0  0  0
    6.1756  -11.4980   27.0983 C   0  0  0  0  0  0  0  0  0  0  0  0
    6.7911  -13.7340   26.1192 C   0  0  2  0  0  0  0  0  0  0  0  0
    8.0970  -13.5298   26.7653 N   0  0  0  0  0  0  0  0  0  0  0  0
    6.9473  -14.5029   24.8656 C   0  0  0  0  0  0  0  0  0  0  0  0
    5.9290  -14.8542   24.2355 O   0  0  0  0  0  0  0  0  0  0  0  0
    8.2340  -14.8351   24.3879 N   0  0  0  0  0  0  0  0  0  0  0  0
    8.4057  -15.6368   23.1227 C   0  0  1  0  0  0  0  0  0  0  0  0
    7.8404  -14.7096   22.0575 C   0  0  0  0  0  0  0  0  0  0  0  0
    7.7834  -15.1976   20.6997 C   0  0  0  0  0  0  0  0  0  0  0  0
    7.3151  -16.2848   20.3470 O   0  0  0  0  0  0  0  0  0  0  0  0
    9.8725  -15.7273   22.9770 C   0  0  0  0  0  0  0  0  0  0  0  0
   10.5302  -14.6319   23.0803 O   0  0  0  0  0  0  0  0  0  0  0  0
    8.2938  -14.4016   19.6470 O   0  0  0  0  0  0  0  0  0  0  0  0
   10.5809  -16.9241   22.7409 N   0  0  0  0  0  0  0  0  0  0  0  0
   11.4552  -17.4126   23.8221 C   0  0  1  0  0  0  0  0  0  0  0  0
   10.6586  -17.6264   25.0871 C   0  0  0  0  0  0  0  0  0  0  0  0
   11.5334  -18.1238   26.1800 C   0  0  0  0  0  0  0  0  0  0  0  0
   12.7431  -18.4594   25.9832 O   0  0  0  0  0  0  0  0  0  0  0  0
   12.0592  -18.6899   23.3855 C   0  0  0  0  0  0  0  0  0  0  0  0
   13.3066  -18.8565   23.3209 O   0  0  0  0  0  0  0  0  0  0  0  0
   11.0595  -18.2477   27.4957 O   0  0  0  0  0  0  0  0  0  0  0  0
   11.2488  -19.7591   23.0284 O   0  0  0  0  0  0  0  0  0  0  0  0
  2  1  1  6
  2  3  1  0
  4  6  1  0
  4  2  1  0
  4  5  1  6
  6  7  2  0
  8  6  1  0
  8  9  1  0
  9 10  1  6
 11 10  1  0
 11 15  1  0
 12 11  2  0
 13 16  1  0
 13  9  1  0
 14 13  2  0
 17 21  1  0
 17 18  1  1
 17 16  1  0
 19 18  1  0
 19 23  1  0
 20 19  2  0
 21 24  1  0
 22 21  2  0
M  END
$$$$
