YPL.pdb
     RDKit          3D

 28 29  0  0  1  0  0  0  0  0999 V2000
    6.9139  -15.7252   28.2984 O   0  0  0  0  0  0  0  0  0  0  0  0
    6.8274  -16.5768   27.1956 C   0  0  0  0  0  0  0  0  0  0  0  0
    7.5479  -17.7326   27.0938 C   0  0  0  0  0  0  0  0  0  0  0  0
    7.4439  -18.5544   25.9955 C   0  0  0  0  0  0  0  0  0  0  0  0
    6.6009  -18.2225   24.9664 C   0  0  0  0  0  0  0  0  0  0  0  0
    6.4519  -19.0743   23.7709 C   0  0  0  0  0  0  0  0  0  0  0  0
    6.6119  -18.2792   22.5165 C   0  0  2  0  0  0  0  0  0  0  0  0
    6.3711  -19.0187   21.3204 N   0  0  0  0  0  0  0  0  0  0  0  0
    7.8998  -17.5223   22.4987 C   0  0  0  0  0  0  0  0  0  0  0  0
    9.0028  -18.1645   22.5348 O   0  0  0  0  0  0  0  0  0  0  0  0
    5.8668  -17.0618   25.0511 C   0  0  0  0  0  0  0  0  0  0  0  0
    5.9851  -16.2529   26.1584 C   0  0  0  0  0  0  0  0  0  0  0  0
    7.9817  -16.1136   22.4435 N   0  0  0  0  0  0  0  0  0  0  0  0
    6.8333  -15.2252   22.5675 C   0  0  0  0  0  0  0  0  0  0  0  0
    7.4531  -13.8234   22.6322 C   0  0  0  0  0  0  0  0  0  0  0  0
    8.6394  -14.0175   21.6869 C   0  0  0  0  0  0  0  0  0  0  0  0
    9.1919  -15.3262   22.2571 C   0  0  1  0  0  0  0  0  0  0  0  0
    9.7430  -15.0093   23.6032 C   0  0  0  0  0  0  0  0  0  0  0  0
    9.8510  -13.8060   24.0183 O   0  0  0  0  0  0  0  0  0  0  0  0
   11.0402  -13.0561   27.3768 C   0  0  0  0  0  0  0  0  0  0  0  0
    9.7411  -13.4783   26.7210 C   0  0  2  0  0  0  0  0  0  0  0  0
    8.5774  -12.6671   27.1746 C   0  0  0  0  0  0  0  0  0  0  0  0
    9.5599  -14.9322   26.5631 C   0  0  0  0  0  0  0  0  0  0  0  0
   10.6276  -15.6970   25.8804 C   0  0  2  0  0  0  0  0  0  0  0  0
   10.1804  -16.0128   24.5045 N   0  0  0  0  0  0  0  0  0  0  0  0
   10.9511  -16.9729   26.5046 C   0  0  0  0  0  0  0  0  0  0  0  0
   10.6041  -18.2054   26.0010 O   0  0  0  0  0  0  0  0  0  0  0  0
   11.5977  -16.9963   27.6007 O   0  0  0  0  0  0  0  0  0  0  0  0
  2 12  2  0
  2  1  1  0
  3  2  1  0
  4  5  1  0
  4  3  2  0
  5 11  2  0
  6  5  1  0
  7  6  1  0
  7  9  1  0
  7  8  1  6
  9 10  2  0
  9 13  1  0
 11 12  1  0
 13 14  1  0
 14 15  1  0
 16 15  1  0
 17 13  1  0
 17 16  1  0
 17 18  1  1
 19 18  2  0
 21 20  1  1
 21 22  1  0
 23 21  1  0
 24 23  1  1
 24 25  1  0
 25 18  1  0
 26 27  1  0
 26 24  1  0
 28 26  2  0
M  END
$$$$
