YPL.pdb
     RDKit          3D

 28 29  0  0  1  0  0  0  0  0999 V2000
    7.1299  -13.3312   15.4185 O   0  0  0  0  0  0  0  0  0  0  0  0
    7.2723  -13.7723   16.7353 C   0  0  0  0  0  0  0  0  0  0  0  0
    7.0105  -15.0568   17.1186 C   0  0  0  0  0  0  0  0  0  0  0  0
    7.1590  -15.4659   18.4236 C   0  0  0  0  0  0  0  0  0  0  0  0
    7.5797  -14.5766   19.3787 C   0  0  0  0  0  0  0  0  0  0  0  0
    7.7584  -14.9697   20.7895 C   0  0  0  0  0  0  0  0  0  0  0  0
    9.0402  -14.4371   21.3416 C   0  0  2  0  0  0  0  0  0  0  0  0
   10.1975  -14.8057   20.5930 N   0  0  0  0  0  0  0  0  0  0  0  0
    9.1686  -14.7050   22.8057 C   0  0  0  0  0  0  0  0  0  0  0  0
   10.1423  -15.4147   23.2282 O   0  0  0  0  0  0  0  0  0  0  0  0
    7.8482  -13.2781   19.0114 C   0  0  0  0  0  0  0  0  0  0  0  0
    7.6933  -12.8885   17.7005 C   0  0  0  0  0  0  0  0  0  0  0  0
    8.2661  -14.2157   23.7753 N   0  0  0  0  0  0  0  0  0  0  0  0
    6.9867  -13.5946   23.4577 C   0  0  0  0  0  0  0  0  0  0  0  0
    6.3125  -13.4129   24.8237 C   0  0  0  0  0  0  0  0  0  0  0  0
    7.5396  -13.1055   25.6828 C   0  0  0  0  0  0  0  0  0  0  0  0
    8.4514  -14.2443   25.2190 C   0  0  1  0  0  0  0  0  0  0  0  0
    7.8547  -15.5081   25.7317 C   0  0  0  0  0  0  0  0  0  0  0  0
    7.0949  -16.2346   25.0059 O   0  0  0  0  0  0  0  0  0  0  0  0
   10.6693  -14.2011   30.8349 C   0  0  0  0  0  0  0  0  0  0  0  0
   10.7172  -15.1049   29.6197 C   0  0  2  0  0  0  0  0  0  0  0  0
   12.0336  -15.0649   28.9244 C   0  0  0  0  0  0  0  0  0  0  0  0
    9.4938  -15.1196   28.7984 C   0  0  0  0  0  0  0  0  0  0  0  0
    9.4452  -16.0366   27.6375 C   0  0  2  0  0  0  0  0  0  0  0  0
    8.0883  -15.9840   27.0468 N   0  0  0  0  0  0  0  0  0  0  0  0
    9.6928  -17.4353   27.9608 C   0  0  0  0  0  0  0  0  0  0  0  0
    8.8453  -18.2356   28.6918 O   0  0  0  0  0  0  0  0  0  0  0  0
   10.7623  -17.9982   27.5616 O   0  0  0  0  0  0  0  0  0  0  0  0
  2 12  2  0
  2  1  1  0
  3  2  1  0
  4  5  1  0
  4  3  2  0
  5 11  2  0
  6  5  1  0
  7  6  1  0
  7  9  1  0
  7  8  1  6
  9 10  2  0
  9 13  1  0
 11 12  1  0
 13 14  1  0
 14 15  1  0
 16 15  1  0
 17 13  1  0
 17 16  1  0
 17 18  1  1
 19 18  2  0
 21 20  1  1
 21 22  1  0
 23 21  1  0
 24 23  1  1
 24 25  1  0
 25 18  1  0
 26 27  1  0
 26 24  1  0
 28 26  2  0
M  END
$$$$
