YPL.pdb
     RDKit          3D

 28 29  0  0  1  0  0  0  0  0999 V2000
    0.2595  -19.7898   19.7212 O   0  0  0  0  0  0  0  0  0  0  0  0
    1.3704  -19.2912   20.4040 C   0  0  0  0  0  0  0  0  0  0  0  0
    2.3494  -18.5610   19.7925 C   0  0  0  0  0  0  0  0  0  0  0  0
    3.4343  -18.0811   20.4888 C   0  0  0  0  0  0  0  0  0  0  0  0
    3.5543  -18.3311   21.8316 C   0  0  0  0  0  0  0  0  0  0  0  0
    4.6967  -17.8334   22.6215 C   0  0  0  0  0  0  0  0  0  0  0  0
    5.9465  -18.5851   22.2986 C   0  0  2  0  0  0  0  0  0  0  0  0
    5.8475  -19.9952   22.4918 N   0  0  0  0  0  0  0  0  0  0  0  0
    7.1448  -17.9778   22.9522 C   0  0  0  0  0  0  0  0  0  0  0  0
    7.5822  -18.4772   24.0428 O   0  0  0  0  0  0  0  0  0  0  0  0
    2.5778  -19.0651   22.4649 C   0  0  0  0  0  0  0  0  0  0  0  0
    1.5000  -19.5365   21.7504 C   0  0  0  0  0  0  0  0  0  0  0  0
    7.8417  -16.8644   22.4340 N   0  0  0  0  0  0  0  0  0  0  0  0
    7.3582  -16.0404   21.3336 C   0  0  0  0  0  0  0  0  0  0  0  0
    8.3556  -14.8763   21.2747 C   0  0  0  0  0  0  0  0  0  0  0  0
    9.6396  -15.6114   21.6614 C   0  0  0  0  0  0  0  0  0  0  0  0
    9.1278  -16.3607   22.8942 C   0  0  1  0  0  0  0  0  0  0  0  0
    8.8689  -15.3361   23.9427 C   0  0  0  0  0  0  0  0  0  0  0  0
    8.0154  -14.4012   23.7716 O   0  0  0  0  0  0  0  0  0  0  0  0
    7.7318  -11.9090   26.0224 C   0  0  0  0  0  0  0  0  0  0  0  0
    6.9785  -13.2164   26.1598 C   0  0  2  0  0  0  0  0  0  0  0  0
    5.6481  -13.0486   26.8078 C   0  0  0  0  0  0  0  0  0  0  0  0
    7.8002  -14.3783   26.5425 C   0  0  0  0  0  0  0  0  0  0  0  0
    9.2493  -14.3353   26.2437 C   0  0  2  0  0  0  0  0  0  0  0  0
    9.5465  -15.3305   25.1883 N   0  0  0  0  0  0  0  0  0  0  0  0
   10.1094  -14.6702   27.3708 C   0  0  0  0  0  0  0  0  0  0  0  0
   10.8323  -13.7596   28.1064 O   0  0  0  0  0  0  0  0  0  0  0  0
   10.2345  -15.8838   27.7337 O   0  0  0  0  0  0  0  0  0  0  0  0
  2 12  2  0
  2  1  1  0
  3  2  1  0
  4  5  1  0
  4  3  2  0
  5 11  2  0
  6  5  1  0
  7  6  1  0
  7  9  1  0
  7  8  1  1
  9 10  2  0
  9 13  1  0
 11 12  1  0
 13 14  1  0
 14 15  1  0
 16 15  1  0
 17 13  1  0
 17 16  1  0
 17 18  1  1
 19 18  2  0
 21 20  1  1
 21 22  1  0
 23 21  1  0
 24 23  1  1
 24 25  1  0
 25 18  1  0
 26 27  1  0
 26 24  1  0
 28 26  2  0
M  END
$$$$
