YPL.pdb
     RDKit          3D

 28 29  0  0  1  0  0  0  0  0999 V2000
    7.7145  -19.4777   28.0375 O   0  0  0  0  0  0  0  0  0  0  0  0
    7.2364  -19.3360   26.7336 C   0  0  0  0  0  0  0  0  0  0  0  0
    6.6936  -18.1732   26.2660 C   0  0  0  0  0  0  0  0  0  0  0  0
    6.2297  -18.0600   24.9759 C   0  0  0  0  0  0  0  0  0  0  0  0
    6.3053  -19.1302   24.1222 C   0  0  0  0  0  0  0  0  0  0  0  0
    5.8257  -19.0555   22.7289 C   0  0  0  0  0  0  0  0  0  0  0  0
    6.9632  -19.0995   21.7618 C   0  0  2  0  0  0  0  0  0  0  0  0
    7.6244  -20.3619   21.6934 N   0  0  0  0  0  0  0  0  0  0  0  0
    7.8969  -17.9484   21.9490 C   0  0  0  0  0  0  0  0  0  0  0  0
    9.0966  -18.1714   22.3246 O   0  0  0  0  0  0  0  0  0  0  0  0
    6.8490  -20.3101   24.5755 C   0  0  0  0  0  0  0  0  0  0  0  0
    7.3075  -20.4032   25.8699 C   0  0  0  0  0  0  0  0  0  0  0  0
    7.5342  -16.6007   21.7341 N   0  0  0  0  0  0  0  0  0  0  0  0
    6.2123  -16.1725   21.2952 C   0  0  0  0  0  0  0  0  0  0  0  0
    6.2657  -14.6425   21.3925 C   0  0  0  0  0  0  0  0  0  0  0  0
    7.7236  -14.4054   20.9965 C   0  0  0  0  0  0  0  0  0  0  0  0
    8.3928  -15.4378   21.9072 C   0  0  1  0  0  0  0  0  0  0  0  0
    8.2264  -14.9503   23.3040 C   0  0  0  0  0  0  0  0  0  0  0  0
    7.1852  -15.2248   23.9913 O   0  0  0  0  0  0  0  0  0  0  0  0
    5.6756  -12.5977   26.9538 C   0  0  0  0  0  0  0  0  0  0  0  0
    7.1742  -12.7846   26.8308 C   0  0  2  0  0  0  0  0  0  0  0  0
    7.9453  -11.7960   27.6347 C   0  0  0  0  0  0  0  0  0  0  0  0
    7.6578  -13.1143   25.4784 C   0  0  0  0  0  0  0  0  0  0  0  0
    9.0243  -13.6669   25.3429 C   0  0  2  0  0  0  0  0  0  0  0  0
    9.2034  -14.1568   23.9570 N   0  0  0  0  0  0  0  0  0  0  0  0
    9.3074  -14.8002   26.2133 C   0  0  0  0  0  0  0  0  0  0  0  0
    9.9025  -15.9731   25.8092 O   0  0  0  0  0  0  0  0  0  0  0  0
    8.9937  -14.7466   27.4457 O   0  0  0  0  0  0  0  0  0  0  0  0
  2 12  2  0
  2  1  1  0
  3  2  1  0
  4  5  1  0
  4  3  2  0
  5 11  2  0
  6  5  1  0
  7  6  1  0
  7  9  1  0
  7  8  1  1
  9 10  2  0
  9 13  1  0
 11 12  1  0
 13 14  1  0
 14 15  1  0
 16 15  1  0
 17 13  1  0
 17 16  1  0
 17 18  1  1
 19 18  2  0
 21 20  1  6
 21 22  1  0
 23 21  1  0
 24 23  1  6
 24 25  1  0
 25 18  1  0
 26 27  1  0
 26 24  1  0
 28 26  2  0
M  END
$$$$
