YPL.pdb
     RDKit          3D

 28 29  0  0  1  0  0  0  0  0999 V2000
    6.4368  -10.5963   26.5974 O   0  0  0  0  0  0  0  0  0  0  0  0
    6.5202  -11.9869   26.5065 C   0  0  0  0  0  0  0  0  0  0  0  0
    5.4295  -12.8026   26.6082 C   0  0  0  0  0  0  0  0  0  0  0  0
    5.5393  -14.1707   26.5149 C   0  0  0  0  0  0  0  0  0  0  0  0
    6.7660  -14.7494   26.3147 C   0  0  0  0  0  0  0  0  0  0  0  0
    6.9330  -16.2111   26.2032 C   0  0  0  0  0  0  0  0  0  0  0  0
    6.4297  -16.7148   24.8901 C   0  0  2  0  0  0  0  0  0  0  0  0
    5.5304  -17.8176   24.9923 N   0  0  0  0  0  0  0  0  0  0  0  0
    7.5418  -16.9423   23.9188 C   0  0  0  0  0  0  0  0  0  0  0  0
    8.0898  -18.0937   23.8546 O   0  0  0  0  0  0  0  0  0  0  0  0
    7.8765  -13.9437   26.2098 C   0  0  0  0  0  0  0  0  0  0  0  0
    7.7456  -12.5769   26.3060 C   0  0  0  0  0  0  0  0  0  0  0  0
    8.0390  -15.9482   23.0478 N   0  0  0  0  0  0  0  0  0  0  0  0
    7.3954  -14.6588   22.8310 C   0  0  0  0  0  0  0  0  0  0  0  0
    8.3985  -13.8832   21.9676 C   0  0  0  0  0  0  0  0  0  0  0  0
    8.9564  -15.0283   21.1214 C   0  0  0  0  0  0  0  0  0  0  0  0
    9.2451  -16.0356   22.2372 C   0  0  1  0  0  0  0  0  0  0  0  0
   10.3733  -15.4814   23.0348 C   0  0  0  0  0  0  0  0  0  0  0  0
   10.6965  -14.2471   22.9730 O   0  0  0  0  0  0  0  0  0  0  0  0
    9.2330  -15.1070   28.2552 C   0  0  0  0  0  0  0  0  0  0  0  0
   10.4934  -15.0336   27.4174 C   0  0  2  0  0  0  0  0  0  0  0  0
   11.3113  -13.8246   27.7131 C   0  0  0  0  0  0  0  0  0  0  0  0
   10.3383  -15.4450   26.0109 C   0  0  0  0  0  0  0  0  0  0  0  0
   11.5560  -15.8156   25.2553 C   0  0  2  0  0  0  0  0  0  0  0  0
   11.1558  -16.2797   23.9072 N   0  0  0  0  0  0  0  0  0  0  0  0
   12.3271  -16.9014   25.8457 C   0  0  0  0  0  0  0  0  0  0  0  0
   13.5289  -16.7487   26.4979 O   0  0  0  0  0  0  0  0  0  0  0  0
   11.8968  -18.0971   25.7722 O   0  0  0  0  0  0  0  0  0  0  0  0
  2 12  2  0
  2  1  1  0
  3  2  1  0
  4  5  1  0
  4  3  2  0
  5 11  2  0
  6  5  1  0
  7  6  1  0
  7  9  1  0
  7  8  1  1
  9 10  2  0
  9 13  1  0
 11 12  1  0
 13 14  1  0
 14 15  1  0
 16 15  1  0
 17 13  1  0
 17 16  1  0
 17 18  1  1
 19 18  2  0
 21 20  1  6
 21 22  1  0
 23 21  1  0
 24 23  1  1
 24 25  1  0
 25 18  1  0
 26 27  1  0
 26 24  1  0
 28 26  2  0
M  END
$$$$
