YPL.pdb
     RDKit          3D

 28 29  0  0  1  0  0  0  0  0999 V2000
    0.8020  -20.1663   20.3759 O   0  0  0  0  0  0  0  0  0  0  0  0
    1.9779  -19.5844   20.8530 C   0  0  0  0  0  0  0  0  0  0  0  0
    2.7044  -20.1171   21.8796 C   0  0  0  0  0  0  0  0  0  0  0  0
    3.8604  -19.5233   22.3308 C   0  0  0  0  0  0  0  0  0  0  0  0
    4.3114  -18.3670   21.7482 C   0  0  0  0  0  0  0  0  0  0  0  0
    5.5478  -17.6966   22.1941 C   0  0  0  0  0  0  0  0  0  0  0  0
    6.6012  -17.7444   21.1362 C   0  0  2  0  0  0  0  0  0  0  0  0
    6.8999  -19.0582   20.6669 N   0  0  0  0  0  0  0  0  0  0  0  0
    7.8131  -16.9610   21.5227 C   0  0  0  0  0  0  0  0  0  0  0  0
    8.9054  -17.5772   21.7623 O   0  0  0  0  0  0  0  0  0  0  0  0
    3.5927  -17.8155   20.7126 C   0  0  0  0  0  0  0  0  0  0  0  0
    2.4385  -18.4248   20.2758 C   0  0  0  0  0  0  0  0  0  0  0  0
    7.8327  -15.5543   21.6438 N   0  0  0  0  0  0  0  0  0  0  0  0
    6.6709  -14.7016   21.4283 C   0  0  0  0  0  0  0  0  0  0  0  0
    7.1481  -13.3078   21.8564 C   0  0  0  0  0  0  0  0  0  0  0  0
    8.6048  -13.3768   21.3961 C   0  0  0  0  0  0  0  0  0  0  0  0
    8.9836  -14.7342   21.9936 C   0  0  1  0  0  0  0  0  0  0  0  0
    8.9920  -14.5651   23.4727 C   0  0  0  0  0  0  0  0  0  0  0  0
    9.4856  -13.5253   24.0267 O   0  0  0  0  0  0  0  0  0  0  0  0
    8.1891  -12.3915   26.8637 C   0  0  0  0  0  0  0  0  0  0  0  0
    7.1704  -13.0120   25.9292 C   0  0  2  0  0  0  0  0  0  0  0  0
    5.9164  -12.2144   25.8335 C   0  0  0  0  0  0  0  0  0  0  0  0
    7.0606  -14.4797   26.0039 C   0  0  0  0  0  0  0  0  0  0  0  0
    8.2889  -15.2811   25.8037 C   0  0  2  0  0  0  0  0  0  0  0  0
    8.4579  -15.5379   24.3552 N   0  0  0  0  0  0  0  0  0  0  0  0
    8.2702  -16.5876   26.4478 C   0  0  0  0  0  0  0  0  0  0  0  0
    8.1949  -17.7907   25.7844 O   0  0  0  0  0  0  0  0  0  0  0  0
    8.3208  -16.6692   27.7170 O   0  0  0  0  0  0  0  0  0  0  0  0
  2 12  2  0
  2  1  1  0
  3  2  1  0
  4  5  1  0
  4  3  2  0
  5 11  2  0
  6  5  1  0
  7  6  1  0
  7  9  1  0
  7  8  1  1
  9 10  2  0
  9 13  1  0
 11 12  1  0
 13 14  1  0
 14 15  1  0
 16 15  1  0
 17 13  1  0
 17 16  1  0
 17 18  1  1
 19 18  2  0
 21 20  1  1
 21 22  1  0
 23 21  1  0
 24 23  1  6
 24 25  1  0
 25 18  1  0
 26 27  1  0
 26 24  1  0
 28 26  2  0
M  END
$$$$
