YPL.pdb
     RDKit          3D

 28 29  0  0  1  0  0  0  0  0999 V2000
    7.6478  -19.8212   27.6780 O   0  0  0  0  0  0  0  0  0  0  0  0
    7.3208  -19.6707   26.3292 C   0  0  0  0  0  0  0  0  0  0  0  0
    7.7779  -20.5147   25.3575 C   0  0  0  0  0  0  0  0  0  0  0  0
    7.4403  -20.3439   24.0349 C   0  0  0  0  0  0  0  0  0  0  0  0
    6.6253  -19.3062   23.6623 C   0  0  0  0  0  0  0  0  0  0  0  0
    6.2318  -19.0854   22.2576 C   0  0  0  0  0  0  0  0  0  0  0  0
    7.4125  -18.7303   21.4142 C   0  0  2  0  0  0  0  0  0  0  0  0
    8.2546  -19.8358   21.0913 N   0  0  0  0  0  0  0  0  0  0  0  0
    8.1560  -17.5571   21.9646 C   0  0  0  0  0  0  0  0  0  0  0  0
    9.2937  -17.7402   22.5143 O   0  0  0  0  0  0  0  0  0  0  0  0
    6.1550  -18.4455   24.6273 C   0  0  0  0  0  0  0  0  0  0  0  0
    6.5044  -18.6334   25.9453 C   0  0  0  0  0  0  0  0  0  0  0  0
    7.6748  -16.2304   21.9169 N   0  0  0  0  0  0  0  0  0  0  0  0
    6.3908  -15.8493   21.3429 C   0  0  0  0  0  0  0  0  0  0  0  0
    6.2515  -14.3632   21.6971 C   0  0  0  0  0  0  0  0  0  0  0  0
    7.7143  -13.9302   21.5904 C   0  0  0  0  0  0  0  0  0  0  0  0
    8.3582  -15.0461   22.4170 C   0  0  1  0  0  0  0  0  0  0  0  0
    7.9336  -14.8350   23.8281 C   0  0  0  0  0  0  0  0  0  0  0  0
    6.7966  -15.2322   24.2538 O   0  0  0  0  0  0  0  0  0  0  0  0
   10.4706  -12.6648   29.0957 C   0  0  0  0  0  0  0  0  0  0  0  0
    9.4181  -13.5455   28.4535 C   0  0  2  0  0  0  0  0  0  0  0  0
    9.0441  -14.7091   29.3045 C   0  0  0  0  0  0  0  0  0  0  0  0
    9.5787  -13.7628   27.0048 C   0  0  0  0  0  0  0  0  0  0  0  0
    8.3694  -14.0693   26.2082 C   0  0  2  0  0  0  0  0  0  0  0  0
    8.7557  -14.1851   24.7834 N   0  0  0  0  0  0  0  0  0  0  0  0
    7.3324  -13.0477   26.2656 C   0  0  0  0  0  0  0  0  0  0  0  0
    6.2630  -13.0602   27.1312 O   0  0  0  0  0  0  0  0  0  0  0  0
    7.3768  -12.0544   25.4710 O   0  0  0  0  0  0  0  0  0  0  0  0
  2 12  2  0
  2  1  1  0
  3  2  1  0
  4  5  1  0
  4  3  2  0
  5 11  2  0
  6  5  1  0
  7  6  1  0
  7  9  1  0
  7  8  1  1
  9 10  2  0
  9 13  1  0
 11 12  1  0
 13 14  1  0
 14 15  1  0
 16 15  1  0
 17 13  1  0
 17 16  1  0
 17 18  1  1
 19 18  2  0
 21 20  1  1
 21 22  1  0
 23 21  1  0
 24 23  1  1
 24 25  1  0
 25 18  1  0
 26 27  1  0
 26 24  1  0
 28 26  2  0
M  END
$$$$
