YPL.pdb
     RDKit          3D

 28 29  0  0  1  0  0  0  0  0999 V2000
    6.4590  -10.7704   26.5190 O   0  0  0  0  0  0  0  0  0  0  0  0
    6.4126  -12.1648   26.4705 C   0  0  0  0  0  0  0  0  0  0  0  0
    7.5347  -12.9434   26.4597 C   0  0  0  0  0  0  0  0  0  0  0  0
    7.4610  -14.3162   26.4116 C   0  0  0  0  0  0  0  0  0  0  0  0
    6.2395  -14.9378   26.3733 C   0  0  0  0  0  0  0  0  0  0  0  0
    6.1099  -16.4068   26.3262 C   0  0  0  0  0  0  0  0  0  0  0  0
    6.0499  -16.8999   24.9175 C   0  0  2  0  0  0  0  0  0  0  0  0
    5.2240  -18.0488   24.7345 N   0  0  0  0  0  0  0  0  0  0  0  0
    7.4119  -17.0455   24.3210 C   0  0  0  0  0  0  0  0  0  0  0  0
    8.0558  -18.1346   24.4916 O   0  0  0  0  0  0  0  0  0  0  0  0
    5.0978  -14.1699   26.3834 C   0  0  0  0  0  0  0  0  0  0  0  0
    5.1928  -12.7977   26.4317 C   0  0  0  0  0  0  0  0  0  0  0  0
    8.0492  -16.0376   23.5646 N   0  0  0  0  0  0  0  0  0  0  0  0
    7.4758  -14.7217   23.3135 C   0  0  0  0  0  0  0  0  0  0  0  0
    8.6075  -13.9485   22.6243 C   0  0  0  0  0  0  0  0  0  0  0  0
    9.2446  -15.0803   21.8172 C   0  0  0  0  0  0  0  0  0  0  0  0
    9.3517  -16.1348   22.9215 C   0  0  1  0  0  0  0  0  0  0  0  0
   10.3752  -15.6450   23.8852 C   0  0  0  0  0  0  0  0  0  0  0  0
   10.5188  -14.4010   24.1376 O   0  0  0  0  0  0  0  0  0  0  0  0
   10.9072  -13.7800   27.1794 C   0  0  0  0  0  0  0  0  0  0  0  0
   10.4380  -15.2049   27.3931 C   0  0  2  0  0  0  0  0  0  0  0  0
    9.7212  -15.3869   28.6858 C   0  0  0  0  0  0  0  0  0  0  0  0
   11.3859  -16.2496   26.9670 C   0  0  0  0  0  0  0  0  0  0  0  0
   12.1107  -16.0541   25.6912 C   0  0  2  0  0  0  0  0  0  0  0  0
   11.2498  -16.5188   24.5796 N   0  0  0  0  0  0  0  0  0  0  0  0
   13.3548  -16.8039   25.5814 C   0  0  0  0  0  0  0  0  0  0  0  0
   14.5775  -16.3707   26.0401 O   0  0  0  0  0  0  0  0  0  0  0  0
   13.3582  -17.9476   25.0227 O   0  0  0  0  0  0  0  0  0  0  0  0
  2 12  2  0
  2  1  1  0
  3  2  1  0
  4  5  1  0
  4  3  2  0
  5 11  2  0
  6  5  1  0
  7  6  1  0
  7  9  1  0
  7  8  1  1
  9 10  2  0
  9 13  1  0
 11 12  1  0
 13 14  1  0
 14 15  1  0
 16 15  1  0
 17 13  1  0
 17 16  1  0
 17 18  1  1
 19 18  2  0
 21 20  1  1
 21 22  1  0
 23 21  1  0
 24 23  1  1
 24 25  1  0
 25 18  1  0
 26 27  1  0
 26 24  1  0
 28 26  2  0
M  END
$$$$
