YPL.pdb
     RDKit          3D

 28 29  0  0  1  0  0  0  0  0999 V2000
    6.6649  -14.1171   27.4446 O   0  0  0  0  0  0  0  0  0  0  0  0
    6.3685  -15.1043   26.5031 C   0  0  0  0  0  0  0  0  0  0  0  0
    5.5226  -14.8949   25.4514 C   0  0  0  0  0  0  0  0  0  0  0  0
    5.2473  -15.8854   24.5373 C   0  0  0  0  0  0  0  0  0  0  0  0
    5.8270  -17.1210   24.6677 C   0  0  0  0  0  0  0  0  0  0  0  0
    5.5664  -18.2128   23.7102 C   0  0  0  0  0  0  0  0  0  0  0  0
    6.2023  -17.9358   22.3873 C   0  0  2  0  0  0  0  0  0  0  0  0
    6.0419  -18.9819   21.4305 N   0  0  0  0  0  0  0  0  0  0  0  0
    7.6163  -17.4770   22.5355 C   0  0  0  0  0  0  0  0  0  0  0  0
    8.5230  -18.3290   22.8223 O   0  0  0  0  0  0  0  0  0  0  0  0
    6.6819  -17.3508   25.7211 C   0  0  0  0  0  0  0  0  0  0  0  0
    6.9443  -16.3467   26.6251 C   0  0  0  0  0  0  0  0  0  0  0  0
    8.0269  -16.1353   22.3765 N   0  0  0  0  0  0  0  0  0  0  0  0
    7.1107  -15.0228   22.1616 C   0  0  0  0  0  0  0  0  0  0  0  0
    8.0085  -13.7813   22.2400 C   0  0  0  0  0  0  0  0  0  0  0  0
    9.2831  -14.3391   21.6053 C   0  0  0  0  0  0  0  0  0  0  0  0
    9.3972  -15.6439   22.3975 C   0  0  1  0  0  0  0  0  0  0  0  0
    9.7265  -15.2676   23.7997 C   0  0  0  0  0  0  0  0  0  0  0  0
    8.8408  -14.8078   24.5971 O   0  0  0  0  0  0  0  0  0  0  0  0
   11.2850  -14.5972   28.5307 C   0  0  0  0  0  0  0  0  0  0  0  0
   10.3082  -13.8021   27.6882 C   0  0  2  0  0  0  0  0  0  0  0  0
    9.0022  -13.5865   28.3708 C   0  0  0  0  0  0  0  0  0  0  0  0
   10.2994  -14.1355   26.2529 C   0  0  0  0  0  0  0  0  0  0  0  0
   11.3426  -15.0545   25.7448 C   0  0  2  0  0  0  0  0  0  0  0  0
   11.0326  -15.3935   24.3371 N   0  0  0  0  0  0  0  0  0  0  0  0
   11.4310  -16.3221   26.4573 C   0  0  0  0  0  0  0  0  0  0  0  0
   10.6585  -17.4293   26.1916 O   0  0  0  0  0  0  0  0  0  0  0  0
   12.2680  -16.4586   27.4064 O   0  0  0  0  0  0  0  0  0  0  0  0
  2 12  2  0
  2  1  1  0
  3  2  1  0
  4  5  1  0
  4  3  2  0
  5 11  2  0
  6  5  1  0
  7  6  1  0
  7  9  1  0
  7  8  1  6
  9 10  2  0
  9 13  1  0
 11 12  1  0
 13 14  1  0
 14 15  1  0
 16 15  1  0
 17 13  1  0
 17 16  1  0
 17 18  1  1
 19 18  2  0
 21 20  1  1
 21 22  1  0
 23 21  1  0
 24 23  1  1
 24 25  1  0
 25 18  1  0
 26 27  1  0
 26 24  1  0
 28 26  2  0
M  END
$$$$
