YPL.pdb
     RDKit          3D

 28 29  0  0  1  0  0  0  0  0999 V2000
    7.1240  -14.5737   27.4478 O   0  0  0  0  0  0  0  0  0  0  0  0
    6.6659  -15.4634   26.4743 C   0  0  0  0  0  0  0  0  0  0  0  0
    5.7988  -15.0966   25.4849 C   0  0  0  0  0  0  0  0  0  0  0  0
    5.3627  -15.9935   24.5373 C   0  0  0  0  0  0  0  0  0  0  0  0
    5.7982  -17.2932   24.5696 C   0  0  0  0  0  0  0  0  0  0  0  0
    5.3626  -18.2896   23.5726 C   0  0  0  0  0  0  0  0  0  0  0  0
    5.9199  -17.9824   22.2211 C   0  0  2  0  0  0  0  0  0  0  0  0
    5.7007  -19.0058   21.2515 N   0  0  0  0  0  0  0  0  0  0  0  0
    7.3413  -17.5287   22.2960 C   0  0  0  0  0  0  0  0  0  0  0  0
    8.2463  -18.3623   22.6371 O   0  0  0  0  0  0  0  0  0  0  0  0
    6.6721  -17.6812   25.5591 C   0  0  0  0  0  0  0  0  0  0  0  0
    7.0965  -16.7687   26.4980 C   0  0  0  0  0  0  0  0  0  0  0  0
    7.7608  -16.2113   22.0089 N   0  0  0  0  0  0  0  0  0  0  0  0
    6.8526  -15.1206   21.6785 C   0  0  0  0  0  0  0  0  0  0  0  0
    7.7571  -13.8821   21.6414 C   0  0  0  0  0  0  0  0  0  0  0  0
    9.0329  -14.5061   21.0744 C   0  0  0  0  0  0  0  0  0  0  0  0
    9.1337  -15.7271   21.9921 C   0  0  1  0  0  0  0  0  0  0  0  0
    9.4552  -15.2163   23.3529 C   0  0  0  0  0  0  0  0  0  0  0  0
    9.0303  -14.0833   23.7624 O   0  0  0  0  0  0  0  0  0  0  0  0
   12.4814  -15.1010   27.9424 C   0  0  0  0  0  0  0  0  0  0  0  0
   11.1741  -15.8670   27.9431 C   0  0  2  0  0  0  0  0  0  0  0  0
   11.0763  -16.8373   29.0687 C   0  0  0  0  0  0  0  0  0  0  0  0
   10.6900  -16.2860   26.6158 C   0  0  0  0  0  0  0  0  0  0  0  0
   10.8110  -15.3262   25.4954 C   0  0  2  0  0  0  0  0  0  0  0  0
   10.2467  -15.9468   24.2751 N   0  0  0  0  0  0  0  0  0  0  0  0
   12.1795  -14.9523   25.1645 C   0  0  0  0  0  0  0  0  0  0  0  0
   13.1143  -15.7975   24.6123 O   0  0  0  0  0  0  0  0  0  0  0  0
   12.5849  -13.7670   25.3904 O   0  0  0  0  0  0  0  0  0  0  0  0
  2 12  2  0
  2  1  1  0
  3  2  1  0
  4  5  1  0
  4  3  2  0
  5 11  2  0
  6  5  1  0
  7  6  1  0
  7  9  1  0
  7  8  1  6
  9 10  2  0
  9 13  1  0
 11 12  1  0
 13 14  1  0
 14 15  1  0
 16 15  1  0
 17 13  1  0
 17 16  1  0
 17 18  1  1
 19 18  2  0
 21 20  1  6
 21 22  1  0
 23 21  1  0
 24 23  1  1
 24 25  1  0
 25 18  1  0
 26 27  1  0
 26 24  1  0
 28 26  2  0
M  END
$$$$
