YPL.pdb
     RDKit          3D

 28 29  0  0  1  0  0  0  0  0999 V2000
    8.4071  -19.8809   29.0011 O   0  0  0  0  0  0  0  0  0  0  0  0
    7.7527  -19.5277   27.8196 C   0  0  0  0  0  0  0  0  0  0  0  0
    7.2923  -20.4500   26.9236 C   0  0  0  0  0  0  0  0  0  0  0  0
    6.6503  -20.0750   25.7662 C   0  0  0  0  0  0  0  0  0  0  0  0
    6.4578  -18.7465   25.4868 C   0  0  0  0  0  0  0  0  0  0  0  0
    5.7707  -18.2960   24.2614 C   0  0  0  0  0  0  0  0  0  0  0  0
    6.5052  -18.7343   23.0368 C   0  0  2  0  0  0  0  0  0  0  0  0
    6.8324  -20.1228   23.0163 N   0  0  0  0  0  0  0  0  0  0  0  0
    7.6677  -17.8448   22.7377 C   0  0  0  0  0  0  0  0  0  0  0  0
    8.8531  -18.2852   22.9134 O   0  0  0  0  0  0  0  0  0  0  0  0
    6.9148  -17.8028   26.3777 C   0  0  0  0  0  0  0  0  0  0  0  0
    7.5549  -18.1984   27.5302 C   0  0  0  0  0  0  0  0  0  0  0  0
    7.5412  -16.5206   22.2636 N   0  0  0  0  0  0  0  0  0  0  0  0
    6.2939  -15.7673   22.2732 C   0  0  0  0  0  0  0  0  0  0  0  0
    6.7096  -14.3544   21.8438 C   0  0  0  0  0  0  0  0  0  0  0  0
    7.8185  -14.6986   20.8486 C   0  0  0  0  0  0  0  0  0  0  0  0
    8.6034  -15.7014   21.6979 C   0  0  1  0  0  0  0  0  0  0  0  0
    9.2260  -14.9294   22.8081 C   0  0  0  0  0  0  0  0  0  0  0  0
    9.7630  -13.7869   22.6128 O   0  0  0  0  0  0  0  0  0  0  0  0
    8.2159  -13.1328   27.7048 C   0  0  0  0  0  0  0  0  0  0  0  0
    7.8314  -12.6611   26.3172 C   0  0  2  0  0  0  0  0  0  0  0  0
    6.5681  -11.8724   26.3070 C   0  0  0  0  0  0  0  0  0  0  0  0
    8.0532  -13.6385   25.2369 C   0  0  0  0  0  0  0  0  0  0  0  0
    9.2594  -14.4936   25.3081 C   0  0  2  0  0  0  0  0  0  0  0  0
    9.2637  -15.4071   24.1427 N   0  0  0  0  0  0  0  0  0  0  0  0
    9.3297  -15.3430   26.4895 C   0  0  0  0  0  0  0  0  0  0  0  0
    9.0370  -16.6872   26.5104 O   0  0  0  0  0  0  0  0  0  0  0  0
    9.6789  -14.8455   27.6078 O   0  0  0  0  0  0  0  0  0  0  0  0
  2 12  2  0
  2  1  1  0
  3  2  1  0
  4  5  1  0
  4  3  2  0
  5 11  2  0
  6  5  1  0
  7  6  1  0
  7  9  1  0
  7  8  1  1
  9 10  2  0
  9 13  1  0
 11 12  1  0
 13 14  1  0
 14 15  1  0
 16 15  1  0
 17 13  1  0
 17 16  1  0
 17 18  1  1
 19 18  2  0
 21 20  1  1
 21 22  1  0
 23 21  1  0
 24 23  1  1
 24 25  1  0
 25 18  1  0
 26 27  1  0
 26 24  1  0
 28 26  2  0
M  END
$$$$
