YPL.pdb
     RDKit          3D

 28 29  0  0  1  0  0  0  0  0999 V2000
    0.4555  -20.4203   20.8444 O   0  0  0  0  0  0  0  0  0  0  0  0
    1.6345  -19.7518   21.1791 C   0  0  0  0  0  0  0  0  0  0  0  0
    2.3742  -20.0629   22.2843 C   0  0  0  0  0  0  0  0  0  0  0  0
    3.5330  -19.3882   22.5915 C   0  0  0  0  0  0  0  0  0  0  0  0
    3.9736  -18.3746   21.7801 C   0  0  0  0  0  0  0  0  0  0  0  0
    5.2124  -17.6258   22.0654 C   0  0  0  0  0  0  0  0  0  0  0  0
    6.2902  -17.9708   21.0905 C   0  0  2  0  0  0  0  0  0  0  0  0
    6.5098  -19.3717   20.9326 N   0  0  0  0  0  0  0  0  0  0  0  0
    7.5422  -17.1980   21.3494 C   0  0  0  0  0  0  0  0  0  0  0  0
    8.5588  -17.7993   21.8345 O   0  0  0  0  0  0  0  0  0  0  0  0
    3.2415  -18.0468   20.6621 C   0  0  0  0  0  0  0  0  0  0  0  0
    2.0846  -18.7339   20.3721 C   0  0  0  0  0  0  0  0  0  0  0  0
    7.6804  -15.8171   21.0885 N   0  0  0  0  0  0  0  0  0  0  0  0
    6.6269  -14.9857   20.5207 C   0  0  0  0  0  0  0  0  0  0  0  0
    7.1894  -13.5612   20.6088 C   0  0  0  0  0  0  0  0  0  0  0  0
    8.6695  -13.8476   20.3526 C   0  0  0  0  0  0  0  0  0  0  0  0
    8.8651  -15.0070   21.3327 C   0  0  1  0  0  0  0  0  0  0  0  0
    8.7533  -14.4348   22.7025 C   0  0  0  0  0  0  0  0  0  0  0  0
    8.2427  -13.2822   22.9091 O   0  0  0  0  0  0  0  0  0  0  0  0
    5.9085  -13.3028   27.0092 C   0  0  0  0  0  0  0  0  0  0  0  0
    7.3843  -13.5579   26.7792 C   0  0  2  0  0  0  0  0  0  0  0  0
    8.2510  -12.5111   27.3885 C   0  0  0  0  0  0  0  0  0  0  0  0
    7.7341  -14.0612   25.4391 C   0  0  0  0  0  0  0  0  0  0  0  0
    9.1183  -14.5340   25.2121 C   0  0  2  0  0  0  0  0  0  0  0  0
    9.2022  -15.1251   23.8570 N   0  0  0  0  0  0  0  0  0  0  0  0
    9.5624  -15.5701   26.1347 C   0  0  0  0  0  0  0  0  0  0  0  0
   10.4211  -15.3678   27.1906 O   0  0  0  0  0  0  0  0  0  0  0  0
    9.1544  -16.7668   25.9878 O   0  0  0  0  0  0  0  0  0  0  0  0
  2 12  2  0
  2  1  1  0
  3  2  1  0
  4  5  1  0
  4  3  2  0
  5 11  2  0
  6  5  1  0
  7  6  1  0
  7  9  1  0
  7  8  1  1
  9 10  2  0
  9 13  1  0
 11 12  1  0
 13 14  1  0
 14 15  1  0
 16 15  1  0
 17 13  1  0
 17 16  1  0
 17 18  1  1
 19 18  2  0
 21 20  1  6
 21 22  1  0
 23 21  1  0
 24 23  1  1
 24 25  1  0
 25 18  1  0
 26 27  1  0
 26 24  1  0
 28 26  2  0
M  END
$$$$
