YPL.pdb
     RDKit          3D

 28 29  0  0  1  0  0  0  0  0999 V2000
    6.0080  -10.7083   26.3772 O   0  0  0  0  0  0  0  0  0  0  0  0
    5.9459  -12.1030   26.3702 C   0  0  0  0  0  0  0  0  0  0  0  0
    4.7724  -12.7916   26.2515 C   0  0  0  0  0  0  0  0  0  0  0  0
    4.7390  -14.1669   26.2474 C   0  0  0  0  0  0  0  0  0  0  0  0
    5.9025  -14.8827   26.3643 C   0  0  0  0  0  0  0  0  0  0  0  0
    5.9176  -16.3581   26.3600 C   0  0  0  0  0  0  0  0  0  0  0  0
    5.9655  -16.8948   24.9668 C   0  0  2  0  0  0  0  0  0  0  0  0
    5.2484  -18.1148   24.7849 N   0  0  0  0  0  0  0  0  0  0  0  0
    7.3614  -16.9407   24.4365 C   0  0  0  0  0  0  0  0  0  0  0  0
    8.0896  -17.9606   24.6809 O   0  0  0  0  0  0  0  0  0  0  0  0
    7.0947  -14.2063   26.4849 C   0  0  0  0  0  0  0  0  0  0  0  0
    7.1069  -12.8300   26.4870 C   0  0  0  0  0  0  0  0  0  0  0  0
    7.9427  -15.9097   23.6664 N   0  0  0  0  0  0  0  0  0  0  0  0
    7.3587  -14.5843   23.5057 C   0  0  0  0  0  0  0  0  0  0  0  0
    8.4367  -13.7915   22.7555 C   0  0  0  0  0  0  0  0  0  0  0  0
    9.0016  -14.8972   21.8629 C   0  0  0  0  0  0  0  0  0  0  0  0
    9.1897  -15.9888   22.9193 C   0  0  1  0  0  0  0  0  0  0  0  0
   10.2889  -15.5351   23.8148 C   0  0  0  0  0  0  0  0  0  0  0  0
   10.5048  -14.2959   24.0380 O   0  0  0  0  0  0  0  0  0  0  0  0
   11.2714  -13.8785   27.3133 C   0  0  0  0  0  0  0  0  0  0  0  0
   10.9473  -15.3551   27.4146 C   0  0  2  0  0  0  0  0  0  0  0  0
   10.4280  -15.7395   28.7566 C   0  0  0  0  0  0  0  0  0  0  0  0
   11.9070  -16.2564   26.7528 C   0  0  0  0  0  0  0  0  0  0  0  0
   12.2655  -15.9788   25.3437 C   0  0  2  0  0  0  0  0  0  0  0  0
   11.1603  -16.4399   24.4726 N   0  0  0  0  0  0  0  0  0  0  0  0
   13.4628  -16.6654   24.8776 C   0  0  0  0  0  0  0  0  0  0  0  0
   14.7501  -16.3241   25.2232 O   0  0  0  0  0  0  0  0  0  0  0  0
   13.3572  -17.6573   24.0870 O   0  0  0  0  0  0  0  0  0  0  0  0
  2 12  2  0
  2  1  1  0
  3  2  1  0
  4  5  1  0
  4  3  2  0
  5 11  2  0
  6  5  1  0
  7  6  1  0
  7  9  1  0
  7  8  1  1
  9 10  2  0
  9 13  1  0
 11 12  1  0
 13 14  1  0
 14 15  1  0
 16 15  1  0
 17 13  1  0
 17 16  1  0
 17 18  1  1
 19 18  2  0
 21 20  1  1
 21 22  1  0
 23 21  1  0
 24 23  1  1
 24 25  1  0
 25 18  1  0
 26 27  1  0
 26 24  1  0
 28 26  2  0
M  END
$$$$
