YPL.pdb
     RDKit          3D

 28 29  0  0  1  0  0  0  0  0999 V2000
    7.5697  -19.4624   28.5244 O   0  0  0  0  0  0  0  0  0  0  0  0
    7.0571  -19.2241   27.2479 C   0  0  0  0  0  0  0  0  0  0  0  0
    6.5976  -18.0008   26.8506 C   0  0  0  0  0  0  0  0  0  0  0  0
    6.0972  -17.7927   25.5862 C   0  0  0  0  0  0  0  0  0  0  0  0
    6.0502  -18.8268   24.6872 C   0  0  0  0  0  0  0  0  0  0  0  0
    5.5271  -18.6512   23.3188 C   0  0  0  0  0  0  0  0  0  0  0  0
    6.5931  -18.8815   22.2981 C   0  0  2  0  0  0  0  0  0  0  0  0
    7.0400  -20.2338   22.2138 N   0  0  0  0  0  0  0  0  0  0  0  0
    7.7069  -17.8939   22.4250 C   0  0  0  0  0  0  0  0  0  0  0  0
    8.8777  -18.3071   22.7226 O   0  0  0  0  0  0  0  0  0  0  0  0
    6.5086  -20.0666   25.0694 C   0  0  0  0  0  0  0  0  0  0  0  0
    7.0055  -20.2543   26.3391 C   0  0  0  0  0  0  0  0  0  0  0  0
    7.5487  -16.5037   22.2340 N   0  0  0  0  0  0  0  0  0  0  0  0
    6.2643  -15.8528   22.0102 C   0  0  0  0  0  0  0  0  0  0  0  0
    6.5942  -14.3552   22.0517 C   0  0  0  0  0  0  0  0  0  0  0  0
    7.9823  -14.3747   21.4104 C   0  0  0  0  0  0  0  0  0  0  0  0
    8.6102  -15.5074   22.2264 C   0  0  1  0  0  0  0  0  0  0  0  0
    8.7695  -14.9983   23.6162 C   0  0  0  0  0  0  0  0  0  0  0  0
    7.8034  -14.4467   24.2440 O   0  0  0  0  0  0  0  0  0  0  0  0
    9.2683  -12.8020   27.9448 C   0  0  0  0  0  0  0  0  0  0  0  0
    8.3186  -13.3713   26.9104 C   0  0  2  0  0  0  0  0  0  0  0  0
    6.8876  -13.1809   27.2766 C   0  0  0  0  0  0  0  0  0  0  0  0
    8.7245  -14.6622   26.3272 C   0  0  0  0  0  0  0  0  0  0  0  0
   10.0916  -14.7763   25.7711 C   0  0  2  0  0  0  0  0  0  0  0  0
    9.9926  -15.0912   24.3276 N   0  0  0  0  0  0  0  0  0  0  0  0
   10.8988  -15.8349   26.3628 C   0  0  0  0  0  0  0  0  0  0  0  0
   10.9833  -17.1214   25.8824 O   0  0  0  0  0  0  0  0  0  0  0  0
   11.5896  -15.5976   27.4052 O   0  0  0  0  0  0  0  0  0  0  0  0
  2 12  2  0
  2  1  1  0
  3  2  1  0
  4  5  1  0
  4  3  2  0
  5 11  2  0
  6  5  1  0
  7  6  1  0
  7  9  1  0
  7  8  1  1
  9 10  2  0
  9 13  1  0
 11 12  1  0
 13 14  1  0
 14 15  1  0
 16 15  1  0
 17 13  1  0
 17 16  1  0
 17 18  1  1
 19 18  2  0
 21 20  1  1
 21 22  1  0
 23 21  1  0
 24 23  1  1
 24 25  1  0
 25 18  1  0
 26 27  1  0
 26 24  1  0
 28 26  2  0
M  END
$$$$
