DCC.pdb
     RDKit          3D

 21 20  0  0  1  0  0  0  0  0999 V2000
   10.1278  -18.6165   21.1544 N   0  0  0  0  0  0  0  0  0  0  0  0
   11.0020  -17.4772   21.3625 C   0  0  1  0  0  0  0  0  0  0  0  0
   11.1260  -16.7526   20.0445 C   0  0  0  0  0  0  0  0  0  0  0  0
   11.9243  -17.5132   19.0820 C   0  0  0  0  0  0  0  0  0  0  0  0
   12.2359  -18.7215   19.2064 O   0  0  0  0  0  0  0  0  0  0  0  0
   10.4414  -16.5947   22.4181 C   0  0  0  0  0  0  0  0  0  0  0  0
   11.0940  -15.5262   22.6755 O   0  0  0  0  0  0  0  0  0  0  0  0
   12.3984  -16.8847   17.9180 O   0  0  0  0  0  0  0  0  0  0  0  0
    9.2435  -16.8800   23.1348 N   0  0  0  0  0  0  0  0  0  0  0  0
    8.8483  -16.0122   24.1967 C   0  0  1  0  0  0  0  0  0  0  0  0
    7.4181  -16.3696   24.6353 C   0  0  0  0  0  0  0  0  0  0  0  0
    6.9606  -15.1174   25.8801 S   0  0  0  0  0  0  0  0  0  0  0  0
    9.6821  -16.1656   25.4144 C   0  0  0  0  0  0  0  0  0  0  0  0
   10.1603  -17.2965   25.6384 O   0  0  0  0  0  0  0  0  0  0  0  0
    9.9515  -15.1076   26.3106 N   0  0  0  0  0  0  0  0  0  0  0  0
   10.6625  -15.2814   27.5291 C   0  0  1  0  0  0  0  0  0  0  0  0
   10.8635  -13.9820   28.2762 C   0  0  0  0  0  0  0  0  0  0  0  0
    9.5531  -12.7920   28.0069 S   0  0  0  0  0  0  0  0  0  0  0  0
   10.1811  -16.3790   28.4000 C   0  0  0  0  0  0  0  0  0  0  0  0
   10.9232  -16.8261   29.4776 O   0  0  0  0  0  0  0  0  0  0  0  0
    9.0870  -16.9228   28.1723 O   0  0  0  0  0  0  0  0  0  0  0  0
  2  3  1  0
  2  1  1  6
  3  4  1  0
  4  8  1  0
  4  5  2  0
  6  2  1  0
  7  6  2  0
  9  6  1  0
 10  9  1  0
 10 11  1  1
 12 11  1  0
 13 10  1  0
 13 15  1  0
 14 13  2  0
 16 15  1  0
 16 19  1  0
 16 17  1  1
 18 17  1  0
 19 21  2  0
 19 20  1  0
M  END
$$$$
