DCC.pdb
     RDKit          3D

 21 20  0  0  1  0  0  0  0  0999 V2000
    8.4055  -17.7679   19.5732 N   0  0  0  0  0  0  0  0  0  0  0  0
    9.8554  -17.7604   19.6290 C   0  0  1  0  0  0  0  0  0  0  0  0
   10.3564  -17.1324   18.3514 C   0  0  0  0  0  0  0  0  0  0  0  0
    9.9043  -17.8716   17.1718 C   0  0  0  0  0  0  0  0  0  0  0  0
    8.7712  -17.7583   16.6467 O   0  0  0  0  0  0  0  0  0  0  0  0
   10.3124  -17.0036   20.8231 C   0  0  0  0  0  0  0  0  0  0  0  0
   11.5761  -16.9022   20.9861 O   0  0  0  0  0  0  0  0  0  0  0  0
   10.7694  -18.7866   16.5483 O   0  0  0  0  0  0  0  0  0  0  0  0
    9.4288  -16.4041   21.7665 N   0  0  0  0  0  0  0  0  0  0  0  0
    9.9468  -15.9753   23.0253 C   0  0  1  0  0  0  0  0  0  0  0  0
    9.0097  -14.9111   23.6211 C   0  0  0  0  0  0  0  0  0  0  0  0
    7.4233  -15.7632   23.9115 S   0  0  0  0  0  0  0  0  0  0  0  0
    9.9980  -17.0622   24.0342 C   0  0  0  0  0  0  0  0  0  0  0  0
    8.9681  -17.7517   24.1811 O   0  0  0  0  0  0  0  0  0  0  0  0
   11.1393  -17.3427   24.8175 N   0  0  0  0  0  0  0  0  0  0  0  0
   11.2117  -18.4345   25.7249 C   0  0  1  0  0  0  0  0  0  0  0  0
   11.8830  -19.6484   25.1226 C   0  0  0  0  0  0  0  0  0  0  0  0
   11.0699  -20.2576   23.6483 S   0  0  0  0  0  0  0  0  0  0  0  0
   11.7165  -18.1085   27.0792 C   0  0  0  0  0  0  0  0  0  0  0  0
   12.1304  -16.8311   27.4090 O   0  0  0  0  0  0  0  0  0  0  0  0
   11.7767  -18.9909   27.9523 O   0  0  0  0  0  0  0  0  0  0  0  0
  2  3  1  0
  2  1  1  6
  3  4  1  0
  4  8  1  0
  4  5  2  0
  6  2  1  0
  7  6  2  0
  9  6  1  0
 10  9  1  0
 10 11  1  1
 12 11  1  0
 13 10  1  0
 13 15  1  0
 14 13  2  0
 16 15  1  0
 16 19  1  0
 16 17  1  6
 18 17  1  0
 19 21  2  0
 19 20  1  0
M  END
$$$$
