DCC.pdb
     RDKit          3D

 21 20  0  0  1  0  0  0  0  0999 V2000
    9.7357  -18.6270   21.1743 N   0  0  0  0  0  0  0  0  0  0  0  0
   10.3908  -17.3323   21.1768 C   0  0  1  0  0  0  0  0  0  0  0  0
   10.1210  -16.6837   19.8411 C   0  0  0  0  0  0  0  0  0  0  0  0
   10.8563  -17.3432   18.7610 C   0  0  0  0  0  0  0  0  0  0  0  0
   11.0472  -18.5796   18.6757 O   0  0  0  0  0  0  0  0  0  0  0  0
    9.8741  -16.5053   22.2977 C   0  0  0  0  0  0  0  0  0  0  0  0
   10.3341  -15.3164   22.3899 O   0  0  0  0  0  0  0  0  0  0  0  0
   11.4068  -16.5746   17.7214 O   0  0  0  0  0  0  0  0  0  0  0  0
    8.9165  -16.9671   23.2463 N   0  0  0  0  0  0  0  0  0  0  0  0
    8.5545  -16.1178   24.3347 C   0  0  1  0  0  0  0  0  0  0  0  0
    7.2450  -16.6279   24.9595 C   0  0  0  0  0  0  0  0  0  0  0  0
    7.5904  -18.3377   25.4925 S   0  0  0  0  0  0  0  0  0  0  0  0
    9.5468  -16.1306   25.4378 C   0  0  0  0  0  0  0  0  0  0  0  0
   10.4389  -17.0022   25.3910 O   0  0  0  0  0  0  0  0  0  0  0  0
    9.5241  -15.2169   26.5146 N   0  0  0  0  0  0  0  0  0  0  0  0
   10.4493  -15.2612   27.5929 C   0  0  1  0  0  0  0  0  0  0  0  0
   10.4609  -13.9841   28.4027 C   0  0  0  0  0  0  0  0  0  0  0  0
    9.2258  -12.7965   27.8834 S   0  0  0  0  0  0  0  0  0  0  0  0
   10.3918  -16.4783   28.4357 C   0  0  0  0  0  0  0  0  0  0  0  0
   11.3460  -16.7342   29.4031 O   0  0  0  0  0  0  0  0  0  0  0  0
    9.4717  -17.3000   28.2842 O   0  0  0  0  0  0  0  0  0  0  0  0
  2  3  1  0
  2  1  1  6
  3  4  1  0
  4  8  1  0
  4  5  2  0
  6  2  1  0
  7  6  2  0
  9  6  1  0
 10  9  1  0
 10 11  1  1
 12 11  1  0
 13 10  1  0
 13 15  1  0
 14 13  2  0
 16 15  1  0
 16 19  1  0
 16 17  1  1
 18 17  1  0
 19 21  2  0
 19 20  1  0
M  END
$$$$
