DCC.pdb
     RDKit          3D

 21 20  0  0  1  0  0  0  0  0999 V2000
    6.9412  -16.3798   21.3526 N   0  0  0  0  0  0  0  0  0  0  0  0
    8.3347  -16.0139   21.1804 C   0  0  1  0  0  0  0  0  0  0  0  0
    8.4435  -15.2297   19.8956 C   0  0  0  0  0  0  0  0  0  0  0  0
    8.5337  -16.1105   18.7302 C   0  0  0  0  0  0  0  0  0  0  0  0
    8.5020  -17.3632   18.7753 O   0  0  0  0  0  0  0  0  0  0  0  0
    8.7967  -15.2163   22.3457 C   0  0  0  0  0  0  0  0  0  0  0  0
   10.0469  -14.9561   22.4004 O   0  0  0  0  0  0  0  0  0  0  0  0
    8.6665  -15.5562   17.4457 O   0  0  0  0  0  0  0  0  0  0  0  0
    7.9317  -14.7434   23.3744 N   0  0  0  0  0  0  0  0  0  0  0  0
    8.4854  -14.4130   24.6476 C   0  0  1  0  0  0  0  0  0  0  0  0
    7.4127  -13.7127   25.4987 C   0  0  0  0  0  0  0  0  0  0  0  0
    6.0749  -14.9354   25.7032 S   0  0  0  0  0  0  0  0  0  0  0  0
    8.8923  -15.6049   25.4321 C   0  0  0  0  0  0  0  0  0  0  0  0
    8.8821  -16.7051   24.8429 O   0  0  0  0  0  0  0  0  0  0  0  0
    9.2826  -15.5469   26.7883 N   0  0  0  0  0  0  0  0  0  0  0  0
   10.3054  -16.3656   27.3399 C   0  0  1  0  0  0  0  0  0  0  0  0
   11.5626  -16.3720   26.4994 C   0  0  0  0  0  0  0  0  0  0  0  0
   12.8626  -17.4078   27.1647 S   0  0  0  0  0  0  0  0  0  0  0  0
   10.5770  -16.1654   28.7825 C   0  0  0  0  0  0  0  0  0  0  0  0
   10.8273  -17.2317   29.6264 O   0  0  0  0  0  0  0  0  0  0  0  0
   10.5842  -15.0194   29.2635 O   0  0  0  0  0  0  0  0  0  0  0  0
  2  3  1  0
  2  1  1  1
  3  4  1  0
  4  8  1  0
  4  5  2  0
  6  2  1  0
  7  6  2  0
  9  6  1  0
 10  9  1  0
 10 11  1  1
 12 11  1  0
 13 10  1  0
 13 15  1  0
 14 13  2  0
 16 15  1  0
 16 19  1  0
 16 17  1  6
 18 17  1  0
 19 21  2  0
 19 20  1  0
M  END
$$$$
