DCC.pdb
     RDKit          3D

 21 20  0  0  1  0  0  0  0  0999 V2000
    9.8262  -17.7033   20.3212 N   0  0  0  0  0  0  0  0  0  0  0  0
   10.9446  -17.3980   21.1938 C   0  0  1  0  0  0  0  0  0  0  0  0
   11.9719  -16.6566   20.3737 C   0  0  0  0  0  0  0  0  0  0  0  0
   12.6627  -17.5463   19.4391 C   0  0  0  0  0  0  0  0  0  0  0  0
   12.5955  -18.7983   19.4600 O   0  0  0  0  0  0  0  0  0  0  0  0
   10.4797  -16.5855   22.3475 C   0  0  0  0  0  0  0  0  0  0  0  0
   10.7703  -15.3410   22.3240 O   0  0  0  0  0  0  0  0  0  0  0  0
   13.4719  -17.0023   18.4272 O   0  0  0  0  0  0  0  0  0  0  0  0
    9.7461  -17.1183   23.4466 N   0  0  0  0  0  0  0  0  0  0  0  0
    9.2809  -16.2318   24.4638 C   0  0  1  0  0  0  0  0  0  0  0  0
    7.7951  -16.5162   24.7410 C   0  0  0  0  0  0  0  0  0  0  0  0
    7.2836  -15.2814   25.9821 S   0  0  0  0  0  0  0  0  0  0  0  0
    9.9674  -16.4275   25.7647 C   0  0  0  0  0  0  0  0  0  0  0  0
   10.3350  -17.5866   26.0458 O   0  0  0  0  0  0  0  0  0  0  0  0
   10.2168  -15.3790   26.6776 N   0  0  0  0  0  0  0  0  0  0  0  0
   10.8424  -15.5769   27.9385 C   0  0  1  0  0  0  0  0  0  0  0  0
   10.7916  -14.3445   28.8134 C   0  0  0  0  0  0  0  0  0  0  0  0
   10.3352  -12.8569   27.9277 S   0  0  0  0  0  0  0  0  0  0  0  0
   10.4539  -16.8120   28.6587 C   0  0  0  0  0  0  0  0  0  0  0  0
   11.0967  -17.2063   29.8177 O   0  0  0  0  0  0  0  0  0  0  0  0
    9.5310  -17.5231   28.2261 O   0  0  0  0  0  0  0  0  0  0  0  0
  2  3  1  0
  2  1  1  6
  3  4  1  0
  4  8  1  0
  4  5  2  0
  6  2  1  0
  7  6  2  0
  9  6  1  0
 10  9  1  0
 10 11  1  1
 12 11  1  0
 13 10  1  0
 13 15  1  0
 14 13  2  0
 16 15  1  0
 16 19  1  0
 16 17  1  1
 18 17  1  0
 19 21  2  0
 19 20  1  0
M  END
$$$$
