DCC.pdb
     RDKit          3D

 21 20  0  0  1  0  0  0  0  0999 V2000
    9.5186  -15.5698   20.8849 N   0  0  0  0  0  0  0  0  0  0  0  0
    8.2878  -15.5693   21.6534 C   0  0  1  0  0  0  0  0  0  0  0  0
    7.8375  -17.0031   21.7915 C   0  0  0  0  0  0  0  0  0  0  0  0
    7.2593  -17.5109   20.5465 C   0  0  0  0  0  0  0  0  0  0  0  0
    7.8953  -17.6824   19.4794 O   0  0  0  0  0  0  0  0  0  0  0  0
    8.5191  -14.9413   22.9798 C   0  0  0  0  0  0  0  0  0  0  0  0
    9.6872  -15.0776   23.4806 O   0  0  0  0  0  0  0  0  0  0  0  0
    5.8951  -17.8439   20.4960 O   0  0  0  0  0  0  0  0  0  0  0  0
    7.5243  -14.2156   23.6966 N   0  0  0  0  0  0  0  0  0  0  0  0
    7.8313  -13.7223   25.0001 C   0  0  1  0  0  0  0  0  0  0  0  0
    6.6358  -12.9110   25.5276 C   0  0  0  0  0  0  0  0  0  0  0  0
    7.1291  -12.3346   27.1863 S   0  0  0  0  0  0  0  0  0  0  0  0
    8.0429  -14.8018   25.9959 C   0  0  0  0  0  0  0  0  0  0  0  0
    7.1878  -15.7098   26.0417 O   0  0  0  0  0  0  0  0  0  0  0  0
    9.1481  -14.8435   26.8743 N   0  0  0  0  0  0  0  0  0  0  0  0
    9.3667  -15.8988   27.8011 C   0  0  1  0  0  0  0  0  0  0  0  0
    9.9150  -17.1459   27.1446 C   0  0  0  0  0  0  0  0  0  0  0  0
   11.5663  -16.9395   26.4840 S   0  0  0  0  0  0  0  0  0  0  0  0
   10.0991  -15.5263   29.0340 C   0  0  0  0  0  0  0  0  0  0  0  0
   10.3324  -16.4435   30.0420 O   0  0  0  0  0  0  0  0  0  0  0  0
   10.5211  -14.3669   29.1835 O   0  0  0  0  0  0  0  0  0  0  0  0
  2  3  1  0
  2  1  1  6
  3  4  1  0
  4  8  1  0
  4  5  2  0
  6  2  1  0
  7  6  2  0
  9  6  1  0
 10  9  1  0
 10 11  1  1
 12 11  1  0
 13 10  1  0
 13 15  1  0
 14 13  2  0
 16 15  1  0
 16 19  1  0
 16 17  1  6
 18 17  1  0
 19 21  2  0
 19 20  1  0
M  END
$$$$
