DCC.pdb
     RDKit          3D

 21 20  0  0  1  0  0  0  0  0999 V2000
    8.0314  -14.5655   20.5811 N   0  0  0  0  0  0  0  0  0  0  0  0
    7.4315  -15.0606   21.8060 C   0  0  1  0  0  0  0  0  0  0  0  0
    7.5925  -16.5611   21.8169 C   0  0  0  0  0  0  0  0  0  0  0  0
    6.8308  -17.1949   20.7398 C   0  0  0  0  0  0  0  0  0  0  0  0
    6.2759  -16.5806   19.7979 O   0  0  0  0  0  0  0  0  0  0  0  0
    8.0894  -14.4340   22.9815 C   0  0  0  0  0  0  0  0  0  0  0  0
    9.3590  -14.5594   23.0598 O   0  0  0  0  0  0  0  0  0  0  0  0
    6.6837  -18.5922   20.7183 O   0  0  0  0  0  0  0  0  0  0  0  0
    7.3868  -13.7209   23.9954 N   0  0  0  0  0  0  0  0  0  0  0  0
    8.0895  -13.3124   25.1685 C   0  0  1  0  0  0  0  0  0  0  0  0
    7.2092  -12.3399   25.9716 C   0  0  0  0  0  0  0  0  0  0  0  0
    5.6144  -13.1957   26.1973 S   0  0  0  0  0  0  0  0  0  0  0  0
    8.3790  -14.4355   26.0941 C   0  0  0  0  0  0  0  0  0  0  0  0
    7.7376  -15.4926   25.9248 O   0  0  0  0  0  0  0  0  0  0  0  0
    9.3299  -14.3592   27.1356 N   0  0  0  0  0  0  0  0  0  0  0  0
    9.7862  -15.4951   27.8580 C   0  0  1  0  0  0  0  0  0  0  0  0
   10.8283  -16.2869   27.1003 C   0  0  0  0  0  0  0  0  0  0  0  0
   10.6813  -18.0576   27.3209 S   0  0  0  0  0  0  0  0  0  0  0  0
   10.1637  -15.2468   29.2691 C   0  0  0  0  0  0  0  0  0  0  0  0
   10.5349  -16.2788   30.1110 O   0  0  0  0  0  0  0  0  0  0  0  0
   10.1523  -14.0904   29.7244 O   0  0  0  0  0  0  0  0  0  0  0  0
  2  3  1  0
  2  1  1  6
  3  4  1  0
  4  8  1  0
  4  5  2  0
  6  2  1  0
  7  6  2  0
  9  6  1  0
 10  9  1  0
 10 11  1  1
 12 11  1  0
 13 10  1  0
 13 15  1  0
 14 13  2  0
 16 15  1  0
 16 19  1  0
 16 17  1  6
 18 17  1  0
 19 21  2  0
 19 20  1  0
M  END
$$$$
