DCC.pdb
     RDKit          3D

 21 20  0  0  1  0  0  0  0  0999 V2000
   10.5942  -17.0979   19.5834 N   0  0  0  0  0  0  0  0  0  0  0  0
   11.1774  -17.4611   20.8615 C   0  0  1  0  0  0  0  0  0  0  0  0
   12.6773  -17.3801   20.7163 C   0  0  0  0  0  0  0  0  0  0  0  0
   13.1882  -18.4016   19.8009 C   0  0  0  0  0  0  0  0  0  0  0  0
   14.0337  -18.1956   18.8980 O   0  0  0  0  0  0  0  0  0  0  0  0
   10.6831  -16.5457   21.9222 C   0  0  0  0  0  0  0  0  0  0  0  0
   10.6999  -15.2965   21.6522 O   0  0  0  0  0  0  0  0  0  0  0  0
   12.7256  -19.7245   19.9039 O   0  0  0  0  0  0  0  0  0  0  0  0
   10.2057  -16.9874   23.1899 N   0  0  0  0  0  0  0  0  0  0  0  0
    9.7615  -16.0183   24.1388 C   0  0  1  0  0  0  0  0  0  0  0  0
    8.2480  -16.1824   24.3576 C   0  0  0  0  0  0  0  0  0  0  0  0
    8.0004  -17.9428   24.7657 S   0  0  0  0  0  0  0  0  0  0  0  0
   10.3731  -16.1936   25.4793 C   0  0  0  0  0  0  0  0  0  0  0  0
   11.0569  -17.2213   25.6632 O   0  0  0  0  0  0  0  0  0  0  0  0
   10.2170  -15.2654   26.5325 N   0  0  0  0  0  0  0  0  0  0  0  0
   10.8491  -15.4096   27.7974 C   0  0  1  0  0  0  0  0  0  0  0  0
   10.7857  -14.1469   28.6272 C   0  0  0  0  0  0  0  0  0  0  0  0
    9.1879  -13.3404   28.5815 S   0  0  0  0  0  0  0  0  0  0  0  0
   10.4785  -16.6225   28.5634 C   0  0  0  0  0  0  0  0  0  0  0  0
   11.2409  -17.0671   29.6278 O   0  0  0  0  0  0  0  0  0  0  0  0
    9.4620  -17.2685   28.2567 O   0  0  0  0  0  0  0  0  0  0  0  0
  2  3  1  0
  2  1  1  6
  3  4  1  0
  4  8  1  0
  4  5  2  0
  6  2  1  0
  7  6  2  0
  9  6  1  0
 10  9  1  0
 10 11  1  1
 12 11  1  0
 13 10  1  0
 13 15  1  0
 14 13  2  0
 16 15  1  0
 16 19  1  0
 16 17  1  1
 18 17  1  0
 19 21  2  0
 19 20  1  0
M  END
$$$$
