DCC.pdb
     RDKit          3D

 21 20  0  0  1  0  0  0  0  0999 V2000
    9.4272  -17.8266   20.9864 N   0  0  0  0  0  0  0  0  0  0  0  0
   10.6045  -17.1103   21.4405 C   0  0  1  0  0  0  0  0  0  0  0  0
   11.1207  -16.3000   20.2767 C   0  0  0  0  0  0  0  0  0  0  0  0
   11.5910  -17.1568   19.1872 C   0  0  0  0  0  0  0  0  0  0  0  0
   11.9071  -18.3640   19.3111 O   0  0  0  0  0  0  0  0  0  0  0  0
   10.2557  -16.2431   22.5953 C   0  0  0  0  0  0  0  0  0  0  0  0
   11.1691  -15.4521   23.0122 O   0  0  0  0  0  0  0  0  0  0  0  0
   11.7131  -16.6312   17.8897 O   0  0  0  0  0  0  0  0  0  0  0  0
    8.9847  -16.2552   23.2392 N   0  0  0  0  0  0  0  0  0  0  0  0
    8.7747  -15.4147   24.3733 C   0  0  1  0  0  0  0  0  0  0  0  0
    7.2870  -15.4529   24.7618 C   0  0  0  0  0  0  0  0  0  0  0  0
    7.0974  -14.2224   26.0947 S   0  0  0  0  0  0  0  0  0  0  0  0
    9.5073  -15.8716   25.5800 C   0  0  0  0  0  0  0  0  0  0  0  0
    9.6685  -17.1017   25.7164 O   0  0  0  0  0  0  0  0  0  0  0  0
   10.0189  -14.9912   26.5588 N   0  0  0  0  0  0  0  0  0  0  0  0
   10.7821  -15.4275   27.6758 C   0  0  1  0  0  0  0  0  0  0  0  0
   11.1207  -14.3003   28.6255 C   0  0  0  0  0  0  0  0  0  0  0  0
   10.2344  -12.7835   28.2802 S   0  0  0  0  0  0  0  0  0  0  0  0
   10.2697  -16.6321   28.3696 C   0  0  0  0  0  0  0  0  0  0  0  0
   11.0081  -17.2729   29.3474 O   0  0  0  0  0  0  0  0  0  0  0  0
    9.1522  -17.0921   28.0794 O   0  0  0  0  0  0  0  0  0  0  0  0
  2  3  1  0
  2  1  1  6
  3  4  1  0
  4  8  1  0
  4  5  2  0
  6  2  1  0
  7  6  2  0
  9  6  1  0
 10  9  1  0
 10 11  1  1
 12 11  1  0
 13 10  1  0
 13 15  1  0
 14 13  2  0
 16 15  1  0
 16 19  1  0
 16 17  1  1
 18 17  1  0
 19 21  2  0
 19 20  1  0
M  END
$$$$
