DCC.pdb
     RDKit          3D

 21 20  0  0  1  0  0  0  0  0999 V2000
    8.8447  -15.4283   20.5868 N   0  0  0  0  0  0  0  0  0  0  0  0
    7.9844  -15.7953   21.6962 C   0  0  1  0  0  0  0  0  0  0  0  0
    8.0613  -17.2942   21.8548 C   0  0  0  0  0  0  0  0  0  0  0  0
    7.4411  -17.9901   20.7263 C   0  0  0  0  0  0  0  0  0  0  0  0
    6.4141  -17.6002   20.1217 O   0  0  0  0  0  0  0  0  0  0  0  0
    8.4228  -15.0943   22.9306 C   0  0  0  0  0  0  0  0  0  0  0  0
    9.6781  -15.0924   23.1714 O   0  0  0  0  0  0  0  0  0  0  0  0
    8.0030  -19.1872   20.2512 O   0  0  0  0  0  0  0  0  0  0  0  0
    7.5305  -14.4436   23.8310 N   0  0  0  0  0  0  0  0  0  0  0  0
    8.0465  -13.8992   25.0451 C   0  0  1  0  0  0  0  0  0  0  0  0
    6.9572  -13.0491   25.7206 C   0  0  0  0  0  0  0  0  0  0  0  0
    7.7232  -12.3877   27.2380 S   0  0  0  0  0  0  0  0  0  0  0  0
    8.4078  -14.9378   26.0413 C   0  0  0  0  0  0  0  0  0  0  0  0
    7.5117  -15.7375   26.3806 O   0  0  0  0  0  0  0  0  0  0  0  0
    9.6959  -15.0564   26.6085 N   0  0  0  0  0  0  0  0  0  0  0  0
   10.0091  -15.9794   27.6431 C   0  0  1  0  0  0  0  0  0  0  0  0
   11.1287  -16.9222   27.2629 C   0  0  0  0  0  0  0  0  0  0  0  0
   11.1230  -17.3781   25.5315 S   0  0  0  0  0  0  0  0  0  0  0  0
   10.1818  -15.3932   28.9928 C   0  0  0  0  0  0  0  0  0  0  0  0
   10.4022  -16.1868   30.1035 O   0  0  0  0  0  0  0  0  0  0  0  0
   10.1305  -14.1615   29.1500 O   0  0  0  0  0  0  0  0  0  0  0  0
  2  3  1  0
  2  1  1  6
  3  4  1  0
  4  8  1  0
  4  5  2  0
  6  2  1  0
  7  6  2  0
  9  6  1  0
 10  9  1  0
 10 11  1  1
 12 11  1  0
 13 10  1  0
 13 15  1  0
 14 13  2  0
 16 15  1  0
 16 19  1  0
 16 17  1  6
 18 17  1  0
 19 21  2  0
 19 20  1  0
M  END
$$$$
