DCC.pdb
     RDKit          3D

 21 20  0  0  1  0  0  0  0  0999 V2000
   10.1816  -18.4244   21.1067 N   0  0  0  0  0  0  0  0  0  0  0  0
   11.3468  -17.5868   21.3215 C   0  0  1  0  0  0  0  0  0  0  0  0
   11.8926  -17.2106   19.9657 C   0  0  0  0  0  0  0  0  0  0  0  0
   12.6357  -18.3145   19.3563 C   0  0  0  0  0  0  0  0  0  0  0  0
   12.9672  -19.3683   19.9497 O   0  0  0  0  0  0  0  0  0  0  0  0
   10.9685  -16.3848   22.1085 C   0  0  0  0  0  0  0  0  0  0  0  0
   11.8967  -15.5365   22.3378 O   0  0  0  0  0  0  0  0  0  0  0  0
   13.0279  -18.2316   18.0095 O   0  0  0  0  0  0  0  0  0  0  0  0
    9.6545  -16.1444   22.6044 N   0  0  0  0  0  0  0  0  0  0  0  0
    9.4232  -15.0022   23.4283 C   0  0  1  0  0  0  0  0  0  0  0  0
    8.0089  -14.4621   23.1573 C   0  0  0  0  0  0  0  0  0  0  0  0
    7.0386  -14.8607   24.6494 S   0  0  0  0  0  0  0  0  0  0  0  0
    9.4528  -15.3152   24.8784 C   0  0  0  0  0  0  0  0  0  0  0  0
    8.8200  -16.3223   25.2565 O   0  0  0  0  0  0  0  0  0  0  0  0
   10.1524  -14.5376   25.8275 N   0  0  0  0  0  0  0  0  0  0  0  0
   10.1946  -14.8524   27.2130 C   0  0  1  0  0  0  0  0  0  0  0  0
    8.9983  -14.3180   27.9681 C   0  0  0  0  0  0  0  0  0  0  0  0
    8.7180  -12.5675   27.7177 S   0  0  0  0  0  0  0  0  0  0  0  0
   10.4986  -16.2654   27.5391 C   0  0  0  0  0  0  0  0  0  0  0  0
   10.6287  -16.6941   28.8472 O   0  0  0  0  0  0  0  0  0  0  0  0
   10.6435  -17.0991   26.6289 O   0  0  0  0  0  0  0  0  0  0  0  0
  2  3  1  0
  2  1  1  6
  3  4  1  0
  4  8  1  0
  4  5  2  0
  6  2  1  0
  7  6  2  0
  9  6  1  0
 10  9  1  0
 10 11  1  6
 12 11  1  0
 13 10  1  0
 13 15  1  0
 14 13  2  0
 16 15  1  0
 16 19  1  0
 16 17  1  6
 18 17  1  0
 19 21  2  0
 19 20  1  0
M  END
$$$$
