DCC.pdb
     RDKit          3D

 21 20  0  0  1  0  0  0  0  0999 V2000
   10.1604  -16.8338   19.3513 N   0  0  0  0  0  0  0  0  0  0  0  0
   10.9877  -17.1389   20.5037 C   0  0  1  0  0  0  0  0  0  0  0  0
   12.3974  -16.7099   20.1777 C   0  0  0  0  0  0  0  0  0  0  0  0
   13.3876  -17.6084   20.7730 C   0  0  0  0  0  0  0  0  0  0  0  0
   13.1141  -18.6412   21.4295 O   0  0  0  0  0  0  0  0  0  0  0  0
   10.4672  -16.4319   21.7023 C   0  0  0  0  0  0  0  0  0  0  0  0
   10.3425  -15.1633   21.6081 O   0  0  0  0  0  0  0  0  0  0  0  0
   14.7576  -17.3334   20.6240 O   0  0  0  0  0  0  0  0  0  0  0  0
   10.1120  -17.0877   22.9163 N   0  0  0  0  0  0  0  0  0  0  0  0
    9.6988  -16.3013   24.0333 C   0  0  1  0  0  0  0  0  0  0  0  0
    8.3109  -16.7739   24.4980 C   0  0  0  0  0  0  0  0  0  0  0  0
    8.4860  -18.5598   24.8246 S   0  0  0  0  0  0  0  0  0  0  0  0
   10.5828  -16.4586   25.2146 C   0  0  0  0  0  0  0  0  0  0  0  0
   11.8119  -16.3557   25.0236 O   0  0  0  0  0  0  0  0  0  0  0  0
   10.1012  -16.7139   26.5176 N   0  0  0  0  0  0  0  0  0  0  0  0
   10.3851  -15.8765   27.6305 C   0  0  1  0  0  0  0  0  0  0  0  0
   10.0151  -14.4315   27.3813 C   0  0  0  0  0  0  0  0  0  0  0  0
   10.5807  -13.3170   28.6633 S   0  0  0  0  0  0  0  0  0  0  0  0
    9.9124  -16.3748   28.9433 C   0  0  0  0  0  0  0  0  0  0  0  0
   10.7247  -16.3495   30.0619 O   0  0  0  0  0  0  0  0  0  0  0  0
    8.7619  -16.8299   29.0611 O   0  0  0  0  0  0  0  0  0  0  0  0
  2  3  1  0
  2  1  1  6
  3  4  1  0
  4  8  1  0
  4  5  2  0
  6  2  1  0
  7  6  2  0
  9  6  1  0
 10  9  1  0
 10 11  1  1
 12 11  1  0
 13 10  1  0
 13 15  1  0
 14 13  2  0
 16 15  1  0
 16 19  1  0
 16 17  1  6
 18 17  1  0
 19 21  2  0
 19 20  1  0
M  END
$$$$
