DCC.pdb
     RDKit          3D

 21 20  0  0  1  0  0  0  0  0999 V2000
   11.2762  -16.3226   20.3757 N   0  0  0  0  0  0  0  0  0  0  0  0
   10.5334  -17.0925   21.3561 C   0  0  1  0  0  0  0  0  0  0  0  0
   11.3542  -18.3135   21.6921 C   0  0  0  0  0  0  0  0  0  0  0  0
   11.5618  -19.1652   20.5200 C   0  0  0  0  0  0  0  0  0  0  0  0
   10.7223  -19.3415   19.6053 O   0  0  0  0  0  0  0  0  0  0  0  0
   10.2739  -16.2627   22.5608 C   0  0  0  0  0  0  0  0  0  0  0  0
   11.2005  -15.4534   22.9075 O   0  0  0  0  0  0  0  0  0  0  0  0
   12.7758  -19.8558   20.3660 O   0  0  0  0  0  0  0  0  0  0  0  0
    9.0724  -16.3285   23.3239 N   0  0  0  0  0  0  0  0  0  0  0  0
    8.9256  -15.4771   24.4598 C   0  0  1  0  0  0  0  0  0  0  0  0
    7.4341  -15.3655   24.8181 C   0  0  0  0  0  0  0  0  0  0  0  0
    7.3460  -14.1482   26.1735 S   0  0  0  0  0  0  0  0  0  0  0  0
    9.5828  -16.0129   25.6774 C   0  0  0  0  0  0  0  0  0  0  0  0
    9.7510  -17.2481   25.7369 O   0  0  0  0  0  0  0  0  0  0  0  0
   10.0167  -15.2004   26.7482 N   0  0  0  0  0  0  0  0  0  0  0  0
   10.7112  -15.7087   27.8795 C   0  0  1  0  0  0  0  0  0  0  0  0
   10.9587  -14.6528   28.9335 C   0  0  0  0  0  0  0  0  0  0  0  0
   10.8774  -12.9793   28.3022 S   0  0  0  0  0  0  0  0  0  0  0  0
   10.1796  -16.9720   28.4422 C   0  0  0  0  0  0  0  0  0  0  0  0
   10.8554  -17.6652   29.4294 O   0  0  0  0  0  0  0  0  0  0  0  0
    9.1025  -17.4349   28.0297 O   0  0  0  0  0  0  0  0  0  0  0  0
  2  3  1  0
  2  1  1  6
  3  4  1  0
  4  8  1  0
  4  5  2  0
  6  2  1  0
  7  6  2  0
  9  6  1  0
 10  9  1  0
 10 11  1  1
 12 11  1  0
 13 10  1  0
 13 15  1  0
 14 13  2  0
 16 15  1  0
 16 19  1  0
 16 17  1  1
 18 17  1  0
 19 21  2  0
 19 20  1  0
M  END
$$$$
