DCC.pdb
     RDKit          3D

 21 20  0  0  1  0  0  0  0  0999 V2000
    9.0685  -16.0228   20.3443 N   0  0  0  0  0  0  0  0  0  0  0  0
    8.8330  -16.7240   21.5926 C   0  0  1  0  0  0  0  0  0  0  0  0
    9.8255  -17.8582   21.6711 C   0  0  0  0  0  0  0  0  0  0  0  0
    9.5313  -18.9035   20.6897 C   0  0  0  0  0  0  0  0  0  0  0  0
   10.3948  -19.5341   20.0347 O   0  0  0  0  0  0  0  0  0  0  0  0
    8.9850  -15.7877   22.7361 C   0  0  0  0  0  0  0  0  0  0  0  0
   10.1744  -15.4072   23.0088 O   0  0  0  0  0  0  0  0  0  0  0  0
    8.1972  -19.2600   20.4293 O   0  0  0  0  0  0  0  0  0  0  0  0
    7.8944  -15.3101   23.5187 N   0  0  0  0  0  0  0  0  0  0  0  0
    8.1540  -14.3969   24.5844 C   0  0  1  0  0  0  0  0  0  0  0  0
    6.8250  -13.7892   25.0638 C   0  0  0  0  0  0  0  0  0  0  0  0
    7.2823  -12.5130   26.2840 S   0  0  0  0  0  0  0  0  0  0  0  0
    8.7410  -15.0501   25.7804 C   0  0  0  0  0  0  0  0  0  0  0  0
    8.0788  -15.9644   26.3125 O   0  0  0  0  0  0  0  0  0  0  0  0
    9.9911  -14.6880   26.3291 N   0  0  0  0  0  0  0  0  0  0  0  0
   10.3923  -15.0347   27.6479 C   0  0  1  0  0  0  0  0  0  0  0  0
    9.6447  -14.2565   28.7075 C   0  0  0  0  0  0  0  0  0  0  0  0
   10.7095  -13.5552   29.9645 S   0  0  0  0  0  0  0  0  0  0  0  0
   10.4567  -16.4866   27.9363 C   0  0  0  0  0  0  0  0  0  0  0  0
   11.1251  -16.9753   29.0436 O   0  0  0  0  0  0  0  0  0  0  0  0
    9.9029  -17.2993   27.1764 O   0  0  0  0  0  0  0  0  0  0  0  0
  2  3  1  0
  2  1  1  6
  3  4  1  0
  4  8  1  0
  4  5  2  0
  6  2  1  0
  7  6  2  0
  9  6  1  0
 10  9  1  0
 10 11  1  1
 12 11  1  0
 13 10  1  0
 13 15  1  0
 14 13  2  0
 16 15  1  0
 16 19  1  0
 16 17  1  1
 18 17  1  0
 19 21  2  0
 19 20  1  0
M  END
$$$$
