DCC.pdb
     RDKit          3D

 21 20  0  0  1  0  0  0  0  0999 V2000
    8.8957  -15.9061   13.8227 N   0  0  0  0  0  0  0  0  0  0  0  0
    8.3318  -16.2057   15.1257 C   0  0  1  0  0  0  0  0  0  0  0  0
    8.4670  -17.6922   15.3487 C   0  0  0  0  0  0  0  0  0  0  0  0
    7.5677  -18.4534   14.4804 C   0  0  0  0  0  0  0  0  0  0  0  0
    6.3594  -18.1804   14.2854 O   0  0  0  0  0  0  0  0  0  0  0  0
    9.0426  -15.4310   16.1755 C   0  0  0  0  0  0  0  0  0  0  0  0
   10.2828  -15.1978   15.9722 O   0  0  0  0  0  0  0  0  0  0  0  0
    8.0497  -19.5811   13.7943 O   0  0  0  0  0  0  0  0  0  0  0  0
    8.4199  -14.9516   17.3639 N   0  0  0  0  0  0  0  0  0  0  0  0
    9.2107  -14.2598   18.3297 C   0  0  1  0  0  0  0  0  0  0  0  0
    8.2834  -13.6164   19.3746 C   0  0  0  0  0  0  0  0  0  0  0  0
    7.2666  -12.4150   18.4530 S   0  0  0  0  0  0  0  0  0  0  0  0
   10.1062  -15.1580   19.0998 C   0  0  0  0  0  0  0  0  0  0  0  0
    9.6536  -16.2765   19.4186 O   0  0  0  0  0  0  0  0  0  0  0  0
   11.4210  -14.8072   19.4781 N   0  0  0  0  0  0  0  0  0  0  0  0
   12.3484  -15.7362   20.0234 C   0  0  1  0  0  0  0  0  0  0  0  0
   13.7567  -15.5182   19.5172 C   0  0  0  0  0  0  0  0  0  0  0  0
   14.1640  -13.7945   19.2558 S   0  0  0  0  0  0  0  0  0  0  0  0
   12.2848  -15.9163   21.4926 C   0  0  0  0  0  0  0  0  0  0  0  0
   13.0740  -16.8474   22.1423 O   0  0  0  0  0  0  0  0  0  0  0  0
   11.5101  -15.2232   22.1738 O   0  0  0  0  0  0  0  0  0  0  0  0
  2  3  1  0
  2  1  1  6
  3  4  1  0
  4  8  1  0
  4  5  2  0
  6  2  1  0
  7  6  2  0
  9  6  1  0
 10  9  1  0
 10 11  1  1
 12 11  1  0
 13 10  1  0
 13 15  1  0
 14 13  2  0
 16 15  1  0
 16 19  1  0
 16 17  1  1
 18 17  1  0
 19 21  2  0
 19 20  1  0
M  END
$$$$
