NNM.pdb
     RDKit          3D

 25 24  0  0  1  0  0  0  0  0999 V2000
    9.2967  -12.4136   18.6213 N   0  0  0  0  0  0  0  0  0  0  0  0
    8.1965  -13.3155   18.4607 C   0  0  0  0  0  0  0  0  0  0  0  0
    7.6180  -13.3401   17.3653 O   0  0  0  0  0  0  0  0  0  0  0  0
    7.8090  -14.1535   19.5735 C   0  0  0  0  0  0  0  0  0  0  0  0
    8.5548  -13.9606   20.8692 C   0  0  2  0  0  0  0  0  0  0  0  0
    9.8363  -14.6389   20.6411 N   0  0  0  0  0  0  0  0  0  0  0  0
    7.7979  -14.6619   21.9341 C   0  0  0  0  0  0  0  0  0  0  0  0
    6.5848  -14.8931   21.7793 O   0  0  0  0  0  0  0  0  0  0  0  0
    7.6199  -19.4942   21.9469 N   0  0  0  0  0  0  0  0  0  0  0  0
    7.7749  -18.0875   21.8485 C   0  0  0  0  0  0  0  0  0  0  0  0
    6.9659  -17.4181   21.1606 O   0  0  0  0  0  0  0  0  0  0  0  0
    8.8683  -17.3955   22.5385 C   0  0  0  0  0  0  0  0  0  0  0  0
    8.2386  -16.4515   23.5699 C   0  0  2  0  0  0  0  0  0  0  0  0
    8.3903  -15.0963   23.1509 N   0  0  0  0  0  0  0  0  0  0  0  0
    8.8921  -16.7408   24.8705 C   0  0  0  0  0  0  0  0  0  0  0  0
    8.5758  -17.7024   25.6122 O   0  0  0  0  0  0  0  0  0  0  0  0
    6.1486  -12.1573   25.9039 C   0  0  0  0  0  0  0  0  0  0  0  0
    6.7746  -12.4845   27.5260 S   0  0  0  0  0  0  0  0  0  0  0  0
    8.2808  -13.4200   27.6539 C   0  0  0  0  0  0  0  0  0  0  0  0
    8.5765  -14.2595   26.4657 C   0  0  0  0  0  0  0  0  0  0  0  0
    9.8349  -15.0596   26.5077 C   0  0  2  0  0  0  0  0  0  0  0  0
    9.9315  -15.8730   25.2862 N   0  0  0  0  0  0  0  0  0  0  0  0
    9.9248  -15.9493   27.6729 C   0  0  0  0  0  0  0  0  0  0  0  0
   10.3133  -15.5443   28.7824 O   0  0  0  0  0  0  0  0  0  0  0  0
    9.5760  -17.2824   27.5713 O   0  0  0  0  0  0  0  0  0  0  0  0
  2  1  1  0
  2  3  2  0
  4  2  1  0
  5  4  1  0
  5  6  1  6
  7  8  2  0
  7  5  1  0
  9 10  1  0
 10 11  2  0
 10 12  1  0
 13 12  1  6
 13 15  1  0
 13 14  1  0
 14  7  1  0
 15 22  1  0
 16 15  2  0
 18 17  1  0
 19 18  1  0
 21 20  1  6
 20 19  1  0
 21 23  1  0
 22 21  1  0
 23 24  2  0
 23 25  1  0
M  END
$$$$
