NNM.pdb
     RDKit          3D

 25 24  0  0  1  0  0  0  0  0999 V2000
    7.4722  -12.9269   16.5120 N   0  0  0  0  0  0  0  0  0  0  0  0
    7.9631  -14.2542   16.2961 C   0  0  0  0  0  0  0  0  0  0  0  0
    7.9766  -14.6894   15.1360 O   0  0  0  0  0  0  0  0  0  0  0  0
    8.4194  -15.0259   17.4306 C   0  0  0  0  0  0  0  0  0  0  0  0
    8.1400  -14.4619   18.8003 C   0  0  2  0  0  0  0  0  0  0  0  0
    8.7619  -13.1328   18.7664 N   0  0  0  0  0  0  0  0  0  0  0  0
    8.8367  -15.3172   19.7911 C   0  0  0  0  0  0  0  0  0  0  0  0
    8.4846  -16.5017   19.9402 O   0  0  0  0  0  0  0  0  0  0  0  0
   13.0087  -13.9345   20.1964 N   0  0  0  0  0  0  0  0  0  0  0  0
   12.7088  -15.1501   20.8634 C   0  0  0  0  0  0  0  0  0  0  0  0
   13.1961  -16.2280   20.4432 O   0  0  0  0  0  0  0  0  0  0  0  0
   11.8355  -15.1728   22.0413 C   0  0  0  0  0  0  0  0  0  0  0  0
   10.4708  -15.7097   21.5934 C   0  0  2  0  0  0  0  0  0  0  0  0
    9.9090  -14.8533   20.6005 N   0  0  0  0  0  0  0  0  0  0  0  0
    9.6336  -15.8225   22.8135 C   0  0  0  0  0  0  0  0  0  0  0  0
    8.4131  -16.1142   22.7983 O   0  0  0  0  0  0  0  0  0  0  0  0
    6.5742  -11.2970   26.6267 C   0  0  0  0  0  0  0  0  0  0  0  0
    6.7199  -13.0319   26.3116 S   0  0  0  0  0  0  0  0  0  0  0  0
    8.1307  -13.5839   25.3814 C   0  0  0  0  0  0  0  0  0  0  0  0
    8.1962  -15.0552   25.1940 C   0  0  0  0  0  0  0  0  0  0  0  0
    9.5389  -15.6892   25.3372 C   0  0  2  0  0  0  0  0  0  0  0  0
   10.2615  -15.5844   24.0606 N   0  0  0  0  0  0  0  0  0  0  0  0
    9.4802  -17.1035   25.7290 C   0  0  0  0  0  0  0  0  0  0  0  0
    9.3203  -17.4534   26.9115 O   0  0  0  0  0  0  0  0  0  0  0  0
    9.6028  -18.1034   24.7833 O   0  0  0  0  0  0  0  0  0  0  0  0
  2  1  1  0
  2  3  2  0
  4  2  1  0
  5  4  1  0
  5  6  1  6
  7  8  2  0
  7  5  1  0
  9 10  1  0
 10 11  2  0
 10 12  1  0
 13 12  1  1
 13 15  1  0
 13 14  1  0
 14  7  1  0
 15 22  1  0
 16 15  2  0
 18 17  1  0
 19 18  1  0
 21 20  1  6
 20 19  1  0
 21 23  1  0
 22 21  1  0
 23 24  2  0
 23 25  1  0
M  END
$$$$
