NNM.pdb
     RDKit          3D

 25 24  0  0  1  0  0  0  0  0999 V2000
    9.0017  -14.3357   16.0979 N   0  0  0  0  0  0  0  0  0  0  0  0
    8.5571  -13.6153   17.2524 C   0  0  0  0  0  0  0  0  0  0  0  0
    8.3021  -12.4095   17.1247 O   0  0  0  0  0  0  0  0  0  0  0  0
    8.4248  -14.3181   18.5091 C   0  0  0  0  0  0  0  0  0  0  0  0
    8.8731  -15.7568   18.5404 C   0  0  2  0  0  0  0  0  0  0  0  0
    7.9333  -16.4372   17.6413 N   0  0  0  0  0  0  0  0  0  0  0  0
    8.6935  -16.2554   19.9253 C   0  0  0  0  0  0  0  0  0  0  0  0
    7.5577  -16.5690   20.3261 O   0  0  0  0  0  0  0  0  0  0  0  0
   11.2898  -19.1081   24.5516 N   0  0  0  0  0  0  0  0  0  0  0  0
   10.2804  -18.7763   23.6115 C   0  0  0  0  0  0  0  0  0  0  0  0
    9.0822  -19.0575   23.8585 O   0  0  0  0  0  0  0  0  0  0  0  0
   10.6110  -18.1073   22.3491 C   0  0  0  0  0  0  0  0  0  0  0  0
    9.5446  -17.0333   22.1032 C   0  0  2  0  0  0  0  0  0  0  0  0
    9.7678  -16.4000   20.8446 N   0  0  0  0  0  0  0  0  0  0  0  0
    9.6081  -16.0958   23.2518 C   0  0  0  0  0  0  0  0  0  0  0  0
   10.6544  -15.5047   23.6136 O   0  0  0  0  0  0  0  0  0  0  0  0
    6.5322  -10.6166   27.2791 C   0  0  0  0  0  0  0  0  0  0  0  0
    6.7129  -11.7857   25.9636 S   0  0  0  0  0  0  0  0  0  0  0  0
    6.6823  -13.5121   26.3865 C   0  0  0  0  0  0  0  0  0  0  0  0
    6.9507  -14.4216   25.2442 C   0  0  0  0  0  0  0  0  0  0  0  0
    8.3455  -14.9331   25.1092 C   0  0  2  0  0  0  0  0  0  0  0  0
    8.4110  -15.8642   23.9726 N   0  0  0  0  0  0  0  0  0  0  0  0
    8.8355  -15.6225   26.3100 C   0  0  0  0  0  0  0  0  0  0  0  0
    8.5645  -16.8135   26.5425 O   0  0  0  0  0  0  0  0  0  0  0  0
    9.6236  -14.9602   27.2317 O   0  0  0  0  0  0  0  0  0  0  0  0
  2  1  1  0
  2  3  2  0
  4  2  1  0
  5  4  1  0
  5  6  1  6
  7  8  2  0
  7  5  1  0
  9 10  1  0
 10 11  2  0
 10 12  1  0
 13 12  1  1
 13 15  1  0
 13 14  1  0
 14  7  1  0
 15 22  1  0
 16 15  2  0
 18 17  1  0
 19 18  1  0
 21 20  1  1
 20 19  1  0
 21 23  1  0
 22 21  1  0
 23 24  2  0
 23 25  1  0
M  END
$$$$
