NNM.pdb
     RDKit          3D

 25 24  0  0  1  0  0  0  0  0999 V2000
    7.3706  -22.0506   18.7757 N   0  0  0  0  0  0  0  0  0  0  0  0
    7.3284  -21.8635   20.1944 C   0  0  0  0  0  0  0  0  0  0  0  0
    6.4003  -22.3896   20.8246 O   0  0  0  0  0  0  0  0  0  0  0  0
    8.3617  -21.0753   20.8284 C   0  0  0  0  0  0  0  0  0  0  0  0
    7.9125  -19.9432   21.7164 C   0  0  2  0  0  0  0  0  0  0  0  0
    6.9280  -19.2247   20.8985 N   0  0  0  0  0  0  0  0  0  0  0  0
    9.0869  -19.0737   21.9678 C   0  0  0  0  0  0  0  0  0  0  0  0
   10.0756  -19.5304   22.5704 O   0  0  0  0  0  0  0  0  0  0  0  0
   10.7873  -17.2136   18.5821 N   0  0  0  0  0  0  0  0  0  0  0  0
   11.3167  -17.1577   19.8971 C   0  0  0  0  0  0  0  0  0  0  0  0
   12.1881  -17.9879   20.2538 O   0  0  0  0  0  0  0  0  0  0  0  0
   10.8634  -16.1431   20.8540 C   0  0  0  0  0  0  0  0  0  0  0  0
   10.2035  -16.8777   22.0272 C   0  0  2  0  0  0  0  0  0  0  0  0
    9.1522  -17.7163   21.5513 N   0  0  0  0  0  0  0  0  0  0  0  0
    9.7398  -15.8368   22.9778 C   0  0  0  0  0  0  0  0  0  0  0  0
    9.2618  -14.7315   22.6245 O   0  0  0  0  0  0  0  0  0  0  0  0
    6.3051  -11.3480   27.0614 C   0  0  0  0  0  0  0  0  0  0  0  0
    7.1419  -12.3578   25.8738 S   0  0  0  0  0  0  0  0  0  0  0  0
    7.2192  -14.1058   26.1883 C   0  0  0  0  0  0  0  0  0  0  0  0
    7.9291  -14.8803   25.1393 C   0  0  0  0  0  0  0  0  0  0  0  0
    9.3652  -15.1928   25.3946 C   0  0  2  0  0  0  0  0  0  0  0  0
    9.8491  -16.1207   24.3612 N   0  0  0  0  0  0  0  0  0  0  0  0
    9.6092  -15.7904   26.7139 C   0  0  0  0  0  0  0  0  0  0  0  0
    9.3257  -15.1962   27.7688 O   0  0  0  0  0  0  0  0  0  0  0  0
   10.1693  -17.0485   26.8260 O   0  0  0  0  0  0  0  0  0  0  0  0
  2  1  1  0
  2  3  2  0
  4  2  1  0
  5  4  1  0
  5  6  1  6
  7  8  2  0
  7  5  1  0
  9 10  1  0
 10 11  2  0
 10 12  1  0
 13 12  1  6
 13 15  1  0
 13 14  1  0
 14  7  1  0
 15 22  1  0
 16 15  2  0
 18 17  1  0
 19 18  1  0
 21 20  1  6
 20 19  1  0
 21 23  1  0
 22 21  1  0
 23 24  2  0
 23 25  1  0
M  END
$$$$
