NNM.pdb
     RDKit          3D

 25 24  0  0  1  0  0  0  0  0999 V2000
    8.9371  -12.9137   16.8539 N   0  0  0  0  0  0  0  0  0  0  0  0
    7.7368  -13.6531   17.1029 C   0  0  0  0  0  0  0  0  0  0  0  0
    6.9334  -13.7921   16.1699 O   0  0  0  0  0  0  0  0  0  0  0  0
    7.5131  -14.2028   18.4215 C   0  0  0  0  0  0  0  0  0  0  0  0
    8.4472  -13.7573   19.5174 C   0  0  2  0  0  0  0  0  0  0  0  0
    9.7751  -13.8232   18.8955 N   0  0  0  0  0  0  0  0  0  0  0  0
    8.3578  -14.7482   20.6169 C   0  0  0  0  0  0  0  0  0  0  0  0
    7.2965  -14.8672   21.2560 O   0  0  0  0  0  0  0  0  0  0  0  0
   10.4203  -18.7248   19.5205 N   0  0  0  0  0  0  0  0  0  0  0  0
    9.6014  -18.4480   20.6454 C   0  0  0  0  0  0  0  0  0  0  0  0
    8.3948  -18.7945   20.6382 O   0  0  0  0  0  0  0  0  0  0  0  0
   10.1395  -17.7608   21.8238 C   0  0  0  0  0  0  0  0  0  0  0  0
    9.2766  -16.5166   22.0664 C   0  0  2  0  0  0  0  0  0  0  0  0
    9.4388  -15.5908   20.9933 N   0  0  0  0  0  0  0  0  0  0  0  0
    9.6806  -15.9654   23.3837 C   0  0  0  0  0  0  0  0  0  0  0  0
   10.8374  -15.5537   23.6433 O   0  0  0  0  0  0  0  0  0  0  0  0
    5.9700  -10.8802   26.1617 C   0  0  0  0  0  0  0  0  0  0  0  0
    6.2203  -12.5846   26.5647 S   0  0  0  0  0  0  0  0  0  0  0  0
    7.6290  -13.4011   25.8511 C   0  0  0  0  0  0  0  0  0  0  0  0
    7.8551  -14.7772   26.3602 C   0  0  0  0  0  0  0  0  0  0  0  0
    9.0098  -15.5237   25.7818 C   0  0  2  0  0  0  0  0  0  0  0  0
    8.6932  -15.9066   24.3975 N   0  0  0  0  0  0  0  0  0  0  0  0
    9.3616  -16.7343   26.5353 C   0  0  0  0  0  0  0  0  0  0  0  0
    9.0715  -17.8722   26.1265 O   0  0  0  0  0  0  0  0  0  0  0  0
   10.0349  -16.6457   27.7387 O   0  0  0  0  0  0  0  0  0  0  0  0
  2  1  1  0
  2  3  2  0
  4  2  1  0
  5  4  1  0
  5  6  1  6
  7  8  2  0
  7  5  1  0
  9 10  1  0
 10 11  2  0
 10 12  1  0
 13 12  1  6
 13 15  1  0
 13 14  1  0
 14  7  1  0
 15 22  1  0
 16 15  2  0
 18 17  1  0
 19 18  1  0
 21 20  1  1
 20 19  1  0
 21 23  1  0
 22 21  1  0
 23 24  2  0
 23 25  1  0
M  END
$$$$
