NNM.pdb
     RDKit          3D

 25 24  0  0  1  0  0  0  0  0999 V2000
    8.0711  -12.1016   17.3707 N   0  0  0  0  0  0  0  0  0  0  0  0
    8.1497  -13.5303   17.3251 C   0  0  0  0  0  0  0  0  0  0  0  0
    8.2611  -14.0730   16.2168 O   0  0  0  0  0  0  0  0  0  0  0  0
    8.0965  -14.2750   18.5634 C   0  0  0  0  0  0  0  0  0  0  0  0
    9.0581  -15.4262   18.7128 C   0  0  2  0  0  0  0  0  0  0  0  0
    8.5672  -16.4209   17.7515 N   0  0  0  0  0  0  0  0  0  0  0  0
    8.9220  -15.9515   20.0927 C   0  0  0  0  0  0  0  0  0  0  0  0
    7.8276  -15.8686   20.6798 O   0  0  0  0  0  0  0  0  0  0  0  0
   11.6471  -19.7101   20.7168 N   0  0  0  0  0  0  0  0  0  0  0  0
   10.6905  -19.2954   21.6789 C   0  0  0  0  0  0  0  0  0  0  0  0
    9.6533  -19.9788   21.8610 O   0  0  0  0  0  0  0  0  0  0  0  0
   10.8904  -18.0768   22.4698 C   0  0  0  0  0  0  0  0  0  0  0  0
    9.7673  -17.0993   22.1028 C   0  0  2  0  0  0  0  0  0  0  0  0
    9.9934  -16.5590   20.8021 N   0  0  0  0  0  0  0  0  0  0  0  0
    9.7318  -16.0679   23.1692 C   0  0  0  0  0  0  0  0  0  0  0  0
   10.6213  -15.1969   23.3280 O   0  0  0  0  0  0  0  0  0  0  0  0
    6.9968  -10.9336   27.4190 C   0  0  0  0  0  0  0  0  0  0  0  0
    7.3163  -12.1058   26.1329 S   0  0  0  0  0  0  0  0  0  0  0  0
    6.7138  -13.7627   26.3609 C   0  0  0  0  0  0  0  0  0  0  0  0
    7.0563  -14.6906   25.2537 C   0  0  0  0  0  0  0  0  0  0  0  0
    8.4840  -15.1104   25.1496 C   0  0  2  0  0  0  0  0  0  0  0  0
    8.6241  -16.0791   24.0518 N   0  0  0  0  0  0  0  0  0  0  0  0
    9.0077  -15.7165   26.3806 C   0  0  0  0  0  0  0  0  0  0  0  0
    8.8553  -16.9237   26.6370 O   0  0  0  0  0  0  0  0  0  0  0  0
    9.6954  -14.9541   27.3053 O   0  0  0  0  0  0  0  0  0  0  0  0
  2  1  1  0
  2  3  2  0
  4  2  1  0
  5  4  1  0
  5  6  1  6
  7  8  2  0
  7  5  1  0
  9 10  1  0
 10 11  2  0
 10 12  1  0
 13 12  1  1
 13 15  1  0
 13 14  1  0
 14  7  1  0
 15 22  1  0
 16 15  2  0
 18 17  1  0
 19 18  1  0
 21 20  1  1
 20 19  1  0
 21 23  1  0
 22 21  1  0
 23 24  2  0
 23 25  1  0
M  END
$$$$
