NNM.pdb
     RDKit          3D

 25 24  0  0  1  0  0  0  0  0999 V2000
    6.4217  -20.6015   18.0400 N   0  0  0  0  0  0  0  0  0  0  0  0
    6.1577  -19.3829   18.7433 C   0  0  0  0  0  0  0  0  0  0  0  0
    5.3195  -18.6045   18.2669 O   0  0  0  0  0  0  0  0  0  0  0  0
    6.8737  -19.1125   19.9701 C   0  0  0  0  0  0  0  0  0  0  0  0
    7.3316  -17.6947   20.1984 C   0  0  2  0  0  0  0  0  0  0  0  0
    8.0580  -17.3578   18.9682 N   0  0  0  0  0  0  0  0  0  0  0  0
    8.2678  -17.7025   21.3483 C   0  0  0  0  0  0  0  0  0  0  0  0
    7.8342  -17.9117   22.4960 O   0  0  0  0  0  0  0  0  0  0  0  0
   13.8840  -16.3498   23.3200 N   0  0  0  0  0  0  0  0  0  0  0  0
   12.7355  -17.1771   23.2255 C   0  0  0  0  0  0  0  0  0  0  0  0
   12.3767  -17.8605   24.2156 O   0  0  0  0  0  0  0  0  0  0  0  0
   11.9542  -17.2505   21.9867 C   0  0  0  0  0  0  0  0  0  0  0  0
   10.4734  -17.3206   22.3787 C   0  0  2  0  0  0  0  0  0  0  0  0
    9.6651  -17.4799   21.2141 N   0  0  0  0  0  0  0  0  0  0  0  0
   10.1723  -16.0813   23.1376 C   0  0  0  0  0  0  0  0  0  0  0  0
   10.5827  -14.9426   22.8063 O   0  0  0  0  0  0  0  0  0  0  0  0
    5.3201  -11.4083   26.7516 C   0  0  0  0  0  0  0  0  0  0  0  0
    5.8397  -12.7602   25.7354 S   0  0  0  0  0  0  0  0  0  0  0  0
    7.4616  -13.4293   26.0217 C   0  0  0  0  0  0  0  0  0  0  0  0
    7.8702  -14.4692   25.0441 C   0  0  0  0  0  0  0  0  0  0  0  0
    9.2035  -15.1029   25.2589 C   0  0  2  0  0  0  0  0  0  0  0  0
    9.3744  -16.2060   24.3012 N   0  0  0  0  0  0  0  0  0  0  0  0
    9.3907  -15.6276   26.6179 C   0  0  0  0  0  0  0  0  0  0  0  0
    9.4043  -16.8477   26.8569 O   0  0  0  0  0  0  0  0  0  0  0  0
    9.5595  -14.7702   27.6882 O   0  0  0  0  0  0  0  0  0  0  0  0
  2  1  1  0
  2  3  2  0
  4  2  1  0
  5  4  1  0
  5  6  1  6
  7  8  2  0
  7  5  1  0
  9 10  1  0
 10 11  2  0
 10 12  1  0
 13 12  1  6
 13 15  1  0
 13 14  1  0
 14  7  1  0
 15 22  1  0
 16 15  2  0
 18 17  1  0
 19 18  1  0
 21 20  1  1
 20 19  1  0
 21 23  1  0
 22 21  1  0
 23 24  2  0
 23 25  1  0
M  END
$$$$
