NNM.pdb
     RDKit          3D

 25 24  0  0  1  0  0  0  0  0999 V2000
   11.9113  -19.0627   18.5506 N   0  0  0  0  0  0  0  0  0  0  0  0
   10.8886  -18.4606   17.7501 C   0  0  0  0  0  0  0  0  0  0  0  0
   11.0041  -18.5166   16.5177 O   0  0  0  0  0  0  0  0  0  0  0  0
    9.7723  -17.8175   18.4067 C   0  0  0  0  0  0  0  0  0  0  0  0
    9.8025  -17.7613   19.9126 C   0  0  2  0  0  0  0  0  0  0  0  0
    8.5300  -18.3739   20.3126 N   0  0  0  0  0  0  0  0  0  0  0  0
    9.8192  -16.3331   20.3107 C   0  0  0  0  0  0  0  0  0  0  0  0
   10.8797  -15.6851   20.2410 O   0  0  0  0  0  0  0  0  0  0  0  0
    8.1128  -12.3732   18.5414 N   0  0  0  0  0  0  0  0  0  0  0  0
    7.5721  -13.4741   19.2544 C   0  0  0  0  0  0  0  0  0  0  0  0
    7.1033  -14.4541   18.6255 O   0  0  0  0  0  0  0  0  0  0  0  0
    7.5499  -13.4900   20.7206 C   0  0  0  0  0  0  0  0  0  0  0  0
    8.7753  -14.2822   21.1920 C   0  0  2  0  0  0  0  0  0  0  0  0
    8.6680  -15.6432   20.7784 N   0  0  0  0  0  0  0  0  0  0  0  0
    8.8493  -14.1202   22.6653 C   0  0  0  0  0  0  0  0  0  0  0  0
    8.8607  -13.0075   23.2456 O   0  0  0  0  0  0  0  0  0  0  0  0
    6.1293  -11.1515   27.3109 C   0  0  0  0  0  0  0  0  0  0  0  0
    6.2309  -12.8216   26.7358 S   0  0  0  0  0  0  0  0  0  0  0  0
    7.7635  -13.3489   26.0056 C   0  0  0  0  0  0  0  0  0  0  0  0
    7.7419  -14.7402   25.4877 C   0  0  0  0  0  0  0  0  0  0  0  0
    9.0172  -15.2615   24.9158 C   0  0  2  0  0  0  0  0  0  0  0  0
    8.9100  -15.2981   23.4494 N   0  0  0  0  0  0  0  0  0  0  0  0
    9.3683  -16.6048   25.3948 C   0  0  0  0  0  0  0  0  0  0  0  0
    9.3144  -17.6029   24.6552 O   0  0  0  0  0  0  0  0  0  0  0  0
    9.7748  -16.8045   26.7003 O   0  0  0  0  0  0  0  0  0  0  0  0
  2  1  1  0
  2  3  2  0
  4  2  1  0
  5  4  1  0
  5  6  1  1
  7  8  2  0
  7  5  1  0
  9 10  1  0
 10 11  2  0
 10 12  1  0
 13 12  1  1
 13 15  1  0
 13 14  1  0
 14  7  1  0
 15 22  1  0
 16 15  2  0
 18 17  1  0
 19 18  1  0
 21 20  1  1
 20 19  1  0
 21 23  1  0
 22 21  1  0
 23 24  2  0
 23 25  1  0
M  END
$$$$
