NNM.pdb
     RDKit          3D

 25 24  0  0  1  0  0  0  0  0999 V2000
    7.4112  -14.3536   15.4237 N   0  0  0  0  0  0  0  0  0  0  0  0
    8.2403  -13.6303   16.3395 C   0  0  0  0  0  0  0  0  0  0  0  0
    9.2309  -13.0391   15.8871 O   0  0  0  0  0  0  0  0  0  0  0  0
    7.8910  -13.6192   17.7426 C   0  0  0  0  0  0  0  0  0  0  0  0
    8.9736  -13.9956   18.7215 C   0  0  2  0  0  0  0  0  0  0  0  0
    9.8007  -14.9543   17.9791 N   0  0  0  0  0  0  0  0  0  0  0  0
    8.3270  -14.6742   19.8704 C   0  0  0  0  0  0  0  0  0  0  0  0
    7.5452  -14.0396   20.6021 O   0  0  0  0  0  0  0  0  0  0  0  0
    6.0763  -18.8343   20.4113 N   0  0  0  0  0  0  0  0  0  0  0  0
    7.4857  -18.6900   20.3380 C   0  0  0  0  0  0  0  0  0  0  0  0
    8.0989  -19.0744   19.3123 O   0  0  0  0  0  0  0  0  0  0  0  0
    8.2453  -18.0972   21.4435 C   0  0  0  0  0  0  0  0  0  0  0  0
    8.0168  -16.5815   21.3996 C   0  0  2  0  0  0  0  0  0  0  0  0
    8.5525  -16.0398   20.1936 N   0  0  0  0  0  0  0  0  0  0  0  0
    8.6394  -16.0190   22.6236 C   0  0  0  0  0  0  0  0  0  0  0  0
    9.8781  -15.8969   22.7840 O   0  0  0  0  0  0  0  0  0  0  0  0
    6.2947  -10.7039   26.5154 C   0  0  0  0  0  0  0  0  0  0  0  0
    6.3007  -12.2840   27.3111 S   0  0  0  0  0  0  0  0  0  0  0  0
    7.5160  -13.4682   26.7806 C   0  0  0  0  0  0  0  0  0  0  0  0
    7.2448  -14.0596   25.4462 C   0  0  0  0  0  0  0  0  0  0  0  0
    8.2737  -14.9958   24.9072 C   0  0  2  0  0  0  0  0  0  0  0  0
    7.7734  -15.5996   23.6630 N   0  0  0  0  0  0  0  0  0  0  0  0
    8.6329  -16.0717   25.8403 C   0  0  0  0  0  0  0  0  0  0  0  0
    8.1560  -17.2158   25.7413 O   0  0  0  0  0  0  0  0  0  0  0  0
    9.5238  -15.8434   26.8714 O   0  0  0  0  0  0  0  0  0  0  0  0
  2  1  1  0
  2  3  2  0
  4  2  1  0
  5  4  1  0
  5  6  1  6
  7  8  2  0
  7  5  1  0
  9 10  1  0
 10 11  2  0
 10 12  1  0
 13 12  1  6
 13 15  1  0
 13 14  1  0
 14  7  1  0
 15 22  1  0
 16 15  2  0
 18 17  1  0
 19 18  1  0
 21 20  1  1
 20 19  1  0
 21 23  1  0
 22 21  1  0
 23 24  2  0
 23 25  1  0
M  END
$$$$
