TPA.pdb
     RDKit          3D

 20 20  0  0  1  0  0  0  0  0999 V2000
   22.9252  -10.3312  -19.6501 C   0  0  0  0  0  0  0  0  0  0  0  0
   22.2253  -11.5295  -19.0760 C   0  0  1  0  0  0  0  0  0  0  0  0
   21.9804  -12.4192  -20.0969 O   0  0  0  0  0  0  0  0  0  0  0  0
   23.0841  -12.1752  -17.9805 C   0  0  2  0  0  0  0  0  0  0  0  0
   22.3665  -13.3952  -17.5591 N   0  0  0  0  0  0  0  0  0  0  0  0
   23.1705  -11.2447  -16.8251 C   0  0  0  0  0  0  0  0  0  0  0  0
   22.1232  -11.1137  -16.1252 O   0  0  0  0  0  0  0  0  0  0  0  0
   24.3149  -10.5101  -16.4554 N   0  0  0  0  0  0  0  0  0  0  0  0
   25.6164  -10.6038  -17.0681 C   0  0  0  0  0  0  0  0  0  0  0  0
   26.4875  -10.4943  -15.7972 C   0  0  0  0  0  0  0  0  0  0  0  0
   25.8768   -9.2495  -15.2049 C   0  0  0  0  0  0  0  0  0  0  0  0
   24.3864   -9.5494  -15.3820 C   0  0  1  0  0  0  0  0  0  0  0  0
   23.6771   -8.2868  -15.7787 C   0  0  0  0  0  0  0  0  0  0  0  0
   23.6643   -7.8662  -16.9622 O   0  0  0  0  0  0  0  0  0  0  0  0
   21.0301   -6.1770  -14.1937 C   0  0  0  0  0  0  0  0  0  0  0  0
   22.2051   -6.3421  -15.1126 C   0  0  2  0  0  0  0  0  0  0  0  0
   22.9906   -7.5234  -14.8062 N   0  0  0  0  0  0  0  0  0  0  0  0
   23.1075   -5.1666  -15.0001 C   0  0  0  0  0  0  0  0  0  0  0  0
   24.1396   -5.2447  -14.2856 O   0  0  0  0  0  0  0  0  0  0  0  0
   22.8543   -3.9719  -15.6596 O   0  0  0  0  0  0  0  0  0  0  0  0
  2  1  1  6
  2  3  1  0
  4  6  1  0
  4  2  1  0
  4  5  1  1
  6  7  2  0
  8 12  1  0
  8  6  1  0
  9  8  1  0
 10  9  1  0
 10 11  1  0
 11 12  1  0
 12 13  1  6
 13 14  2  0
 13 17  1  0
 16 15  1  1
 16 18  1  0
 17 16  1  0
 18 20  1  0
 19 18  2  0
M  END
$$$$
