TPA.pdb
     RDKit          3D

 20 20  0  0  1  0  0  0  0  0999 V2000
   22.1009  -11.3742  -20.6053 C   0  0  0  0  0  0  0  0  0  0  0  0
   21.6658  -10.3219  -19.6262 C   0  0  1  0  0  0  0  0  0  0  0  0
   20.7322   -9.5181  -20.2396 O   0  0  0  0  0  0  0  0  0  0  0  0
   21.0837  -10.9742  -18.3651 C   0  0  2  0  0  0  0  0  0  0  0  0
   19.8663  -11.6908  -18.7958 N   0  0  0  0  0  0  0  0  0  0  0  0
   20.6995   -9.9076  -17.4045 C   0  0  0  0  0  0  0  0  0  0  0  0
   19.4944   -9.5200  -17.4423 O   0  0  0  0  0  0  0  0  0  0  0  0
   21.5636   -9.3060  -16.4677 N   0  0  0  0  0  0  0  0  0  0  0  0
   22.9409   -9.6618  -16.2352 C   0  0  0  0  0  0  0  0  0  0  0  0
   22.9674   -9.5231  -14.6969 C   0  0  0  0  0  0  0  0  0  0  0  0
   22.3798   -8.1394  -14.5796 C   0  0  0  0  0  0  0  0  0  0  0  0
   21.2106   -8.2404  -15.5622 C   0  0  1  0  0  0  0  0  0  0  0  0
   21.0924   -6.9474  -16.3164 C   0  0  0  0  0  0  0  0  0  0  0  0
   21.7858   -6.6963  -17.3332 O   0  0  0  0  0  0  0  0  0  0  0  0
   18.6278   -4.0845  -16.2395 C   0  0  0  0  0  0  0  0  0  0  0  0
   19.9426   -4.7133  -16.5975 C   0  0  2  0  0  0  0  0  0  0  0  0
   20.1761   -5.9586  -15.8896 N   0  0  0  0  0  0  0  0  0  0  0  0
   21.0570   -3.7915  -16.2551 C   0  0  0  0  0  0  0  0  0  0  0  0
   21.2029   -2.7271  -16.9090 O   0  0  0  0  0  0  0  0  0  0  0  0
   21.9538   -4.0610  -15.2307 O   0  0  0  0  0  0  0  0  0  0  0  0
  2  1  1  6
  2  3  1  0
  4  6  1  0
  4  2  1  0
  4  5  1  6
  6  7  2  0
  8 12  1  0
  8  6  1  0
  9  8  1  0
 10  9  1  0
 10 11  1  0
 11 12  1  0
 12 13  1  6
 13 14  2  0
 13 17  1  0
 16 15  1  1
 16 18  1  0
 17 16  1  0
 18 20  1  0
 19 18  2  0
M  END
$$$$
