TPA.pdb
     RDKit          3D

 20 20  0  0  1  0  0  0  0  0999 V2000
   24.5420  -10.4424  -20.5760 C   0  0  0  0  0  0  0  0  0  0  0  0
   23.8070  -11.6920  -20.1839 C   0  0  1  0  0  0  0  0  0  0  0  0
   23.7518  -12.5243  -21.2785 O   0  0  0  0  0  0  0  0  0  0  0  0
   24.5128  -12.3795  -19.0076 C   0  0  2  0  0  0  0  0  0  0  0  0
   23.7995  -13.6535  -18.7861 N   0  0  0  0  0  0  0  0  0  0  0  0
   24.3684  -11.5306  -17.7965 C   0  0  0  0  0  0  0  0  0  0  0  0
   23.2277  -11.5195  -17.2465 O   0  0  0  0  0  0  0  0  0  0  0  0
   25.3922  -10.7504  -17.2226 N   0  0  0  0  0  0  0  0  0  0  0  0
   26.7452  -10.6391  -17.7071 C   0  0  0  0  0  0  0  0  0  0  0  0
   27.4844  -10.6234  -16.3508 C   0  0  0  0  0  0  0  0  0  0  0  0
   26.6963   -9.5326  -15.6707 C   0  0  0  0  0  0  0  0  0  0  0  0
   25.2672   -9.9422  -16.0346 C   0  0  1  0  0  0  0  0  0  0  0  0
   24.4669   -8.7085  -16.3381 C   0  0  0  0  0  0  0  0  0  0  0  0
   24.4687   -8.1679  -17.4719 O   0  0  0  0  0  0  0  0  0  0  0  0
   21.6630   -6.9349  -14.5540 C   0  0  0  0  0  0  0  0  0  0  0  0
   22.7695   -7.0012  -15.5657 C   0  0  2  0  0  0  0  0  0  0  0  0
   23.6737   -8.1120  -15.3308 N   0  0  0  0  0  0  0  0  0  0  0  0
   23.5762   -5.7539  -15.5195 C   0  0  0  0  0  0  0  0  0  0  0  0
   24.7471   -5.7906  -15.0618 O   0  0  0  0  0  0  0  0  0  0  0  0
   23.0837   -4.5356  -15.9663 O   0  0  0  0  0  0  0  0  0  0  0  0
  2  1  1  6
  2  3  1  0
  4  6  1  0
  4  2  1  0
  4  5  1  1
  6  7  2  0
  8 12  1  0
  8  6  1  0
  9  8  1  0
 10  9  1  0
 10 11  1  0
 11 12  1  0
 12 13  1  6
 13 14  2  0
 13 17  1  0
 16 15  1  1
 16 18  1  0
 17 16  1  0
 18 20  1  0
 19 18  2  0
M  END
$$$$
