TPA.pdb
     RDKit          3D

 20 20  0  0  1  0  0  0  0  0999 V2000
   16.8328   -8.8919  -16.4858 C   0  0  0  0  0  0  0  0  0  0  0  0
   17.0908  -10.2199  -15.8336 C   0  0  1  0  0  0  0  0  0  0  0  0
   16.0180  -11.0436  -16.0877 O   0  0  0  0  0  0  0  0  0  0  0  0
   18.3916  -10.8334  -16.3683 C   0  0  2  0  0  0  0  0  0  0  0  0
   18.5157  -12.1590  -15.7293 N   0  0  0  0  0  0  0  0  0  0  0  0
   19.5349   -9.9853  -15.9424 C   0  0  0  0  0  0  0  0  0  0  0  0
   19.8406  -10.0236  -14.7140 O   0  0  0  0  0  0  0  0  0  0  0  0
   20.2938   -9.1555  -16.7919 N   0  0  0  0  0  0  0  0  0  0  0  0
   20.0926   -8.9832  -18.2088 C   0  0  0  0  0  0  0  0  0  0  0  0
   21.5703   -8.9269  -18.6552 C   0  0  0  0  0  0  0  0  0  0  0  0
   22.0610   -7.8711  -17.6971 C   0  0  0  0  0  0  0  0  0  0  0  0
   21.4204   -8.3487  -16.3918 C   0  0  1  0  0  0  0  0  0  0  0  0
   20.9436   -7.1551  -15.6155 C   0  0  0  0  0  0  0  0  0  0  0  0
   19.8120   -6.6418  -15.7990 O   0  0  0  0  0  0  0  0  0  0  0  0
   22.0979   -5.4406  -12.4774 C   0  0  0  0  0  0  0  0  0  0  0  0
   21.3736   -5.4575  -13.7917 C   0  0  2  0  0  0  0  0  0  0  0  0
   21.7772   -6.5668  -14.6363 N   0  0  0  0  0  0  0  0  0  0  0  0
   21.6507   -4.2044  -14.5411 C   0  0  0  0  0  0  0  0  0  0  0  0
   22.3520   -4.2492  -15.5842 O   0  0  0  0  0  0  0  0  0  0  0  0
   21.1611   -2.9720  -14.1315 O   0  0  0  0  0  0  0  0  0  0  0  0
  2  1  1  6
  2  3  1  0
  4  6  1  0
  4  2  1  0
  4  5  1  1
  6  7  2  0
  8 12  1  0
  8  6  1  0
  9  8  1  0
 10  9  1  0
 10 11  1  0
 11 12  1  0
 12 13  1  1
 13 14  2  0
 13 17  1  0
 16 15  1  1
 16 18  1  0
 17 16  1  0
 18 20  1  0
 19 18  2  0
M  END
$$$$
