TPA.pdb
     RDKit          3D

 20 20  0  0  1  0  0  0  0  0999 V2000
   14.9042   -7.6674  -13.1036 C   0  0  0  0  0  0  0  0  0  0  0  0
   15.0570   -8.3419  -11.7704 C   0  0  1  0  0  0  0  0  0  0  0  0
   13.8065   -8.6948  -11.3170 O   0  0  0  0  0  0  0  0  0  0  0  0
   15.9624   -9.5743  -11.8964 C   0  0  2  0  0  0  0  0  0  0  0  0
   15.9848  -10.2079  -10.5626 N   0  0  0  0  0  0  0  0  0  0  0  0
   17.3376   -9.1286  -12.2403 C   0  0  0  0  0  0  0  0  0  0  0  0
   18.0367   -8.6674  -11.2903 O   0  0  0  0  0  0  0  0  0  0  0  0
   17.9132   -9.1821  -13.5256 N   0  0  0  0  0  0  0  0  0  0  0  0
   17.2463   -9.5916  -14.7361 C   0  0  0  0  0  0  0  0  0  0  0  0
   18.4012  -10.3821  -15.3899 C   0  0  0  0  0  0  0  0  0  0  0  0
   19.4836   -9.3374  -15.2868 C   0  0  0  0  0  0  0  0  0  0  0  0
   19.2803   -8.8551  -13.8486 C   0  0  1  0  0  0  0  0  0  0  0  0
   19.4747   -7.3670  -13.7995 C   0  0  0  0  0  0  0  0  0  0  0  0
   18.5504   -6.5591  -14.0653 O   0  0  0  0  0  0  0  0  0  0  0  0
   22.2161   -5.1225  -12.4832 C   0  0  0  0  0  0  0  0  0  0  0  0
   20.9921   -5.4064  -13.3038 C   0  0  2  0  0  0  0  0  0  0  0  0
   20.7326   -6.8274  -13.4446 N   0  0  0  0  0  0  0  0  0  0  0  0
   21.1553   -4.8466  -14.6708 C   0  0  0  0  0  0  0  0  0  0  0  0
   21.1761   -3.5992  -14.8304 O   0  0  0  0  0  0  0  0  0  0  0  0
   21.2872   -5.6543  -15.7917 O   0  0  0  0  0  0  0  0  0  0  0  0
  2  1  1  6
  2  3  1  0
  4  6  1  0
  4  2  1  0
  4  5  1  1
  6  7  2  0
  8 12  1  0
  8  6  1  0
  9  8  1  0
 10  9  1  0
 10 11  1  0
 11 12  1  0
 12 13  1  6
 13 14  2  0
 13 17  1  0
 16 15  1  1
 16 18  1  0
 17 16  1  0
 18 20  1  0
 19 18  2  0
M  END
$$$$
