TPA.pdb
     RDKit          3D

 20 20  0  0  1  0  0  0  0  0999 V2000
   12.0065   -9.4840  -12.2301 C   0  0  0  0  0  0  0  0  0  0  0  0
   11.5011  -10.4666  -11.2129 C   0  0  1  0  0  0  0  0  0  0  0  0
   10.4917  -11.2050  -11.7872 O   0  0  0  0  0  0  0  0  0  0  0  0
   12.6418  -11.3753  -10.7358 C   0  0  2  0  0  0  0  0  0  0  0  0
   12.0467  -12.3029   -9.7528 N   0  0  0  0  0  0  0  0  0  0  0  0
   13.6668  -10.5438  -10.0532 C   0  0  0  0  0  0  0  0  0  0  0  0
   13.3953  -10.1656   -8.8755 O   0  0  0  0  0  0  0  0  0  0  0  0
   14.9006  -10.1525  -10.6106 N   0  0  0  0  0  0  0  0  0  0  0  0
   15.3901  -10.5081  -11.9189 C   0  0  0  0  0  0  0  0  0  0  0  0
   16.8763  -10.7355  -11.5647 C   0  0  0  0  0  0  0  0  0  0  0  0
   17.1430   -9.4386  -10.8433 C   0  0  0  0  0  0  0  0  0  0  0  0
   15.8992   -9.3428   -9.9566 C   0  0  1  0  0  0  0  0  0  0  0  0
   15.4438   -7.9129   -9.9054 C   0  0  0  0  0  0  0  0  0  0  0  0
   14.7622   -7.3911  -10.8224 O   0  0  0  0  0  0  0  0  0  0  0  0
   15.5284   -5.2373   -7.2178 C   0  0  0  0  0  0  0  0  0  0  0  0
   15.2890   -5.7481   -8.6085 C   0  0  2  0  0  0  0  0  0  0  0  0
   15.7796   -7.1009   -8.7975 N   0  0  0  0  0  0  0  0  0  0  0  0
   15.9841   -4.8811   -9.5953 C   0  0  0  0  0  0  0  0  0  0  0  0
   15.6255   -3.6829   -9.7273 O   0  0  0  0  0  0  0  0  0  0  0  0
   17.0255   -5.3458  -10.3864 O   0  0  0  0  0  0  0  0  0  0  0  0
  2  1  1  6
  2  3  1  0
  4  6  1  0
  4  2  1  0
  4  5  1  1
  6  7  2  0
  8 12  1  0
  8  6  1  0
  9  8  1  0
 10  9  1  0
 10 11  1  0
 11 12  1  0
 12 13  1  6
 13 14  2  0
 13 17  1  0
 16 15  1  1
 16 18  1  0
 17 16  1  0
 18 20  1  0
 19 18  2  0
M  END
$$$$
