TPA.pdb
     RDKit          3D

 20 20  0  0  1  0  0  0  0  0999 V2000
   23.5652   -9.7771  -20.2795 C   0  0  0  0  0  0  0  0  0  0  0  0
   22.8402  -11.0328  -19.8883 C   0  0  1  0  0  0  0  0  0  0  0  0
   22.7030  -11.8212  -21.0079 O   0  0  0  0  0  0  0  0  0  0  0  0
   23.6113  -11.7734  -18.7876 C   0  0  2  0  0  0  0  0  0  0  0  0
   22.9075  -13.0553  -18.5819 N   0  0  0  0  0  0  0  0  0  0  0  0
   23.5415  -10.9798  -17.5332 C   0  0  0  0  0  0  0  0  0  0  0  0
   22.4267  -10.9686  -16.9325 O   0  0  0  0  0  0  0  0  0  0  0  0
   24.6087  -10.2514  -16.9704 N   0  0  0  0  0  0  0  0  0  0  0  0
   25.9337  -10.1256  -17.5240 C   0  0  0  0  0  0  0  0  0  0  0  0
   26.7488  -10.2074  -16.2145 C   0  0  0  0  0  0  0  0  0  0  0  0
   26.0183   -9.1534  -15.4214 C   0  0  0  0  0  0  0  0  0  0  0  0
   24.5644   -9.5206  -15.7277 C   0  0  1  0  0  0  0  0  0  0  0  0
   23.7683   -8.2599  -15.9047 C   0  0  0  0  0  0  0  0  0  0  0  0
   23.7658   -7.6117  -16.9806 O   0  0  0  0  0  0  0  0  0  0  0  0
   21.0202   -6.5991  -13.9307 C   0  0  0  0  0  0  0  0  0  0  0  0
   22.1281   -6.5934  -14.9430 C   0  0  2  0  0  0  0  0  0  0  0  0
   22.9841   -7.7608  -14.8391 N   0  0  0  0  0  0  0  0  0  0  0  0
   22.9856   -5.3948  -14.7515 C   0  0  0  0  0  0  0  0  0  0  0  0
   22.5134   -4.2524  -14.9838 O   0  0  0  0  0  0  0  0  0  0  0  0
   24.3021   -5.4862  -14.3215 O   0  0  0  0  0  0  0  0  0  0  0  0
  2  1  1  6
  2  3  1  0
  4  6  1  0
  4  2  1  0
  4  5  1  1
  6  7  2  0
  8 12  1  0
  8  6  1  0
  9  8  1  0
 10  9  1  0
 10 11  1  0
 11 12  1  0
 12 13  1  6
 13 14  2  0
 13 17  1  0
 16 15  1  1
 16 18  1  0
 17 16  1  0
 18 20  1  0
 19 18  2  0
M  END
$$$$
