TPA.pdb
     RDKit          3D

 20 20  0  0  1  0  0  0  0  0999 V2000
   18.7981   -8.5915  -18.1313 C   0  0  0  0  0  0  0  0  0  0  0  0
   17.8453   -9.3220  -17.2290 C   0  0  1  0  0  0  0  0  0  0  0  0
   17.2123  -10.2973  -17.9651 O   0  0  0  0  0  0  0  0  0  0  0  0
   18.5987   -9.9343  -16.0408 C   0  0  2  0  0  0  0  0  0  0  0  0
   17.6029  -10.7142  -15.2785 N   0  0  0  0  0  0  0  0  0  0  0  0
   19.1126   -8.8379  -15.1795 C   0  0  0  0  0  0  0  0  0  0  0  0
   18.2462   -8.1497  -14.5633 O   0  0  0  0  0  0  0  0  0  0  0  0
   20.4721   -8.5135  -14.9991 N   0  0  0  0  0  0  0  0  0  0  0  0
   21.5917   -9.1864  -15.6086 C   0  0  0  0  0  0  0  0  0  0  0  0
   22.5655   -9.1644  -14.4097 C   0  0  0  0  0  0  0  0  0  0  0  0
   22.4907   -7.6954  -14.0781 C   0  0  0  0  0  0  0  0  0  0  0  0
   20.9801   -7.4613  -14.1535 C   0  0  1  0  0  0  0  0  0  0  0  0
   20.7232   -6.1258  -14.7899 C   0  0  0  0  0  0  0  0  0  0  0  0
   20.7738   -5.9524  -16.0329 O   0  0  0  0  0  0  0  0  0  0  0  0
   19.2677   -2.8701  -13.5780 C   0  0  0  0  0  0  0  0  0  0  0  0
   20.1042   -3.6897  -14.5166 C   0  0  2  0  0  0  0  0  0  0  0  0
   20.4108   -5.0053  -13.9858 N   0  0  0  0  0  0  0  0  0  0  0  0
   21.3963   -3.0033  -14.7773 C   0  0  0  0  0  0  0  0  0  0  0  0
   21.4068   -1.9349  -15.4408 O   0  0  0  0  0  0  0  0  0  0  0  0
   22.6063   -3.4994  -14.3125 O   0  0  0  0  0  0  0  0  0  0  0  0
  2  1  1  6
  2  3  1  0
  4  6  1  0
  4  2  1  0
  4  5  1  1
  6  7  2  0
  8 12  1  0
  8  6  1  0
  9  8  1  0
 10  9  1  0
 10 11  1  0
 11 12  1  0
 12 13  1  6
 13 14  2  0
 13 17  1  0
 16 15  1  1
 16 18  1  0
 17 16  1  0
 18 20  1  0
 19 18  2  0
M  END
$$$$
