TPA.pdb
     RDKit          3D

 20 20  0  0  1  0  0  0  0  0999 V2000
   23.2292  -11.6658  -14.6951 C   0  0  0  0  0  0  0  0  0  0  0  0
   23.4568  -11.8791  -16.1642 C   0  0  1  0  0  0  0  0  0  0  0  0
   23.9241  -13.1602  -16.3492 O   0  0  0  0  0  0  0  0  0  0  0  0
   22.1550  -11.6525  -16.9443 C   0  0  2  0  0  0  0  0  0  0  0  0
   22.4519  -11.9937  -18.3502 N   0  0  0  0  0  0  0  0  0  0  0  0
   21.7902  -10.2142  -16.8652 C   0  0  0  0  0  0  0  0  0  0  0  0
   22.5148   -9.4101  -17.5227 O   0  0  0  0  0  0  0  0  0  0  0  0
   20.7127   -9.6872  -16.1253 N   0  0  0  0  0  0  0  0  0  0  0  0
   19.7822  -10.4451  -15.3269 C   0  0  0  0  0  0  0  0  0  0  0  0
   18.4890   -9.6727  -15.6690 C   0  0  0  0  0  0  0  0  0  0  0  0
   18.9707   -8.2743  -15.3762 C   0  0  0  0  0  0  0  0  0  0  0  0
   20.3416   -8.2951  -16.0564 C   0  0  1  0  0  0  0  0  0  0  0  0
   21.3233   -7.5466  -15.2017 C   0  0  0  0  0  0  0  0  0  0  0  0
   21.9121   -8.0806  -14.2291 O   0  0  0  0  0  0  0  0  0  0  0  0
   22.9049   -4.1031  -15.3826 C   0  0  0  0  0  0  0  0  0  0  0  0
   22.5381   -5.3872  -14.6980 C   0  0  2  0  0  0  0  0  0  0  0  0
   21.6150   -6.1908  -15.4781 N   0  0  0  0  0  0  0  0  0  0  0  0
   21.8853   -5.0998  -13.3942 C   0  0  0  0  0  0  0  0  0  0  0  0
   22.5649   -4.6095  -12.4564 O   0  0  0  0  0  0  0  0  0  0  0  0
   20.5398   -5.3537  -13.1670 O   0  0  0  0  0  0  0  0  0  0  0  0
  2  1  1  1
  2  3  1  0
  4  6  1  0
  4  2  1  0
  4  5  1  6
  6  7  2  0
  8 12  1  0
  8  6  1  0
  9  8  1  0
 10  9  1  0
 10 11  1  0
 11 12  1  0
 12 13  1  1
 13 14  2  0
 13 17  1  0
 16 15  1  6
 16 18  1  0
 17 16  1  0
 18 20  1  0
 19 18  2  0
M  END
$$$$
