TPA.pdb
     RDKit          3D

 20 20  0  0  1  0  0  0  0  0999 V2000
   20.5418  -10.3442  -18.5316 C   0  0  0  0  0  0  0  0  0  0  0  0
   19.4808  -11.2746  -18.0177 C   0  0  1  0  0  0  0  0  0  0  0  0
   19.1221  -12.1280  -19.0360 O   0  0  0  0  0  0  0  0  0  0  0  0
   19.9994  -12.0570  -16.8039 C   0  0  2  0  0  0  0  0  0  0  0  0
   18.9099  -12.9713  -16.4063 N   0  0  0  0  0  0  0  0  0  0  0  0
   20.2584  -11.1055  -15.6923 C   0  0  0  0  0  0  0  0  0  0  0  0
   19.2502  -10.5064  -15.2143 O   0  0  0  0  0  0  0  0  0  0  0  0
   21.5237  -10.8263  -15.1380 N   0  0  0  0  0  0  0  0  0  0  0  0
   22.7606  -11.4849  -15.4757 C   0  0  0  0  0  0  0  0  0  0  0  0
   23.3826  -11.5643  -14.0640 C   0  0  0  0  0  0  0  0  0  0  0  0
   23.2315  -10.1186  -13.6633 C   0  0  0  0  0  0  0  0  0  0  0  0
   21.7961   -9.8438  -14.1178 C   0  0  1  0  0  0  0  0  0  0  0  0
   21.7248   -8.4640  -14.7058 C   0  0  0  0  0  0  0  0  0  0  0  0
   22.1247   -8.2070  -15.8684 O   0  0  0  0  0  0  0  0  0  0  0  0
   19.7509   -5.4096  -14.0216 C   0  0  0  0  0  0  0  0  0  0  0  0
   21.0425   -6.0430  -14.4494 C   0  0  2  0  0  0  0  0  0  0  0  0
   21.1931   -7.3961  -13.9464 N   0  0  0  0  0  0  0  0  0  0  0  0
   22.1911   -5.2491  -13.9405 C   0  0  0  0  0  0  0  0  0  0  0  0
   22.8360   -5.6627  -12.9431 O   0  0  0  0  0  0  0  0  0  0  0  0
   22.5856   -4.0553  -14.5285 O   0  0  0  0  0  0  0  0  0  0  0  0
  2  1  1  6
  2  3  1  0
  4  6  1  0
  4  2  1  0
  4  5  1  1
  6  7  2  0
  8 12  1  0
  8  6  1  0
  9  8  1  0
 10  9  1  0
 10 11  1  0
 11 12  1  0
 12 13  1  6
 13 14  2  0
 13 17  1  0
 16 15  1  1
 16 18  1  0
 17 16  1  0
 18 20  1  0
 19 18  2  0
M  END
$$$$
