TPA.pdb
     RDKit          3D

 20 20  0  0  1  0  0  0  0  0999 V2000
   19.6892   -8.4195  -19.6084 C   0  0  0  0  0  0  0  0  0  0  0  0
   19.5694   -9.8113  -19.0572 C   0  0  1  0  0  0  0  0  0  0  0  0
   18.8229  -10.5630  -19.9355 O   0  0  0  0  0  0  0  0  0  0  0  0
   20.9604  -10.4265  -18.8540 C   0  0  2  0  0  0  0  0  0  0  0  0
   20.7357  -11.8064  -18.3783 N   0  0  0  0  0  0  0  0  0  0  0  0
   21.6748   -9.6639  -17.7977 C   0  0  0  0  0  0  0  0  0  0  0  0
   21.2863   -9.8483  -16.6065 O   0  0  0  0  0  0  0  0  0  0  0  0
   22.7379   -8.7657  -18.0200 N   0  0  0  0  0  0  0  0  0  0  0  0
   23.3257   -8.4483  -19.2973 C   0  0  0  0  0  0  0  0  0  0  0  0
   24.8072   -8.3723  -18.8666 C   0  0  0  0  0  0  0  0  0  0  0  0
   24.6609   -7.4268  -17.7013 C   0  0  0  0  0  0  0  0  0  0  0  0
   23.4373   -8.0225  -17.0008 C   0  0  1  0  0  0  0  0  0  0  0  0
   22.5696   -6.9052  -16.4974 C   0  0  0  0  0  0  0  0  0  0  0  0
   21.7132   -6.3402  -17.2221 O   0  0  0  0  0  0  0  0  0  0  0  0
   21.7956   -5.5238  -13.0777 C   0  0  0  0  0  0  0  0  0  0  0  0
   21.8596   -5.4259  -14.5739 C   0  0  2  0  0  0  0  0  0  0  0  0
   22.6992   -6.4522  -15.1642 N   0  0  0  0  0  0  0  0  0  0  0  0
   22.4199   -4.1088  -14.9738 C   0  0  0  0  0  0  0  0  0  0  0  0
   21.7622   -3.0613  -14.7454 O   0  0  0  0  0  0  0  0  0  0  0  0
   23.6542   -3.9864  -15.5965 O   0  0  0  0  0  0  0  0  0  0  0  0
  2  1  1  6
  2  3  1  0
  4  6  1  0
  4  2  1  0
  4  5  1  1
  6  7  2  0
  8 12  1  0
  8  6  1  0
  9  8  1  0
 10  9  1  0
 10 11  1  0
 11 12  1  0
 12 13  1  6
 13 14  2  0
 13 17  1  0
 16 15  1  1
 16 18  1  0
 17 16  1  0
 18 20  1  0
 19 18  2  0
M  END
$$$$
