TPA.pdb
     RDKit          3D

 20 20  0  0  1  0  0  0  0  0999 V2000
   20.9399  -11.1950  -19.3843 C   0  0  0  0  0  0  0  0  0  0  0  0
   20.1134  -12.3031  -18.7974 C   0  0  1  0  0  0  0  0  0  0  0  0
   20.1723  -13.3846  -19.6464 O   0  0  0  0  0  0  0  0  0  0  0  0
   20.6315  -12.6734  -17.4013 C   0  0  2  0  0  0  0  0  0  0  0  0
   19.7996  -13.8025  -16.9386 N   0  0  0  0  0  0  0  0  0  0  0  0
   20.4253  -11.5187  -16.4890 C   0  0  0  0  0  0  0  0  0  0  0  0
   19.2261  -11.1662  -16.2853 O   0  0  0  0  0  0  0  0  0  0  0  0
   21.4501  -10.7991  -15.8424 N   0  0  0  0  0  0  0  0  0  0  0  0
   22.8541  -11.1248  -15.8586 C   0  0  0  0  0  0  0  0  0  0  0  0
   23.1967  -10.7799  -14.3924 C   0  0  0  0  0  0  0  0  0  0  0  0
   22.6118   -9.3912  -14.3390 C   0  0  0  0  0  0  0  0  0  0  0  0
   21.2666   -9.6199  -15.0323 C   0  0  1  0  0  0  0  0  0  0  0  0
   20.9616   -8.4401  -15.9096 C   0  0  0  0  0  0  0  0  0  0  0  0
   21.4948   -8.2841  -17.0361 O   0  0  0  0  0  0  0  0  0  0  0  0
   18.3283   -5.7503  -15.9060 C   0  0  0  0  0  0  0  0  0  0  0  0
   19.6835   -6.2874  -16.2627 C   0  0  2  0  0  0  0  0  0  0  0  0
   20.0452   -7.4535  -15.4779 N   0  0  0  0  0  0  0  0  0  0  0  0
   20.7207   -5.2505  -16.0224 C   0  0  0  0  0  0  0  0  0  0  0  0
   20.7282   -4.2078  -16.7256 O   0  0  0  0  0  0  0  0  0  0  0  0
   21.6930   -5.3880  -15.0415 O   0  0  0  0  0  0  0  0  0  0  0  0
  2  1  1  6
  2  3  1  0
  4  6  1  0
  4  2  1  0
  4  5  1  1
  6  7  2  0
  8 12  1  0
  8  6  1  0
  9  8  1  0
 10  9  1  0
 10 11  1  0
 11 12  1  0
 12 13  1  6
 13 14  2  0
 13 17  1  0
 16 15  1  1
 16 18  1  0
 17 16  1  0
 18 20  1  0
 19 18  2  0
M  END
$$$$
