TPA.pdb
     RDKit          3D

 20 20  0  0  1  0  0  0  0  0999 V2000
   17.8564   -9.1762  -17.7656 C   0  0  0  0  0  0  0  0  0  0  0  0
   17.7158  -10.4505  -16.9834 C   0  0  1  0  0  0  0  0  0  0  0  0
   16.6502  -11.1569  -17.4929 O   0  0  0  0  0  0  0  0  0  0  0  0
   19.0085  -11.2731  -17.0662 C   0  0  2  0  0  0  0  0  0  0  0  0
   18.7484  -12.5258  -16.3287 N   0  0  0  0  0  0  0  0  0  0  0  0
   20.0975  -10.5291  -16.3816 C   0  0  0  0  0  0  0  0  0  0  0  0
   20.0404  -10.4796  -15.1175 O   0  0  0  0  0  0  0  0  0  0  0  0
   21.1737   -9.8861  -17.0255 N   0  0  0  0  0  0  0  0  0  0  0  0
   21.4620   -9.9254  -18.4372 C   0  0  0  0  0  0  0  0  0  0  0  0
   23.0019  -10.0230  -18.3642 C   0  0  0  0  0  0  0  0  0  0  0  0
   23.2636   -8.8605  -17.4405 C   0  0  0  0  0  0  0  0  0  0  0  0
   22.1879   -9.0919  -16.3767 C   0  0  1  0  0  0  0  0  0  0  0  0
   21.6135   -7.7669  -15.9654 C   0  0  0  0  0  0  0  0  0  0  0  0
   20.6973   -7.2013  -16.6123 O   0  0  0  0  0  0  0  0  0  0  0  0
   21.7927   -5.6837  -12.8370 C   0  0  0  0  0  0  0  0  0  0  0  0
   21.5704   -5.8553  -14.3112 C   0  0  2  0  0  0  0  0  0  0  0  0
   22.1020   -7.1092  -14.8129 N   0  0  0  0  0  0  0  0  0  0  0  0
   22.2398   -4.7582  -15.0575 C   0  0  0  0  0  0  0  0  0  0  0  0
   21.8438   -3.5743  -14.9049 O   0  0  0  0  0  0  0  0  0  0  0  0
   23.2970   -4.9901  -15.9263 O   0  0  0  0  0  0  0  0  0  0  0  0
  2  1  1  6
  2  3  1  0
  4  6  1  0
  4  2  1  0
  4  5  1  1
  6  7  2  0
  8 12  1  0
  8  6  1  0
  9  8  1  0
 10  9  1  0
 10 11  1  0
 11 12  1  0
 12 13  1  6
 13 14  2  0
 13 17  1  0
 16 15  1  1
 16 18  1  0
 17 16  1  0
 18 20  1  0
 19 18  2  0
M  END
$$$$
