TPA.pdb
     RDKit          3D

 20 20  0  0  1  0  0  0  0  0999 V2000
   18.6037   -8.2881  -18.9646 C   0  0  0  0  0  0  0  0  0  0  0  0
   18.1582   -9.5655  -18.3124 C   0  0  1  0  0  0  0  0  0  0  0  0
   17.2663  -10.1929  -19.1519 O   0  0  0  0  0  0  0  0  0  0  0  0
   19.3659  -10.4667  -18.0234 C   0  0  2  0  0  0  0  0  0  0  0  0
   18.8196  -11.7284  -17.4843 N   0  0  0  0  0  0  0  0  0  0  0  0
   20.2085   -9.8237  -16.9819 C   0  0  0  0  0  0  0  0  0  0  0  0
   19.7335   -9.7956  -15.8083 O   0  0  0  0  0  0  0  0  0  0  0  0
   21.4786   -9.2533  -17.2002 N   0  0  0  0  0  0  0  0  0  0  0  0
   22.1735   -9.1901  -18.4615 C   0  0  0  0  0  0  0  0  0  0  0  0
   23.6063   -9.4757  -17.9598 C   0  0  0  0  0  0  0  0  0  0  0  0
   23.6754   -8.4468  -16.8599 C   0  0  0  0  0  0  0  0  0  0  0  0
   22.3142   -8.6510  -16.1906 C   0  0  1  0  0  0  0  0  0  0  0  0
   21.7566   -7.3132  -15.7978 C   0  0  0  0  0  0  0  0  0  0  0  0
   21.2059   -6.5451  -16.6251 O   0  0  0  0  0  0  0  0  0  0  0  0
   21.0520   -5.6164  -12.5004 C   0  0  0  0  0  0  0  0  0  0  0  0
   21.3005   -5.6157  -13.9804 C   0  0  2  0  0  0  0  0  0  0  0  0
   21.8404   -6.8764  -14.4555 N   0  0  0  0  0  0  0  0  0  0  0  0
   22.2783   -4.5529  -14.3313 C   0  0  0  0  0  0  0  0  0  0  0  0
   21.9299   -3.3460  -14.2680 O   0  0  0  0  0  0  0  0  0  0  0  0
   23.5757   -4.8417  -14.7308 O   0  0  0  0  0  0  0  0  0  0  0  0
  2  1  1  6
  2  3  1  0
  4  6  1  0
  4  2  1  0
  4  5  1  1
  6  7  2  0
  8 12  1  0
  8  6  1  0
  9  8  1  0
 10  9  1  0
 10 11  1  0
 11 12  1  0
 12 13  1  6
 13 14  2  0
 13 17  1  0
 16 15  1  1
 16 18  1  0
 17 16  1  0
 18 20  1  0
 19 18  2  0
M  END
$$$$
