EIH.pdb
     RDKit          3D

 28 28  0  0  1  0  0  0  0  0999 V2000
    9.9279  -17.3910   15.7674 N   0  0  0  0  0  0  0  0  0  0  0  0
    9.3422  -17.8218   17.0148 C   0  0  1  0  0  0  0  0  0  0  0  0
    9.8129  -19.2228   17.3995 C   0  0  0  0  0  0  0  0  0  0  0  0
    9.2242  -20.1741   16.3883 C   0  0  0  0  0  0  0  0  0  0  0  0
    9.5896  -21.5839   16.6828 C   0  0  0  0  0  0  0  0  0  0  0  0
    9.8594  -21.8903   17.8729 O   0  0  0  0  0  0  0  0  0  0  0  0
    9.7665  -16.8742   18.0762 C   0  0  0  0  0  0  0  0  0  0  0  0
   10.9289  -16.3759   18.0708 O   0  0  0  0  0  0  0  0  0  0  0  0
    9.6302  -22.5296   15.6704 O   0  0  0  0  0  0  0  0  0  0  0  0
    6.2176  -13.3196   20.0140 C   0  0  0  0  0  0  0  0  0  0  0  0
    7.4993  -13.9106   19.5407 C   0  0  0  0  0  0  0  0  0  0  0  0
    8.1149  -14.7979   20.5624 C   0  0  2  0  0  0  0  0  0  0  0  0
    8.3436  -14.0331   21.8812 C   0  0  0  0  0  0  0  0  0  0  0  0
    9.3802  -15.5062   20.1735 C   0  0  2  0  0  0  0  0  0  0  0  0
    8.9195  -16.4758   19.1375 N   0  0  0  0  0  0  0  0  0  0  0  0
   10.1341  -16.1953   21.1948 C   0  0  0  0  0  0  0  0  0  0  0  0
    9.6148  -17.2764   21.6736 O   0  0  0  0  0  0  0  0  0  0  0  0
   11.3629  -15.8494   21.7414 N   0  0  0  0  0  0  0  0  0  0  0  0
   12.1132  -16.6982   22.6744 C   0  0  1  0  0  0  0  0  0  0  0  0
   13.4837  -16.1882   22.9000 C   0  0  0  0  0  0  0  0  0  0  0  0
   14.2226  -17.0365   23.8626 C   0  0  0  0  0  0  0  0  0  0  0  0
   14.1449  -17.1266   25.2219 C   0  0  0  0  0  0  0  0  0  0  0  0
   14.9706  -18.1087   25.6365 N   0  0  0  0  0  0  0  0  0  0  0  0
   15.5771  -18.6547   24.5787 C   0  0  0  0  0  0  0  0  0  0  0  0
   15.1271  -18.0099   23.5095 N   0  0  0  0  0  0  0  0  0  0  0  0
   11.3245  -16.5780   23.9567 C   0  0  0  0  0  0  0  0  0  0  0  0
   11.3158  -17.5697   24.7290 O   0  0  0  0  0  0  0  0  0  0  0  0
   10.6363  -15.4642   24.2983 O   0  0  0  0  0  0  0  0  0  0  0  0
  2  3  1  0
  2  1  1  6
  4  5  1  0
  4  3  1  0
  5  6  2  0
  7  2  1  0
  8  7  2  0
  9  5  1  0
 11 12  1  0
 11 10  1  0
 12 13  1  1
 12 14  1  0
 14 15  1  6
 15  7  1  0
 16 17  2  0
 16 14  1  0
 18 16  1  0
 19 18  1  0
 19 20  1  1
 20 21  1  0
 21 25  1  0
 21 22  2  0
 22 23  1  0
 24 23  1  0
 25 24  2  0
 26 19  1  0
 27 26  2  0
 28 26  1  0
M  END
$$$$
