EIH.pdb
     RDKit          3D

 28 28  0  0  1  0  0  0  0  0999 V2000
    8.1975  -15.0669   20.5273 N   0  0  0  0  0  0  0  0  0  0  0  0
    7.6320  -15.6845   21.7036 C   0  0  1  0  0  0  0  0  0  0  0  0
    7.8301  -17.1987   21.6906 C   0  0  0  0  0  0  0  0  0  0  0  0
    7.0087  -17.7366   20.5462 C   0  0  0  0  0  0  0  0  0  0  0  0
    6.9957  -19.2224   20.5301 C   0  0  0  0  0  0  0  0  0  0  0  0
    6.3176  -19.7997   19.6413 O   0  0  0  0  0  0  0  0  0  0  0  0
    8.3232  -15.1290   22.8946 C   0  0  0  0  0  0  0  0  0  0  0  0
    9.5634  -14.8829   22.8659 O   0  0  0  0  0  0  0  0  0  0  0  0
    7.7124  -19.9456   21.4703 O   0  0  0  0  0  0  0  0  0  0  0  0
    5.8411  -11.5778   25.9516 C   0  0  0  0  0  0  0  0  0  0  0  0
    6.8783  -12.3395   25.2032 C   0  0  0  0  0  0  0  0  0  0  0  0
    7.4166  -13.4756   25.9968 C   0  0  2  0  0  0  0  0  0  0  0  0
    8.0179  -12.9753   27.3251 C   0  0  0  0  0  0  0  0  0  0  0  0
    8.4048  -14.3747   25.3119 C   0  0  2  0  0  0  0  0  0  0  0  0
    7.6565  -14.8453   24.1102 N   0  0  0  0  0  0  0  0  0  0  0  0
    8.9361  -15.5052   26.0372 C   0  0  0  0  0  0  0  0  0  0  0  0
    8.0930  -16.4133   26.4011 O   0  0  0  0  0  0  0  0  0  0  0  0
   10.2524  -15.7546   26.4027 N   0  0  0  0  0  0  0  0  0  0  0  0
   10.6932  -16.9668   27.1029 C   0  0  1  0  0  0  0  0  0  0  0  0
   12.1056  -17.2907   26.8039 C   0  0  0  0  0  0  0  0  0  0  0  0
   12.2861  -17.6494   25.3788 C   0  0  0  0  0  0  0  0  0  0  0  0
   11.4246  -18.2045   24.4779 C   0  0  0  0  0  0  0  0  0  0  0  0
   12.0354  -18.2628   23.2772 N   0  0  0  0  0  0  0  0  0  0  0  0
   13.2679  -17.7580   23.3812 C   0  0  0  0  0  0  0  0  0  0  0  0
   13.4200  -17.3878   24.6466 N   0  0  0  0  0  0  0  0  0  0  0  0
   10.5722  -16.5842   28.5588 C   0  0  0  0  0  0  0  0  0  0  0  0
   10.3356  -15.3788   28.8254 O   0  0  0  0  0  0  0  0  0  0  0  0
   10.7096  -17.4732   29.5695 O   0  0  0  0  0  0  0  0  0  0  0  0
  2  3  1  0
  2  1  1  6
  4  5  1  0
  4  3  1  0
  5  6  2  0
  7  2  1  0
  8  7  2  0
  9  5  1  0
 11 12  1  0
 11 10  1  0
 12 13  1  1
 12 14  1  0
 14 15  1  6
 15  7  1  0
 16 17  2  0
 16 14  1  0
 18 16  1  0
 19 18  1  0
 19 20  1  6
 20 21  1  0
 21 25  1  0
 21 22  2  0
 22 23  1  0
 24 23  1  0
 25 24  2  0
 26 19  1  0
 27 26  2  0
 28 26  1  0
M  END
$$$$
