EIH.pdb
     RDKit          3D

 28 28  0  0  1  0  0  0  0  0999 V2000
   10.2284  -17.2150   16.3602 N   0  0  0  0  0  0  0  0  0  0  0  0
    9.3617  -17.5921   17.4516 C   0  0  1  0  0  0  0  0  0  0  0  0
    9.5877  -19.0434   17.8696 C   0  0  0  0  0  0  0  0  0  0  0  0
    8.3713  -19.8188   17.4303 C   0  0  0  0  0  0  0  0  0  0  0  0
    8.3241  -21.1666   18.0541 C   0  0  0  0  0  0  0  0  0  0  0  0
    8.4319  -21.2449   19.3053 O   0  0  0  0  0  0  0  0  0  0  0  0
    9.6685  -16.7149   18.6096 C   0  0  0  0  0  0  0  0  0  0  0  0
   10.8515  -16.3263   18.8306 O   0  0  0  0  0  0  0  0  0  0  0  0
    8.1657  -22.3012   17.2741 O   0  0  0  0  0  0  0  0  0  0  0  0
    6.5321  -12.5788   19.8371 C   0  0  0  0  0  0  0  0  0  0  0  0
    7.7499  -13.4200   19.6774 C   0  0  0  0  0  0  0  0  0  0  0  0
    7.8630  -14.4459   20.7474 C   0  0  2  0  0  0  0  0  0  0  0  0
    7.8305  -13.7860   22.1401 C   0  0  0  0  0  0  0  0  0  0  0  0
    9.0334  -15.3829   20.6691 C   0  0  2  0  0  0  0  0  0  0  0  0
    8.6820  -16.2668   19.5199 N   0  0  0  0  0  0  0  0  0  0  0  0
    9.3627  -16.1832   21.8256 C   0  0  0  0  0  0  0  0  0  0  0  0
    8.4770  -17.0392   22.2139 O   0  0  0  0  0  0  0  0  0  0  0  0
   10.5216  -16.1590   22.5901 N   0  0  0  0  0  0  0  0  0  0  0  0
   10.7529  -17.0201   23.7559 C   0  0  1  0  0  0  0  0  0  0  0  0
   12.1234  -17.5775   23.7637 C   0  0  0  0  0  0  0  0  0  0  0  0
   12.2817  -18.6329   22.7374 C   0  0  0  0  0  0  0  0  0  0  0  0
   11.3568  -19.3949   22.0849 C   0  0  0  0  0  0  0  0  0  0  0  0
   11.9940  -20.1640   21.1790 N   0  0  0  0  0  0  0  0  0  0  0  0
   13.3057  -19.9156   21.2301 C   0  0  0  0  0  0  0  0  0  0  0  0
   13.4803  -18.9932   22.1683 N   0  0  0  0  0  0  0  0  0  0  0  0
   10.6002  -16.0693   24.9194 C   0  0  0  0  0  0  0  0  0  0  0  0
   10.3832  -14.8594   24.6567 O   0  0  0  0  0  0  0  0  0  0  0  0
   10.6898  -16.4627   26.2108 O   0  0  0  0  0  0  0  0  0  0  0  0
  2  3  1  0
  2  1  1  6
  4  5  1  0
  4  3  1  0
  5  6  2  0
  7  2  1  0
  8  7  2  0
  9  5  1  0
 11 12  1  0
 11 10  1  0
 12 13  1  1
 12 14  1  0
 14 15  1  6
 15  7  1  0
 16 17  2  0
 16 14  1  0
 18 16  1  0
 19 18  1  0
 19 20  1  6
 20 21  1  0
 21 25  1  0
 21 22  2  0
 22 23  1  0
 24 23  1  0
 25 24  2  0
 26 19  1  0
 27 26  2  0
 28 26  1  0
M  END
$$$$
