EIH.pdb
     RDKit          3D

 28 28  0  0  1  0  0  0  0  0999 V2000
   10.1525  -18.6276   17.1905 N   0  0  0  0  0  0  0  0  0  0  0  0
    9.1757  -18.5153   18.2478 C   0  0  1  0  0  0  0  0  0  0  0  0
    9.1078  -19.7910   19.0846 C   0  0  0  0  0  0  0  0  0  0  0  0
    8.8421  -20.9265   18.1287 C   0  0  0  0  0  0  0  0  0  0  0  0
    8.7768  -22.2334   18.8327 C   0  0  0  0  0  0  0  0  0  0  0  0
    9.2339  -23.2473   18.2443 O   0  0  0  0  0  0  0  0  0  0  0  0
    9.5789  -17.3926   19.1321 C   0  0  0  0  0  0  0  0  0  0  0  0
   10.8005  -17.1233   19.3184 O   0  0  0  0  0  0  0  0  0  0  0  0
    8.2265  -22.3260   20.1014 O   0  0  0  0  0  0  0  0  0  0  0  0
    7.4734  -12.0036   20.6489 C   0  0  0  0  0  0  0  0  0  0  0  0
    8.4537  -13.0489   21.0522 C   0  0  0  0  0  0  0  0  0  0  0  0
    8.1541  -14.3645   20.4281 C   0  0  2  0  0  0  0  0  0  0  0  0
    6.7109  -14.8024   20.7470 C   0  0  0  0  0  0  0  0  0  0  0  0
    9.0950  -15.4929   20.7370 C   0  0  2  0  0  0  0  0  0  0  0  0
    8.6464  -16.5704   19.8079 N   0  0  0  0  0  0  0  0  0  0  0  0
    9.1548  -15.9990   22.0885 C   0  0  0  0  0  0  0  0  0  0  0  0
    8.1171  -16.6356   22.5194 O   0  0  0  0  0  0  0  0  0  0  0  0
   10.1935  -15.8940   23.0040 N   0  0  0  0  0  0  0  0  0  0  0  0
   10.4928  -16.9060   24.0240 C   0  0  1  0  0  0  0  0  0  0  0  0
   11.6416  -17.7538   23.6360 C   0  0  0  0  0  0  0  0  0  0  0  0
   11.9395  -18.7658   24.6748 C   0  0  0  0  0  0  0  0  0  0  0  0
   11.2885  -19.0818   25.8316 C   0  0  0  0  0  0  0  0  0  0  0  0
   11.9084  -20.1353   26.4009 N   0  0  0  0  0  0  0  0  0  0  0  0
   12.9413  -20.5071   25.6395 C   0  0  0  0  0  0  0  0  0  0  0  0
   12.9609  -19.6832   24.5992 N   0  0  0  0  0  0  0  0  0  0  0  0
   10.8754  -16.0769   25.2269 C   0  0  0  0  0  0  0  0  0  0  0  0
   10.9599  -14.8323   25.0721 O   0  0  0  0  0  0  0  0  0  0  0  0
   11.1293  -16.6134   26.4428 O   0  0  0  0  0  0  0  0  0  0  0  0
  2  3  1  0
  2  1  1  6
  4  5  1  0
  4  3  1  0
  5  6  2  0
  7  2  1  0
  8  7  2  0
  9  5  1  0
 11 12  1  0
 11 10  1  0
 12 13  1  1
 12 14  1  0
 14 15  1  6
 15  7  1  0
 16 17  2  0
 16 14  1  0
 18 16  1  0
 19 18  1  0
 19 20  1  6
 20 21  1  0
 21 25  1  0
 21 22  2  0
 22 23  1  0
 24 23  1  0
 25 24  2  0
 26 19  1  0
 27 26  2  0
 28 26  1  0
M  END
$$$$
