EIH.pdb
     RDKit          3D

 28 28  0  0  1  0  0  0  0  0999 V2000
    9.6446  -17.5590   16.4543 N   0  0  0  0  0  0  0  0  0  0  0  0
    8.9834  -17.9492   17.6770 C   0  0  1  0  0  0  0  0  0  0  0  0
    9.3539  -19.3740   18.0833 C   0  0  0  0  0  0  0  0  0  0  0  0
    9.5681  -20.1498   16.8082 C   0  0  0  0  0  0  0  0  0  0  0  0
    9.0306  -21.5314   16.9089 C   0  0  0  0  0  0  0  0  0  0  0  0
    9.5681  -22.3182   17.7306 O   0  0  0  0  0  0  0  0  0  0  0  0
    9.4189  -17.0239   18.7536 C   0  0  0  0  0  0  0  0  0  0  0  0
   10.6470  -16.7972   18.9533 O   0  0  0  0  0  0  0  0  0  0  0  0
    7.9672  -21.9355   16.1172 O   0  0  0  0  0  0  0  0  0  0  0  0
    6.4365  -12.6601   19.9229 C   0  0  0  0  0  0  0  0  0  0  0  0
    7.6200  -13.5328   19.6905 C   0  0  0  0  0  0  0  0  0  0  0  0
    7.8607  -14.4599   20.8275 C   0  0  2  0  0  0  0  0  0  0  0  0
    8.0317  -13.6751   22.1432 C   0  0  0  0  0  0  0  0  0  0  0  0
    8.9925  -15.4354   20.6807 C   0  0  2  0  0  0  0  0  0  0  0  0
    8.5114  -16.3513   19.6058 N   0  0  0  0  0  0  0  0  0  0  0  0
    9.4055  -16.2008   21.8339 C   0  0  0  0  0  0  0  0  0  0  0  0
    8.5733  -17.0837   22.2765 O   0  0  0  0  0  0  0  0  0  0  0  0
   10.5958  -16.1170   22.5440 N   0  0  0  0  0  0  0  0  0  0  0  0
   10.9275  -16.9694   23.6918 C   0  0  1  0  0  0  0  0  0  0  0  0
   12.3734  -17.2788   23.7463 C   0  0  0  0  0  0  0  0  0  0  0  0
   12.7388  -18.3213   22.7605 C   0  0  0  0  0  0  0  0  0  0  0  0
   11.9636  -19.1532   22.0063 C   0  0  0  0  0  0  0  0  0  0  0  0
   12.7660  -19.8734   21.1965 N   0  0  0  0  0  0  0  0  0  0  0  0
   14.0383  -19.5255   21.4088 C   0  0  0  0  0  0  0  0  0  0  0  0
   14.0233  -18.5904   22.3504 N   0  0  0  0  0  0  0  0  0  0  0  0
   10.5626  -16.1062   24.8760 C   0  0  0  0  0  0  0  0  0  0  0  0
   10.1709  -14.9348   24.6428 O   0  0  0  0  0  0  0  0  0  0  0  0
   10.6430  -16.5369   26.1561 O   0  0  0  0  0  0  0  0  0  0  0  0
  2  3  1  0
  2  1  1  6
  4  5  1  0
  4  3  1  0
  5  6  2  0
  7  2  1  0
  8  7  2  0
  9  5  1  0
 11 12  1  0
 11 10  1  0
 12 13  1  1
 12 14  1  0
 14 15  1  6
 15  7  1  0
 16 17  2  0
 16 14  1  0
 18 16  1  0
 19 18  1  0
 19 20  1  1
 20 21  1  0
 21 25  1  0
 21 22  2  0
 22 23  1  0
 24 23  1  0
 25 24  2  0
 26 19  1  0
 27 26  2  0
 28 26  1  0
M  END
$$$$
