EIH.pdb
     RDKit          3D

 28 28  0  0  1  0  0  0  0  0999 V2000
    8.5155  -14.8913   19.9008 N   0  0  0  0  0  0  0  0  0  0  0  0
    7.7121  -15.3522   21.0083 C   0  0  1  0  0  0  0  0  0  0  0  0
    7.5908  -16.8745   21.0162 C   0  0  0  0  0  0  0  0  0  0  0  0
    7.8105  -17.3373   19.5980 C   0  0  0  0  0  0  0  0  0  0  0  0
    7.7193  -18.8159   19.4823 C   0  0  0  0  0  0  0  0  0  0  0  0
    7.4899  -19.4792   20.5266 O   0  0  0  0  0  0  0  0  0  0  0  0
    8.3731  -14.9256   22.2677 C   0  0  0  0  0  0  0  0  0  0  0  0
    9.6331  -14.8455   22.3413 O   0  0  0  0  0  0  0  0  0  0  0  0
    7.8832  -19.4403   18.2559 O   0  0  0  0  0  0  0  0  0  0  0  0
    6.8164  -11.6679   27.1487 C   0  0  0  0  0  0  0  0  0  0  0  0
    7.8417  -12.6031   26.6099 C   0  0  0  0  0  0  0  0  0  0  0  0
    7.4163  -13.2157   25.3238 C   0  0  2  0  0  0  0  0  0  0  0  0
    6.0241  -13.8628   25.4631 C   0  0  0  0  0  0  0  0  0  0  0  0
    8.3603  -14.1992   24.6949 C   0  0  2  0  0  0  0  0  0  0  0  0
    7.6548  -14.5888   23.4395 N   0  0  0  0  0  0  0  0  0  0  0  0
    8.7330  -15.3797   25.4390 C   0  0  0  0  0  0  0  0  0  0  0  0
    7.8834  -16.3524   25.4537 O   0  0  0  0  0  0  0  0  0  0  0  0
    9.9003  -15.6172   26.1527 N   0  0  0  0  0  0  0  0  0  0  0  0
   10.2575  -16.9180   26.7308 C   0  0  1  0  0  0  0  0  0  0  0  0
   11.6975  -17.2153   26.5661 C   0  0  0  0  0  0  0  0  0  0  0  0
   12.0188  -17.5636   25.1634 C   0  0  0  0  0  0  0  0  0  0  0  0
   11.2230  -17.6634   24.0595 C   0  0  0  0  0  0  0  0  0  0  0  0
   12.0001  -17.9325   22.9910 N   0  0  0  0  0  0  0  0  0  0  0  0
   13.2766  -18.0072   23.3781 C   0  0  0  0  0  0  0  0  0  0  0  0
   13.2892  -17.7847   24.6864 N   0  0  0  0  0  0  0  0  0  0  0  0
    9.9563  -16.7343   28.1992 C   0  0  0  0  0  0  0  0  0  0  0  0
    9.7708  -15.5618   28.6124 O   0  0  0  0  0  0  0  0  0  0  0  0
    9.8831  -17.7653   29.0724 O   0  0  0  0  0  0  0  0  0  0  0  0
  2  3  1  0
  2  1  1  6
  4  5  1  0
  4  3  1  0
  5  6  2  0
  7  2  1  0
  8  7  2  0
  9  5  1  0
 11 12  1  0
 11 10  1  0
 12 13  1  1
 12 14  1  0
 14 15  1  6
 15  7  1  0
 16 17  2  0
 16 14  1  0
 18 16  1  0
 19 18  1  0
 19 20  1  1
 20 21  1  0
 21 25  1  0
 21 22  2  0
 22 23  1  0
 24 23  1  0
 25 24  2  0
 26 19  1  0
 27 26  2  0
 28 26  1  0
M  END
$$$$
