EIH.pdb
     RDKit          3D

 28 28  0  0  1  0  0  0  0  0999 V2000
   10.7073  -17.4957   16.6469 N   0  0  0  0  0  0  0  0  0  0  0  0
    9.6056  -17.5854   17.5759 C   0  0  1  0  0  0  0  0  0  0  0  0
    9.4133  -19.0142   18.0795 C   0  0  0  0  0  0  0  0  0  0  0  0
    9.2708  -19.8911   16.8611 C   0  0  0  0  0  0  0  0  0  0  0  0
    9.1247  -21.3233   17.2291 C   0  0  0  0  0  0  0  0  0  0  0  0
    8.9875  -22.1626   16.3019 O   0  0  0  0  0  0  0  0  0  0  0  0
    9.9093  -16.7128   18.7383 C   0  0  0  0  0  0  0  0  0  0  0  0
   11.1055  -16.4667   19.0667 O   0  0  0  0  0  0  0  0  0  0  0  0
    9.1400  -21.7166   18.5580 O   0  0  0  0  0  0  0  0  0  0  0  0
    6.8317  -12.4186   19.8154 C   0  0  0  0  0  0  0  0  0  0  0  0
    7.9986  -13.3283   19.6505 C   0  0  0  0  0  0  0  0  0  0  0  0
    8.1204  -14.2886   20.7788 C   0  0  2  0  0  0  0  0  0  0  0  0
    8.1672  -13.5419   22.1267 C   0  0  0  0  0  0  0  0  0  0  0  0
    9.2544  -15.2705   20.7157 C   0  0  2  0  0  0  0  0  0  0  0  0
    8.9053  -16.1139   19.5357 N   0  0  0  0  0  0  0  0  0  0  0  0
    9.5137  -16.1089   21.8629 C   0  0  0  0  0  0  0  0  0  0  0  0
    8.5575  -16.8893   22.2431 O   0  0  0  0  0  0  0  0  0  0  0  0
   10.6706  -16.1932   22.6262 N   0  0  0  0  0  0  0  0  0  0  0  0
   10.8420  -17.1140   23.7562 C   0  0  1  0  0  0  0  0  0  0  0  0
   12.2697  -17.3963   24.0228 C   0  0  0  0  0  0  0  0  0  0  0  0
   12.8347  -18.3183   23.0114 C   0  0  0  0  0  0  0  0  0  0  0  0
   12.2522  -18.9567   21.9555 C   0  0  0  0  0  0  0  0  0  0  0  0
   13.2058  -19.6279   21.2786 N   0  0  0  0  0  0  0  0  0  0  0  0
   14.3881  -19.4370   21.8706 C   0  0  0  0  0  0  0  0  0  0  0  0
   14.1660  -18.6480   22.9144 N   0  0  0  0  0  0  0  0  0  0  0  0
   10.2665  -16.3403   24.9185 C   0  0  0  0  0  0  0  0  0  0  0  0
   10.0068  -15.1241   24.7357 O   0  0  0  0  0  0  0  0  0  0  0  0
   10.0271  -16.8957   26.1288 O   0  0  0  0  0  0  0  0  0  0  0  0
  2  3  1  0
  2  1  1  6
  4  5  1  0
  4  3  1  0
  5  6  2  0
  7  2  1  0
  8  7  2  0
  9  5  1  0
 11 12  1  0
 11 10  1  0
 12 13  1  1
 12 14  1  0
 14 15  1  6
 15  7  1  0
 16 17  2  0
 16 14  1  0
 18 16  1  0
 19 18  1  0
 19 20  1  1
 20 21  1  0
 21 25  1  0
 21 22  2  0
 22 23  1  0
 24 23  1  0
 25 24  2  0
 26 19  1  0
 27 26  2  0
 28 26  1  0
M  END
$$$$
