EIH.pdb
     RDKit          3D

 28 28  0  0  1  0  0  0  0  0999 V2000
   10.8489  -18.2254   18.4577 N   0  0  0  0  0  0  0  0  0  0  0  0
    9.8479  -18.2075   19.4980 C   0  0  1  0  0  0  0  0  0  0  0  0
    9.9232  -19.4600   20.3686 C   0  0  0  0  0  0  0  0  0  0  0  0
   11.3142  -20.0197   20.2086 C   0  0  0  0  0  0  0  0  0  0  0  0
   11.5375  -21.1961   21.0885 C   0  0  0  0  0  0  0  0  0  0  0  0
   10.6334  -21.5038   21.9077 O   0  0  0  0  0  0  0  0  0  0  0  0
   10.0947  -17.0214   20.3564 C   0  0  0  0  0  0  0  0  0  0  0  0
   11.2601  -16.5469   20.4837 O   0  0  0  0  0  0  0  0  0  0  0  0
   12.7107  -21.9293   21.0041 O   0  0  0  0  0  0  0  0  0  0  0  0
    6.9918  -12.8629   19.7920 C   0  0  0  0  0  0  0  0  0  0  0  0
    8.1987  -13.6881   20.0729 C   0  0  0  0  0  0  0  0  0  0  0  0
    8.2006  -14.2180   21.4619 C   0  0  2  0  0  0  0  0  0  0  0  0
    8.0898  -13.0687   22.4833 C   0  0  0  0  0  0  0  0  0  0  0  0
    9.3421  -15.1146   21.8454 C   0  0  2  0  0  0  0  0  0  0  0  0
    9.0679  -16.3600   21.0711 N   0  0  0  0  0  0  0  0  0  0  0  0
    9.5385  -15.4332   23.2404 C   0  0  0  0  0  0  0  0  0  0  0  0
    9.9908  -14.4887   23.9963 O   0  0  0  0  0  0  0  0  0  0  0  0
    9.3029  -16.6364   23.8923 N   0  0  0  0  0  0  0  0  0  0  0  0
    9.5375  -16.8524   25.3249 C   0  0  1  0  0  0  0  0  0  0  0  0
    8.2716  -17.0491   26.0651 C   0  0  0  0  0  0  0  0  0  0  0  0
    7.4703  -15.8046   26.1026 C   0  0  0  0  0  0  0  0  0  0  0  0
    7.8222  -14.5204   26.4002 C   0  0  0  0  0  0  0  0  0  0  0  0
    6.7486  -13.7257   26.2159 N   0  0  0  0  0  0  0  0  0  0  0  0
    5.7143  -14.4651   25.8055 C   0  0  0  0  0  0  0  0  0  0  0  0
    6.1479  -15.7176   25.7366 N   0  0  0  0  0  0  0  0  0  0  0  0
   10.3299  -18.1377   25.3520 C   0  0  0  0  0  0  0  0  0  0  0  0
   10.5067  -18.7348   24.2601 O   0  0  0  0  0  0  0  0  0  0  0  0
   10.8449  -18.6636   26.4873 O   0  0  0  0  0  0  0  0  0  0  0  0
  2  3  1  0
  2  1  1  6
  4  5  1  0
  4  3  1  0
  5  6  2  0
  7  2  1  0
  8  7  2  0
  9  5  1  0
 11 12  1  0
 11 10  1  0
 12 13  1  1
 12 14  1  0
 14 15  1  6
 15  7  1  0
 16 17  2  0
 16 14  1  0
 18 16  1  0
 19 18  1  0
 19 20  1  1
 20 21  1  0
 21 25  1  0
 21 22  2  0
 22 23  1  0
 24 23  1  0
 25 24  2  0
 26 19  1  0
 27 26  2  0
 28 26  1  0
M  END
$$$$
