EIH.pdb
     RDKit          3D

 28 28  0  0  1  0  0  0  0  0999 V2000
   11.6524  -17.2429   17.3253 N   0  0  0  0  0  0  0  0  0  0  0  0
   10.3348  -17.3542   17.9052 C   0  0  1  0  0  0  0  0  0  0  0  0
   10.0170  -18.7949   18.2997 C   0  0  0  0  0  0  0  0  0  0  0  0
    9.8961  -19.5817   17.0190 C   0  0  0  0  0  0  0  0  0  0  0  0
    9.4800  -20.9852   17.2737 C   0  0  0  0  0  0  0  0  0  0  0  0
    9.2403  -21.7217   16.2822 O   0  0  0  0  0  0  0  0  0  0  0  0
   10.2951  -16.5114   19.1271 C   0  0  0  0  0  0  0  0  0  0  0  0
   11.3530  -16.2583   19.7723 O   0  0  0  0  0  0  0  0  0  0  0  0
    9.3613  -21.4631   18.5693 O   0  0  0  0  0  0  0  0  0  0  0  0
    7.0907  -12.2707   19.5099 C   0  0  0  0  0  0  0  0  0  0  0  0
    8.2795  -13.1369   19.7392 C   0  0  0  0  0  0  0  0  0  0  0  0
    8.0114  -14.1961   20.7473 C   0  0  2  0  0  0  0  0  0  0  0  0
    7.6478  -13.5721   22.1092 C   0  0  0  0  0  0  0  0  0  0  0  0
    9.0801  -15.2318   20.9452 C   0  0  2  0  0  0  0  0  0  0  0  0
    9.1009  -15.9496   19.6375 N   0  0  0  0  0  0  0  0  0  0  0  0
    8.9397  -16.1789   22.0266 C   0  0  0  0  0  0  0  0  0  0  0  0
    8.1620  -17.1890   21.8201 O   0  0  0  0  0  0  0  0  0  0  0  0
    9.5374  -16.1526   23.2798 N   0  0  0  0  0  0  0  0  0  0  0  0
   10.2377  -17.2951   23.8782 C   0  0  1  0  0  0  0  0  0  0  0  0
   11.3433  -17.7730   23.0188 C   0  0  0  0  0  0  0  0  0  0  0  0
   12.0717  -18.8955   23.6525 C   0  0  0  0  0  0  0  0  0  0  0  0
   11.7145  -19.7391   24.6636 C   0  0  0  0  0  0  0  0  0  0  0  0
   12.6927  -20.6524   24.8286 N   0  0  0  0  0  0  0  0  0  0  0  0
   13.6704  -20.4196   23.9484 C   0  0  0  0  0  0  0  0  0  0  0  0
   13.2974  -19.3617   23.2390 N   0  0  0  0  0  0  0  0  0  0  0  0
   10.8146  -16.7161   25.1481 C   0  0  0  0  0  0  0  0  0  0  0  0
   11.0092  -17.5022   26.1095 O   0  0  0  0  0  0  0  0  0  0  0  0
   11.1215  -15.4059   25.2891 O   0  0  0  0  0  0  0  0  0  0  0  0
  2  3  1  0
  2  1  1  1
  4  5  1  0
  4  3  1  0
  5  6  2  0
  7  2  1  0
  8  7  2  0
  9  5  1  0
 11 12  1  0
 11 10  1  0
 12 13  1  1
 12 14  1  0
 14 15  1  6
 15  7  1  0
 16 17  2  0
 16 14  1  0
 18 16  1  0
 19 18  1  0
 19 20  1  6
 20 21  1  0
 21 25  1  0
 21 22  2  0
 22 23  1  0
 24 23  1  0
 25 24  2  0
 26 19  1  0
 27 26  2  0
 28 26  1  0
M  END
$$$$
