EIH.pdb
     RDKit          3D

 28 28  0  0  1  0  0  0  0  0999 V2000
    7.9144  -14.7467   20.0785 N   0  0  0  0  0  0  0  0  0  0  0  0
    7.1153  -15.1378   21.2157 C   0  0  1  0  0  0  0  0  0  0  0  0
    6.7470  -16.6188   21.1579 C   0  0  0  0  0  0  0  0  0  0  0  0
    7.1688  -17.1208   19.8000 C   0  0  0  0  0  0  0  0  0  0  0  0
    7.6441  -18.5275   19.8577 C   0  0  0  0  0  0  0  0  0  0  0  0
    7.7329  -19.0774   20.9858 O   0  0  0  0  0  0  0  0  0  0  0  0
    7.9126  -14.8981   22.4451 C   0  0  0  0  0  0  0  0  0  0  0  0
    9.1759  -14.9492   22.4164 O   0  0  0  0  0  0  0  0  0  0  0  0
    7.9784  -19.2086   18.6979 O   0  0  0  0  0  0  0  0  0  0  0  0
    5.7464  -11.6060   26.1501 C   0  0  0  0  0  0  0  0  0  0  0  0
    6.7637  -12.2264   25.2577 C   0  0  0  0  0  0  0  0  0  0  0  0
    7.2427  -13.5325   25.7818 C   0  0  2  0  0  0  0  0  0  0  0  0
    7.8901  -13.3578   27.1699 C   0  0  0  0  0  0  0  0  0  0  0  0
    8.1662  -14.3212   24.8991 C   0  0  2  0  0  0  0  0  0  0  0  0
    7.3263  -14.6039   23.6990 N   0  0  0  0  0  0  0  0  0  0  0  0
    8.7332  -15.5492   25.4059 C   0  0  0  0  0  0  0  0  0  0  0  0
    7.9281  -16.5493   25.5459 O   0  0  0  0  0  0  0  0  0  0  0  0
   10.0485  -15.8070   25.7688 N   0  0  0  0  0  0  0  0  0  0  0  0
   10.5822  -17.1517   26.0159 C   0  0  1  0  0  0  0  0  0  0  0  0
   11.8942  -17.3506   25.3614 C   0  0  0  0  0  0  0  0  0  0  0  0
   12.4645  -18.6769   25.6896 C   0  0  0  0  0  0  0  0  0  0  0  0
   11.9401  -19.7336   26.3753 C   0  0  0  0  0  0  0  0  0  0  0  0
   12.8230  -20.7520   26.3385 N   0  0  0  0  0  0  0  0  0  0  0  0
   13.9023  -20.3789   25.6451 C   0  0  0  0  0  0  0  0  0  0  0  0
   13.6874  -19.1292   25.2533 N   0  0  0  0  0  0  0  0  0  0  0  0
   10.7696  -17.1756   27.5143 C   0  0  0  0  0  0  0  0  0  0  0  0
   10.9989  -16.0814   28.0890 O   0  0  0  0  0  0  0  0  0  0  0  0
   10.7046  -18.3103   28.2483 O   0  0  0  0  0  0  0  0  0  0  0  0
  2  3  1  0
  2  1  1  6
  4  5  1  0
  4  3  1  0
  5  6  2  0
  7  2  1  0
  8  7  2  0
  9  5  1  0
 11 12  1  0
 11 10  1  0
 12 13  1  1
 12 14  1  0
 14 15  1  6
 15  7  1  0
 16 17  2  0
 16 14  1  0
 18 16  1  0
 19 18  1  0
 19 20  1  6
 20 21  1  0
 21 25  1  0
 21 22  2  0
 22 23  1  0
 24 23  1  0
 25 24  2  0
 26 19  1  0
 27 26  2  0
 28 26  1  0
M  END
$$$$
