EIH.pdb
     RDKit          3D

 28 28  0  0  1  0  0  0  0  0999 V2000
    9.4109  -18.0868   16.1151 N   0  0  0  0  0  0  0  0  0  0  0  0
    8.7987  -18.2184   17.4161 C   0  0  1  0  0  0  0  0  0  0  0  0
    9.0886  -19.5840   18.0353 C   0  0  0  0  0  0  0  0  0  0  0  0
    8.7879  -20.6156   16.9775 C   0  0  0  0  0  0  0  0  0  0  0  0
    8.9271  -21.9984   17.5034 C   0  0  0  0  0  0  0  0  0  0  0  0
    9.3221  -22.1447   18.6890 O   0  0  0  0  0  0  0  0  0  0  0  0
    9.3653  -17.1696   18.3016 C   0  0  0  0  0  0  0  0  0  0  0  0
   10.5469  -16.7513   18.1338 O   0  0  0  0  0  0  0  0  0  0  0  0
    8.6287  -23.0914   16.7052 O   0  0  0  0  0  0  0  0  0  0  0  0
    7.3665  -12.3491   21.2150 C   0  0  0  0  0  0  0  0  0  0  0  0
    8.5181  -13.2894   21.1380 C   0  0  0  0  0  0  0  0  0  0  0  0
    8.1723  -14.5351   20.4039 C   0  0  2  0  0  0  0  0  0  0  0  0
    6.9250  -15.2007   21.0182 C   0  0  0  0  0  0  0  0  0  0  0  0
    9.2594  -15.5598   20.2551 C   0  0  2  0  0  0  0  0  0  0  0  0
    8.6387  -16.5836   19.3651 N   0  0  0  0  0  0  0  0  0  0  0  0
    9.7875  -16.1916   21.4419 C   0  0  0  0  0  0  0  0  0  0  0  0
    9.0904  -17.1525   21.9505 O   0  0  0  0  0  0  0  0  0  0  0  0
   10.9629  -15.9033   22.1226 N   0  0  0  0  0  0  0  0  0  0  0  0
   11.6592  -16.8553   22.9960 C   0  0  1  0  0  0  0  0  0  0  0  0
   13.1246  -16.6529   22.9712 C   0  0  0  0  0  0  0  0  0  0  0  0
   13.8073  -17.5383   23.9418 C   0  0  0  0  0  0  0  0  0  0  0  0
   13.3247  -18.5329   24.7417 C   0  0  0  0  0  0  0  0  0  0  0  0
   14.3592  -19.1028   25.3922 N   0  0  0  0  0  0  0  0  0  0  0  0
   15.4963  -18.5018   25.0305 C   0  0  0  0  0  0  0  0  0  0  0  0
   15.1652  -17.5594   24.1566 N   0  0  0  0  0  0  0  0  0  0  0  0
   11.1359  -16.5062   24.3689 C   0  0  0  0  0  0  0  0  0  0  0  0
   10.4600  -15.4525   24.4828 O   0  0  0  0  0  0  0  0  0  0  0  0
   11.3656  -17.2691   25.4625 O   0  0  0  0  0  0  0  0  0  0  0  0
  2  3  1  0
  2  1  1  6
  4  5  1  0
  4  3  1  0
  5  6  2  0
  7  2  1  0
  8  7  2  0
  9  5  1  0
 11 12  1  0
 11 10  1  0
 12 13  1  1
 12 14  1  0
 14 15  1  6
 15  7  1  0
 16 17  2  0
 16 14  1  0
 18 16  1  0
 19 18  1  0
 19 20  1  1
 20 21  1  0
 21 25  1  0
 21 22  2  0
 22 23  1  0
 24 23  1  0
 25 24  2  0
 26 19  1  0
 27 26  2  0
 28 26  1  0
M  END
$$$$
