EIH.pdb
     RDKit          3D

 28 28  0  0  1  0  0  0  0  0999 V2000
    8.6856  -15.2407   20.6092 N   0  0  0  0  0  0  0  0  0  0  0  0
    7.8227  -15.6258   21.7009 C   0  0  1  0  0  0  0  0  0  0  0  0
    7.6514  -17.1417   21.7707 C   0  0  0  0  0  0  0  0  0  0  0  0
    8.4646  -17.7254   20.6429 C   0  0  0  0  0  0  0  0  0  0  0  0
    8.2709  -19.1942   20.5289 C   0  0  0  0  0  0  0  0  0  0  0  0
    7.9613  -19.6658   19.4043 O   0  0  0  0  0  0  0  0  0  0  0  0
    8.4451  -15.1631   22.9671 C   0  0  0  0  0  0  0  0  0  0  0  0
    9.7028  -15.1363   23.0970 O   0  0  0  0  0  0  0  0  0  0  0  0
    8.4285  -20.0156   21.6340 O   0  0  0  0  0  0  0  0  0  0  0  0
    5.9038  -11.3635   25.6864 C   0  0  0  0  0  0  0  0  0  0  0  0
    7.0113  -12.1582   25.0880 C   0  0  0  0  0  0  0  0  0  0  0  0
    7.3795  -13.3251   25.9324 C   0  0  2  0  0  0  0  0  0  0  0  0
    7.8858  -12.8604   27.3123 C   0  0  0  0  0  0  0  0  0  0  0  0
    8.3564  -14.3045   25.3491 C   0  0  2  0  0  0  0  0  0  0  0  0
    7.6910  -14.7324   24.0843 N   0  0  0  0  0  0  0  0  0  0  0  0
    8.7297  -15.4625   26.1275 C   0  0  0  0  0  0  0  0  0  0  0  0
    7.9372  -16.4809   26.0747 O   0  0  0  0  0  0  0  0  0  0  0  0
    9.8437  -15.6348   26.9383 N   0  0  0  0  0  0  0  0  0  0  0  0
   10.2863  -16.9339   27.4584 C   0  0  1  0  0  0  0  0  0  0  0  0
   11.4467  -17.4601   26.7063 C   0  0  0  0  0  0  0  0  0  0  0  0
   11.8863  -18.7691   27.2405 C   0  0  0  0  0  0  0  0  0  0  0  0
   11.3213  -19.5941   28.1688 C   0  0  0  0  0  0  0  0  0  0  0  0
   12.0638  -20.7162   28.2568 N   0  0  0  0  0  0  0  0  0  0  0  0
   13.0920  -20.6357   27.4076 C   0  0  0  0  0  0  0  0  0  0  0  0
   12.9861  -19.4634   26.7945 N   0  0  0  0  0  0  0  0  0  0  0  0
   10.7183  -16.6088   28.8686 C   0  0  0  0  0  0  0  0  0  0  0  0
   10.7671  -15.3964   29.1967 O   0  0  0  0  0  0  0  0  0  0  0  0
   11.0523  -17.5561   29.7751 O   0  0  0  0  0  0  0  0  0  0  0  0
  2  3  1  0
  2  1  1  6
  4  5  1  0
  4  3  1  0
  5  6  2  0
  7  2  1  0
  8  7  2  0
  9  5  1  0
 11 12  1  0
 11 10  1  0
 12 13  1  1
 12 14  1  0
 14 15  1  6
 15  7  1  0
 16 17  2  0
 16 14  1  0
 18 16  1  0
 19 18  1  0
 19 20  1  6
 20 21  1  0
 21 25  1  0
 21 22  2  0
 22 23  1  0
 24 23  1  0
 25 24  2  0
 26 19  1  0
 27 26  2  0
 28 26  1  0
M  END
$$$$
