IRC.pdb
     RDKit          3D

 26 25  0  0  1  0  0  0  0  0999 V2000
    6.4477  -10.8579   27.2866 C   0  0  0  0  0  0  0  0  0  0  0  0
    5.5513  -11.5269   26.2846 C   0  0  0  0  0  0  0  0  0  0  0  0
    6.0400  -12.8436   25.7936 C   0  0  2  0  0  0  0  0  0  0  0  0
    5.6223  -13.8972   26.8163 C   0  0  0  0  0  0  0  0  0  0  0  0
    7.5272  -12.9287   25.5399 C   0  0  2  0  0  0  0  0  0  0  0  0
    7.8640  -11.7537   24.6984 N   0  0  0  0  0  0  0  0  0  0  0  0
    7.9033  -14.1509   24.7960 C   0  0  0  0  0  0  0  0  0  0  0  0
    7.6497  -15.3138   25.2814 O   0  0  0  0  0  0  0  0  0  0  0  0
    8.6443  -12.4895   17.8448 N   0  0  0  0  0  0  0  0  0  0  0  0
    8.2026  -13.8303   17.5983 C   0  0  0  0  0  0  0  0  0  0  0  0
    8.7298  -14.5109   16.6488 N   0  0  0  0  0  0  0  0  0  0  0  0
    7.1830  -14.3737   18.4192 N   0  0  0  0  0  0  0  0  0  0  0  0
    7.4460  -15.4503   19.3774 C   0  0  0  0  0  0  0  0  0  0  0  0
    7.8510  -14.7937   20.6572 C   0  0  0  0  0  0  0  0  0  0  0  0
    8.9444  -15.3865   21.4353 C   0  0  0  0  0  0  0  0  0  0  0  0
    8.9197  -15.3969   22.9159 C   0  0  2  0  0  0  0  0  0  0  0  0
    8.5425  -14.1558   23.5435 N   0  0  0  0  0  0  0  0  0  0  0  0
   10.1637  -15.9567   23.5244 C   0  0  0  0  0  0  0  0  0  0  0  0
   11.0864  -15.1787   23.8872 O   0  0  0  0  0  0  0  0  0  0  0  0
    8.5331  -15.4594   16.3508 N   0  0  0  0  0  0  0  0  0  0  0  0
   10.3408  -17.3445   23.7085 C   0  0  1  0  0  0  0  0  0  0  0  0
   11.0153  -17.9335   24.8515 C   0  0  0  0  0  0  0  0  0  0  0  0
   10.0852  -18.0755   26.0367 S   0  0  0  0  0  0  0  0  0  0  0  0
   11.1030  -18.0064   27.5384 C   0  0  0  0  0  0  0  0  0  0  0  0
   11.6140  -19.2498   24.5133 O   0  0  0  0  0  0  0  0  0  0  0  0
   11.2753  -19.9038   23.3138 O   0  0  0  0  0  0  0  0  0  0  0  0
  2  1  1  0
  3  2  1  0
  3  4  1  1
  5  3  1  0
  5  6  1  6
  7  5  1  0
  8  7  2  0
 10  9  1  0
 10 12  1  0
 11 10  2  0
 13 12  1  0
 13 14  1  0
 15 14  1  0
 16 17  1  0
 16 15  1  6
 17  7  1  0
 18 16  1  0
 19 18  2  0
 20 18  1  0
 21 20  1  0
 21 22  1  6
 23 22  1  0
 24 25  1  0
 24 21  1  0
 26 24  2  0
M  END
$$$$
