IRC.pdb
     RDKit          3D

 26 25  0  0  1  0  0  0  0  0999 V2000
    6.9070  -12.8651   17.4730 C   0  0  0  0  0  0  0  0  0  0  0  0
    8.0692  -13.2696   18.3337 C   0  0  0  0  0  0  0  0  0  0  0  0
    7.7029  -13.7153   19.7051 C   0  0  2  0  0  0  0  0  0  0  0  0
    7.0252  -12.5388   20.4031 C   0  0  0  0  0  0  0  0  0  0  0  0
    8.8484  -14.2272   20.5472 C   0  0  2  0  0  0  0  0  0  0  0  0
    9.4868  -15.3058   19.7526 N   0  0  0  0  0  0  0  0  0  0  0  0
    8.3906  -14.8085   21.8284 C   0  0  0  0  0  0  0  0  0  0  0  0
    7.7526  -14.0879   22.6804 O   0  0  0  0  0  0  0  0  0  0  0  0
    6.3398  -21.7604   23.5775 N   0  0  0  0  0  0  0  0  0  0  0  0
    5.9657  -21.4601   24.9278 C   0  0  0  0  0  0  0  0  0  0  0  0
    4.8574  -21.9022   25.3959 N   0  0  0  0  0  0  0  0  0  0  0  0
    6.8399  -20.6728   25.7182 N   0  0  0  0  0  0  0  0  0  0  0  0
    8.1041  -20.1492   25.1945 C   0  0  0  0  0  0  0  0  0  0  0  0
    7.9167  -18.6771   25.0187 C   0  0  0  0  0  0  0  0  0  0  0  0
    8.2632  -18.0745   23.7268 C   0  0  0  0  0  0  0  0  0  0  0  0
    8.1397  -16.6167   23.4981 C   0  0  2  0  0  0  0  0  0  0  0  0
    8.5986  -16.1439   22.2164 N   0  0  0  0  0  0  0  0  0  0  0  0
    8.6989  -15.7935   24.6122 C   0  0  0  0  0  0  0  0  0  0  0  0
    9.9466  -15.7334   24.7791 O   0  0  0  0  0  0  0  0  0  0  0  0
    4.4461  -21.7667   26.3121 N   0  0  0  0  0  0  0  0  0  0  0  0
    7.8653  -15.0727   25.4936 C   0  0  2  0  0  0  0  0  0  0  0  0
    8.3467  -14.3386   26.6501 C   0  0  0  0  0  0  0  0  0  0  0  0
    7.3164  -13.3509   27.1532 S   0  0  0  0  0  0  0  0  0  0  0  0
    6.7304  -12.3998   25.7222 C   0  0  0  0  0  0  0  0  0  0  0  0
    8.7534  -15.2535   27.7469 O   0  0  0  0  0  0  0  0  0  0  0  0
    9.3057  -14.7439   28.9371 O   0  0  0  0  0  0  0  0  0  0  0  0
  2  1  1  0
  3  2  1  0
  3  4  1  1
  5  3  1  0
  5  6  1  6
  7  5  1  0
  8  7  2  0
 10  9  1  0
 10 12  1  0
 11 10  2  0
 13 12  1  0
 13 14  1  0
 15 14  1  0
 16 17  1  0
 16 15  1  1
 17  7  1  0
 18 16  1  0
 19 18  2  0
 20 18  1  0
 21 20  1  0
 21 22  1  6
 23 22  1  0
 24 25  1  0
 24 21  1  0
 26 24  2  0
M  END
$$$$
