IRC.pdb
     RDKit          3D

 26 25  0  0  1  0  0  0  0  0999 V2000
    7.0487  -11.5560   27.6739 C   0  0  0  0  0  0  0  0  0  0  0  0
    6.2573  -12.5665   26.8941 C   0  0  0  0  0  0  0  0  0  0  0  0
    7.0761  -13.5020   26.0768 C   0  0  2  0  0  0  0  0  0  0  0  0
    7.9395  -12.6582   25.1425 C   0  0  0  0  0  0  0  0  0  0  0  0
    6.2938  -14.5206   25.2804 C   0  0  2  0  0  0  0  0  0  0  0  0
    5.6113  -15.3803   26.2791 N   0  0  0  0  0  0  0  0  0  0  0  0
    7.1675  -15.3809   24.4527 C   0  0  0  0  0  0  0  0  0  0  0  0
    7.7224  -16.4247   24.9577 O   0  0  0  0  0  0  0  0  0  0  0  0
    7.4152  -17.5718   16.1789 N   0  0  0  0  0  0  0  0  0  0  0  0
    7.0498  -18.2286   17.3989 C   0  0  0  0  0  0  0  0  0  0  0  0
    6.1144  -19.1049   17.3960 N   0  0  0  0  0  0  0  0  0  0  0  0
    7.7391  -17.8875   18.5894 N   0  0  0  0  0  0  0  0  0  0  0  0
    8.8102  -16.8882   18.6098 C   0  0  0  0  0  0  0  0  0  0  0  0
    9.1928  -16.7011   20.0422 C   0  0  0  0  0  0  0  0  0  0  0  0
    8.3271  -15.8834   20.8992 C   0  0  0  0  0  0  0  0  0  0  0  0
    8.3355  -16.0349   22.3721 C   0  0  2  0  0  0  0  0  0  0  0  0
    7.4585  -15.1500   23.0966 N   0  0  0  0  0  0  0  0  0  0  0  0
    9.7092  -16.0376   22.9589 C   0  0  0  0  0  0  0  0  0  0  0  0
   10.2658  -14.9452   23.2510 O   0  0  0  0  0  0  0  0  0  0  0  0
    5.7743  -19.6856   18.1538 N   0  0  0  0  0  0  0  0  0  0  0  0
   10.4116  -17.2376   23.1994 C   0  0  2  0  0  0  0  0  0  0  0  0
   11.7422  -17.2990   23.7773 C   0  0  0  0  0  0  0  0  0  0  0  0
   11.7378  -18.0056   25.1155 S   0  0  0  0  0  0  0  0  0  0  0  0
   13.4455  -18.0150   25.7314 C   0  0  0  0  0  0  0  0  0  0  0  0
   12.7068  -17.9547   22.8581 O   0  0  0  0  0  0  0  0  0  0  0  0
   14.0569  -17.5574   22.8342 O   0  0  0  0  0  0  0  0  0  0  0  0
  2  1  1  0
  3  2  1  0
  3  4  1  6
  5  3  1  0
  5  6  1  1
  7  5  1  0
  8  7  2  0
 10  9  1  0
 10 12  1  0
 11 10  2  0
 13 12  1  0
 13 14  1  0
 15 14  1  0
 16 17  1  0
 16 15  1  6
 17  7  1  0
 18 16  1  0
 19 18  2  0
 20 18  1  0
 21 20  1  0
 21 22  1  1
 23 22  1  0
 24 25  1  0
 24 21  1  0
 26 24  2  0
M  END
$$$$
