IRC.pdb
     RDKit          3D

 26 25  0  0  1  0  0  0  0  0999 V2000
   12.8786  -22.4577   19.6841 C   0  0  0  0  0  0  0  0  0  0  0  0
   12.6459  -21.7878   21.0079 C   0  0  0  0  0  0  0  0  0  0  0  0
   12.2967  -20.3441   20.9222 C   0  0  2  0  0  0  0  0  0  0  0  0
   13.4253  -19.6440   20.1694 C   0  0  0  0  0  0  0  0  0  0  0  0
   12.0527  -19.6572   22.2458 C   0  0  2  0  0  0  0  0  0  0  0  0
   10.8722  -20.3306   22.8418 N   0  0  0  0  0  0  0  0  0  0  0  0
   11.7318  -18.2219   22.0856 C   0  0  0  0  0  0  0  0  0  0  0  0
   12.6050  -17.4077   21.6093 O   0  0  0  0  0  0  0  0  0  0  0  0
    7.3293  -11.8265   18.8925 N   0  0  0  0  0  0  0  0  0  0  0  0
    7.6685  -13.1141   18.3627 C   0  0  0  0  0  0  0  0  0  0  0  0
    7.9745  -13.2335   17.1237 N   0  0  0  0  0  0  0  0  0  0  0  0
    7.6556  -14.2336   19.2318 N   0  0  0  0  0  0  0  0  0  0  0  0
    7.4038  -14.1007   20.6690 C   0  0  0  0  0  0  0  0  0  0  0  0
    8.6893  -14.4232   21.3595 C   0  0  0  0  0  0  0  0  0  0  0  0
    9.0531  -15.8325   21.5436 C   0  0  0  0  0  0  0  0  0  0  0  0
   10.2857  -16.2226   22.2654 C   0  0  2  0  0  0  0  0  0  0  0  0
   10.4968  -17.6397   22.4215 N   0  0  0  0  0  0  0  0  0  0  0  0
   10.4663  -15.5011   23.5609 C   0  0  0  0  0  0  0  0  0  0  0  0
   10.1198  -14.2932   23.6566 O   0  0  0  0  0  0  0  0  0  0  0  0
    8.2062  -14.0667   16.5955 N   0  0  0  0  0  0  0  0  0  0  0  0
   11.0183  -16.1360   24.6937 C   0  0  1  0  0  0  0  0  0  0  0  0
   10.8016  -15.6940   26.0598 C   0  0  0  0  0  0  0  0  0  0  0  0
    9.3421  -15.3944   26.3249 S   0  0  0  0  0  0  0  0  0  0  0  0
    9.2352  -14.6152   27.9611 C   0  0  0  0  0  0  0  0  0  0  0  0
   11.3039  -16.6886   27.0414 O   0  0  0  0  0  0  0  0  0  0  0  0
   11.7125  -16.2838   28.3261 O   0  0  0  0  0  0  0  0  0  0  0  0
  2  1  1  0
  3  2  1  0
  3  4  1  1
  5  3  1  0
  5  6  1  6
  7  5  1  0
  8  7  2  0
 10  9  1  0
 10 12  1  0
 11 10  2  0
 13 12  1  0
 13 14  1  0
 15 14  1  0
 16 17  1  0
 16 15  1  1
 17  7  1  0
 18 16  1  0
 19 18  2  0
 20 18  1  0
 21 20  1  0
 21 22  1  6
 23 22  1  0
 24 25  1  0
 24 21  1  0
 26 24  2  0
M  END
$$$$
