IRC.pdb
     RDKit          3D

 26 25  0  0  1  0  0  0  0  0999 V2000
    5.4190  -11.6273   27.2052 C   0  0  0  0  0  0  0  0  0  0  0  0
    6.3794  -12.6289   27.7793 C   0  0  0  0  0  0  0  0  0  0  0  0
    7.1831  -13.3700   26.7701 C   0  0  2  0  0  0  0  0  0  0  0  0
    8.0285  -12.3462   26.0166 C   0  0  0  0  0  0  0  0  0  0  0  0
    6.3866  -14.2037   25.7934 C   0  0  2  0  0  0  0  0  0  0  0  0
    5.7522  -15.2772   26.5980 N   0  0  0  0  0  0  0  0  0  0  0  0
    7.2415  -14.8411   24.7679 C   0  0  0  0  0  0  0  0  0  0  0  0
    7.9048  -15.9073   25.0428 O   0  0  0  0  0  0  0  0  0  0  0  0
    8.2225  -12.7202   17.0634 N   0  0  0  0  0  0  0  0  0  0  0  0
    8.5444  -14.0916   17.3264 C   0  0  0  0  0  0  0  0  0  0  0  0
    9.4983  -14.6573   16.6839 N   0  0  0  0  0  0  0  0  0  0  0  0
    7.7906  -14.7939   18.2998 N   0  0  0  0  0  0  0  0  0  0  0  0
    6.7073  -14.1578   19.0535 C   0  0  0  0  0  0  0  0  0  0  0  0
    6.8117  -14.6595   20.4573 C   0  0  0  0  0  0  0  0  0  0  0  0
    8.1266  -14.6568   21.1080 C   0  0  0  0  0  0  0  0  0  0  0  0
    8.2830  -15.0318   22.5319 C   0  0  2  0  0  0  0  0  0  0  0  0
    7.4003  -14.3640   23.4548 N   0  0  0  0  0  0  0  0  0  0  0  0
    9.6993  -14.9837   23.0043 C   0  0  0  0  0  0  0  0  0  0  0  0
   10.0514  -14.1030   23.8342 O   0  0  0  0  0  0  0  0  0  0  0  0
    9.8404  -15.6092   16.7463 N   0  0  0  0  0  0  0  0  0  0  0  0
   10.6665  -15.9034   22.5462 C   0  0  2  0  0  0  0  0  0  0  0  0
   11.6781  -16.5091   23.3935 C   0  0  0  0  0  0  0  0  0  0  0  0
   11.0677  -17.1510   24.6205 S   0  0  0  0  0  0  0  0  0  0  0  0
   12.4294  -17.8080   25.6253 C   0  0  0  0  0  0  0  0  0  0  0  0
   12.4897  -17.5046   22.6482 O   0  0  0  0  0  0  0  0  0  0  0  0
   13.8561  -17.6768   22.9388 O   0  0  0  0  0  0  0  0  0  0  0  0
  2  1  1  0
  3  2  1  0
  3  4  1  6
  5  3  1  0
  5  6  1  1
  7  5  1  0
  8  7  2  0
 10  9  1  0
 10 12  1  0
 11 10  2  0
 13 12  1  0
 13 14  1  0
 15 14  1  0
 16 17  1  0
 16 15  1  6
 17  7  1  0
 18 16  1  0
 19 18  2  0
 20 18  1  0
 21 20  1  0
 21 22  1  1
 23 22  1  0
 24 25  1  0
 24 21  1  0
 26 24  2  0
M  END
$$$$
