IRC.pdb
     RDKit          3D

 26 25  0  0  1  0  0  0  0  0999 V2000
    6.4393  -11.7409   27.7288 C   0  0  0  0  0  0  0  0  0  0  0  0
    5.8920  -12.9890   27.0980 C   0  0  0  0  0  0  0  0  0  0  0  0
    6.7467  -13.5724   26.0289 C   0  0  2  0  0  0  0  0  0  0  0  0
    6.9431  -12.4979   24.9624 C   0  0  0  0  0  0  0  0  0  0  0  0
    6.2185  -14.8393   25.3969 C   0  0  2  0  0  0  0  0  0  0  0  0
    6.1025  -15.8259   26.4993 N   0  0  0  0  0  0  0  0  0  0  0  0
    7.1423  -15.3903   24.3812 C   0  0  0  0  0  0  0  0  0  0  0  0
    8.1006  -16.1738   24.7279 O   0  0  0  0  0  0  0  0  0  0  0  0
    7.8954  -13.1614   16.6061 N   0  0  0  0  0  0  0  0  0  0  0  0
    8.7460  -13.7470   17.5997 C   0  0  0  0  0  0  0  0  0  0  0  0
    9.3049  -13.0019   18.4802 N   0  0  0  0  0  0  0  0  0  0  0  0
    8.9496  -15.1495   17.5817 N   0  0  0  0  0  0  0  0  0  0  0  0
    7.9842  -16.0840   18.1659 C   0  0  0  0  0  0  0  0  0  0  0  0
    8.3887  -16.2806   19.5911 C   0  0  0  0  0  0  0  0  0  0  0  0
    7.5979  -15.6298   20.6415 C   0  0  0  0  0  0  0  0  0  0  0  0
    7.9416  -15.7854   22.0735 C   0  0  2  0  0  0  0  0  0  0  0  0
    7.0618  -15.1231   23.0031 N   0  0  0  0  0  0  0  0  0  0  0  0
    9.3738  -15.4858   22.3741 C   0  0  0  0  0  0  0  0  0  0  0  0
    9.7037  -14.3307   22.7553 O   0  0  0  0  0  0  0  0  0  0  0  0
   10.0044  -13.2395   19.1740 N   0  0  0  0  0  0  0  0  0  0  0  0
   10.3806  -16.4659   22.2438 C   0  0  1  0  0  0  0  0  0  0  0  0
   11.5943  -16.4957   23.0403 C   0  0  0  0  0  0  0  0  0  0  0  0
   11.4015  -17.2752   24.3229 S   0  0  0  0  0  0  0  0  0  0  0  0
   11.2474  -16.0715   25.6732 C   0  0  0  0  0  0  0  0  0  0  0  0
   12.7373  -17.0522   22.2728 O   0  0  0  0  0  0  0  0  0  0  0  0
   12.5897  -18.2354   21.5248 O   0  0  0  0  0  0  0  0  0  0  0  0
  2  1  1  0
  3  2  1  0
  3  4  1  6
  5  3  1  0
  5  6  1  1
  7  5  1  0
  8  7  2  0
 10  9  1  0
 10 12  1  0
 11 10  2  0
 13 12  1  0
 13 14  1  0
 15 14  1  0
 16 17  1  0
 16 15  1  6
 17  7  1  0
 18 16  1  0
 19 18  2  0
 20 18  1  0
 21 20  1  0
 21 22  1  6
 23 22  1  0
 24 25  1  0
 24 21  1  0
 26 24  2  0
M  END
$$$$
