IRC.pdb
     RDKit          3D

 26 25  0  0  1  0  0  0  0  0999 V2000
    6.7032  -11.1428   27.6081 C   0  0  0  0  0  0  0  0  0  0  0  0
    5.9751  -12.1358   26.7484 C   0  0  0  0  0  0  0  0  0  0  0  0
    6.8423  -13.1679   26.1188 C   0  0  2  0  0  0  0  0  0  0  0  0
    7.9111  -12.4367   25.3104 C   0  0  0  0  0  0  0  0  0  0  0  0
    6.1255  -14.1695   25.2433 C   0  0  2  0  0  0  0  0  0  0  0  0
    5.1627  -14.8689   26.1300 N   0  0  0  0  0  0  0  0  0  0  0  0
    7.0441  -15.1796   24.6735 C   0  0  0  0  0  0  0  0  0  0  0  0
    7.5587  -16.0891   25.4221 O   0  0  0  0  0  0  0  0  0  0  0  0
   11.6092  -18.4642   18.8632 N   0  0  0  0  0  0  0  0  0  0  0  0
   11.2741  -19.5299   19.7607 C   0  0  0  0  0  0  0  0  0  0  0  0
   12.1320  -20.4498   20.0070 N   0  0  0  0  0  0  0  0  0  0  0  0
    9.9887  -19.5393   20.3579 N   0  0  0  0  0  0  0  0  0  0  0  0
    9.0078  -18.4795   20.1108 C   0  0  0  0  0  0  0  0  0  0  0  0
    9.5114  -17.2593   20.8114 C   0  0  0  0  0  0  0  0  0  0  0  0
    8.5363  -16.3370   21.4038 C   0  0  0  0  0  0  0  0  0  0  0  0
    8.3986  -16.1991   22.8717 C   0  0  2  0  0  0  0  0  0  0  0  0
    7.4221  -15.2390   23.3205 N   0  0  0  0  0  0  0  0  0  0  0  0
    9.7041  -16.0142   23.5737 C   0  0  0  0  0  0  0  0  0  0  0  0
   10.1662  -14.8532   23.7375 O   0  0  0  0  0  0  0  0  0  0  0  0
   12.0512  -21.2604   20.6098 N   0  0  0  0  0  0  0  0  0  0  0  0
   10.4447  -17.1101   24.0652 C   0  0  2  0  0  0  0  0  0  0  0  0
   11.3142  -17.0486   25.2265 C   0  0  0  0  0  0  0  0  0  0  0  0
   10.5623  -16.6104   26.4645 S   0  0  0  0  0  0  0  0  0  0  0  0
   11.7638  -16.5033   27.8213 C   0  0  0  0  0  0  0  0  0  0  0  0
   11.9881  -18.3487   25.4732 O   0  0  0  0  0  0  0  0  0  0  0  0
   13.3078  -18.3903   25.9608 O   0  0  0  0  0  0  0  0  0  0  0  0
  2  1  1  0
  3  2  1  0
  3  4  1  6
  5  3  1  0
  5  6  1  1
  7  5  1  0
  8  7  2  0
 10  9  1  0
 10 12  1  0
 11 10  2  0
 13 12  1  0
 13 14  1  0
 15 14  1  0
 16 17  1  0
 16 15  1  6
 17  7  1  0
 18 16  1  0
 19 18  2  0
 20 18  1  0
 21 20  1  0
 21 22  1  1
 23 22  1  0
 24 25  1  0
 24 21  1  0
 26 24  2  0
M  END
$$$$
