IRC.pdb
     RDKit          3D

 26 25  0  0  1  0  0  0  0  0999 V2000
    5.8480  -11.8912   28.1001 C   0  0  0  0  0  0  0  0  0  0  0  0
    6.8513  -11.7015   26.9989 C   0  0  0  0  0  0  0  0  0  0  0  0
    6.6506  -12.5808   25.8157 C   0  0  2  0  0  0  0  0  0  0  0  0
    5.1774  -12.4934   25.4250 C   0  0  0  0  0  0  0  0  0  0  0  0
    7.0510  -14.0253   26.0070 C   0  0  2  0  0  0  0  0  0  0  0  0
    8.3070  -13.9978   26.7969 N   0  0  0  0  0  0  0  0  0  0  0  0
    7.3285  -14.7081   24.7243 C   0  0  0  0  0  0  0  0  0  0  0  0
    6.5775  -15.6707   24.3220 O   0  0  0  0  0  0  0  0  0  0  0  0
    7.4841  -13.9369   15.9241 N   0  0  0  0  0  0  0  0  0  0  0  0
    8.3814  -14.3184   16.9742 C   0  0  0  0  0  0  0  0  0  0  0  0
    8.9719  -15.4551   16.9269 N   0  0  0  0  0  0  0  0  0  0  0  0
    8.5936  -13.4197   18.0494 N   0  0  0  0  0  0  0  0  0  0  0  0
    9.5354  -13.7110   19.1332 C   0  0  0  0  0  0  0  0  0  0  0  0
    8.8370  -14.6464   20.0662 C   0  0  0  0  0  0  0  0  0  0  0  0
    8.4637  -14.1600   21.3990 C   0  0  0  0  0  0  0  0  0  0  0  0
    8.5308  -15.0405   22.5878 C   0  0  2  0  0  0  0  0  0  0  0  0
    8.3903  -14.3821   23.8620 N   0  0  0  0  0  0  0  0  0  0  0  0
    9.7090  -15.9586   22.5783 C   0  0  0  0  0  0  0  0  0  0  0  0
   10.8063  -15.5717   23.0626 O   0  0  0  0  0  0  0  0  0  0  0  0
    9.6231  -15.8697   17.5834 N   0  0  0  0  0  0  0  0  0  0  0  0
    9.6319  -17.2601   22.0386 C   0  0  2  0  0  0  0  0  0  0  0  0
   10.7351  -18.2041   22.0315 C   0  0  0  0  0  0  0  0  0  0  0  0
   10.2507  -19.6304   22.1763 S   0  0  0  0  0  0  0  0  0  0  0  0
   11.0946  -20.3481   23.6146 C   0  0  0  0  0  0  0  0  0  0  0  0
   11.5614  -18.0687   20.8050 O   0  0  0  0  0  0  0  0  0  0  0  0
   12.9664  -18.1070   20.8799 O   0  0  0  0  0  0  0  0  0  0  0  0
  2  1  1  0
  3  2  1  0
  3  4  1  1
  5  3  1  0
  5  6  1  1
  7  5  1  0
  8  7  2  0
 10  9  1  0
 10 12  1  0
 11 10  2  0
 13 12  1  0
 13 14  1  0
 15 14  1  0
 16 17  1  0
 16 15  1  6
 17  7  1  0
 18 16  1  0
 19 18  2  0
 20 18  1  0
 21 20  1  0
 21 22  1  6
 23 22  1  0
 24 25  1  0
 24 21  1  0
 26 24  2  0
M  END
$$$$
