IRC.pdb
     RDKit          3D

 26 25  0  0  1  0  0  0  0  0999 V2000
    8.0479  -12.1025   18.1518 C   0  0  0  0  0  0  0  0  0  0  0  0
    8.3724  -13.5494   18.3894 C   0  0  0  0  0  0  0  0  0  0  0  0
    7.8331  -14.1080   19.6586 C   0  0  2  0  0  0  0  0  0  0  0  0
    8.4495  -13.3132   20.8070 C   0  0  0  0  0  0  0  0  0  0  0  0
    8.0678  -15.5861   19.8669 C   0  0  2  0  0  0  0  0  0  0  0  0
    7.2928  -16.2745   18.8049 N   0  0  0  0  0  0  0  0  0  0  0  0
    7.5705  -16.0567   21.1783 C   0  0  0  0  0  0  0  0  0  0  0  0
    6.3130  -16.0371   21.4441 O   0  0  0  0  0  0  0  0  0  0  0  0
    5.2910  -22.1053   25.3210 N   0  0  0  0  0  0  0  0  0  0  0  0
    6.6618  -22.0431   25.7339 C   0  0  0  0  0  0  0  0  0  0  0  0
    7.2631  -23.1101   26.1115 N   0  0  0  0  0  0  0  0  0  0  0  0
    7.3231  -20.7897   25.7145 N   0  0  0  0  0  0  0  0  0  0  0  0
    6.5951  -19.5275   25.5608 C   0  0  0  0  0  0  0  0  0  0  0  0
    7.6253  -18.4499   25.4580 C   0  0  0  0  0  0  0  0  0  0  0  0
    8.1339  -18.0892   24.1300 C   0  0  0  0  0  0  0  0  0  0  0  0
    7.8561  -16.7633   23.5320 C   0  0  2  0  0  0  0  0  0  0  0  0
    8.3887  -16.5497   22.2101 N   0  0  0  0  0  0  0  0  0  0  0  0
    8.1850  -15.6239   24.4402 C   0  0  0  0  0  0  0  0  0  0  0  0
    9.3872  -15.2828   24.6042 O   0  0  0  0  0  0  0  0  0  0  0  0
    8.2169  -23.2323   26.4315 N   0  0  0  0  0  0  0  0  0  0  0  0
    7.1816  -14.9091   25.1281 C   0  0  2  0  0  0  0  0  0  0  0  0
    7.4482  -13.8424   26.0765 C   0  0  0  0  0  0  0  0  0  0  0  0
    6.1802  -13.1181   26.4734 S   0  0  0  0  0  0  0  0  0  0  0  0
    6.6399  -11.8325   27.6700 C   0  0  0  0  0  0  0  0  0  0  0  0
    8.1455  -14.3489   27.2858 O   0  0  0  0  0  0  0  0  0  0  0  0
    9.1471  -13.5813   27.9095 O   0  0  0  0  0  0  0  0  0  0  0  0
  2  1  1  0
  3  2  1  0
  3  4  1  1
  5  3  1  0
  5  6  1  6
  7  5  1  0
  8  7  2  0
 10  9  1  0
 10 12  1  0
 11 10  2  0
 13 12  1  0
 13 14  1  0
 15 14  1  0
 16 17  1  0
 16 15  1  1
 17  7  1  0
 18 16  1  0
 19 18  2  0
 20 18  1  0
 21 20  1  0
 21 22  1  6
 23 22  1  0
 24 25  1  0
 24 21  1  0
 26 24  2  0
M  END
$$$$
