IRC.pdb
     RDKit          3D

 26 25  0  0  1  0  0  0  0  0999 V2000
    5.9265  -11.3690   27.2258 C   0  0  0  0  0  0  0  0  0  0  0  0
    5.5480  -12.5682   26.4048 C   0  0  0  0  0  0  0  0  0  0  0  0
    6.6825  -13.2226   25.6990 C   0  0  2  0  0  0  0  0  0  0  0  0
    7.3728  -12.1551   24.8538 C   0  0  0  0  0  0  0  0  0  0  0  0
    6.3120  -14.4068   24.8365 C   0  0  2  0  0  0  0  0  0  0  0  0
    5.7216  -15.4107   25.7562 N   0  0  0  0  0  0  0  0  0  0  0  0
    7.4896  -15.0181   24.1821 C   0  0  0  0  0  0  0  0  0  0  0  0
    8.1226  -15.9831   24.7483 O   0  0  0  0  0  0  0  0  0  0  0  0
    7.9930  -15.7060   17.4181 N   0  0  0  0  0  0  0  0  0  0  0  0
    7.7907  -14.3028   17.2090 C   0  0  0  0  0  0  0  0  0  0  0  0
    8.0110  -13.7918   16.0543 N   0  0  0  0  0  0  0  0  0  0  0  0
    7.3486  -13.5085   18.2963 N   0  0  0  0  0  0  0  0  0  0  0  0
    8.1493  -13.3366   19.5111 C   0  0  0  0  0  0  0  0  0  0  0  0
    8.6686  -14.6897   19.8755 C   0  0  0  0  0  0  0  0  0  0  0  0
    9.5683  -14.8094   21.0281 C   0  0  0  0  0  0  0  0  0  0  0  0
    9.0926  -15.3413   22.3256 C   0  0  2  0  0  0  0  0  0  0  0  0
    8.0031  -14.6211   22.9348 N   0  0  0  0  0  0  0  0  0  0  0  0
   10.1943  -15.5880   23.3037 C   0  0  0  0  0  0  0  0  0  0  0  0
   10.8407  -14.6141   23.7751 O   0  0  0  0  0  0  0  0  0  0  0  0
    7.8931  -12.8354   15.7408 N   0  0  0  0  0  0  0  0  0  0  0  0
   10.5383  -16.8911   23.7217 C   0  0  1  0  0  0  0  0  0  0  0  0
   11.6309  -17.1920   24.6294 C   0  0  0  0  0  0  0  0  0  0  0  0
   11.1869  -18.0985   25.7568 S   0  0  0  0  0  0  0  0  0  0  0  0
   10.0101  -17.1637   26.7752 C   0  0  0  0  0  0  0  0  0  0  0  0
   12.7840  -17.7956   23.9144 O   0  0  0  0  0  0  0  0  0  0  0  0
   13.9778  -18.0894   24.5998 O   0  0  0  0  0  0  0  0  0  0  0  0
  2  1  1  0
  3  2  1  0
  3  4  1  6
  5  3  1  0
  5  6  1  1
  7  5  1  0
  8  7  2  0
 10  9  1  0
 10 12  1  0
 11 10  2  0
 13 12  1  0
 13 14  1  0
 15 14  1  0
 16 17  1  0
 16 15  1  6
 17  7  1  0
 18 16  1  0
 19 18  2  0
 20 18  1  0
 21 20  1  0
 21 22  1  1
 23 22  1  0
 24 25  1  0
 24 21  1  0
 26 24  2  0
M  END
$$$$
