IRC.pdb
     RDKit          3D

 26 25  0  0  1  0  0  0  0  0999 V2000
    6.9275  -12.1108   19.9617 C   0  0  0  0  0  0  0  0  0  0  0  0
    7.4885  -13.1928   19.0842 C   0  0  0  0  0  0  0  0  0  0  0  0
    8.3443  -14.1848   19.7892 C   0  0  2  0  0  0  0  0  0  0  0  0
    9.5088  -13.4218   20.4153 C   0  0  0  0  0  0  0  0  0  0  0  0
    8.8663  -15.3146   18.9322 C   0  0  2  0  0  0  0  0  0  0  0  0
    7.6678  -16.0348   18.4347 N   0  0  0  0  0  0  0  0  0  0  0  0
    9.6918  -16.2712   19.7018 C   0  0  0  0  0  0  0  0  0  0  0  0
    9.1397  -17.1135   20.5006 O   0  0  0  0  0  0  0  0  0  0  0  0
   14.3199  -19.7721   17.6884 N   0  0  0  0  0  0  0  0  0  0  0  0
   14.8888  -20.7315   18.5880 C   0  0  0  0  0  0  0  0  0  0  0  0
   14.9565  -21.9648   18.2456 N   0  0  0  0  0  0  0  0  0  0  0  0
   15.3659  -20.2867   19.8463 N   0  0  0  0  0  0  0  0  0  0  0  0
   15.3937  -18.8680   20.2111 C   0  0  0  0  0  0  0  0  0  0  0  0
   14.0406  -18.5398   20.7539 C   0  0  0  0  0  0  0  0  0  0  0  0
   13.1863  -17.6164   19.9990 C   0  0  0  0  0  0  0  0  0  0  0  0
   11.8206  -17.2778   20.4604 C   0  0  2  0  0  0  0  0  0  0  0  0
   11.0941  -16.3475   19.6336 N   0  0  0  0  0  0  0  0  0  0  0  0
   11.7631  -16.8838   21.9001 C   0  0  0  0  0  0  0  0  0  0  0  0
   12.1688  -15.7438   22.2524 O   0  0  0  0  0  0  0  0  0  0  0  0
   15.3549  -22.7507   18.7464 N   0  0  0  0  0  0  0  0  0  0  0  0
   11.2632  -17.7570   22.8895 C   0  0  2  0  0  0  0  0  0  0  0  0
   11.3150  -17.4854   24.3149 C   0  0  0  0  0  0  0  0  0  0  0  0
    9.9397  -17.2041   24.8802 S   0  0  0  0  0  0  0  0  0  0  0  0
   10.1282  -16.9474   26.6675 C   0  0  0  0  0  0  0  0  0  0  0  0
   11.9539  -18.5998   25.0600 O   0  0  0  0  0  0  0  0  0  0  0  0
   12.7660  -18.3400   26.1800 O   0  0  0  0  0  0  0  0  0  0  0  0
  2  1  1  0
  3  2  1  0
  3  4  1  6
  5  3  1  0
  5  6  1  1
  7  5  1  0
  8  7  2  0
 10  9  1  0
 10 12  1  0
 11 10  2  0
 13 12  1  0
 13 14  1  0
 15 14  1  0
 16 17  1  0
 16 15  1  6
 17  7  1  0
 18 16  1  0
 19 18  2  0
 20 18  1  0
 21 20  1  0
 21 22  1  6
 23 22  1  0
 24 25  1  0
 24 21  1  0
 26 24  2  0
M  END
$$$$
