IRC.pdb
     RDKit          3D

 26 25  0  0  1  0  0  0  0  0999 V2000
    6.9881  -11.2900   27.3609 C   0  0  0  0  0  0  0  0  0  0  0  0
    6.3097  -12.5440   26.8891 C   0  0  0  0  0  0  0  0  0  0  0  0
    7.1275  -13.3889   25.9775 C   0  0  2  0  0  0  0  0  0  0  0  0
    7.5376  -12.5191   24.7919 C   0  0  0  0  0  0  0  0  0  0  0  0
    6.4553  -14.6502   25.4867 C   0  0  2  0  0  0  0  0  0  0  0  0
    6.0905  -15.4165   26.7040 N   0  0  0  0  0  0  0  0  0  0  0  0
    7.3586  -15.4886   24.6683 C   0  0  0  0  0  0  0  0  0  0  0  0
    8.3698  -16.0736   25.2047 O   0  0  0  0  0  0  0  0  0  0  0  0
    8.3597  -12.8127   18.5140 N   0  0  0  0  0  0  0  0  0  0  0  0
    8.2890  -13.7936   17.4718 C   0  0  0  0  0  0  0  0  0  0  0  0
    8.3877  -13.4305   16.2465 N   0  0  0  0  0  0  0  0  0  0  0  0
    8.1090  -15.1538   17.8272 N   0  0  0  0  0  0  0  0  0  0  0  0
    8.9024  -15.7954   18.8785 C   0  0  0  0  0  0  0  0  0  0  0  0
    8.2230  -15.4889   20.1737 C   0  0  0  0  0  0  0  0  0  0  0  0
    7.9416  -16.5934   21.0975 C   0  0  0  0  0  0  0  0  0  0  0  0
    8.1888  -16.4641   22.5518 C   0  0  2  0  0  0  0  0  0  0  0  0
    7.2022  -15.7165   23.2896 N   0  0  0  0  0  0  0  0  0  0  0  0
    9.5727  -16.0062   22.8782 C   0  0  0  0  0  0  0  0  0  0  0  0
    9.8885  -14.7987   22.7038 O   0  0  0  0  0  0  0  0  0  0  0  0
    8.3773  -13.9953   15.4051 N   0  0  0  0  0  0  0  0  0  0  0  0
   10.5486  -16.8924   23.3817 C   0  0  2  0  0  0  0  0  0  0  0  0
   11.9465  -16.5442   23.5635 C   0  0  0  0  0  0  0  0  0  0  0  0
   12.3301  -16.5196   25.0272 S   0  0  0  0  0  0  0  0  0  0  0  0
   11.7724  -18.0831   25.7621 C   0  0  0  0  0  0  0  0  0  0  0  0
   12.8402  -17.4667   22.8181 O   0  0  0  0  0  0  0  0  0  0  0  0
   14.2313  -17.2537   22.7953 O   0  0  0  0  0  0  0  0  0  0  0  0
  2  1  1  0
  3  2  1  0
  3  4  1  6
  5  3  1  0
  5  6  1  1
  7  5  1  0
  8  7  2  0
 10  9  1  0
 10 12  1  0
 11 10  2  0
 13 12  1  0
 13 14  1  0
 15 14  1  0
 16 17  1  0
 16 15  1  6
 17  7  1  0
 18 16  1  0
 19 18  2  0
 20 18  1  0
 21 20  1  0
 21 22  1  6
 23 22  1  0
 24 25  1  0
 24 21  1  0
 26 24  2  0
M  END
$$$$
