IRC.pdb
     RDKit          3D

 26 25  0  0  1  0  0  0  0  0999 V2000
    6.9965  -12.1400   19.2527 C   0  0  0  0  0  0  0  0  0  0  0  0
    7.2684  -12.5383   20.6749 C   0  0  0  0  0  0  0  0  0  0  0  0
    8.0968  -13.7643   20.8305 C   0  0  2  0  0  0  0  0  0  0  0  0
    9.4119  -13.5248   20.0932 C   0  0  0  0  0  0  0  0  0  0  0  0
    7.4565  -15.0442   20.3453 C   0  0  2  0  0  0  0  0  0  0  0  0
    6.2423  -15.2323   21.1775 N   0  0  0  0  0  0  0  0  0  0  0  0
    8.3327  -16.2208   20.5367 C   0  0  0  0  0  0  0  0  0  0  0  0
    8.4517  -16.7636   21.6958 O   0  0  0  0  0  0  0  0  0  0  0  0
   14.0849  -20.4435   19.0318 N   0  0  0  0  0  0  0  0  0  0  0  0
   13.7001  -21.7027   18.4662 C   0  0  0  0  0  0  0  0  0  0  0  0
   14.5626  -22.6451   18.3618 N   0  0  0  0  0  0  0  0  0  0  0  0
   12.3620  -21.8742   18.0315 N   0  0  0  0  0  0  0  0  0  0  0  0
   11.5416  -20.7495   17.5750 C   0  0  0  0  0  0  0  0  0  0  0  0
   11.2157  -19.9386   18.7871 C   0  0  0  0  0  0  0  0  0  0  0  0
   10.3338  -18.7757   18.6377 C   0  0  0  0  0  0  0  0  0  0  0  0
    9.9433  -17.9494   19.8028 C   0  0  2  0  0  0  0  0  0  0  0  0
    9.0822  -16.8302   19.5150 N   0  0  0  0  0  0  0  0  0  0  0  0
   11.1017  -17.5387   20.6518 C   0  0  0  0  0  0  0  0  0  0  0  0
   11.7158  -16.4685   20.3951 O   0  0  0  0  0  0  0  0  0  0  0  0
   14.4481  -23.5850   18.0005 N   0  0  0  0  0  0  0  0  0  0  0  0
   11.5351  -18.3193   21.7445 C   0  0  1  0  0  0  0  0  0  0  0  0
   12.5860  -17.9194   22.6633 C   0  0  0  0  0  0  0  0  0  0  0  0
   12.0215  -17.4411   23.9833 S   0  0  0  0  0  0  0  0  0  0  0  0
   11.8472  -15.6370   23.8787 C   0  0  0  0  0  0  0  0  0  0  0  0
   13.5575  -19.0187   22.8931 O   0  0  0  0  0  0  0  0  0  0  0  0
   13.3730  -20.2761   22.2878 O   0  0  0  0  0  0  0  0  0  0  0  0
  2  1  1  0
  3  2  1  0
  3  4  1  6
  5  3  1  0
  5  6  1  1
  7  5  1  0
  8  7  2  0
 10  9  1  0
 10 12  1  0
 11 10  2  0
 13 12  1  0
 13 14  1  0
 15 14  1  0
 16 17  1  0
 16 15  1  6
 17  7  1  0
 18 16  1  0
 19 18  2  0
 20 18  1  0
 21 20  1  0
 21 22  1  1
 23 22  1  0
 24 25  1  0
 24 21  1  0
 26 24  2  0
M  END
$$$$
