IRC.pdb
     RDKit          3D

 26 25  0  0  1  0  0  0  0  0999 V2000
    6.7802  -12.0198   19.5129 C   0  0  0  0  0  0  0  0  0  0  0  0
    7.5451  -13.0001   18.6708 C   0  0  0  0  0  0  0  0  0  0  0  0
    8.3079  -14.0196   19.4405 C   0  0  2  0  0  0  0  0  0  0  0  0
    9.2783  -13.2731   20.3524 C   0  0  0  0  0  0  0  0  0  0  0  0
    9.0564  -15.0338   18.6070 C   0  0  2  0  0  0  0  0  0  0  0  0
    8.0237  -15.7619   17.8287 N   0  0  0  0  0  0  0  0  0  0  0  0
    9.7861  -16.0174   19.4369 C   0  0  0  0  0  0  0  0  0  0  0  0
    9.1488  -16.9360   20.0712 O   0  0  0  0  0  0  0  0  0  0  0  0
   12.4726  -18.6004   16.2732 N   0  0  0  0  0  0  0  0  0  0  0  0
   13.6072  -19.4724   16.3490 C   0  0  0  0  0  0  0  0  0  0  0  0
   13.6754  -20.4982   15.5835 N   0  0  0  0  0  0  0  0  0  0  0  0
   14.6345  -19.1748   17.2790 N   0  0  0  0  0  0  0  0  0  0  0  0
   14.5590  -18.0221   18.1801 C   0  0  0  0  0  0  0  0  0  0  0  0
   13.5064  -18.3393   19.1923 C   0  0  0  0  0  0  0  0  0  0  0  0
   13.1958  -17.3388   20.2194 C   0  0  0  0  0  0  0  0  0  0  0  0
   11.7983  -16.9576   20.5267 C   0  0  2  0  0  0  0  0  0  0  0  0
   11.1824  -16.0408   19.6009 N   0  0  0  0  0  0  0  0  0  0  0  0
   11.6029  -16.5149   21.9399 C   0  0  0  0  0  0  0  0  0  0  0  0
   11.6325  -15.2863   22.2194 O   0  0  0  0  0  0  0  0  0  0  0  0
   14.3735  -21.2322   15.5518 N   0  0  0  0  0  0  0  0  0  0  0  0
   11.3835  -17.4386   22.9838 C   0  0  2  0  0  0  0  0  0  0  0  0
   11.0174  -17.0634   24.3379 C   0  0  0  0  0  0  0  0  0  0  0  0
    9.5331  -16.7957   24.4613 S   0  0  0  0  0  0  0  0  0  0  0  0
    9.3001  -14.9956   24.4245 C   0  0  0  0  0  0  0  0  0  0  0  0
   11.4324  -18.0958   25.3214 O   0  0  0  0  0  0  0  0  0  0  0  0
   11.3770  -17.8323   26.7030 O   0  0  0  0  0  0  0  0  0  0  0  0
  2  1  1  0
  3  2  1  0
  3  4  1  6
  5  3  1  0
  5  6  1  1
  7  5  1  0
  8  7  2  0
 10  9  1  0
 10 12  1  0
 11 10  2  0
 13 12  1  0
 13 14  1  0
 15 14  1  0
 16 17  1  0
 16 15  1  6
 17  7  1  0
 18 16  1  0
 19 18  2  0
 20 18  1  0
 21 20  1  0
 21 22  1  6
 23 22  1  0
 24 25  1  0
 24 21  1  0
 26 24  2  0
M  END
$$$$
