IRC.pdb
     RDKit          3D

 26 25  0  0  1  0  0  0  0  0999 V2000
    7.0911  -12.0851   28.4353 C   0  0  0  0  0  0  0  0  0  0  0  0
    6.3934  -13.1699   27.6662 C   0  0  0  0  0  0  0  0  0  0  0  0
    7.0915  -13.6008   26.4250 C   0  0  2  0  0  0  0  0  0  0  0  0
    7.2561  -12.3674   25.5407 C   0  0  0  0  0  0  0  0  0  0  0  0
    6.4124  -14.7065   25.6507 C   0  0  2  0  0  0  0  0  0  0  0  0
    6.4838  -15.9110   26.5147 N   0  0  0  0  0  0  0  0  0  0  0  0
    7.1037  -15.0108   24.3786 C   0  0  0  0  0  0  0  0  0  0  0  0
    8.0905  -15.8341   24.3533 O   0  0  0  0  0  0  0  0  0  0  0  0
    9.4814  -15.4497   17.9368 N   0  0  0  0  0  0  0  0  0  0  0  0
    8.7962  -14.8094   16.8532 C   0  0  0  0  0  0  0  0  0  0  0  0
    9.3721  -14.6938   15.7140 N   0  0  0  0  0  0  0  0  0  0  0  0
    7.4862  -14.3149   17.0725 N   0  0  0  0  0  0  0  0  0  0  0  0
    7.1388  -13.5303   18.2600 C   0  0  0  0  0  0  0  0  0  0  0  0
    7.6550  -14.2890   19.4394 C   0  0  0  0  0  0  0  0  0  0  0  0
    7.2507  -13.8591   20.7826 C   0  0  0  0  0  0  0  0  0  0  0  0
    7.6102  -14.6455   21.9847 C   0  0  2  0  0  0  0  0  0  0  0  0
    6.7607  -14.4552   23.1332 N   0  0  0  0  0  0  0  0  0  0  0  0
    9.0536  -14.5363   22.3532 C   0  0  0  0  0  0  0  0  0  0  0  0
    9.4050  -13.7546   23.2772 O   0  0  0  0  0  0  0  0  0  0  0  0
    9.0583  -14.2103   14.8805 N   0  0  0  0  0  0  0  0  0  0  0  0
   10.0476  -15.2892   21.6926 C   0  0  1  0  0  0  0  0  0  0  0  0
   11.1554  -15.9422   22.3670 C   0  0  0  0  0  0  0  0  0  0  0  0
   10.6751  -16.8580   23.4718 S   0  0  0  0  0  0  0  0  0  0  0  0
   11.2542  -16.1623   25.0454 C   0  0  0  0  0  0  0  0  0  0  0  0
   12.0063  -16.6977   21.4128 O   0  0  0  0  0  0  0  0  0  0  0  0
   13.4064  -16.5542   21.4328 O   0  0  0  0  0  0  0  0  0  0  0  0
  2  1  1  0
  3  2  1  0
  3  4  1  6
  5  3  1  0
  5  6  1  1
  7  5  1  0
  8  7  2  0
 10  9  1  0
 10 12  1  0
 11 10  2  0
 13 12  1  0
 13 14  1  0
 15 14  1  0
 16 17  1  0
 16 15  1  6
 17  7  1  0
 18 16  1  0
 19 18  2  0
 20 18  1  0
 21 20  1  0
 21 22  1  6
 23 22  1  0
 24 25  1  0
 24 21  1  0
 26 24  2  0
M  END
$$$$
