KLD.pdb
     RDKit          3D

 26 25  0  0  1  0  0  0  0  0999 V2000
505542.4375-202613.92191105892.6250 N   0  0  0  0  0  0  0  0  0  0  0  0
505543.8750-202613.43751105893.0000 C   0  0  1  0  0  0  0  0  0  0  0  0
505544.2188-202612.76561105891.7500 C   0  0  0  0  0  0  0  0  0  0  0  0
505544.2812-202611.25001105891.8750 C   0  0  0  0  0  0  0  0  0  0  0  0
505545.6562-202610.75001105892.1250 C   0  0  0  0  0  0  0  0  0  0  0  0
505545.9375-202610.04691105893.5000 C   0  0  0  0  0  0  0  0  0  0  0  0
505544.4688-202609.93751105894.1250 N   0  0  0  0  0  0  0  0  0  0  0  0
505543.9375-202612.39061105894.1250 C   0  0  0  0  0  0  0  0  0  0  0  0
505544.9062-202612.45311105894.8750 O   0  0  0  0  0  0  0  0  0  0  0  0
505540.5938-202610.79691105897.0000 C   0  0  0  0  0  0  0  0  0  0  0  0
505540.6875-202612.34381105896.8750 C   0  0  1  0  0  0  0  0  0  0  0  0
505539.1562-202612.85941105897.1250 C   0  0  0  0  0  0  0  0  0  0  0  0
505541.3438-202612.81251105895.8750 C   0  0  0  0  0  0  0  0  0  0  0  0
505541.4688-202611.71881105894.6250 C   0  0  2  0  0  0  0  0  0  0  0  0
505542.8750-202611.39061105894.2500 N   0  0  0  0  0  0  0  0  0  0  0  0
505540.7188-202610.51561105894.7500 C   0  0  0  0  0  0  0  0  0  0  0  0
505539.3750-202610.60941105895.2500 O   0  0  0  0  0  0  0  0  0  0  0  0
505541.3125-202609.20311105894.8750 N   0  0  0  0  0  0  0  0  0  0  0  0
505541.3125-202608.31251105893.6250 C   0  0  1  0  0  0  0  0  0  0  0  0
505540.5938-202608.71881105892.7500 C   0  0  0  0  0  0  0  0  0  0  0  0
505541.2188-202608.85941105891.5000 C   0  0  0  0  0  0  0  0  0  0  0  0
505542.4375-202608.14061105891.2500 O   0  0  0  0  0  0  0  0  0  0  0  0
505540.6875-202606.96881105894.3750 C   0  0  0  0  0  0  0  0  0  0  0  0
505539.9688-202606.20311105893.3750 O   0  0  0  0  0  0  0  0  0  0  0  0
505541.0312-202609.75001105890.1250 O   0  0  0  0  0  0  0  0  0  0  0  0
505540.8125-202606.57811105895.6250 O   0  0  0  0  0  0  0  0  0  0  0  0
  2  1  1  6
  3  2  1  0
  4  3  1  0
  5  4  1  0
  5  6  1  0
  7  6  1  0
  8  9  2  0
  8  2  1  0
 11 10  1  6
 11 12  1  0
 13 11  1  0
 14 13  1  1
 14 15  1  0
 15  8  1  0
 16 18  1  0
 16 14  1  0
 17 16  2  0
 19 18  1  0
 19 20  1  6
 20 21  1  0
 21 22  2  0
 23 19  1  0
 24 23  1  0
 25 21  1  0
 26 23  2  0
M  END
$$$$
