KLD.pdb
     RDKit          3D

 26 25  0  0  1  0  0  0  0  0999 V2000
    9.2864  -18.0418   17.8390 N   0  0  0  0  0  0  0  0  0  0  0  0
   10.4807  -17.2676   17.7022 C   0  0  1  0  0  0  0  0  0  0  0  0
   10.5326  -16.4799   16.4185 C   0  0  0  0  0  0  0  0  0  0  0  0
   10.0313  -17.3174   15.2675 C   0  0  0  0  0  0  0  0  0  0  0  0
    9.9744  -16.5357   13.9823 C   0  0  0  0  0  0  0  0  0  0  0  0
    9.4448  -17.3666   12.8334 C   0  0  0  0  0  0  0  0  0  0  0  0
    9.4116  -16.4728   11.6661 N   0  0  0  0  0  0  0  0  0  0  0  0
   10.6497  -16.2959   18.8341 C   0  0  0  0  0  0  0  0  0  0  0  0
   11.7155  -15.6694   18.8503 O   0  0  0  0  0  0  0  0  0  0  0  0
    6.2159  -13.5988   20.3161 C   0  0  0  0  0  0  0  0  0  0  0  0
    7.6512  -13.9840   19.9831 C   0  0  1  0  0  0  0  0  0  0  0  0
    8.3118  -12.6416   19.5713 C   0  0  0  0  0  0  0  0  0  0  0  0
    8.3549  -14.5244   21.2043 C   0  0  0  0  0  0  0  0  0  0  0  0
    9.7107  -15.1329   20.8732 C   0  0  2  0  0  0  0  0  0  0  0  0
    9.6737  -16.1021   19.8131 N   0  0  0  0  0  0  0  0  0  0  0  0
   10.4517  -15.6109   22.0352 C   0  0  0  0  0  0  0  0  0  0  0  0
   10.5215  -14.9294   23.1137 O   0  0  0  0  0  0  0  0  0  0  0  0
   11.1524  -16.8524   22.0808 N   0  0  0  0  0  0  0  0  0  0  0  0
   11.8658  -17.3292   23.2117 C   0  0  1  0  0  0  0  0  0  0  0  0
   11.6976  -18.7677   23.5449 C   0  0  0  0  0  0  0  0  0  0  0  0
   10.3858  -19.1082   24.1288 C   0  0  0  0  0  0  0  0  0  0  0  0
    9.9690  -18.4698   25.1153 O   0  0  0  0  0  0  0  0  0  0  0  0
   13.3285  -17.0932   22.9550 C   0  0  0  0  0  0  0  0  0  0  0  0
   14.2527  -17.2021   23.9854 O   0  0  0  0  0  0  0  0  0  0  0  0
    9.6154  -20.1204   23.6003 O   0  0  0  0  0  0  0  0  0  0  0  0
   13.7707  -16.7932   21.8206 O   0  0  0  0  0  0  0  0  0  0  0  0
  2  1  1  1
  3  2  1  0
  4  3  1  0
  5  4  1  0
  5  6  1  0
  7  6  1  0
  8  9  2  0
  8  2  1  0
 11 10  1  1
 11 12  1  0
 13 11  1  0
 14 13  1  1
 14 15  1  0
 15  8  1  0
 16 18  1  0
 16 14  1  0
 17 16  2  0
 19 18  1  0
 19 20  1  6
 20 21  1  0
 21 22  2  0
 23 19  1  0
 24 23  1  0
 25 21  1  0
 26 23  2  0
M  END
$$$$
