KLD.pdb
     RDKit          3D

 26 25  0  0  1  0  0  0  0  0999 V2000
    7.1879  -15.9479   21.4026 N   0  0  0  0  0  0  0  0  0  0  0  0
    8.4522  -15.2816   21.3572 C   0  0  1  0  0  0  0  0  0  0  0  0
    8.4667  -14.1010   20.4207 C   0  0  0  0  0  0  0  0  0  0  0  0
    7.8493  -14.4742   19.0952 C   0  0  0  0  0  0  0  0  0  0  0  0
    8.3874  -13.6376   17.9653 C   0  0  0  0  0  0  0  0  0  0  0  0
    7.8199  -14.0565   16.6262 C   0  0  0  0  0  0  0  0  0  0  0  0
    8.3543  -13.1036   15.6416 N   0  0  0  0  0  0  0  0  0  0  0  0
    8.8727  -14.7877   22.7112 C   0  0  0  0  0  0  0  0  0  0  0  0
    9.9562  -14.1939   22.7543 O   0  0  0  0  0  0  0  0  0  0  0  0
    5.5117  -12.4646   26.4387 C   0  0  0  0  0  0  0  0  0  0  0  0
    6.7264  -12.8458   25.6029 C   0  0  1  0  0  0  0  0  0  0  0  0
    7.7532  -11.7218   25.9028 C   0  0  0  0  0  0  0  0  0  0  0  0
    7.2952  -14.1669   26.0609 C   0  0  0  0  0  0  0  0  0  0  0  0
    8.4646  -14.6266   25.2010 C   0  0  2  0  0  0  0  0  0  0  0  0
    8.0991  -14.9799   23.8572 N   0  0  0  0  0  0  0  0  0  0  0  0
    9.3083  -15.6370   25.8296 C   0  0  0  0  0  0  0  0  0  0  0  0
    9.7418  -15.5014   27.0237 O   0  0  0  0  0  0  0  0  0  0  0  0
    9.7212  -16.8433   25.1903 N   0  0  0  0  0  0  0  0  0  0  0  0
   10.6074  -17.7922   25.7645 C   0  0  1  0  0  0  0  0  0  0  0  0
   10.3571  -19.2194   25.4343 C   0  0  0  0  0  0  0  0  0  0  0  0
    9.1255  -19.7749   26.0278 C   0  0  0  0  0  0  0  0  0  0  0  0
    8.9080  -19.6213   27.2458 O   0  0  0  0  0  0  0  0  0  0  0  0
   11.9953  -17.4563   25.2935 C   0  0  0  0  0  0  0  0  0  0  0  0
   13.0922  -18.1630   25.7678 O   0  0  0  0  0  0  0  0  0  0  0  0
    8.2130  -20.4601   25.2562 O   0  0  0  0  0  0  0  0  0  0  0  0
   12.2200  -16.5404   24.4670 O   0  0  0  0  0  0  0  0  0  0  0  0
  2  1  1  1
  3  2  1  0
  4  3  1  0
  5  4  1  0
  5  6  1  0
  7  6  1  0
  8  9  2  0
  8  2  1  0
 11 10  1  1
 11 12  1  0
 13 11  1  0
 14 13  1  1
 14 15  1  0
 15  8  1  0
 16 18  1  0
 16 14  1  0
 17 16  2  0
 19 18  1  0
 19 20  1  6
 20 21  1  0
 21 22  2  0
 23 19  1  0
 24 23  1  0
 25 21  1  0
 26 23  2  0
M  END
$$$$
