KLD.pdb
     RDKit          3D

 26 25  0  0  1  0  0  0  0  0999 V2000
    7.4660  -15.9618   20.7508 N   0  0  0  0  0  0  0  0  0  0  0  0
    8.6387  -15.1523   20.8681 C   0  0  1  0  0  0  0  0  0  0  0  0
    8.6175  -13.9442   19.9674 C   0  0  0  0  0  0  0  0  0  0  0  0
    8.0528  -14.3065   18.6157 C   0  0  0  0  0  0  0  0  0  0  0  0
    8.6024  -13.4320   17.5206 C   0  0  0  0  0  0  0  0  0  0  0  0
    8.0447  -13.8015   16.1629 C   0  0  0  0  0  0  0  0  0  0  0  0
    8.4659  -12.7322   15.2452 N   0  0  0  0  0  0  0  0  0  0  0  0
    8.8422  -14.6634   22.2729 C   0  0  0  0  0  0  0  0  0  0  0  0
    9.8063  -13.9087   22.4452 O   0  0  0  0  0  0  0  0  0  0  0  0
    8.0664  -12.0309   26.5614 C   0  0  0  0  0  0  0  0  0  0  0  0
    6.9979  -13.1117   26.4649 C   0  0  1  0  0  0  0  0  0  0  0  0
    5.6842  -12.3714   26.8311 C   0  0  0  0  0  0  0  0  0  0  0  0
    6.8921  -13.6320   25.0519 C   0  0  0  0  0  0  0  0  0  0  0  0
    8.0609  -14.5314   24.6737 C   0  0  2  0  0  0  0  0  0  0  0  0
    8.0038  -15.0295   23.3272 N   0  0  0  0  0  0  0  0  0  0  0  0
    8.3428  -15.5848   25.6426 C   0  0  0  0  0  0  0  0  0  0  0  0
    8.4244  -15.3414   26.8942 O   0  0  0  0  0  0  0  0  0  0  0  0
    8.5496  -16.9532   25.2976 N   0  0  0  0  0  0  0  0  0  0  0  0
    9.7187  -17.6926   25.6167 C   0  0  1  0  0  0  0  0  0  0  0  0
   10.8518  -17.5888   24.6607 C   0  0  0  0  0  0  0  0  0  0  0  0
   11.2689  -18.8746   24.0688 C   0  0  0  0  0  0  0  0  0  0  0  0
   10.7238  -19.9300   24.4476 O   0  0  0  0  0  0  0  0  0  0  0  0
   10.2092  -17.2071   26.9527 C   0  0  0  0  0  0  0  0  0  0  0  0
   10.4349  -18.1021   27.9897 O   0  0  0  0  0  0  0  0  0  0  0  0
   12.2512  -18.9260   23.1045 O   0  0  0  0  0  0  0  0  0  0  0  0
   10.4321  -15.9952   27.1855 O   0  0  0  0  0  0  0  0  0  0  0  0
  2  1  1  1
  3  2  1  0
  4  3  1  0
  5  4  1  0
  5  6  1  0
  7  6  1  0
  8  9  2  0
  8  2  1  0
 11 10  1  6
 11 12  1  0
 13 11  1  0
 14 13  1  1
 14 15  1  0
 15  8  1  0
 16 18  1  0
 16 14  1  0
 17 16  2  0
 19 18  1  0
 19 20  1  6
 20 21  1  0
 21 22  2  0
 23 19  1  0
 24 23  1  0
 25 21  1  0
 26 23  2  0
M  END
$$$$
