KLD.pdb
     RDKit          3D

 26 25  0  0  1  0  0  0  0  0999 V2000
    8.1401  -14.8852   20.5166 N   0  0  0  0  0  0  0  0  0  0  0  0
    7.5953  -15.4353   21.7188 C   0  0  1  0  0  0  0  0  0  0  0  0
    7.6831  -16.9387   21.7755 C   0  0  0  0  0  0  0  0  0  0  0  0
    7.0587  -17.5483   20.5443 C   0  0  0  0  0  0  0  0  0  0  0  0
    7.0527  -19.0526   20.5993 C   0  0  0  0  0  0  0  0  0  0  0  0
    6.3361  -19.6629   19.4140 C   0  0  0  0  0  0  0  0  0  0  0  0
    6.3785  -21.1187   19.6182 N   0  0  0  0  0  0  0  0  0  0  0  0
    8.2818  -14.8975   22.9408 C   0  0  0  0  0  0  0  0  0  0  0  0
    9.4957  -14.6914   22.8287 O   0  0  0  0  0  0  0  0  0  0  0  0
    5.2097  -11.9934   26.6084 C   0  0  0  0  0  0  0  0  0  0  0  0
    6.2739  -12.4926   25.6401 C   0  0  1  0  0  0  0  0  0  0  0  0
    7.1156  -11.2274   25.3261 C   0  0  0  0  0  0  0  0  0  0  0  0
    7.1586  -13.5200   26.3038 C   0  0  0  0  0  0  0  0  0  0  0  0
    8.1776  -14.1180   25.3436 C   0  0  2  0  0  0  0  0  0  0  0  0
    7.6048  -14.6416   24.1344 N   0  0  0  0  0  0  0  0  0  0  0  0
    9.1087  -15.0529   25.9656 C   0  0  0  0  0  0  0  0  0  0  0  0
    9.6645  -14.8001   27.0879 O   0  0  0  0  0  0  0  0  0  0  0  0
    9.4803  -16.3074   25.3977 N   0  0  0  0  0  0  0  0  0  0  0  0
   10.3120  -17.2627   26.0387 C   0  0  1  0  0  0  0  0  0  0  0  0
    9.8114  -18.6615   26.0745 C   0  0  0  0  0  0  0  0  0  0  0  0
   10.6645  -19.5944   26.8359 C   0  0  0  0  0  0  0  0  0  0  0  0
   11.2243  -20.5372   26.2426 O   0  0  0  0  0  0  0  0  0  0  0  0
   11.6294  -17.2730   25.3138 C   0  0  0  0  0  0  0  0  0  0  0  0
   12.8239  -17.2195   26.0192 O   0  0  0  0  0  0  0  0  0  0  0  0
   10.8513  -19.4388   28.1918 O   0  0  0  0  0  0  0  0  0  0  0  0
   11.7066  -17.3294   24.0634 O   0  0  0  0  0  0  0  0  0  0  0  0
  2  1  1  6
  3  2  1  0
  4  3  1  0
  5  4  1  0
  5  6  1  0
  7  6  1  0
  8  9  2  0
  8  2  1  0
 11 10  1  1
 11 12  1  0
 13 11  1  0
 14 13  1  1
 14 15  1  0
 15  8  1  0
 16 18  1  0
 16 14  1  0
 17 16  2  0
 19 18  1  0
 19 20  1  6
 20 21  1  0
 21 22  2  0
 23 19  1  0
 24 23  1  0
 25 21  1  0
 26 23  2  0
M  END
$$$$
