KLD.pdb
     RDKit          3D

 26 25  0  0  1  0  0  0  0  0999 V2000
    6.5120  -16.4277   21.4671 N   0  0  0  0  0  0  0  0  0  0  0  0
    7.9328  -16.3096   21.3577 C   0  0  1  0  0  0  0  0  0  0  0  0
    8.3679  -15.4225   20.2198 C   0  0  0  0  0  0  0  0  0  0  0  0
    7.9379  -16.0129   18.8992 C   0  0  0  0  0  0  0  0  0  0  0  0
    9.1140  -16.4178   18.0513 C   0  0  0  0  0  0  0  0  0  0  0  0
    8.6904  -16.8827   16.6747 C   0  0  0  0  0  0  0  0  0  0  0  0
    8.9321  -15.7488   15.7699 N   0  0  0  0  0  0  0  0  0  0  0  0
    8.5468  -15.7642   22.6144 C   0  0  0  0  0  0  0  0  0  0  0  0
    9.7609  -15.5357   22.5643 O   0  0  0  0  0  0  0  0  0  0  0  0
    5.7736  -12.5336   26.1495 C   0  0  0  0  0  0  0  0  0  0  0  0
    6.8590  -13.1832   25.3014 C   0  0  1  0  0  0  0  0  0  0  0  0
    7.9944  -12.1258   25.2747 C   0  0  0  0  0  0  0  0  0  0  0  0
    7.3720  -14.4393   25.9630 C   0  0  0  0  0  0  0  0  0  0  0  0
    8.3335  -15.2149   25.0730 C   0  0  2  0  0  0  0  0  0  0  0  0
    7.8059  -15.5254   23.7731 N   0  0  0  0  0  0  0  0  0  0  0  0
    8.9403  -16.3750   25.7162 C   0  0  0  0  0  0  0  0  0  0  0  0
    8.2413  -17.3758   26.0930 O   0  0  0  0  0  0  0  0  0  0  0  0
   10.3360  -16.5028   25.9809 N   0  0  0  0  0  0  0  0  0  0  0  0
   10.9355  -17.6349   26.5927 C   0  0  1  0  0  0  0  0  0  0  0  0
   12.3605  -17.8933   26.2591 C   0  0  0  0  0  0  0  0  0  0  0  0
   12.6763  -17.7974   24.8208 C   0  0  0  0  0  0  0  0  0  0  0  0
   11.9859  -18.4298   23.9975 O   0  0  0  0  0  0  0  0  0  0  0  0
   10.8480  -17.4427   28.0815 C   0  0  0  0  0  0  0  0  0  0  0  0
   11.2821  -18.4364   28.9484 O   0  0  0  0  0  0  0  0  0  0  0  0
   13.7221  -17.0198   24.3746 O   0  0  0  0  0  0  0  0  0  0  0  0
   10.3877  -16.3963   28.5969 O   0  0  0  0  0  0  0  0  0  0  0  0
  2  1  1  1
  3  2  1  0
  4  3  1  0
  5  4  1  0
  5  6  1  0
  7  6  1  0
  8  9  2  0
  8  2  1  0
 11 10  1  1
 11 12  1  0
 13 11  1  0
 14 13  1  1
 14 15  1  0
 15  8  1  0
 16 18  1  0
 16 14  1  0
 17 16  2  0
 19 18  1  0
 19 20  1  6
 20 21  1  0
 21 22  2  0
 23 19  1  0
 24 23  1  0
 25 21  1  0
 26 23  2  0
M  END
$$$$
