KLD.pdb
     RDKit          3D

 26 25  0  0  1  0  0  0  0  0999 V2000
    7.7970  -13.8539   20.2591 N   0  0  0  0  0  0  0  0  0  0  0  0
    7.4912  -14.9114   21.1717 C   0  0  1  0  0  0  0  0  0  0  0  0
    7.8901  -16.2710   20.6585 C   0  0  0  0  0  0  0  0  0  0  0  0
    7.0356  -16.6578   19.4763 C   0  0  0  0  0  0  0  0  0  0  0  0
    7.3641  -18.0362   18.9682 C   0  0  0  0  0  0  0  0  0  0  0  0
    6.5401  -18.4069   17.7539 C   0  0  0  0  0  0  0  0  0  0  0  0
    6.9408  -19.7750   17.3923 N   0  0  0  0  0  0  0  0  0  0  0  0
    8.1639  -14.7158   22.4995 C   0  0  0  0  0  0  0  0  0  0  0  0
    9.3908  -14.5673   22.4640 O   0  0  0  0  0  0  0  0  0  0  0  0
    5.3525  -12.4185   26.7404 C   0  0  0  0  0  0  0  0  0  0  0  0
    6.4614  -12.7726   25.7584 C   0  0  1  0  0  0  0  0  0  0  0  0
    7.5362  -11.6796   25.9993 C   0  0  0  0  0  0  0  0  0  0  0  0
    7.0513  -14.1232   26.0850 C   0  0  0  0  0  0  0  0  0  0  0  0
    8.0292  -14.6038   25.0216 C   0  0  2  0  0  0  0  0  0  0  0  0
    7.4610  -14.7004   23.7054 N   0  0  0  0  0  0  0  0  0  0  0  0
    8.7750  -15.8014   25.3924 C   0  0  0  0  0  0  0  0  0  0  0  0
    8.2008  -16.9345   25.5287 O   0  0  0  0  0  0  0  0  0  0  0  0
   10.1807  -15.8246   25.6328 N   0  0  0  0  0  0  0  0  0  0  0  0
   10.8985  -16.9643   26.0815 C   0  0  1  0  0  0  0  0  0  0  0  0
   12.3356  -17.0331   25.7089 C   0  0  0  0  0  0  0  0  0  0  0  0
   12.6036  -16.8165   24.2739 C   0  0  0  0  0  0  0  0  0  0  0  0
   12.0425  -17.5412   23.4287 O   0  0  0  0  0  0  0  0  0  0  0  0
   10.8199  -16.9849   27.5830 C   0  0  0  0  0  0  0  0  0  0  0  0
   11.4035  -18.0163   28.3064 O   0  0  0  0  0  0  0  0  0  0  0  0
   13.4642  -15.8260   23.8548 O   0  0  0  0  0  0  0  0  0  0  0  0
   10.2349  -16.0888   28.2365 O   0  0  0  0  0  0  0  0  0  0  0  0
  2  1  1  6
  3  2  1  0
  4  3  1  0
  5  4  1  0
  5  6  1  0
  7  6  1  0
  8  9  2  0
  8  2  1  0
 11 10  1  1
 11 12  1  0
 13 11  1  0
 14 13  1  1
 14 15  1  0
 15  8  1  0
 16 18  1  0
 16 14  1  0
 17 16  2  0
 19 18  1  0
 19 20  1  1
 20 21  1  0
 21 22  2  0
 23 19  1  0
 24 23  1  0
 25 21  1  0
 26 23  2  0
M  END
$$$$
