KLD.pdb
     RDKit          3D

 26 25  0  0  1  0  0  0  0  0999 V2000
    7.2663  -15.8618   21.6243 N   0  0  0  0  0  0  0  0  0  0  0  0
    8.5400  -15.2131   21.5845 C   0  0  1  0  0  0  0  0  0  0  0  0
    8.5530  -13.9862   20.7095 C   0  0  0  0  0  0  0  0  0  0  0  0
    8.1308  -14.3385   19.3042 C   0  0  0  0  0  0  0  0  0  0  0  0
    8.3316  -13.1922   18.3494 C   0  0  0  0  0  0  0  0  0  0  0  0
    7.8964  -13.5402   16.9422 C   0  0  0  0  0  0  0  0  0  0  0  0
    7.9648  -12.2882   16.1736 N   0  0  0  0  0  0  0  0  0  0  0  0
    8.9979  -14.7962   22.9520 C   0  0  0  0  0  0  0  0  0  0  0  0
   10.1458  -14.3417   23.0193 O   0  0  0  0  0  0  0  0  0  0  0  0
    5.4820  -12.4378   26.4455 C   0  0  0  0  0  0  0  0  0  0  0  0
    6.6990  -12.8533   25.6297 C   0  0  1  0  0  0  0  0  0  0  0  0
    7.6371  -11.6195   25.7042 C   0  0  0  0  0  0  0  0  0  0  0  0
    7.3891  -14.0353   26.2662 C   0  0  0  0  0  0  0  0  0  0  0  0
    8.5509  -14.5515   25.4284 C   0  0  2  0  0  0  0  0  0  0  0  0
    8.1895  -14.9089   24.0845 N   0  0  0  0  0  0  0  0  0  0  0  0
    9.3467  -15.5849   26.0816 C   0  0  0  0  0  0  0  0  0  0  0  0
    9.7415  -15.4643   27.2906 O   0  0  0  0  0  0  0  0  0  0  0  0
    9.7514  -16.7990   25.4519 N   0  0  0  0  0  0  0  0  0  0  0  0
   10.4103  -17.8661   26.1171 C   0  0  1  0  0  0  0  0  0  0  0  0
    9.6865  -19.1630   26.1711 C   0  0  0  0  0  0  0  0  0  0  0  0
   10.4219  -20.2427   26.8576 C   0  0  0  0  0  0  0  0  0  0  0  0
   11.4193  -19.9612   27.5507 O   0  0  0  0  0  0  0  0  0  0  0  0
   11.7133  -18.1055   25.4057 C   0  0  0  0  0  0  0  0  0  0  0  0
   12.0277  -17.4002   24.2519 O   0  0  0  0  0  0  0  0  0  0  0  0
   10.0227  -21.5561   26.7440 O   0  0  0  0  0  0  0  0  0  0  0  0
   12.5582  -18.9368   25.8149 O   0  0  0  0  0  0  0  0  0  0  0  0
  2  1  1  1
  3  2  1  0
  4  3  1  0
  5  4  1  0
  5  6  1  0
  7  6  1  0
  8  9  2  0
  8  2  1  0
 11 10  1  1
 11 12  1  0
 13 11  1  0
 14 13  1  1
 14 15  1  0
 15  8  1  0
 16 18  1  0
 16 14  1  0
 17 16  2  0
 19 18  1  0
 19 20  1  6
 20 21  1  0
 21 22  2  0
 23 19  1  0
 24 23  1  0
 25 21  1  0
 26 23  2  0
M  END
$$$$
