KLD.pdb
     RDKit          3D

 26 25  0  0  1  0  0  0  0  0999 V2000
    8.6622  -14.6051   20.5213 N   0  0  0  0  0  0  0  0  0  0  0  0
    8.2778  -15.4770   21.5874 C   0  0  1  0  0  0  0  0  0  0  0  0
    8.7751  -16.8882   21.4075 C   0  0  0  0  0  0  0  0  0  0  0  0
    7.6148  -17.8333   21.2131 C   0  0  0  0  0  0  0  0  0  0  0  0
    8.0662  -19.2635   21.0838 C   0  0  0  0  0  0  0  0  0  0  0  0
    6.9206  -20.1942   20.7490 C   0  0  0  0  0  0  0  0  0  0  0  0
    7.4834  -21.5529   20.7601 N   0  0  0  0  0  0  0  0  0  0  0  0
    8.7777  -14.9891   22.9163 C   0  0  0  0  0  0  0  0  0  0  0  0
    9.9792  -14.7020   22.9664 O   0  0  0  0  0  0  0  0  0  0  0  0
    5.5053  -12.1347   26.4791 C   0  0  0  0  0  0  0  0  0  0  0  0
    6.6833  -12.6246   25.6474 C   0  0  1  0  0  0  0  0  0  0  0  0
    7.7449  -11.5043   25.8079 C   0  0  0  0  0  0  0  0  0  0  0  0
    7.2361  -13.9108   26.2120 C   0  0  0  0  0  0  0  0  0  0  0  0
    8.3576  -14.4867   25.3583 C   0  0  2  0  0  0  0  0  0  0  0  0
    7.9495  -14.8629   24.0330 N   0  0  0  0  0  0  0  0  0  0  0  0
    9.1341  -15.5315   26.0164 C   0  0  0  0  0  0  0  0  0  0  0  0
    9.5553  -15.4003   27.2154 O   0  0  0  0  0  0  0  0  0  0  0  0
    9.4900  -16.7689   25.4029 N   0  0  0  0  0  0  0  0  0  0  0  0
   10.2537  -17.7860   26.0335 C   0  0  1  0  0  0  0  0  0  0  0  0
    9.8570  -19.1891   25.7462 C   0  0  0  0  0  0  0  0  0  0  0  0
   10.6815  -20.2065   26.4264 C   0  0  0  0  0  0  0  0  0  0  0  0
   11.6045  -19.8434   27.1818 O   0  0  0  0  0  0  0  0  0  0  0  0
   11.6806  -17.6201   25.5891 C   0  0  0  0  0  0  0  0  0  0  0  0
   12.0042  -16.7350   24.5697 O   0  0  0  0  0  0  0  0  0  0  0  0
   10.4466  -21.5508   26.2391 O   0  0  0  0  0  0  0  0  0  0  0  0
   12.6242  -18.2616   26.1094 O   0  0  0  0  0  0  0  0  0  0  0  0
  2  1  1  6
  3  2  1  0
  4  3  1  0
  5  4  1  0
  5  6  1  0
  7  6  1  0
  8  9  2  0
  8  2  1  0
 11 10  1  1
 11 12  1  0
 13 11  1  0
 14 13  1  1
 14 15  1  0
 15  8  1  0
 16 18  1  0
 16 14  1  0
 17 16  2  0
 19 18  1  0
 19 20  1  6
 20 21  1  0
 21 22  2  0
 23 19  1  0
 24 23  1  0
 25 21  1  0
 26 23  2  0
M  END
$$$$
