GFM.pdb
     RDKit          3D

 24 24  0  0  1  0  0  0  0  0999 V2000
   28.9469  -19.4955  -15.2426 N   0  0  0  0  0  0  0  0  0  0  0  0
   28.4822  -19.4149  -13.8893 C   0  0  0  0  0  0  0  0  0  0  0  0
   27.4154  -20.3984  -13.5841 C   0  0  0  0  0  0  0  0  0  0  0  0
   26.8578  -21.1189  -14.4399 O   0  0  0  0  0  0  0  0  0  0  0  0
   26.9988  -20.5320  -12.2330 N   0  0  0  0  0  0  0  0  0  0  0  0
   25.9609  -21.4627  -11.8244 C   0  0  1  0  0  0  0  0  0  0  0  0
   26.4527  -22.0843  -10.5433 C   0  0  0  0  0  0  0  0  0  0  0  0
   26.9233  -21.1314   -9.5292 C   0  0  0  0  0  0  0  0  0  0  0  0
   26.1281  -20.1342   -9.0110 C   0  0  0  0  0  0  0  0  0  0  0  0
   26.5874  -19.2490   -8.0459 C   0  0  0  0  0  0  0  0  0  0  0  0
   27.8763  -19.3363   -7.5630 C   0  0  0  0  0  0  0  0  0  0  0  0
   28.6808  -20.3324   -8.0768 C   0  0  0  0  0  0  0  0  0  0  0  0
   28.2230  -21.2115   -9.0359 C   0  0  0  0  0  0  0  0  0  0  0  0
   24.7420  -20.6887  -11.5216 C   0  0  0  0  0  0  0  0  0  0  0  0
   24.7671  -19.5319  -11.0188 O   0  0  0  0  0  0  0  0  0  0  0  0
   23.1266  -19.7970  -16.7621 C   0  0  0  0  0  0  0  0  0  0  0  0
   21.4051  -20.1061  -16.2778 S   0  0  0  0  0  0  0  0  0  0  0  0
   21.2168  -19.8866  -14.4659 C   0  0  0  0  0  0  0  0  0  0  0  0
   22.3519  -20.6011  -13.8061 C   0  0  0  0  0  0  0  0  0  0  0  0
   22.3573  -20.4742  -12.2985 C   0  0  2  0  0  0  0  0  0  0  0  0
   23.4789  -21.2576  -11.8022 N   0  0  0  0  0  0  0  0  0  0  0  0
   21.1212  -21.0919  -11.7575 C   0  0  0  0  0  0  0  0  0  0  0  0
   20.0025  -20.2759  -11.5079 O   0  0  0  0  0  0  0  0  0  0  0  0
   21.0376  -22.3267  -11.5127 O   0  0  0  0  0  0  0  0  0  0  0  0
  1  2  1  0
  3  2  1  0
  3  4  2  0
  5  3  1  0
  6  5  1  0
  6 14  1  0
  6  7  1  1
  8 13  2  0
  8  7  1  0
  9  8  1  0
 10  9  2  0
 10 11  1  0
 11 12  2  0
 12 13  1  0
 14 21  1  0
 14 15  2  0
 17 16  1  0
 18 17  1  0
 18 19  1  0
 20 19  1  6
 20 22  1  0
 21 20  1  0
 22 24  2  0
 22 23  1  0
M  END
$$$$
