GFM.pdb
     RDKit          3D

 24 24  0  0  1  0  0  0  0  0999 V2000
   26.7404  -23.5008  -16.8127 N   0  0  0  0  0  0  0  0  0  0  0  0
   27.0511  -22.3551  -16.0098 C   0  0  0  0  0  0  0  0  0  0  0  0
   26.4350  -22.4085  -14.6621 C   0  0  0  0  0  0  0  0  0  0  0  0
   25.5785  -23.2496  -14.3135 O   0  0  0  0  0  0  0  0  0  0  0  0
   26.8428  -21.4427  -13.7041 N   0  0  0  0  0  0  0  0  0  0  0  0
   26.2155  -21.3241  -12.3992 C   0  0  1  0  0  0  0  0  0  0  0  0
   27.2033  -20.5803  -11.5386 C   0  0  0  0  0  0  0  0  0  0  0  0
   26.7606  -20.3240  -10.1617 C   0  0  0  0  0  0  0  0  0  0  0  0
   25.8786  -19.3195   -9.8324 C   0  0  0  0  0  0  0  0  0  0  0  0
   25.4640  -19.0986   -8.5265 C   0  0  0  0  0  0  0  0  0  0  0  0
   25.9269  -19.8883   -7.4949 C   0  0  0  0  0  0  0  0  0  0  0  0
   26.8114  -20.8974   -7.8154 C   0  0  0  0  0  0  0  0  0  0  0  0
   27.2226  -21.1158   -9.1136 C   0  0  0  0  0  0  0  0  0  0  0  0
   25.0092  -20.4870  -12.5429 C   0  0  0  0  0  0  0  0  0  0  0  0
   25.0334  -19.3190  -13.0189 O   0  0  0  0  0  0  0  0  0  0  0  0
   21.5419  -21.0644  -16.6637 C   0  0  0  0  0  0  0  0  0  0  0  0
   20.0887  -20.7826  -15.6138 S   0  0  0  0  0  0  0  0  0  0  0  0
   20.6142  -20.1277  -13.9824 C   0  0  0  0  0  0  0  0  0  0  0  0
   21.9356  -20.7446  -13.6547 C   0  0  0  0  0  0  0  0  0  0  0  0
   22.5088  -20.2889  -12.3308 C   0  0  2  0  0  0  0  0  0  0  0  0
   23.7600  -21.0048  -12.1314 N   0  0  0  0  0  0  0  0  0  0  0  0
   21.5918  -20.7022  -11.2396 C   0  0  0  0  0  0  0  0  0  0  0  0
   20.4610  -19.9124  -10.9618 O   0  0  0  0  0  0  0  0  0  0  0  0
   21.7909  -21.7398  -10.5503 O   0  0  0  0  0  0  0  0  0  0  0  0
  1  2  1  0
  3  2  1  0
  3  4  2  0
  5  3  1  0
  6  5  1  0
  6 14  1  0
  6  7  1  1
  8 13  2  0
  8  7  1  0
  9  8  1  0
 10  9  2  0
 10 11  1  0
 11 12  2  0
 12 13  1  0
 14 21  1  0
 14 15  2  0
 17 16  1  0
 18 17  1  0
 18 19  1  0
 20 19  1  6
 20 22  1  0
 21 20  1  0
 22 24  2  0
 22 23  1  0
M  END
$$$$
