GFM.pdb
     RDKit          3D

 24 24  0  0  1  0  0  0  0  0999 V2000
   27.2115  -24.2341  -16.6093 N   0  0  0  0  0  0  0  0  0  0  0  0
   26.8474  -22.9180  -16.1746 C   0  0  0  0  0  0  0  0  0  0  0  0
   25.8593  -22.9262  -15.0691 C   0  0  0  0  0  0  0  0  0  0  0  0
   25.2741  -23.9509  -14.6569 O   0  0  0  0  0  0  0  0  0  0  0  0
   25.5569  -21.6912  -14.4363 N   0  0  0  0  0  0  0  0  0  0  0  0
   24.5945  -21.5838  -13.3535 C   0  0  1  0  0  0  0  0  0  0  0  0
   25.1158  -20.4954  -12.4518 C   0  0  0  0  0  0  0  0  0  0  0  0
   24.3703  -20.3140  -11.1992 C   0  0  0  0  0  0  0  0  0  0  0  0
   24.8529  -20.7166   -9.9743 C   0  0  0  0  0  0  0  0  0  0  0  0
   24.1381  -20.5278   -8.7998 C   0  0  0  0  0  0  0  0  0  0  0  0
   22.8996  -19.9213   -8.8160 C   0  0  0  0  0  0  0  0  0  0  0  0
   22.4076  -19.5148  -10.0391 C   0  0  0  0  0  0  0  0  0  0  0  0
   23.1191  -19.7029  -11.2056 C   0  0  0  0  0  0  0  0  0  0  0  0
   23.3099  -21.1336  -13.9226 C   0  0  0  0  0  0  0  0  0  0  0  0
   23.2075  -20.1381  -14.6908 O   0  0  0  0  0  0  0  0  0  0  0  0
   19.9413  -24.8442  -16.8494 C   0  0  0  0  0  0  0  0  0  0  0  0
   18.4404  -23.9525  -16.3536 S   0  0  0  0  0  0  0  0  0  0  0  0
   18.8916  -22.4559  -15.3927 C   0  0  0  0  0  0  0  0  0  0  0  0
   20.2935  -22.6388  -14.9076 C   0  0  0  0  0  0  0  0  0  0  0  0
   20.8218  -21.4632  -14.1152 C   0  0  2  0  0  0  0  0  0  0  0  0
   22.1295  -21.8410  -13.6002 N   0  0  0  0  0  0  0  0  0  0  0  0
   19.9409  -21.2359  -12.9428 C   0  0  0  0  0  0  0  0  0  0  0  0
   20.2049  -21.9267  -11.7458 O   0  0  0  0  0  0  0  0  0  0  0  0
   18.9606  -20.4428  -12.9816 O   0  0  0  0  0  0  0  0  0  0  0  0
  1  2  1  0
  3  2  1  0
  3  4  2  0
  5  3  1  0
  6  5  1  0
  6 14  1  0
  6  7  1  1
  8 13  2  0
  8  7  1  0
  9  8  1  0
 10  9  2  0
 10 11  1  0
 11 12  2  0
 12 13  1  0
 14 21  1  0
 14 15  2  0
 17 16  1  0
 18 17  1  0
 18 19  1  0
 20 19  1  6
 20 22  1  0
 21 20  1  0
 22 24  2  0
 22 23  1  0
M  END
$$$$
