GFM.pdb
     RDKit          3D

 24 24  0  0  1  0  0  0  0  0999 V2000
   27.4410  -23.4621  -17.7467 N   0  0  0  0  0  0  0  0  0  0  0  0
   27.4204  -22.2849  -16.9296 C   0  0  0  0  0  0  0  0  0  0  0  0
   26.6128  -22.4499  -15.6971 C   0  0  0  0  0  0  0  0  0  0  0  0
   25.9673  -23.4818  -15.4124 O   0  0  0  0  0  0  0  0  0  0  0  0
   26.5683  -21.3668  -14.7795 N   0  0  0  0  0  0  0  0  0  0  0  0
   25.8432  -21.4376  -13.5227 C   0  0  1  0  0  0  0  0  0  0  0  0
   26.6510  -20.6301  -12.5405 C   0  0  0  0  0  0  0  0  0  0  0  0
   26.1284  -20.6149  -11.1678 C   0  0  0  0  0  0  0  0  0  0  0  0
   26.6699  -21.3687  -10.1509 C   0  0  0  0  0  0  0  0  0  0  0  0
   26.1685  -21.3339   -8.8573 C   0  0  0  0  0  0  0  0  0  0  0  0
   25.0933  -20.5315   -8.5375 C   0  0  0  0  0  0  0  0  0  0  0  0
   24.5438  -19.7727   -9.5502 C   0  0  0  0  0  0  0  0  0  0  0  0
   25.0432  -19.8082  -10.8354 C   0  0  0  0  0  0  0  0  0  0  0  0
   24.5402  -20.7703  -13.7050 C   0  0  0  0  0  0  0  0  0  0  0  0
   24.4175  -19.6290  -14.2285 O   0  0  0  0  0  0  0  0  0  0  0  0
   22.1287  -21.6823  -18.6974 C   0  0  0  0  0  0  0  0  0  0  0  0
   21.7964  -22.3793  -17.0550 S   0  0  0  0  0  0  0  0  0  0  0  0
   21.4193  -21.0312  -15.8689 C   0  0  0  0  0  0  0  0  0  0  0  0
   21.3263  -21.6426  -14.5082 C   0  0  0  0  0  0  0  0  0  0  0  0
   22.0388  -20.8497  -13.4344 C   0  0  2  0  0  0  0  0  0  0  0  0
   23.3648  -21.4285  -13.2770 N   0  0  0  0  0  0  0  0  0  0  0  0
   21.3271  -21.0343  -12.1454 C   0  0  0  0  0  0  0  0  0  0  0  0
   20.1095  -20.3615  -11.9349 O   0  0  0  0  0  0  0  0  0  0  0  0
   21.7766  -21.7756  -11.2288 O   0  0  0  0  0  0  0  0  0  0  0  0
  1  2  1  0
  3  2  1  0
  3  4  2  0
  5  3  1  0
  6  5  1  0
  6 14  1  0
  6  7  1  1
  8 13  2  0
  8  7  1  0
  9  8  1  0
 10  9  2  0
 10 11  1  0
 11 12  2  0
 12 13  1  0
 14 21  1  0
 14 15  2  0
 17 16  1  0
 18 17  1  0
 18 19  1  0
 20 19  1  6
 20 22  1  0
 21 20  1  0
 22 24  2  0
 22 23  1  0
M  END
$$$$
