GFM.pdb
     RDKit          3D

 24 24  0  0  1  0  0  0  0  0999 V2000
   25.9834  -21.9638  -13.4633 N   0  0  0  0  0  0  0  0  0  0  0  0
   26.1151  -20.8397  -12.5842 C   0  0  0  0  0  0  0  0  0  0  0  0
   26.1809  -21.2274  -11.1546 C   0  0  0  0  0  0  0  0  0  0  0  0
   25.9249  -22.3728  -10.7244 O   0  0  0  0  0  0  0  0  0  0  0  0
   26.5590  -20.2350  -10.2115 N   0  0  0  0  0  0  0  0  0  0  0  0
   26.6710  -20.5115   -8.7898 C   0  0  1  0  0  0  0  0  0  0  0  0
   27.6637  -19.5111   -8.2575 C   0  0  0  0  0  0  0  0  0  0  0  0
   27.9958  -19.6600   -6.8344 C   0  0  0  0  0  0  0  0  0  0  0  0
   27.4539  -18.8638   -5.8507 C   0  0  0  0  0  0  0  0  0  0  0  0
   27.7723  -19.0258   -4.5096 C   0  0  0  0  0  0  0  0  0  0  0  0
   28.6565  -20.0045   -4.1065 C   0  0  0  0  0  0  0  0  0  0  0  0
   29.2050  -20.8071   -5.0855 C   0  0  0  0  0  0  0  0  0  0  0  0
   28.8875  -20.6450   -6.4178 C   0  0  0  0  0  0  0  0  0  0  0  0
   25.3632  -20.2393   -8.1637 C   0  0  0  0  0  0  0  0  0  0  0  0
   24.6886  -19.1999   -8.4004 O   0  0  0  0  0  0  0  0  0  0  0  0
   21.0942  -24.8098   -7.4031 C   0  0  0  0  0  0  0  0  0  0  0  0
   20.2037  -23.2293   -7.4537 S   0  0  0  0  0  0  0  0  0  0  0  0
   21.2011  -21.9239   -6.6367 C   0  0  0  0  0  0  0  0  0  0  0  0
   22.5688  -21.9603   -7.2384 C   0  0  0  0  0  0  0  0  0  0  0  0
   23.5412  -20.9935   -6.5990 C   0  0  2  0  0  0  0  0  0  0  0  0
   24.8283  -21.1784   -7.2527 N   0  0  0  0  0  0  0  0  0  0  0  0
   23.7203  -21.3613   -5.1725 C   0  0  0  0  0  0  0  0  0  0  0  0
   24.7573  -22.2443   -4.8198 O   0  0  0  0  0  0  0  0  0  0  0  0
   22.9734  -20.9087   -4.2622 O   0  0  0  0  0  0  0  0  0  0  0  0
  1  2  1  0
  3  2  1  0
  3  4  2  0
  5  3  1  0
  6  5  1  0
  6 14  1  0
  6  7  1  1
  8 13  2  0
  8  7  1  0
  9  8  1  0
 10  9  2  0
 10 11  1  0
 11 12  2  0
 12 13  1  0
 14 21  1  0
 14 15  2  0
 17 16  1  0
 18 17  1  0
 18 19  1  0
 20 19  1  6
 20 22  1  0
 21 20  1  0
 22 24  2  0
 22 23  1  0
M  END
$$$$
