GFM.pdb
     RDKit          3D

 24 24  0  0  1  0  0  0  0  0999 V2000
   18.5577  -11.2369  -16.1608 N   0  0  0  0  0  0  0  0  0  0  0  0
   17.7351  -10.2335  -15.5523 C   0  0  0  0  0  0  0  0  0  0  0  0
   18.0858   -9.9793  -14.1342 C   0  0  0  0  0  0  0  0  0  0  0  0
   18.1192  -10.8616  -13.2493 O   0  0  0  0  0  0  0  0  0  0  0  0
   18.4047   -8.6484  -13.7547 N   0  0  0  0  0  0  0  0  0  0  0  0
   18.7037   -8.2783  -12.3821 C   0  0  1  0  0  0  0  0  0  0  0  0
   19.9765   -7.4749  -12.4450 C   0  0  0  0  0  0  0  0  0  0  0  0
   21.1502   -8.2054  -12.9415 C   0  0  0  0  0  0  0  0  0  0  0  0
   21.6668   -8.0245  -14.2048 C   0  0  0  0  0  0  0  0  0  0  0  0
   22.7829   -8.7168  -14.6531 C   0  0  0  0  0  0  0  0  0  0  0  0
   23.4254   -9.6252  -13.8381 C   0  0  0  0  0  0  0  0  0  0  0  0
   22.9146   -9.8134  -12.5705 C   0  0  0  0  0  0  0  0  0  0  0  0
   21.8054   -9.1246  -12.1263 C   0  0  0  0  0  0  0  0  0  0  0  0
   17.6257   -7.3948  -11.8984 C   0  0  0  0  0  0  0  0  0  0  0  0
   17.0747   -6.5202  -12.6216 O   0  0  0  0  0  0  0  0  0  0  0  0
   11.5798   -7.5708   -6.9707 C   0  0  0  0  0  0  0  0  0  0  0  0
   12.9761   -8.3240   -7.8520 S   0  0  0  0  0  0  0  0  0  0  0  0
   14.0327   -7.0144   -8.5836 C   0  0  0  0  0  0  0  0  0  0  0  0
   15.1539   -7.6914   -9.3038 C   0  0  0  0  0  0  0  0  0  0  0  0
   16.0796   -6.7360  -10.0245 C   0  0  2  0  0  0  0  0  0  0  0  0
   17.1791   -7.5225  -10.5635 N   0  0  0  0  0  0  0  0  0  0  0  0
   16.6617   -5.7917   -9.0387 C   0  0  0  0  0  0  0  0  0  0  0  0
   17.9979   -5.9650   -8.6334 O   0  0  0  0  0  0  0  0  0  0  0  0
   15.9988   -4.8362   -8.5497 O   0  0  0  0  0  0  0  0  0  0  0  0
  1  2  1  0
  3  2  1  0
  3  4  2  0
  5  3  1  0
  6  5  1  0
  6 14  1  0
  6  7  1  6
  8 13  2  0
  8  7  1  0
  9  8  1  0
 10  9  2  0
 10 11  1  0
 11 12  2  0
 12 13  1  0
 14 21  1  0
 14 15  2  0
 17 16  1  0
 18 17  1  0
 18 19  1  0
 20 19  1  1
 20 22  1  0
 21 20  1  0
 22 24  2  0
 22 23  1  0
M  END
$$$$
