GFM.pdb
     RDKit          3D

 24 24  0  0  1  0  0  0  0  0999 V2000
   24.3741  -17.6467  -17.9752 N   0  0  0  0  0  0  0  0  0  0  0  0
   25.3414  -17.5186  -16.9256 C   0  0  0  0  0  0  0  0  0  0  0  0
   25.4540  -18.7385  -16.0902 C   0  0  0  0  0  0  0  0  0  0  0  0
   24.6869  -19.7219  -16.1750 O   0  0  0  0  0  0  0  0  0  0  0  0
   26.5002  -18.7955  -15.1314 N   0  0  0  0  0  0  0  0  0  0  0  0
   26.7130  -19.9500  -14.2758 C   0  0  1  0  0  0  0  0  0  0  0  0
   28.1890  -20.2430  -14.3470 C   0  0  0  0  0  0  0  0  0  0  0  0
   28.6231  -20.9659  -15.5497 C   0  0  0  0  0  0  0  0  0  0  0  0
   28.5488  -22.3354  -15.6693 C   0  0  0  0  0  0  0  0  0  0  0  0
   28.9548  -23.0003  -16.8178 C   0  0  0  0  0  0  0  0  0  0  0  0
   29.4554  -22.3039  -17.8978 C   0  0  0  0  0  0  0  0  0  0  0  0
   29.5340  -20.9310  -17.7871 C   0  0  0  0  0  0  0  0  0  0  0  0
   29.1300  -20.2715  -16.6451 C   0  0  0  0  0  0  0  0  0  0  0  0
   26.3876  -19.5619  -12.8901 C   0  0  0  0  0  0  0  0  0  0  0  0
   26.8153  -18.5041  -12.3520 O   0  0  0  0  0  0  0  0  0  0  0  0
   20.7523  -20.7090  -11.1333 C   0  0  0  0  0  0  0  0  0  0  0  0
   21.1777  -19.7137   -9.6766 S   0  0  0  0  0  0  0  0  0  0  0  0
   23.0003  -19.6467   -9.4762 C   0  0  0  0  0  0  0  0  0  0  0  0
   23.6104  -19.9591  -10.8045 C   0  0  0  0  0  0  0  0  0  0  0  0
   25.1198  -20.0588  -10.7730 C   0  0  2  0  0  0  0  0  0  0  0  0
   25.5588  -20.4059  -12.1164 N   0  0  0  0  0  0  0  0  0  0  0  0
   25.5112  -21.1802   -9.8833 C   0  0  0  0  0  0  0  0  0  0  0  0
   25.4926  -20.9853   -8.4900 O   0  0  0  0  0  0  0  0  0  0  0  0
   25.8610  -22.3056  -10.3336 O   0  0  0  0  0  0  0  0  0  0  0  0
  1  2  1  0
  3  2  1  0
  3  4  2  0
  5  3  1  0
  6  5  1  0
  6 14  1  0
  6  7  1  1
  8 13  2  0
  8  7  1  0
  9  8  1  0
 10  9  2  0
 10 11  1  0
 11 12  2  0
 12 13  1  0
 14 21  1  0
 14 15  2  0
 17 16  1  0
 18 17  1  0
 18 19  1  0
 20 19  1  6
 20 22  1  0
 21 20  1  0
 22 24  2  0
 22 23  1  0
M  END
$$$$
