GFM.pdb
     RDKit          3D

 24 24  0  0  1  0  0  0  0  0999 V2000
   27.7947  -17.9276  -13.9328 N   0  0  0  0  0  0  0  0  0  0  0  0
   28.3093  -19.2509  -14.1277 C   0  0  0  0  0  0  0  0  0  0  0  0
   27.4749  -20.2964  -13.4880 C   0  0  0  0  0  0  0  0  0  0  0  0
   27.5121  -21.5085  -13.7912 O   0  0  0  0  0  0  0  0  0  0  0  0
   26.5747  -19.8971  -12.4646 N   0  0  0  0  0  0  0  0  0  0  0  0
   25.6927  -20.8347  -11.7912 C   0  0  1  0  0  0  0  0  0  0  0  0
   25.5369  -20.3106  -10.3874 C   0  0  0  0  0  0  0  0  0  0  0  0
   26.6451  -20.6287   -9.4773 C   0  0  0  0  0  0  0  0  0  0  0  0
   27.6545  -21.5064   -9.8029 C   0  0  0  0  0  0  0  0  0  0  0  0
   28.6992  -21.7871   -8.9335 C   0  0  0  0  0  0  0  0  0  0  0  0
   28.7659  -21.1888   -7.6926 C   0  0  0  0  0  0  0  0  0  0  0  0
   27.7585  -20.3079   -7.3574 C   0  0  0  0  0  0  0  0  0  0  0  0
   26.7210  -20.0298   -8.2225 C   0  0  0  0  0  0  0  0  0  0  0  0
   24.3742  -20.7812  -12.4510 C   0  0  0  0  0  0  0  0  0  0  0  0
   23.8474  -19.7076  -12.8527 O   0  0  0  0  0  0  0  0  0  0  0  0
   22.5403  -25.7777  -16.1308 C   0  0  0  0  0  0  0  0  0  0  0  0
   21.0136  -25.4730  -15.1981 S   0  0  0  0  0  0  0  0  0  0  0  0
   20.9787  -23.7363  -14.6071 C   0  0  0  0  0  0  0  0  0  0  0  0
   22.2638  -23.4802  -13.8880 C   0  0  0  0  0  0  0  0  0  0  0  0
   22.4346  -22.0456  -13.4386 C   0  0  2  0  0  0  0  0  0  0  0  0
   23.6552  -21.9820  -12.6486 N   0  0  0  0  0  0  0  0  0  0  0  0
   21.3126  -21.6853  -12.5366 C   0  0  0  0  0  0  0  0  0  0  0  0
   20.0960  -21.2554  -13.0978 O   0  0  0  0  0  0  0  0  0  0  0  0
   21.4113  -21.7511  -11.2806 O   0  0  0  0  0  0  0  0  0  0  0  0
  1  2  1  0
  3  2  1  0
  3  4  2  0
  5  3  1  0
  6  5  1  0
  6 14  1  0
  6  7  1  1
  8 13  2  0
  8  7  1  0
  9  8  1  0
 10  9  2  0
 10 11  1  0
 11 12  2  0
 12 13  1  0
 14 21  1  0
 14 15  2  0
 17 16  1  0
 18 17  1  0
 18 19  1  0
 20 19  1  1
 20 22  1  0
 21 20  1  0
 22 24  2  0
 22 23  1  0
M  END
$$$$
