GFM.pdb
     RDKit          3D

 24 24  0  0  1  0  0  0  0  0999 V2000
   29.5171  -21.4291  -14.0797 N   0  0  0  0  0  0  0  0  0  0  0  0
   28.7224  -20.4601  -13.3846 C   0  0  0  0  0  0  0  0  0  0  0  0
   27.5471  -21.0557  -12.7045 C   0  0  0  0  0  0  0  0  0  0  0  0
   27.1215  -22.2112  -12.9193 O   0  0  0  0  0  0  0  0  0  0  0  0
   26.8590  -20.2639  -11.7470 N   0  0  0  0  0  0  0  0  0  0  0  0
   25.6753  -20.7357  -11.0495 C   0  0  1  0  0  0  0  0  0  0  0  0
   25.5820  -19.9037   -9.7971 C   0  0  0  0  0  0  0  0  0  0  0  0
   26.6632  -20.1166   -8.8259 C   0  0  0  0  0  0  0  0  0  0  0  0
   27.0519  -19.1604   -7.9150 C   0  0  0  0  0  0  0  0  0  0  0  0
   28.0695  -19.3833   -6.9979 C   0  0  0  0  0  0  0  0  0  0  0  0
   28.7391  -20.5886   -6.9647 C   0  0  0  0  0  0  0  0  0  0  0  0
   28.3566  -21.5529   -7.8741 C   0  0  0  0  0  0  0  0  0  0  0  0
   27.3451  -21.3300   -8.7848 C   0  0  0  0  0  0  0  0  0  0  0  0
   24.4982  -20.4385  -11.8878 C   0  0  0  0  0  0  0  0  0  0  0  0
   24.3707  -19.3676  -12.5423 O   0  0  0  0  0  0  0  0  0  0  0  0
   22.4525  -25.4330  -14.5249 C   0  0  0  0  0  0  0  0  0  0  0  0
   21.3082  -24.3711  -15.4504 S   0  0  0  0  0  0  0  0  0  0  0  0
   21.1931  -22.7262  -14.6457 C   0  0  0  0  0  0  0  0  0  0  0  0
   22.3582  -22.5967  -13.7184 C   0  0  0  0  0  0  0  0  0  0  0  0
   22.3820  -21.2944  -12.9487 C   0  0  2  0  0  0  0  0  0  0  0  0
   23.4555  -21.3893  -11.9707 N   0  0  0  0  0  0  0  0  0  0  0  0
   21.1133  -21.1580  -12.1911 C   0  0  0  0  0  0  0  0  0  0  0  0
   19.9614  -20.7091  -12.8628 O   0  0  0  0  0  0  0  0  0  0  0  0
   21.0308  -21.4312  -10.9622 O   0  0  0  0  0  0  0  0  0  0  0  0
  1  2  1  0
  3  2  1  0
  3  4  2  0
  5  3  1  0
  6  5  1  0
  6 14  1  0
  6  7  1  1
  8 13  2  0
  8  7  1  0
  9  8  1  0
 10  9  2  0
 10 11  1  0
 11 12  2  0
 12 13  1  0
 14 21  1  0
 14 15  2  0
 17 16  1  0
 18 17  1  0
 18 19  1  0
 20 19  1  1
 20 22  1  0
 21 20  1  0
 22 24  2  0
 22 23  1  0
M  END
$$$$
