GFM.pdb
     RDKit          3D

 24 24  0  0  1  0  0  0  0  0999 V2000
   26.4570  -25.5527  -16.5001 N   0  0  0  0  0  0  0  0  0  0  0  0
   27.8092  -25.9319  -16.2148 C   0  0  0  0  0  0  0  0  0  0  0  0
   28.3860  -26.8340  -17.2405 C   0  0  0  0  0  0  0  0  0  0  0  0
   27.7321  -27.3443  -18.1757 O   0  0  0  0  0  0  0  0  0  0  0  0
   29.7705  -27.1394  -17.1569 N   0  0  0  0  0  0  0  0  0  0  0  0
   30.4150  -28.0914  -18.0449 C   0  0  1  0  0  0  0  0  0  0  0  0
   31.8152  -27.5743  -18.2491 C   0  0  0  0  0  0  0  0  0  0  0  0
   32.6293  -28.3404  -19.2020 C   0  0  0  0  0  0  0  0  0  0  0  0
   32.3186  -28.4451  -20.5391 C   0  0  0  0  0  0  0  0  0  0  0  0
   33.1055  -29.1656  -21.4267 C   0  0  0  0  0  0  0  0  0  0  0  0
   34.2446  -29.8130  -20.9960 C   0  0  0  0  0  0  0  0  0  0  0  0
   34.5638  -29.7139  -19.6575 C   0  0  0  0  0  0  0  0  0  0  0  0
   33.7809  -28.9975  -18.7766 C   0  0  0  0  0  0  0  0  0  0  0  0
   30.5010  -29.3876  -17.3456 C   0  0  0  0  0  0  0  0  0  0  0  0
   30.9893  -29.5161  -16.1895 O   0  0  0  0  0  0  0  0  0  0  0  0
   26.7633  -36.3109  -17.3498 C   0  0  0  0  0  0  0  0  0  0  0  0
   26.9163  -34.5480  -17.7526 S   0  0  0  0  0  0  0  0  0  0  0  0
   28.5764  -33.9376  -17.2648 C   0  0  0  0  0  0  0  0  0  0  0  0
   28.7048  -32.5351  -17.7655 C   0  0  0  0  0  0  0  0  0  0  0  0
   29.9858  -31.8516  -17.3401 C   0  0  2  0  0  0  0  0  0  0  0  0
   30.0179  -30.5495  -17.9894 N   0  0  0  0  0  0  0  0  0  0  0  0
   31.1412  -32.6254  -17.8584 C   0  0  0  0  0  0  0  0  0  0  0  0
   31.6205  -32.3527  -19.1529 O   0  0  0  0  0  0  0  0  0  0  0  0
   31.7105  -33.5218  -17.1774 O   0  0  0  0  0  0  0  0  0  0  0  0
  1  2  1  0
  3  2  1  0
  3  4  2  0
  5  3  1  0
  6  5  1  0
  6 14  1  0
  6  7  1  1
  8 13  2  0
  8  7  1  0
  9  8  1  0
 10  9  2  0
 10 11  1  0
 11 12  2  0
 12 13  1  0
 14 21  1  0
 14 15  2  0
 17 16  1  0
 18 17  1  0
 18 19  1  0
 20 19  1  6
 20 22  1  0
 21 20  1  0
 22 24  2  0
 22 23  1  0
M  END
$$$$
