GFM.pdb
     RDKit          3D

 24 24  0  0  1  0  0  0  0  0999 V2000
   27.0452  -16.2962  -16.2029 N   0  0  0  0  0  0  0  0  0  0  0  0
   26.8230  -16.9585  -14.9517 C   0  0  0  0  0  0  0  0  0  0  0  0
   26.9626  -18.4319  -15.0439 C   0  0  0  0  0  0  0  0  0  0  0  0
   27.1662  -19.0534  -16.1091 O   0  0  0  0  0  0  0  0  0  0  0  0
   26.8585  -19.1875  -13.8459 N   0  0  0  0  0  0  0  0  0  0  0  0
   27.0347  -20.6291  -13.8143 C   0  0  1  0  0  0  0  0  0  0  0  0
   27.7163  -20.9274  -12.5043 C   0  0  0  0  0  0  0  0  0  0  0  0
   26.8782  -20.7486  -11.3113 C   0  0  0  0  0  0  0  0  0  0  0  0
   26.5091  -19.5116  -10.8328 C   0  0  0  0  0  0  0  0  0  0  0  0
   25.7082  -19.3625   -9.7092 C   0  0  0  0  0  0  0  0  0  0  0  0
   25.2457  -20.4640   -9.0199 C   0  0  0  0  0  0  0  0  0  0  0  0
   25.6108  -21.7078   -9.4919 C   0  0  0  0  0  0  0  0  0  0  0  0
   26.4067  -21.8545  -10.6087 C   0  0  0  0  0  0  0  0  0  0  0  0
   25.6992  -21.2555  -13.7909 C   0  0  0  0  0  0  0  0  0  0  0  0
   25.5229  -22.4982  -13.6633 O   0  0  0  0  0  0  0  0  0  0  0  0
   21.2532  -21.4137   -9.2682 C   0  0  0  0  0  0  0  0  0  0  0  0
   20.8049  -20.1829  -10.5244 S   0  0  0  0  0  0  0  0  0  0  0  0
   21.2434  -20.8057  -12.1936 C   0  0  0  0  0  0  0  0  0  0  0  0
   22.6888  -20.5012  -12.4218 C   0  0  0  0  0  0  0  0  0  0  0  0
   23.2004  -20.9526  -13.7722 C   0  0  2  0  0  0  0  0  0  0  0  0
   24.5537  -20.4372  -13.9168 N   0  0  0  0  0  0  0  0  0  0  0  0
   22.3784  -20.3228  -14.8352 C   0  0  0  0  0  0  0  0  0  0  0  0
   22.9702  -19.3648  -15.6788 O   0  0  0  0  0  0  0  0  0  0  0  0
   21.1641  -20.6168  -15.0097 O   0  0  0  0  0  0  0  0  0  0  0  0
  1  2  1  0
  3  2  1  0
  3  4  2  0
  5  3  1  0
  6  5  1  0
  6 14  1  0
  6  7  1  1
  8 13  2  0
  8  7  1  0
  9  8  1  0
 10  9  2  0
 10 11  1  0
 11 12  2  0
 12 13  1  0
 14 21  1  0
 14 15  2  0
 17 16  1  0
 18 17  1  0
 18 19  1  0
 20 19  1  1
 20 22  1  0
 21 20  1  0
 22 24  2  0
 22 23  1  0
M  END
$$$$
