GFM.pdb
     RDKit          3D

 24 24  0  0  1  0  0  0  0  0999 V2000
   29.2752  -22.2254  -17.2021 N   0  0  0  0  0  0  0  0  0  0  0  0
   27.9836  -22.1660  -16.5839 C   0  0  0  0  0  0  0  0  0  0  0  0
   27.9579  -21.3027  -15.3787 C   0  0  0  0  0  0  0  0  0  0  0  0
   28.9756  -20.8137  -14.8424 O   0  0  0  0  0  0  0  0  0  0  0  0
   26.6966  -21.0114  -14.7943 N   0  0  0  0  0  0  0  0  0  0  0  0
   26.5416  -20.0646  -13.7035 C   0  0  1  0  0  0  0  0  0  0  0  0
   25.5878  -19.0137  -14.2090 C   0  0  0  0  0  0  0  0  0  0  0  0
   26.1671  -18.0489  -15.1530 C   0  0  0  0  0  0  0  0  0  0  0  0
   26.7638  -16.8744  -14.7531 C   0  0  0  0  0  0  0  0  0  0  0  0
   27.3148  -15.9793  -15.6594 C   0  0  0  0  0  0  0  0  0  0  0  0
   27.2845  -16.2366  -17.0140 C   0  0  0  0  0  0  0  0  0  0  0  0
   26.6882  -17.4111  -17.4241 C   0  0  0  0  0  0  0  0  0  0  0  0
   26.1412  -18.2998  -16.5224 C   0  0  0  0  0  0  0  0  0  0  0  0
   25.8990  -20.7642  -12.5748 C   0  0  0  0  0  0  0  0  0  0  0  0
   25.0179  -21.6541  -12.7271 O   0  0  0  0  0  0  0  0  0  0  0  0
   28.1057  -19.1982   -6.8779 C   0  0  0  0  0  0  0  0  0  0  0  0
   26.9764  -20.4664   -6.2376 S   0  0  0  0  0  0  0  0  0  0  0  0
   25.8555  -21.0368   -7.5737 C   0  0  0  0  0  0  0  0  0  0  0  0
   26.4168  -20.5490   -8.8702 C   0  0  0  0  0  0  0  0  0  0  0  0
   25.6469  -21.0226  -10.0836 C   0  0  2  0  0  0  0  0  0  0  0  0
   26.2779  -20.4316  -11.2543 N   0  0  0  0  0  0  0  0  0  0  0  0
   24.2643  -20.4877  -10.0173 C   0  0  0  0  0  0  0  0  0  0  0  0
   23.2829  -21.2156   -9.3196 O   0  0  0  0  0  0  0  0  0  0  0  0
   23.9367  -19.3999  -10.5659 O   0  0  0  0  0  0  0  0  0  0  0  0
  1  2  1  0
  3  2  1  0
  3  4  2  0
  5  3  1  0
  6  5  1  0
  6 14  1  0
  6  7  1  6
  8 13  2  0
  8  7  1  0
  9  8  1  0
 10  9  2  0
 10 11  1  0
 11 12  2  0
 12 13  1  0
 14 21  1  0
 14 15  2  0
 17 16  1  0
 18 17  1  0
 18 19  1  0
 20 19  1  1
 20 22  1  0
 21 20  1  0
 22 24  2  0
 22 23  1  0
M  END
$$$$
