GFM.pdb
     RDKit          3D

 24 24  0  0  1  0  0  0  0  0999 V2000
   29.2695  -22.7673  -17.0434 N   0  0  0  0  0  0  0  0  0  0  0  0
   27.9809  -22.2232  -16.7319 C   0  0  0  0  0  0  0  0  0  0  0  0
   27.9957  -21.3493  -15.5341 C   0  0  0  0  0  0  0  0  0  0  0  0
   29.0170  -20.7806  -15.0914 O   0  0  0  0  0  0  0  0  0  0  0  0
   26.7716  -21.1437  -14.8439 N   0  0  0  0  0  0  0  0  0  0  0  0
   26.6383  -20.1869  -13.7590 C   0  0  1  0  0  0  0  0  0  0  0  0
   25.6913  -19.1292  -14.2630 C   0  0  0  0  0  0  0  0  0  0  0  0
   26.3006  -18.1067  -15.1238 C   0  0  0  0  0  0  0  0  0  0  0  0
   26.9081  -16.9748  -14.6288 C   0  0  0  0  0  0  0  0  0  0  0  0
   27.4873  -16.0241  -15.4575 C   0  0  0  0  0  0  0  0  0  0  0  0
   27.4757  -16.1800  -16.8278 C   0  0  0  0  0  0  0  0  0  0  0  0
   26.8688  -17.3113  -17.3331 C   0  0  0  0  0  0  0  0  0  0  0  0
   26.2936  -18.2552  -16.5082 C   0  0  0  0  0  0  0  0  0  0  0  0
   25.9991  -20.8705  -12.6185 C   0  0  0  0  0  0  0  0  0  0  0  0
   25.0717  -21.7152  -12.7528 O   0  0  0  0  0  0  0  0  0  0  0  0
   27.1542  -18.5661   -6.5561 C   0  0  0  0  0  0  0  0  0  0  0  0
   27.0286  -20.3556   -6.2813 S   0  0  0  0  0  0  0  0  0  0  0  0
   26.0316  -21.1241   -7.6161 C   0  0  0  0  0  0  0  0  0  0  0  0
   26.5604  -20.6192   -8.9198 C   0  0  0  0  0  0  0  0  0  0  0  0
   25.8689  -21.2120  -10.1279 C   0  0  2  0  0  0  0  0  0  0  0  0
   26.4359  -20.5748  -11.3071 N   0  0  0  0  0  0  0  0  0  0  0  0
   24.4302  -20.8504  -10.0866 C   0  0  0  0  0  0  0  0  0  0  0  0
   23.5333  -21.6931   -9.4045 O   0  0  0  0  0  0  0  0  0  0  0  0
   23.9815  -19.8109  -10.6431 O   0  0  0  0  0  0  0  0  0  0  0  0
  1  2  1  0
  3  2  1  0
  3  4  2  0
  5  3  1  0
  6  5  1  0
  6 14  1  0
  6  7  1  6
  8 13  2  0
  8  7  1  0
  9  8  1  0
 10  9  2  0
 10 11  1  0
 11 12  2  0
 12 13  1  0
 14 21  1  0
 14 15  2  0
 17 16  1  0
 18 17  1  0
 18 19  1  0
 20 19  1  1
 20 22  1  0
 21 20  1  0
 22 24  2  0
 22 23  1  0
M  END
$$$$
