GFM.pdb
     RDKit          3D

 24 24  0  0  1  0  0  0  0  0999 V2000
   40.6662  -24.6830    5.8064 N   0  0  0  0  0  0  0  0  0  0  0  0
   39.4562  -24.6610    5.0389 C   0  0  0  0  0  0  0  0  0  0  0  0
   38.2677  -24.2862    5.8424 C   0  0  0  0  0  0  0  0  0  0  0  0
   38.2610  -24.1999    7.0894 O   0  0  0  0  0  0  0  0  0  0  0  0
   37.0580  -24.0067    5.1528 N   0  0  0  0  0  0  0  0  0  0  0  0
   35.8688  -23.5181    5.8291 C   0  0  1  0  0  0  0  0  0  0  0  0
   35.0733  -22.7890    4.7779 C   0  0  0  0  0  0  0  0  0  0  0  0
   33.8083  -22.2073    5.2460 C   0  0  0  0  0  0  0  0  0  0  0  0
   33.6352  -21.7157    6.5203 C   0  0  0  0  0  0  0  0  0  0  0  0
   32.4351  -21.1605    6.9418 C   0  0  0  0  0  0  0  0  0  0  0  0
   31.3553  -21.0798    6.0876 C   0  0  0  0  0  0  0  0  0  0  0  0
   31.5193  -21.5703    4.8086 C   0  0  0  0  0  0  0  0  0  0  0  0
   32.7126  -22.1217    4.3911 C   0  0  0  0  0  0  0  0  0  0  0  0
   35.0817  -24.6834    6.2754 C   0  0  0  0  0  0  0  0  0  0  0  0
   34.7575  -25.6309    5.5082 O   0  0  0  0  0  0  0  0  0  0  0  0
   35.9086  -26.8982   12.4877 C   0  0  0  0  0  0  0  0  0  0  0  0
   35.7115  -28.1735   11.2117 S   0  0  0  0  0  0  0  0  0  0  0  0
   34.4366  -27.6524    9.9994 C   0  0  0  0  0  0  0  0  0  0  0  0
   34.9668  -26.4574    9.2750 C   0  0  0  0  0  0  0  0  0  0  0  0
   34.0440  -25.9429    8.1920 C   0  0  2  0  0  0  0  0  0  0  0  0
   34.6636  -24.7549    7.6237 N   0  0  0  0  0  0  0  0  0  0  0  0
   32.7653  -25.5136    8.8108 C   0  0  0  0  0  0  0  0  0  0  0  0
   31.6946  -26.4246    8.8683 O   0  0  0  0  0  0  0  0  0  0  0  0
   32.6039  -24.3572    9.2886 O   0  0  0  0  0  0  0  0  0  0  0  0
  1  2  1  0
  3  2  1  0
  3  4  2  0
  5  3  1  0
  6  5  1  0
  6 14  1  0
  6  7  1  6
  8 13  2  0
  8  7  1  0
  9  8  1  0
 10  9  2  0
 10 11  1  0
 11 12  2  0
 12 13  1  0
 14 21  1  0
 14 15  2  0
 17 16  1  0
 18 17  1  0
 18 19  1  0
 20 19  1  1
 20 22  1  0
 21 20  1  0
 22 24  2  0
 22 23  1  0
M  END
$$$$
