GFM.pdb
     RDKit          3D

 24 24  0  0  1  0  0  0  0  0999 V2000
   22.9432  -11.6416  -18.7175 N   0  0  0  0  0  0  0  0  0  0  0  0
   22.5258  -10.2932  -18.9650 C   0  0  0  0  0  0  0  0  0  0  0  0
   22.2769   -9.5267  -17.7203 C   0  0  0  0  0  0  0  0  0  0  0  0
   21.6960   -9.9888  -16.7145 O   0  0  0  0  0  0  0  0  0  0  0  0
   22.7265   -8.1807  -17.6653 N   0  0  0  0  0  0  0  0  0  0  0  0
   22.4125   -7.2974  -16.5556 C   0  0  1  0  0  0  0  0  0  0  0  0
   23.7402   -6.8793  -15.9796 C   0  0  0  0  0  0  0  0  0  0  0  0
   24.6477   -7.9836  -15.6410 C   0  0  0  0  0  0  0  0  0  0  0  0
   25.8020   -8.2477  -16.3432 C   0  0  0  0  0  0  0  0  0  0  0  0
   26.6526   -9.2900  -16.0023 C   0  0  0  0  0  0  0  0  0  0  0  0
   26.3690  -10.1123  -14.9319 C   0  0  0  0  0  0  0  0  0  0  0  0
   25.2140   -9.8554  -14.2224 C   0  0  0  0  0  0  0  0  0  0  0  0
   24.3697   -8.8192  -14.5623 C   0  0  0  0  0  0  0  0  0  0  0  0
   21.7476   -6.0968  -17.0970 C   0  0  0  0  0  0  0  0  0  0  0  0
   22.0728   -5.5640  -18.1933 O   0  0  0  0  0  0  0  0  0  0  0  0
   14.6734   -3.0603  -17.7767 C   0  0  0  0  0  0  0  0  0  0  0  0
   15.8635   -4.3676  -17.3664 S   0  0  0  0  0  0  0  0  0  0  0  0
   17.5566   -3.6659  -17.2786 C   0  0  0  0  0  0  0  0  0  0  0  0
   18.4899   -4.7842  -16.9432 C   0  0  0  0  0  0  0  0  0  0  0  0
   19.9400   -4.3616  -16.8560 C   0  0  2  0  0  0  0  0  0  0  0  0
   20.6949   -5.5040  -16.3632 N   0  0  0  0  0  0  0  0  0  0  0  0
   20.0691   -3.2845  -15.8433 C   0  0  0  0  0  0  0  0  0  0  0  0
   20.0093   -1.9426  -16.2619 O   0  0  0  0  0  0  0  0  0  0  0  0
   20.2310   -3.5304  -14.6166 O   0  0  0  0  0  0  0  0  0  0  0  0
  1  2  1  0
  3  2  1  0
  3  4  2  0
  5  3  1  0
  6  5  1  0
  6 14  1  0
  6  7  1  6
  8 13  2  0
  8  7  1  0
  9  8  1  0
 10  9  2  0
 10 11  1  0
 11 12  2  0
 12 13  1  0
 14 21  1  0
 14 15  2  0
 17 16  1  0
 18 17  1  0
 18 19  1  0
 20 19  1  1
 20 22  1  0
 21 20  1  0
 22 24  2  0
 22 23  1  0
M  END
$$$$
