GFM.pdb
     RDKit          3D

 24 24  0  0  1  0  0  0  0  0999 V2000
   27.3648  -22.1417  -13.8946 N   0  0  0  0  0  0  0  0  0  0  0  0
   27.8208  -21.1527  -12.9630 C   0  0  0  0  0  0  0  0  0  0  0  0
   27.4127  -21.4409  -11.5669 C   0  0  0  0  0  0  0  0  0  0  0  0
   26.5277  -22.2644  -11.2489 O   0  0  0  0  0  0  0  0  0  0  0  0
   28.0683  -20.7369  -10.5221 N   0  0  0  0  0  0  0  0  0  0  0  0
   27.6546  -20.8378   -9.1332 C   0  0  1  0  0  0  0  0  0  0  0  0
   28.6945  -20.0871   -8.3430 C   0  0  0  0  0  0  0  0  0  0  0  0
   28.4534  -20.0271   -6.8953 C   0  0  0  0  0  0  0  0  0  0  0  0
   28.8063  -21.0412   -6.0337 C   0  0  0  0  0  0  0  0  0  0  0  0
   28.5793  -20.9624   -4.6668 C   0  0  0  0  0  0  0  0  0  0  0  0
   27.9828  -19.8493   -4.1126 C   0  0  0  0  0  0  0  0  0  0  0  0
   27.6254  -18.8279   -4.9684 C   0  0  0  0  0  0  0  0  0  0  0  0
   27.8517  -18.9075   -6.3266 C   0  0  0  0  0  0  0  0  0  0  0  0
   26.3669  -20.1334   -8.9843 C   0  0  0  0  0  0  0  0  0  0  0  0
   26.2236  -18.9021   -9.2186 O   0  0  0  0  0  0  0  0  0  0  0  0
   22.8661  -21.0552  -12.8149 C   0  0  0  0  0  0  0  0  0  0  0  0
   21.4332  -20.4483  -11.8811 S   0  0  0  0  0  0  0  0  0  0  0  0
   21.9258  -20.0753  -10.1535 C   0  0  0  0  0  0  0  0  0  0  0  0
   23.3485  -20.5031   -9.9893 C   0  0  0  0  0  0  0  0  0  0  0  0
   23.8867  -20.3034   -8.5894 C   0  0  2  0  0  0  0  0  0  0  0  0
   25.2312  -20.8595   -8.5592 N   0  0  0  0  0  0  0  0  0  0  0  0
   23.0663  -21.0948   -7.6392 C   0  0  0  0  0  0  0  0  0  0  0  0
   23.6338  -22.2264   -7.0250 O   0  0  0  0  0  0  0  0  0  0  0  0
   21.8745  -20.7879   -7.3617 O   0  0  0  0  0  0  0  0  0  0  0  0
  1  2  1  0
  3  2  1  0
  3  4  2  0
  5  3  1  0
  6  5  1  0
  6 14  1  0
  6  7  1  1
  8 13  2  0
  8  7  1  0
  9  8  1  0
 10  9  2  0
 10 11  1  0
 11 12  2  0
 12 13  1  0
 14 21  1  0
 14 15  2  0
 17 16  1  0
 18 17  1  0
 18 19  1  0
 20 19  1  6
 20 22  1  0
 21 20  1  0
 22 24  2  0
 22 23  1  0
M  END
$$$$
