ETI.pdb
     RDKit          3D

 25 24  0  0  1  0  0  0  0  0999 V2000
   16.8061  -13.4792  -18.0181 N   0  0  0  0  0  0  0  0  0  0  0  0
   16.3956  -12.2491  -17.4222 C   0  0  1  0  0  0  0  0  0  0  0  0
   16.0565  -12.5484  -15.9845 C   0  0  0  0  0  0  0  0  0  0  0  0
   14.8566  -13.4186  -15.8034 C   0  0  0  0  0  0  0  0  0  0  0  0
   15.2622  -14.8338  -15.7358 C   0  0  0  0  0  0  0  0  0  0  0  0
   14.6299  -15.6760  -16.4605 O   0  0  0  0  0  0  0  0  0  0  0  0
   17.4352  -11.1972  -17.4232 C   0  0  0  0  0  0  0  0  0  0  0  0
   18.6306  -11.5647  -17.5571 O   0  0  0  0  0  0  0  0  0  0  0  0
   16.2911  -15.2878  -14.9299 O   0  0  0  0  0  0  0  0  0  0  0  0
   18.5707   -6.3665  -17.9503 C   0  0  0  0  0  0  0  0  0  0  0  0
   17.5483   -7.4853  -17.9096 C   0  0  1  0  0  0  0  0  0  0  0  0
   16.9771   -7.6480  -19.1891 O   0  0  0  0  0  0  0  0  0  0  0  0
   18.1572   -8.7837  -17.4289 C   0  0  2  0  0  0  0  0  0  0  0  0
   17.1511   -9.8168  -17.2823 N   0  0  0  0  0  0  0  0  0  0  0  0
   18.8028   -8.5006  -16.0990 C   0  0  0  0  0  0  0  0  0  0  0  0
   18.0208   -8.1427  -15.1934 O   0  0  0  0  0  0  0  0  0  0  0  0
   23.8951  -10.6899  -14.5829 C   0  0  0  0  0  0  0  0  0  0  0  0
   22.9996   -9.5337  -15.0316 C   0  0  0  0  0  0  0  0  0  0  0  0
   21.7116   -9.5375  -14.2622 C   0  0  2  0  0  0  0  0  0  0  0  0
   21.0616  -10.9028  -14.3146 C   0  0  0  0  0  0  0  0  0  0  0  0
   20.8306   -8.4140  -14.6507 C   0  0  2  0  0  0  0  0  0  0  0  0
   20.1806   -8.6319  -15.9009 N   0  0  0  0  0  0  0  0  0  0  0  0
   21.3763   -7.0528  -14.4788 C   0  0  0  0  0  0  0  0  0  0  0  0
   21.6370   -6.1974  -15.5661 O   0  0  0  0  0  0  0  0  0  0  0  0
   21.6519   -6.5348  -13.3583 O   0  0  0  0  0  0  0  0  0  0  0  0
  2  1  1  1
  2  7  1  0
  3  2  1  0
  4  3  1  0
  5  4  1  0
  5  6  2  0
  7  8  2  0
  9  5  1  0
 11 10  1  6
 12 11  1  0
 13 11  1  0
 14  7  1  0
 13 14  1  1
 15 13  1  0
 15 22  1  0
 16 15  2  0
 18 19  1  0
 18 17  1  0
 19 20  1  6
 21 23  1  0
 21 22  1  6
 21 19  1  0
 23 24  1  0
 25 23  2  0
M  END
$$$$
