ETI.pdb
     RDKit          3D

 25 24  0  0  1  0  0  0  0  0999 V2000
   18.4592   -9.6978  -16.8334 N   0  0  0  0  0  0  0  0  0  0  0  0
   18.9628   -8.4650  -16.3202 C   0  0  1  0  0  0  0  0  0  0  0  0
   18.0626   -7.3726  -16.8377 C   0  0  0  0  0  0  0  0  0  0  0  0
   18.2761   -7.0284  -18.2750 C   0  0  0  0  0  0  0  0  0  0  0  0
   19.5873   -6.3789  -18.4513 C   0  0  0  0  0  0  0  0  0  0  0  0
   19.9036   -5.4350  -17.6493 O   0  0  0  0  0  0  0  0  0  0  0  0
   18.9637   -8.3770  -14.8438 C   0  0  0  0  0  0  0  0  0  0  0  0
   18.2123   -9.1667  -14.2164 O   0  0  0  0  0  0  0  0  0  0  0  0
   20.4853   -6.7442  -19.4384 O   0  0  0  0  0  0  0  0  0  0  0  0
   21.2536   -7.0769  -10.6535 C   0  0  0  0  0  0  0  0  0  0  0  0
   21.2138   -7.2370  -12.1607 C   0  0  1  0  0  0  0  0  0  0  0  0
   22.0264   -8.3259  -12.5402 O   0  0  0  0  0  0  0  0  0  0  0  0
   19.8011   -7.4245  -12.6671 C   0  0  2  0  0  0  0  0  0  0  0  0
   19.7592   -7.4589  -14.1157 N   0  0  0  0  0  0  0  0  0  0  0  0
   18.9929   -6.2622  -12.1557 C   0  0  0  0  0  0  0  0  0  0  0  0
   19.2551   -5.1599  -12.6808 O   0  0  0  0  0  0  0  0  0  0  0  0
   13.9197   -3.7652  -11.5881 C   0  0  0  0  0  0  0  0  0  0  0  0
   15.2010   -3.9794  -10.7804 C   0  0  0  0  0  0  0  0  0  0  0  0
   15.9398   -5.1869  -11.2775 C   0  0  2  0  0  0  0  0  0  0  0  0
   15.0565   -6.4142  -11.2227 C   0  0  0  0  0  0  0  0  0  0  0  0
   17.2574   -5.3394  -10.6216 C   0  0  2  0  0  0  0  0  0  0  0  0
   18.0200   -6.4155  -11.1633 N   0  0  0  0  0  0  0  0  0  0  0  0
   17.2775   -5.2624   -9.1472 C   0  0  0  0  0  0  0  0  0  0  0  0
   17.7107   -6.3298   -8.3380 O   0  0  0  0  0  0  0  0  0  0  0  0
   16.9178   -4.2469   -8.4845 O   0  0  0  0  0  0  0  0  0  0  0  0
  2  1  1  1
  2  7  1  0
  3  2  1  0
  4  3  1  0
  5  4  1  0
  5  6  2  0
  7  8  2  0
  9  5  1  0
 11 10  1  1
 12 11  1  0
 13 11  1  0
 14  7  1  0
 13 14  1  6
 15 13  1  0
 15 22  1  0
 16 15  2  0
 18 19  1  0
 18 17  1  0
 19 20  1  1
 21 23  1  0
 21 22  1  1
 21 19  1  0
 23 24  1  0
 25 23  2  0
M  END
$$$$
