ETI.pdb
     RDKit          3D

 25 24  0  0  1  0  0  0  0  0999 V2000
   17.3872  -12.6828  -18.4698 N   0  0  0  0  0  0  0  0  0  0  0  0
   17.1180  -11.4232  -17.8553 C   0  0  1  0  0  0  0  0  0  0  0  0
   16.7741  -11.7013  -16.4144 C   0  0  0  0  0  0  0  0  0  0  0  0
   15.5658  -12.5577  -16.2243 C   0  0  0  0  0  0  0  0  0  0  0  0
   15.3546  -12.8254  -14.7905 C   0  0  0  0  0  0  0  0  0  0  0  0
   14.6700  -11.9825  -14.1158 O   0  0  0  0  0  0  0  0  0  0  0  0
   18.2618  -10.4858  -17.8655 C   0  0  0  0  0  0  0  0  0  0  0  0
   19.3777  -10.9380  -18.2292 O   0  0  0  0  0  0  0  0  0  0  0  0
   15.8593  -13.9415  -14.1473 O   0  0  0  0  0  0  0  0  0  0  0  0
   18.7783   -7.5625  -20.0034 C   0  0  0  0  0  0  0  0  0  0  0  0
   18.9093   -7.0638  -18.5776 C   0  0  1  0  0  0  0  0  0  0  0  0
   17.7102   -6.4309  -18.1881 O   0  0  0  0  0  0  0  0  0  0  0  0
   19.2555   -8.1837  -17.6219 C   0  0  2  0  0  0  0  0  0  0  0  0
   18.1601   -9.1238  -17.4904 N   0  0  0  0  0  0  0  0  0  0  0  0
   19.5524   -7.5487  -16.2898 C   0  0  0  0  0  0  0  0  0  0  0  0
   18.5649   -7.3984  -15.5402 O   0  0  0  0  0  0  0  0  0  0  0  0
   23.0583   -9.7900  -13.5051 C   0  0  0  0  0  0  0  0  0  0  0  0
   21.9344   -8.9596  -14.1276 C   0  0  0  0  0  0  0  0  0  0  0  0
   22.2071   -7.4943  -13.9563 C   0  0  2  0  0  0  0  0  0  0  0  0
   22.4316   -7.1592  -12.4980 C   0  0  0  0  0  0  0  0  0  0  0  0
   21.1937   -6.6586  -14.6374 C   0  0  2  0  0  0  0  0  0  0  0  0
   20.8448   -7.1584  -15.9263 N   0  0  0  0  0  0  0  0  0  0  0  0
   21.3967   -5.1969  -14.5872 C   0  0  0  0  0  0  0  0  0  0  0  0
   21.0232   -4.4172  -13.4761 O   0  0  0  0  0  0  0  0  0  0  0  0
   21.9197   -4.5204  -15.5192 O   0  0  0  0  0  0  0  0  0  0  0  0
  2  1  1  1
  2  7  1  0
  3  2  1  0
  4  3  1  0
  5  4  1  0
  5  6  2  0
  7  8  2  0
  9  5  1  0
 11 10  1  6
 12 11  1  0
 13 11  1  0
 14  7  1  0
 13 14  1  1
 15 13  1  0
 15 22  1  0
 16 15  2  0
 18 19  1  0
 18 17  1  0
 19 20  1  1
 21 23  1  0
 21 22  1  6
 21 19  1  0
 23 24  1  0
 25 23  2  0
M  END
$$$$
