ETI.pdb
     RDKit          3D

 25 24  0  0  1  0  0  0  0  0999 V2000
   23.7459  -22.0861  -14.3623 N   0  0  0  0  0  0  0  0  0  0  0  0
   23.7125  -21.4184  -13.1014 C   0  0  1  0  0  0  0  0  0  0  0  0
   22.4678  -21.8836  -12.3902 C   0  0  0  0  0  0  0  0  0  0  0  0
   21.1927  -21.4225  -13.0157 C   0  0  0  0  0  0  0  0  0  0  0  0
   21.0814  -19.9562  -12.9182 C   0  0  0  0  0  0  0  0  0  0  0  0
   21.5177  -19.2537  -13.8931 O   0  0  0  0  0  0  0  0  0  0  0  0
   24.8640  -21.7202  -12.2239 C   0  0  0  0  0  0  0  0  0  0  0  0
   25.2568  -22.9140  -12.1741 O   0  0  0  0  0  0  0  0  0  0  0  0
   20.5278  -19.3110  -11.8267 O   0  0  0  0  0  0  0  0  0  0  0  0
   29.2112  -20.7769  -10.5260 C   0  0  0  0  0  0  0  0  0  0  0  0
   27.9535  -20.4122  -11.2901 C   0  0  1  0  0  0  0  0  0  0  0  0
   28.0861  -20.8156  -12.6354 O   0  0  0  0  0  0  0  0  0  0  0  0
   26.7209  -21.0294  -10.6678 C   0  0  2  0  0  0  0  0  0  0  0  0
   25.5342  -20.7421  -11.4491 N   0  0  0  0  0  0  0  0  0  0  0  0
   26.5842  -20.4428   -9.2884 C   0  0  0  0  0  0  0  0  0  0  0  0
   25.7150  -19.5538   -9.1721 O   0  0  0  0  0  0  0  0  0  0  0  0
   28.9956  -21.1562   -3.5950 C   0  0  0  0  0  0  0  0  0  0  0  0
   28.0640  -20.4288   -4.5661 C   0  0  0  0  0  0  0  0  0  0  0  0
   28.2077  -20.9884   -5.9508 C   0  0  2  0  0  0  0  0  0  0  0  0
   29.6679  -21.1290   -6.3217 C   0  0  0  0  0  0  0  0  0  0  0  0
   27.3845  -20.2513   -6.9347 C   0  0  2  0  0  0  0  0  0  0  0  0
   27.3782  -20.8694   -8.2195 N   0  0  0  0  0  0  0  0  0  0  0  0
   27.5451  -18.7838   -6.9674 C   0  0  0  0  0  0  0  0  0  0  0  0
   28.3163  -18.1270   -7.9449 O   0  0  0  0  0  0  0  0  0  0  0  0
   27.0110  -17.9926   -6.1376 O   0  0  0  0  0  0  0  0  0  0  0  0
  2  1  1  6
  2  7  1  0
  3  2  1  0
  4  3  1  0
  5  4  1  0
  5  6  2  0
  7  8  2  0
  9  5  1  0
 11 10  1  1
 12 11  1  0
 13 11  1  0
 14  7  1  0
 13 14  1  6
 15 13  1  0
 15 22  1  0
 16 15  2  0
 18 19  1  0
 18 17  1  0
 19 20  1  6
 21 23  1  0
 21 22  1  6
 21 19  1  0
 23 24  1  0
 25 23  2  0
M  END
$$$$
