ETI.pdb
     RDKit          3D

 25 24  0  0  1  0  0  0  0  0999 V2000
   13.6846   -9.7625  -15.4640 N   0  0  0  0  0  0  0  0  0  0  0  0
   14.9893   -9.8995  -14.9021 C   0  0  1  0  0  0  0  0  0  0  0  0
   15.4577  -11.2978  -15.2135 C   0  0  0  0  0  0  0  0  0  0  0  0
   14.7207  -12.3710  -14.4822 C   0  0  0  0  0  0  0  0  0  0  0  0
   15.1104  -13.6954  -14.9980 C   0  0  0  0  0  0  0  0  0  0  0  0
   16.0572  -14.3170  -14.4051 O   0  0  0  0  0  0  0  0  0  0  0  0
   15.9905   -8.9625  -15.4560 C   0  0  0  0  0  0  0  0  0  0  0  0
   15.8695   -8.6336  -16.6639 O   0  0  0  0  0  0  0  0  0  0  0  0
   14.5000  -14.2924  -16.0866 O   0  0  0  0  0  0  0  0  0  0  0  0
   16.3701   -6.3593  -16.8250 C   0  0  0  0  0  0  0  0  0  0  0  0
   17.2424   -6.1590  -15.6013 C   0  0  1  0  0  0  0  0  0  0  0  0
   16.4500   -5.7012  -14.5278 O   0  0  0  0  0  0  0  0  0  0  0  0
   17.9738   -7.4270  -15.2208 C   0  0  2  0  0  0  0  0  0  0  0  0
   17.0623   -8.4269  -14.7007 N   0  0  0  0  0  0  0  0  0  0  0  0
   18.9836   -7.0533  -14.1690 C   0  0  0  0  0  0  0  0  0  0  0  0
   18.5290   -6.9409  -13.0112 O   0  0  0  0  0  0  0  0  0  0  0  0
   23.8395   -9.4436  -14.2953 C   0  0  0  0  0  0  0  0  0  0  0  0
   22.9830   -8.1988  -14.5337 C   0  0  0  0  0  0  0  0  0  0  0  0
   22.1896   -7.8637  -13.3051 C   0  0  2  0  0  0  0  0  0  0  0  0
   21.4460   -9.0810  -12.8005 C   0  0  0  0  0  0  0  0  0  0  0  0
   21.3522   -6.6591  -13.4976 C   0  0  2  0  0  0  0  0  0  0  0  0
   20.3323   -6.8489  -14.4756 N   0  0  0  0  0  0  0  0  0  0  0  0
   22.0611   -5.3680  -13.6018 C   0  0  0  0  0  0  0  0  0  0  0  0
   21.8968   -4.4990  -14.6971 O   0  0  0  0  0  0  0  0  0  0  0  0
   22.8650   -4.9272  -12.7305 O   0  0  0  0  0  0  0  0  0  0  0  0
  2  1  1  6
  2  7  1  0
  3  2  1  0
  4  3  1  0
  5  4  1  0
  5  6  2  0
  7  8  2  0
  9  5  1  0
 11 10  1  6
 12 11  1  0
 13 11  1  0
 14  7  1  0
 13 14  1  1
 15 13  1  0
 15 22  1  0
 16 15  2  0
 18 19  1  0
 18 17  1  0
 19 20  1  6
 21 23  1  0
 21 22  1  6
 21 19  1  0
 23 24  1  0
 25 23  2  0
M  END
$$$$
