ETI.pdb
     RDKit          3D

 25 24  0  0  1  0  0  0  0  0999 V2000
   17.4575  -15.9294  -17.2162 N   0  0  0  0  0  0  0  0  0  0  0  0
   18.4830  -15.4231  -16.3626 C   0  0  1  0  0  0  0  0  0  0  0  0
   19.4494  -16.5535  -16.1177 C   0  0  0  0  0  0  0  0  0  0  0  0
   18.8558  -17.7291  -15.4139 C   0  0  0  0  0  0  0  0  0  0  0  0
   19.8377  -18.8258  -15.3422 C   0  0  0  0  0  0  0  0  0  0  0  0
   19.4009  -20.0130  -15.1577 O   0  0  0  0  0  0  0  0  0  0  0  0
   19.2521  -14.2987  -16.9385 C   0  0  0  0  0  0  0  0  0  0  0  0
   19.3724  -14.2604  -18.1898 O   0  0  0  0  0  0  0  0  0  0  0  0
   21.2015  -18.6290  -15.4666 O   0  0  0  0  0  0  0  0  0  0  0  0
   18.8990  -11.9990  -18.6976 C   0  0  0  0  0  0  0  0  0  0  0  0
   19.4365  -11.2653  -17.4845 C   0  0  1  0  0  0  0  0  0  0  0  0
   18.3661  -10.9071  -16.6383 O   0  0  0  0  0  0  0  0  0  0  0  0
   20.4546  -12.0945  -16.7339 C   0  0  2  0  0  0  0  0  0  0  0  0
   19.8500  -13.2793  -16.1579 N   0  0  0  0  0  0  0  0  0  0  0  0
   21.0159  -11.2207  -15.6443 C   0  0  0  0  0  0  0  0  0  0  0  0
   20.3115  -11.1330  -14.6169 O   0  0  0  0  0  0  0  0  0  0  0  0
   26.5894   -9.9381  -15.5346 C   0  0  0  0  0  0  0  0  0  0  0  0
   25.1084   -9.6176  -15.7441 C   0  0  0  0  0  0  0  0  0  0  0  0
   24.2943  -10.1142  -14.5858 C   0  0  2  0  0  0  0  0  0  0  0  0
   24.6004  -11.5685  -14.3018 C   0  0  0  0  0  0  0  0  0  0  0  0
   22.8569   -9.8007  -14.7437 C   0  0  2  0  0  0  0  0  0  0  0  0
   22.2397  -10.5585  -15.7817 N   0  0  0  0  0  0  0  0  0  0  0  0
   22.4841   -8.3721  -14.7306 C   0  0  0  0  0  0  0  0  0  0  0  0
   21.9271   -7.7234  -15.8489 O   0  0  0  0  0  0  0  0  0  0  0  0
   22.6237   -7.6112  -13.7298 O   0  0  0  0  0  0  0  0  0  0  0  0
  2  1  1  6
  2  7  1  0
  3  2  1  0
  4  3  1  0
  5  4  1  0
  5  6  2  0
  7  8  2  0
  9  5  1  0
 11 10  1  6
 12 11  1  0
 13 11  1  0
 14  7  1  0
 13 14  1  1
 15 13  1  0
 15 22  1  0
 16 15  2  0
 18 19  1  0
 18 17  1  0
 19 20  1  6
 21 23  1  0
 21 22  1  6
 21 19  1  0
 23 24  1  0
 25 23  2  0
M  END
$$$$
