ETI.pdb
     RDKit          3D

 25 24  0  0  1  0  0  0  0  0999 V2000
   19.9909  -12.4123  -21.0907 N   0  0  0  0  0  0  0  0  0  0  0  0
   20.6582  -11.9821  -19.9048 C   0  0  1  0  0  0  0  0  0  0  0  0
   21.9273  -11.2947  -20.3391 C   0  0  0  0  0  0  0  0  0  0  0  0
   22.8962  -12.1822  -21.0486 C   0  0  0  0  0  0  0  0  0  0  0  0
   23.7005  -11.3958  -22.0008 C   0  0  0  0  0  0  0  0  0  0  0  0
   24.8223  -10.9314  -21.6006 O   0  0  0  0  0  0  0  0  0  0  0  0
   19.8877  -11.0177  -19.0904 C   0  0  0  0  0  0  0  0  0  0  0  0
   19.1371  -10.2140  -19.7008 O   0  0  0  0  0  0  0  0  0  0  0  0
   23.2989  -11.1413  -23.3001 O   0  0  0  0  0  0  0  0  0  0  0  0
   17.0149  -11.4576  -17.1704 C   0  0  0  0  0  0  0  0  0  0  0  0
   18.0173  -10.8908  -16.1842 C   0  0  1  0  0  0  0  0  0  0  0  0
   18.5771  -11.9404  -15.4259 O   0  0  0  0  0  0  0  0  0  0  0  0
   19.1019  -10.0990  -16.8801 C   0  0  2  0  0  0  0  0  0  0  0  0
   19.9550  -10.9584  -17.6768 N   0  0  0  0  0  0  0  0  0  0  0  0
   19.9107   -9.4229  -15.8057 C   0  0  0  0  0  0  0  0  0  0  0  0
   20.9263  -10.0466  -15.4326 O   0  0  0  0  0  0  0  0  0  0  0  0
   22.2691   -4.2445  -14.2044 C   0  0  0  0  0  0  0  0  0  0  0  0
   21.7148   -5.5735  -13.6881 C   0  0  0  0  0  0  0  0  0  0  0  0
   20.8766   -6.2375  -14.7405 C   0  0  2  0  0  0  0  0  0  0  0  0
   19.8892   -5.2571  -15.3348 C   0  0  0  0  0  0  0  0  0  0  0  0
   20.2818   -7.5036  -14.2581 C   0  0  2  0  0  0  0  0  0  0  0  0
   19.5435   -8.1849  -15.2698 N   0  0  0  0  0  0  0  0  0  0  0  0
   19.6142   -7.4638  -12.9417 C   0  0  0  0  0  0  0  0  0  0  0  0
   20.3294   -7.4296  -11.7295 O   0  0  0  0  0  0  0  0  0  0  0  0
   18.3595   -7.4525  -12.7820 O   0  0  0  0  0  0  0  0  0  0  0  0
  2  1  1  6
  2  7  1  0
  3  2  1  0
  4  3  1  0
  5  4  1  0
  5  6  2  0
  7  8  2  0
  9  5  1  0
 11 10  1  6
 12 11  1  0
 13 11  1  0
 14  7  1  0
 13 14  1  1
 15 13  1  0
 15 22  1  0
 16 15  2  0
 18 19  1  0
 18 17  1  0
 19 20  1  1
 21 23  1  0
 21 22  1  6
 21 19  1  0
 23 24  1  0
 25 23  2  0
M  END
$$$$
