ETI.pdb
     RDKit          3D

 25 24  0  0  1  0  0  0  0  0999 V2000
   26.0016  -20.4208  -15.2220 N   0  0  0  0  0  0  0  0  0  0  0  0
   26.9471  -20.3699  -14.1542 C   0  0  1  0  0  0  0  0  0  0  0  0
   28.0883  -19.5015  -14.6182 C   0  0  0  0  0  0  0  0  0  0  0  0
   27.6717  -18.1699  -15.1501 C   0  0  0  0  0  0  0  0  0  0  0  0
   28.3027  -17.9271  -16.4597 C   0  0  0  0  0  0  0  0  0  0  0  0
   28.5558  -18.9369  -17.2018 O   0  0  0  0  0  0  0  0  0  0  0  0
   26.4204  -19.7800  -12.9044 C   0  0  0  0  0  0  0  0  0  0  0  0
   25.6671  -18.7783  -13.0096 O   0  0  0  0  0  0  0  0  0  0  0  0
   28.6293  -16.6636  -16.9189 O   0  0  0  0  0  0  0  0  0  0  0  0
   23.7412  -20.1262  -11.7887 C   0  0  0  0  0  0  0  0  0  0  0  0
   24.5221  -20.7319  -10.6389 C   0  0  1  0  0  0  0  0  0  0  0  0
   24.6783  -22.1173  -10.8538 O   0  0  0  0  0  0  0  0  0  0  0  0
   25.8682  -20.0649  -10.4630 C   0  0  2  0  0  0  0  0  0  0  0  0
   26.7206  -20.2832  -11.6150 N   0  0  0  0  0  0  0  0  0  0  0  0
   26.4985  -20.6643   -9.2346 C   0  0  0  0  0  0  0  0  0  0  0  0
   26.9296  -21.8283   -9.3719 O   0  0  0  0  0  0  0  0  0  0  0  0
   29.6169  -19.3754   -4.2106 C   0  0  0  0  0  0  0  0  0  0  0  0
   28.6587  -20.3267   -4.9296 C   0  0  0  0  0  0  0  0  0  0  0  0
   28.0666  -19.6624   -6.1375 C   0  0  2  0  0  0  0  0  0  0  0  0
   27.5770  -18.2719   -5.7966 C   0  0  0  0  0  0  0  0  0  0  0  0
   27.0707  -20.5243   -6.8118 C   0  0  2  0  0  0  0  0  0  0  0  0
   26.5905  -19.9603   -8.0301 N   0  0  0  0  0  0  0  0  0  0  0  0
   26.0193  -21.1150   -5.9598 C   0  0  0  0  0  0  0  0  0  0  0  0
   26.3014  -22.0498   -4.9457 O   0  0  0  0  0  0  0  0  0  0  0  0
   24.7889  -20.8386   -6.0564 O   0  0  0  0  0  0  0  0  0  0  0  0
  2  1  1  6
  2  7  1  0
  3  2  1  0
  4  3  1  0
  5  4  1  0
  5  6  2  0
  7  8  2  0
  9  5  1  0
 11 10  1  6
 12 11  1  0
 13 11  1  0
 14  7  1  0
 13 14  1  6
 15 13  1  0
 15 22  1  0
 16 15  2  0
 18 19  1  0
 18 17  1  0
 19 20  1  1
 21 23  1  0
 21 22  1  6
 21 19  1  0
 23 24  1  0
 25 23  2  0
M  END
$$$$
