ETI.pdb
     RDKit          3D

 25 24  0  0  1  0  0  0  0  0999 V2000
   26.1674  -18.4417  -16.2267 N   0  0  0  0  0  0  0  0  0  0  0  0
   26.6796  -17.9365  -14.9942 C   0  0  1  0  0  0  0  0  0  0  0  0
   26.6654  -16.4327  -15.0953 C   0  0  0  0  0  0  0  0  0  0  0  0
   27.6363  -15.8731  -16.0822 C   0  0  0  0  0  0  0  0  0  0  0  0
   27.2972  -16.3298  -17.4418 C   0  0  0  0  0  0  0  0  0  0  0  0
   26.2588  -15.8361  -18.0006 O   0  0  0  0  0  0  0  0  0  0  0  0
   25.8807  -18.3088  -13.8065 C   0  0  0  0  0  0  0  0  0  0  0  0
   24.6503  -18.0495  -13.8320 O   0  0  0  0  0  0  0  0  0  0  0  0
   28.0487  -17.2613  -18.1359 O   0  0  0  0  0  0  0  0  0  0  0  0
   24.3147  -20.7398  -13.6491 C   0  0  0  0  0  0  0  0  0  0  0  0
   25.1913  -21.0341  -12.4475 C   0  0  1  0  0  0  0  0  0  0  0  0
   26.2989  -21.8089  -12.8511 O   0  0  0  0  0  0  0  0  0  0  0  0
   25.6494  -19.7651  -11.7639 C   0  0  2  0  0  0  0  0  0  0  0  0
   26.4289  -18.9341  -12.6600 N   0  0  0  0  0  0  0  0  0  0  0  0
   26.4882  -20.1792  -10.5847 C   0  0  0  0  0  0  0  0  0  0  0  0
   27.6315  -20.5960  -10.8652 O   0  0  0  0  0  0  0  0  0  0  0  0
   28.1947  -18.6056   -5.1566 C   0  0  0  0  0  0  0  0  0  0  0  0
   28.0980  -19.6949   -6.2262 C   0  0  0  0  0  0  0  0  0  0  0  0
   26.9348  -19.4348   -7.1375 C   0  0  2  0  0  0  0  0  0  0  0  0
   25.6965  -19.0909   -6.3389 C   0  0  0  0  0  0  0  0  0  0  0  0
   26.7543  -20.5182   -8.1289 C   0  0  2  0  0  0  0  0  0  0  0  0
   26.0127  -20.0993   -9.2723 N   0  0  0  0  0  0  0  0  0  0  0  0
   26.3630  -21.8410   -7.6022 C   0  0  0  0  0  0  0  0  0  0  0  0
   27.2442  -22.6545   -6.8648 O   0  0  0  0  0  0  0  0  0  0  0  0
   25.2186  -22.3568   -7.7575 O   0  0  0  0  0  0  0  0  0  0  0  0
  2  1  1  6
  2  7  1  0
  3  2  1  0
  4  3  1  0
  5  4  1  0
  5  6  2  0
  7  8  2  0
  9  5  1  0
 11 10  1  6
 12 11  1  0
 13 11  1  0
 14  7  1  0
 13 14  1  6
 15 13  1  0
 15 22  1  0
 16 15  2  0
 18 19  1  0
 18 17  1  0
 19 20  1  1
 21 23  1  0
 21 22  1  6
 21 19  1  0
 23 24  1  0
 25 23  2  0
M  END
$$$$
