ETI.pdb
     RDKit          3D

 25 24  0  0  1  0  0  0  0  0999 V2000
   23.5803  -13.3258  -19.0113 N   0  0  0  0  0  0  0  0  0  0  0  0
   23.5801  -11.9068  -19.1629 C   0  0  1  0  0  0  0  0  0  0  0  0
   22.3783  -11.5542  -20.0014 C   0  0  0  0  0  0  0  0  0  0  0  0
   22.2305  -12.3739  -21.2407 C   0  0  0  0  0  0  0  0  0  0  0  0
   21.5806  -13.6582  -20.9245 C   0  0  0  0  0  0  0  0  0  0  0  0
   20.3917  -13.6312  -20.4552 O   0  0  0  0  0  0  0  0  0  0  0  0
   23.4683  -11.1603  -17.8911 C   0  0  0  0  0  0  0  0  0  0  0  0
   22.8130  -11.6962  -16.9609 O   0  0  0  0  0  0  0  0  0  0  0  0
   22.1951  -14.8833  -21.1135 O   0  0  0  0  0  0  0  0  0  0  0  0
   26.1225  -10.3544  -15.5510 C   0  0  0  0  0  0  0  0  0  0  0  0
   25.4517   -9.0301  -15.8593 C   0  0  1  0  0  0  0  0  0  0  0  0
   26.2365   -8.3085  -16.7830 O   0  0  0  0  0  0  0  0  0  0  0  0
   24.0481   -9.2229  -16.3888 C   0  0  2  0  0  0  0  0  0  0  0  0
   24.0558   -9.8896  -17.6759 N   0  0  0  0  0  0  0  0  0  0  0  0
   23.4364   -7.8540  -16.5213 C   0  0  0  0  0  0  0  0  0  0  0  0
   23.6155   -7.2957  -17.6239 O   0  0  0  0  0  0  0  0  0  0  0  0
   18.6187   -6.6933  -16.8643 C   0  0  0  0  0  0  0  0  0  0  0  0
   20.1479   -6.6560  -16.8570 C   0  0  0  0  0  0  0  0  0  0  0  0
   20.6519   -6.0104  -15.6000 C   0  0  2  0  0  0  0  0  0  0  0  0
   19.9654   -4.6819  -15.3690 C   0  0  0  0  0  0  0  0  0  0  0  0
   22.1301   -5.9625  -15.5556 C   0  0  2  0  0  0  0  0  0  0  0  0
   22.7202   -7.2580  -15.4787 N   0  0  0  0  0  0  0  0  0  0  0  0
   22.7346   -4.9648  -14.6504 C   0  0  0  0  0  0  0  0  0  0  0  0
   23.0797   -3.6673  -15.0739 O   0  0  0  0  0  0  0  0  0  0  0  0
   22.9909   -5.1767  -13.4301 O   0  0  0  0  0  0  0  0  0  0  0  0
  2  1  1  1
  2  7  1  0
  3  2  1  0
  4  3  1  0
  5  4  1  0
  5  6  2  0
  7  8  2  0
  9  5  1  0
 11 10  1  6
 12 11  1  0
 13 11  1  0
 14  7  1  0
 13 14  1  6
 15 13  1  0
 15 22  1  0
 16 15  2  0
 18 19  1  0
 18 17  1  0
 19 20  1  6
 21 23  1  0
 21 22  1  1
 21 19  1  0
 23 24  1  0
 25 23  2  0
M  END
$$$$
