ETI.pdb
     RDKit          3D

 25 24  0  0  1  0  0  0  0  0999 V2000
   13.6770  -18.8837    4.0710 N   0  0  0  0  0  0  0  0  0  0  0  0
   15.0624  -18.9986    4.3940 C   0  0  1  0  0  0  0  0  0  0  0  0
   15.8308  -18.7985    3.1129 C   0  0  0  0  0  0  0  0  0  0  0  0
   15.6482  -19.8887    2.1089 C   0  0  0  0  0  0  0  0  0  0  0  0
   16.3974  -21.0888    2.5219 C   0  0  0  0  0  0  0  0  0  0  0  0
   15.9316  -21.7860    3.4869 O   0  0  0  0  0  0  0  0  0  0  0  0
   15.5455  -17.9914    5.3631 C   0  0  0  0  0  0  0  0  0  0  0  0
   14.9594  -16.8787    5.3823 O   0  0  0  0  0  0  0  0  0  0  0  0
   17.5731  -21.4924    1.9145 O   0  0  0  0  0  0  0  0  0  0  0  0
   15.3020  -18.1274    8.9813 C   0  0  0  0  0  0  0  0  0  0  0  0
   16.7720  -17.9113    8.6793 C   0  0  1  0  0  0  0  0  0  0  0  0
   17.4587  -19.1395    8.7785 O   0  0  0  0  0  0  0  0  0  0  0  0
   16.9787  -17.2940    7.3140 C   0  0  2  0  0  0  0  0  0  0  0  0
   16.6208  -18.2185    6.2565 N   0  0  0  0  0  0  0  0  0  0  0  0
   18.4362  -16.9326    7.2112 C   0  0  0  0  0  0  0  0  0  0  0  0
   19.1528  -17.7728    6.6281 O   0  0  0  0  0  0  0  0  0  0  0  0
   20.2500  -11.8692    6.3645 C   0  0  0  0  0  0  0  0  0  0  0  0
   20.0171  -13.3803    6.4122 C   0  0  0  0  0  0  0  0  0  0  0  0
   20.5790  -13.9588    7.6773 C   0  0  2  0  0  0  0  0  0  0  0  0
   22.0236  -13.5467    7.8581 C   0  0  0  0  0  0  0  0  0  0  0  0
   20.3300  -15.4137    7.7799 C   0  0  2  0  0  0  0  0  0  0  0  0
   18.9426  -15.7388    7.7340 N   0  0  0  0  0  0  0  0  0  0  0  0
   21.0918  -16.1461    8.8113 C   0  0  0  0  0  0  0  0  0  0  0  0
   20.6953  -16.1859   10.1615 O   0  0  0  0  0  0  0  0  0  0  0  0
   22.1508  -16.7985    8.5821 O   0  0  0  0  0  0  0  0  0  0  0  0
  2  1  1  6
  2  7  1  0
  3  2  1  0
  4  3  1  0
  5  4  1  0
  5  6  2  0
  7  8  2  0
  9  5  1  0
 11 10  1  6
 12 11  1  0
 13 11  1  0
 14  7  1  0
 13 14  1  6
 15 13  1  0
 15 22  1  0
 16 15  2  0
 18 19  1  0
 18 17  1  0
 19 20  1  6
 21 23  1  0
 21 22  1  1
 21 19  1  0
 23 24  1  0
 25 23  2  0
M  END
$$$$
