ECN.pdb
     RDKit          3D

 24 23  0  0  1  0  0  0  0  0999 V2000
   22.4774  -13.5356  -16.3279 N   0  0  0  0  0  0  0  0  0  0  0  0
   23.1206  -12.3176  -15.8067 C   0  0  1  0  0  0  0  0  0  0  0  0
   24.4718  -12.1337  -16.4829 C   0  0  0  0  0  0  0  0  0  0  0  0
   24.3608  -12.3783  -17.9443 C   0  0  0  0  0  0  0  0  0  0  0  0
   25.6175  -12.1794  -18.6631 C   0  0  0  0  0  0  0  0  0  0  0  0
   26.7061  -12.5355  -18.1185 O   0  0  0  0  0  0  0  0  0  0  0  0
   22.2870  -11.1756  -16.2540 C   0  0  0  0  0  0  0  0  0  0  0  0
   21.7531  -11.2573  -17.3826 O   0  0  0  0  0  0  0  0  0  0  0  0
   25.6849  -11.6204  -19.9165 O   0  0  0  0  0  0  0  0  0  0  0  0
   22.0780  -10.0297  -15.4756 N   0  0  0  0  0  0  0  0  0  0  0  0
   21.1735   -8.9549  -15.8732 C   0  0  1  0  0  0  0  0  0  0  0  0
   19.8410   -9.1114  -15.1803 C   0  0  0  0  0  0  0  0  0  0  0  0
   18.7872   -7.6866  -15.4368 S   0  0  0  0  0  0  0  0  0  0  0  0
   21.8051   -7.7031  -15.3925 C   0  0  0  0  0  0  0  0  0  0  0  0
   22.3045   -7.6498  -14.2338 O   0  0  0  0  0  0  0  0  0  0  0  0
   23.9039   -2.2909  -16.8792 N   0  0  0  0  0  0  0  0  0  0  0  0
   22.8598   -2.9444  -16.1490 C   0  0  0  0  0  0  0  0  0  0  0  0
   22.3734   -2.3506  -15.1512 O   0  0  0  0  0  0  0  0  0  0  0  0
   22.4199   -4.2616  -16.6042 C   0  0  0  0  0  0  0  0  0  0  0  0
   22.4241   -5.3269  -15.5278 C   0  0  2  0  0  0  0  0  0  0  0  0
   21.8984   -6.5179  -16.1593 N   0  0  0  0  0  0  0  0  0  0  0  0
   21.5533   -4.8596  -14.4205 C   0  0  0  0  0  0  0  0  0  0  0  0
   20.1760   -5.0952  -14.5399 O   0  0  0  0  0  0  0  0  0  0  0  0
   21.9499   -4.2771  -13.3983 O   0  0  0  0  0  0  0  0  0  0  0  0
  2  1  1  6
  2  7  1  0
  3  2  1  0
  3  4  1  0
  5  4  1  0
  5  9  1  0
  6  5  2  0
  7  8  2  0
 10 11  1  0
 10  7  1  0
 11 14  1  0
 11 12  1  1
 13 12  1  0
 14 21  1  0
 15 14  2  0
 17 16  1  0
 18 17  2  0
 19 17  1  0
 20 19  1  6
 21 20  1  0
 22 23  1  0
 22 20  1  0
 24 22  2  0
M  END
$$$$
