ECN.pdb
     RDKit          3D

 24 23  0  0  1  0  0  0  0  0999 V2000
   18.3580   -9.1617  -15.8504 N   0  0  0  0  0  0  0  0  0  0  0  0
   17.7999  -10.0802  -14.8436 C   0  0  1  0  0  0  0  0  0  0  0  0
   18.4783  -11.4369  -14.9694 C   0  0  0  0  0  0  0  0  0  0  0  0
   18.4247  -11.9180  -16.3743 C   0  0  0  0  0  0  0  0  0  0  0  0
   19.0363  -13.2320  -16.5614 C   0  0  0  0  0  0  0  0  0  0  0  0
   18.5006  -14.2473  -16.0222 O   0  0  0  0  0  0  0  0  0  0  0  0
   18.2024   -9.5492  -13.5188 C   0  0  0  0  0  0  0  0  0  0  0  0
   17.8405  -10.1885  -12.5059 O   0  0  0  0  0  0  0  0  0  0  0  0
   20.1763  -13.4306  -17.3021 O   0  0  0  0  0  0  0  0  0  0  0  0
   18.9584   -8.3804  -13.3604 N   0  0  0  0  0  0  0  0  0  0  0  0
   19.3656   -7.8699  -12.0547 C   0  0  1  0  0  0  0  0  0  0  0  0
   20.5563   -6.9530  -12.2012 C   0  0  0  0  0  0  0  0  0  0  0  0
   20.9998   -6.1859  -10.6452 S   0  0  0  0  0  0  0  0  0  0  0  0
   18.2185   -7.0700  -11.5632 C   0  0  0  0  0  0  0  0  0  0  0  0
   17.6148   -6.2821  -12.3439 O   0  0  0  0  0  0  0  0  0  0  0  0
   14.0291   -6.7026   -7.1755 N   0  0  0  0  0  0  0  0  0  0  0  0
   14.6345   -6.2593   -8.3951 C   0  0  0  0  0  0  0  0  0  0  0  0
   14.1445   -5.2508   -8.9675 O   0  0  0  0  0  0  0  0  0  0  0  0
   15.7850   -7.0029   -8.9042 C   0  0  0  0  0  0  0  0  0  0  0  0
   16.6593   -6.2205   -9.8618 C   0  0  2  0  0  0  0  0  0  0  0  0
   17.7259   -7.1229  -10.2381 N   0  0  0  0  0  0  0  0  0  0  0  0
   17.1731   -5.0294   -9.1406 C   0  0  0  0  0  0  0  0  0  0  0  0
   16.3862   -3.8689   -9.1696 O   0  0  0  0  0  0  0  0  0  0  0  0
   18.2443   -4.9815   -8.5148 O   0  0  0  0  0  0  0  0  0  0  0  0
  2  1  1  6
  2  7  1  0
  3  2  1  0
  3  4  1  0
  5  4  1  0
  5  9  1  0
  6  5  2  0
  7  8  2  0
 10 11  1  0
 10  7  1  0
 11 14  1  0
 11 12  1  6
 13 12  1  0
 14 21  1  0
 15 14  2  0
 17 16  1  0
 18 17  2  0
 19 17  1  0
 20 19  1  1
 21 20  1  0
 22 23  1  0
 22 20  1  0
 24 22  2  0
M  END
$$$$
