ECN.pdb
     RDKit          3D

 24 23  0  0  1  0  0  0  0  0999 V2000
   20.9695  -11.8323  -18.0958 N   0  0  0  0  0  0  0  0  0  0  0  0
   20.3846  -12.0450  -16.7611 C   0  0  1  0  0  0  0  0  0  0  0  0
   20.7274  -13.4475  -16.2792 C   0  0  0  0  0  0  0  0  0  0  0  0
   19.7229  -14.4268  -16.7690 C   0  0  0  0  0  0  0  0  0  0  0  0
   20.3188  -15.6252  -17.3558 C   0  0  0  0  0  0  0  0  0  0  0  0
   21.5817  -15.7395  -17.3833 O   0  0  0  0  0  0  0  0  0  0  0  0
   21.0870  -11.1191  -15.8400 C   0  0  0  0  0  0  0  0  0  0  0  0
   20.7681  -11.1549  -14.6307 O   0  0  0  0  0  0  0  0  0  0  0  0
   19.5744  -16.6511  -17.8861 O   0  0  0  0  0  0  0  0  0  0  0  0
   22.0760  -10.2220  -16.2642 N   0  0  0  0  0  0  0  0  0  0  0  0
   22.8034   -9.3510  -15.3458 C   0  0  1  0  0  0  0  0  0  0  0  0
   24.2767   -9.3587  -15.6762 C   0  0  0  0  0  0  0  0  0  0  0  0
   25.0936  -10.8181  -15.0367 S   0  0  0  0  0  0  0  0  0  0  0  0
   22.2779   -7.9864  -15.5889 C   0  0  0  0  0  0  0  0  0  0  0  0
   22.0895   -7.5812  -16.7700 O   0  0  0  0  0  0  0  0  0  0  0  0
   19.2188   -3.9605  -16.2163 N   0  0  0  0  0  0  0  0  0  0  0  0
   19.3895   -4.4209  -14.8712 C   0  0  0  0  0  0  0  0  0  0  0  0
   18.9857   -3.6813  -13.9360 O   0  0  0  0  0  0  0  0  0  0  0  0
   20.0221   -5.7217  -14.6624 C   0  0  0  0  0  0  0  0  0  0  0  0
   21.5111   -5.7424  -14.9376 C   0  0  2  0  0  0  0  0  0  0  0  0
   21.9561   -7.0672  -14.5628 N   0  0  0  0  0  0  0  0  0  0  0  0
   22.1438   -4.6912  -14.1025 C   0  0  0  0  0  0  0  0  0  0  0  0
   22.1383   -3.3807  -14.6019 O   0  0  0  0  0  0  0  0  0  0  0  0
   22.6769   -4.8825  -12.9977 O   0  0  0  0  0  0  0  0  0  0  0  0
  2  1  1  6
  2  7  1  0
  3  2  1  0
  3  4  1  0
  5  4  1  0
  5  9  1  0
  6  5  2  0
  7  8  2  0
 10 11  1  0
 10  7  1  0
 11 14  1  0
 11 12  1  6
 13 12  1  0
 14 21  1  0
 15 14  2  0
 17 16  1  0
 18 17  2  0
 19 17  1  0
 20 19  1  1
 21 20  1  0
 22 23  1  0
 22 20  1  0
 24 22  2  0
M  END
$$$$
