ECN.pdb
     RDKit          3D

 24 23  0  0  1  0  0  0  0  0999 V2000
   20.0066  -20.0322  -15.0964 N   0  0  0  0  0  0  0  0  0  0  0  0
   20.7991  -21.2726  -15.1437 C   0  0  1  0  0  0  0  0  0  0  0  0
   22.2346  -20.9382  -15.5238 C   0  0  0  0  0  0  0  0  0  0  0  0
   22.3083  -19.5910  -16.1463 C   0  0  0  0  0  0  0  0  0  0  0  0
   23.6701  -19.1808  -16.4822 C   0  0  0  0  0  0  0  0  0  0  0  0
   24.6397  -19.9374  -16.1720 O   0  0  0  0  0  0  0  0  0  0  0  0
   20.8593  -21.7882  -13.7546 C   0  0  0  0  0  0  0  0  0  0  0  0
   21.5662  -22.7988  -13.5436 O   0  0  0  0  0  0  0  0  0  0  0  0
   23.9618  -18.0030  -17.1269 O   0  0  0  0  0  0  0  0  0  0  0  0
   20.1677  -21.1980  -12.6887 N   0  0  0  0  0  0  0  0  0  0  0  0
   20.2960  -21.6569  -11.3088 C   0  0  1  0  0  0  0  0  0  0  0  0
   20.1782  -20.4899  -10.3579 C   0  0  0  0  0  0  0  0  0  0  0  0
   21.7746  -19.7645   -9.9952 S   0  0  0  0  0  0  0  0  0  0  0  0
   19.1451  -22.5627  -11.0805 C   0  0  0  0  0  0  0  0  0  0  0  0
   18.1140  -22.4717  -11.8039 O   0  0  0  0  0  0  0  0  0  0  0  0
   15.8788  -25.8298   -8.8082 N   0  0  0  0  0  0  0  0  0  0  0  0
   17.2030  -26.2929   -8.5213 C   0  0  0  0  0  0  0  0  0  0  0  0
   17.3295  -27.3153   -7.7978 O   0  0  0  0  0  0  0  0  0  0  0  0
   18.3299  -25.5522   -9.0845 C   0  0  0  0  0  0  0  0  0  0  0  0
   17.9323  -24.3963   -9.9784 C   0  0  2  0  0  0  0  0  0  0  0  0
   19.1097  -23.5613  -10.0791 N   0  0  0  0  0  0  0  0  0  0  0  0
   16.8046  -23.6837   -9.3277 C   0  0  0  0  0  0  0  0  0  0  0  0
   15.5160  -24.2016   -9.5227 O   0  0  0  0  0  0  0  0  0  0  0  0
   16.9143  -22.6658   -8.6254 O   0  0  0  0  0  0  0  0  0  0  0  0
  2  1  1  1
  2  7  1  0
  3  2  1  0
  3  4  1  0
  5  4  1  0
  5  9  1  0
  6  5  2  0
  7  8  2  0
 10 11  1  0
 10  7  1  0
 11 14  1  0
 11 12  1  1
 13 12  1  0
 14 21  1  0
 15 14  2  0
 17 16  1  0
 18 17  2  0
 19 17  1  0
 20 19  1  1
 21 20  1  0
 22 23  1  0
 22 20  1  0
 24 22  2  0
M  END
$$$$
