ECN.pdb
     RDKit          3D

 24 23  0  0  1  0  0  0  0  0999 V2000
   18.7737  -12.5724  -15.9251 N   0  0  0  0  0  0  0  0  0  0  0  0
   18.6461  -11.2305  -16.5184 C   0  0  1  0  0  0  0  0  0  0  0  0
   17.2036  -10.7609  -16.3944 C   0  0  0  0  0  0  0  0  0  0  0  0
   16.3660  -11.3625  -17.4643 C   0  0  0  0  0  0  0  0  0  0  0  0
   14.9630  -10.9591  -17.3986 C   0  0  0  0  0  0  0  0  0  0  0  0
   14.0899  -11.8081  -17.0442 O   0  0  0  0  0  0  0  0  0  0  0  0
   19.4430  -10.3149  -15.6665 C   0  0  0  0  0  0  0  0  0  0  0  0
   19.3222  -10.4279  -14.4263 O   0  0  0  0  0  0  0  0  0  0  0  0
   14.5316   -9.6906  -17.7031 O   0  0  0  0  0  0  0  0  0  0  0  0
   20.3102   -9.3458  -16.1875 N   0  0  0  0  0  0  0  0  0  0  0  0
   21.1468   -8.4953  -15.3460 C   0  0  1  0  0  0  0  0  0  0  0  0
   22.6052   -8.7129  -15.6709 C   0  0  0  0  0  0  0  0  0  0  0  0
   23.6502   -7.4865  -14.8898 S   0  0  0  0  0  0  0  0  0  0  0  0
   20.7912   -7.1024  -15.7074 C   0  0  0  0  0  0  0  0  0  0  0  0
   20.6184   -6.7863  -16.9177 O   0  0  0  0  0  0  0  0  0  0  0  0
   19.5563   -2.1820  -15.9554 N   0  0  0  0  0  0  0  0  0  0  0  0
   18.5663   -3.0447  -15.3843 C   0  0  0  0  0  0  0  0  0  0  0  0
   17.4077   -2.5840  -15.2113 O   0  0  0  0  0  0  0  0  0  0  0  0
   18.9583   -4.4088  -15.0358 C   0  0  0  0  0  0  0  0  0  0  0  0
   20.4251   -4.7124  -15.2586 C   0  0  2  0  0  0  0  0  0  0  0  0
   20.6212   -6.0591  -14.7671 N   0  0  0  0  0  0  0  0  0  0  0  0
   21.2179   -3.7228  -14.4871 C   0  0  0  0  0  0  0  0  0  0  0  0
   22.0082   -4.2087  -13.4354 O   0  0  0  0  0  0  0  0  0  0  0  0
   21.2349   -2.4999  -14.7007 O   0  0  0  0  0  0  0  0  0  0  0  0
  2  1  1  1
  2  7  1  0
  3  2  1  0
  3  4  1  0
  5  4  1  0
  5  9  1  0
  6  5  2  0
  7  8  2  0
 10 11  1  0
 10  7  1  0
 11 14  1  0
 11 12  1  6
 13 12  1  0
 14 21  1  0
 15 14  2  0
 17 16  1  0
 18 17  2  0
 19 17  1  0
 20 19  1  1
 21 20  1  0
 22 23  1  0
 22 20  1  0
 24 22  2  0
M  END
$$$$
