ECN.pdb
     RDKit          3D

 24 23  0  0  1  0  0  0  0  0999 V2000
   22.3331  -12.6494  -16.8111 N   0  0  0  0  0  0  0  0  0  0  0  0
   21.2258  -12.0977  -17.6100 C   0  0  1  0  0  0  0  0  0  0  0  0
   20.0017  -12.9892  -17.4562 C   0  0  0  0  0  0  0  0  0  0  0  0
   20.2996  -14.3682  -17.9227 C   0  0  0  0  0  0  0  0  0  0  0  0
   19.1593  -15.2759  -17.8159 C   0  0  0  0  0  0  0  0  0  0  0  0
   18.0891  -14.8655  -17.2728 O   0  0  0  0  0  0  0  0  0  0  0  0
   20.8616  -10.8017  -16.9881 C   0  0  0  0  0  0  0  0  0  0  0  0
   19.9074  -10.1675  -17.4911 O   0  0  0  0  0  0  0  0  0  0  0  0
   19.1830  -16.5689  -18.2802 O   0  0  0  0  0  0  0  0  0  0  0  0
   21.5326  -10.2696  -15.8794 N   0  0  0  0  0  0  0  0  0  0  0  0
   21.1118   -9.0413  -15.2120 C   0  0  1  0  0  0  0  0  0  0  0  0
   21.0238   -9.2616  -13.7208 C   0  0  0  0  0  0  0  0  0  0  0  0
   22.4840  -10.0779  -13.0822 S   0  0  0  0  0  0  0  0  0  0  0  0
   22.1870   -8.0554  -15.4752 C   0  0  0  0  0  0  0  0  0  0  0  0
   23.3668   -8.4482  -15.6953 O   0  0  0  0  0  0  0  0  0  0  0  0
   25.1846   -4.1057  -16.4302 N   0  0  0  0  0  0  0  0  0  0  0  0
   24.3420   -4.5954  -17.4794 C   0  0  0  0  0  0  0  0  0  0  0  0
   24.5672   -4.2004  -18.6533 O   0  0  0  0  0  0  0  0  0  0  0  0
   23.2704   -5.5243  -17.1266 C   0  0  0  0  0  0  0  0  0  0  0  0
   23.1442   -5.7963  -15.6422 C   0  0  2  0  0  0  0  0  0  0  0  0
   21.9880   -6.6550  -15.5025 N   0  0  0  0  0  0  0  0  0  0  0  0
   22.9511   -4.4950  -14.9551 C   0  0  0  0  0  0  0  0  0  0  0  0
   24.0626   -3.6452  -14.8591 O   0  0  0  0  0  0  0  0  0  0  0  0
   21.8829   -4.1017  -14.4593 O   0  0  0  0  0  0  0  0  0  0  0  0
  2  1  1  1
  2  7  1  0
  3  2  1  0
  3  4  1  0
  5  4  1  0
  5  9  1  0
  6  5  2  0
  7  8  2  0
 10 11  1  0
 10  7  1  0
 11 14  1  0
 11 12  1  1
 13 12  1  0
 14 21  1  0
 15 14  2  0
 17 16  1  0
 18 17  2  0
 19 17  1  0
 20 19  1  6
 21 20  1  0
 22 23  1  0
 22 20  1  0
 24 22  2  0
M  END
$$$$
