ECN.pdb
     RDKit          3D

 24 23  0  0  1  0  0  0  0  0999 V2000
   19.0701  -13.1225  -16.8406 N   0  0  0  0  0  0  0  0  0  0  0  0
   19.1399  -11.7022  -17.2233 C   0  0  1  0  0  0  0  0  0  0  0  0
   17.7763  -11.0580  -17.0171 C   0  0  0  0  0  0  0  0  0  0  0  0
   16.7851  -11.6199  -17.9711 C   0  0  0  0  0  0  0  0  0  0  0  0
   15.4426  -11.0667  -17.8058 C   0  0  0  0  0  0  0  0  0  0  0  0
   14.4383  -11.8331  -17.9186 O   0  0  0  0  0  0  0  0  0  0  0  0
   20.0468  -11.0469  -16.2500 C   0  0  0  0  0  0  0  0  0  0  0  0
   19.7510  -11.1316  -15.0372 O   0  0  0  0  0  0  0  0  0  0  0  0
   15.2055   -9.7419  -17.5294 O   0  0  0  0  0  0  0  0  0  0  0  0
   21.2010  -10.3493  -16.6293 N   0  0  0  0  0  0  0  0  0  0  0  0
   22.0727   -9.6772  -15.6703 C   0  0  1  0  0  0  0  0  0  0  0  0
   23.5151  -10.0362  -15.9356 C   0  0  0  0  0  0  0  0  0  0  0  0
   24.2785  -10.8141  -14.5148 S   0  0  0  0  0  0  0  0  0  0  0  0
   21.8992   -8.2267  -15.9213 C   0  0  0  0  0  0  0  0  0  0  0  0
   21.6170   -7.8137  -17.0808 O   0  0  0  0  0  0  0  0  0  0  0  0
   20.8600   -3.3091  -15.8244 N   0  0  0  0  0  0  0  0  0  0  0  0
   19.8826   -4.3556  -15.8326 C   0  0  0  0  0  0  0  0  0  0  0  0
   18.6872   -4.0480  -16.0796 O   0  0  0  0  0  0  0  0  0  0  0  0
   20.3294   -5.7188  -15.5538 C   0  0  0  0  0  0  0  0  0  0  0  0
   21.8170   -5.8483  -15.3013 C   0  0  2  0  0  0  0  0  0  0  0  0
   22.0275   -7.2297  -14.9258 N   0  0  0  0  0  0  0  0  0  0  0  0
   22.1757   -4.9172  -14.2025 C   0  0  0  0  0  0  0  0  0  0  0  0
   22.1161   -3.5431  -14.4765 O   0  0  0  0  0  0  0  0  0  0  0  0
   22.5241   -5.2608  -13.0615 O   0  0  0  0  0  0  0  0  0  0  0  0
  2  1  1  1
  2  7  1  0
  3  2  1  0
  3  4  1  0
  5  4  1  0
  5  9  1  0
  6  5  2  0
  7  8  2  0
 10 11  1  0
 10  7  1  0
 11 14  1  0
 11 12  1  6
 13 12  1  0
 14 21  1  0
 15 14  2  0
 17 16  1  0
 18 17  2  0
 19 17  1  0
 20 19  1  1
 21 20  1  0
 22 23  1  0
 22 20  1  0
 24 22  2  0
M  END
$$$$
