ECN.pdb
     RDKit          3D

 24 23  0  0  1  0  0  0  0  0999 V2000
   18.8640  -13.1537  -16.1367 N   0  0  0  0  0  0  0  0  0  0  0  0
   18.7107  -11.7003  -16.3177 C   0  0  1  0  0  0  0  0  0  0  0  0
   17.4072  -11.2480  -15.6748 C   0  0  0  0  0  0  0  0  0  0  0  0
   16.2425  -11.7649  -16.4391 C   0  0  0  0  0  0  0  0  0  0  0  0
   14.9549  -11.3947  -15.8555 C   0  0  0  0  0  0  0  0  0  0  0  0
   14.3808  -10.3326  -16.2441 O   0  0  0  0  0  0  0  0  0  0  0  0
   19.7922  -11.0605  -15.5301 C   0  0  0  0  0  0  0  0  0  0  0  0
   20.1231  -11.6059  -14.4537 O   0  0  0  0  0  0  0  0  0  0  0  0
   14.3220  -12.1466  -14.8953 O   0  0  0  0  0  0  0  0  0  0  0  0
   20.4457   -9.8902  -15.9374 N   0  0  0  0  0  0  0  0  0  0  0  0
   21.5271   -9.2779  -15.1713 C   0  0  1  0  0  0  0  0  0  0  0  0
   22.8653   -9.6926  -15.7346 C   0  0  0  0  0  0  0  0  0  0  0  0
   23.9411  -10.3603  -14.4685 S   0  0  0  0  0  0  0  0  0  0  0  0
   21.3735   -7.8160  -15.3619 C   0  0  0  0  0  0  0  0  0  0  0  0
   21.4046   -7.3218  -16.5236 O   0  0  0  0  0  0  0  0  0  0  0  0
   20.5957   -2.7930  -14.9411 N   0  0  0  0  0  0  0  0  0  0  0  0
   19.5117   -3.5975  -14.4636 C   0  0  0  0  0  0  0  0  0  0  0  0
   18.4008   -3.0389  -14.2675 O   0  0  0  0  0  0  0  0  0  0  0  0
   19.7580   -5.0193  -14.2318 C   0  0  0  0  0  0  0  0  0  0  0  0
   21.1469   -5.4829  -14.6182 C   0  0  2  0  0  0  0  0  0  0  0  0
   21.1853   -6.8949  -14.3047 N   0  0  0  0  0  0  0  0  0  0  0  0
   22.1257   -4.7119  -13.8118 C   0  0  0  0  0  0  0  0  0  0  0  0
   22.4124   -3.4027  -14.2246 O   0  0  0  0  0  0  0  0  0  0  0  0
   22.7095   -5.1364  -12.8017 O   0  0  0  0  0  0  0  0  0  0  0  0
  2  1  1  1
  2  7  1  0
  3  2  1  0
  3  4  1  0
  5  4  1  0
  5  9  1  0
  6  5  2  0
  7  8  2  0
 10 11  1  0
 10  7  1  0
 11 14  1  0
 11 12  1  6
 13 12  1  0
 14 21  1  0
 15 14  2  0
 17 16  1  0
 18 17  2  0
 19 17  1  0
 20 19  1  1
 21 20  1  0
 22 23  1  0
 22 20  1  0
 24 22  2  0
M  END
$$$$
