ECN.pdb
     RDKit          3D

 24 23  0  0  1  0  0  0  0  0999 V2000
   12.9193  -10.3451   -9.5692 N   0  0  0  0  0  0  0  0  0  0  0  0
   14.3860  -10.2989   -9.6934 C   0  0  1  0  0  0  0  0  0  0  0  0
   14.8111  -11.0808  -10.9282 C   0  0  0  0  0  0  0  0  0  0  0  0
   14.5369  -12.5300  -10.7472 C   0  0  0  0  0  0  0  0  0  0  0  0
   14.8072  -13.3254  -11.9430 C   0  0  0  0  0  0  0  0  0  0  0  0
   14.5827  -14.5735  -11.9209 O   0  0  0  0  0  0  0  0  0  0  0  0
   14.7420   -8.8859   -9.9684 C   0  0  0  0  0  0  0  0  0  0  0  0
   13.8879   -8.1768  -10.5457 O   0  0  0  0  0  0  0  0  0  0  0  0
   15.2971  -12.7865  -13.1081 O   0  0  0  0  0  0  0  0  0  0  0  0
   15.9754   -8.3245   -9.6131 N   0  0  0  0  0  0  0  0  0  0  0  0
   16.3339   -6.9418   -9.9148 C   0  0  1  0  0  0  0  0  0  0  0  0
   16.2841   -6.1041   -8.6596 C   0  0  0  0  0  0  0  0  0  0  0  0
   14.6055   -5.6567   -8.2255 S   0  0  0  0  0  0  0  0  0  0  0  0
   17.7373   -6.9877  -10.3896 C   0  0  0  0  0  0  0  0  0  0  0  0
   18.5612   -7.7820   -9.8556 O   0  0  0  0  0  0  0  0  0  0  0  0
   20.7792   -9.6796  -13.6223 N   0  0  0  0  0  0  0  0  0  0  0  0
   20.7653   -8.3774  -13.0269 C   0  0  0  0  0  0  0  0  0  0  0  0
   21.8476   -7.7362  -12.9790 O   0  0  0  0  0  0  0  0  0  0  0  0
   19.4966   -7.8688  -12.5098 C   0  0  0  0  0  0  0  0  0  0  0  0
   19.5713   -6.4665  -11.9430 C   0  0  2  0  0  0  0  0  0  0  0  0
   18.2463   -6.1825  -11.4356 N   0  0  0  0  0  0  0  0  0  0  0  0
   19.9479   -5.5481  -13.0464 C   0  0  0  0  0  0  0  0  0  0  0  0
   21.3099   -5.2531  -13.2033 O   0  0  0  0  0  0  0  0  0  0  0  0
   19.1512   -5.0217  -13.8398 O   0  0  0  0  0  0  0  0  0  0  0  0
  2  1  1  6
  2  7  1  0
  3  2  1  0
  3  4  1  0
  5  4  1  0
  5  9  1  0
  6  5  2  0
  7  8  2  0
 10 11  1  0
 10  7  1  0
 11 14  1  0
 11 12  1  1
 13 12  1  0
 14 21  1  0
 15 14  2  0
 17 16  1  0
 18 17  2  0
 19 17  1  0
 20 19  1  6
 21 20  1  0
 22 23  1  0
 22 20  1  0
 24 22  2  0
M  END
$$$$
