ECN.pdb
     RDKit          3D

 24 23  0  0  1  0  0  0  0  0999 V2000
   22.6081  -10.2916  -19.8056 N   0  0  0  0  0  0  0  0  0  0  0  0
   21.1564  -10.5363  -19.7668 C   0  0  1  0  0  0  0  0  0  0  0  0
   20.9015  -12.0317  -19.6416 C   0  0  0  0  0  0  0  0  0  0  0  0
   21.7823  -12.6252  -18.6024 C   0  0  0  0  0  0  0  0  0  0  0  0
   21.6639  -14.0783  -18.5023 C   0  0  0  0  0  0  0  0  0  0  0  0
   22.7056  -14.7938  -18.6096 O   0  0  0  0  0  0  0  0  0  0  0  0
   20.6608   -9.9355  -18.5049 C   0  0  0  0  0  0  0  0  0  0  0  0
   19.4376  -10.0329  -18.2600 O   0  0  0  0  0  0  0  0  0  0  0  0
   20.4678  -14.7213  -18.2936 O   0  0  0  0  0  0  0  0  0  0  0  0
   21.4943   -9.2751  -17.5928 N   0  0  0  0  0  0  0  0  0  0  0  0
   21.0020   -8.6865  -16.3508 C   0  0  1  0  0  0  0  0  0  0  0  0
   22.1244   -8.5713  -15.3473 C   0  0  0  0  0  0  0  0  0  0  0  0
   21.5982   -7.7332  -13.8550 S   0  0  0  0  0  0  0  0  0  0  0  0
   20.5528   -7.3197  -16.7072 C   0  0  0  0  0  0  0  0  0  0  0  0
   21.2766   -6.5847  -17.4357 O   0  0  0  0  0  0  0  0  0  0  0  0
   15.9155   -3.9388  -18.0037 N   0  0  0  0  0  0  0  0  0  0  0  0
   17.3173   -4.2202  -18.0820 C   0  0  0  0  0  0  0  0  0  0  0  0
   18.0684   -3.3509  -18.5966 O   0  0  0  0  0  0  0  0  0  0  0  0
   17.7942   -5.4995  -17.5604 C   0  0  0  0  0  0  0  0  0  0  0  0
   19.0218   -5.3953  -16.6798 C   0  0  2  0  0  0  0  0  0  0  0  0
   19.3290   -6.7519  -16.2812 N   0  0  0  0  0  0  0  0  0  0  0  0
   18.6764   -4.5429  -15.5149 C   0  0  0  0  0  0  0  0  0  0  0  0
   19.0053   -3.1818  -15.5918 O   0  0  0  0  0  0  0  0  0  0  0  0
   18.1197   -4.9417  -14.4793 O   0  0  0  0  0  0  0  0  0  0  0  0
  2  1  1  1
  2  7  1  0
  3  2  1  0
  3  4  1  0
  5  4  1  0
  5  9  1  0
  6  5  2  0
  7  8  2  0
 10 11  1  0
 10  7  1  0
 11 14  1  0
 11 12  1  1
 13 12  1  0
 14 21  1  0
 15 14  2  0
 17 16  1  0
 18 17  2  0
 19 17  1  0
 20 19  1  6
 21 20  1  0
 22 23  1  0
 22 20  1  0
 24 22  2  0
M  END
$$$$
