ECN.pdb
     RDKit          3D

 24 23  0  0  1  0  0  0  0  0999 V2000
   19.9233  -12.8718  -16.5679 N   0  0  0  0  0  0  0  0  0  0  0  0
   19.1708  -11.6344  -16.3010 C   0  0  1  0  0  0  0  0  0  0  0  0
   17.9102  -11.9714  -15.5172 C   0  0  0  0  0  0  0  0  0  0  0  0
   16.9572  -12.7331  -16.3656 C   0  0  0  0  0  0  0  0  0  0  0  0
   15.7007  -13.0468  -15.6887 C   0  0  0  0  0  0  0  0  0  0  0  0
   15.5189  -14.2150  -15.2294 O   0  0  0  0  0  0  0  0  0  0  0  0
   20.0081  -10.8199  -15.3874 C   0  0  0  0  0  0  0  0  0  0  0  0
   20.2193  -11.2722  -14.2401 O   0  0  0  0  0  0  0  0  0  0  0  0
   14.6906  -12.1310  -15.5188 O   0  0  0  0  0  0  0  0  0  0  0  0
   20.5617   -9.5860  -15.7529 N   0  0  0  0  0  0  0  0  0  0  0  0
   21.4919   -8.8505  -14.9014 C   0  0  1  0  0  0  0  0  0  0  0  0
   22.9163   -9.1636  -15.2926 C   0  0  0  0  0  0  0  0  0  0  0  0
   23.1519   -9.0815  -17.0657 S   0  0  0  0  0  0  0  0  0  0  0  0
   21.2370   -7.4165  -15.1767 C   0  0  0  0  0  0  0  0  0  0  0  0
   20.5154   -7.0780  -16.1562 O   0  0  0  0  0  0  0  0  0  0  0  0
   20.3150   -2.4802  -15.0610 N   0  0  0  0  0  0  0  0  0  0  0  0
   19.4080   -3.5090  -14.6494 C   0  0  0  0  0  0  0  0  0  0  0  0
   18.2019   -3.1978  -14.4677 O   0  0  0  0  0  0  0  0  0  0  0  0
   19.9350   -4.8595  -14.4641 C   0  0  0  0  0  0  0  0  0  0  0  0
   21.4130   -4.9987  -14.7632 C   0  0  2  0  0  0  0  0  0  0  0  0
   21.7562   -6.3560  -14.3976 N   0  0  0  0  0  0  0  0  0  0  0  0
   22.1412   -4.0039  -13.9368 C   0  0  0  0  0  0  0  0  0  0  0  0
   22.6488   -4.4379  -12.7036 O   0  0  0  0  0  0  0  0  0  0  0  0
   22.3350   -2.8190  -14.2528 O   0  0  0  0  0  0  0  0  0  0  0  0
  2  1  1  1
  2  7  1  0
  3  2  1  0
  3  4  1  0
  5  4  1  0
  5  9  1  0
  6  5  2  0
  7  8  2  0
 10 11  1  0
 10  7  1  0
 11 14  1  0
 11 12  1  6
 13 12  1  0
 14 21  1  0
 15 14  2  0
 17 16  1  0
 18 17  2  0
 19 17  1  0
 20 19  1  1
 21 20  1  0
 22 23  1  0
 22 20  1  0
 24 22  2  0
M  END
$$$$
