ECN.pdb
     RDKit          3D

 24 23  0  0  1  0  0  0  0  0999 V2000
   13.0428   -9.3128  -12.1233 N   0  0  0  0  0  0  0  0  0  0  0  0
   14.4854   -9.5530  -11.9502 C   0  0  1  0  0  0  0  0  0  0  0  0
   15.0852   -9.9920  -13.2785 C   0  0  0  0  0  0  0  0  0  0  0  0
   14.6943  -11.3915  -13.5896 C   0  0  0  0  0  0  0  0  0  0  0  0
   15.4550  -12.3872  -12.8376 C   0  0  0  0  0  0  0  0  0  0  0  0
   14.8661  -13.0776  -11.9515 O   0  0  0  0  0  0  0  0  0  0  0  0
   15.0988   -8.2377  -11.6457 C   0  0  0  0  0  0  0  0  0  0  0  0
   14.6025   -7.2282  -12.1935 O   0  0  0  0  0  0  0  0  0  0  0  0
   16.7935  -12.6208  -13.0423 O   0  0  0  0  0  0  0  0  0  0  0  0
   16.1927   -8.0847  -10.7840 N   0  0  0  0  0  0  0  0  0  0  0  0
   16.7315   -6.7804  -10.4100 C   0  0  1  0  0  0  0  0  0  0  0  0
   16.6040   -6.5710   -8.9201 C   0  0  0  0  0  0  0  0  0  0  0  0
   14.8950   -6.3861   -8.4188 S   0  0  0  0  0  0  0  0  0  0  0  0
   18.1728   -6.8306  -10.7524 C   0  0  0  0  0  0  0  0  0  0  0  0
   18.8958   -7.7684  -10.3139 O   0  0  0  0  0  0  0  0  0  0  0  0
   22.2266   -8.6154  -12.9004 N   0  0  0  0  0  0  0  0  0  0  0  0
   21.3076   -7.7453  -13.5704 C   0  0  0  0  0  0  0  0  0  0  0  0
   21.6129   -7.3328  -14.7198 O   0  0  0  0  0  0  0  0  0  0  0  0
   20.0697   -7.3869  -12.8812 C   0  0  0  0  0  0  0  0  0  0  0  0
   20.1764   -6.1544  -12.0078 C   0  0  2  0  0  0  0  0  0  0  0  0
   18.8275   -5.8752  -11.5649 N   0  0  0  0  0  0  0  0  0  0  0  0
   20.7233   -5.0528  -12.8386 C   0  0  0  0  0  0  0  0  0  0  0  0
   22.1178   -4.9125  -12.8866 O   0  0  0  0  0  0  0  0  0  0  0  0
   20.0422   -4.2471  -13.4931 O   0  0  0  0  0  0  0  0  0  0  0  0
  2  1  1  6
  2  7  1  0
  3  2  1  0
  3  4  1  0
  5  4  1  0
  5  9  1  0
  6  5  2  0
  7  8  2  0
 10 11  1  0
 10  7  1  0
 11 14  1  0
 11 12  1  1
 13 12  1  0
 14 21  1  0
 15 14  2  0
 17 16  1  0
 18 17  2  0
 19 17  1  0
 20 19  1  6
 21 20  1  0
 22 23  1  0
 22 20  1  0
 24 22  2  0
M  END
$$$$
