ECN.pdb
     RDKit          3D

 24 23  0  0  1  0  0  0  0  0999 V2000
   28.0123  -21.4540  -16.1991 N   0  0  0  0  0  0  0  0  0  0  0  0
   27.4643  -20.5302  -15.1916 C   0  0  1  0  0  0  0  0  0  0  0  0
   26.5528  -19.5219  -15.8767 C   0  0  0  0  0  0  0  0  0  0  0  0
   27.3353  -18.6471  -16.7879 C   0  0  0  0  0  0  0  0  0  0  0  0
   27.7667  -17.3979  -16.1643 C   0  0  0  0  0  0  0  0  0  0  0  0
   28.5936  -16.6541  -16.7739 O   0  0  0  0  0  0  0  0  0  0  0  0
   26.5841  -21.3379  -14.3129 C   0  0  0  0  0  0  0  0  0  0  0  0
   26.2130  -22.4551  -14.7367 O   0  0  0  0  0  0  0  0  0  0  0  0
   27.3174  -16.9780  -14.9356 O   0  0  0  0  0  0  0  0  0  0  0  0
   26.1599  -20.9060  -13.0495 N   0  0  0  0  0  0  0  0  0  0  0  0
   25.3328  -21.7244  -12.1679 C   0  0  1  0  0  0  0  0  0  0  0  0
   25.7273  -21.5020  -10.7275 C   0  0  0  0  0  0  0  0  0  0  0  0
   25.7995  -19.7599  -10.3197 S   0  0  0  0  0  0  0  0  0  0  0  0
   23.9461  -21.2346  -12.3528 C   0  0  0  0  0  0  0  0  0  0  0  0
   23.7359  -20.0269  -12.6563 O   0  0  0  0  0  0  0  0  0  0  0  0
   19.2872  -20.2867  -13.6854 N   0  0  0  0  0  0  0  0  0  0  0  0
   20.3089  -19.4578  -13.1202 C   0  0  0  0  0  0  0  0  0  0  0  0
   20.1088  -18.2156  -13.0789 O   0  0  0  0  0  0  0  0  0  0  0  0
   21.5237  -20.1015  -12.6245 C   0  0  0  0  0  0  0  0  0  0  0  0
   21.5608  -21.6020  -12.8255 C   0  0  2  0  0  0  0  0  0  0  0  0
   22.7947  -22.0447  -12.2129 N   0  0  0  0  0  0  0  0  0  0  0  0
   21.5440  -21.8670  -14.2858 C   0  0  0  0  0  0  0  0  0  0  0  0
   22.7008  -21.5494  -15.0122 O   0  0  0  0  0  0  0  0  0  0  0  0
   20.5860  -22.3473  -14.9126 O   0  0  0  0  0  0  0  0  0  0  0  0
  2  1  1  6
  2  7  1  0
  3  2  1  0
  3  4  1  0
  5  4  1  0
  5  9  1  0
  6  5  2  0
  7  8  2  0
 10 11  1  0
 10  7  1  0
 11 14  1  0
 11 12  1  1
 13 12  1  0
 14 21  1  0
 15 14  2  0
 17 16  1  0
 18 17  2  0
 19 17  1  0
 20 19  1  6
 21 20  1  0
 22 23  1  0
 22 20  1  0
 24 22  2  0
M  END
$$$$
