ECN.pdb
     RDKit          3D

 24 23  0  0  1  0  0  0  0  0999 V2000
   20.1259  -14.0489  -17.0846 N   0  0  0  0  0  0  0  0  0  0  0  0
   19.9051  -12.6050  -17.2723 C   0  0  1  0  0  0  0  0  0  0  0  0
   18.4697  -12.2628  -16.8989 C   0  0  0  0  0  0  0  0  0  0  0  0
   17.5154  -13.0141  -17.7551 C   0  0  0  0  0  0  0  0  0  0  0  0
   16.1154  -12.7781  -17.4087 C   0  0  0  0  0  0  0  0  0  0  0  0
   15.6700  -11.5906  -17.4031 O   0  0  0  0  0  0  0  0  0  0  0  0
   20.7571  -11.9144  -16.2742 C   0  0  0  0  0  0  0  0  0  0  0  0
   20.6086  -12.2281  -15.0721 O   0  0  0  0  0  0  0  0  0  0  0  0
   15.2417  -13.7881  -17.0854 O   0  0  0  0  0  0  0  0  0  0  0  0
   21.7048  -10.9420  -16.6192 N   0  0  0  0  0  0  0  0  0  0  0  0
   22.5022  -10.2249  -15.6285 C   0  0  1  0  0  0  0  0  0  0  0  0
   23.9734  -10.4604  -15.8736 C   0  0  0  0  0  0  0  0  0  0  0  0
   24.5826  -11.8716  -14.9550 S   0  0  0  0  0  0  0  0  0  0  0  0
   22.2165   -8.7875  -15.8505 C   0  0  0  0  0  0  0  0  0  0  0  0
   21.9321   -8.3694  -17.0076 O   0  0  0  0  0  0  0  0  0  0  0  0
   20.8053   -3.9786  -15.7375 N   0  0  0  0  0  0  0  0  0  0  0  0
   19.9582   -5.1147  -15.9426 C   0  0  0  0  0  0  0  0  0  0  0  0
   18.7949   -4.9152  -16.3802 O   0  0  0  0  0  0  0  0  0  0  0  0
   20.4930   -6.4389  -15.6321 C   0  0  0  0  0  0  0  0  0  0  0  0
   21.9386   -6.4376  -15.1808 C   0  0  2  0  0  0  0  0  0  0  0  0
   22.2359   -7.8092  -14.8287 N   0  0  0  0  0  0  0  0  0  0  0  0
   22.0501   -5.5312  -14.0108 C   0  0  0  0  0  0  0  0  0  0  0  0
   21.7202   -6.0577  -12.7535 O   0  0  0  0  0  0  0  0  0  0  0  0
   22.4123   -4.3447  -14.0596 O   0  0  0  0  0  0  0  0  0  0  0  0
  2  1  1  1
  2  7  1  0
  3  2  1  0
  3  4  1  0
  5  4  1  0
  5  9  1  0
  6  5  2  0
  7  8  2  0
 10 11  1  0
 10  7  1  0
 11 14  1  0
 11 12  1  6
 13 12  1  0
 14 21  1  0
 15 14  2  0
 17 16  1  0
 18 17  2  0
 19 17  1  0
 20 19  1  1
 21 20  1  0
 22 23  1  0
 22 20  1  0
 24 22  2  0
M  END
$$$$
