ECN.pdb
     RDKit          3D

 24 23  0  0  1  0  0  0  0  0999 V2000
   21.8982  -17.9402  -16.4082 N   0  0  0  0  0  0  0  0  0  0  0  0
   20.7235  -17.2601  -15.8370 C   0  0  1  0  0  0  0  0  0  0  0  0
   20.2804  -17.9929  -14.5786 C   0  0  0  0  0  0  0  0  0  0  0  0
   19.9485  -19.4077  -14.8892 C   0  0  0  0  0  0  0  0  0  0  0  0
   19.5813  -20.1897  -13.7106 C   0  0  0  0  0  0  0  0  0  0  0  0
   19.6746  -19.6603  -12.5618 O   0  0  0  0  0  0  0  0  0  0  0  0
   21.1867  -15.9259  -15.3848 C   0  0  0  0  0  0  0  0  0  0  0  0
   21.8175  -15.8686  -14.3057 O   0  0  0  0  0  0  0  0  0  0  0  0
   19.1323  -21.4864  -13.7802 O   0  0  0  0  0  0  0  0  0  0  0  0
   20.9496  -14.7486  -16.1062 N   0  0  0  0  0  0  0  0  0  0  0  0
   21.4812  -13.4503  -15.7024 C   0  0  1  0  0  0  0  0  0  0  0  0
   22.8000  -13.1897  -16.3901 C   0  0  0  0  0  0  0  0  0  0  0  0
   22.7267  -13.5774  -18.1367 S   0  0  0  0  0  0  0  0  0  0  0  0
   20.4988  -12.4496  -16.1829 C   0  0  0  0  0  0  0  0  0  0  0  0
   19.9437  -12.5962  -17.3076 O   0  0  0  0  0  0  0  0  0  0  0  0
   17.3376   -8.4306  -16.7147 N   0  0  0  0  0  0  0  0  0  0  0  0
   17.1934   -9.0352  -15.4247 C   0  0  0  0  0  0  0  0  0  0  0  0
   16.2563   -8.6363  -14.6847 O   0  0  0  0  0  0  0  0  0  0  0  0
   18.1419  -10.0792  -15.0423 C   0  0  0  0  0  0  0  0  0  0  0  0
   19.2159  -10.3544  -16.0739 C   0  0  2  0  0  0  0  0  0  0  0  0
   20.1174  -11.2999  -15.4520 N   0  0  0  0  0  0  0  0  0  0  0  0
   19.8913   -9.0694  -16.3829 C   0  0  0  0  0  0  0  0  0  0  0  0
   21.2360   -8.9409  -16.0061 O   0  0  0  0  0  0  0  0  0  0  0  0
   19.3582   -8.1011  -16.9481 O   0  0  0  0  0  0  0  0  0  0  0  0
  2  1  1  1
  2  7  1  0
  3  2  1  0
  3  4  1  0
  5  4  1  0
  5  9  1  0
  6  5  2  0
  7  8  2  0
 10 11  1  0
 10  7  1  0
 11 14  1  0
 11 12  1  6
 13 12  1  0
 14 21  1  0
 15 14  2  0
 17 16  1  0
 18 17  2  0
 19 17  1  0
 20 19  1  1
 21 20  1  0
 22 23  1  0
 22 20  1  0
 24 22  2  0
M  END
$$$$
