ECN.pdb
     RDKit          3D

 24 23  0  0  1  0  0  0  0  0999 V2000
   28.4489  -20.5087  -15.6130 N   0  0  0  0  0  0  0  0  0  0  0  0
   27.8606  -19.7860  -14.4727 C   0  0  1  0  0  0  0  0  0  0  0  0
   27.0958  -18.5741  -14.9856 C   0  0  0  0  0  0  0  0  0  0  0  0
   28.0343  -17.5545  -15.5219 C   0  0  0  0  0  0  0  0  0  0  0  0
   28.2639  -17.6764  -16.9599 C   0  0  0  0  0  0  0  0  0  0  0  0
   27.2712  -17.8219  -17.7359 O   0  0  0  0  0  0  0  0  0  0  0  0
   26.8407  -20.6867  -13.8831 C   0  0  0  0  0  0  0  0  0  0  0  0
   26.2157  -21.4403  -14.6623 O   0  0  0  0  0  0  0  0  0  0  0  0
   29.5153  -17.6400  -17.5260 O   0  0  0  0  0  0  0  0  0  0  0  0
   26.5551  -20.7257  -12.5121 N   0  0  0  0  0  0  0  0  0  0  0  0
   25.4676  -21.5215  -11.9507 C   0  0  1  0  0  0  0  0  0  0  0  0
   25.5385  -21.5114  -10.4424 C   0  0  0  0  0  0  0  0  0  0  0  0
   25.4912  -19.8461   -9.7860 S   0  0  0  0  0  0  0  0  0  0  0  0
   24.2185  -20.8385  -12.3636 C   0  0  0  0  0  0  0  0  0  0  0  0
   24.2710  -19.7174  -12.9424 O   0  0  0  0  0  0  0  0  0  0  0  0
   19.9060  -20.1246  -14.7892 N   0  0  0  0  0  0  0  0  0  0  0  0
   21.0873  -20.7452  -15.3086 C   0  0  0  0  0  0  0  0  0  0  0  0
   21.1856  -20.8810  -16.5562 O   0  0  0  0  0  0  0  0  0  0  0  0
   22.1092  -21.1846  -14.3608 C   0  0  0  0  0  0  0  0  0  0  0  0
   21.8232  -20.8165  -12.9200 C   0  0  2  0  0  0  0  0  0  0  0  0
   22.9219  -21.3645  -12.1545 N   0  0  0  0  0  0  0  0  0  0  0  0
   20.5264  -21.4311  -12.5412 C   0  0  0  0  0  0  0  0  0  0  0  0
   19.3686  -20.9156  -13.1417 O   0  0  0  0  0  0  0  0  0  0  0  0
   20.3880  -22.3648  -11.7347 O   0  0  0  0  0  0  0  0  0  0  0  0
  2  1  1  6
  2  7  1  0
  3  2  1  0
  3  4  1  0
  5  4  1  0
  5  9  1  0
  6  5  2  0
  7  8  2  0
 10 11  1  0
 10  7  1  0
 11 14  1  0
 11 12  1  1
 13 12  1  0
 14 21  1  0
 15 14  2  0
 17 16  1  0
 18 17  2  0
 19 17  1  0
 20 19  1  6
 21 20  1  0
 22 23  1  0
 22 20  1  0
 24 22  2  0
M  END
$$$$
