DQQ.pdb
     RDKit          3D

 27 26  0  0  1  0  0  0  0  0999 V2000
   13.4737  -10.6683  -10.8308 N   0  0  0  0  0  0  0  0  0  0  0  0
   14.7473  -10.5065  -11.4489 C   0  0  1  0  0  0  0  0  0  0  0  0
   14.7344  -10.9711  -12.9103 C   0  0  0  0  0  0  0  0  0  0  0  0
   14.6516  -12.4349  -12.9836 C   0  0  0  0  0  0  0  0  0  0  0  0
   14.6339  -13.1031  -11.9290 O   0  0  0  0  0  0  0  0  0  0  0  0
   15.1824   -9.0722  -11.4881 C   0  0  0  0  0  0  0  0  0  0  0  0
   14.3547   -8.1514  -11.7177 O   0  0  0  0  0  0  0  0  0  0  0  0
   14.5945  -13.0548  -14.2109 O   0  0  0  0  0  0  0  0  0  0  0  0
   15.4327   -4.5944   -8.4290 N   0  0  0  0  0  0  0  0  0  0  0  0
   15.3689   -5.9591   -8.0481 C   0  0  0  0  0  0  0  0  0  0  0  0
   15.0523   -6.1959   -6.8360 O   0  0  0  0  0  0  0  0  0  0  0  0
   15.6531   -7.0293   -9.0267 C   0  0  0  0  0  0  0  0  0  0  0  0
   16.0256   -6.4956  -10.3417 C   0  0  0  0  0  0  0  0  0  0  0  0
   16.9397   -7.2695  -11.2225 C   0  0  2  0  0  0  0  0  0  0  0  0
   16.5225   -8.6765  -11.2733 N   0  0  0  0  0  0  0  0  0  0  0  0
   18.3650   -7.0937  -11.1244 C   0  0  0  0  0  0  0  0  0  0  0  0
   19.0352   -7.6913  -10.2441 O   0  0  0  0  0  0  0  0  0  0  0  0
   20.9109   -8.5958  -16.0896 N   0  0  0  0  0  0  0  0  0  0  0  0
   22.1026   -8.3070  -15.3645 C   0  0  0  0  0  0  0  0  0  0  0  0
   23.2206   -8.6800  -15.8167 O   0  0  0  0  0  0  0  0  0  0  0  0
   22.0268   -7.5667  -14.0767 C   0  0  0  0  0  0  0  0  0  0  0  0
   20.6380   -7.2013  -13.6809 C   0  0  0  0  0  0  0  0  0  0  0  0
   20.4923   -6.5317  -12.3556 C   0  0  2  0  0  0  0  0  0  0  0  0
   19.1165   -6.2421  -12.0007 N   0  0  0  0  0  0  0  0  0  0  0  0
   21.1643   -5.1852  -12.4993 C   0  0  0  0  0  0  0  0  0  0  0  0
   22.4154   -5.1065  -12.5072 O   0  0  0  0  0  0  0  0  0  0  0  0
   20.4505   -4.0057  -12.6257 O   0  0  0  0  0  0  0  0  0  0  0  0
  2  1  1  6
  2  3  1  0
  3  4  1  0
  4  8  1  0
  5  4  2  0
  6  2  1  0
  7  6  2  0
  9 10  1  0
 10 12  1  0
 10 11  2  0
 12 13  1  0
 14 13  1  1
 14 15  1  0
 15  6  1  0
 16 17  2  0
 16 14  1  0
 18 19  1  0
 19 20  2  0
 21 19  1  0
 21 22  1  0
 23 22  1  6
 23 24  1  0
 24 16  1  0
 25 23  1  0
 26 25  2  0
 27 25  1  0
M  END
$$$$
