DQQ.pdb
     RDKit          3D

 27 26  0  0  1  0  0  0  0  0999 V2000
   15.9607  -12.0136  -15.7176 N   0  0  0  0  0  0  0  0  0  0  0  0
   17.2904  -11.5957  -15.4219 C   0  0  1  0  0  0  0  0  0  0  0  0
   18.3335  -12.5241  -16.0558 C   0  0  0  0  0  0  0  0  0  0  0  0
   18.2294  -13.8753  -15.4917 C   0  0  0  0  0  0  0  0  0  0  0  0
   17.4068  -14.0988  -14.5795 O   0  0  0  0  0  0  0  0  0  0  0  0
   17.5901  -10.2289  -15.9604 C   0  0  0  0  0  0  0  0  0  0  0  0
   17.1658   -9.8720  -17.0911 O   0  0  0  0  0  0  0  0  0  0  0  0
   19.0376  -14.8799  -15.9727 O   0  0  0  0  0  0  0  0  0  0  0  0
   17.3203   -6.5412  -18.5251 N   0  0  0  0  0  0  0  0  0  0  0  0
   17.1099   -5.5217  -17.5619 C   0  0  0  0  0  0  0  0  0  0  0  0
   17.0452   -4.3275  -18.0041 O   0  0  0  0  0  0  0  0  0  0  0  0
   16.9702   -5.8550  -16.1290 C   0  0  0  0  0  0  0  0  0  0  0  0
   17.1151   -7.2930  -15.8761 C   0  0  0  0  0  0  0  0  0  0  0  0
   18.4661   -7.8733  -15.6565 C   0  0  2  0  0  0  0  0  0  0  0  0
   18.3524   -9.2781  -15.2440 N   0  0  0  0  0  0  0  0  0  0  0  0
   19.4636   -7.1365  -14.9258 C   0  0  0  0  0  0  0  0  0  0  0  0
   19.5010   -7.1625  -13.6690 O   0  0  0  0  0  0  0  0  0  0  0  0
   25.1595   -5.9662  -17.3914 N   0  0  0  0  0  0  0  0  0  0  0  0
   25.2821   -5.3535  -16.1113 C   0  0  0  0  0  0  0  0  0  0  0  0
   26.3765   -4.8261  -15.7681 O   0  0  0  0  0  0  0  0  0  0  0  0
   24.1206   -5.3362  -15.1824 C   0  0  0  0  0  0  0  0  0  0  0  0
   22.8962   -5.9682  -15.7483 C   0  0  0  0  0  0  0  0  0  0  0  0
   21.6896   -5.9537  -14.8709 C   0  0  2  0  0  0  0  0  0  0  0  0
   20.4694   -6.3318  -15.5571 N   0  0  0  0  0  0  0  0  0  0  0  0
   21.4940   -4.5108  -14.4647 C   0  0  0  0  0  0  0  0  0  0  0  0
   20.7224   -3.7734  -15.1223 O   0  0  0  0  0  0  0  0  0  0  0  0
   22.1396   -3.9487  -13.3766 O   0  0  0  0  0  0  0  0  0  0  0  0
  2  1  1  6
  2  3  1  0
  3  4  1  0
  4  8  1  0
  5  4  2  0
  6  2  1  0
  7  6  2  0
  9 10  1  0
 10 12  1  0
 10 11  2  0
 12 13  1  0
 14 13  1  1
 14 15  1  0
 15  6  1  0
 16 17  2  0
 16 14  1  0
 18 19  1  0
 19 20  2  0
 21 19  1  0
 21 22  1  0
 23 22  1  6
 23 24  1  0
 24 16  1  0
 25 23  1  0
 26 25  2  0
 27 25  1  0
M  END
$$$$
