DQQ.pdb
     RDKit          3D

 27 26  0  0  1  0  0  0  0  0999 V2000
   12.8594  -10.3440  -13.0548 N   0  0  0  0  0  0  0  0  0  0  0  0
   14.0715  -10.5121  -12.3249 C   0  0  1  0  0  0  0  0  0  0  0  0
   15.0476  -11.4471  -13.0493 C   0  0  0  0  0  0  0  0  0  0  0  0
   14.5080  -12.8112  -13.1039 C   0  0  0  0  0  0  0  0  0  0  0  0
   14.3437  -13.3633  -14.2116 O   0  0  0  0  0  0  0  0  0  0  0  0
   14.8115   -9.2205  -12.1460 C   0  0  0  0  0  0  0  0  0  0  0  0
   15.0013   -8.4439  -13.1189 O   0  0  0  0  0  0  0  0  0  0  0  0
   14.1895  -13.4665  -11.9364 O   0  0  0  0  0  0  0  0  0  0  0  0
   14.2504   -5.7627   -7.2369 N   0  0  0  0  0  0  0  0  0  0  0  0
   15.2459   -4.9943   -7.8926 C   0  0  0  0  0  0  0  0  0  0  0  0
   15.5305   -3.8675   -7.3682 O   0  0  0  0  0  0  0  0  0  0  0  0
   15.9065   -5.5003   -9.1139 C   0  0  0  0  0  0  0  0  0  0  0  0
   15.4024   -6.8192   -9.5127 C   0  0  0  0  0  0  0  0  0  0  0  0
   15.9816   -7.5055  -10.6976 C   0  0  2  0  0  0  0  0  0  0  0  0
   15.3299   -8.8061  -10.8977 N   0  0  0  0  0  0  0  0  0  0  0  0
   17.4073   -7.5385  -10.8934 C   0  0  0  0  0  0  0  0  0  0  0  0
   18.1301   -8.3610  -10.2750 O   0  0  0  0  0  0  0  0  0  0  0  0
   20.2594  -10.3837  -14.4261 N   0  0  0  0  0  0  0  0  0  0  0  0
   21.3559   -9.5035  -14.1976 C   0  0  0  0  0  0  0  0  0  0  0  0
   22.5011   -9.7963  -14.6409 O   0  0  0  0  0  0  0  0  0  0  0  0
   21.1490   -8.2417  -13.4378 C   0  0  0  0  0  0  0  0  0  0  0  0
   19.7424   -8.0396  -12.9911 C   0  0  0  0  0  0  0  0  0  0  0  0
   19.4980   -6.8507  -12.1235 C   0  0  2  0  0  0  0  0  0  0  0  0
   18.1010   -6.6563  -11.7868 N   0  0  0  0  0  0  0  0  0  0  0  0
   19.8841   -5.6487  -12.9550 C   0  0  0  0  0  0  0  0  0  0  0  0
   19.0019   -4.9958  -13.5608 O   0  0  0  0  0  0  0  0  0  0  0  0
   21.1948   -5.2220  -13.0847 O   0  0  0  0  0  0  0  0  0  0  0  0
  2  1  1  6
  2  3  1  0
  3  4  1  0
  4  8  1  0
  5  4  2  0
  6  2  1  0
  7  6  2  0
  9 10  1  0
 10 12  1  0
 10 11  2  0
 12 13  1  0
 14 13  1  1
 14 15  1  0
 15  6  1  0
 16 17  2  0
 16 14  1  0
 18 19  1  0
 19 20  2  0
 21 19  1  0
 21 22  1  0
 23 22  1  6
 23 24  1  0
 24 16  1  0
 25 23  1  0
 26 25  2  0
 27 25  1  0
M  END
$$$$
