DQQ.pdb
     RDKit          3D

 27 26  0  0  1  0  0  0  0  0999 V2000
   16.4374  -13.6966  -18.0682 N   0  0  0  0  0  0  0  0  0  0  0  0
   17.4677  -13.1657  -17.2394 C   0  0  1  0  0  0  0  0  0  0  0  0
   18.6934  -14.0861  -17.1943 C   0  0  0  0  0  0  0  0  0  0  0  0
   18.3689  -15.3409  -16.5050 C   0  0  0  0  0  0  0  0  0  0  0  0
   17.2481  -15.4773  -15.9720 O   0  0  0  0  0  0  0  0  0  0  0  0
   17.9754  -11.8460  -17.7381 C   0  0  0  0  0  0  0  0  0  0  0  0
   18.6147  -11.7661  -18.8200 O   0  0  0  0  0  0  0  0  0  0  0  0
   19.3010  -16.3520  -16.4531 O   0  0  0  0  0  0  0  0  0  0  0  0
   16.2418   -9.1004  -21.4108 N   0  0  0  0  0  0  0  0  0  0  0  0
   16.9313   -7.9373  -20.9826 C   0  0  0  0  0  0  0  0  0  0  0  0
   16.9066   -6.9387  -21.7750 O   0  0  0  0  0  0  0  0  0  0  0  0
   17.6278   -7.9102  -19.6795 C   0  0  0  0  0  0  0  0  0  0  0  0
   17.4848   -9.1731  -18.9464 C   0  0  0  0  0  0  0  0  0  0  0  0
   18.0994   -9.3213  -17.6009 C   0  0  2  0  0  0  0  0  0  0  0  0
   17.7700  -10.6362  -17.0362 N   0  0  0  0  0  0  0  0  0  0  0  0
   18.0237   -8.2477  -16.6450 C   0  0  0  0  0  0  0  0  0  0  0  0
   16.9661   -8.0212  -16.0034 O   0  0  0  0  0  0  0  0  0  0  0  0
   20.2619   -8.0521  -11.5682 N   0  0  0  0  0  0  0  0  0  0  0  0
   21.1675   -8.1696  -12.6615 C   0  0  0  0  0  0  0  0  0  0  0  0
   22.2755   -8.7528  -12.5012 O   0  0  0  0  0  0  0  0  0  0  0  0
   20.8054   -7.6053  -13.9891 C   0  0  0  0  0  0  0  0  0  0  0  0
   19.5224   -6.8484  -13.9843 C   0  0  0  0  0  0  0  0  0  0  0  0
   19.0447   -6.3661  -15.3130 C   0  0  2  0  0  0  0  0  0  0  0  0
   19.1214   -7.3705  -16.3560 N   0  0  0  0  0  0  0  0  0  0  0  0
   20.0102   -5.2792  -15.7272 C   0  0  0  0  0  0  0  0  0  0  0  0
   20.6826   -5.4049  -16.7777 O   0  0  0  0  0  0  0  0  0  0  0  0
   20.1940   -4.1237  -14.9870 O   0  0  0  0  0  0  0  0  0  0  0  0
  2  1  1  6
  2  3  1  0
  3  4  1  0
  4  8  1  0
  5  4  2  0
  6  2  1  0
  7  6  2  0
  9 10  1  0
 10 12  1  0
 10 11  2  0
 12 13  1  0
 14 13  1  6
 14 15  1  0
 15  6  1  0
 16 17  2  0
 16 14  1  0
 18 19  1  0
 19 20  2  0
 21 19  1  0
 21 22  1  0
 23 22  1  1
 23 24  1  0
 24 16  1  0
 25 23  1  0
 26 25  2  0
 27 25  1  0
M  END
$$$$
