DQQ.pdb
     RDKit          3D

 27 26  0  0  1  0  0  0  0  0999 V2000
   16.4301  -12.2817  -17.0958 N   0  0  0  0  0  0  0  0  0  0  0  0
   16.6079  -11.7277  -15.7951 C   0  0  1  0  0  0  0  0  0  0  0  0
   17.3892  -12.6737  -14.8751 C   0  0  0  0  0  0  0  0  0  0  0  0
   16.6181  -13.8966  -14.6209 C   0  0  0  0  0  0  0  0  0  0  0  0
   15.3781  -13.8260  -14.4932 O   0  0  0  0  0  0  0  0  0  0  0  0
   17.3968  -10.4530  -15.8228 C   0  0  0  0  0  0  0  0  0  0  0  0
   18.3747  -10.3146  -16.6041 O   0  0  0  0  0  0  0  0  0  0  0  0
   17.2679  -15.1060  -14.5261 O   0  0  0  0  0  0  0  0  0  0  0  0
   16.3296   -5.5064  -17.0214 N   0  0  0  0  0  0  0  0  0  0  0  0
   17.0934   -4.8630  -16.0143 C   0  0  0  0  0  0  0  0  0  0  0  0
   17.4362   -3.6569  -16.2453 O   0  0  0  0  0  0  0  0  0  0  0  0
   17.4532   -5.5750  -14.7703 C   0  0  0  0  0  0  0  0  0  0  0  0
   16.9332   -6.9467  -14.7445 C   0  0  0  0  0  0  0  0  0  0  0  0
   17.8402   -8.0876  -15.0376 C   0  0  2  0  0  0  0  0  0  0  0  0
   17.0949   -9.3519  -14.9891 N   0  0  0  0  0  0  0  0  0  0  0  0
   19.1393   -8.1599  -14.4220 C   0  0  0  0  0  0  0  0  0  0  0  0
   19.2923   -8.6721  -13.2837 O   0  0  0  0  0  0  0  0  0  0  0  0
   24.2984  -10.4321  -16.5101 N   0  0  0  0  0  0  0  0  0  0  0  0
   24.8308   -9.6980  -15.4115 C   0  0  0  0  0  0  0  0  0  0  0  0
   26.0328   -9.8673  -15.0647 O   0  0  0  0  0  0  0  0  0  0  0  0
   23.9697   -8.7339  -14.6760 C   0  0  0  0  0  0  0  0  0  0  0  0
   22.5586   -8.7119  -15.1530 C   0  0  0  0  0  0  0  0  0  0  0  0
   21.6350   -7.8012  -14.4158 C   0  0  2  0  0  0  0  0  0  0  0  0
   20.3342   -7.6642  -15.0419 N   0  0  0  0  0  0  0  0  0  0  0  0
   22.2652   -6.4291  -14.4895 C   0  0  0  0  0  0  0  0  0  0  0  0
   23.0289   -6.0399  -13.5748 O   0  0  0  0  0  0  0  0  0  0  0  0
   22.0359   -5.5591  -15.5419 O   0  0  0  0  0  0  0  0  0  0  0  0
  2  1  1  6
  2  3  1  0
  3  4  1  0
  4  8  1  0
  5  4  2  0
  6  2  1  0
  7  6  2  0
  9 10  1  0
 10 12  1  0
 10 11  2  0
 12 13  1  0
 14 13  1  1
 14 15  1  0
 15  6  1  0
 16 17  2  0
 16 14  1  0
 18 19  1  0
 19 20  2  0
 21 19  1  0
 21 22  1  0
 23 22  1  6
 23 24  1  0
 24 16  1  0
 25 23  1  0
 26 25  2  0
 27 25  1  0
M  END
$$$$
