DQQ.pdb
     RDKit          3D

 27 26  0  0  1  0  0  0  0  0999 V2000
   14.9247  -11.6861  -14.8034 N   0  0  0  0  0  0  0  0  0  0  0  0
   16.0146  -11.3649  -13.9436 C   0  0  1  0  0  0  0  0  0  0  0  0
   17.3647  -11.5125  -14.6558 C   0  0  0  0  0  0  0  0  0  0  0  0
   17.6106  -12.9169  -15.0052 C   0  0  0  0  0  0  0  0  0  0  0  0
   17.3992  -13.8076  -14.1562 O   0  0  0  0  0  0  0  0  0  0  0  0
   15.9649   -9.9436  -13.4689 C   0  0  0  0  0  0  0  0  0  0  0  0
   15.6063   -9.0160  -14.2414 O   0  0  0  0  0  0  0  0  0  0  0  0
   18.0708  -13.2370  -16.2620 O   0  0  0  0  0  0  0  0  0  0  0  0
   15.1066   -7.0239   -7.1322 N   0  0  0  0  0  0  0  0  0  0  0  0
   14.4915   -7.0654   -8.4095 C   0  0  0  0  0  0  0  0  0  0  0  0
   13.2289   -7.2417   -8.4260 O   0  0  0  0  0  0  0  0  0  0  0  0
   15.2950   -6.9036   -9.6391 C   0  0  0  0  0  0  0  0  0  0  0  0
   15.4831   -8.1726  -10.3513 C   0  0  0  0  0  0  0  0  0  0  0  0
   16.1928   -8.1900  -11.6575 C   0  0  2  0  0  0  0  0  0  0  0  0
   16.3111   -9.5680  -12.1507 N   0  0  0  0  0  0  0  0  0  0  0  0
   17.3842   -7.4049  -11.8477 C   0  0  0  0  0  0  0  0  0  0  0  0
   18.5123   -7.8402  -11.5022 O   0  0  0  0  0  0  0  0  0  0  0  0
   21.6913   -6.2491  -12.0452 N   0  0  0  0  0  0  0  0  0  0  0  0
   21.8205   -5.5283  -13.2671 C   0  0  0  0  0  0  0  0  0  0  0  0
   22.8984   -4.9270  -13.5322 O   0  0  0  0  0  0  0  0  0  0  0  0
   20.6857   -5.4861  -14.2276 C   0  0  0  0  0  0  0  0  0  0  0  0
   19.4644   -6.1839  -13.7371 C   0  0  0  0  0  0  0  0  0  0  0  0
   18.6083   -5.4122  -12.7898 C   0  0  2  0  0  0  0  0  0  0  0  0
   17.3801   -6.0944  -12.4311 N   0  0  0  0  0  0  0  0  0  0  0  0
   18.1775   -4.1732  -13.5411 C   0  0  0  0  0  0  0  0  0  0  0  0
   17.0470   -4.1287  -14.0810 O   0  0  0  0  0  0  0  0  0  0  0  0
   18.9880   -3.0577  -13.6662 O   0  0  0  0  0  0  0  0  0  0  0  0
  2  1  1  6
  2  3  1  0
  3  4  1  0
  4  8  1  0
  5  4  2  0
  6  2  1  0
  7  6  2  0
  9 10  1  0
 10 12  1  0
 10 11  2  0
 12 13  1  0
 14 13  1  1
 14 15  1  0
 15  6  1  0
 16 17  2  0
 16 14  1  0
 18 19  1  0
 19 20  2  0
 21 19  1  0
 21 22  1  0
 23 22  1  6
 23 24  1  0
 24 16  1  0
 25 23  1  0
 26 25  2  0
 27 25  1  0
M  END
$$$$
