DQQ.pdb
     RDKit          3D

 27 26  0  0  1  0  0  0  0  0999 V2000
   26.5313  -24.0391  -15.4648 N   0  0  0  0  0  0  0  0  0  0  0  0
   25.1843  -24.0473  -15.9292 C   0  0  1  0  0  0  0  0  0  0  0  0
   24.5380  -25.4298  -15.7778 C   0  0  0  0  0  0  0  0  0  0  0  0
   25.0897  -26.3660  -16.7646 C   0  0  0  0  0  0  0  0  0  0  0  0
   26.1964  -26.1240  -17.2898 O   0  0  0  0  0  0  0  0  0  0  0  0
   24.3095  -23.1087  -15.1535 C   0  0  0  0  0  0  0  0  0  0  0  0
   23.0909  -22.9738  -15.4410 O   0  0  0  0  0  0  0  0  0  0  0  0
   24.3836  -27.4983  -17.1006 O   0  0  0  0  0  0  0  0  0  0  0  0
   25.4537  -21.3580   -9.3325 N   0  0  0  0  0  0  0  0  0  0  0  0
   24.2217  -20.6874   -9.5425 C   0  0  0  0  0  0  0  0  0  0  0  0
   23.6933  -20.1375   -8.5208 O   0  0  0  0  0  0  0  0  0  0  0  0
   23.6089  -20.6391  -10.8864 C   0  0  0  0  0  0  0  0  0  0  0  0
   24.3779  -21.4021  -11.8759 C   0  0  0  0  0  0  0  0  0  0  0  0
   23.9352  -21.4314  -13.2947 C   0  0  2  0  0  0  0  0  0  0  0  0
   24.7921  -22.3342  -14.0737 N   0  0  0  0  0  0  0  0  0  0  0  0
   23.6125  -20.2077  -13.9807 C   0  0  0  0  0  0  0  0  0  0  0  0
   22.7727  -19.3993  -13.5089 O   0  0  0  0  0  0  0  0  0  0  0  0
   26.8718  -17.3086  -18.7028 N   0  0  0  0  0  0  0  0  0  0  0  0
   25.7581  -16.4444  -18.4974 C   0  0  0  0  0  0  0  0  0  0  0  0
   25.6680  -15.3677  -19.1502 O   0  0  0  0  0  0  0  0  0  0  0  0
   24.7041  -16.8128  -17.5149 C   0  0  0  0  0  0  0  0  0  0  0  0
   24.9656  -18.1024  -16.8167 C   0  0  0  0  0  0  0  0  0  0  0  0
   23.9167  -18.5470  -15.8533 C   0  0  2  0  0  0  0  0  0  0  0  0
   24.2073  -19.8226  -15.2280 N   0  0  0  0  0  0  0  0  0  0  0  0
   22.6711  -18.7762  -16.6785 C   0  0  0  0  0  0  0  0  0  0  0  0
   22.4575  -19.8994  -17.1926 O   0  0  0  0  0  0  0  0  0  0  0  0
   21.7313  -17.7842  -16.9009 O   0  0  0  0  0  0  0  0  0  0  0  0
  2  1  1  1
  2  3  1  0
  3  4  1  0
  4  8  1  0
  5  4  2  0
  6  2  1  0
  7  6  2  0
  9 10  1  0
 10 12  1  0
 10 11  2  0
 12 13  1  0
 14 13  1  1
 14 15  1  0
 15  6  1  0
 16 17  2  0
 16 14  1  0
 18 19  1  0
 19 20  2  0
 21 19  1  0
 21 22  1  0
 23 22  1  6
 23 24  1  0
 24 16  1  0
 25 23  1  0
 26 25  2  0
 27 25  1  0
M  END
$$$$
