DQQ.pdb
     RDKit          3D

 27 26  0  0  1  0  0  0  0  0999 V2000
   20.7652  -12.9541  -17.3012 N   0  0  0  0  0  0  0  0  0  0  0  0
   21.8701  -12.0700  -17.4686 C   0  0  1  0  0  0  0  0  0  0  0  0
   22.6114  -12.3278  -18.7860 C   0  0  0  0  0  0  0  0  0  0  0  0
   23.2265  -13.6606  -18.7774 C   0  0  0  0  0  0  0  0  0  0  0  0
   23.2275  -14.3303  -17.7236 O   0  0  0  0  0  0  0  0  0  0  0  0
   21.4455  -10.6329  -17.5220 C   0  0  0  0  0  0  0  0  0  0  0  0
   21.6366   -9.9402  -18.5561 O   0  0  0  0  0  0  0  0  0  0  0  0
   23.7946  -14.1577  -19.9280 O   0  0  0  0  0  0  0  0  0  0  0  0
   16.2611   -8.5869  -15.4159 N   0  0  0  0  0  0  0  0  0  0  0  0
   16.8089   -7.3319  -15.7849 C   0  0  0  0  0  0  0  0  0  0  0  0
   16.0133   -6.3358  -15.7604 O   0  0  0  0  0  0  0  0  0  0  0  0
   18.2315   -7.2130  -16.1672 C   0  0  0  0  0  0  0  0  0  0  0  0
   18.8964   -8.5184  -16.2478 C   0  0  0  0  0  0  0  0  0  0  0  0
   20.3606   -8.5890  -16.4957 C   0  0  2  0  0  0  0  0  0  0  0  0
   20.8174   -9.9832  -16.4348 N   0  0  0  0  0  0  0  0  0  0  0  0
   21.2524   -7.6612  -15.8508 C   0  0  0  0  0  0  0  0  0  0  0  0
   21.9301   -8.0006  -14.8474 O   0  0  0  0  0  0  0  0  0  0  0  0
   22.8785   -1.6475  -17.5951 N   0  0  0  0  0  0  0  0  0  0  0  0
   23.5184   -1.8169  -16.3338 C   0  0  0  0  0  0  0  0  0  0  0  0
   24.2392   -0.8929  -15.8644 O   0  0  0  0  0  0  0  0  0  0  0  0
   23.3356   -3.0817  -15.5728 C   0  0  0  0  0  0  0  0  0  0  0  0
   22.4735   -4.0766  -16.2698 C   0  0  0  0  0  0  0  0  0  0  0  0
   22.2609   -5.3692  -15.5557 C   0  0  2  0  0  0  0  0  0  0  0  0
   21.4339   -6.3075  -16.2895 N   0  0  0  0  0  0  0  0  0  0  0  0
   21.4755   -5.0267  -14.3104 C   0  0  0  0  0  0  0  0  0  0  0  0
   20.2225   -5.0084  -14.3447 O   0  0  0  0  0  0  0  0  0  0  0  0
   22.0847   -4.7246  -13.1044 O   0  0  0  0  0  0  0  0  0  0  0  0
  2  1  1  6
  2  3  1  0
  3  4  1  0
  4  8  1  0
  5  4  2  0
  6  2  1  0
  7  6  2  0
  9 10  1  0
 10 12  1  0
 10 11  2  0
 12 13  1  0
 14 13  1  1
 14 15  1  0
 15  6  1  0
 16 17  2  0
 16 14  1  0
 18 19  1  0
 19 20  2  0
 21 19  1  0
 21 22  1  0
 23 22  1  6
 23 24  1  0
 24 16  1  0
 25 23  1  0
 26 25  2  0
 27 25  1  0
M  END
$$$$
