DQQ.pdb
     RDKit          3D

 27 26  0  0  1  0  0  0  0  0999 V2000
   21.2949  -13.3366  -18.4497 N   0  0  0  0  0  0  0  0  0  0  0  0
   21.8219  -13.6861  -17.1729 C   0  0  1  0  0  0  0  0  0  0  0  0
   20.7856  -13.4985  -16.0582 C   0  0  0  0  0  0  0  0  0  0  0  0
   20.6470  -12.0770  -15.7191 C   0  0  0  0  0  0  0  0  0  0  0  0
   19.7341  -11.7152  -14.9479 O   0  0  0  0  0  0  0  0  0  0  0  0
   22.2312  -15.1268  -17.1015 C   0  0  0  0  0  0  0  0  0  0  0  0
   21.4155  -16.0453  -17.3785 O   0  0  0  0  0  0  0  0  0  0  0  0
   21.5225  -11.1594  -16.2532 O   0  0  0  0  0  0  0  0  0  0  0  0
   28.0689  -17.2112  -17.3922 N   0  0  0  0  0  0  0  0  0  0  0  0
   27.4345  -18.4095  -16.9757 C   0  0  0  0  0  0  0  0  0  0  0  0
   28.1774  -19.4412  -16.8792 O   0  0  0  0  0  0  0  0  0  0  0  0
   25.9888  -18.4307  -16.6704 C   0  0  0  0  0  0  0  0  0  0  0  0
   25.3728  -17.1058  -16.8043 C   0  0  0  0  0  0  0  0  0  0  0  0
   23.9146  -16.9402  -16.5667 C   0  0  2  0  0  0  0  0  0  0  0  0
   23.5327  -15.5313  -16.7260 N   0  0  0  0  0  0  0  0  0  0  0  0
   23.2830  -17.5858  -15.4459 C   0  0  0  0  0  0  0  0  0  0  0  0
   22.9735  -16.9396  -14.4125 O   0  0  0  0  0  0  0  0  0  0  0  0
   18.0644  -18.5783  -14.2900 N   0  0  0  0  0  0  0  0  0  0  0  0
   18.5409  -19.4209  -13.2450 C   0  0  0  0  0  0  0  0  0  0  0  0
   17.7399  -19.8528  -12.3700 O   0  0  0  0  0  0  0  0  0  0  0  0
   19.9805  -19.7900  -13.1872 C   0  0  0  0  0  0  0  0  0  0  0  0
   20.7992  -19.1637  -14.2626 C   0  0  0  0  0  0  0  0  0  0  0  0
   22.2306  -19.5809  -14.3193 C   0  0  2  0  0  0  0  0  0  0  0  0
   22.9651  -18.9844  -15.4181 N   0  0  0  0  0  0  0  0  0  0  0  0
   22.2151  -21.0657  -14.6028 C   0  0  0  0  0  0  0  0  0  0  0  0
   22.5615  -21.4925  -15.7294 O   0  0  0  0  0  0  0  0  0  0  0  0
   21.8282  -22.0009  -13.6581 O   0  0  0  0  0  0  0  0  0  0  0  0
  2  1  1  6
  2  3  1  0
  3  4  1  0
  4  8  1  0
  5  4  2  0
  6  2  1  0
  7  6  2  0
  9 10  1  0
 10 12  1  0
 10 11  2  0
 12 13  1  0
 14 13  1  1
 14 15  1  0
 15  6  1  0
 16 17  2  0
 16 14  1  0
 18 19  1  0
 19 20  2  0
 21 19  1  0
 21 22  1  0
 23 22  1  6
 23 24  1  0
 24 16  1  0
 25 23  1  0
 26 25  2  0
 27 25  1  0
M  END
$$$$
