DQQ.pdb
     RDKit          3D

 27 26  0  0  1  0  0  0  0  0999 V2000
   22.3433   -7.7518  -17.1009 N   0  0  0  0  0  0  0  0  0  0  0  0
   23.3782   -8.0839  -16.1795 C   0  0  1  0  0  0  0  0  0  0  0  0
   22.8139   -8.6184  -14.8576 C   0  0  0  0  0  0  0  0  0  0  0  0
   21.9045   -7.6376  -14.2528 C   0  0  0  0  0  0  0  0  0  0  0  0
   22.2880   -6.4600  -14.0940 O   0  0  0  0  0  0  0  0  0  0  0  0
   24.2765   -9.1662  -16.6989 C   0  0  0  0  0  0  0  0  0  0  0  0
   23.8098  -10.1344  -17.3550 O   0  0  0  0  0  0  0  0  0  0  0  0
   20.6413   -8.0247  -13.8678 O   0  0  0  0  0  0  0  0  0  0  0  0
   30.3910   -8.4180  -17.4901 N   0  0  0  0  0  0  0  0  0  0  0  0
   30.3047   -9.8019  -17.7884 C   0  0  0  0  0  0  0  0  0  0  0  0
   31.3820  -10.3695  -18.1663 O   0  0  0  0  0  0  0  0  0  0  0  0
   29.0223  -10.5238  -17.6537 C   0  0  0  0  0  0  0  0  0  0  0  0
   27.9267   -9.6389  -17.2422 C   0  0  0  0  0  0  0  0  0  0  0  0
   26.5649  -10.1964  -17.0305 C   0  0  2  0  0  0  0  0  0  0  0  0
   25.6741   -9.1634  -16.4867 N   0  0  0  0  0  0  0  0  0  0  0  0
   26.3954  -11.4865  -16.4149 C   0  0  0  0  0  0  0  0  0  0  0  0
   26.3456  -11.6092  -15.1644 O   0  0  0  0  0  0  0  0  0  0  0  0
   25.4911  -17.0280  -18.8808 N   0  0  0  0  0  0  0  0  0  0  0  0
   24.9065  -17.2695  -17.6044 C   0  0  0  0  0  0  0  0  0  0  0  0
   24.5652  -18.4407  -17.2797 O   0  0  0  0  0  0  0  0  0  0  0  0
   24.6998  -16.1415  -16.6573 C   0  0  0  0  0  0  0  0  0  0  0  0
   24.9937  -14.8062  -17.2486 C   0  0  0  0  0  0  0  0  0  0  0  0
   25.9906  -13.9732  -16.5149 C   0  0  2  0  0  0  0  0  0  0  0  0
   26.2743  -12.7061  -17.1605 N   0  0  0  0  0  0  0  0  0  0  0  0
   27.2874  -14.7487  -16.5603 C   0  0  0  0  0  0  0  0  0  0  0  0
   28.1212  -14.5235  -17.4689 O   0  0  0  0  0  0  0  0  0  0  0  0
   27.6087  -15.7190  -15.6265 O   0  0  0  0  0  0  0  0  0  0  0  0
  2  1  1  6
  2  3  1  0
  3  4  1  0
  4  8  1  0
  5  4  2  0
  6  2  1  0
  7  6  2  0
  9 10  1  0
 10 12  1  0
 10 11  2  0
 12 13  1  0
 14 13  1  1
 14 15  1  0
 15  6  1  0
 16 17  2  0
 16 14  1  0
 18 19  1  0
 19 20  2  0
 21 19  1  0
 21 22  1  0
 23 22  1  6
 23 24  1  0
 24 16  1  0
 25 23  1  0
 26 25  2  0
 27 25  1  0
M  END
$$$$
