DQQ.pdb
     RDKit          3D

 27 26  0  0  1  0  0  0  0  0999 V2000
   13.6693  -11.1573  -12.5834 N   0  0  0  0  0  0  0  0  0  0  0  0
   14.8527  -11.1268  -11.7904 C   0  0  1  0  0  0  0  0  0  0  0  0
   16.0563  -11.7102  -12.5406 C   0  0  0  0  0  0  0  0  0  0  0  0
   15.8845  -13.1536  -12.7446 C   0  0  0  0  0  0  0  0  0  0  0  0
   16.2395  -13.6682  -13.8254 O   0  0  0  0  0  0  0  0  0  0  0  0
   15.2513   -9.7305  -11.4168 C   0  0  0  0  0  0  0  0  0  0  0  0
   15.2506   -8.8070  -12.2729 O   0  0  0  0  0  0  0  0  0  0  0  0
   15.3352  -13.9237  -11.7450 O   0  0  0  0  0  0  0  0  0  0  0  0
   13.2242   -9.5835   -8.2161 N   0  0  0  0  0  0  0  0  0  0  0  0
   12.8666   -8.2112   -8.1934 C   0  0  0  0  0  0  0  0  0  0  0  0
   11.6277   -7.9498   -8.0435 O   0  0  0  0  0  0  0  0  0  0  0  0
   13.8969   -7.1609   -8.3322 C   0  0  0  0  0  0  0  0  0  0  0  0
   15.2538   -7.7166   -8.3833 C   0  0  0  0  0  0  0  0  0  0  0  0
   15.8938   -7.9870   -9.6977 C   0  0  2  0  0  0  0  0  0  0  0  0
   15.6439   -9.3752  -10.1061 N   0  0  0  0  0  0  0  0  0  0  0  0
   17.2382   -7.5427   -9.9565 C   0  0  0  0  0  0  0  0  0  0  0  0
   18.2238   -8.0959   -9.4050 O   0  0  0  0  0  0  0  0  0  0  0  0
   20.4743   -9.2720  -13.8519 N   0  0  0  0  0  0  0  0  0  0  0  0
   21.3318   -8.1795  -13.5349 C   0  0  0  0  0  0  0  0  0  0  0  0
   22.5190   -8.1661  -13.9639 O   0  0  0  0  0  0  0  0  0  0  0  0
   20.8265   -7.0574  -12.6997 C   0  0  0  0  0  0  0  0  0  0  0  0
   19.4826   -7.3126  -12.1099 C   0  0  0  0  0  0  0  0  0  0  0  0
   18.9095   -6.2059  -11.2895 C   0  0  2  0  0  0  0  0  0  0  0  0
   17.5538   -6.4587  -10.8415 N   0  0  0  0  0  0  0  0  0  0  0  0
   18.8134   -5.0150  -12.2156 C   0  0  0  0  0  0  0  0  0  0  0  0
   17.7249   -4.7414  -12.7741 O   0  0  0  0  0  0  0  0  0  0  0  0
   19.8929   -4.1910  -12.4848 O   0  0  0  0  0  0  0  0  0  0  0  0
  2  1  1  6
  2  3  1  0
  3  4  1  0
  4  8  1  0
  5  4  2  0
  6  2  1  0
  7  6  2  0
  9 10  1  0
 10 12  1  0
 10 11  2  0
 12 13  1  0
 14 13  1  1
 14 15  1  0
 15  6  1  0
 16 17  2  0
 16 14  1  0
 18 19  1  0
 19 20  2  0
 21 19  1  0
 21 22  1  0
 23 22  1  6
 23 24  1  0
 24 16  1  0
 25 23  1  0
 26 25  2  0
 27 25  1  0
M  END
$$$$
