ENL.pdb
     RDKit          3D

 26 25  0  0  1  0  0  0  0  0999 V2000
   26.1609  -15.9383  -18.5557 N   0  0  0  0  0  0  0  0  0  0  0  0
   26.2520  -17.2393  -17.9193 C   0  0  1  0  0  0  0  0  0  0  0  0
   27.6018  -17.5162  -17.3294 C   0  0  0  0  0  0  0  0  0  0  0  0
   28.6789  -17.8165  -18.3122 C   0  0  0  0  0  0  0  0  0  0  0  0
   28.4003  -18.9578  -19.2104 C   0  0  0  0  0  0  0  0  0  0  0  0
   28.2251  -20.1423  -18.8202 O   0  0  0  0  0  0  0  0  0  0  0  0
   25.1659  -17.3719  -16.9268 C   0  0  0  0  0  0  0  0  0  0  0  0
   25.1042  -16.5697  -15.9640 O   0  0  0  0  0  0  0  0  0  0  0  0
   28.3119  -18.7792  -20.6038 O   0  0  0  0  0  0  0  0  0  0  0  0
   20.7855  -18.5457  -14.3670 N   0  0  0  0  0  0  0  0  0  0  0  0
   20.6470  -18.7856  -15.7599 C   0  0  0  0  0  0  0  0  0  0  0  0
   19.4868  -19.0241  -16.2006 O   0  0  0  0  0  0  0  0  0  0  0  0
   21.7977  -18.7609  -16.6664 C   0  0  0  0  0  0  0  0  0  0  0  0
   23.1197  -18.4847  -15.9915 C   0  0  2  0  0  0  0  0  0  0  0  0
   24.1562  -18.3784  -16.9934 N   0  0  0  0  0  0  0  0  0  0  0  0
   23.3787  -19.6223  -15.0701 C   0  0  0  0  0  0  0  0  0  0  0  0
   23.2501  -20.8215  -15.4082 O   0  0  0  0  0  0  0  0  0  0  0  0
   26.1406  -21.9051  -11.0553 C   0  0  0  0  0  0  0  0  0  0  0  0
   24.9980  -21.0387  -10.5009 C   0  0  1  0  0  0  0  0  0  0  0  0
   25.3792  -20.5853   -9.1407 C   0  0  0  0  0  0  0  0  0  0  0  0
   24.7060  -20.0185  -11.5193 C   0  0  0  0  0  0  0  0  0  0  0  0
   24.0975  -20.4484  -12.8024 C   0  0  2  0  0  0  0  0  0  0  0  0
   23.7960  -19.3734  -13.7261 N   0  0  0  0  0  0  0  0  0  0  0  0
   22.9362  -21.3593  -12.6337 C   0  0  0  0  0  0  0  0  0  0  0  0
   21.7183  -20.9191  -12.1431 O   0  0  0  0  0  0  0  0  0  0  0  0
   23.0415  -22.5729  -12.9404 O   0  0  0  0  0  0  0  0  0  0  0  0
  2  1  1  1
  3  2  1  0
  4  3  1  0
  5  4  1  0
  5  6  2  0
  7  2  1  0
  7  8  2  0
  9  5  1  0
 10 11  1  0
 11 12  2  0
 14 13  1  6
 13 11  1  0
 14 15  1  0
 15  7  1  0
 16 14  1  0
 17 16  2  0
 19 18  1  6
 19 21  1  0
 20 19  1  0
 22 21  1  1
 22 24  1  0
 22 23  1  0
 23 16  1  0
 24 25  1  0
 26 24  2  0
M  END
$$$$
