ENL.pdb
     RDKit          3D

 26 25  0  0  1  0  0  0  0  0999 V2000
   17.3307   -9.5308  -17.3290 N   0  0  0  0  0  0  0  0  0  0  0  0
   17.3774   -9.6031  -15.8804 C   0  0  1  0  0  0  0  0  0  0  0  0
   17.1379  -10.9840  -15.3489 C   0  0  0  0  0  0  0  0  0  0  0  0
   17.8977  -12.0699  -16.0269 C   0  0  0  0  0  0  0  0  0  0  0  0
   17.1539  -13.3368  -16.1964 C   0  0  0  0  0  0  0  0  0  0  0  0
   16.6908  -13.7472  -17.2932 O   0  0  0  0  0  0  0  0  0  0  0  0
   18.6542   -9.0311  -15.4063 C   0  0  0  0  0  0  0  0  0  0  0  0
   18.8769   -8.9475  -14.1743 O   0  0  0  0  0  0  0  0  0  0  0  0
   16.9121  -14.1877  -15.1015 O   0  0  0  0  0  0  0  0  0  0  0  0
   21.9403  -10.7114  -15.4351 N   0  0  0  0  0  0  0  0  0  0  0  0
   22.4746   -9.9155  -16.4830 C   0  0  0  0  0  0  0  0  0  0  0  0
   23.3351  -10.4464  -17.2411 O   0  0  0  0  0  0  0  0  0  0  0  0
   22.0535   -8.5278  -16.6907 C   0  0  0  0  0  0  0  0  0  0  0  0
   20.9421   -8.0681  -15.7782 C   0  0  2  0  0  0  0  0  0  0  0  0
   19.6772   -8.5554  -16.2804 N   0  0  0  0  0  0  0  0  0  0  0  0
   20.9792   -6.5819  -15.7693 C   0  0  0  0  0  0  0  0  0  0  0  0
   20.9491   -5.8890  -16.8123 O   0  0  0  0  0  0  0  0  0  0  0  0
   17.4831   -3.2044  -14.5295 C   0  0  0  0  0  0  0  0  0  0  0  0
   18.7361   -3.8151  -15.1778 C   0  0  1  0  0  0  0  0  0  0  0  0
   18.9700   -3.1272  -16.4712 C   0  0  0  0  0  0  0  0  0  0  0  0
   19.8013   -3.7746  -14.1643 C   0  0  0  0  0  0  0  0  0  0  0  0
   21.0979   -4.4287  -14.4689 C   0  0  2  0  0  0  0  0  0  0  0  0
   21.0529   -5.8758  -14.5289 N   0  0  0  0  0  0  0  0  0  0  0  0
   22.2171   -3.9565  -13.6137 C   0  0  0  0  0  0  0  0  0  0  0  0
   22.6404   -2.6379  -13.6139 O   0  0  0  0  0  0  0  0  0  0  0  0
   22.8125   -4.7641  -12.8579 O   0  0  0  0  0  0  0  0  0  0  0  0
  2  1  1  6
  3  2  1  0
  4  3  1  0
  5  4  1  0
  5  6  2  0
  7  2  1  0
  7  8  2  0
  9  5  1  0
 10 11  1  0
 11 12  2  0
 14 13  1  6
 13 11  1  0
 14 15  1  0
 15  7  1  0
 16 14  1  0
 17 16  2  0
 19 18  1  1
 19 21  1  0
 20 19  1  0
 22 21  1  1
 22 24  1  0
 22 23  1  0
 23 16  1  0
 24 25  1  0
 26 24  2  0
M  END
$$$$
