ENL.pdb
     RDKit          3D

 26 25  0  0  1  0  0  0  0  0999 V2000
   25.3815  -17.8826  -16.8724 N   0  0  0  0  0  0  0  0  0  0  0  0
   26.2432  -18.4924  -15.8767 C   0  0  1  0  0  0  0  0  0  0  0  0
   27.5634  -17.7976  -15.7314 C   0  0  0  0  0  0  0  0  0  0  0  0
   27.9972  -16.9978  -16.9097 C   0  0  0  0  0  0  0  0  0  0  0  0
   29.0293  -17.6407  -17.7515 C   0  0  0  0  0  0  0  0  0  0  0  0
   29.3798  -18.8459  -17.6491 O   0  0  0  0  0  0  0  0  0  0  0  0
   25.5136  -18.5883  -14.5958 C   0  0  0  0  0  0  0  0  0  0  0  0
   25.1854  -17.5402  -13.9890 O   0  0  0  0  0  0  0  0  0  0  0  0
   29.7036  -16.9159  -18.7521 O   0  0  0  0  0  0  0  0  0  0  0  0
   22.7529  -20.2530  -10.4674 N   0  0  0  0  0  0  0  0  0  0  0  0
   22.4078  -20.9091  -11.6787 C   0  0  0  0  0  0  0  0  0  0  0  0
   21.3699  -21.6301  -11.6790 O   0  0  0  0  0  0  0  0  0  0  0  0
   23.2154  -20.7652  -12.8926 C   0  0  0  0  0  0  0  0  0  0  0  0
   24.4263  -19.8771  -12.7366 C   0  0  2  0  0  0  0  0  0  0  0  0
   25.1480  -19.8267  -13.9880 N   0  0  0  0  0  0  0  0  0  0  0  0
   25.2607  -20.4721  -11.6596 C   0  0  0  0  0  0  0  0  0  0  0  0
   25.9337  -21.5174  -11.8119 O   0  0  0  0  0  0  0  0  0  0  0  0
   28.5916  -18.6807   -6.9533 C   0  0  0  0  0  0  0  0  0  0  0  0
   27.7700  -19.8863   -7.4379 C   0  0  1  0  0  0  0  0  0  0  0  0
   27.0731  -20.4723   -6.2667 C   0  0  0  0  0  0  0  0  0  0  0  0
   26.9566  -19.4183   -8.5705 C   0  0  0  0  0  0  0  0  0  0  0  0
   26.1063  -20.3995   -9.2887 C   0  0  2  0  0  0  0  0  0  0  0  0
   25.3218  -19.8483  -10.3752 N   0  0  0  0  0  0  0  0  0  0  0  0
   25.2715  -21.2345   -8.3871 C   0  0  0  0  0  0  0  0  0  0  0  0
   25.6525  -22.5078   -7.9978 O   0  0  0  0  0  0  0  0  0  0  0  0
   24.1802  -20.7896   -7.9524 O   0  0  0  0  0  0  0  0  0  0  0  0
  2  1  1  6
  3  2  1  0
  4  3  1  0
  5  4  1  0
  5  6  2  0
  7  2  1  0
  7  8  2  0
  9  5  1  0
 10 11  1  0
 11 12  2  0
 14 13  1  6
 13 11  1  0
 14 15  1  0
 15  7  1  0
 16 14  1  0
 17 16  2  0
 19 18  1  1
 19 21  1  0
 20 19  1  0
 22 21  1  1
 22 24  1  0
 22 23  1  0
 23 16  1  0
 24 25  1  0
 26 24  2  0
M  END
$$$$
