ENL.pdb
     RDKit          3D

 26 25  0  0  1  0  0  0  0  0999 V2000
   16.6680  -13.2358  -14.5253 N   0  0  0  0  0  0  0  0  0  0  0  0
   15.8870  -12.0389  -14.7775 C   0  0  1  0  0  0  0  0  0  0  0  0
   14.4220  -12.2232  -14.5201 C   0  0  0  0  0  0  0  0  0  0  0  0
   13.7285  -13.1756  -15.4302 C   0  0  0  0  0  0  0  0  0  0  0  0
   13.4426  -14.5018  -14.8415 C   0  0  0  0  0  0  0  0  0  0  0  0
   13.6309  -15.5972  -15.4335 O   0  0  0  0  0  0  0  0  0  0  0  0
   16.4571  -10.9152  -14.0063 C   0  0  0  0  0  0  0  0  0  0  0  0
   16.6408  -11.0405  -12.7715 O   0  0  0  0  0  0  0  0  0  0  0  0
   12.9248  -14.6200  -13.5380 O   0  0  0  0  0  0  0  0  0  0  0  0
   20.1436   -8.9179  -14.6157 N   0  0  0  0  0  0  0  0  0  0  0  0
   19.4029   -7.8228  -15.1343 C   0  0  0  0  0  0  0  0  0  0  0  0
   19.9846   -7.0594  -15.9565 O   0  0  0  0  0  0  0  0  0  0  0  0
   18.0140   -7.5736  -14.7404 C   0  0  0  0  0  0  0  0  0  0  0  0
   17.4321   -8.6106  -13.8102 C   0  0  2  0  0  0  0  0  0  0  0  0
   16.8221   -9.6646  -14.5891 N   0  0  0  0  0  0  0  0  0  0  0  0
   16.4247   -7.9154  -12.9664 C   0  0  0  0  0  0  0  0  0  0  0  0
   15.2772   -7.6194  -13.3721 O   0  0  0  0  0  0  0  0  0  0  0  0
   13.5817   -7.3086   -8.5409 C   0  0  0  0  0  0  0  0  0  0  0  0
   14.9715   -6.6797   -8.3499 C   0  0  1  0  0  0  0  0  0  0  0  0
   15.3221   -6.7603   -6.9106 C   0  0  0  0  0  0  0  0  0  0  0  0
   15.8668   -7.3246   -9.3224 C   0  0  0  0  0  0  0  0  0  0  0  0
   15.7835   -6.9151  -10.7461 C   0  0  2  0  0  0  0  0  0  0  0  0
   16.7463   -7.5516  -11.6223 N   0  0  0  0  0  0  0  0  0  0  0  0
   15.7647   -5.4424  -10.9407 C   0  0  0  0  0  0  0  0  0  0  0  0
   16.8210   -4.7614  -11.5223 O   0  0  0  0  0  0  0  0  0  0  0  0
   14.7668   -4.7740  -10.5725 O   0  0  0  0  0  0  0  0  0  0  0  0
  2  1  1  1
  3  2  1  0
  4  3  1  0
  5  4  1  0
  5  6  2  0
  7  2  1  0
  7  8  2  0
  9  5  1  0
 10 11  1  0
 11 12  2  0
 14 13  1  6
 13 11  1  0
 14 15  1  0
 15  7  1  0
 16 14  1  0
 17 16  2  0
 19 18  1  1
 19 21  1  0
 20 19  1  0
 22 21  1  1
 22 24  1  0
 22 23  1  0
 23 16  1  0
 24 25  1  0
 26 24  2  0
M  END
$$$$
