ENL.pdb
     RDKit          3D

 26 25  0  0  1  0  0  0  0  0999 V2000
   13.3598  -10.2462  -12.8288 N   0  0  0  0  0  0  0  0  0  0  0  0
   14.5942  -10.2953  -12.0673 C   0  0  1  0  0  0  0  0  0  0  0  0
   15.7190  -10.9559  -12.8055 C   0  0  0  0  0  0  0  0  0  0  0  0
   15.5497  -12.4137  -13.0554 C   0  0  0  0  0  0  0  0  0  0  0  0
   15.4866  -13.2501  -11.8374 C   0  0  0  0  0  0  0  0  0  0  0  0
   14.4225  -13.7126  -11.3479 O   0  0  0  0  0  0  0  0  0  0  0  0
   14.9410   -8.9322  -11.6156 C   0  0  0  0  0  0  0  0  0  0  0  0
   14.7549   -7.9580  -12.3842 O   0  0  0  0  0  0  0  0  0  0  0  0
   16.6549  -13.5897  -11.1297 O   0  0  0  0  0  0  0  0  0  0  0  0
   13.3058   -8.3098   -7.3267 N   0  0  0  0  0  0  0  0  0  0  0  0
   13.8495   -7.2959   -8.1594 C   0  0  0  0  0  0  0  0  0  0  0  0
   13.0449   -6.4737   -8.6824 O   0  0  0  0  0  0  0  0  0  0  0  0
   15.2889   -7.1936   -8.4126 C   0  0  0  0  0  0  0  0  0  0  0  0
   15.6760   -7.2863   -9.8689 C   0  0  2  0  0  0  0  0  0  0  0  0
   15.4876   -8.6436  -10.3292 N   0  0  0  0  0  0  0  0  0  0  0  0
   17.1034   -6.8815   -9.9616 C   0  0  0  0  0  0  0  0  0  0  0  0
   17.9854   -7.2929   -9.1731 O   0  0  0  0  0  0  0  0  0  0  0  0
   21.7230   -8.3334  -11.7550 C   0  0  0  0  0  0  0  0  0  0  0  0
   21.1327   -6.9168  -11.8468 C   0  0  1  0  0  0  0  0  0  0  0  0
   21.4859   -6.3534  -13.1730 C   0  0  0  0  0  0  0  0  0  0  0  0
   19.7093   -7.0260  -11.4927 C   0  0  0  0  0  0  0  0  0  0  0  0
   18.9252   -5.7802  -11.3068 C   0  0  2  0  0  0  0  0  0  0  0  0
   17.5261   -5.9807  -10.9875 N   0  0  0  0  0  0  0  0  0  0  0  0
   19.0938   -4.8015  -12.4117 C   0  0  0  0  0  0  0  0  0  0  0  0
   20.1594   -3.9182  -12.4589 O   0  0  0  0  0  0  0  0  0  0  0  0
   18.2531   -4.7575  -13.3440 O   0  0  0  0  0  0  0  0  0  0  0  0
  2  1  1  6
  3  2  1  0
  4  3  1  0
  5  4  1  0
  5  6  2  0
  7  2  1  0
  7  8  2  0
  9  5  1  0
 10 11  1  0
 11 12  2  0
 14 13  1  1
 13 11  1  0
 14 15  1  0
 15  7  1  0
 16 14  1  0
 17 16  2  0
 19 18  1  6
 19 21  1  0
 20 19  1  0
 22 21  1  6
 22 24  1  0
 22 23  1  0
 23 16  1  0
 24 25  1  0
 26 24  2  0
M  END
$$$$
