ENL.pdb
     RDKit          3D

 26 25  0  0  1  0  0  0  0  0999 V2000
   20.7651  -17.7215  -16.1170 N   0  0  0  0  0  0  0  0  0  0  0  0
   21.8773  -17.5350  -15.2037 C   0  0  1  0  0  0  0  0  0  0  0  0
   21.4831  -17.6420  -13.7615 C   0  0  0  0  0  0  0  0  0  0  0  0
   20.0202  -17.7447  -13.5054 C   0  0  0  0  0  0  0  0  0  0  0  0
   19.5628  -19.0704  -13.0359 C   0  0  0  0  0  0  0  0  0  0  0  0
   20.1350  -19.7418  -12.1371 O   0  0  0  0  0  0  0  0  0  0  0  0
   22.9622  -18.4716  -15.5616 C   0  0  0  0  0  0  0  0  0  0  0  0
   22.6821  -19.6520  -15.8818 O   0  0  0  0  0  0  0  0  0  0  0  0
   18.4200  -19.6802  -13.5868 O   0  0  0  0  0  0  0  0  0  0  0  0
   26.6659  -17.0097  -14.4795 N   0  0  0  0  0  0  0  0  0  0  0  0
   27.1069  -17.2464  -15.8086 C   0  0  0  0  0  0  0  0  0  0  0  0
   28.0605  -16.5405  -16.2437 O   0  0  0  0  0  0  0  0  0  0  0  0
   26.4891  -18.2685  -16.6571 C   0  0  0  0  0  0  0  0  0  0  0  0
   25.3689  -19.0359  -15.9971 C   0  0  2  0  0  0  0  0  0  0  0  0
   24.3434  -18.1122  -15.5673 N   0  0  0  0  0  0  0  0  0  0  0  0
   25.9632  -19.7546  -14.8393 C   0  0  0  0  0  0  0  0  0  0  0  0
   26.8375  -19.2526  -14.0960 O   0  0  0  0  0  0  0  0  0  0  0  0
   26.7788  -20.9596  -10.1414 C   0  0  0  0  0  0  0  0  0  0  0  0
   25.3680  -21.1771  -10.7122 C   0  0  1  0  0  0  0  0  0  0  0  0
   24.3897  -20.5876   -9.7654 C   0  0  0  0  0  0  0  0  0  0  0  0
   25.3877  -20.6769  -12.0953 C   0  0  0  0  0  0  0  0  0  0  0  0
   25.6553  -21.6367  -13.1948 C   0  0  2  0  0  0  0  0  0  0  0  0
   25.5406  -21.0842  -14.5294 N   0  0  0  0  0  0  0  0  0  0  0  0
   24.9006  -22.9101  -13.0688 C   0  0  0  0  0  0  0  0  0  0  0  0
   25.5156  -24.1008  -12.7196 O   0  0  0  0  0  0  0  0  0  0  0  0
   23.6628  -22.9291  -13.2819 O   0  0  0  0  0  0  0  0  0  0  0  0
  2  1  1  6
  3  2  1  0
  4  3  1  0
  5  4  1  0
  5  6  2  0
  7  2  1  0
  7  8  2  0
  9  5  1  0
 10 11  1  0
 11 12  2  0
 14 13  1  1
 13 11  1  0
 14 15  1  0
 15  7  1  0
 16 14  1  0
 17 16  2  0
 19 18  1  1
 19 21  1  0
 20 19  1  0
 22 21  1  1
 22 24  1  0
 22 23  1  0
 23 16  1  0
 24 25  1  0
 26 24  2  0
M  END
$$$$
