ENL.pdb
     RDKit          3D

 26 25  0  0  1  0  0  0  0  0999 V2000
   19.0959  -11.4077  -16.9563 N   0  0  0  0  0  0  0  0  0  0  0  0
   20.2774  -10.6199  -17.2553 C   0  0  1  0  0  0  0  0  0  0  0  0
   20.5345  -10.4732  -18.7247 C   0  0  0  0  0  0  0  0  0  0  0  0
   20.8904  -11.7298  -19.4393 C   0  0  0  0  0  0  0  0  0  0  0  0
   21.3355  -11.5452  -20.8375 C   0  0  0  0  0  0  0  0  0  0  0  0
   22.4464  -11.0541  -21.1701 O   0  0  0  0  0  0  0  0  0  0  0  0
   20.1788   -9.3160  -16.5682 C   0  0  0  0  0  0  0  0  0  0  0  0
   19.0633   -8.7500  -16.4690 O   0  0  0  0  0  0  0  0  0  0  0  0
   20.5131  -11.9215  -21.9160 O   0  0  0  0  0  0  0  0  0  0  0  0
   22.8974   -4.9531  -13.7127 N   0  0  0  0  0  0  0  0  0  0  0  0
   21.9830   -6.0021  -13.4295 C   0  0  0  0  0  0  0  0  0  0  0  0
   21.1164   -5.7974  -12.5327 O   0  0  0  0  0  0  0  0  0  0  0  0
   22.0295   -7.2811  -14.1424 C   0  0  0  0  0  0  0  0  0  0  0  0
   21.1689   -7.3382  -15.3815 C   0  0  2  0  0  0  0  0  0  0  0  0
   21.2979   -8.6407  -15.9950 N   0  0  0  0  0  0  0  0  0  0  0  0
   21.6524   -6.2664  -16.2913 C   0  0  0  0  0  0  0  0  0  0  0  0
   22.7074   -6.3590  -16.9601 O   0  0  0  0  0  0  0  0  0  0  0  0
   20.3871   -3.2329  -20.9124 C   0  0  0  0  0  0  0  0  0  0  0  0
   21.1436   -2.9412  -19.6062 C   0  0  1  0  0  0  0  0  0  0  0  0
   21.0110   -1.4939  -19.3080 C   0  0  0  0  0  0  0  0  0  0  0  0
   20.6563   -3.9058  -18.6086 C   0  0  0  0  0  0  0  0  0  0  0  0
   21.3421   -3.9777  -17.2948 C   0  0  2  0  0  0  0  0  0  0  0  0
   20.9030   -5.0580  -16.4347 N   0  0  0  0  0  0  0  0  0  0  0  0
   21.3695   -2.6828  -16.5671 C   0  0  0  0  0  0  0  0  0  0  0  0
   22.4580   -1.8284  -16.6222 O   0  0  0  0  0  0  0  0  0  0  0  0
   20.3827   -2.3326  -15.8732 O   0  0  0  0  0  0  0  0  0  0  0  0
  2  1  1  6
  3  2  1  0
  4  3  1  0
  5  4  1  0
  5  6  2  0
  7  2  1  0
  7  8  2  0
  9  5  1  0
 10 11  1  0
 11 12  2  0
 14 13  1  1
 13 11  1  0
 14 15  1  0
 15  7  1  0
 16 14  1  0
 17 16  2  0
 19 18  1  6
 19 21  1  0
 20 19  1  0
 22 21  1  6
 22 24  1  0
 22 23  1  0
 23 16  1  0
 24 25  1  0
 26 24  2  0
M  END
$$$$
