ENL.pdb
     RDKit          3D

 26 25  0  0  1  0  0  0  0  0999 V2000
   24.9934  -19.8034  -19.3916 N   0  0  0  0  0  0  0  0  0  0  0  0
   25.5700  -18.6436  -18.7372 C   0  0  1  0  0  0  0  0  0  0  0  0
   25.6692  -17.4466  -19.6338 C   0  0  0  0  0  0  0  0  0  0  0  0
   26.3021  -17.6920  -20.9588 C   0  0  0  0  0  0  0  0  0  0  0  0
   27.7791  -17.6180  -20.9655 C   0  0  0  0  0  0  0  0  0  0  0  0
   28.5393  -18.6111  -21.1132 O   0  0  0  0  0  0  0  0  0  0  0  0
   24.8154  -18.3588  -17.4995 C   0  0  0  0  0  0  0  0  0  0  0  0
   25.1212  -17.3615  -16.8023 O   0  0  0  0  0  0  0  0  0  0  0  0
   28.4443  -16.3884  -20.8012 O   0  0  0  0  0  0  0  0  0  0  0  0
   21.8892  -16.3532  -16.5648 N   0  0  0  0  0  0  0  0  0  0  0  0
   21.0324  -17.4813  -16.4631 C   0  0  0  0  0  0  0  0  0  0  0  0
   19.8034  -17.3064  -16.6998 O   0  0  0  0  0  0  0  0  0  0  0  0
   21.5397  -18.8064  -16.0982 C   0  0  0  0  0  0  0  0  0  0  0  0
   23.0218  -18.8524  -15.8145 C   0  0  2  0  0  0  0  0  0  0  0  0
   23.7336  -19.1645  -17.0333 N   0  0  0  0  0  0  0  0  0  0  0  0
   23.2309  -19.9057  -14.7864 C   0  0  0  0  0  0  0  0  0  0  0  0
   24.2130  -20.6830  -14.7909 O   0  0  0  0  0  0  0  0  0  0  0  0
   25.0152  -22.1138  -10.8969 C   0  0  0  0  0  0  0  0  0  0  0  0
   24.2809  -20.8086  -10.5495 C   0  0  1  0  0  0  0  0  0  0  0  0
   25.1525  -20.0123   -9.6510 C   0  0  0  0  0  0  0  0  0  0  0  0
   23.8582  -20.2070  -11.8233 C   0  0  0  0  0  0  0  0  0  0  0  0
   22.6318  -20.7222  -12.4807 C   0  0  2  0  0  0  0  0  0  0  0  0
   22.2858  -20.0683  -13.7267 N   0  0  0  0  0  0  0  0  0  0  0  0
   21.4609  -20.8078  -11.5704 C   0  0  0  0  0  0  0  0  0  0  0  0
   20.3856  -19.9404  -11.6678 O   0  0  0  0  0  0  0  0  0  0  0  0
   21.4252  -21.6890  -10.6759 O   0  0  0  0  0  0  0  0  0  0  0  0
  2  1  1  6
  3  2  1  0
  4  3  1  0
  5  4  1  0
  5  6  2  0
  7  2  1  0
  7  8  2  0
  9  5  1  0
 10 11  1  0
 11 12  2  0
 14 13  1  6
 13 11  1  0
 14 15  1  0
 15  7  1  0
 16 14  1  0
 17 16  2  0
 19 18  1  6
 19 21  1  0
 20 19  1  0
 22 21  1  1
 22 24  1  0
 22 23  1  0
 23 16  1  0
 24 25  1  0
 26 24  2  0
M  END
$$$$
