ENL.pdb
     RDKit          3D

 26 25  0  0  1  0  0  0  0  0999 V2000
   16.1870  -14.5702  -17.5654 N   0  0  0  0  0  0  0  0  0  0  0  0
   15.9461  -13.4888  -16.6280 C   0  0  1  0  0  0  0  0  0  0  0  0
   15.8943  -13.9436  -15.2007 C   0  0  0  0  0  0  0  0  0  0  0  0
   14.8207  -14.9242  -14.8815 C   0  0  0  0  0  0  0  0  0  0  0  0
   15.2984  -16.2144  -14.3390 C   0  0  0  0  0  0  0  0  0  0  0  0
   16.0798  -16.3266  -13.3577 O   0  0  0  0  0  0  0  0  0  0  0  0
   16.9490  -12.4260  -16.8442 C   0  0  0  0  0  0  0  0  0  0  0  0
   18.0666  -12.7182  -17.3342 O   0  0  0  0  0  0  0  0  0  0  0  0
   14.8923  -17.4356  -14.9090 O   0  0  0  0  0  0  0  0  0  0  0  0
   16.1040   -9.6831  -19.3112 N   0  0  0  0  0  0  0  0  0  0  0  0
   16.1246   -8.6243  -18.3649 C   0  0  0  0  0  0  0  0  0  0  0  0
   15.4620   -7.5830  -18.6367 O   0  0  0  0  0  0  0  0  0  0  0  0
   16.8815   -8.7205  -17.1143 C   0  0  0  0  0  0  0  0  0  0  0  0
   17.6393  -10.0146  -16.9398 C   0  0  2  0  0  0  0  0  0  0  0  0
   16.7240  -11.0535  -16.5241 N   0  0  0  0  0  0  0  0  0  0  0  0
   18.6780   -9.7692  -15.9050 C   0  0  0  0  0  0  0  0  0  0  0  0
   18.4202   -9.6782  -14.6827 O   0  0  0  0  0  0  0  0  0  0  0  0
   23.2832  -10.4094  -13.4725 C   0  0  0  0  0  0  0  0  0  0  0  0
   23.5574   -9.6306  -14.7694 C   0  0  1  0  0  0  0  0  0  0  0  0
   24.9242   -9.9726  -15.2343 C   0  0  0  0  0  0  0  0  0  0  0  0
   22.4272   -9.8973  -15.6721 C   0  0  0  0  0  0  0  0  0  0  0  0
   21.0919   -9.3553  -15.3189 C   0  0  2  0  0  0  0  0  0  0  0  0
   20.0477   -9.6248  -16.2868 N   0  0  0  0  0  0  0  0  0  0  0  0
   21.1159   -7.9209  -14.9331 C   0  0  0  0  0  0  0  0  0  0  0  0
   21.2537   -7.5130  -13.6168 O   0  0  0  0  0  0  0  0  0  0  0  0
   21.0091   -7.0326  -15.8148 O   0  0  0  0  0  0  0  0  0  0  0  0
  2  1  1  6
  3  2  1  0
  4  3  1  0
  5  4  1  0
  5  6  2  0
  7  2  1  0
  7  8  2  0
  9  5  1  0
 10 11  1  0
 11 12  2  0
 14 13  1  1
 13 11  1  0
 14 15  1  0
 15  7  1  0
 16 14  1  0
 17 16  2  0
 19 18  1  1
 19 21  1  0
 20 19  1  0
 22 21  1  6
 22 24  1  0
 22 23  1  0
 23 16  1  0
 24 25  1  0
 26 24  2  0
M  END
$$$$
