ENL.pdb
     RDKit          3D

 26 25  0  0  1  0  0  0  0  0999 V2000
   22.7001  -19.2935  -13.2304 N   0  0  0  0  0  0  0  0  0  0  0  0
   22.8657  -20.4142  -14.1375 C   0  0  1  0  0  0  0  0  0  0  0  0
   22.6300  -20.0533  -15.5730 C   0  0  0  0  0  0  0  0  0  0  0  0
   22.2649  -18.6317  -15.8225 C   0  0  0  0  0  0  0  0  0  0  0  0
   20.8885  -18.4216  -16.3209 C   0  0  0  0  0  0  0  0  0  0  0  0
   20.1287  -17.4929  -15.9386 O   0  0  0  0  0  0  0  0  0  0  0  0
   24.1943  -21.0225  -13.9208 C   0  0  0  0  0  0  0  0  0  0  0  0
   24.8221  -21.5043  -14.8945 O   0  0  0  0  0  0  0  0  0  0  0  0
   20.3283  -19.2789  -17.2866 O   0  0  0  0  0  0  0  0  0  0  0  0
   29.1030  -21.2069  -12.5644 N   0  0  0  0  0  0  0  0  0  0  0  0
   28.4024  -20.0588  -13.0202 C   0  0  0  0  0  0  0  0  0  0  0  0
   29.0875  -19.0686  -13.4040 O   0  0  0  0  0  0  0  0  0  0  0  0
   26.9385  -20.0085  -13.0507 C   0  0  0  0  0  0  0  0  0  0  0  0
   26.2589  -21.2438  -12.5106 C   0  0  2  0  0  0  0  0  0  0  0  0
   24.8267  -21.0997  -12.6437 N   0  0  0  0  0  0  0  0  0  0  0  0
   26.6557  -21.3641  -11.0830 C   0  0  0  0  0  0  0  0  0  0  0  0
   27.8455  -21.4813  -10.7095 O   0  0  0  0  0  0  0  0  0  0  0  0
   28.6337  -21.0840   -6.6825 C   0  0  0  0  0  0  0  0  0  0  0  0
   27.4618  -20.1179   -6.9209 C   0  0  1  0  0  0  0  0  0  0  0  0
   27.8716  -18.7698   -6.4564 C   0  0  0  0  0  0  0  0  0  0  0  0
   27.0584  -20.2780   -8.3262 C   0  0  0  0  0  0  0  0  0  0  0  0
   25.9988  -21.2635   -8.6540 C   0  0  2  0  0  0  0  0  0  0  0  0
   25.6580  -21.3494  -10.0598 N   0  0  0  0  0  0  0  0  0  0  0  0
   24.7838  -21.1330   -7.8091 C   0  0  0  0  0  0  0  0  0  0  0  0
   24.5560  -21.9486   -6.7133 O   0  0  0  0  0  0  0  0  0  0  0  0
   23.9222  -20.2601   -8.0804 O   0  0  0  0  0  0  0  0  0  0  0  0
  2  1  1  1
  3  2  1  0
  4  3  1  0
  5  4  1  0
  5  6  2  0
  7  2  1  0
  7  8  2  0
  9  5  1  0
 10 11  1  0
 11 12  2  0
 14 13  1  1
 13 11  1  0
 14 15  1  0
 15  7  1  0
 16 14  1  0
 17 16  2  0
 19 18  1  6
 19 21  1  0
 20 19  1  0
 22 21  1  6
 22 24  1  0
 22 23  1  0
 23 16  1  0
 24 25  1  0
 26 24  2  0
M  END
$$$$
