GTD.pdb
     RDKit          3D

 20 19  0  0  1  0  0  0  0  0999 V2000
    8.4944  -16.0658   15.5752 N   0  0  0  0  0  0  0  0  0  0  0  0
    8.0310  -16.4520   16.8653 C   0  0  0  0  0  0  0  0  0  0  0  0
    8.7290  -15.6046   17.8893 C   0  0  0  0  0  0  0  0  0  0  0  0
    9.8029  -15.0041   17.6248 O   0  0  0  0  0  0  0  0  0  0  0  0
    7.6888  -12.6840   19.8897 C   0  0  0  0  0  0  0  0  0  0  0  0
    8.0725  -13.7183   20.9292 C   0  0  1  0  0  0  0  0  0  0  0  0
    6.8732  -14.2480   21.4274 O   0  0  0  0  0  0  0  0  0  0  0  0
    8.9044  -14.8012   20.2706 C   0  0  2  0  0  0  0  0  0  0  0  0
    8.2026  -15.4470   19.2010 N   0  0  0  0  0  0  0  0  0  0  0  0
    9.3493  -15.8066   21.2676 C   0  0  0  0  0  0  0  0  0  0  0  0
    8.8372  -16.9763   21.2949 O   0  0  0  0  0  0  0  0  0  0  0  0
   10.3472  -15.5433   22.2331 N   0  0  0  0  0  0  0  0  0  0  0  0
   10.8132  -16.5987   23.1765 C   0  0  1  0  0  0  0  0  0  0  0  0
   12.2722  -16.3627   23.3738 C   0  0  0  0  0  0  0  0  0  0  0  0
   13.0545  -16.5448   22.1478 C   0  0  0  0  0  0  0  0  0  0  0  0
   12.9099  -17.5583   21.4427 O   0  0  0  0  0  0  0  0  0  0  0  0
    9.9989  -16.4924   24.4164 C   0  0  0  0  0  0  0  0  0  0  0  0
    9.1029  -15.4160   24.5131 O   0  0  0  0  0  0  0  0  0  0  0  0
   13.9824  -15.6027   21.7244 O   0  0  0  0  0  0  0  0  0  0  0  0
   10.0625  -17.2925   25.3658 O   0  0  0  0  0  0  0  0  0  0  0  0
  2  1  1  0
  3  2  1  0
  4  3  2  0
  6  5  1  6
  6  8  1  0
  7  6  1  0
  8  9  1  6
  9  3  1  0
 10 11  2  0
 10  8  1  0
 12 10  1  0
 13 12  1  0
 13 14  1  1
 15 16  2  0
 15 14  1  0
 17 13  1  0
 18 17  1  0
 19 15  1  0
 20 17  2  0
M  END
$$$$
