GTD.pdb
     RDKit          3D

 20 19  0  0  1  0  0  0  0  0999 V2000
    8.2153  -16.2457   15.7790 N   0  0  0  0  0  0  0  0  0  0  0  0
    7.6335  -16.4974   17.0542 C   0  0  0  0  0  0  0  0  0  0  0  0
    8.3955  -15.7123   18.0824 C   0  0  0  0  0  0  0  0  0  0  0  0
    9.4879  -15.1521   17.8056 O   0  0  0  0  0  0  0  0  0  0  0  0
    7.1728  -12.8811   20.1090 C   0  0  0  0  0  0  0  0  0  0  0  0
    7.7252  -13.8462   21.1392 C   0  0  1  0  0  0  0  0  0  0  0  0
    6.6198  -14.4726   21.7330 O   0  0  0  0  0  0  0  0  0  0  0  0
    8.6092  -14.8634   20.4447 C   0  0  2  0  0  0  0  0  0  0  0  0
    7.9114  -15.5708   19.4121 N   0  0  0  0  0  0  0  0  0  0  0  0
    9.1805  -15.8229   21.4222 C   0  0  0  0  0  0  0  0  0  0  0  0
    8.7393  -17.0187   21.5043 O   0  0  0  0  0  0  0  0  0  0  0  0
   10.2279  -15.4857   22.3091 N   0  0  0  0  0  0  0  0  0  0  0  0
   10.7117  -16.4459   23.3410 C   0  0  1  0  0  0  0  0  0  0  0  0
   12.1666  -16.1694   23.5143 C   0  0  0  0  0  0  0  0  0  0  0  0
   12.9806  -16.6544   22.3959 C   0  0  0  0  0  0  0  0  0  0  0  0
   12.5578  -17.5432   21.6368 O   0  0  0  0  0  0  0  0  0  0  0  0
    9.8961  -16.2443   24.5682 C   0  0  0  0  0  0  0  0  0  0  0  0
    9.1115  -15.0824   24.6413 O   0  0  0  0  0  0  0  0  0  0  0  0
   14.2472  -16.1474   22.1382 O   0  0  0  0  0  0  0  0  0  0  0  0
    9.8667  -17.0356   25.5265 O   0  0  0  0  0  0  0  0  0  0  0  0
  2  1  1  0
  3  2  1  0
  4  3  2  0
  6  5  1  6
  6  8  1  0
  7  6  1  0
  8  9  1  6
  9  3  1  0
 10 11  2  0
 10  8  1  0
 12 10  1  0
 13 12  1  0
 13 14  1  1
 15 16  2  0
 15 14  1  0
 17 13  1  0
 18 17  1  0
 19 15  1  0
 20 17  2  0
M  END
$$$$
