GTD.pdb
     RDKit          3D

 20 19  0  0  1  0  0  0  0  0999 V2000
    3.6714  -19.3589   21.8741 N   0  0  0  0  0  0  0  0  0  0  0  0
    3.9198  -18.0446   22.3629 C   0  0  0  0  0  0  0  0  0  0  0  0
    5.3232  -17.6616   21.9912 C   0  0  0  0  0  0  0  0  0  0  0  0
    6.2297  -18.5255   21.8665 O   0  0  0  0  0  0  0  0  0  0  0  0
    8.4557  -14.0761   20.5531 C   0  0  0  0  0  0  0  0  0  0  0  0
    7.0209  -14.5250   20.7469 C   0  0  1  0  0  0  0  0  0  0  0  0
    6.4549  -14.6177   19.4670 O   0  0  0  0  0  0  0  0  0  0  0  0
    7.0105  -15.8749   21.4369 C   0  0  2  0  0  0  0  0  0  0  0  0
    5.6834  -16.3046   21.7649 N   0  0  0  0  0  0  0  0  0  0  0  0
    7.8543  -15.8516   22.6577 C   0  0  0  0  0  0  0  0  0  0  0  0
    7.4549  -15.2686   23.7216 O   0  0  0  0  0  0  0  0  0  0  0  0
    9.1286  -16.4589   22.7239 N   0  0  0  0  0  0  0  0  0  0  0  0
    9.9694  -16.3689   23.9511 C   0  0  1  0  0  0  0  0  0  0  0  0
    9.7420  -17.6364   24.7028 C   0  0  0  0  0  0  0  0  0  0  0  0
   10.5684  -17.7455   25.9084 C   0  0  0  0  0  0  0  0  0  0  0  0
   11.2549  -16.7864   26.3009 O   0  0  0  0  0  0  0  0  0  0  0  0
   11.3769  -16.1507   23.5233 C   0  0  0  0  0  0  0  0  0  0  0  0
   12.3332  -15.9326   24.5278 O   0  0  0  0  0  0  0  0  0  0  0  0
   10.6206  -18.9134   26.6573 O   0  0  0  0  0  0  0  0  0  0  0  0
   11.7561  -16.1495   22.3394 O   0  0  0  0  0  0  0  0  0  0  0  0
  2  1  1  0
  3  2  1  0
  4  3  2  0
  6  5  1  6
  6  8  1  0
  7  6  1  0
  8  9  1  1
  9  3  1  0
 10 11  2  0
 10  8  1  0
 12 10  1  0
 13 12  1  0
 13 14  1  6
 15 16  2  0
 15 14  1  0
 17 13  1  0
 18 17  1  0
 19 15  1  0
 20 17  2  0
M  END
$$$$
