GTD.pdb
     RDKit          3D

 20 19  0  0  1  0  0  0  0  0999 V2000
    8.1596  -11.2941   19.2902 N   0  0  0  0  0  0  0  0  0  0  0  0
    8.7159  -12.5854   19.0639 C   0  0  0  0  0  0  0  0  0  0  0  0
    8.4142  -13.4438   20.2582 C   0  0  0  0  0  0  0  0  0  0  0  0
    7.9944  -12.9475   21.3357 O   0  0  0  0  0  0  0  0  0  0  0  0
    6.1898  -16.4260   20.3985 C   0  0  0  0  0  0  0  0  0  0  0  0
    7.5055  -16.9147   20.9710 C   0  0  1  0  0  0  0  0  0  0  0  0
    8.1195  -17.6773   19.9667 O   0  0  0  0  0  0  0  0  0  0  0  0
    8.3635  -15.7197   21.3372 C   0  0  2  0  0  0  0  0  0  0  0  0
    8.5915  -14.8543   20.2180 N   0  0  0  0  0  0  0  0  0  0  0  0
    9.6589  -16.1557   21.9156 C   0  0  0  0  0  0  0  0  0  0  0  0
   10.7420  -16.0651   21.2447 O   0  0  0  0  0  0  0  0  0  0  0  0
    9.7790  -16.6894   23.2186 N   0  0  0  0  0  0  0  0  0  0  0  0
   11.0899  -17.1619   23.7470 C   0  0  1  0  0  0  0  0  0  0  0  0
   10.9459  -17.2087   25.2304 C   0  0  0  0  0  0  0  0  0  0  0  0
   12.1783  -17.6103   25.9148 C   0  0  0  0  0  0  0  0  0  0  0  0
   13.2413  -17.7501   25.2859 O   0  0  0  0  0  0  0  0  0  0  0  0
   11.3885  -18.4749   23.1156 C   0  0  0  0  0  0  0  0  0  0  0  0
   12.6723  -18.6586   22.5781 O   0  0  0  0  0  0  0  0  0  0  0  0
   12.2120  -17.8499   27.2820 O   0  0  0  0  0  0  0  0  0  0  0  0
   10.5768  -19.4131   23.0349 O   0  0  0  0  0  0  0  0  0  0  0  0
  2  1  1  0
  3  2  1  0
  4  3  2  0
  6  5  1  6
  6  8  1  0
  7  6  1  0
  8  9  1  6
  9  3  1  0
 10 11  2  0
 10  8  1  0
 12 10  1  0
 13 12  1  0
 13 14  1  1
 15 16  2  0
 15 14  1  0
 17 13  1  0
 18 17  1  0
 19 15  1  0
 20 17  2  0
M  END
$$$$
