GTD.pdb
     RDKit          3D

 20 19  0  0  1  0  0  0  0  0999 V2000
   -2.8841  -19.4334   22.3568 N   0  0  0  0  0  0  0  0  0  0  0  0
   -3.1602  -19.5164   23.7514 C   0  0  0  0  0  0  0  0  0  0  0  0
   -4.4314  -20.2940   23.9341 C   0  0  0  0  0  0  0  0  0  0  0  0
   -5.1716  -20.5832   22.9583 O   0  0  0  0  0  0  0  0  0  0  0  0
   -5.6699  -22.5978   23.1422 C   0  0  0  0  0  0  0  0  0  0  0  0
   -5.6753  -22.9586   24.6145 C   0  0  1  0  0  0  0  0  0  0  0  0
   -4.4233  -23.5270   24.8910 O   0  0  0  0  0  0  0  0  0  0  0  0
   -5.8862  -21.7009   25.4344 C   0  0  2  0  0  0  0  0  0  0  0  0
   -4.8495  -20.7352   25.2198 N   0  0  0  0  0  0  0  0  0  0  0  0
   -5.9908  -22.0227   26.8794 C   0  0  0  0  0  0  0  0  0  0  0  0
   -5.0695  -21.6841   27.6966 O   0  0  0  0  0  0  0  0  0  0  0  0
   -7.0923  -22.7108   27.4366 N   0  0  0  0  0  0  0  0  0  0  0  0
   -7.1627  -23.0137   28.8941 C   0  0  1  0  0  0  0  0  0  0  0  0
   -8.6052  -23.2316   29.2026 C   0  0  0  0  0  0  0  0  0  0  0  0
   -9.4085  -22.0113   29.0850 C   0  0  0  0  0  0  0  0  0  0  0  0
   -9.0274  -20.9443   29.5965 O   0  0  0  0  0  0  0  0  0  0  0  0
   -6.2922  -24.1906   29.1568 C   0  0  0  0  0  0  0  0  0  0  0  0
   -5.8313  -24.3756   30.4700 O   0  0  0  0  0  0  0  0  0  0  0  0
  -10.6184  -21.9936   28.4042 O   0  0  0  0  0  0  0  0  0  0  0  0
   -5.9498  -25.0146   28.2913 O   0  0  0  0  0  0  0  0  0  0  0  0
  2  1  1  0
  3  2  1  0
  4  3  2  0
  6  5  1  6
  6  8  1  0
  7  6  1  0
  8  9  1  1
  9  3  1  0
 10 11  2  0
 10  8  1  0
 12 10  1  0
 13 12  1  0
 13 14  1  6
 15 16  2  0
 15 14  1  0
 17 13  1  0
 18 17  1  0
 19 15  1  0
 20 17  2  0
M  END
$$$$
