GTD.pdb
     RDKit          3D

 20 19  0  0  1  0  0  0  0  0999 V2000
    7.7473  -17.0449   16.0267 N   0  0  0  0  0  0  0  0  0  0  0  0
    7.2569  -17.0136   17.3633 C   0  0  0  0  0  0  0  0  0  0  0  0
    8.1679  -16.1421   18.1786 C   0  0  0  0  0  0  0  0  0  0  0  0
    9.3160  -15.8273   17.7707 O   0  0  0  0  0  0  0  0  0  0  0  0
    7.1048  -12.9532   20.2616 C   0  0  0  0  0  0  0  0  0  0  0  0
    7.8655  -13.9001   21.1684 C   0  0  1  0  0  0  0  0  0  0  0  0
    6.9077  -14.5531   21.9578 O   0  0  0  0  0  0  0  0  0  0  0  0
    8.6300  -14.8963   20.3190 C   0  0  2  0  0  0  0  0  0  0  0  0
    7.7678  -15.6370   19.4464 N   0  0  0  0  0  0  0  0  0  0  0  0
    9.4134  -15.8261   21.1701 C   0  0  0  0  0  0  0  0  0  0  0  0
    8.9892  -17.0048   21.4190 O   0  0  0  0  0  0  0  0  0  0  0  0
   10.6540  -15.4777   21.7504 N   0  0  0  0  0  0  0  0  0  0  0  0
   11.3552  -16.3940   22.6936 C   0  0  1  0  0  0  0  0  0  0  0  0
   12.7761  -15.9434   22.7294 C   0  0  0  0  0  0  0  0  0  0  0  0
   13.6171  -16.7639   23.6057 C   0  0  0  0  0  0  0  0  0  0  0  0
   14.1353  -16.2819   24.6276 O   0  0  0  0  0  0  0  0  0  0  0  0
   10.6536  -16.3231   24.0030 C   0  0  0  0  0  0  0  0  0  0  0  0
   10.7572  -17.4342   24.8549 O   0  0  0  0  0  0  0  0  0  0  0  0
   13.8695  -18.1021   23.3355 O   0  0  0  0  0  0  0  0  0  0  0  0
    9.9856  -15.3474   24.3868 O   0  0  0  0  0  0  0  0  0  0  0  0
  2  1  1  0
  3  2  1  0
  4  3  2  0
  6  5  1  6
  6  8  1  0
  7  6  1  0
  8  9  1  1
  9  3  1  0
 10 11  2  0
 10  8  1  0
 12 10  1  0
 13 12  1  0
 13 14  1  1
 15 16  2  0
 15 14  1  0
 17 13  1  0
 18 17  1  0
 19 15  1  0
 20 17  2  0
M  END
$$$$
