GTD.pdb
     RDKit          3D

 20 19  0  0  1  0  0  0  0  0999 V2000
    8.0967  -17.5586   16.7028 N   0  0  0  0  0  0  0  0  0  0  0  0
    7.6732  -17.6118   18.0614 C   0  0  0  0  0  0  0  0  0  0  0  0
    8.4310  -16.5696   18.8318 C   0  0  0  0  0  0  0  0  0  0  0  0
    9.3762  -15.9233   18.3096 O   0  0  0  0  0  0  0  0  0  0  0  0
    7.1146  -13.7029   21.1364 C   0  0  0  0  0  0  0  0  0  0  0  0
    8.0362  -14.5839   21.9564 C   0  0  1  0  0  0  0  0  0  0  0  0
    7.2117  -15.4090   22.7351 O   0  0  0  0  0  0  0  0  0  0  0  0
    8.8946  -15.4127   21.0212 C   0  0  2  0  0  0  0  0  0  0  0  0
    8.1095  -16.2714   20.1846 N   0  0  0  0  0  0  0  0  0  0  0  0
    9.8867  -16.2120   21.7825 C   0  0  0  0  0  0  0  0  0  0  0  0
    9.7709  -17.4800   21.8833 O   0  0  0  0  0  0  0  0  0  0  0  0
   11.0015  -15.6370   22.4333 N   0  0  0  0  0  0  0  0  0  0  0  0
   12.0142  -16.4795   23.1302 C   0  0  1  0  0  0  0  0  0  0  0  0
   13.3349  -15.8366   22.8739 C   0  0  0  0  0  0  0  0  0  0  0  0
   14.4448  -16.5149   23.5495 C   0  0  0  0  0  0  0  0  0  0  0  0
   14.5703  -17.7501   23.4883 O   0  0  0  0  0  0  0  0  0  0  0  0
   11.6339  -16.5540   24.5660 C   0  0  0  0  0  0  0  0  0  0  0  0
   10.5846  -15.7295   25.0021 O   0  0  0  0  0  0  0  0  0  0  0  0
   15.3951  -15.8146   24.2804 O   0  0  0  0  0  0  0  0  0  0  0  0
   12.1841  -17.2961   25.3979 O   0  0  0  0  0  0  0  0  0  0  0  0
  2  1  1  0
  3  2  1  0
  4  3  2  0
  6  5  1  6
  6  8  1  0
  7  6  1  0
  8  9  1  1
  9  3  1  0
 10 11  2  0
 10  8  1  0
 12 10  1  0
 13 12  1  0
 13 14  1  1
 15 16  2  0
 15 14  1  0
 17 13  1  0
 18 17  1  0
 19 15  1  0
 20 17  2  0
M  END
$$$$
