GTD.pdb
     RDKit          3D

 20 19  0  0  1  0  0  0  0  0999 V2000
   -0.6969  -26.2998   27.4021 N   0  0  0  0  0  0  0  0  0  0  0  0
   -2.0779  -26.1675   27.0808 C   0  0  0  0  0  0  0  0  0  0  0  0
   -2.5822  -24.8905   27.6884 C   0  0  0  0  0  0  0  0  0  0  0  0
   -1.9372  -24.2898   28.5866 O   0  0  0  0  0  0  0  0  0  0  0  0
   -3.1422  -21.6504   26.3735 C   0  0  0  0  0  0  0  0  0  0  0  0
   -4.5161  -21.9917   26.9154 C   0  0  1  0  0  0  0  0  0  0  0  0
   -5.3041  -22.3472   25.8110 O   0  0  0  0  0  0  0  0  0  0  0  0
   -4.3951  -23.1521   27.8836 C   0  0  2  0  0  0  0  0  0  0  0  0
   -3.8111  -24.3087   27.2714 N   0  0  0  0  0  0  0  0  0  0  0  0
   -5.7166  -23.4963   28.4647 C   0  0  0  0  0  0  0  0  0  0  0  0
   -6.2542  -24.6342   28.2466 O   0  0  0  0  0  0  0  0  0  0  0  0
   -6.4535  -22.6080   29.2802 N   0  0  0  0  0  0  0  0  0  0  0  0
   -7.7968  -22.9741   29.8117 C   0  0  1  0  0  0  0  0  0  0  0  0
   -7.5893  -24.1763   30.6690 C   0  0  0  0  0  0  0  0  0  0  0  0
   -8.8005  -24.5871   31.3851 C   0  0  0  0  0  0  0  0  0  0  0  0
   -9.8085  -24.9707   30.7671 O   0  0  0  0  0  0  0  0  0  0  0  0
   -8.3395  -21.7910   30.5311 C   0  0  0  0  0  0  0  0  0  0  0  0
   -9.7273  -21.7377   30.7363 O   0  0  0  0  0  0  0  0  0  0  0  0
   -8.8743  -24.5659   32.7714 O   0  0  0  0  0  0  0  0  0  0  0  0
   -7.6447  -20.8530   30.9587 O   0  0  0  0  0  0  0  0  0  0  0  0
  2  1  1  0
  3  2  1  0
  4  3  2  0
  6  5  1  6
  6  8  1  0
  7  6  1  0
  8  9  1  6
  9  3  1  0
 10 11  2  0
 10  8  1  0
 12 10  1  0
 13 12  1  0
 13 14  1  1
 15 16  2  0
 15 14  1  0
 17 13  1  0
 18 17  1  0
 19 15  1  0
 20 17  2  0
M  END
$$$$
