GTD.pdb
     RDKit          3D

 20 19  0  0  1  0  0  0  0  0999 V2000
    7.9565  -18.6719   17.2749 N   0  0  0  0  0  0  0  0  0  0  0  0
    7.3879  -18.5658   18.5762 C   0  0  0  0  0  0  0  0  0  0  0  0
    8.0221  -17.3969   19.2731 C   0  0  0  0  0  0  0  0  0  0  0  0
    9.0376  -16.8221   18.8019 O   0  0  0  0  0  0  0  0  0  0  0  0
    7.9810  -14.1401   23.0079 C   0  0  0  0  0  0  0  0  0  0  0  0
    7.2258  -15.2259   22.2673 C   0  0  1  0  0  0  0  0  0  0  0  0
    6.1974  -14.5861   21.5601 O   0  0  0  0  0  0  0  0  0  0  0  0
    8.1729  -15.9307   21.3161 C   0  0  2  0  0  0  0  0  0  0  0  0
    7.4987  -16.8927   20.4954 N   0  0  0  0  0  0  0  0  0  0  0  0
    9.2806  -16.5823   22.0585 C   0  0  0  0  0  0  0  0  0  0  0  0
    9.1010  -17.6901   22.6681 O   0  0  0  0  0  0  0  0  0  0  0  0
   10.5802  -16.0329   22.1397 N   0  0  0  0  0  0  0  0  0  0  0  0
   11.6535  -16.6911   22.9370 C   0  0  1  0  0  0  0  0  0  0  0  0
   12.9117  -15.9540   22.6256 C   0  0  0  0  0  0  0  0  0  0  0  0
   14.0807  -16.4903   23.3288 C   0  0  0  0  0  0  0  0  0  0  0  0
   14.1067  -17.6713   23.7156 O   0  0  0  0  0  0  0  0  0  0  0  0
   11.2508  -16.6450   24.3678 C   0  0  0  0  0  0  0  0  0  0  0  0
   10.6503  -15.4649   24.8344 O   0  0  0  0  0  0  0  0  0  0  0  0
   15.1989  -15.7103   23.5913 O   0  0  0  0  0  0  0  0  0  0  0  0
   11.4121  -17.5805   25.1705 O   0  0  0  0  0  0  0  0  0  0  0  0
  2  1  1  0
  3  2  1  0
  4  3  2  0
  6  5  1  6
  6  8  1  0
  7  6  1  0
  8  9  1  1
  9  3  1  0
 10 11  2  0
 10  8  1  0
 12 10  1  0
 13 12  1  0
 13 14  1  1
 15 16  2  0
 15 14  1  0
 17 13  1  0
 18 17  1  0
 19 15  1  0
 20 17  2  0
M  END
$$$$
