GTD.pdb
     RDKit          3D

 20 19  0  0  1  0  0  0  0  0999 V2000
    5.8377  -16.5829   12.5567 N   0  0  0  0  0  0  0  0  0  0  0  0
    6.0915  -17.9144   12.9932 C   0  0  0  0  0  0  0  0  0  0  0  0
    5.5701  -18.0580   14.3938 C   0  0  0  0  0  0  0  0  0  0  0  0
    5.5238  -17.0782   15.1822 O   0  0  0  0  0  0  0  0  0  0  0  0
    2.3072  -19.6564   15.2815 C   0  0  0  0  0  0  0  0  0  0  0  0
    3.3097  -20.3146   16.2086 C   0  0  1  0  0  0  0  0  0  0  0  0
    3.5344  -21.6037   15.7036 O   0  0  0  0  0  0  0  0  0  0  0  0
    4.5929  -19.5072   16.2081 C   0  0  2  0  0  0  0  0  0  0  0  0
    5.1072  -19.3097   14.8852 N   0  0  0  0  0  0  0  0  0  0  0  0
    5.6220  -20.1488   17.0637 C   0  0  0  0  0  0  0  0  0  0  0  0
    6.5023  -20.9264   16.5619 O   0  0  0  0  0  0  0  0  0  0  0  0
    5.6957  -19.9475   18.4605 N   0  0  0  0  0  0  0  0  0  0  0  0
    6.7357  -20.6209   19.2887 C   0  0  1  0  0  0  0  0  0  0  0  0
    7.2454  -19.5869   20.2345 C   0  0  0  0  0  0  0  0  0  0  0  0
    7.9848  -18.5120   19.5666 C   0  0  0  0  0  0  0  0  0  0  0  0
    8.9080  -18.7685   18.7747 O   0  0  0  0  0  0  0  0  0  0  0  0
    6.1043  -21.7972   19.9441 C   0  0  0  0  0  0  0  0  0  0  0  0
    6.9524  -22.7173   20.5805 O   0  0  0  0  0  0  0  0  0  0  0  0
    7.6895  -17.1734   19.7869 O   0  0  0  0  0  0  0  0  0  0  0  0
    4.8804  -22.0143   19.9627 O   0  0  0  0  0  0  0  0  0  0  0  0
  2  1  1  0
  3  2  1  0
  4  3  2  0
  6  5  1  6
  6  8  1  0
  7  6  1  0
  8  9  1  6
  9  3  1  0
 10 11  2  0
 10  8  1  0
 12 10  1  0
 13 12  1  0
 13 14  1  1
 15 16  2  0
 15 14  1  0
 17 13  1  0
 18 17  1  0
 19 15  1  0
 20 17  2  0
M  END
$$$$
