GTD.pdb
     RDKit          3D

 20 19  0  0  1  0  0  0  0  0999 V2000
    8.2028  -14.1787   15.7768 N   0  0  0  0  0  0  0  0  0  0  0  0
    7.9512  -15.1157   16.8193 C   0  0  0  0  0  0  0  0  0  0  0  0
    8.6661  -14.6490   18.0543 C   0  0  0  0  0  0  0  0  0  0  0  0
    9.6363  -13.8501   17.9904 O   0  0  0  0  0  0  0  0  0  0  0  0
    6.8804  -13.1551   20.9295 C   0  0  0  0  0  0  0  0  0  0  0  0
    7.7906  -14.1849   21.5688 C   0  0  1  0  0  0  0  0  0  0  0  0
    6.9783  -15.2733   21.9193 O   0  0  0  0  0  0  0  0  0  0  0  0
    8.8477  -14.6054   20.5666 C   0  0  2  0  0  0  0  0  0  0  0  0
    8.2736  -15.0924   19.3473 N   0  0  0  0  0  0  0  0  0  0  0  0
    9.7509  -15.6292   21.1485 C   0  0  0  0  0  0  0  0  0  0  0  0
    9.6815  -16.8510   20.7828 O   0  0  0  0  0  0  0  0  0  0  0  0
   10.7269  -15.3283   22.1253 N   0  0  0  0  0  0  0  0  0  0  0  0
   11.5768  -16.3937   22.7283 C   0  0  1  0  0  0  0  0  0  0  0  0
   12.9857  -15.9236   22.5963 C   0  0  0  0  0  0  0  0  0  0  0  0
   13.9523  -16.8174   23.2407 C   0  0  0  0  0  0  0  0  0  0  0  0
   13.8008  -18.0508   23.2094 O   0  0  0  0  0  0  0  0  0  0  0  0
   11.1245  -16.5976   24.1303 C   0  0  0  0  0  0  0  0  0  0  0  0
   10.0975  -15.7676   24.6071 O   0  0  0  0  0  0  0  0  0  0  0  0
   15.0683  -16.3306   23.9078 O   0  0  0  0  0  0  0  0  0  0  0  0
   11.5965  -17.4516   24.9005 O   0  0  0  0  0  0  0  0  0  0  0  0
  2  1  1  0
  3  2  1  0
  4  3  2  0
  6  5  1  6
  6  8  1  0
  7  6  1  0
  8  9  1  6
  9  3  1  0
 10 11  2  0
 10  8  1  0
 12 10  1  0
 13 12  1  0
 13 14  1  1
 15 16  2  0
 15 14  1  0
 17 13  1  0
 18 17  1  0
 19 15  1  0
 20 17  2  0
M  END
$$$$
