GTD.pdb
     RDKit          3D

 20 19  0  0  1  0  0  0  0  0999 V2000
    8.4281  -15.8567   16.0851 N   0  0  0  0  0  0  0  0  0  0  0  0
    8.0099  -16.4109   17.3285 C   0  0  0  0  0  0  0  0  0  0  0  0
    8.7858  -15.7426   18.4265 C   0  0  0  0  0  0  0  0  0  0  0  0
    9.9664  -15.3444   18.2492 O   0  0  0  0  0  0  0  0  0  0  0  0
    7.5485  -12.8009   20.3608 C   0  0  0  0  0  0  0  0  0  0  0  0
    7.9924  -13.7919   21.4184 C   0  0  1  0  0  0  0  0  0  0  0  0
    6.8258  -14.3763   21.9329 O   0  0  0  0  0  0  0  0  0  0  0  0
    8.8796  -14.8406   20.7768 C   0  0  2  0  0  0  0  0  0  0  0  0
    8.2156  -15.5330   19.7123 N   0  0  0  0  0  0  0  0  0  0  0  0
    9.3683  -15.8107   21.7881 C   0  0  0  0  0  0  0  0  0  0  0  0
    8.8539  -16.9759   21.8835 O   0  0  0  0  0  0  0  0  0  0  0  0
   10.4125  -15.5173   22.6941 N   0  0  0  0  0  0  0  0  0  0  0  0
   10.9169  -16.5383   23.6554 C   0  0  1  0  0  0  0  0  0  0  0  0
   12.3420  -16.1889   23.9206 C   0  0  0  0  0  0  0  0  0  0  0  0
   13.1970  -16.3272   22.7381 C   0  0  0  0  0  0  0  0  0  0  0  0
   12.9827  -17.2158   21.8956 O   0  0  0  0  0  0  0  0  0  0  0  0
   10.0407  -16.5044   24.8566 C   0  0  0  0  0  0  0  0  0  0  0  0
   10.1876  -17.5380   25.7953 O   0  0  0  0  0  0  0  0  0  0  0  0
   14.2733  -15.4805   22.5095 O   0  0  0  0  0  0  0  0  0  0  0  0
    9.1923  -15.6235   25.0790 O   0  0  0  0  0  0  0  0  0  0  0  0
  2  1  1  0
  3  2  1  0
  4  3  2  0
  6  5  1  6
  6  8  1  0
  7  6  1  0
  8  9  1  6
  9  3  1  0
 10 11  2  0
 10  8  1  0
 12 10  1  0
 13 12  1  0
 13 14  1  1
 15 16  2  0
 15 14  1  0
 17 13  1  0
 18 17  1  0
 19 15  1  0
 20 17  2  0
M  END
$$$$
