GAE.pdb
     RDKit          3D

 19 18  0  0  1  0  0  0  0  0999 V2000
    7.5959  -17.7798   18.0549 N   0  0  0  0  0  0  0  0  0  0  0  0
    6.9203  -17.2759   19.2399 C   0  0  0  0  0  0  0  0  0  0  0  0
    7.8294  -16.4208   20.0500 C   0  0  0  0  0  0  0  0  0  0  0  0
    9.0412  -16.3983   19.6993 O   0  0  0  0  0  0  0  0  0  0  0  0
    7.4862  -13.9915   22.9132 C   0  0  0  0  0  0  0  0  0  0  0  0
    8.2514  -14.8337   21.8834 C   0  0  2  0  0  0  0  0  0  0  0  0
    7.3473  -15.6768   21.1535 N   0  0  0  0  0  0  0  0  0  0  0  0
    9.1649  -15.7183   22.6823 C   0  0  0  0  0  0  0  0  0  0  0  0
    8.6700  -16.7911   23.1244 O   0  0  0  0  0  0  0  0  0  0  0  0
   10.5018  -15.3832   22.9329 N   0  0  0  0  0  0  0  0  0  0  0  0
   11.3934  -16.4009   23.5349 C   0  0  1  0  0  0  0  0  0  0  0  0
   12.7921  -16.1103   23.1364 C   0  0  0  0  0  0  0  0  0  0  0  0
   13.7991  -17.0545   23.6764 C   0  0  0  0  0  0  0  0  0  0  0  0
   15.1678  -16.7141   23.2479 C   0  0  0  0  0  0  0  0  0  0  0  0
   15.7598  -15.7073   23.7505 O   0  0  0  0  0  0  0  0  0  0  0  0
   11.1325  -16.5411   24.9520 C   0  0  0  0  0  0  0  0  0  0  0  0
   10.6891  -15.5913   25.6441 O   0  0  0  0  0  0  0  0  0  0  0  0
   15.8591  -17.4513   22.3039 O   0  0  0  0  0  0  0  0  0  0  0  0
   11.3669  -17.7452   25.6013 O   0  0  0  0  0  0  0  0  0  0  0  0
  2  1  1  0
  3  2  1  0
  4  3  2  0
  6  5  1  1
  6  7  1  0
  7  3  1  0
  8 10  1  0
  8  6  1  0
  9  8  2  0
 11 16  1  0
 11 10  1  0
 11 12  1  1
 12 13  1  0
 13 14  1  0
 14 18  1  0
 15 14  2  0
 16 19  1  0
 17 16  2  0
M  END
$$$$
