GAE.pdb
     RDKit          3D

 19 18  0  0  1  0  0  0  0  0999 V2000
    5.9396  -17.9967   17.8387 N   0  0  0  0  0  0  0  0  0  0  0  0
    5.6103  -16.9242   18.7639 C   0  0  0  0  0  0  0  0  0  0  0  0
    6.8419  -16.2958   19.3134 C   0  0  0  0  0  0  0  0  0  0  0  0
    7.9011  -16.9775   19.2419 O   0  0  0  0  0  0  0  0  0  0  0  0
    7.7893  -12.9367   20.7459 C   0  0  0  0  0  0  0  0  0  0  0  0
    8.0458  -14.3712   20.2648 C   0  0  2  0  0  0  0  0  0  0  0  0
    6.8130  -15.0005   19.8836 N   0  0  0  0  0  0  0  0  0  0  0  0
    8.5908  -15.1063   21.4557 C   0  0  0  0  0  0  0  0  0  0  0  0
    7.8011  -15.2793   22.4240 O   0  0  0  0  0  0  0  0  0  0  0  0
    9.9074  -15.5821   21.5041 N   0  0  0  0  0  0  0  0  0  0  0  0
   10.3167  -16.4390   22.6405 C   0  0  1  0  0  0  0  0  0  0  0  0
   10.4785  -17.8320   22.1579 C   0  0  0  0  0  0  0  0  0  0  0  0
   10.8633  -18.8094   23.2038 C   0  0  0  0  0  0  0  0  0  0  0  0
   11.1670  -20.1372   22.6405 C   0  0  0  0  0  0  0  0  0  0  0  0
   11.9055  -20.2374   21.6102 O   0  0  0  0  0  0  0  0  0  0  0  0
   11.4383  -15.8570   23.3470 C   0  0  0  0  0  0  0  0  0  0  0  0
   11.7266  -16.1864   24.5244 O   0  0  0  0  0  0  0  0  0  0  0  0
   10.6782  -21.3094   23.1878 O   0  0  0  0  0  0  0  0  0  0  0  0
   12.2429  -14.9034   22.7389 O   0  0  0  0  0  0  0  0  0  0  0  0
  2  1  1  0
  3  2  1  0
  4  3  2  0
  6  5  1  1
  6  7  1  0
  7  3  1  0
  8 10  1  0
  8  6  1  0
  9  8  2  0
 11 16  1  0
 11 10  1  0
 11 12  1  6
 12 13  1  0
 13 14  1  0
 14 18  1  0
 15 14  2  0
 16 19  1  0
 17 16  2  0
M  END
$$$$
