GAE.pdb
     RDKit          3D

 19 18  0  0  1  0  0  0  0  0999 V2000
    7.4432  -15.0442   19.3934 N   0  0  0  0  0  0  0  0  0  0  0  0
    6.6729  -15.1941   20.6177 C   0  0  0  0  0  0  0  0  0  0  0  0
    7.4733  -14.7902   21.8051 C   0  0  0  0  0  0  0  0  0  0  0  0
    8.7128  -14.6411   21.6236 O   0  0  0  0  0  0  0  0  0  0  0  0
    6.7704  -13.7452   25.3552 C   0  0  0  0  0  0  0  0  0  0  0  0
    7.6637  -14.1405   24.1716 C   0  0  2  0  0  0  0  0  0  0  0  0
    6.8637  -14.5873   23.0665 N   0  0  0  0  0  0  0  0  0  0  0  0
    8.4800  -15.3060   24.6520 C   0  0  0  0  0  0  0  0  0  0  0  0
    7.9385  -16.4432   24.5825 O   0  0  0  0  0  0  0  0  0  0  0  0
    9.7786  -15.1545   25.1547 N   0  0  0  0  0  0  0  0  0  0  0  0
   10.6400  -16.3523   25.2829 C   0  0  1  0  0  0  0  0  0  0  0  0
   11.9712  -16.0511   24.7026 C   0  0  0  0  0  0  0  0  0  0  0  0
   12.9376  -17.1740   24.7527 C   0  0  0  0  0  0  0  0  0  0  0  0
   14.2414  -16.8133   24.1674 C   0  0  0  0  0  0  0  0  0  0  0  0
   15.2219  -17.6181   24.2536 O   0  0  0  0  0  0  0  0  0  0  0  0
   10.6171  -16.8609   26.6381 C   0  0  0  0  0  0  0  0  0  0  0  0
   10.2383  -16.1566   27.6069 O   0  0  0  0  0  0  0  0  0  0  0  0
   14.4594  -15.6147   23.5130 O   0  0  0  0  0  0  0  0  0  0  0  0
   11.0180  -18.1604   26.9157 O   0  0  0  0  0  0  0  0  0  0  0  0
  2  1  1  0
  3  2  1  0
  4  3  2  0
  6  5  1  1
  6  7  1  0
  7  3  1  0
  8 10  1  0
  8  6  1  0
  9  8  2  0
 11 16  1  0
 11 10  1  0
 11 12  1  1
 12 13  1  0
 13 14  1  0
 14 18  1  0
 15 14  2  0
 16 19  1  0
 17 16  2  0
M  END
$$$$
