GAE.pdb
     RDKit          3D

 19 18  0  0  1  0  0  0  0  0999 V2000
    5.9094  -15.9536   22.4202 N   0  0  0  0  0  0  0  0  0  0  0  0
    6.3897  -14.6630   21.9530 C   0  0  0  0  0  0  0  0  0  0  0  0
    7.5151  -14.8273   20.9938 C   0  0  0  0  0  0  0  0  0  0  0  0
    7.9880  -15.9909   20.8757 O   0  0  0  0  0  0  0  0  0  0  0  0
    9.2794  -12.7212   18.4271 C   0  0  0  0  0  0  0  0  0  0  0  0
    9.1263  -13.9251   19.3663 C   0  0  2  0  0  0  0  0  0  0  0  0
    8.0193  -13.7276   20.2589 N   0  0  0  0  0  0  0  0  0  0  0  0
   10.3824  -13.9593   20.1886 C   0  0  0  0  0  0  0  0  0  0  0  0
   10.6016  -12.9618   20.9291 O   0  0  0  0  0  0  0  0  0  0  0  0
   11.2760  -15.0373   20.1469 N   0  0  0  0  0  0  0  0  0  0  0  0
   12.5173  -14.9688   20.9517 C   0  0  1  0  0  0  0  0  0  0  0  0
   12.6068  -16.1816   21.8007 C   0  0  0  0  0  0  0  0  0  0  0  0
   11.5606  -16.2852   22.8455 C   0  0  0  0  0  0  0  0  0  0  0  0
   11.7172  -17.4953   23.6725 C   0  0  0  0  0  0  0  0  0  0  0  0
   12.6529  -18.3194   23.4232 O   0  0  0  0  0  0  0  0  0  0  0  0
   13.6594  -14.6714   20.1133 C   0  0  0  0  0  0  0  0  0  0  0  0
   13.6258  -14.8186   18.8663 O   0  0  0  0  0  0  0  0  0  0  0  0
   10.8783  -17.7886   24.7321 O   0  0  0  0  0  0  0  0  0  0  0  0
   14.8448  -14.2078   20.6666 O   0  0  0  0  0  0  0  0  0  0  0  0
  2  1  1  0
  3  2  1  0
  4  3  2  0
  6  5  1  6
  6  7  1  0
  7  3  1  0
  8 10  1  0
  8  6  1  0
  9  8  2  0
 11 16  1  0
 11 10  1  0
 11 12  1  6
 12 13  1  0
 13 14  1  0
 14 18  1  0
 15 14  2  0
 16 19  1  0
 17 16  2  0
M  END
$$$$
