GAE.pdb
     RDKit          3D

 19 18  0  0  1  0  0  0  0  0999 V2000
    8.9367  -15.5443   15.2824 N   0  0  0  0  0  0  0  0  0  0  0  0
    7.9987  -15.4870   16.3921 C   0  0  0  0  0  0  0  0  0  0  0  0
    8.6583  -14.9741   17.6231 C   0  0  0  0  0  0  0  0  0  0  0  0
    9.8369  -15.3705   17.8365 O   0  0  0  0  0  0  0  0  0  0  0  0
    7.7941  -12.5879   20.4153 C   0  0  0  0  0  0  0  0  0  0  0  0
    8.6676  -13.6051   19.6688 C   0  0  2  0  0  0  0  0  0  0  0  0
    7.9876  -14.0884   18.5003 N   0  0  0  0  0  0  0  0  0  0  0  0
    8.8411  -14.7600   20.6131 C   0  0  0  0  0  0  0  0  0  0  0  0
    7.8598  -15.5432   20.7357 O   0  0  0  0  0  0  0  0  0  0  0  0
   10.0265  -14.9706   21.3290 N   0  0  0  0  0  0  0  0  0  0  0  0
   10.1274  -16.1548   22.2125 C   0  0  1  0  0  0  0  0  0  0  0  0
   10.2620  -17.3702   21.3733 C   0  0  0  0  0  0  0  0  0  0  0  0
   11.5516  -17.4853   20.6517 C   0  0  0  0  0  0  0  0  0  0  0  0
   11.6204  -18.7037   19.8249 C   0  0  0  0  0  0  0  0  0  0  0  0
   10.6093  -19.4693   19.7348 O   0  0  0  0  0  0  0  0  0  0  0  0
   11.1322  -15.9511   23.2346 C   0  0  0  0  0  0  0  0  0  0  0  0
   11.2442  -16.7212   24.2207 O   0  0  0  0  0  0  0  0  0  0  0  0
   12.7562  -19.0668   19.1244 O   0  0  0  0  0  0  0  0  0  0  0  0
   12.0167  -14.8842   23.1580 O   0  0  0  0  0  0  0  0  0  0  0  0
  2  1  1  0
  3  2  1  0
  4  3  2  0
  6  5  1  1
  6  7  1  0
  7  3  1  0
  8 10  1  0
  8  6  1  0
  9  8  2  0
 11 16  1  0
 11 10  1  0
 11 12  1  6
 12 13  1  0
 13 14  1  0
 14 18  1  0
 15 14  2  0
 16 19  1  0
 17 16  2  0
M  END
$$$$
