GAE.pdb
     RDKit          3D

 19 18  0  0  1  0  0  0  0  0999 V2000
    7.4865  -14.8559   21.0200 N   0  0  0  0  0  0  0  0  0  0  0  0
    6.6732  -14.6386   22.2057 C   0  0  0  0  0  0  0  0  0  0  0  0
    7.4895  -14.0835   23.3189 C   0  0  0  0  0  0  0  0  0  0  0  0
    8.7379  -14.0514   23.1392 O   0  0  0  0  0  0  0  0  0  0  0  0
    6.8443  -12.3084   26.5697 C   0  0  0  0  0  0  0  0  0  0  0  0
    7.7072  -13.0585   25.5462 C   0  0  2  0  0  0  0  0  0  0  0  0
    6.8848  -13.6193   24.5116 N   0  0  0  0  0  0  0  0  0  0  0  0
    8.3369  -14.1934   26.3018 C   0  0  0  0  0  0  0  0  0  0  0  0
    7.5935  -15.1768   26.5692 O   0  0  0  0  0  0  0  0  0  0  0  0
    9.6807  -14.1759   26.6969 N   0  0  0  0  0  0  0  0  0  0  0  0
   10.2346  -15.3555   27.4005 C   0  0  1  0  0  0  0  0  0  0  0  0
   11.5121  -15.7438   26.7550 C   0  0  0  0  0  0  0  0  0  0  0  0
   11.3790  -16.2325   25.3619 C   0  0  0  0  0  0  0  0  0  0  0  0
   12.6860  -16.5300   24.7488 C   0  0  0  0  0  0  0  0  0  0  0  0
   13.7555  -16.3519   25.4130 O   0  0  0  0  0  0  0  0  0  0  0  0
   10.2650  -15.1348   28.8310 C   0  0  0  0  0  0  0  0  0  0  0  0
    9.9997  -14.0164   29.3376 O   0  0  0  0  0  0  0  0  0  0  0  0
   12.8129  -17.0047   23.4561 O   0  0  0  0  0  0  0  0  0  0  0  0
   10.5926  -16.1651   29.7014 O   0  0  0  0  0  0  0  0  0  0  0  0
  2  1  1  0
  3  2  1  0
  4  3  2  0
  6  5  1  1
  6  7  1  0
  7  3  1  0
  8 10  1  0
  8  6  1  0
  9  8  2  0
 11 16  1  0
 11 10  1  0
 11 12  1  6
 12 13  1  0
 13 14  1  0
 14 18  1  0
 15 14  2  0
 16 19  1  0
 17 16  2  0
M  END
$$$$
