GAE.pdb
     RDKit          3D

 19 18  0  0  1  0  0  0  0  0999 V2000
    8.0540  -18.0238   19.0416 N   0  0  0  0  0  0  0  0  0  0  0  0
    7.1832  -17.4844   20.0738 C   0  0  0  0  0  0  0  0  0  0  0  0
    7.8181  -16.3244   20.7557 C   0  0  0  0  0  0  0  0  0  0  0  0
    9.0240  -16.0927   20.4661 O   0  0  0  0  0  0  0  0  0  0  0  0
    6.6914  -13.4612   22.9076 C   0  0  0  0  0  0  0  0  0  0  0  0
    7.7358  -14.3975   22.2851 C   0  0  2  0  0  0  0  0  0  0  0  0
    7.0958  -15.5305   21.6786 N   0  0  0  0  0  0  0  0  0  0  0  0
    8.5676  -14.8957   23.4319 C   0  0  0  0  0  0  0  0  0  0  0  0
    9.2227  -14.0299   24.0741 O   0  0  0  0  0  0  0  0  0  0  0  0
    8.6239  -16.2505   23.7834 N   0  0  0  0  0  0  0  0  0  0  0  0
    9.3658  -16.6425   25.0037 C   0  0  1  0  0  0  0  0  0  0  0  0
    8.8909  -17.9757   25.4472 C   0  0  0  0  0  0  0  0  0  0  0  0
    7.5210  -17.9888   26.0131 C   0  0  0  0  0  0  0  0  0  0  0  0
    7.3591  -19.0178   27.0560 C   0  0  0  0  0  0  0  0  0  0  0  0
    8.3386  -19.7653   27.3697 O   0  0  0  0  0  0  0  0  0  0  0  0
   10.7922  -16.4867   24.8119 C   0  0  0  0  0  0  0  0  0  0  0  0
   11.3008  -16.3653   23.6698 O   0  0  0  0  0  0  0  0  0  0  0  0
    6.1671  -19.2177   27.7281 O   0  0  0  0  0  0  0  0  0  0  0  0
   11.6565  -16.4660   25.8978 O   0  0  0  0  0  0  0  0  0  0  0  0
  2  1  1  0
  3  2  1  0
  4  3  2  0
  6  5  1  1
  6  7  1  0
  7  3  1  0
  8 10  1  0
  8  6  1  0
  9  8  2  0
 11 16  1  0
 11 10  1  0
 11 12  1  6
 12 13  1  0
 13 14  1  0
 14 18  1  0
 15 14  2  0
 16 19  1  0
 17 16  2  0
M  END
$$$$
