GAE.pdb
     RDKit          3D

 19 18  0  0  1  0  0  0  0  0999 V2000
    7.1681  -12.3960   19.7268 N   0  0  0  0  0  0  0  0  0  0  0  0
    8.3818  -13.1677   19.5116 C   0  0  0  0  0  0  0  0  0  0  0  0
    8.4985  -14.2680   20.5062 C   0  0  0  0  0  0  0  0  0  0  0  0
    7.6516  -14.2730   21.4414 O   0  0  0  0  0  0  0  0  0  0  0  0
   10.0305  -17.6259   20.6140 C   0  0  0  0  0  0  0  0  0  0  0  0
    9.5190  -16.3582   21.3114 C   0  0  2  0  0  0  0  0  0  0  0  0
    9.5110  -15.2512   20.3973 N   0  0  0  0  0  0  0  0  0  0  0  0
   10.5189  -16.0586   22.3911 C   0  0  0  0  0  0  0  0  0  0  0  0
   11.5769  -15.4708   22.0354 O   0  0  0  0  0  0  0  0  0  0  0  0
   10.3025  -16.4077   23.7303 N   0  0  0  0  0  0  0  0  0  0  0  0
   11.3364  -16.0666   24.7343 C   0  0  1  0  0  0  0  0  0  0  0  0
   10.7058  -16.0178   26.0757 C   0  0  0  0  0  0  0  0  0  0  0  0
   11.3029  -15.0299   27.0056 C   0  0  0  0  0  0  0  0  0  0  0  0
   10.5895  -14.9760   28.2943 C   0  0  0  0  0  0  0  0  0  0  0  0
    9.5882  -15.7324   28.4993 O   0  0  0  0  0  0  0  0  0  0  0  0
   12.4977  -16.9184   24.5880 C   0  0  0  0  0  0  0  0  0  0  0  0
   12.4053  -18.1079   24.1949 O   0  0  0  0  0  0  0  0  0  0  0  0
   10.9616  -14.1240   29.3180 O   0  0  0  0  0  0  0  0  0  0  0  0
   13.7684  -16.4430   24.8810 O   0  0  0  0  0  0  0  0  0  0  0  0
  2  1  1  0
  3  2  1  0
  4  3  2  0
  6  5  1  6
  6  7  1  0
  7  3  1  0
  8 10  1  0
  8  6  1  0
  9  8  2  0
 11 16  1  0
 11 10  1  0
 11 12  1  1
 12 13  1  0
 13 14  1  0
 14 18  1  0
 15 14  2  0
 16 19  1  0
 17 16  2  0
M  END
$$$$
