GAE.pdb
     RDKit          3D

 19 18  0  0  1  0  0  0  0  0999 V2000
    7.4386  -18.1109   21.7193 N   0  0  0  0  0  0  0  0  0  0  0  0
    6.6162  -17.1962   22.4949 C   0  0  0  0  0  0  0  0  0  0  0  0
    7.4560  -16.1945   23.2054 C   0  0  0  0  0  0  0  0  0  0  0  0
    8.7047  -16.3655   23.1483 O   0  0  0  0  0  0  0  0  0  0  0  0
    6.9184  -12.9134   24.9648 C   0  0  0  0  0  0  0  0  0  0  0  0
    7.7207  -14.1582   24.5627 C   0  0  2  0  0  0  0  0  0  0  0  0
    6.8721  -15.1111   23.9048 N   0  0  0  0  0  0  0  0  0  0  0  0
    8.1911  -14.7703   25.8509 C   0  0  0  0  0  0  0  0  0  0  0  0
    7.3424  -15.4377   26.5034 O   0  0  0  0  0  0  0  0  0  0  0  0
    9.5027  -14.6172   26.3180 N   0  0  0  0  0  0  0  0  0  0  0  0
    9.8875  -15.2635   27.5937 C   0  0  1  0  0  0  0  0  0  0  0  0
   11.0806  -16.1132   27.3610 C   0  0  0  0  0  0  0  0  0  0  0  0
   10.8386  -17.3011   26.5081 C   0  0  0  0  0  0  0  0  0  0  0  0
   12.0609  -18.0995   26.3052 C   0  0  0  0  0  0  0  0  0  0  0  0
   13.1869  -17.6464   26.6841 O   0  0  0  0  0  0  0  0  0  0  0  0
    9.9772  -14.2877   28.6593 C   0  0  0  0  0  0  0  0  0  0  0  0
    9.8838  -13.0541   28.4416 O   0  0  0  0  0  0  0  0  0  0  0  0
   12.0467  -19.3472   25.7091 O   0  0  0  0  0  0  0  0  0  0  0  0
   10.1718  -14.6879   29.9740 O   0  0  0  0  0  0  0  0  0  0  0  0
  2  1  1  0
  3  2  1  0
  4  3  2  0
  6  5  1  1
  6  7  1  0
  7  3  1  0
  8 10  1  0
  8  6  1  0
  9  8  2  0
 11 16  1  0
 11 10  1  0
 11 12  1  6
 12 13  1  0
 13 14  1  0
 14 18  1  0
 15 14  2  0
 16 19  1  0
 17 16  2  0
M  END
$$$$
