GAE.pdb
     RDKit          3D

 19 18  0  0  1  0  0  0  0  0999 V2000
    6.9708  -17.0685   19.2671 N   0  0  0  0  0  0  0  0  0  0  0  0
    6.3912  -16.7225   20.5551 C   0  0  0  0  0  0  0  0  0  0  0  0
    7.3612  -15.9648   21.3910 C   0  0  0  0  0  0  0  0  0  0  0  0
    8.5441  -15.8964   20.9575 O   0  0  0  0  0  0  0  0  0  0  0  0
    7.2055  -13.7804   24.4535 C   0  0  0  0  0  0  0  0  0  0  0  0
    7.9115  -14.5654   23.3397 C   0  0  2  0  0  0  0  0  0  0  0  0
    6.9648  -15.3576   22.6067 N   0  0  0  0  0  0  0  0  0  0  0  0
    8.8540  -15.5020   24.0394 C   0  0  0  0  0  0  0  0  0  0  0  0
    8.3797  -16.6111   24.4085 O   0  0  0  0  0  0  0  0  0  0  0  0
   10.1951  -15.1754   24.2779 N   0  0  0  0  0  0  0  0  0  0  0  0
   11.1523  -16.2628   24.5852 C   0  0  1  0  0  0  0  0  0  0  0  0
   12.4923  -15.8814   24.0767 C   0  0  0  0  0  0  0  0  0  0  0  0
   13.5604  -16.8751   24.3386 C   0  0  0  0  0  0  0  0  0  0  0  0
   14.8579  -16.4595   23.7761 C   0  0  0  0  0  0  0  0  0  0  0  0
   15.9210  -16.5960   24.4603 O   0  0  0  0  0  0  0  0  0  0  0  0
   11.0662  -16.6467   25.9784 C   0  0  0  0  0  0  0  0  0  0  0  0
   10.6316  -15.8633   26.8589 O   0  0  0  0  0  0  0  0  0  0  0  0
   14.9826  -15.9149   22.5111 O   0  0  0  0  0  0  0  0  0  0  0  0
   11.4663  -17.9094   26.3930 O   0  0  0  0  0  0  0  0  0  0  0  0
  2  1  1  0
  3  2  1  0
  4  3  2  0
  6  5  1  1
  6  7  1  0
  7  3  1  0
  8 10  1  0
  8  6  1  0
  9  8  2  0
 11 16  1  0
 11 10  1  0
 11 12  1  1
 12 13  1  0
 13 14  1  0
 14 18  1  0
 15 14  2  0
 16 19  1  0
 17 16  2  0
M  END
$$$$
