GAE.pdb
     RDKit          3D

 19 18  0  0  1  0  0  0  0  0999 V2000
    8.9367  -15.9635   15.8820 N   0  0  0  0  0  0  0  0  0  0  0  0
    7.9589  -15.3032   16.7321 C   0  0  0  0  0  0  0  0  0  0  0  0
    8.5612  -14.9130   18.0355 C   0  0  0  0  0  0  0  0  0  0  0  0
    9.7070  -15.3774   18.2870 O   0  0  0  0  0  0  0  0  0  0  0  0
    7.6399  -12.6655   20.9225 C   0  0  0  0  0  0  0  0  0  0  0  0
    8.5165  -13.6660   20.1572 C   0  0  2  0  0  0  0  0  0  0  0  0
    7.8742  -14.0647   18.9367 N   0  0  0  0  0  0  0  0  0  0  0  0
    8.6180  -14.8751   21.0422 C   0  0  0  0  0  0  0  0  0  0  0  0
    7.8815  -15.8558   20.7472 O   0  0  0  0  0  0  0  0  0  0  0  0
    9.4820  -14.9269   22.1435 N   0  0  0  0  0  0  0  0  0  0  0  0
    9.9727  -16.2454   22.6061 C   0  0  1  0  0  0  0  0  0  0  0  0
   10.8119  -16.8463   21.5410 C   0  0  0  0  0  0  0  0  0  0  0  0
   11.4051  -18.1600   21.8867 C   0  0  0  0  0  0  0  0  0  0  0  0
   12.3068  -18.6586   20.8327 C   0  0  0  0  0  0  0  0  0  0  0  0
   12.3021  -18.1164   19.6826 O   0  0  0  0  0  0  0  0  0  0  0  0
   10.5630  -16.1422   23.9239 C   0  0  0  0  0  0  0  0  0  0  0  0
   10.7523  -17.1502   24.6491 O   0  0  0  0  0  0  0  0  0  0  0  0
   13.1797  -19.7121   21.0345 O   0  0  0  0  0  0  0  0  0  0  0  0
   10.9444  -14.9100   24.4365 O   0  0  0  0  0  0  0  0  0  0  0  0
  2  1  1  0
  3  2  1  0
  4  3  2  0
  6  5  1  1
  6  7  1  0
  7  3  1  0
  8 10  1  0
  8  6  1  0
  9  8  2  0
 11 16  1  0
 11 10  1  0
 11 12  1  6
 12 13  1  0
 13 14  1  0
 14 18  1  0
 15 14  2  0
 16 19  1  0
 17 16  2  0
M  END
$$$$
