GAE.pdb
     RDKit          3D

 19 18  0  0  1  0  0  0  0  0999 V2000
    6.6576  -18.0163   18.5462 N   0  0  0  0  0  0  0  0  0  0  0  0
    6.1848  -17.4005   19.7758 C   0  0  0  0  0  0  0  0  0  0  0  0
    7.2632  -16.6070   20.4247 C   0  0  0  0  0  0  0  0  0  0  0  0
    8.4208  -16.7272   19.9376 O   0  0  0  0  0  0  0  0  0  0  0  0
    7.4369  -13.8871   23.0230 C   0  0  0  0  0  0  0  0  0  0  0  0
    8.0194  -14.8910   22.0191 C   0  0  2  0  0  0  0  0  0  0  0  0
    6.9912  -15.7654   21.5299 N   0  0  0  0  0  0  0  0  0  0  0  0
    8.9992  -15.7206   22.7983 C   0  0  0  0  0  0  0  0  0  0  0  0
    8.5323  -16.7166   23.4157 O   0  0  0  0  0  0  0  0  0  0  0  0
   10.3658  -15.4169   22.8471 N   0  0  0  0  0  0  0  0  0  0  0  0
   11.2891  -16.3771   23.4942 C   0  0  1  0  0  0  0  0  0  0  0  0
   12.6818  -16.0312   23.1197 C   0  0  0  0  0  0  0  0  0  0  0  0
   13.7191  -16.9075   23.7139 C   0  0  0  0  0  0  0  0  0  0  0  0
   15.0825  -16.4868   23.3437 C   0  0  0  0  0  0  0  0  0  0  0  0
   15.3307  -16.1079   22.1556 O   0  0  0  0  0  0  0  0  0  0  0  0
   11.0020  -16.4950   24.9082 C   0  0  0  0  0  0  0  0  0  0  0  0
   10.5892  -15.5219   25.5869 O   0  0  0  0  0  0  0  0  0  0  0  0
   16.1323  -16.4829   24.2439 O   0  0  0  0  0  0  0  0  0  0  0  0
   11.1756  -17.7028   25.5696 O   0  0  0  0  0  0  0  0  0  0  0  0
  2  1  1  0
  3  2  1  0
  4  3  2  0
  6  5  1  1
  6  7  1  0
  7  3  1  0
  8 10  1  0
  8  6  1  0
  9  8  2  0
 11 16  1  0
 11 10  1  0
 11 12  1  1
 12 13  1  0
 13 14  1  0
 14 18  1  0
 15 14  2  0
 16 19  1  0
 17 16  2  0
M  END
$$$$
