GAE.pdb
     RDKit          3D

 19 18  0  0  1  0  0  0  0  0999 V2000
    8.7903  -16.9874   18.0656 N   0  0  0  0  0  0  0  0  0  0  0  0
    7.8289  -16.7730   19.1353 C   0  0  0  0  0  0  0  0  0  0  0  0
    8.4733  -16.1285   20.3114 C   0  0  0  0  0  0  0  0  0  0  0  0
    9.7288  -16.0110   20.2705 O   0  0  0  0  0  0  0  0  0  0  0  0
    7.3022  -14.3294   23.4067 C   0  0  0  0  0  0  0  0  0  0  0  0
    8.3479  -14.9307   22.4581 C   0  0  2  0  0  0  0  0  0  0  0  0
    7.7065  -15.6756   21.4116 N   0  0  0  0  0  0  0  0  0  0  0  0
    9.1431  -15.8949   23.2908 C   0  0  0  0  0  0  0  0  0  0  0  0
    8.6787  -17.0625   23.4031 O   0  0  0  0  0  0  0  0  0  0  0  0
   10.3419  -15.5316   23.9177 N   0  0  0  0  0  0  0  0  0  0  0  0
   11.0780  -16.5518   24.6991 C   0  0  1  0  0  0  0  0  0  0  0  0
   12.5306  -16.2634   24.6175 C   0  0  0  0  0  0  0  0  0  0  0  0
   13.2085  -16.8280   23.4264 C   0  0  0  0  0  0  0  0  0  0  0  0
   14.6452  -16.5000   23.3955 C   0  0  0  0  0  0  0  0  0  0  0  0
   15.0264  -15.3464   23.0202 O   0  0  0  0  0  0  0  0  0  0  0  0
   10.5125  -16.6930   26.0242 C   0  0  0  0  0  0  0  0  0  0  0  0
    9.6656  -15.8827   26.4761 O   0  0  0  0  0  0  0  0  0  0  0  0
   15.6250  -17.4043   23.7624 O   0  0  0  0  0  0  0  0  0  0  0  0
   10.8922  -17.7418   26.8501 O   0  0  0  0  0  0  0  0  0  0  0  0
  2  1  1  0
  3  2  1  0
  4  3  2  0
  6  5  1  1
  6  7  1  0
  7  3  1  0
  8 10  1  0
  8  6  1  0
  9  8  2  0
 11 16  1  0
 11 10  1  0
 11 12  1  1
 12 13  1  0
 13 14  1  0
 14 18  1  0
 15 14  2  0
 16 19  1  0
 17 16  2  0
M  END
$$$$
