RCR.pdb
     RDKit          3D

 29 28  0  0  1  0  0  0  0  0999 V2000
    8.6505  -12.3730   14.5077 N   0  0  0  0  0  0  0  0  0  0  0  0
    8.7008  -13.7900   14.4484 C   0  0  0  0  0  0  0  0  0  0  0  0
    8.9447  -14.3815   13.3404 N   0  0  0  0  0  0  0  0  0  0  0  0
    8.4844  -14.6010   15.6058 N   0  0  0  0  0  0  0  0  0  0  0  0
    7.7431  -14.1120   16.7478 C   0  0  0  0  0  0  0  0  0  0  0  0
    8.6956  -13.5625   17.7603 C   0  0  0  0  0  0  0  0  0  0  0  0
    9.7338  -14.5295   18.1926 C   0  0  0  0  0  0  0  0  0  0  0  0
    9.3433  -15.5319   19.2131 C   0  0  2  0  0  0  0  0  0  0  0  0
    8.1946  -16.3238   18.9259 N   0  0  0  0  0  0  0  0  0  0  0  0
    9.2326  -14.8385   20.5402 C   0  0  0  0  0  0  0  0  0  0  0  0
   10.1449  -14.0597   20.8674 O   0  0  0  0  0  0  0  0  0  0  0  0
    8.9057  -15.4214   13.2250 N   0  0  0  0  0  0  0  0  0  0  0  0
    8.1454  -15.0340   21.4208 C   0  0  1  0  0  0  0  0  0  0  0  0
    8.0974  -14.5555   22.7816 C   0  0  0  0  0  0  0  0  0  0  0  0
    6.8140  -13.8090   23.0461 S   0  0  0  0  0  0  0  0  0  0  0  0
    6.7045  -13.2321   24.7478 C   0  0  0  0  0  0  0  0  0  0  0  0
    8.1956  -15.6987   23.7265 O   0  0  0  0  0  0  0  0  0  0  0  0
    7.6504  -16.8205   23.4685 N   0  0  0  0  0  0  0  0  0  0  0  0
   10.2785  -15.5806   32.0296 C   0  0  0  0  0  0  0  0  0  0  0  0
   11.3810  -15.8777   31.1953 N   0  0  0  0  0  0  0  0  0  0  0  0
   12.5592  -15.5129   31.5622 N   0  0  0  0  0  0  0  0  0  0  0  0
   11.1572  -16.5700   29.9766 C   0  0  0  0  0  0  0  0  0  0  0  0
    9.8066  -16.8903   29.6025 C   0  0  0  0  0  0  0  0  0  0  0  0
    9.7676  -17.4634   28.1682 C   0  0  0  0  0  0  0  0  0  0  0  0
    9.5914  -16.3455   27.1776 C   0  0  2  0  0  0  0  0  0  0  0  0
    8.9730  -16.7613   25.8911 N   0  0  0  0  0  0  0  0  0  0  0  0
    8.8850  -15.6329   24.9560 C   0  0  0  0  0  0  0  0  0  0  0  0
    7.6107  -17.2466   26.1034 O   0  0  0  0  0  0  0  0  0  0  0  0
    6.6404  -16.4608   26.0368 O   0  0  0  0  0  0  0  0  0  0  0  0
  1  2  1  0
  2  4  1  0
  2  3  2  0
  4  5  1  0
  6  5  1  0
  7  6  1  0
  8  7  1  0
  8  9  1  6
 10  8  1  0
 10 12  1  0
 11 10  2  0
 13 16  1  0
 13 12  1  0
 13 14  1  1
 15 14  1  0
 16 17  2  0
 18 19  1  0
 19 21  1  0
 20 19  2  0
 21 22  1  0
 23 24  1  0
 23 22  1  0
 25 24  1  6
 25 27  1  0
 26 25  1  0
 26 16  1  0
 27 28  2  0
 27 29  1  0
M  END
$$$$
