RCR.pdb
     RDKit          3D

 29 28  0  0  1  0  0  0  0  0999 V2000
    8.7788  -12.5371   15.6891 N   0  0  0  0  0  0  0  0  0  0  0  0
    8.5062  -13.8264   15.1624 C   0  0  0  0  0  0  0  0  0  0  0  0
    8.8428  -14.1182   13.9630 N   0  0  0  0  0  0  0  0  0  0  0  0
    7.8548  -14.8352   15.9384 N   0  0  0  0  0  0  0  0  0  0  0  0
    7.2760  -14.5430   17.2316 C   0  0  0  0  0  0  0  0  0  0  0  0
    8.3362  -14.0127   18.1421 C   0  0  0  0  0  0  0  0  0  0  0  0
    7.8343  -13.6213   19.4818 C   0  0  0  0  0  0  0  0  0  0  0  0
    7.3988  -14.7118   20.3873 C   0  0  2  0  0  0  0  0  0  0  0  0
    5.9965  -14.9442   20.4815 N   0  0  0  0  0  0  0  0  0  0  0  0
    8.0248  -14.4881   21.7336 C   0  0  0  0  0  0  0  0  0  0  0  0
    8.2742  -13.3179   22.0718 O   0  0  0  0  0  0  0  0  0  0  0  0
    8.7215  -15.0725   13.5497 N   0  0  0  0  0  0  0  0  0  0  0  0
    8.3372  -15.5425   22.6202 C   0  0  1  0  0  0  0  0  0  0  0  0
    8.9919  -15.3734   23.8954 C   0  0  0  0  0  0  0  0  0  0  0  0
    8.1311  -14.5753   24.8421 S   0  0  0  0  0  0  0  0  0  0  0  0
    6.4697  -15.2542   24.9824 C   0  0  0  0  0  0  0  0  0  0  0  0
    9.2755  -16.7007   24.5015 O   0  0  0  0  0  0  0  0  0  0  0  0
    8.3882  -17.6135   24.5431 N   0  0  0  0  0  0  0  0  0  0  0  0
   14.1492  -19.1417   19.3209 C   0  0  0  0  0  0  0  0  0  0  0  0
   14.3389  -19.2531   20.7178 N   0  0  0  0  0  0  0  0  0  0  0  0
   15.4297  -18.8106   21.2381 N   0  0  0  0  0  0  0  0  0  0  0  0
   13.3212  -19.8497   21.5070 C   0  0  0  0  0  0  0  0  0  0  0  0
   13.3662  -19.6816   22.9339 C   0  0  0  0  0  0  0  0  0  0  0  0
   12.0576  -19.0350   23.4405 C   0  0  0  0  0  0  0  0  0  0  0  0
   12.1045  -18.8959   24.9373 C   0  0  2  0  0  0  0  0  0  0  0  0
   10.8423  -18.3968   25.5442 N   0  0  0  0  0  0  0  0  0  0  0  0
   10.5219  -17.0462   25.0659 C   0  0  0  0  0  0  0  0  0  0  0  0
   10.9623  -18.3169   26.9987 O   0  0  0  0  0  0  0  0  0  0  0  0
   11.0146  -17.2061   27.5703 O   0  0  0  0  0  0  0  0  0  0  0  0
  1  2  1  0
  2  4  1  0
  2  3  2  0
  4  5  1  0
  6  5  1  0
  7  6  1  0
  8  7  1  0
  8  9  1  1
 10  8  1  0
 10 12  1  0
 11 10  2  0
 13 16  1  0
 13 12  1  0
 13 14  1  1
 15 14  1  0
 16 17  2  0
 18 19  1  0
 19 21  1  0
 20 19  2  0
 21 22  1  0
 23 24  1  0
 23 22  1  0
 25 24  1  6
 25 27  1  0
 26 25  1  0
 26 16  1  0
 27 28  2  0
 27 29  1  0
M  END
$$$$
