RCR.pdb
     RDKit          3D

 29 28  0  0  1  0  0  0  0  0999 V2000
    7.2121  -14.5942   15.1015 N   0  0  0  0  0  0  0  0  0  0  0  0
    7.6934  -13.3725   15.6396 C   0  0  0  0  0  0  0  0  0  0  0  0
    7.2922  -12.2548   15.1634 N   0  0  0  0  0  0  0  0  0  0  0  0
    8.6311  -13.3416   16.7185 N   0  0  0  0  0  0  0  0  0  0  0  0
    8.5069  -14.2242   17.8580 C   0  0  0  0  0  0  0  0  0  0  0  0
    9.5355  -15.3047   17.7640 C   0  0  0  0  0  0  0  0  0  0  0  0
   10.2942  -15.5201   19.0201 C   0  0  0  0  0  0  0  0  0  0  0  0
    9.7283  -16.4811   19.9973 C   0  0  2  0  0  0  0  0  0  0  0  0
    8.4799  -17.0779   19.6589 N   0  0  0  0  0  0  0  0  0  0  0  0
    9.6901  -15.8196   21.3447 C   0  0  0  0  0  0  0  0  0  0  0  0
   10.7697  -15.4650   21.8493 O   0  0  0  0  0  0  0  0  0  0  0  0
    7.6414  -11.3282   15.5037 N   0  0  0  0  0  0  0  0  0  0  0  0
    8.4899  -15.5869   22.0525 C   0  0  1  0  0  0  0  0  0  0  0  0
    8.4184  -15.2411   23.4519 C   0  0  0  0  0  0  0  0  0  0  0  0
    7.2517  -14.3244   23.7221 S   0  0  0  0  0  0  0  0  0  0  0  0
    7.0125  -14.0337   25.4825 C   0  0  0  0  0  0  0  0  0  0  0  0
    8.2674  -16.4711   24.2728 O   0  0  0  0  0  0  0  0  0  0  0  0
    7.3783  -17.3424   24.0037 N   0  0  0  0  0  0  0  0  0  0  0  0
   11.9864  -19.7073   31.0758 C   0  0  0  0  0  0  0  0  0  0  0  0
   12.1561  -20.5480   29.9514 N   0  0  0  0  0  0  0  0  0  0  0  0
   12.3578  -21.8056   30.1355 N   0  0  0  0  0  0  0  0  0  0  0  0
   12.0991  -19.9813   28.6513 C   0  0  0  0  0  0  0  0  0  0  0  0
   10.9383  -20.2292   27.8404 C   0  0  0  0  0  0  0  0  0  0  0  0
    9.8149  -19.2274   28.1895 C   0  0  0  0  0  0  0  0  0  0  0  0
    9.9197  -18.0159   27.3046 C   0  0  1  0  0  0  0  0  0  0  0  0
    8.9181  -17.9727   26.2068 N   0  0  0  0  0  0  0  0  0  0  0  0
    9.0789  -16.7637   25.3895 C   0  0  0  0  0  0  0  0  0  0  0  0
    7.5594  -17.9462   26.7451 O   0  0  0  0  0  0  0  0  0  0  0  0
    6.9492  -16.8623   26.8725 O   0  0  0  0  0  0  0  0  0  0  0  0
  1  2  1  0
  2  4  1  0
  2  3  2  0
  4  5  1  0
  6  5  1  0
  7  6  1  0
  8  7  1  0
  8  9  1  6
 10  8  1  0
 10 12  1  0
 11 10  2  0
 13 16  1  0
 13 12  1  0
 13 14  1  1
 15 14  1  0
 16 17  2  0
 18 19  1  0
 19 21  1  0
 20 19  2  0
 21 22  1  0
 23 24  1  0
 23 22  1  0
 25 24  1  6
 25 27  1  0
 26 25  1  0
 26 16  1  0
 27 28  2  0
 27 29  1  0
M  END
$$$$
