RCR.pdb
     RDKit          3D

 29 28  0  0  1  0  0  0  0  0999 V2000
    8.1815  -17.2572   16.7832 N   0  0  0  0  0  0  0  0  0  0  0  0
    7.1686  -17.7128   17.6665 C   0  0  0  0  0  0  0  0  0  0  0  0
    5.9939  -17.9652   17.2266 N   0  0  0  0  0  0  0  0  0  0  0  0
    7.4157  -17.9051   19.0616 N   0  0  0  0  0  0  0  0  0  0  0  0
    8.4210  -17.1407   19.7671 C   0  0  0  0  0  0  0  0  0  0  0  0
    7.7819  -15.9507   20.4073 C   0  0  0  0  0  0  0  0  0  0  0  0
    8.0192  -14.6799   19.6803 C   0  0  0  0  0  0  0  0  0  0  0  0
    7.4802  -13.4400   20.2893 C   0  0  2  0  0  0  0  0  0  0  0  0
    7.6616  -12.2339   19.5533 N   0  0  0  0  0  0  0  0  0  0  0  0
    8.0104  -13.3308   21.6898 C   0  0  0  0  0  0  0  0  0  0  0  0
    9.2333  -13.1606   21.8371 O   0  0  0  0  0  0  0  0  0  0  0  0
    5.2365  -18.3789   17.8193 N   0  0  0  0  0  0  0  0  0  0  0  0
    7.1841  -13.4127   22.8326 C   0  0  2  0  0  0  0  0  0  0  0  0
    7.6597  -13.3459   24.1936 C   0  0  0  0  0  0  0  0  0  0  0  0
    6.6125  -12.7526   25.1025 S   0  0  0  0  0  0  0  0  0  0  0  0
    7.1003  -12.8227   26.8339 C   0  0  0  0  0  0  0  0  0  0  0  0
    8.0061  -14.7074   24.6789 O   0  0  0  0  0  0  0  0  0  0  0  0
    7.1325  -15.6325   24.7370 N   0  0  0  0  0  0  0  0  0  0  0  0
   14.6688  -20.0253   26.3073 C   0  0  0  0  0  0  0  0  0  0  0  0
   13.8551  -20.7186   25.3814 N   0  0  0  0  0  0  0  0  0  0  0  0
   14.0521  -21.9765   25.1950 N   0  0  0  0  0  0  0  0  0  0  0  0
   12.8441  -20.0075   24.6837 C   0  0  0  0  0  0  0  0  0  0  0  0
   12.7516  -18.5843   24.8638 C   0  0  0  0  0  0  0  0  0  0  0  0
   11.4036  -18.2119   25.5205 C   0  0  0  0  0  0  0  0  0  0  0  0
   10.9347  -16.8805   25.0015 C   0  0  1  0  0  0  0  0  0  0  0  0
    9.6417  -16.4224   25.5748 N   0  0  0  0  0  0  0  0  0  0  0  0
    9.3008  -15.0743   25.1038 C   0  0  0  0  0  0  0  0  0  0  0  0
    9.7145  -16.3590   27.0333 O   0  0  0  0  0  0  0  0  0  0  0  0
    9.9908  -15.2834   27.6079 O   0  0  0  0  0  0  0  0  0  0  0  0
  1  2  1  0
  2  4  1  0
  2  3  2  0
  4  5  1  0
  6  5  1  0
  7  6  1  0
  8  7  1  0
  8  9  1  6
 10  8  1  0
 10 12  1  0
 11 10  2  0
 13 16  1  0
 13 12  1  0
 13 14  1  6
 15 14  1  0
 16 17  2  0
 18 19  1  0
 19 21  1  0
 20 19  2  0
 21 22  1  0
 23 24  1  0
 23 22  1  0
 25 24  1  6
 25 27  1  0
 26 25  1  0
 26 16  1  0
 27 28  2  0
 27 29  1  0
M  END
$$$$
