RCR.pdb
     RDKit          3D

 29 28  0  0  1  0  0  0  0  0999 V2000
    7.8792  -13.5235   11.5567 N   0  0  0  0  0  0  0  0  0  0  0  0
    8.0806  -13.9137   12.9062 C   0  0  0  0  0  0  0  0  0  0  0  0
    9.2488  -14.2339   13.3181 N   0  0  0  0  0  0  0  0  0  0  0  0
    7.0034  -13.9641   13.8449 N   0  0  0  0  0  0  0  0  0  0  0  0
    7.2244  -14.2866   15.2377 C   0  0  0  0  0  0  0  0  0  0  0  0
    7.1973  -15.7706   15.4145 C   0  0  0  0  0  0  0  0  0  0  0  0
    8.2578  -16.2860   16.3143 C   0  0  0  0  0  0  0  0  0  0  0  0
    7.8506  -16.6831   17.6837 C   0  0  2  0  0  0  0  0  0  0  0  0
    6.4512  -16.7612   17.9382 N   0  0  0  0  0  0  0  0  0  0  0  0
    8.5531  -15.7896   18.6648 C   0  0  0  0  0  0  0  0  0  0  0  0
    9.6923  -15.3865   18.3720 O   0  0  0  0  0  0  0  0  0  0  0  0
    9.4390  -14.5851   14.2860 N   0  0  0  0  0  0  0  0  0  0  0  0
    7.9770  -15.3936   19.8923 C   0  0  1  0  0  0  0  0  0  0  0  0
    8.6850  -14.7056   20.9451 C   0  0  0  0  0  0  0  0  0  0  0  0
    7.7235  -14.1199   21.9485 S   0  0  0  0  0  0  0  0  0  0  0  0
    6.6124  -15.3630   22.6273 C   0  0  0  0  0  0  0  0  0  0  0  0
    9.5987  -15.6474   21.6434 O   0  0  0  0  0  0  0  0  0  0  0  0
    9.3633  -16.8988   21.6744 N   0  0  0  0  0  0  0  0  0  0  0  0
   18.0258  -14.0831   21.2261 C   0  0  0  0  0  0  0  0  0  0  0  0
   16.7398  -13.9960   20.6441 N   0  0  0  0  0  0  0  0  0  0  0  0
   16.6050  -13.4007   19.5112 N   0  0  0  0  0  0  0  0  0  0  0  0
   15.6338  -14.5675   21.3259 C   0  0  0  0  0  0  0  0  0  0  0  0
   15.5350  -15.9996   21.4023 C   0  0  0  0  0  0  0  0  0  0  0  0
   14.3888  -16.4093   22.3539 C   0  0  0  0  0  0  0  0  0  0  0  0
   13.1796  -15.5539   22.0929 C   0  0  1  0  0  0  0  0  0  0  0  0
   11.9017  -16.1381   22.5785 N   0  0  0  0  0  0  0  0  0  0  0  0
   10.7723  -15.2387   22.3119 C   0  0  0  0  0  0  0  0  0  0  0  0
   11.9452  -16.3515   24.0239 O   0  0  0  0  0  0  0  0  0  0  0  0
   11.2372  -15.6601   24.7882 O   0  0  0  0  0  0  0  0  0  0  0  0
  1  2  1  0
  2  4  1  0
  2  3  2  0
  4  5  1  0
  6  5  1  0
  7  6  1  0
  8  7  1  0
  8  9  1  6
 10  8  1  0
 10 12  1  0
 11 10  2  0
 13 16  1  0
 13 12  1  0
 13 14  1  1
 15 14  1  0
 16 17  2  0
 18 19  1  0
 19 21  1  0
 20 19  2  0
 21 22  1  0
 23 24  1  0
 23 22  1  0
 25 24  1  6
 25 27  1  0
 26 25  1  0
 26 16  1  0
 27 28  2  0
 27 29  1  0
M  END
$$$$
