RCR.pdb
     RDKit          3D

 29 28  0  0  1  0  0  0  0  0999 V2000
    7.5720  -14.2105   15.7591 N   0  0  0  0  0  0  0  0  0  0  0  0
    8.2971  -15.4263   15.8597 C   0  0  0  0  0  0  0  0  0  0  0  0
    8.4365  -16.1814   14.8363 N   0  0  0  0  0  0  0  0  0  0  0  0
    8.8915  -15.8498   17.0892 N   0  0  0  0  0  0  0  0  0  0  0  0
    8.1153  -15.9784   18.3032 C   0  0  0  0  0  0  0  0  0  0  0  0
    7.2668  -14.7609   18.4818 C   0  0  0  0  0  0  0  0  0  0  0  0
    6.9165  -14.4771   19.8948 C   0  0  0  0  0  0  0  0  0  0  0  0
    7.3166  -13.1575   20.4402 C   0  0  2  0  0  0  0  0  0  0  0  0
    7.9731  -12.2664   19.5435 N   0  0  0  0  0  0  0  0  0  0  0  0
    8.1123  -13.3841   21.6931 C   0  0  0  0  0  0  0  0  0  0  0  0
    9.3442  -13.5128   21.5844 O   0  0  0  0  0  0  0  0  0  0  0  0
    8.9976  -17.0653   14.8483 N   0  0  0  0  0  0  0  0  0  0  0  0
    7.5231  -13.4557   22.9750 C   0  0  2  0  0  0  0  0  0  0  0  0
    8.2373  -13.7745   24.1880 C   0  0  0  0  0  0  0  0  0  0  0  0
    7.5022  -13.2567   25.3988 S   0  0  0  0  0  0  0  0  0  0  0  0
    5.7625  -13.7194   25.3838 C   0  0  0  0  0  0  0  0  0  0  0  0
    8.3971  -15.2470   24.3122 O   0  0  0  0  0  0  0  0  0  0  0  0
    7.4615  -16.0455   23.9815 N   0  0  0  0  0  0  0  0  0  0  0  0
   12.1760  -20.5501   20.6410 C   0  0  0  0  0  0  0  0  0  0  0  0
   11.9644  -19.3751   19.8831 N   0  0  0  0  0  0  0  0  0  0  0  0
   11.6827  -19.4802   18.6318 N   0  0  0  0  0  0  0  0  0  0  0  0
   12.0688  -18.1127   20.5236 C   0  0  0  0  0  0  0  0  0  0  0  0
   12.2005  -18.0734   21.9545 C   0  0  0  0  0  0  0  0  0  0  0  0
   10.8390  -17.7530   22.6110 C   0  0  0  0  0  0  0  0  0  0  0  0
   10.9896  -17.7221   24.1071 C   0  0  2  0  0  0  0  0  0  0  0  0
    9.7588  -17.3182   24.8367 N   0  0  0  0  0  0  0  0  0  0  0  0
    9.5714  -15.8626   24.7953 C   0  0  0  0  0  0  0  0  0  0  0  0
    9.8431  -17.6976   26.2457 O   0  0  0  0  0  0  0  0  0  0  0  0
    9.8841  -16.8212   27.1367 O   0  0  0  0  0  0  0  0  0  0  0  0
  1  2  1  0
  2  4  1  0
  2  3  2  0
  4  5  1  0
  6  5  1  0
  7  6  1  0
  8  7  1  0
  8  9  1  6
 10  8  1  0
 10 12  1  0
 11 10  2  0
 13 16  1  0
 13 12  1  0
 13 14  1  6
 15 14  1  0
 16 17  2  0
 18 19  1  0
 19 21  1  0
 20 19  2  0
 21 22  1  0
 23 24  1  0
 23 22  1  0
 25 24  1  6
 25 27  1  0
 26 25  1  0
 26 16  1  0
 27 28  2  0
 27 29  1  0
M  END
$$$$
