RCR.pdb
     RDKit          3D

 29 28  0  0  1  0  0  0  0  0999 V2000
    7.8475  -18.9635   11.4979 N   0  0  0  0  0  0  0  0  0  0  0  0
    6.7613  -18.0804   11.7304 C   0  0  0  0  0  0  0  0  0  0  0  0
    6.2463  -17.4214   10.7622 N   0  0  0  0  0  0  0  0  0  0  0  0
    6.2073  -17.8942   13.0353 N   0  0  0  0  0  0  0  0  0  0  0  0
    6.9191  -18.3003   14.2275 C   0  0  0  0  0  0  0  0  0  0  0  0
    8.2970  -17.7213   14.2049 C   0  0  0  0  0  0  0  0  0  0  0  0
    8.5818  -16.8087   15.3388 C   0  0  0  0  0  0  0  0  0  0  0  0
    7.9502  -17.1291   16.6416 C   0  0  2  0  0  0  0  0  0  0  0  0
    6.5263  -17.1358   16.6784 N   0  0  0  0  0  0  0  0  0  0  0  0
    8.5369  -16.2256   17.6875 C   0  0  0  0  0  0  0  0  0  0  0  0
    9.7753  -16.1303   17.7455 O   0  0  0  0  0  0  0  0  0  0  0  0
    5.4402  -16.7639   10.8809 N   0  0  0  0  0  0  0  0  0  0  0  0
    7.7463  -15.4884   18.5969 C   0  0  1  0  0  0  0  0  0  0  0  0
    8.2712  -14.6985   19.6849 C   0  0  0  0  0  0  0  0  0  0  0  0
    7.2443  -13.7104   20.1785 S   0  0  0  0  0  0  0  0  0  0  0  0
    7.7668  -12.8908   21.6937 C   0  0  0  0  0  0  0  0  0  0  0  0
    8.6703  -15.5840   20.8101 O   0  0  0  0  0  0  0  0  0  0  0  0
    7.8187  -16.3144   21.4130 N   0  0  0  0  0  0  0  0  0  0  0  0
    9.8824  -22.5741   21.3424 C   0  0  0  0  0  0  0  0  0  0  0  0
    9.7685  -21.9531   20.0770 N   0  0  0  0  0  0  0  0  0  0  0  0
    9.3640  -22.6490   19.0729 N   0  0  0  0  0  0  0  0  0  0  0  0
   10.1037  -20.5797   19.9498 C   0  0  0  0  0  0  0  0  0  0  0  0
   10.5568  -19.8690   21.1142 C   0  0  0  0  0  0  0  0  0  0  0  0
   10.7660  -18.3742   20.7841 C   0  0  0  0  0  0  0  0  0  0  0  0
   11.2496  -17.6452   22.0074 C   0  0  2  0  0  0  0  0  0  0  0  0
   10.3764  -16.5195   22.4327 N   0  0  0  0  0  0  0  0  0  0  0  0
    9.9943  -15.6832   21.2882 C   0  0  0  0  0  0  0  0  0  0  0  0
   11.0732  -15.6524   23.3809 O   0  0  0  0  0  0  0  0  0  0  0  0
   11.3638  -14.4768   23.0693 O   0  0  0  0  0  0  0  0  0  0  0  0
  1  2  1  0
  2  4  1  0
  2  3  2  0
  4  5  1  0
  6  5  1  0
  7  6  1  0
  8  7  1  0
  8  9  1  6
 10  8  1  0
 10 12  1  0
 11 10  2  0
 13 16  1  0
 13 12  1  0
 13 14  1  6
 15 14  1  0
 16 17  2  0
 18 19  1  0
 19 21  1  0
 20 19  2  0
 21 22  1  0
 23 24  1  0
 23 22  1  0
 25 24  1  6
 25 27  1  0
 26 25  1  0
 26 16  1  0
 27 28  2  0
 27 29  1  0
M  END
$$$$
