RCR.pdb
     RDKit          3D

 29 28  0  0  1  0  0  0  0  0999 V2000
    7.6028  -16.4296   13.8070 N   0  0  0  0  0  0  0  0  0  0  0  0
    8.1651  -16.1241   15.0737 C   0  0  0  0  0  0  0  0  0  0  0  0
    9.1514  -15.3141   15.1638 N   0  0  0  0  0  0  0  0  0  0  0  0
    7.6603  -16.7000   16.2810 N   0  0  0  0  0  0  0  0  0  0  0  0
    8.2818  -16.4443   17.5621 C   0  0  0  0  0  0  0  0  0  0  0  0
    7.8772  -15.0902   18.0492 C   0  0  0  0  0  0  0  0  0  0  0  0
    8.3893  -14.7628   19.4021 C   0  0  0  0  0  0  0  0  0  0  0  0
    8.0174  -13.4429   19.9663 C   0  0  2  0  0  0  0  0  0  0  0  0
    8.5099  -12.2934   19.2842 N   0  0  0  0  0  0  0  0  0  0  0  0
    8.3789  -13.4317   21.4235 C   0  0  0  0  0  0  0  0  0  0  0  0
    9.5746  -13.2719   21.7249 O   0  0  0  0  0  0  0  0  0  0  0  0
    9.6505  -15.1164   16.0627 N   0  0  0  0  0  0  0  0  0  0  0  0
    7.4250  -13.5934   22.4529 C   0  0  2  0  0  0  0  0  0  0  0  0
    7.7423  -13.6694   23.8588 C   0  0  0  0  0  0  0  0  0  0  0  0
    6.5700  -13.2322   24.7008 S   0  0  0  0  0  0  0  0  0  0  0  0
    6.9039  -13.3935   26.4624 C   0  0  0  0  0  0  0  0  0  0  0  0
    8.1065  -15.0636   24.2234 O   0  0  0  0  0  0  0  0  0  0  0  0
    7.3360  -16.0417   23.9550 N   0  0  0  0  0  0  0  0  0  0  0  0
   13.1777  -20.6235   22.1138 C   0  0  0  0  0  0  0  0  0  0  0  0
   12.5639  -19.6722   21.2663 N   0  0  0  0  0  0  0  0  0  0  0  0
   11.9429  -20.0795   20.2153 N   0  0  0  0  0  0  0  0  0  0  0  0
   12.6500  -18.2950   21.5985 C   0  0  0  0  0  0  0  0  0  0  0  0
   12.5626  -17.9116   22.9812 C   0  0  0  0  0  0  0  0  0  0  0  0
   11.0945  -17.6245   23.3677 C   0  0  0  0  0  0  0  0  0  0  0  0
   11.0287  -17.1294   24.7863 C   0  0  2  0  0  0  0  0  0  0  0  0
    9.6591  -16.7828   25.2494 N   0  0  0  0  0  0  0  0  0  0  0  0
    9.3073  -15.4059   24.8807 C   0  0  0  0  0  0  0  0  0  0  0  0
    9.5660  -16.8716   26.7054 O   0  0  0  0  0  0  0  0  0  0  0  0
    9.3740  -15.8444   27.3921 O   0  0  0  0  0  0  0  0  0  0  0  0
  1  2  1  0
  2  4  1  0
  2  3  2  0
  4  5  1  0
  6  5  1  0
  7  6  1  0
  8  7  1  0
  8  9  1  6
 10  8  1  0
 10 12  1  0
 11 10  2  0
 13 16  1  0
 13 12  1  0
 13 14  1  6
 15 14  1  0
 16 17  2  0
 18 19  1  0
 19 21  1  0
 20 19  2  0
 21 22  1  0
 23 24  1  0
 23 22  1  0
 25 24  1  6
 25 27  1  0
 26 25  1  0
 26 16  1  0
 27 28  2  0
 27 29  1  0
M  END
$$$$
