RCR.pdb
     RDKit          3D

 29 28  0  0  1  0  0  0  0  0999 V2000
    9.9985  -14.5375   11.8362 N   0  0  0  0  0  0  0  0  0  0  0  0
    9.5738  -15.0037   13.1075 C   0  0  0  0  0  0  0  0  0  0  0  0
    8.3332  -15.2183   13.3350 N   0  0  0  0  0  0  0  0  0  0  0  0
   10.5004  -15.2485   14.1685 N   0  0  0  0  0  0  0  0  0  0  0  0
   10.0550  -15.5280   15.5162 C   0  0  0  0  0  0  0  0  0  0  0  0
   10.1612  -14.2867   16.3421 C   0  0  0  0  0  0  0  0  0  0  0  0
    9.8061  -14.4842   17.7686 C   0  0  0  0  0  0  0  0  0  0  0  0
    8.3756  -14.3509   18.1356 C   0  0  2  0  0  0  0  0  0  0  0  0
    7.6740  -13.2406   17.5842 N   0  0  0  0  0  0  0  0  0  0  0  0
    8.2637  -14.4017   19.6320 C   0  0  0  0  0  0  0  0  0  0  0  0
    8.4703  -13.3526   20.2666 O   0  0  0  0  0  0  0  0  0  0  0  0
    7.9815  -15.6771   14.2080 N   0  0  0  0  0  0  0  0  0  0  0  0
    7.9365  -15.5806   20.3383 C   0  0  2  0  0  0  0  0  0  0  0  0
    7.8048  -15.6658   21.7730 C   0  0  0  0  0  0  0  0  0  0  0  0
    6.3782  -15.9550   22.1676 S   0  0  0  0  0  0  0  0  0  0  0  0
    5.7644  -17.4745   21.4226 C   0  0  0  0  0  0  0  0  0  0  0  0
    8.6809  -16.7443   22.3011 O   0  0  0  0  0  0  0  0  0  0  0  0
    9.1286  -17.6650   21.5434 N   0  0  0  0  0  0  0  0  0  0  0  0
   10.9984  -13.5167   28.7396 C   0  0  0  0  0  0  0  0  0  0  0  0
    9.9228  -13.4773   27.8224 N   0  0  0  0  0  0  0  0  0  0  0  0
    9.2941  -12.3689   27.6429 N   0  0  0  0  0  0  0  0  0  0  0  0
    9.5667  -14.6614   27.1254 C   0  0  0  0  0  0  0  0  0  0  0  0
   10.4179  -15.8138   27.2423 C   0  0  0  0  0  0  0  0  0  0  0  0
   10.8414  -16.3136   25.8430 C   0  0  0  0  0  0  0  0  0  0  0  0
   10.2728  -17.6842   25.5980 C   0  0  2  0  0  0  0  0  0  0  0  0
    9.8786  -17.9387   24.1873 N   0  0  0  0  0  0  0  0  0  0  0  0
    9.0766  -16.8311   23.6528 C   0  0  0  0  0  0  0  0  0  0  0  0
    9.0597  -19.1453   24.0873 O   0  0  0  0  0  0  0  0  0  0  0  0
    7.8367  -19.0627   23.8403 O   0  0  0  0  0  0  0  0  0  0  0  0
  1  2  1  0
  2  4  1  0
  2  3  2  0
  4  5  1  0
  6  5  1  0
  7  6  1  0
  8  7  1  0
  8  9  1  1
 10  8  1  0
 10 12  1  0
 11 10  2  0
 13 16  1  0
 13 12  1  0
 13 14  1  6
 15 14  1  0
 16 17  2  0
 18 19  1  0
 19 21  1  0
 20 19  2  0
 21 22  1  0
 23 24  1  0
 23 22  1  0
 25 24  1  6
 25 27  1  0
 26 25  1  0
 26 16  1  0
 27 28  2  0
 27 29  1  0
M  END
$$$$
