RCR.pdb
     RDKit          3D

 29 28  0  0  1  0  0  0  0  0999 V2000
    7.8944  -15.2608   15.1953 N   0  0  0  0  0  0  0  0  0  0  0  0
    7.6860  -14.0405   15.8889 C   0  0  0  0  0  0  0  0  0  0  0  0
    8.2428  -12.9630   15.4814 N   0  0  0  0  0  0  0  0  0  0  0  0
    6.8585  -13.9668   17.0526 N   0  0  0  0  0  0  0  0  0  0  0  0
    6.7174  -15.0877   17.9562 C   0  0  0  0  0  0  0  0  0  0  0  0
    7.9939  -15.2828   18.7090 C   0  0  0  0  0  0  0  0  0  0  0  0
    7.9942  -14.6655   20.0576 C   0  0  0  0  0  0  0  0  0  0  0  0
    8.2201  -15.5650   21.2146 C   0  0  2  0  0  0  0  0  0  0  0  0
    7.1935  -16.5101   21.5008 N   0  0  0  0  0  0  0  0  0  0  0  0
    8.5603  -14.7228   22.4102 C   0  0  0  0  0  0  0  0  0  0  0  0
    9.5056  -13.9217   22.3072 O   0  0  0  0  0  0  0  0  0  0  0  0
    8.7932  -12.9029   14.5927 N   0  0  0  0  0  0  0  0  0  0  0  0
    7.8567  -14.8041   23.6324 C   0  0  1  0  0  0  0  0  0  0  0  0
    8.1720  -14.0341   24.8117 C   0  0  0  0  0  0  0  0  0  0  0  0
    6.9181  -13.6503   25.5566 S   0  0  0  0  0  0  0  0  0  0  0  0
    7.2805  -12.9251   27.1639 C   0  0  0  0  0  0  0  0  0  0  0  0
    9.0490  -14.8237   25.7154 O   0  0  0  0  0  0  0  0  0  0  0  0
    8.6186  -15.8604   26.3173 N   0  0  0  0  0  0  0  0  0  0  0  0
   11.0615  -19.2458   30.7135 C   0  0  0  0  0  0  0  0  0  0  0  0
   11.0713  -18.2422   31.7098 N   0  0  0  0  0  0  0  0  0  0  0  0
   10.4813  -18.4682   32.8310 N   0  0  0  0  0  0  0  0  0  0  0  0
   11.7315  -17.0139   31.4454 C   0  0  0  0  0  0  0  0  0  0  0  0
   11.0898  -16.0561   30.5868 C   0  0  0  0  0  0  0  0  0  0  0  0
   11.3349  -16.4144   29.1040 C   0  0  0  0  0  0  0  0  0  0  0  0
   10.6550  -15.4075   28.2175 C   0  0  1  0  0  0  0  0  0  0  0  0
   11.2604  -15.2761   26.8660 N   0  0  0  0  0  0  0  0  0  0  0  0
   10.3970  -14.4947   25.9719 C   0  0  0  0  0  0  0  0  0  0  0  0
   11.4382  -16.5886   26.2477 O   0  0  0  0  0  0  0  0  0  0  0  0
   12.4772  -16.8498   25.6028 O   0  0  0  0  0  0  0  0  0  0  0  0
  1  2  1  0
  2  4  1  0
  2  3  2  0
  4  5  1  0
  6  5  1  0
  7  6  1  0
  8  7  1  0
  8  9  1  1
 10  8  1  0
 10 12  1  0
 11 10  2  0
 13 16  1  0
 13 12  1  0
 13 14  1  1
 15 14  1  0
 16 17  2  0
 18 19  1  0
 19 21  1  0
 20 19  2  0
 21 22  1  0
 23 24  1  0
 23 22  1  0
 25 24  1  1
 25 27  1  0
 26 25  1  0
 26 16  1  0
 27 28  2  0
 27 29  1  0
M  END
$$$$
