RCR.pdb
     RDKit          3D

 29 28  0  0  1  0  0  0  0  0999 V2000
   10.0743  -17.2179   12.7946 N   0  0  0  0  0  0  0  0  0  0  0  0
    9.0268  -16.8626   13.6837 C   0  0  0  0  0  0  0  0  0  0  0  0
    7.8715  -16.5533   13.2293 N   0  0  0  0  0  0  0  0  0  0  0  0
    9.2172  -16.8363   15.1005 N   0  0  0  0  0  0  0  0  0  0  0  0
    8.1151  -16.6140   16.0107 C   0  0  0  0  0  0  0  0  0  0  0  0
    7.9818  -15.1500   16.2814 C   0  0  0  0  0  0  0  0  0  0  0  0
    8.5546  -14.7269   17.5825 C   0  0  0  0  0  0  0  0  0  0  0  0
    7.7592  -13.7759   18.3959 C   0  0  2  0  0  0  0  0  0  0  0  0
    7.4154  -12.5383   17.7800 N   0  0  0  0  0  0  0  0  0  0  0  0
    8.4578  -13.5767   19.7099 C   0  0  0  0  0  0  0  0  0  0  0  0
    9.5425  -12.9690   19.7057 O   0  0  0  0  0  0  0  0  0  0  0  0
    7.0653  -16.2911   13.8437 N   0  0  0  0  0  0  0  0  0  0  0  0
    7.9369  -14.0471   20.9359 C   0  0  2  0  0  0  0  0  0  0  0  0
    8.7039  -14.1915   22.1500 C   0  0  0  0  0  0  0  0  0  0  0  0
    7.8810  -13.8134   23.3560 S   0  0  0  0  0  0  0  0  0  0  0  0
    6.3651  -14.7775   23.4707 C   0  0  0  0  0  0  0  0  0  0  0  0
    9.1616  -15.5979   22.2982 O   0  0  0  0  0  0  0  0  0  0  0  0
    8.6444  -16.5389   21.6132 N   0  0  0  0  0  0  0  0  0  0  0  0
   17.0642  -14.6111   20.9573 C   0  0  0  0  0  0  0  0  0  0  0  0
   16.0454  -14.3121   20.0233 N   0  0  0  0  0  0  0  0  0  0  0  0
   16.3738  -13.9834   18.8232 N   0  0  0  0  0  0  0  0  0  0  0  0
   14.6890  -14.3827   20.4356 C   0  0  0  0  0  0  0  0  0  0  0  0
   13.8860  -15.4851   19.9814 C   0  0  0  0  0  0  0  0  0  0  0  0
   13.3940  -16.3228   21.1829 C   0  0  0  0  0  0  0  0  0  0  0  0
   12.0940  -15.7655   21.6941 C   0  0  2  0  0  0  0  0  0  0  0  0
   11.4485  -16.5907   22.7490 N   0  0  0  0  0  0  0  0  0  0  0  0
   10.1821  -15.9924   23.1894 C   0  0  0  0  0  0  0  0  0  0  0  0
   12.3066  -16.6890   23.9282 O   0  0  0  0  0  0  0  0  0  0  0  0
   11.9981  -16.1005   24.9874 O   0  0  0  0  0  0  0  0  0  0  0  0
  1  2  1  0
  2  4  1  0
  2  3  2  0
  4  5  1  0
  6  5  1  0
  7  6  1  0
  8  7  1  0
  8  9  1  6
 10  8  1  0
 10 12  1  0
 11 10  2  0
 13 16  1  0
 13 12  1  0
 13 14  1  6
 15 14  1  0
 16 17  2  0
 18 19  1  0
 19 21  1  0
 20 19  2  0
 21 22  1  0
 23 24  1  0
 23 22  1  0
 25 24  1  6
 25 27  1  0
 26 25  1  0
 26 16  1  0
 27 28  2  0
 27 29  1  0
M  END
$$$$
