RCR.pdb
     RDKit          3D

 29 28  0  0  1  0  0  0  0  0999 V2000
    7.4006  -13.4659   15.4285 N   0  0  0  0  0  0  0  0  0  0  0  0
    7.4434  -14.4263   16.4723 C   0  0  0  0  0  0  0  0  0  0  0  0
    7.9483  -15.5835   16.2646 N   0  0  0  0  0  0  0  0  0  0  0  0
    6.9321  -14.1443   17.7774 N   0  0  0  0  0  0  0  0  0  0  0  0
    7.7741  -14.2050   18.9523 C   0  0  0  0  0  0  0  0  0  0  0  0
    7.4975  -15.4712   19.6969 C   0  0  0  0  0  0  0  0  0  0  0  0
    7.9439  -15.4440   21.1111 C   0  0  0  0  0  0  0  0  0  0  0  0
    8.9899  -14.4571   21.4726 C   0  0  2  0  0  0  0  0  0  0  0  0
   10.1653  -14.4461   20.6679 N   0  0  0  0  0  0  0  0  0  0  0  0
    9.3070  -14.6158   22.9316 C   0  0  0  0  0  0  0  0  0  0  0  0
   10.3949  -15.1345   23.2372 O   0  0  0  0  0  0  0  0  0  0  0  0
    8.0177  -16.3200   17.0055 N   0  0  0  0  0  0  0  0  0  0  0  0
    8.4283  -14.2035   23.9580 C   0  0  2  0  0  0  0  0  0  0  0  0
    8.7266  -14.2730   25.3684 C   0  0  0  0  0  0  0  0  0  0  0  0
    7.6705  -13.5642   26.1787 S   0  0  0  0  0  0  0  0  0  0  0  0
    8.0147  -13.6291   27.9445 C   0  0  0  0  0  0  0  0  0  0  0  0
    8.7987  -15.6924   25.8037 O   0  0  0  0  0  0  0  0  0  0  0  0
    7.8405  -16.5024   25.5843 N   0  0  0  0  0  0  0  0  0  0  0  0
   16.2620  -19.9508   26.7107 C   0  0  0  0  0  0  0  0  0  0  0  0
   15.1868  -20.1271   27.6122 N   0  0  0  0  0  0  0  0  0  0  0  0
   15.4320  -20.5479   28.8034 N   0  0  0  0  0  0  0  0  0  0  0  0
   13.8674  -19.8349   27.1781 C   0  0  0  0  0  0  0  0  0  0  0  0
   12.8127  -19.7941   28.1540 C   0  0  0  0  0  0  0  0  0  0  0  0
   11.4485  -19.5757   27.4624 C   0  0  0  0  0  0  0  0  0  0  0  0
   11.3353  -18.1497   26.9980 C   0  0  2  0  0  0  0  0  0  0  0  0
    9.9454  -17.6222   26.9783 N   0  0  0  0  0  0  0  0  0  0  0  0
    9.9092  -16.2420   26.4790 C   0  0  0  0  0  0  0  0  0  0  0  0
    9.3787  -17.6035   28.3255 O   0  0  0  0  0  0  0  0  0  0  0  0
    9.4955  -16.5899   29.0482 O   0  0  0  0  0  0  0  0  0  0  0  0
  1  2  1  0
  2  4  1  0
  2  3  2  0
  4  5  1  0
  6  5  1  0
  7  6  1  0
  8  7  1  0
  8  9  1  6
 10  8  1  0
 10 12  1  0
 11 10  2  0
 13 16  1  0
 13 12  1  0
 13 14  1  6
 15 14  1  0
 16 17  2  0
 18 19  1  0
 19 21  1  0
 20 19  2  0
 21 22  1  0
 23 24  1  0
 23 22  1  0
 25 24  1  6
 25 27  1  0
 26 25  1  0
 26 16  1  0
 27 28  2  0
 27 29  1  0
M  END
$$$$
