RCR.pdb
     RDKit          3D

 29 28  0  0  1  0  0  0  0  0999 V2000
    9.8208  -17.9708   18.5487 N   0  0  0  0  0  0  0  0  0  0  0  0
    8.7690  -17.5945   17.6735 C   0  0  0  0  0  0  0  0  0  0  0  0
    8.9523  -17.5927   16.4072 N   0  0  0  0  0  0  0  0  0  0  0  0
    7.4825  -17.2083   18.1634 N   0  0  0  0  0  0  0  0  0  0  0  0
    7.2696  -16.8700   19.5537 C   0  0  0  0  0  0  0  0  0  0  0  0
    8.0978  -15.6768   19.9072 C   0  0  0  0  0  0  0  0  0  0  0  0
    7.8936  -15.1960   21.2953 C   0  0  0  0  0  0  0  0  0  0  0  0
    7.3252  -13.8370   21.4650 C   0  0  2  0  0  0  0  0  0  0  0  0
    7.4094  -12.9631   20.3432 N   0  0  0  0  0  0  0  0  0  0  0  0
    7.9191  -13.2260   22.7013 C   0  0  0  0  0  0  0  0  0  0  0  0
    8.8962  -12.4694   22.5644 O   0  0  0  0  0  0  0  0  0  0  0  0
    8.2156  -17.3034   15.7218 N   0  0  0  0  0  0  0  0  0  0  0  0
    7.4169  -13.4742   23.9981 C   0  0  2  0  0  0  0  0  0  0  0  0
    8.0764  -13.0821   25.2206 C   0  0  0  0  0  0  0  0  0  0  0  0
    7.1470  -12.2887   26.1045 S   0  0  0  0  0  0  0  0  0  0  0  0
    5.6471  -13.2014   26.5020 C   0  0  0  0  0  0  0  0  0  0  0  0
    8.5356  -14.2871   25.9599 O   0  0  0  0  0  0  0  0  0  0  0  0
    7.8684  -15.3719   25.9388 N   0  0  0  0  0  0  0  0  0  0  0  0
   12.2947  -18.4980   22.2173 C   0  0  0  0  0  0  0  0  0  0  0  0
   12.3013  -19.0283   23.5283 N   0  0  0  0  0  0  0  0  0  0  0  0
   13.2502  -19.8251   23.8759 N   0  0  0  0  0  0  0  0  0  0  0  0
   11.2612  -18.6669   24.4239 C   0  0  0  0  0  0  0  0  0  0  0  0
   11.2284  -17.3251   24.9384 C   0  0  0  0  0  0  0  0  0  0  0  0
   11.6578  -17.3077   26.4225 C   0  0  0  0  0  0  0  0  0  0  0  0
   11.5564  -15.9089   26.9658 C   0  0  2  0  0  0  0  0  0  0  0  0
   10.1931  -15.5276   27.4203 N   0  0  0  0  0  0  0  0  0  0  0  0
    9.7202  -14.3236   26.7259 C   0  0  0  0  0  0  0  0  0  0  0  0
   10.1890  -15.2247   28.8502 O   0  0  0  0  0  0  0  0  0  0  0  0
   10.3404  -14.0495   29.2496 O   0  0  0  0  0  0  0  0  0  0  0  0
  1  2  1  0
  2  4  1  0
  2  3  2  0
  4  5  1  0
  6  5  1  0
  7  6  1  0
  8  7  1  0
  8  9  1  6
 10  8  1  0
 10 12  1  0
 11 10  2  0
 13 16  1  0
 13 12  1  0
 13 14  1  6
 15 14  1  0
 16 17  2  0
 18 19  1  0
 19 21  1  0
 20 19  2  0
 21 22  1  0
 23 24  1  0
 23 22  1  0
 25 24  1  6
 25 27  1  0
 26 25  1  0
 26 16  1  0
 27 28  2  0
 27 29  1  0
M  END
$$$$
