RCR.pdb
     RDKit          3D

 29 28  0  0  1  0  0  0  0  0999 V2000
    7.1181  -13.1696   14.3106 N   0  0  0  0  0  0  0  0  0  0  0  0
    8.0570  -13.7695   15.1895 C   0  0  0  0  0  0  0  0  0  0  0  0
    8.6283  -14.8691   14.8709 N   0  0  0  0  0  0  0  0  0  0  0  0
    8.3970  -13.1789   16.4464 N   0  0  0  0  0  0  0  0  0  0  0  0
    7.4798  -13.1934   17.5650 C   0  0  0  0  0  0  0  0  0  0  0  0
    7.4956  -14.5450   18.2031 C   0  0  0  0  0  0  0  0  0  0  0  0
    8.3060  -14.6123   19.4435 C   0  0  0  0  0  0  0  0  0  0  0  0
    7.7166  -15.3294   20.5999 C   0  0  2  0  0  0  0  0  0  0  0  0
    6.2958  -15.3213   20.7017 N   0  0  0  0  0  0  0  0  0  0  0  0
    8.3745  -14.8287   21.8532 C   0  0  0  0  0  0  0  0  0  0  0  0
    9.6107  -14.6953   21.8477 O   0  0  0  0  0  0  0  0  0  0  0  0
    9.4381  -15.2688   15.4008 N   0  0  0  0  0  0  0  0  0  0  0  0
    7.6525  -14.5070   23.0240 C   0  0  2  0  0  0  0  0  0  0  0  0
    8.2544  -14.2099   24.3017 C   0  0  0  0  0  0  0  0  0  0  0  0
    7.2546  -13.5729   25.2339 S   0  0  0  0  0  0  0  0  0  0  0  0
    5.9321  -14.7075   25.6862 C   0  0  0  0  0  0  0  0  0  0  0  0
    8.7693  -15.4577   24.9239 O   0  0  0  0  0  0  0  0  0  0  0  0
    8.1029  -16.5424   24.8833 N   0  0  0  0  0  0  0  0  0  0  0  0
   15.7484  -15.2773   21.4612 C   0  0  0  0  0  0  0  0  0  0  0  0
   14.3421  -15.2068   21.3297 N   0  0  0  0  0  0  0  0  0  0  0  0
   13.8387  -14.5995   20.3129 N   0  0  0  0  0  0  0  0  0  0  0  0
   13.5253  -15.8077   22.3228 C   0  0  0  0  0  0  0  0  0  0  0  0
   14.0925  -16.8330   23.1555 C   0  0  0  0  0  0  0  0  0  0  0  0
   13.0502  -17.3292   24.1825 C   0  0  0  0  0  0  0  0  0  0  0  0
   12.0188  -16.2604   24.4185 C   0  0  1  0  0  0  0  0  0  0  0  0
   10.9621  -16.6361   25.3946 N   0  0  0  0  0  0  0  0  0  0  0  0
   10.0090  -15.5373   25.5934 C   0  0  0  0  0  0  0  0  0  0  0  0
   11.5457  -16.9361   26.7007 O   0  0  0  0  0  0  0  0  0  0  0  0
   11.2627  -16.2359   27.6973 O   0  0  0  0  0  0  0  0  0  0  0  0
  1  2  1  0
  2  4  1  0
  2  3  2  0
  4  5  1  0
  6  5  1  0
  7  6  1  0
  8  7  1  0
  8  9  1  1
 10  8  1  0
 10 12  1  0
 11 10  2  0
 13 16  1  0
 13 12  1  0
 13 14  1  6
 15 14  1  0
 16 17  2  0
 18 19  1  0
 19 21  1  0
 20 19  2  0
 21 22  1  0
 23 24  1  0
 23 22  1  0
 25 24  1  6
 25 27  1  0
 26 25  1  0
 26 16  1  0
 27 28  2  0
 27 29  1  0
M  END
$$$$
