RCR.pdb
     RDKit          3D

 29 28  0  0  1  0  0  0  0  0999 V2000
    6.6264  -18.6074   20.3534 N   0  0  0  0  0  0  0  0  0  0  0  0
    7.7869  -18.3260   19.5867 C   0  0  0  0  0  0  0  0  0  0  0  0
    8.8252  -19.0662   19.6917 N   0  0  0  0  0  0  0  0  0  0  0  0
    7.8419  -17.2215   18.6804 N   0  0  0  0  0  0  0  0  0  0  0  0
    6.8812  -16.1416   18.7402 C   0  0  0  0  0  0  0  0  0  0  0  0
    7.5104  -14.9522   19.3913 C   0  0  0  0  0  0  0  0  0  0  0  0
    6.6655  -14.3247   20.4364 C   0  0  0  0  0  0  0  0  0  0  0  0
    7.1451  -13.0485   21.0196 C   0  0  2  0  0  0  0  0  0  0  0  0
    7.9531  -12.2260   20.1831 N   0  0  0  0  0  0  0  0  0  0  0  0
    7.8133  -13.3482   22.3304 C   0  0  0  0  0  0  0  0  0  0  0  0
    9.0428  -13.5334   22.3275 O   0  0  0  0  0  0  0  0  0  0  0  0
    9.6938  -18.9187   19.1260 N   0  0  0  0  0  0  0  0  0  0  0  0
    7.1081  -13.4266   23.5519 C   0  0  2  0  0  0  0  0  0  0  0  0
    7.7060  -13.7590   24.8228 C   0  0  0  0  0  0  0  0  0  0  0  0
    6.7585  -13.4638   25.9584 S   0  0  0  0  0  0  0  0  0  0  0  0
    6.0825  -11.7982   25.8606 C   0  0  0  0  0  0  0  0  0  0  0  0
    8.0646  -15.2012   24.8545 O   0  0  0  0  0  0  0  0  0  0  0  0
    7.3213  -16.0811   24.3109 N   0  0  0  0  0  0  0  0  0  0  0  0
   15.0210  -19.3373   22.1288 C   0  0  0  0  0  0  0  0  0  0  0  0
   14.1910  -20.2981   22.7517 N   0  0  0  0  0  0  0  0  0  0  0  0
   14.7143  -21.3929   23.1803 N   0  0  0  0  0  0  0  0  0  0  0  0
   12.8041  -20.0281   22.8867 C   0  0  0  0  0  0  0  0  0  0  0  0
   12.3851  -18.6754   23.1341 C   0  0  0  0  0  0  0  0  0  0  0  0
   11.2511  -18.6473   24.1833 C   0  0  0  0  0  0  0  0  0  0  0  0
   10.7578  -17.2379   24.3625 C   0  0  2  0  0  0  0  0  0  0  0  0
    9.6687  -17.0947   25.3644 N   0  0  0  0  0  0  0  0  0  0  0  0
    9.2305  -15.6979   25.4752 C   0  0  0  0  0  0  0  0  0  0  0  0
   10.1269  -17.5046   26.6905 O   0  0  0  0  0  0  0  0  0  0  0  0
   10.2453  -16.6635   27.6082 O   0  0  0  0  0  0  0  0  0  0  0  0
  1  2  1  0
  2  4  1  0
  2  3  2  0
  4  5  1  0
  6  5  1  0
  7  6  1  0
  8  7  1  0
  8  9  1  6
 10  8  1  0
 10 12  1  0
 11 10  2  0
 13 16  1  0
 13 12  1  0
 13 14  1  6
 15 14  1  0
 16 17  2  0
 18 19  1  0
 19 21  1  0
 20 19  2  0
 21 22  1  0
 23 24  1  0
 23 22  1  0
 25 24  1  6
 25 27  1  0
 26 25  1  0
 26 16  1  0
 27 28  2  0
 27 29  1  0
M  END
$$$$
