GGC.pdb
     RDKit          3D

 15 14  0  0  1  0  0  0  0  0999 V2000
    5.3030  -19.9589   22.5741 N   0  0  0  0  0  0  0  0  0  0  0  0
    5.3412  -18.7034   23.2590 C   0  0  0  0  0  0  0  0  0  0  0  0
    6.2194  -17.7463   22.5208 C   0  0  0  0  0  0  0  0  0  0  0  0
    6.5968  -18.0216   21.3593 O   0  0  0  0  0  0  0  0  0  0  0  0
    6.6451  -16.5240   23.0957 N   0  0  0  0  0  0  0  0  0  0  0  0
    7.4794  -15.5828   22.3952 C   0  0  0  0  0  0  0  0  0  0  0  0
    7.8709  -14.4336   23.2477 C   0  0  0  0  0  0  0  0  0  0  0  0
    8.6336  -13.5428   22.7949 O   0  0  0  0  0  0  0  0  0  0  0  0
    7.4023  -14.3090   24.5792 N   0  0  0  0  0  0  0  0  0  0  0  0
    8.2483  -13.8898   25.6768 C   0  0  1  0  0  0  0  0  0  0  0  0
    7.5531  -12.7888   26.4881 C   0  0  0  0  0  0  0  0  0  0  0  0
    5.7624  -12.9297   26.3543 S   0  0  0  0  0  0  0  0  0  0  0  0
    8.5083  -15.0209   26.5905 C   0  0  0  0  0  0  0  0  0  0  0  0
    7.9022  -16.0980   26.4082 O   0  0  0  0  0  0  0  0  0  0  0  0
    9.3970  -14.9068   27.6261 O   0  0  0  0  0  0  0  0  0  0  0  0
  2  1  1  0
  3  5  1  0
  3  2  1  0
  4  3  2  0
  6  5  1  0
  7  6  1  0
  8  7  2  0
  9  7  1  0
 10 13  1  0
 10  9  1  0
 10 11  1  1
 12 11  1  0
 13 15  1  0
 14 13  2  0
M  END
$$$$
