GGC.pdb
     RDKit          3D

 15 14  0  0  1  0  0  0  0  0999 V2000
    9.1697  -18.2045   20.7543 N   0  0  0  0  0  0  0  0  0  0  0  0
    7.8491  -17.6874   20.9420 C   0  0  0  0  0  0  0  0  0  0  0  0
    7.9125  -16.2276   21.2539 C   0  0  0  0  0  0  0  0  0  0  0  0
    8.8466  -15.5353   20.7899 O   0  0  0  0  0  0  0  0  0  0  0  0
    6.9415  -15.5921   22.0657 N   0  0  0  0  0  0  0  0  0  0  0  0
    7.0149  -14.1989   22.4212 C   0  0  0  0  0  0  0  0  0  0  0  0
    7.7848  -13.9759   23.6695 C   0  0  0  0  0  0  0  0  0  0  0  0
    9.0416  -13.9876   23.6465 O   0  0  0  0  0  0  0  0  0  0  0  0
    7.1338  -13.7462   24.9071 N   0  0  0  0  0  0  0  0  0  0  0  0
    7.8437  -13.3861   26.1164 C   0  0  1  0  0  0  0  0  0  0  0  0
    6.8927  -12.6907   27.0991 C   0  0  0  0  0  0  0  0  0  0  0  0
    5.7131  -11.6510   26.2205 S   0  0  0  0  0  0  0  0  0  0  0  0
    8.3718  -14.5929   26.7847 C   0  0  0  0  0  0  0  0  0  0  0  0
    9.0779  -14.4590   27.8066 O   0  0  0  0  0  0  0  0  0  0  0  0
    8.1009  -15.8463   26.3040 O   0  0  0  0  0  0  0  0  0  0  0  0
  2  1  1  0
  3  5  1  0
  3  2  1  0
  4  3  2  0
  6  5  1  0
  7  6  1  0
  8  7  2  0
  9  7  1  0
 10 13  1  0
 10  9  1  0
 10 11  1  1
 12 11  1  0
 13 15  1  0
 14 13  2  0
M  END
$$$$
