GGC.pdb
     RDKit          3D

 15 14  0  0  1  0  0  0  0  0999 V2000
    9.5008  -16.8266   19.7359 N   0  0  0  0  0  0  0  0  0  0  0  0
    8.3042  -16.0682   19.5368 C   0  0  0  0  0  0  0  0  0  0  0  0
    7.5943  -15.8843   20.8385 C   0  0  0  0  0  0  0  0  0  0  0  0
    7.1846  -16.8863   21.4674 O   0  0  0  0  0  0  0  0  0  0  0  0
    7.3659  -14.6011   21.3926 N   0  0  0  0  0  0  0  0  0  0  0  0
    6.6425  -14.4010   22.6211 C   0  0  0  0  0  0  0  0  0  0  0  0
    7.5382  -14.0591   23.7531 C   0  0  0  0  0  0  0  0  0  0  0  0
    8.7781  -13.9616   23.5697 O   0  0  0  0  0  0  0  0  0  0  0  0
    7.0284  -13.8356   25.0563 N   0  0  0  0  0  0  0  0  0  0  0  0
    7.8492  -13.3726   26.1553 C   0  0  1  0  0  0  0  0  0  0  0  0
    6.9962  -12.5778   27.1525 C   0  0  0  0  0  0  0  0  0  0  0  0
    5.7734  -11.5745   26.2908 S   0  0  0  0  0  0  0  0  0  0  0  0
    8.4343  -14.5179   26.8820 C   0  0  0  0  0  0  0  0  0  0  0  0
    8.0094  -15.6679   26.6421 O   0  0  0  0  0  0  0  0  0  0  0  0
    9.4278  -14.3386   27.8073 O   0  0  0  0  0  0  0  0  0  0  0  0
  2  1  1  0
  3  5  1  0
  3  2  1  0
  4  3  2  0
  6  5  1  0
  7  6  1  0
  8  7  2  0
  9  7  1  0
 10 13  1  0
 10  9  1  0
 10 11  1  1
 12 11  1  0
 13 15  1  0
 14 13  2  0
M  END
$$$$
