GGC.pdb
     RDKit          3D

 15 14  0  0  1  0  0  0  0  0999 V2000
    5.2985  -19.5428   22.4588 N   0  0  0  0  0  0  0  0  0  0  0  0
    5.6207  -18.4786   23.3589 C   0  0  0  0  0  0  0  0  0  0  0  0
    6.5801  -17.5347   22.7102 C   0  0  0  0  0  0  0  0  0  0  0  0
    7.6746  -17.9632   22.2792 O   0  0  0  0  0  0  0  0  0  0  0  0
    6.2914  -16.1559   22.5639 N   0  0  0  0  0  0  0  0  0  0  0  0
    7.2367  -15.2159   22.0203 C   0  0  0  0  0  0  0  0  0  0  0  0
    7.9140  -14.4237   23.0759 C   0  0  0  0  0  0  0  0  0  0  0  0
    8.8790  -13.6740   22.7812 O   0  0  0  0  0  0  0  0  0  0  0  0
    7.4978  -14.4888   24.4290 N   0  0  0  0  0  0  0  0  0  0  0  0
    8.2519  -13.8989   25.5150 C   0  0  1  0  0  0  0  0  0  0  0  0
    7.4576  -12.7470   26.1441 C   0  0  0  0  0  0  0  0  0  0  0  0
    5.7803  -13.2690   26.5422 S   0  0  0  0  0  0  0  0  0  0  0  0
    8.5025  -14.8985   26.5733 C   0  0  0  0  0  0  0  0  0  0  0  0
    7.9276  -16.0058   26.5085 O   0  0  0  0  0  0  0  0  0  0  0  0
    9.3491  -14.6312   27.6159 O   0  0  0  0  0  0  0  0  0  0  0  0
  2  1  1  0
  3  5  1  0
  3  2  1  0
  4  3  2  0
  6  5  1  0
  7  6  1  0
  8  7  2  0
  9  7  1  0
 10 13  1  0
 10  9  1  0
 10 11  1  1
 12 11  1  0
 13 15  1  0
 14 13  2  0
M  END
$$$$
