GGC.pdb
     RDKit          3D

 15 14  0  0  1  0  0  0  0  0999 V2000
    7.7609  -16.2710   15.3898 N   0  0  0  0  0  0  0  0  0  0  0  0
    6.9252  -15.5652   16.3119 C   0  0  0  0  0  0  0  0  0  0  0  0
    7.7328  -14.5583   17.0644 C   0  0  0  0  0  0  0  0  0  0  0  0
    8.9817  -14.5787   16.9810 O   0  0  0  0  0  0  0  0  0  0  0  0
    7.1278  -13.5698   17.8785 N   0  0  0  0  0  0  0  0  0  0  0  0
    7.8865  -12.5663   18.5785 C   0  0  0  0  0  0  0  0  0  0  0  0
    8.6280  -13.1257   19.7352 C   0  0  0  0  0  0  0  0  0  0  0  0
    9.6786  -12.5673   20.1412 O   0  0  0  0  0  0  0  0  0  0  0  0
    8.1790  -14.2901   20.4065 N   0  0  0  0  0  0  0  0  0  0  0  0
    8.9519  -14.9550   21.4344 C   0  0  1  0  0  0  0  0  0  0  0  0
    8.5408  -14.4398   22.8198 C   0  0  0  0  0  0  0  0  0  0  0  0
    9.4282  -15.3180   24.1181 S   0  0  0  0  0  0  0  0  0  0  0  0
    8.7035  -16.4109   21.4078 C   0  0  0  0  0  0  0  0  0  0  0  0
    9.5152  -17.1740   21.9729 O   0  0  0  0  0  0  0  0  0  0  0  0
    7.6050  -16.9319   20.7776 O   0  0  0  0  0  0  0  0  0  0  0  0
  2  1  1  0
  3  5  1  0
  3  2  1  0
  4  3  2  0
  6  5  1  0
  7  6  1  0
  8  7  2  0
  9  7  1  0
 10 13  1  0
 10  9  1  0
 10 11  1  1
 12 11  1  0
 13 15  1  0
 14 13  2  0
M  END
$$$$
