GGC.pdb
     RDKit          3D

 15 14  0  0  1  0  0  0  0  0999 V2000
    8.6477  -18.1440   21.5964 N   0  0  0  0  0  0  0  0  0  0  0  0
    7.2373  -17.9060   21.5715 C   0  0  0  0  0  0  0  0  0  0  0  0
    6.9363  -16.5626   22.1520 C   0  0  0  0  0  0  0  0  0  0  0  0
    6.2606  -16.4793   23.2025 O   0  0  0  0  0  0  0  0  0  0  0  0
    7.3942  -15.3660   21.5484 N   0  0  0  0  0  0  0  0  0  0  0  0
    7.2133  -14.0712   22.1512 C   0  0  0  0  0  0  0  0  0  0  0  0
    7.9990  -13.9164   23.3999 C   0  0  0  0  0  0  0  0  0  0  0  0
    9.2419  -14.1040   23.3910 O   0  0  0  0  0  0  0  0  0  0  0  0
    7.3787  -13.5573   24.6224 N   0  0  0  0  0  0  0  0  0  0  0  0
    8.1250  -13.2422   25.8224 C   0  0  1  0  0  0  0  0  0  0  0  0
    7.3863  -12.1727   26.6375 C   0  0  0  0  0  0  0  0  0  0  0  0
    5.6074  -12.4518   26.5954 S   0  0  0  0  0  0  0  0  0  0  0  0
    8.2605  -14.4398   26.6764 C   0  0  0  0  0  0  0  0  0  0  0  0
    7.5680  -15.4475   26.4203 O   0  0  0  0  0  0  0  0  0  0  0  0
    9.1274  -14.4611   27.7364 O   0  0  0  0  0  0  0  0  0  0  0  0
  2  1  1  0
  3  5  1  0
  3  2  1  0
  4  3  2  0
  6  5  1  0
  7  6  1  0
  8  7  2  0
  9  7  1  0
 10 13  1  0
 10  9  1  0
 10 11  1  1
 12 11  1  0
 13 15  1  0
 14 13  2  0
M  END
$$$$
