GGC.pdb
     RDKit          3D

 15 14  0  0  1  0  0  0  0  0999 V2000
    7.4083  -19.2604   23.7583 N   0  0  0  0  0  0  0  0  0  0  0  0
    6.0752  -18.8628   23.4246 C   0  0  0  0  0  0  0  0  0  0  0  0
    6.0625  -17.4325   22.9928 C   0  0  0  0  0  0  0  0  0  0  0  0
    5.1921  -16.6560   23.4474 O   0  0  0  0  0  0  0  0  0  0  0  0
    7.0119  -16.9182   22.0762 N   0  0  0  0  0  0  0  0  0  0  0  0
    7.0302  -15.5383   21.6664 C   0  0  0  0  0  0  0  0  0  0  0  0
    7.5353  -14.6403   22.7337 C   0  0  0  0  0  0  0  0  0  0  0  0
    8.1205  -13.5692   22.4330 O   0  0  0  0  0  0  0  0  0  0  0  0
    7.3743  -14.9603   24.1049 N   0  0  0  0  0  0  0  0  0  0  0  0
    7.8840  -14.1275   25.1739 C   0  0  1  0  0  0  0  0  0  0  0  0
    6.7229  -13.5688   26.0066 C   0  0  0  0  0  0  0  0  0  0  0  0
    7.3369  -12.5328   27.3460 S   0  0  0  0  0  0  0  0  0  0  0  0
    8.7434  -14.9171   26.0795 C   0  0  0  0  0  0  0  0  0  0  0  0
    8.5983  -16.1571   26.1235 O   0  0  0  0  0  0  0  0  0  0  0  0
    9.6892  -14.3141   26.8651 O   0  0  0  0  0  0  0  0  0  0  0  0
  2  1  1  0
  3  5  1  0
  3  2  1  0
  4  3  2  0
  6  5  1  0
  7  6  1  0
  8  7  2  0
  9  7  1  0
 10 13  1  0
 10  9  1  0
 10 11  1  1
 12 11  1  0
 13 15  1  0
 14 13  2  0
M  END
$$$$
