GGC.pdb
     RDKit          3D

 15 14  0  0  1  0  0  0  0  0999 V2000
    8.1133  -18.1665   20.6643 N   0  0  0  0  0  0  0  0  0  0  0  0
    7.5210  -17.1124   19.8997 C   0  0  0  0  0  0  0  0  0  0  0  0
    7.0491  -16.0254   20.8097 C   0  0  0  0  0  0  0  0  0  0  0  0
    6.1198  -16.2534   21.6169 O   0  0  0  0  0  0  0  0  0  0  0  0
    7.6231  -14.7307   20.7908 N   0  0  0  0  0  0  0  0  0  0  0  0
    7.1251  -13.6465   21.5964 C   0  0  0  0  0  0  0  0  0  0  0  0
    7.4541  -13.8147   23.0330 C   0  0  0  0  0  0  0  0  0  0  0  0
    7.2064  -12.8916   23.8496 O   0  0  0  0  0  0  0  0  0  0  0  0
    8.0493  -15.0053   23.5193 N   0  0  0  0  0  0  0  0  0  0  0  0
    8.3801  -15.2086   24.9141 C   0  0  1  0  0  0  0  0  0  0  0  0
    7.1445  -15.6921   25.6843 C   0  0  0  0  0  0  0  0  0  0  0  0
    6.5016  -17.2157   24.9705 S   0  0  0  0  0  0  0  0  0  0  0  0
    9.4253  -16.2432   25.0521 C   0  0  0  0  0  0  0  0  0  0  0  0
    9.7260  -16.9364   24.0573 O   0  0  0  0  0  0  0  0  0  0  0  0
   10.0641  -16.4519   26.2453 O   0  0  0  0  0  0  0  0  0  0  0  0
  2  1  1  0
  3  5  1  0
  3  2  1  0
  4  3  2  0
  6  5  1  0
  7  6  1  0
  8  7  2  0
  9  7  1  0
 10 13  1  0
 10  9  1  0
 10 11  1  1
 12 11  1  0
 13 15  1  0
 14 13  2  0
M  END
$$$$
