GGC.pdb
     RDKit          3D

 15 14  0  0  1  0  0  0  0  0999 V2000
    8.4802  -16.8991   18.7622 N   0  0  0  0  0  0  0  0  0  0  0  0
    7.8691  -17.3977   19.9558 C   0  0  0  0  0  0  0  0  0  0  0  0
    8.1207  -16.4569   21.0889 C   0  0  0  0  0  0  0  0  0  0  0  0
    9.0559  -16.6869   21.8887 O   0  0  0  0  0  0  0  0  0  0  0  0
    7.3289  -15.3004   21.2924 N   0  0  0  0  0  0  0  0  0  0  0  0
    7.5838  -14.3586   22.3510 C   0  0  0  0  0  0  0  0  0  0  0  0
    6.8551  -14.7008   23.5970 C   0  0  0  0  0  0  0  0  0  0  0  0
    6.3877  -15.8567   23.7577 O   0  0  0  0  0  0  0  0  0  0  0  0
    6.6677  -13.7469   24.6281 N   0  0  0  0  0  0  0  0  0  0  0  0
    7.7670  -13.1093   25.3216 C   0  0  1  0  0  0  0  0  0  0  0  0
    7.2522  -11.9254   26.1505 C   0  0  0  0  0  0  0  0  0  0  0  0
    5.9834  -12.4610   27.3114 S   0  0  0  0  0  0  0  0  0  0  0  0
    8.4116  -14.0586   26.2518 C   0  0  0  0  0  0  0  0  0  0  0  0
    7.8120  -15.1122   26.5534 O   0  0  0  0  0  0  0  0  0  0  0  0
    9.6472  -13.8025   26.7839 O   0  0  0  0  0  0  0  0  0  0  0  0
  2  1  1  0
  3  5  1  0
  3  2  1  0
  4  3  2  0
  6  5  1  0
  7  6  1  0
  8  7  2  0
  9  7  1  0
 10 13  1  0
 10  9  1  0
 10 11  1  1
 12 11  1  0
 13 15  1  0
 14 13  2  0
M  END
$$$$
