GGC.pdb
     RDKit          3D

 15 14  0  0  1  0  0  0  0  0999 V2000
   -2.1441  -27.2770   28.0616 N   0  0  0  0  0  0  0  0  0  0  0  0
   -3.2282  -27.8763   27.3460 C   0  0  0  0  0  0  0  0  0  0  0  0
   -4.4311  -26.9923   27.4084 C   0  0  0  0  0  0  0  0  0  0  0  0
   -4.4483  -25.9230   26.7576 O   0  0  0  0  0  0  0  0  0  0  0  0
   -5.5662  -27.3255   28.1872 N   0  0  0  0  0  0  0  0  0  0  0  0
   -6.7548  -26.5138   28.2182 C   0  0  0  0  0  0  0  0  0  0  0  0
   -6.5991  -25.3197   29.0845 C   0  0  0  0  0  0  0  0  0  0  0  0
   -6.2365  -25.4509   30.2810 O   0  0  0  0  0  0  0  0  0  0  0  0
   -6.8514  -24.0143   28.5943 N   0  0  0  0  0  0  0  0  0  0  0  0
   -6.7313  -22.8272   29.4144 C   0  0  1  0  0  0  0  0  0  0  0  0
   -5.9149  -21.7574   28.6777 C   0  0  0  0  0  0  0  0  0  0  0  0
   -5.7280  -20.2825   29.6946 S   0  0  0  0  0  0  0  0  0  0  0  0
   -8.0642  -22.2563   29.6959 C   0  0  0  0  0  0  0  0  0  0  0  0
   -8.9432  -22.3052   28.8096 O   0  0  0  0  0  0  0  0  0  0  0  0
   -8.3480  -21.6788   30.9048 O   0  0  0  0  0  0  0  0  0  0  0  0
  2  1  1  0
  3  5  1  0
  3  2  1  0
  4  3  2  0
  6  5  1  0
  7  6  1  0
  8  7  2  0
  9  7  1  0
 10 13  1  0
 10  9  1  0
 10 11  1  6
 12 11  1  0
 13 15  1  0
 14 13  2  0
M  END
$$$$
