GGC.pdb
     RDKit          3D

 15 14  0  0  1  0  0  0  0  0999 V2000
    7.0820  -19.6563   20.4109 N   0  0  0  0  0  0  0  0  0  0  0  0
    7.4662  -18.2928   20.6111 C   0  0  0  0  0  0  0  0  0  0  0  0
    6.7798  -17.7415   21.8182 C   0  0  0  0  0  0  0  0  0  0  0  0
    5.6533  -18.1797   22.1443 O   0  0  0  0  0  0  0  0  0  0  0  0
    7.3656  -16.7285   22.6160 N   0  0  0  0  0  0  0  0  0  0  0  0
    6.7189  -16.1833   23.7809 C   0  0  0  0  0  0  0  0  0  0  0  0
    7.5729  -15.2000   24.4911 C   0  0  0  0  0  0  0  0  0  0  0  0
    8.7389  -14.9662   24.0836 O   0  0  0  0  0  0  0  0  0  0  0  0
    7.1046  -14.5053   25.6341 N   0  0  0  0  0  0  0  0  0  0  0  0
    7.8995  -13.5223   26.3398 C   0  0  1  0  0  0  0  0  0  0  0  0
    6.9937  -12.6269   27.1950 C   0  0  0  0  0  0  0  0  0  0  0  0
    5.4657  -12.2430   26.3221 S   0  0  0  0  0  0  0  0  0  0  0  0
    8.8564  -14.1866   27.2480 C   0  0  0  0  0  0  0  0  0  0  0  0
    8.7139  -15.4033   27.4927 O   0  0  0  0  0  0  0  0  0  0  0  0
    9.8892  -13.4935   27.8210 O   0  0  0  0  0  0  0  0  0  0  0  0
  2  1  1  0
  3  5  1  0
  3  2  1  0
  4  3  2  0
  6  5  1  0
  7  6  1  0
  8  7  2  0
  9  7  1  0
 10 13  1  0
 10  9  1  0
 10 11  1  1
 12 11  1  0
 13 15  1  0
 14 13  2  0
M  END
$$$$
