QLT.pdb
     RDKit          3D

 25 24  0  0  1  0  0  0  0  0999 V2000
   14.4314  -12.6294  -17.2505 N   0  0  0  0  0  0  0  0  0  0  0  0
   15.5811  -13.2269  -16.6347 C   0  0  0  0  0  0  0  0  0  0  0  0
   15.4323  -13.9285  -15.6021 O   0  0  0  0  0  0  0  0  0  0  0  0
   16.9255  -13.0438  -17.1756 C   0  0  0  0  0  0  0  0  0  0  0  0
   17.8961  -12.3229  -16.3181 C   0  0  0  0  0  0  0  0  0  0  0  0
   18.5138  -11.0977  -16.9162 C   0  0  2  0  0  0  0  0  0  0  0  0
   18.9906  -11.4544  -18.2416 N   0  0  0  0  0  0  0  0  0  0  0  0
   19.6463  -10.6398  -16.0488 C   0  0  0  0  0  0  0  0  0  0  0  0
   19.4003  -10.3604  -14.8527 O   0  0  0  0  0  0  0  0  0  0  0  0
   25.7699  -10.4371  -15.2216 C   0  0  0  0  0  0  0  0  0  0  0  0
   24.3916   -9.9672  -14.9227 C   0  0  2  0  0  0  0  0  0  0  0  0
   24.0077  -10.3225  -13.4991 C   0  0  0  0  0  0  0  0  0  0  0  0
   23.3560  -10.5888  -15.8632 C   0  0  0  0  0  0  0  0  0  0  0  0
   21.9867  -10.0170  -15.6200 C   0  0  2  0  0  0  0  0  0  0  0  0
   20.9727  -10.5015  -16.4875 N   0  0  0  0  0  0  0  0  0  0  0  0
   22.0677   -8.5283  -15.8174 C   0  0  0  0  0  0  0  0  0  0  0  0
   22.5122   -8.1172  -16.9337 O   0  0  0  0  0  0  0  0  0  0  0  0
   19.9811   -5.9086  -16.7080 C   0  0  0  0  0  0  0  0  0  0  0  0
   20.5146   -5.5197  -15.3644 C   0  0  1  0  0  0  0  0  0  0  0  0
   19.5799   -5.7434  -14.3684 O   0  0  0  0  0  0  0  0  0  0  0  0
   21.8290   -6.2025  -15.0401 C   0  0  2  0  0  0  0  0  0  0  0  0
   21.6787   -7.6088  -14.8351 N   0  0  0  0  0  0  0  0  0  0  0  0
   22.4267   -5.4927  -13.9048 C   0  0  0  0  0  0  0  0  0  0  0  0
   22.8973   -4.2058  -14.0884 O   0  0  0  0  0  0  0  0  0  0  0  0
   22.5206   -6.0216  -12.7786 O   0  0  0  0  0  0  0  0  0  0  0  0
  2  4  1  0
  2  1  1  0
  3  2  2  0
  5  6  1  0
  5  4  1  0
  6  7  1  6
  8  6  1  0
  9  8  2  0
 11 10  1  6
 11 12  1  0
 13 11  1  0
 14 13  1  6
 14 15  1  0
 15  8  1  0
 16 17  2  0
 16 14  1  0
 19 21  1  0
 19 18  1  6
 20 19  1  0
 21 22  1  1
 22 16  1  0
 23 21  1  0
 24 23  1  0
 25 23  2  0
M  END
$$$$
