QLT.pdb
     RDKit          3D

 25 24  0  0  1  0  0  0  0  0999 V2000
   18.0323  -10.4803  -19.4401 N   0  0  0  0  0  0  0  0  0  0  0  0
   16.6928  -10.9304  -19.1924 C   0  0  0  0  0  0  0  0  0  0  0  0
   16.0967  -11.6039  -20.0707 O   0  0  0  0  0  0  0  0  0  0  0  0
   15.9987  -10.6281  -17.9431 C   0  0  0  0  0  0  0  0  0  0  0  0
   16.7391   -9.8143  -16.9498 C   0  0  0  0  0  0  0  0  0  0  0  0
   17.6813  -10.5643  -16.0611 C   0  0  2  0  0  0  0  0  0  0  0  0
   16.8867  -11.2016  -15.0249 N   0  0  0  0  0  0  0  0  0  0  0  0
   18.6664   -9.6071  -15.4629 C   0  0  0  0  0  0  0  0  0  0  0  0
   18.3511   -9.0186  -14.4028 O   0  0  0  0  0  0  0  0  0  0  0  0
   22.3470   -9.5354  -13.0632 C   0  0  0  0  0  0  0  0  0  0  0  0
   22.5547   -9.9127  -14.4861 C   0  0  2  0  0  0  0  0  0  0  0  0
   23.9888  -10.3503  -14.7144 C   0  0  0  0  0  0  0  0  0  0  0  0
   22.2550   -8.7517  -15.4379 C   0  0  0  0  0  0  0  0  0  0  0  0
   20.7979   -8.3815  -15.4036 C   0  0  2  0  0  0  0  0  0  0  0  0
   19.9266   -9.3225  -16.0124 N   0  0  0  0  0  0  0  0  0  0  0  0
   20.6358   -7.0816  -16.1423 C   0  0  0  0  0  0  0  0  0  0  0  0
   21.0401   -7.0468  -17.3456 O   0  0  0  0  0  0  0  0  0  0  0  0
   17.5604   -5.0605  -17.0911 C   0  0  0  0  0  0  0  0  0  0  0  0
   18.4922   -4.2119  -16.2830 C   0  0  1  0  0  0  0  0  0  0  0  0
   18.0365   -4.0612  -14.9848 O   0  0  0  0  0  0  0  0  0  0  0  0
   19.9168   -4.7304  -16.3027 C   0  0  2  0  0  0  0  0  0  0  0  0
   20.0683   -5.9414  -15.5592 N   0  0  0  0  0  0  0  0  0  0  0  0
   20.7894   -3.6403  -15.8553 C   0  0  0  0  0  0  0  0  0  0  0  0
   20.8820   -2.4945  -16.6233 O   0  0  0  0  0  0  0  0  0  0  0  0
   21.4494   -3.7220  -14.7996 O   0  0  0  0  0  0  0  0  0  0  0  0
  2  4  1  0
  2  1  1  0
  3  2  2  0
  5  6  1  0
  5  4  1  0
  6  7  1  1
  8  6  1  0
  9  8  2  0
 11 10  1  1
 11 12  1  0
 13 11  1  0
 14 13  1  6
 14 15  1  0
 15  8  1  0
 16 17  2  0
 16 14  1  0
 19 21  1  0
 19 18  1  6
 20 19  1  0
 21 22  1  1
 22 16  1  0
 23 21  1  0
 24 23  1  0
 25 23  2  0
M  END
$$$$
