QLT.pdb
     RDKit          3D

 25 24  0  0  1  0  0  0  0  0999 V2000
   17.0752   -8.6017  -19.2692 N   0  0  0  0  0  0  0  0  0  0  0  0
   16.2423   -9.7380  -18.9986 C   0  0  0  0  0  0  0  0  0  0  0  0
   15.2666   -9.9806  -19.7534 O   0  0  0  0  0  0  0  0  0  0  0  0
   16.4967  -10.6259  -17.8670 C   0  0  0  0  0  0  0  0  0  0  0  0
   17.6270  -10.2653  -16.9784 C   0  0  0  0  0  0  0  0  0  0  0  0
   18.7702  -11.2309  -16.9491 C   0  0  2  0  0  0  0  0  0  0  0  0
   18.2883  -12.4561  -16.3344 N   0  0  0  0  0  0  0  0  0  0  0  0
   19.8952  -10.6432  -16.1532 C   0  0  0  0  0  0  0  0  0  0  0  0
   19.7815  -10.6055  -14.9062 O   0  0  0  0  0  0  0  0  0  0  0  0
   23.8569  -11.9613  -14.9931 C   0  0  0  0  0  0  0  0  0  0  0  0
   23.8292  -11.4264  -16.3799 C   0  0  2  0  0  0  0  0  0  0  0  0
   25.1693  -11.6400  -17.0573 C   0  0  0  0  0  0  0  0  0  0  0  0
   23.5142   -9.9286  -16.4117 C   0  0  0  0  0  0  0  0  0  0  0  0
   22.1308   -9.6518  -15.8913 C   0  0  2  0  0  0  0  0  0  0  0  0
   21.0755  -10.1285  -16.7126 N   0  0  0  0  0  0  0  0  0  0  0  0
   21.9703   -8.1606  -15.7810 C   0  0  0  0  0  0  0  0  0  0  0  0
   22.8047   -7.5424  -15.0502 O   0  0  0  0  0  0  0  0  0  0  0  0
   22.3049   -5.3330  -18.2509 C   0  0  0  0  0  0  0  0  0  0  0  0
   20.9227   -5.3388  -17.6758 C   0  0  1  0  0  0  0  0  0  0  0  0
   20.0116   -5.8855  -18.5626 O   0  0  0  0  0  0  0  0  0  0  0  0
   20.8553   -6.0330  -16.3296 C   0  0  2  0  0  0  0  0  0  0  0  0
   20.9570   -7.4541  -16.4414 N   0  0  0  0  0  0  0  0  0  0  0  0
   19.6376   -5.5715  -15.6555 C   0  0  0  0  0  0  0  0  0  0  0  0
   19.5218   -4.2364  -15.3155 O   0  0  0  0  0  0  0  0  0  0  0  0
   18.7049   -6.3537  -15.3817 O   0  0  0  0  0  0  0  0  0  0  0  0
  2  4  1  0
  2  1  1  0
  3  2  2  0
  5  6  1  0
  5  4  1  0
  6  7  1  1
  8  6  1  0
  9  8  2  0
 11 10  1  1
 11 12  1  0
 13 11  1  0
 14 13  1  6
 14 15  1  0
 15  8  1  0
 16 17  2  0
 16 14  1  0
 19 21  1  0
 19 18  1  6
 20 19  1  0
 21 22  1  6
 22 16  1  0
 23 21  1  0
 24 23  1  0
 25 23  2  0
M  END
$$$$
