QLT.pdb
     RDKit          3D

 25 24  0  0  1  0  0  0  0  0999 V2000
   21.0717  -21.6384  -15.6494 N   0  0  0  0  0  0  0  0  0  0  0  0
   21.7734  -20.4260  -15.9588 C   0  0  0  0  0  0  0  0  0  0  0  0
   21.1548  -19.4785  -16.5066 O   0  0  0  0  0  0  0  0  0  0  0  0
   23.1921  -20.2593  -15.6533 C   0  0  0  0  0  0  0  0  0  0  0  0
   23.6544  -20.7652  -14.3391 C   0  0  0  0  0  0  0  0  0  0  0  0
   23.2748  -19.9397  -13.1497 C   0  0  2  0  0  0  0  0  0  0  0  0
   23.7097  -18.5778  -13.4095 N   0  0  0  0  0  0  0  0  0  0  0  0
   23.9480  -20.4895  -11.9295 C   0  0  0  0  0  0  0  0  0  0  0  0
   23.8578  -21.7190  -11.7068 O   0  0  0  0  0  0  0  0  0  0  0  0
   27.2234  -19.0515   -6.8680 C   0  0  0  0  0  0  0  0  0  0  0  0
   26.6139  -20.0653   -7.7685 C   0  0  2  0  0  0  0  0  0  0  0  0
   27.5678  -21.2246   -7.9839 C   0  0  0  0  0  0  0  0  0  0  0  0
   26.2613  -19.4794   -9.1380 C   0  0  0  0  0  0  0  0  0  0  0  0
   25.1842  -20.2826   -9.8132 C   0  0  2  0  0  0  0  0  0  0  0  0
   24.6778  -19.7163  -11.0125 N   0  0  0  0  0  0  0  0  0  0  0  0
   24.0307  -20.4025   -8.8558 C   0  0  0  0  0  0  0  0  0  0  0  0
   23.3719  -19.3451   -8.6099 O   0  0  0  0  0  0  0  0  0  0  0  0
   21.2130  -23.0449   -8.9677 C   0  0  0  0  0  0  0  0  0  0  0  0
   21.2392  -21.8410   -8.0781 C   0  0  1  0  0  0  0  0  0  0  0  0
   20.1797  -21.8507   -7.1877 O   0  0  0  0  0  0  0  0  0  0  0  0
   22.5600  -21.6837   -7.3504 C   0  0  2  0  0  0  0  0  0  0  0  0
   23.6720  -21.6109   -8.2449 N   0  0  0  0  0  0  0  0  0  0  0  0
   22.6534  -22.7669   -6.3665 C   0  0  0  0  0  0  0  0  0  0  0  0
   21.7692  -22.7885   -5.3039 O   0  0  0  0  0  0  0  0  0  0  0  0
   23.5105  -23.6682   -6.4651 O   0  0  0  0  0  0  0  0  0  0  0  0
  2  4  1  0
  2  1  1  0
  3  2  2  0
  5  6  1  0
  5  4  1  0
  6  7  1  6
  8  6  1  0
  9  8  2  0
 11 10  1  1
 11 12  1  0
 13 11  1  0
 14 13  1  1
 14 15  1  0
 15  8  1  0
 16 17  2  0
 16 14  1  0
 19 21  1  0
 19 18  1  1
 20 19  1  0
 21 22  1  6
 22 16  1  0
 23 21  1  0
 24 23  1  0
 25 23  2  0
M  END
$$$$
