QLT.pdb
     RDKit          3D

 25 24  0  0  1  0  0  0  0  0999 V2000
   17.0834  -14.0942  -16.4939 N   0  0  0  0  0  0  0  0  0  0  0  0
   17.0849  -13.8646  -17.9101 C   0  0  0  0  0  0  0  0  0  0  0  0
   16.5304  -14.6985  -18.6701 O   0  0  0  0  0  0  0  0  0  0  0  0
   17.7140  -12.6842  -18.4970 C   0  0  0  0  0  0  0  0  0  0  0  0
   18.2398  -11.6703  -17.5521 C   0  0  0  0  0  0  0  0  0  0  0  0
   19.5928  -11.9513  -16.9771 C   0  0  2  0  0  0  0  0  0  0  0  0
   19.4586  -13.0931  -16.0885 N   0  0  0  0  0  0  0  0  0  0  0  0
   20.0722  -10.7466  -16.2264 C   0  0  0  0  0  0  0  0  0  0  0  0
   19.5249  -10.4740  -15.1330 O   0  0  0  0  0  0  0  0  0  0  0  0
   23.0859   -9.8584  -13.5016 C   0  0  0  0  0  0  0  0  0  0  0  0
   23.6005   -9.8687  -14.8963 C   0  0  2  0  0  0  0  0  0  0  0  0
   25.1137   -9.7661  -14.9036 C   0  0  0  0  0  0  0  0  0  0  0  0
   23.0417   -8.7081  -15.7234 C   0  0  0  0  0  0  0  0  0  0  0  0
   21.5487   -8.8123  -15.8690 C   0  0  2  0  0  0  0  0  0  0  0  0
   21.0992   -9.8969  -16.6672 N   0  0  0  0  0  0  0  0  0  0  0  0
   21.0603   -7.5478  -16.5203 C   0  0  0  0  0  0  0  0  0  0  0  0
   21.2944   -7.4094  -17.7607 O   0  0  0  0  0  0  0  0  0  0  0  0
   18.0826   -3.6819  -16.7121 C   0  0  0  0  0  0  0  0  0  0  0  0
   18.5355   -4.9463  -16.0506 C   0  0  1  0  0  0  0  0  0  0  0  0
   17.6303   -5.9730  -16.2556 O   0  0  0  0  0  0  0  0  0  0  0  0
   19.9311   -5.3584  -16.4765 C   0  0  2  0  0  0  0  0  0  0  0  0
   20.3746   -6.5474  -15.8195 N   0  0  0  0  0  0  0  0  0  0  0  0
   20.8117   -4.2024  -16.2804 C   0  0  0  0  0  0  0  0  0  0  0  0
   20.9631   -3.2902  -17.3082 O   0  0  0  0  0  0  0  0  0  0  0  0
   21.4266   -4.0226  -15.2098 O   0  0  0  0  0  0  0  0  0  0  0  0
  2  4  1  0
  2  1  1  0
  3  2  2  0
  5  6  1  0
  5  4  1  0
  6  7  1  1
  8  6  1  0
  9  8  2  0
 11 10  1  1
 11 12  1  0
 13 11  1  0
 14 13  1  6
 14 15  1  0
 15  8  1  0
 16 17  2  0
 16 14  1  0
 19 21  1  0
 19 18  1  6
 20 19  1  0
 21 22  1  1
 22 16  1  0
 23 21  1  0
 24 23  1  0
 25 23  2  0
M  END
$$$$
