QLT.pdb
     RDKit          3D

 25 24  0  0  1  0  0  0  0  0999 V2000
   21.0948  -20.4197  -14.1011 N   0  0  0  0  0  0  0  0  0  0  0  0
   20.8985  -20.9363  -12.7772 C   0  0  0  0  0  0  0  0  0  0  0  0
   19.7794  -21.4147  -12.4620 O   0  0  0  0  0  0  0  0  0  0  0  0
   21.9664  -20.9234  -11.7806 C   0  0  0  0  0  0  0  0  0  0  0  0
   23.2617  -20.3373  -12.1998 C   0  0  0  0  0  0  0  0  0  0  0  0
   24.0906  -21.1745  -13.1230 C   0  0  2  0  0  0  0  0  0  0  0  0
   24.1831  -22.5023  -12.5401 N   0  0  0  0  0  0  0  0  0  0  0  0
   25.4495  -20.5597  -13.2640 C   0  0  0  0  0  0  0  0  0  0  0  0
   25.5228  -19.3252  -13.4644 O   0  0  0  0  0  0  0  0  0  0  0  0
   30.3640  -21.3354  -10.6478 C   0  0  0  0  0  0  0  0  0  0  0  0
   29.1869  -20.7634  -11.3531 C   0  0  2  0  0  0  0  0  0  0  0  0
   27.9045  -21.1434  -10.6382 C   0  0  0  0  0  0  0  0  0  0  0  0
   29.0886  -21.2558  -12.7992 C   0  0  0  0  0  0  0  0  0  0  0  0
   27.8958  -20.6624  -13.4967 C   0  0  2  0  0  0  0  0  0  0  0  0
   26.6541  -21.2767  -13.1866 N   0  0  0  0  0  0  0  0  0  0  0  0
   28.1081  -20.8105  -14.9782 C   0  0  0  0  0  0  0  0  0  0  0  0
   28.4492  -21.9584  -15.4008 O   0  0  0  0  0  0  0  0  0  0  0  0
   25.3748  -20.2963  -17.1169 C   0  0  0  0  0  0  0  0  0  0  0  0
   26.6606  -20.8408  -17.6569 C   0  0  1  0  0  0  0  0  0  0  0  0
   26.5907  -21.0297  -19.0262 O   0  0  0  0  0  0  0  0  0  0  0  0
   27.8563  -19.9854  -17.2861 C   0  0  2  0  0  0  0  0  0  0  0  0
   27.9454  -19.7506  -15.8792 N   0  0  0  0  0  0  0  0  0  0  0  0
   27.7921  -18.7633  -18.0939 C   0  0  0  0  0  0  0  0  0  0  0  0
   27.5670  -17.5527  -17.4654 O   0  0  0  0  0  0  0  0  0  0  0  0
   27.9357  -18.7898  -19.3330 O   0  0  0  0  0  0  0  0  0  0  0  0
  2  4  1  0
  2  1  1  0
  3  2  2  0
  5  6  1  0
  5  4  1  0
  6  7  1  1
  8  6  1  0
  9  8  2  0
 11 10  1  1
 11 12  1  0
 13 11  1  0
 14 13  1  1
 14 15  1  0
 15  8  1  0
 16 17  2  0
 16 14  1  0
 19 21  1  0
 19 18  1  6
 20 19  1  0
 21 22  1  1
 22 16  1  0
 23 21  1  0
 24 23  1  0
 25 23  2  0
M  END
$$$$
