QLT.pdb
     RDKit          3D

 25 24  0  0  1  0  0  0  0  0999 V2000
   21.4238  -10.0604  -20.2975 N   0  0  0  0  0  0  0  0  0  0  0  0
   20.0947  -10.5720  -20.4698 C   0  0  0  0  0  0  0  0  0  0  0  0
   19.7308  -10.9724  -21.6046 O   0  0  0  0  0  0  0  0  0  0  0  0
   19.1479  -10.6424  -19.3597 C   0  0  0  0  0  0  0  0  0  0  0  0
   19.6325  -10.1725  -18.0401 C   0  0  0  0  0  0  0  0  0  0  0  0
   20.5145  -11.1217  -17.2909 C   0  0  2  0  0  0  0  0  0  0  0  0
   19.6506  -12.0159  -16.5389 N   0  0  0  0  0  0  0  0  0  0  0  0
   21.4080  -10.3470  -16.3711 C   0  0  0  0  0  0  0  0  0  0  0  0
   21.0075  -10.1247  -15.2051 O   0  0  0  0  0  0  0  0  0  0  0  0
   25.2049  -10.9969  -14.3123 C   0  0  0  0  0  0  0  0  0  0  0  0
   25.4381  -10.5953  -15.7245 C   0  0  2  0  0  0  0  0  0  0  0  0
   26.9185  -10.6410  -16.0510 C   0  0  0  0  0  0  0  0  0  0  0  0
   24.9322   -9.1790  -16.0100 C   0  0  0  0  0  0  0  0  0  0  0  0
   23.4439   -9.0830  -15.8173 C   0  0  2  0  0  0  0  0  0  0  0  0
   22.6714   -9.8500  -16.7286 N   0  0  0  0  0  0  0  0  0  0  0  0
   23.0480   -7.6437  -15.9995 C   0  0  0  0  0  0  0  0  0  0  0  0
   23.3916   -7.0832  -17.0860 O   0  0  0  0  0  0  0  0  0  0  0  0
   19.9357   -6.0476  -16.6785 C   0  0  0  0  0  0  0  0  0  0  0  0
   20.4475   -5.4092  -15.4248 C   0  0  1  0  0  0  0  0  0  0  0  0
   19.7745   -5.8792  -14.3105 O   0  0  0  0  0  0  0  0  0  0  0  0
   21.9466   -5.5668  -15.2616 C   0  0  2  0  0  0  0  0  0  0  0  0
   22.3323   -6.9239  -15.0342 N   0  0  0  0  0  0  0  0  0  0  0  0
   22.3762   -4.6386  -14.2109 C   0  0  0  0  0  0  0  0  0  0  0  0
   22.3574   -3.2798  -14.4650 O   0  0  0  0  0  0  0  0  0  0  0  0
   22.7576   -5.0451  -13.0946 O   0  0  0  0  0  0  0  0  0  0  0  0
  2  4  1  0
  2  1  1  0
  3  2  2  0
  5  6  1  0
  5  4  1  0
  6  7  1  1
  8  6  1  0
  9  8  2  0
 11 10  1  1
 11 12  1  0
 13 11  1  0
 14 13  1  6
 14 15  1  0
 15  8  1  0
 16 17  2  0
 16 14  1  0
 19 21  1  0
 19 18  1  6
 20 19  1  0
 21 22  1  1
 22 16  1  0
 23 21  1  0
 24 23  1  0
 25 23  2  0
M  END
$$$$
