QLT.pdb
     RDKit          3D

 25 24  0  0  1  0  0  0  0  0999 V2000
   28.2453  -17.9125  -17.7509 N   0  0  0  0  0  0  0  0  0  0  0  0
   28.3170  -19.2813  -18.1746 C   0  0  0  0  0  0  0  0  0  0  0  0
   29.3775  -19.7103  -18.6959 O   0  0  0  0  0  0  0  0  0  0  0  0
   27.1887  -20.1954  -18.0161 C   0  0  0  0  0  0  0  0  0  0  0  0
   26.6223  -20.3243  -16.6525 C   0  0  0  0  0  0  0  0  0  0  0  0
   27.3311  -21.2722  -15.7364 C   0  0  2  0  0  0  0  0  0  0  0  0
   27.5448  -22.5078  -16.4704 N   0  0  0  0  0  0  0  0  0  0  0  0
   26.4864  -21.5137  -14.5228 C   0  0  0  0  0  0  0  0  0  0  0  0
   25.6059  -22.4028  -14.5819 O   0  0  0  0  0  0  0  0  0  0  0  0
   25.3957  -19.9022   -8.5920 C   0  0  0  0  0  0  0  0  0  0  0  0
   25.0501  -20.5906   -9.8635 C   0  0  2  0  0  0  0  0  0  0  0  0
   24.9024  -22.0827   -9.6351 C   0  0  0  0  0  0  0  0  0  0  0  0
   26.1172  -20.3781  -10.9403 C   0  0  0  0  0  0  0  0  0  0  0  0
   25.7204  -21.0291  -12.2364 C   0  0  2  0  0  0  0  0  0  0  0  0
   26.6148  -20.8073  -13.3163 N   0  0  0  0  0  0  0  0  0  0  0  0
   24.3848  -20.4697  -12.6425 C   0  0  0  0  0  0  0  0  0  0  0  0
   24.3311  -19.2255  -12.8909 O   0  0  0  0  0  0  0  0  0  0  0  0
   20.3205  -20.4207  -15.0064 C   0  0  0  0  0  0  0  0  0  0  0  0
   21.6493  -20.9780  -14.6000 C   0  0  1  0  0  0  0  0  0  0  0  0
   22.6573  -20.5375  -15.4399 O   0  0  0  0  0  0  0  0  0  0  0  0
   21.9835  -20.6873  -13.1500 C   0  0  2  0  0  0  0  0  0  0  0  0
   23.2318  -21.2576  -12.7516 N   0  0  0  0  0  0  0  0  0  0  0  0
   20.8416  -21.1203  -12.3384 C   0  0  0  0  0  0  0  0  0  0  0  0
   19.7424  -20.2893  -12.2264 O   0  0  0  0  0  0  0  0  0  0  0  0
   20.8382  -22.2192  -11.7475 O   0  0  0  0  0  0  0  0  0  0  0  0
  2  4  1  0
  2  1  1  0
  3  2  2  0
  5  6  1  0
  5  4  1  0
  6  7  1  6
  8  6  1  0
  9  8  2  0
 11 10  1  1
 11 12  1  0
 13 11  1  0
 14 13  1  1
 14 15  1  0
 15  8  1  0
 16 17  2  0
 16 14  1  0
 19 21  1  0
 19 18  1  6
 20 19  1  0
 21 22  1  1
 22 16  1  0
 23 21  1  0
 24 23  1  0
 25 23  2  0
M  END
$$$$
