QLT.pdb
     RDKit          3D

 25 24  0  0  1  0  0  0  0  0999 V2000
   18.3962  -14.7594  -16.2228 N   0  0  0  0  0  0  0  0  0  0  0  0
   18.6340  -14.5654  -17.6242 C   0  0  0  0  0  0  0  0  0  0  0  0
   18.0276  -15.2852  -18.4576 O   0  0  0  0  0  0  0  0  0  0  0  0
   19.5638  -13.5503  -18.1129 C   0  0  0  0  0  0  0  0  0  0  0  0
   20.2279  -12.7076  -17.0903 C   0  0  0  0  0  0  0  0  0  0  0  0
   20.2104  -11.2330  -17.3455 C   0  0  2  0  0  0  0  0  0  0  0  0
   20.9397  -10.9970  -18.5798 N   0  0  0  0  0  0  0  0  0  0  0  0
   20.8626  -10.5236  -16.1983 C   0  0  0  0  0  0  0  0  0  0  0  0
   20.3689  -10.6670  -15.0559 O   0  0  0  0  0  0  0  0  0  0  0  0
   24.4680  -11.4782  -14.5929 C   0  0  0  0  0  0  0  0  0  0  0  0
   24.6619  -10.4215  -15.6204 C   0  0  2  0  0  0  0  0  0  0  0  0
   26.1379  -10.2309  -15.9126 C   0  0  0  0  0  0  0  0  0  0  0  0
   24.0881   -9.0742  -15.1743 C   0  0  0  0  0  0  0  0  0  0  0  0
   22.5844   -9.0948  -15.1772 C   0  0  2  0  0  0  0  0  0  0  0  0
   21.9962   -9.7039  -16.3166 N   0  0  0  0  0  0  0  0  0  0  0  0
   22.1045   -7.6701  -15.1363 C   0  0  0  0  0  0  0  0  0  0  0  0
   22.5119   -6.9509  -14.1722 O   0  0  0  0  0  0  0  0  0  0  0  0
   22.4619   -4.8033  -17.6434 C   0  0  0  0  0  0  0  0  0  0  0  0
   21.0150   -5.0194  -17.3251 C   0  0  1  0  0  0  0  0  0  0  0  0
   20.3592   -5.6485  -18.3691 O   0  0  0  0  0  0  0  0  0  0  0  0
   20.8112   -5.7699  -16.0236 C   0  0  2  0  0  0  0  0  0  0  0  0
   21.2464   -7.1289  -16.1020 N   0  0  0  0  0  0  0  0  0  0  0  0
   19.4048   -5.6133  -15.6394 C   0  0  0  0  0  0  0  0  0  0  0  0
   18.9359   -4.3575  -15.3009 O   0  0  0  0  0  0  0  0  0  0  0  0
   18.6223   -6.5847  -15.6108 O   0  0  0  0  0  0  0  0  0  0  0  0
  2  4  1  0
  2  1  1  0
  3  2  2  0
  5  6  1  0
  5  4  1  0
  6  7  1  6
  8  6  1  0
  9  8  2  0
 11 10  1  1
 11 12  1  0
 13 11  1  0
 14 13  1  6
 14 15  1  0
 15  8  1  0
 16 17  2  0
 16 14  1  0
 19 21  1  0
 19 18  1  6
 20 19  1  0
 21 22  1  6
 22 16  1  0
 23 21  1  0
 24 23  1  0
 25 23  2  0
M  END
$$$$
