PEG.pdb
     RDKit          3D

 21 21  0  0  1  0  0  0  0  0999 V2000
    9.2397  -13.9680   18.1702 N   0  0  0  0  0  0  0  0  0  0  0  0
    8.1787  -13.2462   17.4655 C   0  0  0  0  0  0  0  0  0  0  0  0
    7.0149  -13.4650   18.4392 C   0  0  0  0  0  0  0  0  0  0  0  0
    7.7065  -13.0776   19.7526 C   0  0  0  0  0  0  0  0  0  0  0  0
    9.1328  -13.4761   19.5238 C   0  0  1  0  0  0  0  0  0  0  0  0
    9.5629  -14.5697   20.4485 C   0  0  0  0  0  0  0  0  0  0  0  0
    9.3022  -14.5258   21.6877 O   0  0  0  0  0  0  0  0  0  0  0  0
   10.2818  -15.7112   19.9985 N   0  0  0  0  0  0  0  0  0  0  0  0
   10.7732  -16.7401   20.8615 C   0  0  1  0  0  0  0  0  0  0  0  0
   11.0184  -18.0043   20.0911 C   0  0  0  0  0  0  0  0  0  0  0  0
    9.7628  -18.3548   19.3429 C   0  0  0  0  0  0  0  0  0  0  0  0
    9.9623  -19.5709   18.5186 C   0  0  0  0  0  0  0  0  0  0  0  0
   11.0439  -20.1845   18.4724 O   0  0  0  0  0  0  0  0  0  0  0  0
   11.9514  -16.3087   21.6561 C   0  0  0  0  0  0  0  0  0  0  0  0
   12.7944  -15.5213   21.1556 O   0  0  0  0  0  0  0  0  0  0  0  0
    8.8900  -20.0406   17.7673 O   0  0  0  0  0  0  0  0  0  0  0  0
   12.1826  -16.7503   22.9872 N   0  0  0  0  0  0  0  0  0  0  0  0
   13.2749  -16.2335   23.7525 C   0  0  0  0  0  0  0  0  0  0  0  0
   13.4460  -16.9541   25.0496 C   0  0  0  0  0  0  0  0  0  0  0  0
   12.6337  -17.8720   25.3083 O   0  0  0  0  0  0  0  0  0  0  0  0
   14.4378  -16.6517   25.9437 O   0  0  0  0  0  0  0  0  0  0  0  0
  1  5  1  0
  1  2  1  0
  2  3  1  0
  4  3  1  0
  5  4  1  0
  6  8  1  0
  5  6  1  1
  7  6  2  0
  9  8  1  0
  9 14  1  0
  9 10  1  6
 11 10  1  0
 12 11  1  0
 13 12  2  0
 14 17  1  0
 15 14  2  0
 16 12  1  0
 17 18  1  0
 18 19  1  0
 19 20  2  0
 19 21  1  0
M  END
$$$$
