PEG.pdb
     RDKit          3D

 21 21  0  0  1  0  0  0  0  0999 V2000
   -4.6330  -22.7472   26.1401 N   0  0  0  0  0  0  0  0  0  0  0  0
   -3.7983  -22.6110   24.9451 C   0  0  0  0  0  0  0  0  0  0  0  0
   -4.3822  -21.3211   24.3573 C   0  0  0  0  0  0  0  0  0  0  0  0
   -4.3768  -20.4435   25.6156 C   0  0  0  0  0  0  0  0  0  0  0  0
   -4.5923  -21.4274   26.7250 C   0  0  1  0  0  0  0  0  0  0  0  0
   -5.8884  -21.1956   27.4339 C   0  0  0  0  0  0  0  0  0  0  0  0
   -6.1138  -20.1171   28.0596 O   0  0  0  0  0  0  0  0  0  0  0  0
   -6.9335  -22.1599   27.4486 N   0  0  0  0  0  0  0  0  0  0  0  0
   -8.1694  -21.9913   28.1477 C   0  0  1  0  0  0  0  0  0  0  0  0
   -9.2941  -22.6440   27.3988 C   0  0  0  0  0  0  0  0  0  0  0  0
  -10.5803  -22.3386   28.1140 C   0  0  0  0  0  0  0  0  0  0  0  0
  -11.6681  -23.2311   27.6467 C   0  0  0  0  0  0  0  0  0  0  0  0
  -12.0003  -24.2650   28.2543 O   0  0  0  0  0  0  0  0  0  0  0  0
   -8.0902  -22.4243   29.5662 C   0  0  0  0  0  0  0  0  0  0  0  0
   -8.9518  -22.0313   30.3935 O   0  0  0  0  0  0  0  0  0  0  0  0
  -12.3422  -22.8919   26.4781 O   0  0  0  0  0  0  0  0  0  0  0  0
   -7.0653  -23.2817   30.0507 N   0  0  0  0  0  0  0  0  0  0  0  0
   -7.0982  -23.7799   31.3911 C   0  0  0  0  0  0  0  0  0  0  0  0
   -7.6684  -25.1583   31.4669 C   0  0  0  0  0  0  0  0  0  0  0  0
   -8.1382  -25.6444   30.4122 O   0  0  0  0  0  0  0  0  0  0  0  0
   -7.6939  -25.8905   32.6234 O   0  0  0  0  0  0  0  0  0  0  0  0
  1  5  1  0
  1  2  1  0
  2  3  1  0
  4  3  1  0
  5  4  1  0
  6  8  1  0
  5  6  1  6
  7  6  2  0
  9  8  1  0
  9 14  1  0
  9 10  1  6
 11 10  1  0
 12 11  1  0
 13 12  2  0
 14 17  1  0
 15 14  2  0
 16 12  1  0
 17 18  1  0
 18 19  1  0
 19 20  2  0
 19 21  1  0
M  END
$$$$
