PEG.pdb
     RDKit          3D

 21 21  0  0  1  0  0  0  0  0999 V2000
    8.3693  -14.8170   19.8226 N   0  0  0  0  0  0  0  0  0  0  0  0
    7.9199  -14.3440   18.5120 C   0  0  0  0  0  0  0  0  0  0  0  0
    6.8123  -13.3757   18.9432 C   0  0  0  0  0  0  0  0  0  0  0  0
    7.5688  -12.5881   20.0206 C   0  0  0  0  0  0  0  0  0  0  0  0
    8.5254  -13.5970   20.5796 C   0  0  1  0  0  0  0  0  0  0  0  0
    8.2390  -13.9036   22.0149 C   0  0  0  0  0  0  0  0  0  0  0  0
    8.1408  -12.9820   22.8790 O   0  0  0  0  0  0  0  0  0  0  0  0
    8.0616  -15.2318   22.4911 N   0  0  0  0  0  0  0  0  0  0  0  0
    7.8259  -15.5670   23.8611 C   0  0  1  0  0  0  0  0  0  0  0  0
    6.7780  -16.6355   23.9715 C   0  0  0  0  0  0  0  0  0  0  0  0
    7.1505  -17.7621   23.0489 C   0  0  0  0  0  0  0  0  0  0  0  0
    5.9386  -18.4142   22.4970 C   0  0  0  0  0  0  0  0  0  0  0  0
    5.3513  -19.3462   23.0757 O   0  0  0  0  0  0  0  0  0  0  0  0
    9.0740  -15.9024   24.5929 C   0  0  0  0  0  0  0  0  0  0  0  0
    9.0210  -16.2596   25.7973 O   0  0  0  0  0  0  0  0  0  0  0  0
    5.4424  -17.9594   21.2797 O   0  0  0  0  0  0  0  0  0  0  0  0
   10.3587  -15.8392   23.9881 N   0  0  0  0  0  0  0  0  0  0  0  0
   11.5409  -16.1093   24.7466 C   0  0  0  0  0  0  0  0  0  0  0  0
   12.4463  -17.0755   24.0555 C   0  0  0  0  0  0  0  0  0  0  0  0
   11.9628  -17.7405   23.1103 O   0  0  0  0  0  0  0  0  0  0  0  0
   13.7560  -17.2540   24.4124 O   0  0  0  0  0  0  0  0  0  0  0  0
  1  5  1  0
  1  2  1  0
  2  3  1  0
  4  3  1  0
  5  4  1  0
  6  8  1  0
  5  6  1  1
  7  6  2  0
  9  8  1  0
  9 14  1  0
  9 10  1  6
 11 10  1  0
 12 11  1  0
 13 12  2  0
 14 17  1  0
 15 14  2  0
 16 12  1  0
 17 18  1  0
 18 19  1  0
 19 20  2  0
 19 21  1  0
M  END
$$$$
