PEG.pdb
     RDKit          3D

 21 21  0  0  1  0  0  0  0  0999 V2000
    9.4471  -13.6941   18.8954 N   0  0  0  0  0  0  0  0  0  0  0  0
    8.5105  -12.9915   18.0165 C   0  0  0  0  0  0  0  0  0  0  0  0
    7.2020  -13.6861   18.4110 C   0  0  0  0  0  0  0  0  0  0  0  0
    7.3140  -13.5901   19.9380 C   0  0  0  0  0  0  0  0  0  0  0  0
    8.7913  -13.6500   20.1814 C   0  0  1  0  0  0  0  0  0  0  0  0
    9.1832  -14.8761   20.9426 C   0  0  0  0  0  0  0  0  0  0  0  0
    8.6067  -15.1918   22.0258 O   0  0  0  0  0  0  0  0  0  0  0  0
   10.2140  -15.7511   20.5021 N   0  0  0  0  0  0  0  0  0  0  0  0
   10.6076  -16.9384   21.1949 C   0  0  1  0  0  0  0  0  0  0  0  0
   11.5477  -17.7534   20.3560 C   0  0  0  0  0  0  0  0  0  0  0  0
   11.6619  -19.1225   20.9656 C   0  0  0  0  0  0  0  0  0  0  0  0
   12.6292  -19.9561   20.2122 C   0  0  0  0  0  0  0  0  0  0  0  0
   13.8426  -19.9947   20.4855 O   0  0  0  0  0  0  0  0  0  0  0  0
   11.1373  -16.6609   22.5544 C   0  0  0  0  0  0  0  0  0  0  0  0
   12.0896  -15.8540   22.7065 O   0  0  0  0  0  0  0  0  0  0  0  0
   12.1529  -20.7255   19.1557 O   0  0  0  0  0  0  0  0  0  0  0  0
   10.6109  -17.2752   23.7231 N   0  0  0  0  0  0  0  0  0  0  0  0
   11.0819  -16.9052   25.0221 C   0  0  0  0  0  0  0  0  0  0  0  0
   12.1344  -17.8370   25.5272 C   0  0  0  0  0  0  0  0  0  0  0  0
   12.5487  -18.7175   24.7383 O   0  0  0  0  0  0  0  0  0  0  0  0
   12.6487  -17.7622   26.7938 O   0  0  0  0  0  0  0  0  0  0  0  0
  1  5  1  0
  1  2  1  0
  2  3  1  0
  4  3  1  0
  5  4  1  0
  6  8  1  0
  5  6  1  1
  7  6  2  0
  9  8  1  0
  9 14  1  0
  9 10  1  6
 11 10  1  0
 12 11  1  0
 13 12  2  0
 14 17  1  0
 15 14  2  0
 16 12  1  0
 17 18  1  0
 18 19  1  0
 19 20  2  0
 19 21  1  0
M  END
$$$$
