PEG.pdb
     RDKit          3D

 21 21  0  0  1  0  0  0  0  0999 V2000
    8.9973  -13.6883   19.0384 N   0  0  0  0  0  0  0  0  0  0  0  0
    7.9112  -13.1603   18.2110 C   0  0  0  0  0  0  0  0  0  0  0  0
    6.7955  -14.1472   18.5735 C   0  0  0  0  0  0  0  0  0  0  0  0
    6.9159  -14.1161   20.1025 C   0  0  0  0  0  0  0  0  0  0  0  0
    8.3752  -13.8631   20.3300 C   0  0  1  0  0  0  0  0  0  0  0  0
    9.0424  -15.0142   21.0126 C   0  0  0  0  0  0  0  0  0  0  0  0
    8.5865  -15.4940   22.0931 O   0  0  0  0  0  0  0  0  0  0  0  0
   10.2145  -15.6324   20.4967 N   0  0  0  0  0  0  0  0  0  0  0  0
   10.8663  -16.7492   21.1072 C   0  0  1  0  0  0  0  0  0  0  0  0
   11.8859  -17.3395   20.1779 C   0  0  0  0  0  0  0  0  0  0  0  0
   12.3878  -18.6229   20.7779 C   0  0  0  0  0  0  0  0  0  0  0  0
   13.4390  -19.2280   19.9252 C   0  0  0  0  0  0  0  0  0  0  0  0
   13.8312  -18.7063   18.8656 O   0  0  0  0  0  0  0  0  0  0  0  0
   11.4213  -16.4280   22.4468 C   0  0  0  0  0  0  0  0  0  0  0  0
   12.1008  -15.3831   22.6128 O   0  0  0  0  0  0  0  0  0  0  0  0
   14.0068  -20.4305   20.3332 O   0  0  0  0  0  0  0  0  0  0  0  0
   11.2197  -17.2609   23.5808 N   0  0  0  0  0  0  0  0  0  0  0  0
   11.6858  -16.8653   24.8740 C   0  0  0  0  0  0  0  0  0  0  0  0
   11.4137  -17.9027   25.9136 C   0  0  0  0  0  0  0  0  0  0  0  0
   10.7534  -18.9079   25.5629 O   0  0  0  0  0  0  0  0  0  0  0  0
   11.8517  -17.7938   27.2061 O   0  0  0  0  0  0  0  0  0  0  0  0
  1  5  1  0
  1  2  1  0
  2  3  1  0
  4  3  1  0
  5  4  1  0
  6  8  1  0
  5  6  1  6
  7  6  2  0
  9  8  1  0
  9 14  1  0
  9 10  1  6
 11 10  1  0
 12 11  1  0
 13 12  2  0
 14 17  1  0
 15 14  2  0
 16 12  1  0
 17 18  1  0
 18 19  1  0
 19 20  2  0
 19 21  1  0
M  END
$$$$
