PEG.pdb
     RDKit          3D

 21 21  0  0  1  0  0  0  0  0999 V2000
    9.5980  -13.3118   19.3871 N   0  0  0  0  0  0  0  0  0  0  0  0
    8.7109  -12.6816   18.4077 C   0  0  0  0  0  0  0  0  0  0  0  0
    7.6408  -13.7716   18.2766 C   0  0  0  0  0  0  0  0  0  0  0  0
    7.3665  -14.0381   19.7622 C   0  0  0  0  0  0  0  0  0  0  0  0
    8.6891  -13.7675   20.4127 C   0  0  1  0  0  0  0  0  0  0  0  0
    9.2700  -14.9985   21.0317 C   0  0  0  0  0  0  0  0  0  0  0  0
    8.5567  -15.7922   21.7150 O   0  0  0  0  0  0  0  0  0  0  0  0
   10.6412  -15.3486   20.8926 N   0  0  0  0  0  0  0  0  0  0  0  0
   11.2320  -16.5172   21.4671 C   0  0  1  0  0  0  0  0  0  0  0  0
   12.4964  -16.8802   20.7450 C   0  0  0  0  0  0  0  0  0  0  0  0
   12.1396  -17.3046   19.3480 C   0  0  0  0  0  0  0  0  0  0  0  0
   13.3605  -17.5495   18.5433 C   0  0  0  0  0  0  0  0  0  0  0  0
   13.8372  -18.6858   18.3696 O   0  0  0  0  0  0  0  0  0  0  0  0
   11.4166  -16.4039   22.9364 C   0  0  0  0  0  0  0  0  0  0  0  0
   11.7518  -15.3043   23.4460 O   0  0  0  0  0  0  0  0  0  0  0  0
   13.9952  -16.4575   17.9604 O   0  0  0  0  0  0  0  0  0  0  0  0
   11.2296  -17.5014   23.8201 N   0  0  0  0  0  0  0  0  0  0  0  0
   11.3374  -17.3299   25.2361 C   0  0  0  0  0  0  0  0  0  0  0  0
   11.1838  -18.6194   25.9740 C   0  0  0  0  0  0  0  0  0  0  0  0
   11.2477  -18.5768   27.2244 O   0  0  0  0  0  0  0  0  0  0  0  0
   10.9805  -19.8177   25.3438 O   0  0  0  0  0  0  0  0  0  0  0  0
  1  5  1  0
  1  2  1  0
  2  3  1  0
  4  3  1  0
  5  4  1  0
  6  8  1  0
  5  6  1  6
  7  6  2  0
  9  8  1  0
  9 14  1  0
  9 10  1  6
 11 10  1  0
 12 11  1  0
 13 12  2  0
 14 17  1  0
 15 14  2  0
 16 12  1  0
 17 18  1  0
 18 19  1  0
 19 20  2  0
 19 21  1  0
M  END
$$$$
