PEG.pdb
     RDKit          3D

 21 21  0  0  1  0  0  0  0  0999 V2000
    8.9436  -14.3130   19.6255 N   0  0  0  0  0  0  0  0  0  0  0  0
    8.6972  -13.5878   18.3779 C   0  0  0  0  0  0  0  0  0  0  0  0
    7.2198  -13.2249   18.5674 C   0  0  0  0  0  0  0  0  0  0  0  0
    7.2784  -12.6574   19.9914 C   0  0  0  0  0  0  0  0  0  0  0  0
    8.3832  -13.4416   20.6317 C   0  0  1  0  0  0  0  0  0  0  0  0
    7.8857  -14.2930   21.7557 C   0  0  0  0  0  0  0  0  0  0  0  0
    7.2445  -13.7931   22.7276 O   0  0  0  0  0  0  0  0  0  0  0  0
    8.0996  -15.6982   21.8015 N   0  0  0  0  0  0  0  0  0  0  0  0
    7.7550  -16.5252   22.9160 C   0  0  1  0  0  0  0  0  0  0  0  0
    7.0029  -17.7410   22.4599 C   0  0  0  0  0  0  0  0  0  0  0  0
    5.6830  -17.7793   23.1779 C   0  0  0  0  0  0  0  0  0  0  0  0
    4.9443  -19.0242   22.8573 C   0  0  0  0  0  0  0  0  0  0  0  0
    4.9113  -20.0050   23.6224 O   0  0  0  0  0  0  0  0  0  0  0  0
    8.9247  -16.8545   23.7698 C   0  0  0  0  0  0  0  0  0  0  0  0
    8.7500  -17.3128   24.9276 O   0  0  0  0  0  0  0  0  0  0  0  0
    4.2611  -19.0916   21.6475 O   0  0  0  0  0  0  0  0  0  0  0  0
   10.2663  -16.6745   23.3361 N   0  0  0  0  0  0  0  0  0  0  0  0
   11.3557  -16.7812   24.2568 C   0  0  0  0  0  0  0  0  0  0  0  0
   12.6636  -16.4301   23.6266 C   0  0  0  0  0  0  0  0  0  0  0  0
   12.6381  -16.0089   22.4471 O   0  0  0  0  0  0  0  0  0  0  0  0
   13.8606  -16.5505   24.2801 O   0  0  0  0  0  0  0  0  0  0  0  0
  1  5  1  0
  1  2  1  0
  2  3  1  0
  4  3  1  0
  5  4  1  0
  6  8  1  0
  5  6  1  1
  7  6  2  0
  9  8  1  0
  9 14  1  0
  9 10  1  6
 11 10  1  0
 12 11  1  0
 13 12  2  0
 14 17  1  0
 15 14  2  0
 16 12  1  0
 17 18  1  0
 18 19  1  0
 19 20  2  0
 19 21  1  0
M  END
$$$$
