PEG.pdb
     RDKit          3D

 21 21  0  0  1  0  0  0  0  0999 V2000
    8.1811  -14.8598   19.5970 N   0  0  0  0  0  0  0  0  0  0  0  0
    7.6126  -14.3742   18.3383 C   0  0  0  0  0  0  0  0  0  0  0  0
    6.5754  -13.3830   18.8788 C   0  0  0  0  0  0  0  0  0  0  0  0
    7.4534  -12.6145   19.8747 C   0  0  0  0  0  0  0  0  0  0  0  0
    8.4391  -13.6453   20.3346 C   0  0  1  0  0  0  0  0  0  0  0  0
    8.2919  -13.9489   21.7914 C   0  0  0  0  0  0  0  0  0  0  0  0
    8.3143  -13.0286   22.6620 O   0  0  0  0  0  0  0  0  0  0  0  0
    8.1199  -15.2726   22.2817 N   0  0  0  0  0  0  0  0  0  0  0  0
    7.8919  -15.5947   23.6561 C   0  0  1  0  0  0  0  0  0  0  0  0
    6.9153  -16.7273   23.7790 C   0  0  0  0  0  0  0  0  0  0  0  0
    7.6365  -18.0105   23.4752 C   0  0  0  0  0  0  0  0  0  0  0  0
    6.7307  -19.1740   23.6307 C   0  0  0  0  0  0  0  0  0  0  0  0
    5.5338  -19.0589   23.9510 O   0  0  0  0  0  0  0  0  0  0  0  0
    9.1513  -15.8322   24.4066 C   0  0  0  0  0  0  0  0  0  0  0  0
    9.1152  -16.0485   25.6448 O   0  0  0  0  0  0  0  0  0  0  0  0
    7.2479  -20.4459   23.4075 O   0  0  0  0  0  0  0  0  0  0  0  0
   10.4286  -15.8279   23.7831 N   0  0  0  0  0  0  0  0  0  0  0  0
   11.6226  -15.9837   24.5552 C   0  0  0  0  0  0  0  0  0  0  0  0
   12.4707  -17.1099   24.0618 C   0  0  0  0  0  0  0  0  0  0  0  0
   11.8830  -18.1539   23.6956 O   0  0  0  0  0  0  0  0  0  0  0  0
   13.8365  -17.0404   23.9981 O   0  0  0  0  0  0  0  0  0  0  0  0
  1  5  1  0
  1  2  1  0
  2  3  1  0
  4  3  1  0
  5  4  1  0
  6  8  1  0
  5  6  1  1
  7  6  2  0
  9  8  1  0
  9 14  1  0
  9 10  1  6
 11 10  1  0
 12 11  1  0
 13 12  2  0
 14 17  1  0
 15 14  2  0
 16 12  1  0
 17 18  1  0
 18 19  1  0
 19 20  2  0
 19 21  1  0
M  END
$$$$
