PEG.pdb
     RDKit          3D

 21 21  0  0  1  0  0  0  0  0999 V2000
    8.9362  -14.6226   18.7608 N   0  0  0  0  0  0  0  0  0  0  0  0
    8.2190  -13.9896   17.6525 C   0  0  0  0  0  0  0  0  0  0  0  0
    6.9972  -13.4452   18.4016 C   0  0  0  0  0  0  0  0  0  0  0  0
    7.7048  -12.7619   19.5788 C   0  0  0  0  0  0  0  0  0  0  0  0
    8.9255  -13.6058   19.7863 C   0  0  1  0  0  0  0  0  0  0  0  0
    8.9126  -14.2902   21.1158 C   0  0  0  0  0  0  0  0  0  0  0  0
    8.6838  -13.6495   22.1848 O   0  0  0  0  0  0  0  0  0  0  0  0
    9.1534  -15.6843   21.2591 N   0  0  0  0  0  0  0  0  0  0  0  0
    9.1100  -16.3808   22.5072 C   0  0  1  0  0  0  0  0  0  0  0  0
    8.7591  -17.8244   22.2955 C   0  0  0  0  0  0  0  0  0  0  0  0
    9.1936  -18.2201   20.9120 C   0  0  0  0  0  0  0  0  0  0  0  0
    8.9348  -19.6597   20.6697 C   0  0  0  0  0  0  0  0  0  0  0  0
    8.3989  -20.4002   21.5141 O   0  0  0  0  0  0  0  0  0  0  0  0
   10.3457  -16.1972   23.3104 C   0  0  0  0  0  0  0  0  0  0  0  0
   10.4046  -16.6407   24.4855 O   0  0  0  0  0  0  0  0  0  0  0  0
    9.3099  -20.1991   19.4436 O   0  0  0  0  0  0  0  0  0  0  0  0
   11.4953  -15.5292   22.8078 N   0  0  0  0  0  0  0  0  0  0  0  0
   12.6878  -15.4305   23.5915 C   0  0  0  0  0  0  0  0  0  0  0  0
   13.5863  -16.6087   23.4028 C   0  0  0  0  0  0  0  0  0  0  0  0
   14.7189  -16.3946   22.9123 O   0  0  0  0  0  0  0  0  0  0  0  0
   13.2213  -17.8844   23.7401 O   0  0  0  0  0  0  0  0  0  0  0  0
  1  5  1  0
  1  2  1  0
  2  3  1  0
  4  3  1  0
  5  4  1  0
  6  8  1  0
  5  6  1  1
  7  6  2  0
  9  8  1  0
  9 14  1  0
  9 10  1  6
 11 10  1  0
 12 11  1  0
 13 12  2  0
 14 17  1  0
 15 14  2  0
 16 12  1  0
 17 18  1  0
 18 19  1  0
 19 20  2  0
 19 21  1  0
M  END
$$$$
