PEG.pdb
     RDKit          3D

 21 21  0  0  1  0  0  0  0  0999 V2000
    9.2646  -14.1564   18.9367 N   0  0  0  0  0  0  0  0  0  0  0  0
    8.6446  -13.4365   17.8229 C   0  0  0  0  0  0  0  0  0  0  0  0
    7.1912  -13.3939   18.3086 C   0  0  0  0  0  0  0  0  0  0  0  0
    7.4170  -12.8972   19.7424 C   0  0  0  0  0  0  0  0  0  0  0  0
    8.7552  -13.4689   20.1002 C   0  0  1  0  0  0  0  0  0  0  0  0
    8.6597  -14.4586   21.2171 C   0  0  0  0  0  0  0  0  0  0  0  0
    8.0494  -14.1819   22.2926 O   0  0  0  0  0  0  0  0  0  0  0  0
    9.2409  -15.7542   21.1408 N   0  0  0  0  0  0  0  0  0  0  0  0
    9.2332  -16.7002   22.2131 C   0  0  1  0  0  0  0  0  0  0  0  0
    9.1270  -18.1000   21.6827 C   0  0  0  0  0  0  0  0  0  0  0  0
    8.1462  -18.1025   20.5438 C   0  0  0  0  0  0  0  0  0  0  0  0
    8.2682  -19.3460   19.7457 C   0  0  0  0  0  0  0  0  0  0  0  0
    8.0247  -19.3915   18.5262 O   0  0  0  0  0  0  0  0  0  0  0  0
   10.3746  -16.5197   23.1460 C   0  0  0  0  0  0  0  0  0  0  0  0
   10.4375  -17.1983   24.2027 O   0  0  0  0  0  0  0  0  0  0  0  0
    8.6727  -20.5081   20.3946 O   0  0  0  0  0  0  0  0  0  0  0  0
   11.4272  -15.5964   22.9012 N   0  0  0  0  0  0  0  0  0  0  0  0
   12.4831  -15.4190   23.8496 C   0  0  0  0  0  0  0  0  0  0  0  0
   13.6902  -16.2298   23.5083 C   0  0  0  0  0  0  0  0  0  0  0  0
   13.5910  -17.0331   22.5521 O   0  0  0  0  0  0  0  0  0  0  0  0
   14.8731  -16.1264   24.1897 O   0  0  0  0  0  0  0  0  0  0  0  0
  1  5  1  0
  1  2  1  0
  2  3  1  0
  4  3  1  0
  5  4  1  0
  6  8  1  0
  5  6  1  1
  7  6  2  0
  9  8  1  0
  9 14  1  0
  9 10  1  6
 11 10  1  0
 12 11  1  0
 13 12  2  0
 14 17  1  0
 15 14  2  0
 16 12  1  0
 17 18  1  0
 18 19  1  0
 19 20  2  0
 19 21  1  0
M  END
$$$$
