PEG.pdb
     RDKit          3D

 21 21  0  0  1  0  0  0  0  0999 V2000
    7.4493  -14.9941   20.0870 N   0  0  0  0  0  0  0  0  0  0  0  0
    6.9542  -14.2862   18.9051 C   0  0  0  0  0  0  0  0  0  0  0  0
    7.2516  -12.8396   19.3163 C   0  0  0  0  0  0  0  0  0  0  0  0
    8.7057  -13.0006   19.7778 C   0  0  0  0  0  0  0  0  0  0  0  0
    8.7474  -14.4012   20.3088 C   0  0  1  0  0  0  0  0  0  0  0  0
    9.0260  -14.4342   21.7776 C   0  0  0  0  0  0  0  0  0  0  0  0
   10.1333  -14.0362   22.2476 O   0  0  0  0  0  0  0  0  0  0  0  0
    8.0766  -14.9085   22.7242 N   0  0  0  0  0  0  0  0  0  0  0  0
    8.2686  -14.8683   24.1406 C   0  0  1  0  0  0  0  0  0  0  0  0
    7.1057  -14.1995   24.8132 C   0  0  0  0  0  0  0  0  0  0  0  0
    7.6243  -13.4079   25.9808 C   0  0  0  0  0  0  0  0  0  0  0  0
    6.5583  -12.5498   26.5512 C   0  0  0  0  0  0  0  0  0  0  0  0
    5.3466  -12.7742   26.3777 O   0  0  0  0  0  0  0  0  0  0  0  0
    8.5815  -16.2014   24.7156 C   0  0  0  0  0  0  0  0  0  0  0  0
    7.6821  -16.8661   25.2903 O   0  0  0  0  0  0  0  0  0  0  0  0
    6.9360  -11.4481   27.3119 O   0  0  0  0  0  0  0  0  0  0  0  0
    9.8778  -16.7808   24.6489 N   0  0  0  0  0  0  0  0  0  0  0  0
   10.8200  -16.5949   25.7089 C   0  0  0  0  0  0  0  0  0  0  0  0
   10.8212  -17.7385   26.6697 C   0  0  0  0  0  0  0  0  0  0  0  0
    9.8559  -17.8225   27.4639 O   0  0  0  0  0  0  0  0  0  0  0  0
   11.8185  -18.6755   26.7101 O   0  0  0  0  0  0  0  0  0  0  0  0
  1  5  1  0
  1  2  1  0
  2  3  1  0
  4  3  1  0
  5  4  1  0
  6  8  1  0
  5  6  1  1
  7  6  2  0
  9  8  1  0
  9 14  1  0
  9 10  1  1
 11 10  1  0
 12 11  1  0
 13 12  2  0
 14 17  1  0
 15 14  2  0
 16 12  1  0
 17 18  1  0
 18 19  1  0
 19 20  2  0
 19 21  1  0
M  END
$$$$
