SCA.pdb
     RDKit          3D

 18 17  0  0  1  0  0  0  0  0999 V2000
    8.4928  -18.7255   19.7574 O   0  0  0  0  0  0  0  0  0  0  0  0
    7.6731  -17.6453   19.4119 C   0  0  0  0  0  0  0  0  0  0  0  0
    8.4889  -16.3771   19.2740 C   0  0  2  0  0  0  0  0  0  0  0  0
    9.3084  -16.4952   18.1079 N   0  0  0  0  0  0  0  0  0  0  0  0
    9.2049  -16.0260   20.5023 C   0  0  0  0  0  0  0  0  0  0  0  0
   10.4360  -16.1201   20.5570 O   0  0  0  0  0  0  0  0  0  0  0  0
    8.4998  -15.5641   21.6743 N   0  0  0  0  0  0  0  0  0  0  0  0
    9.2018  -15.2739   22.9046 C   0  0  1  0  0  0  0  0  0  0  0  0
    8.3476  -14.4597   23.8558 C   0  0  0  0  0  0  0  0  0  0  0  0
    6.8309  -15.3866   24.2983 S   0  0  0  0  0  0  0  0  0  0  0  0
    9.7397  -16.4926   23.5421 C   0  0  0  0  0  0  0  0  0  0  0  0
    9.1361  -17.5946   23.4545 O   0  0  0  0  0  0  0  0  0  0  0  0
   12.9815  -17.8312   24.5460 C   0  0  0  0  0  0  0  0  0  0  0  0
   11.5128  -17.7053   24.8435 C   0  0  2  0  0  0  0  0  0  0  0  0
   10.9545  -16.4723   24.2768 N   0  0  0  0  0  0  0  0  0  0  0  0
   11.2817  -17.7448   26.3081 C   0  0  0  0  0  0  0  0  0  0  0  0
   10.6996  -16.8061   26.8865 O   0  0  0  0  0  0  0  0  0  0  0  0
   11.7162  -18.8424   27.0623 O   0  0  0  0  0  0  0  0  0  0  0  0
  2  1  1  0
  3  5  1  0
  3  2  1  0
  3  4  1  6
  5  6  2  0
  7  8  1  0
  7  5  1  0
  8  9  1  1
 10  9  1  0
 11 15  1  0
 11  8  1  0
 12 11  2  0
 14 13  1  1
 14 15  1  0
 16 14  1  0
 16 18  1  0
 17 16  2  0
M  END
$$$$
