SCA.pdb
     RDKit          3D

 18 17  0  0  1  0  0  0  0  0999 V2000
    5.6047  -16.2299   20.6686 O   0  0  0  0  0  0  0  0  0  0  0  0
    6.4031  -16.0478   21.8033 C   0  0  0  0  0  0  0  0  0  0  0  0
    6.8356  -14.6020   21.9269 C   0  0  2  0  0  0  0  0  0  0  0  0
    7.4104  -14.1974   20.6814 N   0  0  0  0  0  0  0  0  0  0  0  0
    7.6717  -14.3579   23.1043 C   0  0  0  0  0  0  0  0  0  0  0  0
    8.8988  -14.2644   22.9911 O   0  0  0  0  0  0  0  0  0  0  0  0
    7.0918  -14.2210   24.4192 N   0  0  0  0  0  0  0  0  0  0  0  0
    7.9230  -14.1494   25.6003 C   0  0  1  0  0  0  0  0  0  0  0  0
    7.1768  -13.5428   26.7718 C   0  0  0  0  0  0  0  0  0  0  0  0
    6.4393  -11.9365   26.2913 S   0  0  0  0  0  0  0  0  0  0  0  0
    8.5270  -15.4539   25.9388 C   0  0  0  0  0  0  0  0  0  0  0  0
    7.8187  -16.4884   26.0590 O   0  0  0  0  0  0  0  0  0  0  0  0
   11.8992  -17.0422   25.9514 C   0  0  0  0  0  0  0  0  0  0  0  0
   10.5071  -16.8932   26.5003 C   0  0  2  0  0  0  0  0  0  0  0  0
    9.9251  -15.5949   26.1416 N   0  0  0  0  0  0  0  0  0  0  0  0
   10.5173  -17.0588   27.9742 C   0  0  0  0  0  0  0  0  0  0  0  0
   10.1324  -16.1378   28.7213 O   0  0  0  0  0  0  0  0  0  0  0  0
   10.9611  -18.2576   28.5472 O   0  0  0  0  0  0  0  0  0  0  0  0
  2  1  1  0
  3  5  1  0
  3  2  1  0
  3  4  1  6
  5  6  2  0
  7  8  1  0
  7  5  1  0
  8  9  1  1
 10  9  1  0
 11 15  1  0
 11  8  1  0
 12 11  2  0
 14 13  1  1
 14 15  1  0
 16 14  1  0
 16 18  1  0
 17 16  2  0
M  END
$$$$
