SCA.pdb
     RDKit          3D

 18 17  0  0  1  0  0  0  0  0999 V2000
    7.8525  -15.7594   18.9218 O   0  0  0  0  0  0  0  0  0  0  0  0
    6.8368  -14.8542   19.2488 C   0  0  0  0  0  0  0  0  0  0  0  0
    7.4154  -13.6067   19.8825 C   0  0  2  0  0  0  0  0  0  0  0  0
    8.1658  -12.9047   18.8878 N   0  0  0  0  0  0  0  0  0  0  0  0
    8.1396  -13.8842   21.1248 C   0  0  0  0  0  0  0  0  0  0  0  0
    9.3753  -13.8774   21.1430 O   0  0  0  0  0  0  0  0  0  0  0  0
    7.4373  -14.1713   22.3530 N   0  0  0  0  0  0  0  0  0  0  0  0
    8.1523  -14.3952   23.5897 C   0  0  1  0  0  0  0  0  0  0  0  0
    7.2337  -14.2964   24.7912 C   0  0  0  0  0  0  0  0  0  0  0  0
    6.5373  -12.6072   24.9204 S   0  0  0  0  0  0  0  0  0  0  0  0
    8.9153  -15.6596   23.5733 C   0  0  0  0  0  0  0  0  0  0  0  0
    8.3892  -16.7331   23.1770 O   0  0  0  0  0  0  0  0  0  0  0  0
   12.4927  -16.7087   23.6967 C   0  0  0  0  0  0  0  0  0  0  0  0
   11.0295  -16.9685   23.9266 C   0  0  2  0  0  0  0  0  0  0  0  0
   10.2677  -15.7167   24.0017 N   0  0  0  0  0  0  0  0  0  0  0  0
   10.8384  -17.7582   25.1675 C   0  0  0  0  0  0  0  0  0  0  0  0
   10.1205  -17.3282   26.0918 O   0  0  0  0  0  0  0  0  0  0  0  0
   11.4647  -19.0023   25.3165 O   0  0  0  0  0  0  0  0  0  0  0  0
  2  1  1  0
  3  5  1  0
  3  2  1  0
  3  4  1  6
  5  6  2  0
  7  8  1  0
  7  5  1  0
  8  9  1  1
 10  9  1  0
 11 15  1  0
 11  8  1  0
 12 11  2  0
 14 13  1  1
 14 15  1  0
 16 14  1  0
 16 18  1  0
 17 16  2  0
M  END
$$$$
