SCA.pdb
     RDKit          3D

 18 17  0  0  1  0  0  0  0  0999 V2000
   -6.3424  -23.8906   24.8824 O   0  0  0  0  0  0  0  0  0  0  0  0
   -5.5361  -23.5414   25.9715 C   0  0  0  0  0  0  0  0  0  0  0  0
   -5.8837  -22.1552   26.4719 C   0  0  2  0  0  0  0  0  0  0  0  0
   -7.1798  -22.2075   27.0744 N   0  0  0  0  0  0  0  0  0  0  0  0
   -5.7176  -21.1229   25.4465 C   0  0  0  0  0  0  0  0  0  0  0  0
   -6.6458  -20.3519   25.1794 O   0  0  0  0  0  0  0  0  0  0  0  0
   -4.4759  -20.9775   24.7245 N   0  0  0  0  0  0  0  0  0  0  0  0
   -4.2838  -19.9050   23.7739 C   0  0  1  0  0  0  0  0  0  0  0  0
   -2.8505  -19.4122   23.7708 C   0  0  0  0  0  0  0  0  0  0  0  0
   -1.7208  -20.7495   23.2317 S   0  0  0  0  0  0  0  0  0  0  0  0
   -4.7522  -20.2667   22.4208 C   0  0  0  0  0  0  0  0  0  0  0  0
   -4.7405  -21.4624   22.0251 O   0  0  0  0  0  0  0  0  0  0  0  0
   -6.3105  -18.5158   19.4467 C   0  0  0  0  0  0  0  0  0  0  0  0
   -5.5990  -19.6451   20.1395 C   0  0  2  0  0  0  0  0  0  0  0  0
   -5.2330  -19.2856   21.5142 N   0  0  0  0  0  0  0  0  0  0  0  0
   -4.3898  -20.0348   19.3741 C   0  0  0  0  0  0  0  0  0  0  0  0
   -4.4910  -20.5728   18.2539 O   0  0  0  0  0  0  0  0  0  0  0  0
   -3.1137  -19.8018   19.9029 O   0  0  0  0  0  0  0  0  0  0  0  0
  2  1  1  0
  3  5  1  0
  3  2  1  0
  3  4  1  6
  5  6  2  0
  7  8  1  0
  7  5  1  0
  8  9  1  6
 10  9  1  0
 11 15  1  0
 11  8  1  0
 12 11  2  0
 14 13  1  6
 14 15  1  0
 16 14  1  0
 16 18  1  0
 17 16  2  0
M  END
$$$$
