SCA.pdb
     RDKit          3D

 18 17  0  0  1  0  0  0  0  0999 V2000
    8.4994  -19.1953   18.7588 O   0  0  0  0  0  0  0  0  0  0  0  0
    7.4822  -18.3320   18.3368 C   0  0  0  0  0  0  0  0  0  0  0  0
    8.0177  -16.9292   18.1415 C   0  0  2  0  0  0  0  0  0  0  0  0
    8.9527  -16.9523   17.0596 N   0  0  0  0  0  0  0  0  0  0  0  0
    8.5195  -16.3349   19.3823 C   0  0  0  0  0  0  0  0  0  0  0  0
    9.7352  -16.2379   19.5821 O   0  0  0  0  0  0  0  0  0  0  0  0
    7.6166  -15.8496   20.3989 N   0  0  0  0  0  0  0  0  0  0  0  0
    8.1136  -15.2615   21.6228 C   0  0  1  0  0  0  0  0  0  0  0  0
    7.0265  -14.5055   22.3602 C   0  0  0  0  0  0  0  0  0  0  0  0
    7.6469  -13.9235   23.9824 S   0  0  0  0  0  0  0  0  0  0  0  0
    8.7874  -16.2525   22.4859 C   0  0  0  0  0  0  0  0  0  0  0  0
    8.2655  -17.3747   22.7200 O   0  0  0  0  0  0  0  0  0  0  0  0
   12.2452  -16.9154   23.6514 C   0  0  0  0  0  0  0  0  0  0  0  0
   10.7572  -17.0175   23.8434 C   0  0  2  0  0  0  0  0  0  0  0  0
   10.0461  -15.9823   23.0846 N   0  0  0  0  0  0  0  0  0  0  0  0
   10.4187  -16.9183   25.2841 C   0  0  0  0  0  0  0  0  0  0  0  0
    9.6510  -16.0273   25.6980 O   0  0  0  0  0  0  0  0  0  0  0  0
   10.9596  -17.8288   26.2010 O   0  0  0  0  0  0  0  0  0  0  0  0
  2  1  1  0
  3  5  1  0
  3  2  1  0
  3  4  1  6
  5  6  2  0
  7  8  1  0
  7  5  1  0
  8  9  1  1
 10  9  1  0
 11 15  1  0
 11  8  1  0
 12 11  2  0
 14 13  1  1
 14 15  1  0
 16 14  1  0
 16 18  1  0
 17 16  2  0
M  END
$$$$
