SCA.pdb
     RDKit          3D

 18 17  0  0  1  0  0  0  0  0999 V2000
    6.2317  -20.4606   20.0954 O   0  0  0  0  0  0  0  0  0  0  0  0
    6.7092  -19.7443   21.1986 C   0  0  0  0  0  0  0  0  0  0  0  0
    5.7243  -19.8109   22.3468 C   0  0  2  0  0  0  0  0  0  0  0  0
    4.4494  -19.3715   21.8705 N   0  0  0  0  0  0  0  0  0  0  0  0
    6.2064  -19.1275   23.5490 C   0  0  0  0  0  0  0  0  0  0  0  0
    6.1617  -17.8950   23.6279 O   0  0  0  0  0  0  0  0  0  0  0  0
    6.7431  -19.8672   24.6665 N   0  0  0  0  0  0  0  0  0  0  0  0
    7.2109  -19.1916   25.8563 C   0  0  1  0  0  0  0  0  0  0  0  0
    6.1741  -19.2255   26.9613 C   0  0  0  0  0  0  0  0  0  0  0  0
    5.8380  -20.9546   27.4634 S   0  0  0  0  0  0  0  0  0  0  0  0
    8.5232  -19.6974   26.3070 C   0  0  0  0  0  0  0  0  0  0  0  0
    8.9581  -20.8150   25.9220 O   0  0  0  0  0  0  0  0  0  0  0  0
   11.3470  -18.5130   28.5425 C   0  0  0  0  0  0  0  0  0  0  0  0
   10.5597  -19.5335   27.7678 C   0  0  2  0  0  0  0  0  0  0  0  0
    9.3452  -18.9477   27.1891 N   0  0  0  0  0  0  0  0  0  0  0  0
   10.2081  -20.6798   28.6409 C   0  0  0  0  0  0  0  0  0  0  0  0
    9.0316  -20.8599   29.0125 O   0  0  0  0  0  0  0  0  0  0  0  0
   11.1979  -21.5780   29.0601 O   0  0  0  0  0  0  0  0  0  0  0  0
  2  1  1  0
  3  5  1  0
  3  2  1  0
  3  4  1  6
  5  6  2  0
  7  8  1  0
  7  5  1  0
  8  9  1  1
 10  9  1  0
 11 15  1  0
 11  8  1  0
 12 11  2  0
 14 13  1  1
 14 15  1  0
 16 14  1  0
 16 18  1  0
 17 16  2  0
M  END
$$$$
