SCA.pdb
     RDKit          3D

 18 17  0  0  1  0  0  0  0  0999 V2000
   10.2788  -17.1606   17.5792 O   0  0  0  0  0  0  0  0  0  0  0  0
   10.6330  -16.7256   18.8612 C   0  0  0  0  0  0  0  0  0  0  0  0
    9.8979  -17.5220   19.9186 C   0  0  2  0  0  0  0  0  0  0  0  0
    8.5115  -17.5589   19.5697 N   0  0  0  0  0  0  0  0  0  0  0  0
   10.1832  -17.0595   21.2786 C   0  0  0  0  0  0  0  0  0  0  0  0
   11.3506  -16.9385   21.6657 O   0  0  0  0  0  0  0  0  0  0  0  0
    9.1187  -16.7347   22.1979 N   0  0  0  0  0  0  0  0  0  0  0  0
    9.4019  -16.2389   23.5264 C   0  0  1  0  0  0  0  0  0  0  0  0
    8.3637  -15.2317   23.9791 C   0  0  0  0  0  0  0  0  0  0  0  0
    8.6153  -14.8108   25.7440 S   0  0  0  0  0  0  0  0  0  0  0  0
    9.5831  -17.3309   24.5039 C   0  0  0  0  0  0  0  0  0  0  0  0
    8.6448  -18.1270   24.7730 O   0  0  0  0  0  0  0  0  0  0  0  0
   12.3534  -19.3035   25.8949 C   0  0  0  0  0  0  0  0  0  0  0  0
   11.0063  -18.6635   26.0872 C   0  0  2  0  0  0  0  0  0  0  0  0
   10.8172  -17.5276   25.1777 N   0  0  0  0  0  0  0  0  0  0  0  0
   10.8445  -18.2235   27.4945 C   0  0  0  0  0  0  0  0  0  0  0  0
   10.7439  -17.0130   27.7758 O   0  0  0  0  0  0  0  0  0  0  0  0
   10.8022  -19.1671   28.5290 O   0  0  0  0  0  0  0  0  0  0  0  0
  2  1  1  0
  3  5  1  0
  3  2  1  0
  3  4  1  6
  5  6  2  0
  7  8  1  0
  7  5  1  0
  8  9  1  1
 10  9  1  0
 11 15  1  0
 11  8  1  0
 12 11  2  0
 14 13  1  1
 14 15  1  0
 16 14  1  0
 16 18  1  0
 17 16  2  0
M  END
$$$$
