SCA.pdb
     RDKit          3D

 18 17  0  0  1  0  0  0  0  0999 V2000
    7.1901  -17.3892   21.6740 O   0  0  0  0  0  0  0  0  0  0  0  0
    6.6098  -16.2091   21.1959 C   0  0  0  0  0  0  0  0  0  0  0  0
    7.6247  -15.0856   21.1710 C   0  0  2  0  0  0  0  0  0  0  0  0
    8.4971  -15.2936   20.0570 N   0  0  0  0  0  0  0  0  0  0  0  0
    8.2968  -14.8986   22.4586 C   0  0  0  0  0  0  0  0  0  0  0  0
    9.4805  -15.2247   22.5992 O   0  0  0  0  0  0  0  0  0  0  0  0
    7.6022  -14.3332   23.5908 N   0  0  0  0  0  0  0  0  0  0  0  0
    8.2412  -14.2245   24.8833 C   0  0  1  0  0  0  0  0  0  0  0  0
    7.4904  -13.2788   25.7993 C   0  0  0  0  0  0  0  0  0  0  0  0
    8.3333  -13.1638   27.4215 S   0  0  0  0  0  0  0  0  0  0  0  0
    8.4674  -15.5436   25.5078 C   0  0  0  0  0  0  0  0  0  0  0  0
    7.5268  -16.3703   25.6435 O   0  0  0  0  0  0  0  0  0  0  0  0
   11.0061  -18.0398   26.0652 C   0  0  0  0  0  0  0  0  0  0  0  0
    9.9349  -17.1968   26.7001 C   0  0  2  0  0  0  0  0  0  0  0  0
    9.7491  -15.9326   25.9787 N   0  0  0  0  0  0  0  0  0  0  0  0
   10.2677  -16.9302   28.1207 C   0  0  0  0  0  0  0  0  0  0  0  0
   10.3649  -15.7612   28.5435 O   0  0  0  0  0  0  0  0  0  0  0  0
   10.4773  -17.9933   29.0086 O   0  0  0  0  0  0  0  0  0  0  0  0
  2  1  1  0
  3  5  1  0
  3  2  1  0
  3  4  1  6
  5  6  2  0
  7  8  1  0
  7  5  1  0
  8  9  1  1
 10  9  1  0
 11 15  1  0
 11  8  1  0
 12 11  2  0
 14 13  1  6
 14 15  1  0
 16 14  1  0
 16 18  1  0
 17 16  2  0
M  END
$$$$
