SCA.pdb
     RDKit          3D

 18 17  0  0  1  0  0  0  0  0999 V2000
    9.9241  -17.9853   22.8925 O   0  0  0  0  0  0  0  0  0  0  0  0
    8.8347  -17.6254   22.0915 C   0  0  0  0  0  0  0  0  0  0  0  0
    8.9067  -16.1600   21.7172 C   0  0  2  0  0  0  0  0  0  0  0  0
    9.9671  -15.9896   20.7728 N   0  0  0  0  0  0  0  0  0  0  0  0
    8.9681  -15.2779   22.8846 C   0  0  0  0  0  0  0  0  0  0  0  0
   10.0277  -14.7214   23.1927 O   0  0  0  0  0  0  0  0  0  0  0  0
    7.8033  -15.0353   23.7021 N   0  0  0  0  0  0  0  0  0  0  0  0
    7.8786  -14.2093   24.8866 C   0  0  1  0  0  0  0  0  0  0  0  0
    6.5007  -13.8243   25.3870 C   0  0  0  0  0  0  0  0  0  0  0  0
    6.6345  -12.5552   26.7010 S   0  0  0  0  0  0  0  0  0  0  0  0
    8.7048  -14.8241   25.9452 C   0  0  0  0  0  0  0  0  0  0  0  0
    8.7795  -16.0752   26.0695 O   0  0  0  0  0  0  0  0  0  0  0  0
   10.7706  -13.6870   28.9003 C   0  0  0  0  0  0  0  0  0  0  0  0
   10.3616  -14.6557   27.8252 C   0  0  2  0  0  0  0  0  0  0  0  0
    9.4458  -14.0333   26.8624 N   0  0  0  0  0  0  0  0  0  0  0  0
    9.7306  -15.8545   28.4291 C   0  0  0  0  0  0  0  0  0  0  0  0
    8.5043  -16.0520   28.3200 O   0  0  0  0  0  0  0  0  0  0  0  0
   10.5082  -16.7836   29.1322 O   0  0  0  0  0  0  0  0  0  0  0  0
  2  1  1  0
  3  5  1  0
  3  2  1  0
  3  4  1  6
  5  6  2  0
  7  8  1  0
  7  5  1  0
  8  9  1  1
 10  9  1  0
 11 15  1  0
 11  8  1  0
 12 11  2  0
 14 13  1  1
 14 15  1  0
 16 14  1  0
 16 18  1  0
 17 16  2  0
M  END
$$$$
