SCA.pdb
     RDKit          3D

 18 17  0  0  1  0  0  0  0  0999 V2000
    5.9399  -17.5307   13.0879 O   0  0  0  0  0  0  0  0  0  0  0  0
    6.7985  -17.7353   14.1737 C   0  0  0  0  0  0  0  0  0  0  0  0
    7.7288  -16.5537   14.3504 C   0  0  2  0  0  0  0  0  0  0  0  0
    8.6252  -16.5178   13.2367 N   0  0  0  0  0  0  0  0  0  0  0  0
    8.3724  -16.5292   15.6657 C   0  0  0  0  0  0  0  0  0  0  0  0
    9.4621  -17.0858   15.8389 O   0  0  0  0  0  0  0  0  0  0  0  0
    7.7579  -15.8604   16.7878 N   0  0  0  0  0  0  0  0  0  0  0  0
    8.4292  -15.7709   18.0653 C   0  0  1  0  0  0  0  0  0  0  0  0
    7.7484  -14.7771   18.9851 C   0  0  0  0  0  0  0  0  0  0  0  0
    7.8083  -13.0964   18.2592 S   0  0  0  0  0  0  0  0  0  0  0  0
    8.6000  -17.0929   18.7011 C   0  0  0  0  0  0  0  0  0  0  0  0
    7.7781  -18.0252   18.4969 O   0  0  0  0  0  0  0  0  0  0  0  0
   10.2359  -19.6903   18.9885 C   0  0  0  0  0  0  0  0  0  0  0  0
    9.9184  -18.7176   20.0904 C   0  0  2  0  0  0  0  0  0  0  0  0
    9.6931  -17.3662   19.5648 N   0  0  0  0  0  0  0  0  0  0  0  0
   11.0138  -18.7009   21.0903 C   0  0  0  0  0  0  0  0  0  0  0  0
   11.7066  -17.6780   21.2589 O   0  0  0  0  0  0  0  0  0  0  0  0
   11.2843  -19.8391   21.8608 O   0  0  0  0  0  0  0  0  0  0  0  0
  2  1  1  0
  3  5  1  0
  3  2  1  0
  3  4  1  6
  5  6  2  0
  7  8  1  0
  7  5  1  0
  8  9  1  1
 10  9  1  0
 11 15  1  0
 11  8  1  0
 12 11  2  0
 14 13  1  6
 14 15  1  0
 16 14  1  0
 16 18  1  0
 17 16  2  0
M  END
$$$$
