SIS.pdb
     RDKit          3D

 21 20  0  0  1  0  0  0  0  0999 V2000
    7.1461  -17.5488   19.9139 O   0  0  0  0  0  0  0  0  0  0  0  0
    7.5950  -17.0565   21.1159 C   0  0  0  0  0  0  0  0  0  0  0  0
    8.1084  -15.6426   21.0434 C   0  0  2  0  0  0  0  0  0  0  0  0
    9.2142  -15.6019   20.1240 N   0  0  0  0  0  0  0  0  0  0  0  0
    8.6176  -15.2810   22.3926 C   0  0  0  0  0  0  0  0  0  0  0  0
    9.8219  -15.4602   22.7414 O   0  0  0  0  0  0  0  0  0  0  0  0
    7.0277  -11.8582   27.2962 C   0  0  0  0  0  0  0  0  0  0  0  0
    7.9333  -12.9390   26.7379 C   0  0  0  0  0  0  0  0  0  0  0  0
    7.3652  -13.3774   25.4275 C   0  0  2  0  0  0  0  0  0  0  0  0
    5.9514  -13.8532   25.5720 C   0  0  0  0  0  0  0  0  0  0  0  0
    8.2232  -14.3819   24.7038 C   0  0  2  0  0  0  0  0  0  0  0  0
    7.7580  -14.6987   23.3925 N   0  0  0  0  0  0  0  0  0  0  0  0
    8.4088  -15.5997   25.5507 C   0  0  0  0  0  0  0  0  0  0  0  0
    7.4203  -16.3529   25.7438 O   0  0  0  0  0  0  0  0  0  0  0  0
   11.9383  -17.5926   25.8901 O   0  0  0  0  0  0  0  0  0  0  0  0
   10.7093  -18.1516   26.1836 C   0  0  0  0  0  0  0  0  0  0  0  0
    9.7627  -17.1848   26.8546 C   0  0  2  0  0  0  0  0  0  0  0  0
    9.6354  -15.9426   26.1412 N   0  0  0  0  0  0  0  0  0  0  0  0
   10.2716  -16.9732   28.2434 C   0  0  0  0  0  0  0  0  0  0  0  0
   10.5892  -15.8233   28.6503 O   0  0  0  0  0  0  0  0  0  0  0  0
   10.3800  -18.0876   29.0630 O   0  0  0  0  0  0  0  0  0  0  0  0
  2  1  1  0
  3  4  1  6
  3  2  1  0
  5  3  1  0
  6  5  2  0
  8  9  1  0
  8  7  1  0
  9 11  1  0
  9 10  1  1
 11 13  1  0
 11 12  1  6
 12  5  1  0
 13 18  1  0
 14 13  2  0
 17 16  1  6
 16 15  1  0
 17 19  1  0
 18 17  1  0
 19 20  2  0
 19 21  1  0
M  END
$$$$
