SIS.pdb
     RDKit          3D

 21 20  0  0  1  0  0  0  0  0999 V2000
  -10.4780  -26.2697   27.5103 O   0  0  0  0  0  0  0  0  0  0  0  0
  -10.6204  -24.9706   27.0854 C   0  0  0  0  0  0  0  0  0  0  0  0
   -9.5875  -24.5410   26.0771 C   0  0  2  0  0  0  0  0  0  0  0  0
   -9.6412  -25.4381   24.9537 N   0  0  0  0  0  0  0  0  0  0  0  0
   -8.2523  -24.6817   26.7156 C   0  0  0  0  0  0  0  0  0  0  0  0
   -7.5103  -25.6925   26.5372 O   0  0  0  0  0  0  0  0  0  0  0  0
   -3.5000  -21.3474   27.8864 C   0  0  0  0  0  0  0  0  0  0  0  0
   -4.2499  -22.4927   28.5389 C   0  0  0  0  0  0  0  0  0  0  0  0
   -5.6804  -22.3992   28.1182 C   0  0  2  0  0  0  0  0  0  0  0  0
   -6.4234  -21.3723   28.9180 C   0  0  0  0  0  0  0  0  0  0  0  0
   -6.3942  -23.7256   28.1081 C   0  0  2  0  0  0  0  0  0  0  0  0
   -7.7204  -23.6623   27.5849 N   0  0  0  0  0  0  0  0  0  0  0  0
   -6.3492  -24.3404   29.4699 C   0  0  0  0  0  0  0  0  0  0  0  0
   -7.0483  -23.8300   30.3823 O   0  0  0  0  0  0  0  0  0  0  0  0
   -6.3968  -28.1531   30.2199 O   0  0  0  0  0  0  0  0  0  0  0  0
   -5.5040  -27.5439   31.0808 C   0  0  0  0  0  0  0  0  0  0  0  0
   -5.6263  -26.0386   31.0945 C   0  0  2  0  0  0  0  0  0  0  0  0
   -5.5629  -25.4615   29.7787 N   0  0  0  0  0  0  0  0  0  0  0  0
   -4.5353  -25.5231   31.9757 C   0  0  0  0  0  0  0  0  0  0  0  0
   -3.5332  -24.9323   31.4903 O   0  0  0  0  0  0  0  0  0  0  0  0
   -4.6688  -25.7197   33.3428 O   0  0  0  0  0  0  0  0  0  0  0  0
  2  1  1  0
  3  4  1  6
  3  2  1  0
  5  3  1  0
  6  5  2  0
  8  9  1  0
  8  7  1  0
  9 11  1  0
  9 10  1  1
 11 13  1  0
 11 12  1  1
 12  5  1  0
 13 18  1  0
 14 13  2  0
 17 16  1  6
 16 15  1  0
 17 19  1  0
 18 17  1  0
 19 20  2  0
 19 21  1  0
M  END
$$$$
