SIS.pdb
     RDKit          3D

 21 20  0  0  1  0  0  0  0  0999 V2000
    7.0538  -16.8347   19.7781 O   0  0  0  0  0  0  0  0  0  0  0  0
    6.7338  -16.2332   20.9715 C   0  0  0  0  0  0  0  0  0  0  0  0
    7.1502  -14.7885   21.0583 C   0  0  2  0  0  0  0  0  0  0  0  0
    8.0074  -14.4895   19.9424 N   0  0  0  0  0  0  0  0  0  0  0  0
    7.9431  -14.6249   22.3053 C   0  0  0  0  0  0  0  0  0  0  0  0
    9.2049  -14.7306   22.3338 O   0  0  0  0  0  0  0  0  0  0  0  0
    5.9492  -11.7282   26.6719 C   0  0  0  0  0  0  0  0  0  0  0  0
    6.7884  -12.2441   25.5189 C   0  0  0  0  0  0  0  0  0  0  0  0
    7.3242  -13.5832   25.9087 C   0  0  2  0  0  0  0  0  0  0  0  0
    8.1616  -13.5012   27.1489 C   0  0  0  0  0  0  0  0  0  0  0  0
    8.0443  -14.2931   24.7923 C   0  0  2  0  0  0  0  0  0  0  0  0
    7.3122  -14.3330   23.5680 N   0  0  0  0  0  0  0  0  0  0  0  0
    8.4721  -15.6525   25.2433 C   0  0  0  0  0  0  0  0  0  0  0  0
    7.5856  -16.4873   25.5576 O   0  0  0  0  0  0  0  0  0  0  0  0
   12.3324  -17.1777   24.6603 O   0  0  0  0  0  0  0  0  0  0  0  0
   11.2140  -17.9822   24.7661 C   0  0  0  0  0  0  0  0  0  0  0  0
   10.1483  -17.4014   25.6650 C   0  0  2  0  0  0  0  0  0  0  0  0
    9.8180  -16.0418   25.3325 N   0  0  0  0  0  0  0  0  0  0  0  0
   10.6519  -17.5194   27.0667 C   0  0  0  0  0  0  0  0  0  0  0  0
   11.0040  -18.6339   27.5385 O   0  0  0  0  0  0  0  0  0  0  0  0
   10.7163  -16.3587   27.8245 O   0  0  0  0  0  0  0  0  0  0  0  0
  2  1  1  0
  3  4  1  6
  3  2  1  0
  5  3  1  0
  6  5  2  0
  8  9  1  0
  8  7  1  0
  9 11  1  0
  9 10  1  1
 11 13  1  0
 11 12  1  6
 12  5  1  0
 13 18  1  0
 14 13  2  0
 17 16  1  6
 16 15  1  0
 17 19  1  0
 18 17  1  0
 19 20  2  0
 19 21  1  0
M  END
$$$$
