SIS.pdb
     RDKit          3D

 21 20  0  0  1  0  0  0  0  0999 V2000
    6.8918  -17.0856   20.1298 O   0  0  0  0  0  0  0  0  0  0  0  0
    6.5952  -16.3539   21.2546 C   0  0  0  0  0  0  0  0  0  0  0  0
    7.1534  -14.9552   21.2381 C   0  0  2  0  0  0  0  0  0  0  0  0
    8.0772  -14.8421   20.1411 N   0  0  0  0  0  0  0  0  0  0  0  0
    7.9125  -14.7608   22.5016 C   0  0  0  0  0  0  0  0  0  0  0  0
    9.1751  -14.8398   22.5616 O   0  0  0  0  0  0  0  0  0  0  0  0
    5.9494  -11.4987   26.4974 C   0  0  0  0  0  0  0  0  0  0  0  0
    6.8196  -12.1640   25.4487 C   0  0  0  0  0  0  0  0  0  0  0  0
    7.2670  -13.4802   25.9960 C   0  0  2  0  0  0  0  0  0  0  0  0
    8.0951  -13.3090   27.2334 C   0  0  0  0  0  0  0  0  0  0  0  0
    7.9531  -14.3546   24.9793 C   0  0  2  0  0  0  0  0  0  0  0  0
    7.2454  -14.4676   23.7452 N   0  0  0  0  0  0  0  0  0  0  0  0
    8.2655  -15.6875   25.5794 C   0  0  0  0  0  0  0  0  0  0  0  0
    7.3160  -16.3862   26.0173 O   0  0  0  0  0  0  0  0  0  0  0  0
   11.8778  -17.5609   24.9843 O   0  0  0  0  0  0  0  0  0  0  0  0
   10.7825  -18.3108   25.3676 C   0  0  0  0  0  0  0  0  0  0  0  0
    9.7823  -17.5262   26.1832 C   0  0  2  0  0  0  0  0  0  0  0  0
    9.5701  -16.1968   25.6773 N   0  0  0  0  0  0  0  0  0  0  0  0
   10.2889  -17.5068   27.5887 C   0  0  0  0  0  0  0  0  0  0  0  0
   10.5712  -16.4205   28.1622 O   0  0  0  0  0  0  0  0  0  0  0  0
   10.4356  -18.7265   28.2341 O   0  0  0  0  0  0  0  0  0  0  0  0
  2  1  1  0
  3  4  1  6
  3  2  1  0
  5  3  1  0
  6  5  2  0
  8  9  1  0
  8  7  1  0
  9 11  1  0
  9 10  1  1
 11 13  1  0
 11 12  1  6
 12  5  1  0
 13 18  1  0
 14 13  2  0
 17 16  1  6
 16 15  1  0
 17 19  1  0
 18 17  1  0
 19 20  2  0
 19 21  1  0
M  END
$$$$
