SIS.pdb
     RDKit          3D

 21 20  0  0  1  0  0  0  0  0999 V2000
    7.8251  -17.5822   20.2575 O   0  0  0  0  0  0  0  0  0  0  0  0
    7.0551  -16.7961   21.0807 C   0  0  0  0  0  0  0  0  0  0  0  0
    7.3934  -15.3299   21.0168 C   0  0  2  0  0  0  0  0  0  0  0  0
    8.2854  -15.1121   19.9094 N   0  0  0  0  0  0  0  0  0  0  0  0
    8.1183  -14.9825   22.2675 C   0  0  0  0  0  0  0  0  0  0  0  0
    9.3786  -15.0529   22.3713 O   0  0  0  0  0  0  0  0  0  0  0  0
    7.3118  -11.6999   27.4179 C   0  0  0  0  0  0  0  0  0  0  0  0
    8.1390  -12.7505   26.7025 C   0  0  0  0  0  0  0  0  0  0  0  0
    7.3569  -13.2177   25.5183 C   0  0  2  0  0  0  0  0  0  0  0  0
    6.0085  -13.7351   25.9185 C   0  0  0  0  0  0  0  0  0  0  0  0
    8.1008  -14.2019   24.6542 C   0  0  2  0  0  0  0  0  0  0  0  0
    7.4183  -14.5402   23.4474 N   0  0  0  0  0  0  0  0  0  0  0  0
    8.4700  -15.4085   25.4557 C   0  0  0  0  0  0  0  0  0  0  0  0
    7.5611  -16.2151   25.7797 O   0  0  0  0  0  0  0  0  0  0  0  0
   12.2560  -16.7423   25.4615 O   0  0  0  0  0  0  0  0  0  0  0  0
   11.2897  -17.6252   25.9040 C   0  0  0  0  0  0  0  0  0  0  0  0
   10.0867  -16.9365   26.5035 C   0  0  2  0  0  0  0  0  0  0  0  0
    9.7845  -15.6841   25.8641 N   0  0  0  0  0  0  0  0  0  0  0  0
   10.3702  -16.7578   27.9595 C   0  0  0  0  0  0  0  0  0  0  0  0
   10.3358  -15.6160   28.4923 O   0  0  0  0  0  0  0  0  0  0  0  0
   10.6714  -17.8934   28.6979 O   0  0  0  0  0  0  0  0  0  0  0  0
  2  1  1  0
  3  4  1  6
  3  2  1  0
  5  3  1  0
  6  5  2  0
  8  9  1  0
  8  7  1  0
  9 11  1  0
  9 10  1  1
 11 13  1  0
 11 12  1  6
 12  5  1  0
 13 18  1  0
 14 13  2  0
 17 16  1  6
 16 15  1  0
 17 19  1  0
 18 17  1  0
 19 20  2  0
 19 21  1  0
M  END
$$$$
