SIS.pdb
     RDKit          3D

 21 20  0  0  1  0  0  0  0  0999 V2000
   11.4934  -18.2593   15.7584 O   0  0  0  0  0  0  0  0  0  0  0  0
   10.1919  -17.8958   15.5086 C   0  0  0  0  0  0  0  0  0  0  0  0
   10.0297  -16.4608   15.0814 C   0  0  2  0  0  0  0  0  0  0  0  0
   10.8792  -16.2207   13.9455 N   0  0  0  0  0  0  0  0  0  0  0  0
   10.5034  -15.6040   16.2003 C   0  0  0  0  0  0  0  0  0  0  0  0
   11.6761  -15.1281   16.2501 O   0  0  0  0  0  0  0  0  0  0  0  0
    6.8888  -12.7098   19.3137 C   0  0  0  0  0  0  0  0  0  0  0  0
    8.0671  -13.0708   18.4298 C   0  0  0  0  0  0  0  0  0  0  0  0
    9.0141  -13.8898   19.2449 C   0  0  2  0  0  0  0  0  0  0  0  0
    9.5565  -13.1118   20.4053 C   0  0  0  0  0  0  0  0  0  0  0  0
   10.1126  -14.5264   18.4345 C   0  0  2  0  0  0  0  0  0  0  0  0
    9.6434  -15.2623   17.3055 N   0  0  0  0  0  0  0  0  0  0  0  0
   10.9924  -15.3469   19.3219 C   0  0  0  0  0  0  0  0  0  0  0  0
   10.6338  -16.5184   19.6056 O   0  0  0  0  0  0  0  0  0  0  0  0
   15.0788  -15.9626   21.8750 O   0  0  0  0  0  0  0  0  0  0  0  0
   14.3422  -15.1623   21.0228 C   0  0  0  0  0  0  0  0  0  0  0  0
   12.9483  -15.6873   20.7726 C   0  0  2  0  0  0  0  0  0  0  0  0
   12.2011  -14.8709   19.8541 N   0  0  0  0  0  0  0  0  0  0  0  0
   12.2742  -15.7786   22.1029 C   0  0  0  0  0  0  0  0  0  0  0  0
   11.3940  -14.9432   22.4435 O   0  0  0  0  0  0  0  0  0  0  0  0
   12.6541  -16.8148   22.9441 O   0  0  0  0  0  0  0  0  0  0  0  0
  2  1  1  0
  3  4  1  6
  3  2  1  0
  5  3  1  0
  6  5  2  0
  8  9  1  0
  8  7  1  0
  9 11  1  0
  9 10  1  1
 11 13  1  0
 11 12  1  6
 12  5  1  0
 13 18  1  0
 14 13  2  0
 17 16  1  1
 16 15  1  0
 17 19  1  0
 18 17  1  0
 19 20  2  0
 19 21  1  0
M  END
$$$$
