SIS.pdb
     RDKit          3D

 21 20  0  0  1  0  0  0  0  0999 V2000
    6.4453  -16.8570   19.7455 O   0  0  0  0  0  0  0  0  0  0  0  0
    6.9986  -16.4710   20.9427 C   0  0  0  0  0  0  0  0  0  0  0  0
    7.2622  -14.9917   21.0450 C   0  0  2  0  0  0  0  0  0  0  0  0
    8.1390  -14.6060   19.9717 N   0  0  0  0  0  0  0  0  0  0  0  0
    7.9720  -14.7508   22.3290 C   0  0  0  0  0  0  0  0  0  0  0  0
    9.2350  -14.7448   22.4232 O   0  0  0  0  0  0  0  0  0  0  0  0
    5.7416  -11.5887   26.3026 C   0  0  0  0  0  0  0  0  0  0  0  0
    6.6258  -12.2256   25.2479 C   0  0  0  0  0  0  0  0  0  0  0  0
    7.1372  -13.5159   25.8005 C   0  0  2  0  0  0  0  0  0  0  0  0
    7.9025  -13.3055   27.0718 C   0  0  0  0  0  0  0  0  0  0  0  0
    7.9193  -14.3311   24.8042 C   0  0  2  0  0  0  0  0  0  0  0  0
    7.2533  -14.5075   23.5545 N   0  0  0  0  0  0  0  0  0  0  0  0
    8.3301  -15.6309   25.4176 C   0  0  0  0  0  0  0  0  0  0  0  0
    7.4347  -16.3972   25.8564 O   0  0  0  0  0  0  0  0  0  0  0  0
   12.2186  -17.2327   25.1239 O   0  0  0  0  0  0  0  0  0  0  0  0
   11.0904  -18.0211   25.2453 C   0  0  0  0  0  0  0  0  0  0  0  0
    9.9797  -17.3521   26.0198 C   0  0  2  0  0  0  0  0  0  0  0  0
    9.6695  -16.0370   25.5271 N   0  0  0  0  0  0  0  0  0  0  0  0
   10.4085  -17.3177   27.4506 C   0  0  0  0  0  0  0  0  0  0  0  0
   10.5722  -16.2228   28.0533 O   0  0  0  0  0  0  0  0  0  0  0  0
   10.6183  -18.5332   28.0863 O   0  0  0  0  0  0  0  0  0  0  0  0
  2  1  1  0
  3  4  1  6
  3  2  1  0
  5  3  1  0
  6  5  2  0
  8  9  1  0
  8  7  1  0
  9 11  1  0
  9 10  1  1
 11 13  1  0
 11 12  1  6
 12  5  1  0
 13 18  1  0
 14 13  2  0
 17 16  1  6
 16 15  1  0
 17 19  1  0
 18 17  1  0
 19 20  2  0
 19 21  1  0
M  END
$$$$
