SIS.pdb
     RDKit          3D

 21 20  0  0  1  0  0  0  0  0999 V2000
    6.1371  -17.0656   20.5730 O   0  0  0  0  0  0  0  0  0  0  0  0
    7.1617  -16.7123   21.4179 C   0  0  0  0  0  0  0  0  0  0  0  0
    7.3942  -15.2271   21.5084 C   0  0  2  0  0  0  0  0  0  0  0  0
    8.2199  -14.8229   20.4019 N   0  0  0  0  0  0  0  0  0  0  0  0
    8.1467  -14.9670   22.7640 C   0  0  0  0  0  0  0  0  0  0  0  0
    9.4095  -15.0351   22.8328 O   0  0  0  0  0  0  0  0  0  0  0  0
    5.9246  -11.6688   26.6245 C   0  0  0  0  0  0  0  0  0  0  0  0
    6.8659  -12.2807   25.6050 C   0  0  0  0  0  0  0  0  0  0  0  0
    7.4240  -13.5346   26.1951 C   0  0  2  0  0  0  0  0  0  0  0  0
    8.2361  -13.2515   27.4224 C   0  0  0  0  0  0  0  0  0  0  0  0
    8.1804  -14.3821   25.2059 C   0  0  2  0  0  0  0  0  0  0  0  0
    7.4725  -14.6183   23.9894 N   0  0  0  0  0  0  0  0  0  0  0  0
    8.6292  -15.6504   25.8575 C   0  0  0  0  0  0  0  0  0  0  0  0
    7.7558  -16.4387   26.3019 O   0  0  0  0  0  0  0  0  0  0  0  0
   12.5369  -17.0892   25.5852 O   0  0  0  0  0  0  0  0  0  0  0  0
   11.4763  -17.9440   25.8170 C   0  0  0  0  0  0  0  0  0  0  0  0
   10.3317  -17.2843   26.5489 C   0  0  2  0  0  0  0  0  0  0  0  0
    9.9807  -16.0034   25.9971 N   0  0  0  0  0  0  0  0  0  0  0  0
   10.7395  -17.1739   27.9821 C   0  0  0  0  0  0  0  0  0  0  0  0
   11.0496  -18.1972   28.6495 O   0  0  0  0  0  0  0  0  0  0  0  0
   10.7633  -15.9062   28.5459 O   0  0  0  0  0  0  0  0  0  0  0  0
  2  1  1  0
  3  4  1  6
  3  2  1  0
  5  3  1  0
  6  5  2  0
  8  9  1  0
  8  7  1  0
  9 11  1  0
  9 10  1  1
 11 13  1  0
 11 12  1  6
 12  5  1  0
 13 18  1  0
 14 13  2  0
 17 16  1  6
 16 15  1  0
 17 19  1  0
 18 17  1  0
 19 20  2  0
 19 21  1  0
M  END
$$$$
