SIS.pdb
     RDKit          3D

 21 20  0  0  1  0  0  0  0  0999 V2000
    6.6770  -19.2977   23.3309 O   0  0  0  0  0  0  0  0  0  0  0  0
    5.6047  -18.4607   23.5263 C   0  0  0  0  0  0  0  0  0  0  0  0
    5.7088  -17.1522   22.7881 C   0  0  2  0  0  0  0  0  0  0  0  0
    6.0393  -17.4245   21.4147 N   0  0  0  0  0  0  0  0  0  0  0  0
    6.8326  -16.3866   23.3894 C   0  0  0  0  0  0  0  0  0  0  0  0
    7.9978  -16.3764   22.8931 O   0  0  0  0  0  0  0  0  0  0  0  0
    5.8818  -11.9615   26.6256 C   0  0  0  0  0  0  0  0  0  0  0  0
    6.5647  -12.7628   25.5341 C   0  0  0  0  0  0  0  0  0  0  0  0
    7.3301  -13.8658   26.1895 C   0  0  2  0  0  0  0  0  0  0  0  0
    8.4900  -13.3379   26.9781 C   0  0  0  0  0  0  0  0  0  0  0  0
    7.7489  -14.9569   25.2392 C   0  0  2  0  0  0  0  0  0  0  0  0
    6.6567  -15.6029   24.5862 N   0  0  0  0  0  0  0  0  0  0  0  0
    8.6470  -15.9263   25.9381 C   0  0  0  0  0  0  0  0  0  0  0  0
    8.1318  -16.7646   26.7213 O   0  0  0  0  0  0  0  0  0  0  0  0
   12.8242  -18.3507   25.8554 O   0  0  0  0  0  0  0  0  0  0  0  0
   12.1228  -17.2181   25.4890 C   0  0  0  0  0  0  0  0  0  0  0  0
   10.8015  -17.0801   26.2075 C   0  0  2  0  0  0  0  0  0  0  0  0
   10.0395  -15.9450   25.7612 N   0  0  0  0  0  0  0  0  0  0  0  0
   11.1083  -16.9985   27.6675 C   0  0  0  0  0  0  0  0  0  0  0  0
   10.9349  -15.9272   28.3085 O   0  0  0  0  0  0  0  0  0  0  0  0
   11.5894  -18.1436   28.2863 O   0  0  0  0  0  0  0  0  0  0  0  0
  2  1  1  0
  3  4  1  6
  3  2  1  0
  5  3  1  0
  6  5  2  0
  8  9  1  0
  8  7  1  0
  9 11  1  0
  9 10  1  6
 11 13  1  0
 11 12  1  1
 12  5  1  0
 13 18  1  0
 14 13  2  0
 17 16  1  6
 16 15  1  0
 17 19  1  0
 18 17  1  0
 19 20  2  0
 19 21  1  0
M  END
$$$$
