VPP.pdb
     RDKit          3D

 22 23  0  0  1  0  0  0  0  0999 V2000
    8.5085  -19.2571   23.4883 C   0  0  0  0  0  0  0  0  0  0  0  0
    8.1050  -18.8307   24.8625 C   0  0  2  0  0  0  0  0  0  0  0  0
    8.1675  -20.0180   25.8334 C   0  0  0  0  0  0  0  0  0  0  0  0
    6.7106  -18.2149   24.8985 C   0  0  2  0  0  0  0  0  0  0  0  0
    5.7307  -19.2459   24.5118 N   0  0  0  0  0  0  0  0  0  0  0  0
    6.6223  -17.0304   24.0259 C   0  0  0  0  0  0  0  0  0  0  0  0
    5.9593  -17.2127   22.9365 O   0  0  0  0  0  0  0  0  0  0  0  0
    7.1874  -15.7687   24.2921 N   0  0  0  0  0  0  0  0  0  0  0  0
    7.7734  -15.3491   25.5479 C   0  0  0  0  0  0  0  0  0  0  0  0
    7.4903  -13.8545   25.6206 C   0  0  0  0  0  0  0  0  0  0  0  0
    7.5511  -13.4635   24.1791 C   0  0  0  0  0  0  0  0  0  0  0  0
    7.2616  -14.6760   23.3428 C   0  0  1  0  0  0  0  0  0  0  0  0
    8.3568  -14.8439   22.3776 C   0  0  0  0  0  0  0  0  0  0  0  0
    9.3187  -15.6227   22.5535 O   0  0  0  0  0  0  0  0  0  0  0  0
    8.2938  -14.0504   21.1617 N   0  0  0  0  0  0  0  0  0  0  0  0
    7.2826  -13.0670   20.8510 C   0  0  0  0  0  0  0  0  0  0  0  0
    7.3389  -12.9032   19.3364 C   0  0  0  0  0  0  0  0  0  0  0  0
    8.7872  -13.1656   19.0338 C   0  0  0  0  0  0  0  0  0  0  0  0
    9.2247  -14.1165   20.0699 C   0  0  1  0  0  0  0  0  0  0  0  0
   10.6174  -13.8651   20.5455 C   0  0  0  0  0  0  0  0  0  0  0  0
   10.7559  -13.3428   21.6747 O   0  0  0  0  0  0  0  0  0  0  0  0
   11.7506  -14.1736   19.8164 O   0  0  0  0  0  0  0  0  0  0  0  0
  2  3  1  1
  2  1  1  0
  4  2  1  0
  4  6  1  0
  4  5  1  6
  6  8  1  0
  6  7  2  0
  8 12  1  0
  9  8  1  0
  9 10  1  0
 10 11  1  0
 12 11  1  0
 12 13  1  6
 13 15  1  0
 14 13  2  0
 15 19  1  0
 15 16  1  0
 16 17  1  0
 18 17  1  0
 19 20  1  1
 19 18  1  0
 20 22  1  0
 21 20  2  0
M  END
$$$$
