VPP.pdb
     RDKit          3D

 22 23  0  0  1  0  0  0  0  0999 V2000
    9.1110  -17.3515   21.7669 C   0  0  0  0  0  0  0  0  0  0  0  0
    7.8155  -16.6137   21.6650 C   0  0  2  0  0  0  0  0  0  0  0  0
    7.0771  -17.0004   20.3759 C   0  0  0  0  0  0  0  0  0  0  0  0
    7.9979  -15.1007   21.7144 C   0  0  2  0  0  0  0  0  0  0  0  0
    8.8791  -14.6966   20.6040 N   0  0  0  0  0  0  0  0  0  0  0  0
    8.5340  -14.6652   23.0164 C   0  0  0  0  0  0  0  0  0  0  0  0
    9.8056  -14.4593   23.0332 O   0  0  0  0  0  0  0  0  0  0  0  0
    7.7827  -14.4663   24.1903 N   0  0  0  0  0  0  0  0  0  0  0  0
    6.3566  -14.6740   24.3306 C   0  0  0  0  0  0  0  0  0  0  0  0
    5.9207  -13.6434   25.3636 C   0  0  0  0  0  0  0  0  0  0  0  0
    7.1258  -13.5683   26.2448 C   0  0  0  0  0  0  0  0  0  0  0  0
    8.3240  -14.0064   25.4537 C   0  0  1  0  0  0  0  0  0  0  0  0
    9.0024  -15.0771   26.1971 C   0  0  0  0  0  0  0  0  0  0  0  0
    9.0226  -16.2702   25.8248 O   0  0  0  0  0  0  0  0  0  0  0  0
    9.6785  -14.7015   27.4275 N   0  0  0  0  0  0  0  0  0  0  0  0
    9.6034  -13.4088   28.0672 C   0  0  0  0  0  0  0  0  0  0  0  0
   10.8272  -13.3416   28.9738 C   0  0  0  0  0  0  0  0  0  0  0  0
   11.0269  -14.7804   29.3588 C   0  0  0  0  0  0  0  0  0  0  0  0
   10.5336  -15.5532   28.2063 C   0  0  1  0  0  0  0  0  0  0  0  0
    9.8185  -16.8028   28.6014 C   0  0  0  0  0  0  0  0  0  0  0  0
    8.5703  -16.8080   28.5058 O   0  0  0  0  0  0  0  0  0  0  0  0
   10.4509  -17.9424   29.0622 O   0  0  0  0  0  0  0  0  0  0  0  0
  2  3  1  6
  2  1  1  0
  4  2  1  0
  4  6  1  0
  4  5  1  6
  6  8  1  0
  6  7  2  0
  8 12  1  0
  9  8  1  0
  9 10  1  0
 10 11  1  0
 12 11  1  0
 12 13  1  1
 13 15  1  0
 14 13  2  0
 15 19  1  0
 15 16  1  0
 16 17  1  0
 18 17  1  0
 19 20  1  1
 19 18  1  0
 20 22  1  0
 21 20  2  0
M  END
$$$$
