VPP.pdb
     RDKit          3D

 22 23  0  0  1  0  0  0  0  0999 V2000
    7.4793  -16.7198   20.2169 C   0  0  0  0  0  0  0  0  0  0  0  0
    7.9788  -16.2721   21.5523 C   0  0  2  0  0  0  0  0  0  0  0  0
    7.3184  -17.0865   22.6735 C   0  0  0  0  0  0  0  0  0  0  0  0
    7.7456  -14.7852   21.7962 C   0  0  2  0  0  0  0  0  0  0  0  0
    8.3193  -14.0278   20.6693 N   0  0  0  0  0  0  0  0  0  0  0  0
    8.3179  -14.3546   23.0844 C   0  0  0  0  0  0  0  0  0  0  0  0
    9.5887  -14.1442   23.0653 O   0  0  0  0  0  0  0  0  0  0  0  0
    7.6004  -14.1646   24.2807 N   0  0  0  0  0  0  0  0  0  0  0  0
    6.1660  -14.2835   24.4381 C   0  0  0  0  0  0  0  0  0  0  0  0
    5.8170  -13.2787   25.5279 C   0  0  0  0  0  0  0  0  0  0  0  0
    7.0383  -13.3278   26.3885 C   0  0  0  0  0  0  0  0  0  0  0  0
    8.1914  -13.8049   25.5543 C   0  0  1  0  0  0  0  0  0  0  0  0
    8.8078  -14.9540   26.2319 C   0  0  0  0  0  0  0  0  0  0  0  0
    8.6636  -16.1369   25.8543 O   0  0  0  0  0  0  0  0  0  0  0  0
    9.6238  -14.6721   27.4010 N   0  0  0  0  0  0  0  0  0  0  0  0
    9.6884  -13.4078   28.0962 C   0  0  0  0  0  0  0  0  0  0  0  0
   10.9983  -13.4485   28.8752 C   0  0  0  0  0  0  0  0  0  0  0  0
   11.1509  -14.9120   29.1799 C   0  0  0  0  0  0  0  0  0  0  0  0
   10.5010  -15.6035   28.0537 C   0  0  1  0  0  0  0  0  0  0  0  0
    9.7571  -16.8294   28.4694 C   0  0  0  0  0  0  0  0  0  0  0  0
   10.4296  -17.8552   28.7196 O   0  0  0  0  0  0  0  0  0  0  0  0
    8.3817  -16.8944   28.5922 O   0  0  0  0  0  0  0  0  0  0  0  0
  2  3  1  1
  2  1  1  0
  4  2  1  0
  4  6  1  0
  4  5  1  6
  6  8  1  0
  6  7  2  0
  8 12  1  0
  9  8  1  0
  9 10  1  0
 10 11  1  0
 12 11  1  0
 12 13  1  1
 13 15  1  0
 14 13  2  0
 15 19  1  0
 15 16  1  0
 16 17  1  0
 18 17  1  0
 19 20  1  1
 19 18  1  0
 20 22  1  0
 21 20  2  0
M  END
$$$$
