VPP.pdb
     RDKit          3D

 22 23  0  0  1  0  0  0  0  0999 V2000
    8.9409  -18.6294   25.4989 C   0  0  0  0  0  0  0  0  0  0  0  0
    8.7552  -17.8441   26.7567 C   0  0  2  0  0  0  0  0  0  0  0  0
    9.1905  -18.6705   27.9750 C   0  0  0  0  0  0  0  0  0  0  0  0
    7.3173  -17.3738   26.9464 C   0  0  2  0  0  0  0  0  0  0  0  0
    6.4403  -18.5567   27.0134 N   0  0  0  0  0  0  0  0  0  0  0  0
    6.9049  -16.4550   25.8703 C   0  0  0  0  0  0  0  0  0  0  0  0
    6.0605  -16.9510   25.0332 O   0  0  0  0  0  0  0  0  0  0  0  0
    7.3506  -15.1299   25.7044 N   0  0  0  0  0  0  0  0  0  0  0  0
    8.1096  -14.3626   26.6697 C   0  0  0  0  0  0  0  0  0  0  0  0
    7.6637  -12.9234   26.4486 C   0  0  0  0  0  0  0  0  0  0  0  0
    7.3994  -12.9100   24.9774 C   0  0  0  0  0  0  0  0  0  0  0  0
    7.1069  -14.3134   24.5320 C   0  0  1  0  0  0  0  0  0  0  0  0
    8.0097  -14.6431   23.4204 C   0  0  0  0  0  0  0  0  0  0  0  0
    8.9762  -15.4288   23.5258 O   0  0  0  0  0  0  0  0  0  0  0  0
    7.7421  -14.0079   22.1409 N   0  0  0  0  0  0  0  0  0  0  0  0
    6.7355  -13.0015   21.8960 C   0  0  0  0  0  0  0  0  0  0  0  0
    6.4962  -13.0360   20.3908 C   0  0  0  0  0  0  0  0  0  0  0  0
    7.8415  -13.4387   19.8561 C   0  0  0  0  0  0  0  0  0  0  0  0
    8.4326  -14.2793   20.9110 C   0  0  1  0  0  0  0  0  0  0  0  0
    9.9022  -14.0709   21.0718 C   0  0  0  0  0  0  0  0  0  0  0  0
   10.6568  -14.6127   20.2326 O   0  0  0  0  0  0  0  0  0  0  0  0
   10.4703  -13.3212   22.0847 O   0  0  0  0  0  0  0  0  0  0  0  0
  2  3  1  1
  2  1  1  0
  4  2  1  0
  4  6  1  0
  4  5  1  6
  6  8  1  0
  6  7  2  0
  8 12  1  0
  9  8  1  0
  9 10  1  0
 10 11  1  0
 12 11  1  0
 12 13  1  6
 13 15  1  0
 14 13  2  0
 15 19  1  0
 15 16  1  0
 16 17  1  0
 18 17  1  0
 19 20  1  1
 19 18  1  0
 20 22  1  0
 21 20  2  0
M  END
$$$$
