VPP.pdb
     RDKit          3D

 22 23  0  0  1  0  0  0  0  0999 V2000
    8.5933  -19.1944   24.3154 C   0  0  0  0  0  0  0  0  0  0  0  0
    8.2572  -18.6055   25.6471 C   0  0  2  0  0  0  0  0  0  0  0  0
    8.4840  -19.6355   26.7625 C   0  0  0  0  0  0  0  0  0  0  0  0
    6.8244  -18.0882   25.7137 C   0  0  2  0  0  0  0  0  0  0  0  0
    5.9050  -19.2204   25.5006 N   0  0  0  0  0  0  0  0  0  0  0  0
    6.5942  -17.0124   24.7329 C   0  0  0  0  0  0  0  0  0  0  0  0
    5.8292  -17.3364   23.7483 O   0  0  0  0  0  0  0  0  0  0  0  0
    7.1290  -15.7118   24.7980 N   0  0  0  0  0  0  0  0  0  0  0  0
    7.8037  -15.1276   25.9382 C   0  0  0  0  0  0  0  0  0  0  0  0
    7.4683  -13.6441   25.8613 C   0  0  0  0  0  0  0  0  0  0  0  0
    7.3890  -13.4269   24.3845 C   0  0  0  0  0  0  0  0  0  0  0  0
    7.0774  -14.7389   23.7249 C   0  0  1  0  0  0  0  0  0  0  0  0
    8.0912  -14.9887   22.6910 C   0  0  0  0  0  0  0  0  0  0  0  0
    9.0239  -15.8105   22.8230 O   0  0  0  0  0  0  0  0  0  0  0  0
    7.9804  -14.2264   21.4586 N   0  0  0  0  0  0  0  0  0  0  0  0
    7.0031  -13.1969   21.1919 C   0  0  0  0  0  0  0  0  0  0  0  0
    6.9550  -13.0779   19.6728 C   0  0  0  0  0  0  0  0  0  0  0  0
    8.3605  -13.4291   19.2737 C   0  0  0  0  0  0  0  0  0  0  0  0
    8.8224  -14.3742   20.3044 C   0  0  1  0  0  0  0  0  0  0  0  0
   10.2582  -14.1882   20.6690 C   0  0  0  0  0  0  0  0  0  0  0  0
   10.5126  -13.4724   21.6640 O   0  0  0  0  0  0  0  0  0  0  0  0
   11.3112  -14.7560   19.9766 O   0  0  0  0  0  0  0  0  0  0  0  0
  2  3  1  1
  2  1  1  0
  4  2  1  0
  4  6  1  0
  4  5  1  6
  6  8  1  0
  6  7  2  0
  8 12  1  0
  9  8  1  0
  9 10  1  0
 10 11  1  0
 12 11  1  0
 12 13  1  6
 13 15  1  0
 14 13  2  0
 15 19  1  0
 15 16  1  0
 16 17  1  0
 18 17  1  0
 19 20  1  1
 19 18  1  0
 20 22  1  0
 21 20  2  0
M  END
$$$$
