VPP.pdb
     RDKit          3D

 22 23  0  0  1  0  0  0  0  0999 V2000
    6.5152  -11.5980   27.3216 C   0  0  0  0  0  0  0  0  0  0  0  0
    7.1205  -12.8078   26.6866 C   0  0  2  0  0  0  0  0  0  0  0  0
    8.4355  -12.4440   25.9830 C   0  0  0  0  0  0  0  0  0  0  0  0
    6.1794  -13.4805   25.6932 C   0  0  2  0  0  0  0  0  0  0  0  0
    5.0050  -13.9864   26.4263 N   0  0  0  0  0  0  0  0  0  0  0  0
    6.8595  -14.5575   24.9518 C   0  0  0  0  0  0  0  0  0  0  0  0
    6.8722  -15.6982   25.5506 O   0  0  0  0  0  0  0  0  0  0  0  0
    7.4676  -14.4295   23.6885 N   0  0  0  0  0  0  0  0  0  0  0  0
    7.4987  -13.2292   22.8793 C   0  0  0  0  0  0  0  0  0  0  0  0
    7.4924  -13.7368   21.4435 C   0  0  0  0  0  0  0  0  0  0  0  0
    8.2596  -15.0135   21.5694 C   0  0  0  0  0  0  0  0  0  0  0  0
    8.1560  -15.4950   22.9874 C   0  0  1  0  0  0  0  0  0  0  0  0
    9.5149  -15.7184   23.5001 C   0  0  0  0  0  0  0  0  0  0  0  0
   10.2312  -14.8109   23.9756 O   0  0  0  0  0  0  0  0  0  0  0  0
   10.0294  -17.0763   23.4395 N   0  0  0  0  0  0  0  0  0  0  0  0
    9.2984  -18.2323   22.9754 C   0  0  0  0  0  0  0  0  0  0  0  0
   10.0310  -19.4306   23.5682 C   0  0  0  0  0  0  0  0  0  0  0  0
   11.4518  -18.9454   23.6311 C   0  0  0  0  0  0  0  0  0  0  0  0
   11.3470  -17.4905   23.8335 C   0  0  1  0  0  0  0  0  0  0  0  0
   12.3884  -16.7191   23.0922 C   0  0  0  0  0  0  0  0  0  0  0  0
   12.1429  -16.4139   21.9032 O   0  0  0  0  0  0  0  0  0  0  0  0
   13.5958  -16.3274   23.6395 O   0  0  0  0  0  0  0  0  0  0  0  0
  2  3  1  6
  2  1  1  0
  4  2  1  0
  4  6  1  0
  4  5  1  1
  6  8  1  0
  6  7  2  0
  8 12  1  0
  9  8  1  0
  9 10  1  0
 10 11  1  0
 12 11  1  0
 12 13  1  1
 13 15  1  0
 14 13  2  0
 15 19  1  0
 15 16  1  0
 16 17  1  0
 18 17  1  0
 19 20  1  6
 19 18  1  0
 20 22  1  0
 21 20  2  0
M  END
$$$$
