VPP.pdb
     RDKit          3D

 22 23  0  0  1  0  0  0  0  0999 V2000
    8.7898  -17.0747   21.8252 C   0  0  0  0  0  0  0  0  0  0  0  0
    7.5040  -16.3146   21.7813 C   0  0  2  0  0  0  0  0  0  0  0  0
    6.7299  -16.6423   20.4969 C   0  0  0  0  0  0  0  0  0  0  0  0
    7.7112  -14.8073   21.8817 C   0  0  2  0  0  0  0  0  0  0  0  0
    8.5404  -14.3696   20.7443 N   0  0  0  0  0  0  0  0  0  0  0  0
    8.3196  -14.4321   23.1706 C   0  0  0  0  0  0  0  0  0  0  0  0
    9.5939  -14.2472   23.1308 O   0  0  0  0  0  0  0  0  0  0  0  0
    7.6317  -14.2676   24.3879 N   0  0  0  0  0  0  0  0  0  0  0  0
    6.2085  -14.4427   24.5889 C   0  0  0  0  0  0  0  0  0  0  0  0
    5.8533  -13.4499   25.6877 C   0  0  0  0  0  0  0  0  0  0  0  0
    7.1010  -13.4488   26.5109 C   0  0  0  0  0  0  0  0  0  0  0  0
    8.2463  -13.8821   25.6426 C   0  0  1  0  0  0  0  0  0  0  0  0
    8.9278  -15.0043   26.3025 C   0  0  0  0  0  0  0  0  0  0  0  0
    8.8723  -16.1836   25.8915 O   0  0  0  0  0  0  0  0  0  0  0  0
    9.7011  -14.6993   27.4946 N   0  0  0  0  0  0  0  0  0  0  0  0
    9.7302  -13.4255   28.1747 C   0  0  0  0  0  0  0  0  0  0  0  0
   11.0132  -13.4432   28.9980 C   0  0  0  0  0  0  0  0  0  0  0  0
   11.1691  -14.9010   29.3272 C   0  0  0  0  0  0  0  0  0  0  0  0
   10.5642  -15.6135   28.1890 C   0  0  1  0  0  0  0  0  0  0  0  0
    9.8181  -16.8411   28.5956 C   0  0  0  0  0  0  0  0  0  0  0  0
    8.5676  -16.7835   28.5928 O   0  0  0  0  0  0  0  0  0  0  0  0
   10.4245  -18.0252   28.9712 O   0  0  0  0  0  0  0  0  0  0  0  0
  2  3  1  6
  2  1  1  0
  4  2  1  0
  4  6  1  0
  4  5  1  6
  6  8  1  0
  6  7  2  0
  8 12  1  0
  9  8  1  0
  9 10  1  0
 10 11  1  0
 12 11  1  0
 12 13  1  1
 13 15  1  0
 14 13  2  0
 15 19  1  0
 15 16  1  0
 16 17  1  0
 18 17  1  0
 19 20  1  1
 19 18  1  0
 20 22  1  0
 21 20  2  0
M  END
$$$$
