VPP.pdb
     RDKit          3D

 22 23  0  0  1  0  0  0  0  0999 V2000
    9.8115  -20.2974   22.7050 C   0  0  0  0  0  0  0  0  0  0  0  0
    9.5677  -18.9221   23.2364 C   0  0  2  0  0  0  0  0  0  0  0  0
    8.0930  -18.7506   23.6264 C   0  0  0  0  0  0  0  0  0  0  0  0
    9.9635  -17.8330   22.2454 C   0  0  2  0  0  0  0  0  0  0  0  0
   11.3697  -18.0404   21.8551 N   0  0  0  0  0  0  0  0  0  0  0  0
    9.7516  -16.4883   22.8103 C   0  0  0  0  0  0  0  0  0  0  0  0
   10.6051  -16.1423   23.7111 O   0  0  0  0  0  0  0  0  0  0  0  0
    8.7257  -15.5955   22.4463 N   0  0  0  0  0  0  0  0  0  0  0  0
    7.8149  -15.7578   21.3324 C   0  0  0  0  0  0  0  0  0  0  0  0
    7.5125  -14.3366   20.8765 C   0  0  0  0  0  0  0  0  0  0  0  0
    7.5679  -13.5853   22.1676 C   0  0  0  0  0  0  0  0  0  0  0  0
    8.4246  -14.3541   23.1311 C   0  0  1  0  0  0  0  0  0  0  0  0
    7.6562  -14.5657   24.3656 C   0  0  0  0  0  0  0  0  0  0  0  0
    7.0257  -15.6160   24.6148 O   0  0  0  0  0  0  0  0  0  0  0  0
    7.6453  -13.4801   25.3317 N   0  0  0  0  0  0  0  0  0  0  0  0
    8.3473  -12.2254   25.1944 C   0  0  0  0  0  0  0  0  0  0  0  0
    8.4541  -11.6720   26.6109 C   0  0  0  0  0  0  0  0  0  0  0  0
    7.2078  -12.2014   27.2624 C   0  0  0  0  0  0  0  0  0  0  0  0
    6.9373  -13.4788   26.5814 C   0  0  1  0  0  0  0  0  0  0  0  0
    5.4817  -13.7312   26.3656 C   0  0  0  0  0  0  0  0  0  0  0  0
    5.0333  -13.5682   25.2082 O   0  0  0  0  0  0  0  0  0  0  0  0
    4.6105  -14.1305   27.3618 O   0  0  0  0  0  0  0  0  0  0  0  0
  2  3  1  6
  2  1  1  0
  4  2  1  0
  4  6  1  0
  4  5  1  1
  6  8  1  0
  6  7  2  0
  8 12  1  0
  9  8  1  0
  9 10  1  0
 10 11  1  0
 12 11  1  0
 12 13  1  1
 13 15  1  0
 14 13  2  0
 15 19  1  0
 15 16  1  0
 16 17  1  0
 18 17  1  0
 19 20  1  6
 19 18  1  0
 20 22  1  0
 21 20  2  0
M  END
$$$$
