VPP.pdb
     RDKit          3D

 22 23  0  0  1  0  0  0  0  0999 V2000
   10.4069  -15.1150   30.2345 C   0  0  0  0  0  0  0  0  0  0  0  0
    9.9089  -15.2490   28.8320 C   0  0  2  0  0  0  0  0  0  0  0  0
    9.9964  -13.9024   28.1001 C   0  0  0  0  0  0  0  0  0  0  0  0
    8.4788  -15.7737   28.7661 C   0  0  2  0  0  0  0  0  0  0  0  0
    8.4557  -17.1457   29.3044 N   0  0  0  0  0  0  0  0  0  0  0  0
    7.9494  -15.7229   27.3916 C   0  0  0  0  0  0  0  0  0  0  0  0
    7.6696  -16.8716   26.8798 O   0  0  0  0  0  0  0  0  0  0  0  0
    7.7367  -14.5550   26.6347 N   0  0  0  0  0  0  0  0  0  0  0  0
    7.9686  -13.1983   27.0843 C   0  0  0  0  0  0  0  0  0  0  0  0
    6.9220  -12.3694   26.3517 C   0  0  0  0  0  0  0  0  0  0  0  0
    6.8022  -13.1070   25.0571 C   0  0  0  0  0  0  0  0  0  0  0  0
    7.2360  -14.5275   25.2749 C   0  0  1  0  0  0  0  0  0  0  0  0
    8.2750  -14.8500   24.2871 C   0  0  0  0  0  0  0  0  0  0  0  0
    9.4898  -14.9410   24.5676 O   0  0  0  0  0  0  0  0  0  0  0  0
    7.8399  -15.0704   22.9180 N   0  0  0  0  0  0  0  0  0  0  0  0
    6.5343  -14.7514   22.3891 C   0  0  0  0  0  0  0  0  0  0  0  0
    6.3945  -15.6043   21.1333 C   0  0  0  0  0  0  0  0  0  0  0  0
    7.8132  -15.7061   20.6488 C   0  0  0  0  0  0  0  0  0  0  0  0
    8.6358  -15.6436   21.8688 C   0  0  1  0  0  0  0  0  0  0  0  0
    9.9015  -14.8737   21.6834 C   0  0  0  0  0  0  0  0  0  0  0  0
    9.9143  -13.6831   22.0698 O   0  0  0  0  0  0  0  0  0  0  0  0
   11.0479  -15.3966   21.1150 O   0  0  0  0  0  0  0  0  0  0  0  0
  2  3  1  1
  2  1  1  0
  4  2  1  0
  4  6  1  0
  4  5  1  6
  6  8  1  0
  6  7  2  0
  8 12  1  0
  9  8  1  0
  9 10  1  0
 10 11  1  0
 12 11  1  0
 12 13  1  6
 13 15  1  0
 14 13  2  0
 15 19  1  0
 15 16  1  0
 16 17  1  0
 18 17  1  0
 19 20  1  6
 19 18  1  0
 20 22  1  0
 21 20  2  0
M  END
$$$$
