VPP.pdb
     RDKit          3D

 22 23  0  0  1  0  0  0  0  0999 V2000
    9.1598  -18.5513   25.9986 C   0  0  0  0  0  0  0  0  0  0  0  0
    8.9396  -17.6932   27.2020 C   0  0  2  0  0  0  0  0  0  0  0  0
    9.3970  -18.4227   28.4728 C   0  0  0  0  0  0  0  0  0  0  0  0
    7.4849  -17.2630   27.3560 C   0  0  2  0  0  0  0  0  0  0  0  0
    6.6500  -18.4694   27.4983 N   0  0  0  0  0  0  0  0  0  0  0  0
    7.0459  -16.4322   26.2205 C   0  0  0  0  0  0  0  0  0  0  0  0
    6.2684  -17.0300   25.3852 O   0  0  0  0  0  0  0  0  0  0  0  0
    7.4019  -15.0884   25.9985 N   0  0  0  0  0  0  0  0  0  0  0  0
    8.0658  -14.2185   26.9466 C   0  0  0  0  0  0  0  0  0  0  0  0
    7.5272  -12.8292   26.6319 C   0  0  0  0  0  0  0  0  0  0  0  0
    7.3202  -12.9115   25.1538 C   0  0  0  0  0  0  0  0  0  0  0  0
    7.1465  -14.3537   24.7755 C   0  0  1  0  0  0  0  0  0  0  0  0
    8.1132  -14.6733   23.7160 C   0  0  0  0  0  0  0  0  0  0  0  0
    9.1813  -15.2903   23.9191 O   0  0  0  0  0  0  0  0  0  0  0  0
    7.7856  -14.2374   22.3688 N   0  0  0  0  0  0  0  0  0  0  0  0
    6.6321  -13.4521   21.9964 C   0  0  0  0  0  0  0  0  0  0  0  0
    6.4534  -13.6915   20.5015 C   0  0  0  0  0  0  0  0  0  0  0  0
    7.8649  -13.9128   20.0359 C   0  0  0  0  0  0  0  0  0  0  0  0
    8.5536  -14.5187   21.1881 C   0  0  1  0  0  0  0  0  0  0  0  0
    9.9604  -14.0443   21.3459 C   0  0  0  0  0  0  0  0  0  0  0  0
   10.1820  -13.1774   22.2214 O   0  0  0  0  0  0  0  0  0  0  0  0
   11.0206  -14.5038   20.5872 O   0  0  0  0  0  0  0  0  0  0  0  0
  2  3  1  1
  2  1  1  0
  4  2  1  0
  4  6  1  0
  4  5  1  6
  6  8  1  0
  6  7  2  0
  8 12  1  0
  9  8  1  0
  9 10  1  0
 10 11  1  0
 12 11  1  0
 12 13  1  6
 13 15  1  0
 14 13  2  0
 15 19  1  0
 15 16  1  0
 16 17  1  0
 18 17  1  0
 19 20  1  1
 19 18  1  0
 20 22  1  0
 21 20  2  0
M  END
$$$$
