VPP.pdb
     RDKit          3D

 22 23  0  0  1  0  0  0  0  0999 V2000
    8.3513  -19.5057   23.4219 C   0  0  0  0  0  0  0  0  0  0  0  0
    8.1292  -19.0155   24.8159 C   0  0  2  0  0  0  0  0  0  0  0  0
    8.2425  -20.1737   25.8171 C   0  0  0  0  0  0  0  0  0  0  0  0
    6.7807  -18.3244   24.9856 C   0  0  2  0  0  0  0  0  0  0  0  0
    5.7129  -19.3012   24.7057 N   0  0  0  0  0  0  0  0  0  0  0  0
    6.6703  -17.1386   24.1173 C   0  0  0  0  0  0  0  0  0  0  0  0
    5.8844  -17.2828   23.1067 O   0  0  0  0  0  0  0  0  0  0  0  0
    7.3351  -15.9128   24.3106 N   0  0  0  0  0  0  0  0  0  0  0  0
    8.1021  -15.5385   25.4803 C   0  0  0  0  0  0  0  0  0  0  0  0
    7.9153  -14.0313   25.5928 C   0  0  0  0  0  0  0  0  0  0  0  0
    7.8101  -13.6303   24.1567 C   0  0  0  0  0  0  0  0  0  0  0  0
    7.3467  -14.8167   23.3623 C   0  0  1  0  0  0  0  0  0  0  0  0
    8.2960  -15.0358   22.2622 C   0  0  0  0  0  0  0  0  0  0  0  0
    9.2030  -15.8954   22.2939 O   0  0  0  0  0  0  0  0  0  0  0  0
    8.1503  -14.1945   21.0861 N   0  0  0  0  0  0  0  0  0  0  0  0
    7.1637  -13.1539   20.9137 C   0  0  0  0  0  0  0  0  0  0  0  0
    7.0746  -12.9355   19.4076 C   0  0  0  0  0  0  0  0  0  0  0  0
    8.4699  -13.2536   18.9491 C   0  0  0  0  0  0  0  0  0  0  0  0
    8.9615  -14.2625   19.9027 C   0  0  1  0  0  0  0  0  0  0  0  0
   10.4060  -14.0947   20.2406 C   0  0  0  0  0  0  0  0  0  0  0  0
   10.6835  -13.5279   21.3217 O   0  0  0  0  0  0  0  0  0  0  0  0
   11.4433  -14.5256   19.4348 O   0  0  0  0  0  0  0  0  0  0  0  0
  2  3  1  1
  2  1  1  0
  4  2  1  0
  4  6  1  0
  4  5  1  6
  6  8  1  0
  6  7  2  0
  8 12  1  0
  9  8  1  0
  9 10  1  0
 10 11  1  0
 12 11  1  0
 12 13  1  6
 13 15  1  0
 14 13  2  0
 15 19  1  0
 15 16  1  0
 16 17  1  0
 18 17  1  0
 19 20  1  1
 19 18  1  0
 20 22  1  0
 21 20  2  0
M  END
$$$$
