VPP.pdb
     RDKit          3D

 22 23  0  0  1  0  0  0  0  0999 V2000
    8.3961  -16.6082   21.8254 C   0  0  0  0  0  0  0  0  0  0  0  0
    7.1943  -15.7204   21.8442 C   0  0  2  0  0  0  0  0  0  0  0  0
    6.3553  -15.9253   20.5751 C   0  0  0  0  0  0  0  0  0  0  0  0
    7.5575  -14.2461   21.9832 C   0  0  2  0  0  0  0  0  0  0  0  0
    8.4454  -13.8731   20.8673 N   0  0  0  0  0  0  0  0  0  0  0  0
    8.1823  -13.9663   23.2884 C   0  0  0  0  0  0  0  0  0  0  0  0
    9.4642  -13.8419   23.2559 O   0  0  0  0  0  0  0  0  0  0  0  0
    7.5022  -13.8300   24.5135 N   0  0  0  0  0  0  0  0  0  0  0  0
    6.0701  -13.9256   24.7045 C   0  0  0  0  0  0  0  0  0  0  0  0
    5.7751  -12.9783   25.8598 C   0  0  0  0  0  0  0  0  0  0  0  0
    7.0176  -13.1049   26.6811 C   0  0  0  0  0  0  0  0  0  0  0  0
    8.1360  -13.5586   25.7884 C   0  0  1  0  0  0  0  0  0  0  0  0
    8.7425  -14.7587   26.3810 C   0  0  0  0  0  0  0  0  0  0  0  0
    8.5789  -15.9114   25.9259 O   0  0  0  0  0  0  0  0  0  0  0  0
    9.5726  -14.5671   27.5585 N   0  0  0  0  0  0  0  0  0  0  0  0
    9.6733  -13.3483   28.3269 C   0  0  0  0  0  0  0  0  0  0  0  0
   10.9865  -13.4677   29.0920 C   0  0  0  0  0  0  0  0  0  0  0  0
   11.1040  -14.9501   29.3084 C   0  0  0  0  0  0  0  0  0  0  0  0
   10.4299  -15.5571   28.1482 C   0  0  1  0  0  0  0  0  0  0  0  0
    9.6578  -16.7867   28.4963 C   0  0  0  0  0  0  0  0  0  0  0  0
    8.4339  -16.6542   28.7237 O   0  0  0  0  0  0  0  0  0  0  0  0
   10.2129  -18.0499   28.5807 O   0  0  0  0  0  0  0  0  0  0  0  0
  2  3  1  6
  2  1  1  0
  4  2  1  0
  4  6  1  0
  4  5  1  6
  6  8  1  0
  6  7  2  0
  8 12  1  0
  9  8  1  0
  9 10  1  0
 10 11  1  0
 12 11  1  0
 12 13  1  1
 13 15  1  0
 14 13  2  0
 15 19  1  0
 15 16  1  0
 16 17  1  0
 18 17  1  0
 19 20  1  1
 19 18  1  0
 20 22  1  0
 21 20  2  0
M  END
$$$$
