WTF.pdb
     RDKit          3D

 33 35  0  0  1  0  0  0  0  0999 V2000
    7.4556  -18.4079   21.1021 N   0  0  0  0  0  0  0  0  0  0  0  0
    8.0178  -17.5152   22.1047 C   0  0  1  0  0  0  0  0  0  0  0  0
    7.0681  -17.1809   23.1980 C   0  0  0  0  0  0  0  0  0  0  0  0
    6.8321  -15.7557   23.4271 C   0  0  0  0  0  0  0  0  0  0  0  0
    6.2507  -15.1676   24.5269 C   0  0  0  0  0  0  0  0  0  0  0  0
    6.2449  -13.8525   24.2942 N   0  0  0  0  0  0  0  0  0  0  0  0
    6.7862  -13.5628   23.1143 C   0  0  0  0  0  0  0  0  0  0  0  0
    7.0186  -12.3884   22.4113 C   0  0  0  0  0  0  0  0  0  0  0  0
    7.6160  -12.4008   21.1702 C   0  0  0  0  0  0  0  0  0  0  0  0
    8.0057  -13.5859   20.5803 C   0  0  0  0  0  0  0  0  0  0  0  0
    7.7748  -14.7509   21.2784 C   0  0  0  0  0  0  0  0  0  0  0  0
    7.1768  -14.7528   22.5233 C   0  0  0  0  0  0  0  0  0  0  0  0
    9.3260  -18.0428   22.5551 C   0  0  0  0  0  0  0  0  0  0  0  0
    9.7197  -19.1960   22.2451 O   0  0  0  0  0  0  0  0  0  0  0  0
   13.8814  -17.3926   23.0693 C   0  0  0  0  0  0  0  0  0  0  0  0
   12.4665  -16.9369   22.7434 C   0  0  1  0  0  0  0  0  0  0  0  0
   12.2250  -17.2242   21.4184 O   0  0  0  0  0  0  0  0  0  0  0  0
   11.5421  -17.6475   23.6891 C   0  0  2  0  0  0  0  0  0  0  0  0
   10.1870  -17.2481   23.3630 N   0  0  0  0  0  0  0  0  0  0  0  0
   11.8337  -17.4003   25.1038 C   0  0  0  0  0  0  0  0  0  0  0  0
   12.9648  -17.6880   25.5552 O   0  0  0  0  0  0  0  0  0  0  0  0
   10.8432  -16.8396   25.9558 N   0  0  0  0  0  0  0  0  0  0  0  0
   10.9662  -16.9940   27.3866 C   0  0  1  0  0  0  0  0  0  0  0  0
    9.8154  -16.3117   28.1069 C   0  0  0  0  0  0  0  0  0  0  0  0
    9.7174  -14.8951   27.6970 C   0  0  0  0  0  0  0  0  0  0  0  0
    8.6970  -14.5195   26.8535 C   0  0  0  0  0  0  0  0  0  0  0  0
    8.5307  -13.2068   26.4185 C   0  0  0  0  0  0  0  0  0  0  0  0
    9.4364  -12.2786   26.8671 C   0  0  0  0  0  0  0  0  0  0  0  0
   10.4690  -12.6332   27.7145 C   0  0  0  0  0  0  0  0  0  0  0  0
   10.6105  -13.9350   28.1286 C   0  0  0  0  0  0  0  0  0  0  0  0
   10.9639  -18.4326   27.7224 C   0  0  0  0  0  0  0  0  0  0  0  0
   10.3919  -19.2326   26.9433 O   0  0  0  0  0  0  0  0  0  0  0  0
   11.5735  -18.9315   28.8716 O   0  0  0  0  0  0  0  0  0  0  0  0
  2  1  1  6
  2  3  1  0
  4  3  1  0
  5  4  2  0
  6  7  1  0
  6  5  1  0
  7 12  2  0
  8  9  2  0
  8  7  1  0
  9 10  1  0
 10 11  2  0
 12 11  1  0
 12  4  1  0
 13  2  1  0
 13 14  2  0
 16 15  1  1
 16 17  1  0
 16 18  1  0
 18 19  1  6
 19 13  1  0
 20 18  1  0
 21 20  2  0
 22 20  1  0
 23 22  1  0
 23 24  1  1
 24 25  1  0
 25 26  2  0
 26 27  1  0
 28 27  2  0
 29 28  1  0
 30 29  2  0
 30 25  1  0
 31 23  1  0
 32 31  2  0
 33 31  1  0
M  END
$$$$
