WTF.pdb
     RDKit          3D

 33 35  0  0  1  0  0  0  0  0999 V2000
    6.0929  -18.0210   24.7135 N   0  0  0  0  0  0  0  0  0  0  0  0
    7.1226  -17.0018   24.5745 C   0  0  1  0  0  0  0  0  0  0  0  0
    7.3235  -16.1927   25.8049 C   0  0  0  0  0  0  0  0  0  0  0  0
    6.5109  -14.9814   25.9140 C   0  0  0  0  0  0  0  0  0  0  0  0
    5.3817  -14.7946   26.6779 C   0  0  0  0  0  0  0  0  0  0  0  0
    4.9809  -13.5392   26.4603 N   0  0  0  0  0  0  0  0  0  0  0  0
    5.7833  -12.9117   25.6050 C   0  0  0  0  0  0  0  0  0  0  0  0
    5.8159  -11.6368   25.0563 C   0  0  0  0  0  0  0  0  0  0  0  0
    6.8005  -11.2620   24.1688 C   0  0  0  0  0  0  0  0  0  0  0  0
    7.7925  -12.1446   23.7930 C   0  0  0  0  0  0  0  0  0  0  0  0
    7.7597  -13.4094   24.3378 C   0  0  0  0  0  0  0  0  0  0  0  0
    6.7784  -13.7982   25.2286 C   0  0  0  0  0  0  0  0  0  0  0  0
    8.3524  -17.6166   24.0250 C   0  0  0  0  0  0  0  0  0  0  0  0
    8.6951  -18.7910   24.3155 O   0  0  0  0  0  0  0  0  0  0  0  0
    9.5556  -17.9724   20.6266 C   0  0  0  0  0  0  0  0  0  0  0  0
   10.6627  -17.1619   21.2849 C   0  0  1  0  0  0  0  0  0  0  0  0
   10.5323  -15.8549   20.8709 O   0  0  0  0  0  0  0  0  0  0  0  0
   10.5198  -17.3379   22.7689 C   0  0  2  0  0  0  0  0  0  0  0  0
    9.1934  -16.8853   23.1399 N   0  0  0  0  0  0  0  0  0  0  0  0
   11.5466  -16.6445   23.5514 C   0  0  0  0  0  0  0  0  0  0  0  0
   11.7662  -15.4317   23.3353 O   0  0  0  0  0  0  0  0  0  0  0  0
   12.2863  -17.3408   24.5461 N   0  0  0  0  0  0  0  0  0  0  0  0
   13.3968  -16.6845   25.1959 C   0  0  1  0  0  0  0  0  0  0  0  0
   13.3203  -16.8535   26.7038 C   0  0  0  0  0  0  0  0  0  0  0  0
   12.2850  -15.9642   27.2708 C   0  0  0  0  0  0  0  0  0  0  0  0
   11.6056  -16.3726   28.3957 C   0  0  0  0  0  0  0  0  0  0  0  0
   10.6160  -15.5971   28.9951 C   0  0  0  0  0  0  0  0  0  0  0  0
   10.3328  -14.3857   28.4161 C   0  0  0  0  0  0  0  0  0  0  0  0
   11.0023  -13.9552   27.2863 C   0  0  0  0  0  0  0  0  0  0  0  0
   11.9743  -14.7395   26.7148 C   0  0  0  0  0  0  0  0  0  0  0  0
   14.6617  -17.2696   24.7057 C   0  0  0  0  0  0  0  0  0  0  0  0
   14.6105  -18.2763   23.9586 O   0  0  0  0  0  0  0  0  0  0  0  0
   15.9071  -16.7440   25.0432 O   0  0  0  0  0  0  0  0  0  0  0  0
  2  1  1  1
  2  3  1  0
  4  3  1  0
  5  4  2  0
  6  7  1  0
  6  5  1  0
  7 12  2  0
  8  9  2  0
  8  7  1  0
  9 10  1  0
 10 11  2  0
 12 11  1  0
 12  4  1  0
 13  2  1  0
 13 14  2  0
 16 15  1  6
 16 17  1  0
 16 18  1  0
 18 19  1  1
 19 13  1  0
 20 18  1  0
 21 20  2  0
 22 20  1  0
 23 22  1  0
 23 24  1  1
 24 25  1  0
 25 26  2  0
 26 27  1  0
 28 27  2  0
 29 28  1  0
 30 29  2  0
 30 25  1  0
 31 23  1  0
 32 31  2  0
 33 31  1  0
M  END
$$$$
