WTF.pdb
     RDKit          3D

 33 35  0  0  1  0  0  0  0  0999 V2000
    5.7862  -17.2125   21.7673 N   0  0  0  0  0  0  0  0  0  0  0  0
    6.9506  -16.5111   22.2876 C   0  0  1  0  0  0  0  0  0  0  0  0
    6.8356  -15.0316   22.2043 C   0  0  0  0  0  0  0  0  0  0  0  0
    6.9571  -14.4548   20.8658 C   0  0  0  0  0  0  0  0  0  0  0  0
    5.9721  -14.3305   19.9131 C   0  0  0  0  0  0  0  0  0  0  0  0
    6.5411  -13.7495   18.8536 N   0  0  0  0  0  0  0  0  0  0  0  0
    7.8286  -13.4945   19.0694 C   0  0  0  0  0  0  0  0  0  0  0  0
    8.8466  -12.9202   18.3202 C   0  0  0  0  0  0  0  0  0  0  0  0
   10.1213  -12.7859   18.8246 C   0  0  0  0  0  0  0  0  0  0  0  0
   10.4318  -13.2195   20.0973 C   0  0  0  0  0  0  0  0  0  0  0  0
    9.4212  -13.7893   20.8403 C   0  0  0  0  0  0  0  0  0  0  0  0
    8.1389  -13.9299   20.3468 C   0  0  0  0  0  0  0  0  0  0  0  0
    7.2809  -17.0359   23.6322 C   0  0  0  0  0  0  0  0  0  0  0  0
    6.3901  -17.3035   24.4783 O   0  0  0  0  0  0  0  0  0  0  0  0
   10.0238  -19.6426   26.4854 C   0  0  0  0  0  0  0  0  0  0  0  0
    9.6955  -19.0852   25.1080 C   0  0  1  0  0  0  0  0  0  0  0  0
    8.9170  -20.0125   24.4517 O   0  0  0  0  0  0  0  0  0  0  0  0
    9.0101  -17.7656   25.3146 C   0  0  2  0  0  0  0  0  0  0  0  0
    8.6353  -17.2556   24.0102 N   0  0  0  0  0  0  0  0  0  0  0  0
    9.8162  -16.7852   26.0472 C   0  0  0  0  0  0  0  0  0  0  0  0
   10.8338  -16.3005   25.5038 O   0  0  0  0  0  0  0  0  0  0  0  0
    9.4474  -16.3879   27.3615 N   0  0  0  0  0  0  0  0  0  0  0  0
   10.2627  -15.4286   28.0694 C   0  0  1  0  0  0  0  0  0  0  0  0
    9.4001  -14.4783   28.8825 C   0  0  0  0  0  0  0  0  0  0  0  0
    8.3532  -13.8752   28.0312 C   0  0  0  0  0  0  0  0  0  0  0  0
    8.7362  -13.1034   26.9582 C   0  0  0  0  0  0  0  0  0  0  0  0
    7.8161  -12.4987   26.1051 C   0  0  0  0  0  0  0  0  0  0  0  0
    6.4857  -12.7009   26.3737 C   0  0  0  0  0  0  0  0  0  0  0  0
    6.0781  -13.4721   27.4457 C   0  0  0  0  0  0  0  0  0  0  0  0
    7.0061  -14.0574   28.2718 C   0  0  0  0  0  0  0  0  0  0  0  0
   11.1812  -16.1467   28.9766 C   0  0  0  0  0  0  0  0  0  0  0  0
   10.9820  -17.3661   29.1947 O   0  0  0  0  0  0  0  0  0  0  0  0
   12.2590  -15.5188   29.5975 O   0  0  0  0  0  0  0  0  0  0  0  0
  2  1  1  1
  2  3  1  0
  4  3  1  0
  5  4  2  0
  6  7  1  0
  6  5  1  0
  7 12  2  0
  8  9  2  0
  8  7  1  0
  9 10  1  0
 10 11  2  0
 12 11  1  0
 12  4  1  0
 13  2  1  0
 13 14  2  0
 16 15  1  1
 16 17  1  0
 16 18  1  0
 18 19  1  6
 19 13  1  0
 20 18  1  0
 21 20  2  0
 22 20  1  0
 23 22  1  0
 23 24  1  1
 24 25  1  0
 25 26  2  0
 26 27  1  0
 28 27  2  0
 29 28  1  0
 30 29  2  0
 30 25  1  0
 31 23  1  0
 32 31  2  0
 33 31  1  0
M  END
$$$$
