WTF.pdb
     RDKit          3D

 33 35  0  0  1  0  0  0  0  0999 V2000
    6.4087  -17.2075   24.0661 N   0  0  0  0  0  0  0  0  0  0  0  0
    7.6200  -16.4041   23.9902 C   0  0  1  0  0  0  0  0  0  0  0  0
    7.8584  -15.5777   25.2023 C   0  0  0  0  0  0  0  0  0  0  0  0
    6.8004  -14.6287   25.5479 C   0  0  0  0  0  0  0  0  0  0  0  0
    5.6719  -14.8669   26.2983 C   0  0  0  0  0  0  0  0  0  0  0  0
    4.9998  -13.7138   26.3478 N   0  0  0  0  0  0  0  0  0  0  0  0
    5.6281  -12.7531   25.6759 C   0  0  0  0  0  0  0  0  0  0  0  0
    5.3683  -11.4134   25.4204 C   0  0  0  0  0  0  0  0  0  0  0  0
    6.2295  -10.6459   24.6677 C   0  0  0  0  0  0  0  0  0  0  0  0
    7.3850  -11.1844   24.1394 C   0  0  0  0  0  0  0  0  0  0  0  0
    7.6423  -12.5137   24.3933 C   0  0  0  0  0  0  0  0  0  0  0  0
    6.7874  -13.2946   25.1463 C   0  0  0  0  0  0  0  0  0  0  0  0
    8.7564  -17.2643   23.5889 C   0  0  0  0  0  0  0  0  0  0  0  0
    8.8447  -18.4633   23.9570 O   0  0  0  0  0  0  0  0  0  0  0  0
   10.8713  -16.9427   20.3474 C   0  0  0  0  0  0  0  0  0  0  0  0
   11.8283  -16.7900   21.5207 C   0  0  1  0  0  0  0  0  0  0  0  0
   12.1666  -15.4587   21.6191 O   0  0  0  0  0  0  0  0  0  0  0  0
   11.1280  -17.3223   22.7372 C   0  0  2  0  0  0  0  0  0  0  0  0
    9.7958  -16.7509   22.7632 N   0  0  0  0  0  0  0  0  0  0  0  0
   11.8348  -17.0577   23.9935 C   0  0  0  0  0  0  0  0  0  0  0  0
   11.9309  -15.8801   24.4058 O   0  0  0  0  0  0  0  0  0  0  0  0
   12.4057  -18.1265   24.7372 N   0  0  0  0  0  0  0  0  0  0  0  0
   13.0268  -17.8531   26.0122 C   0  0  1  0  0  0  0  0  0  0  0  0
   12.0478  -18.0780   27.1521 C   0  0  0  0  0  0  0  0  0  0  0  0
   11.3161  -16.8307   27.4576 C   0  0  0  0  0  0  0  0  0  0  0  0
   11.9013  -15.9084   28.2946 C   0  0  0  0  0  0  0  0  0  0  0  0
   11.2825  -14.7077   28.6344 C   0  0  0  0  0  0  0  0  0  0  0  0
   10.0431  -14.4675   28.0967 C   0  0  0  0  0  0  0  0  0  0  0  0
    9.4363  -15.3794   27.2539 C   0  0  0  0  0  0  0  0  0  0  0  0
   10.0684  -16.5562   26.9346 C   0  0  0  0  0  0  0  0  0  0  0  0
   14.1898  -18.7470   26.1881 C   0  0  0  0  0  0  0  0  0  0  0  0
   14.9189  -18.5960   27.1980 O   0  0  0  0  0  0  0  0  0  0  0  0
   14.5049  -19.7500   25.2738 O   0  0  0  0  0  0  0  0  0  0  0  0
  2  1  1  1
  2  3  1  0
  4  3  1  0
  5  4  2  0
  6  7  1  0
  6  5  1  0
  7 12  2  0
  8  9  2  0
  8  7  1  0
  9 10  1  0
 10 11  2  0
 12 11  1  0
 12  4  1  0
 13  2  1  0
 13 14  2  0
 16 15  1  6
 16 17  1  0
 16 18  1  0
 18 19  1  1
 19 13  1  0
 20 18  1  0
 21 20  2  0
 22 20  1  0
 23 22  1  0
 23 24  1  1
 24 25  1  0
 25 26  2  0
 26 27  1  0
 28 27  2  0
 29 28  1  0
 30 29  2  0
 30 25  1  0
 31 23  1  0
 32 31  2  0
 33 31  1  0
M  END
$$$$
