WTF.pdb
     RDKit          3D

 33 35  0  0  1  0  0  0  0  0999 V2000
    6.5149  -17.4700   22.9949 N   0  0  0  0  0  0  0  0  0  0  0  0
    7.6337  -16.6222   22.6100 C   0  0  1  0  0  0  0  0  0  0  0  0
    7.3977  -15.1779   22.8693 C   0  0  0  0  0  0  0  0  0  0  0  0
    6.8418  -14.8457   24.1807 C   0  0  0  0  0  0  0  0  0  0  0  0
    6.3668  -15.7153   25.1355 C   0  0  0  0  0  0  0  0  0  0  0  0
    5.9605  -14.9647   26.1627 N   0  0  0  0  0  0  0  0  0  0  0  0
    6.1461  -13.6693   25.9245 C   0  0  0  0  0  0  0  0  0  0  0  0
    5.9036  -12.5032   26.6380 C   0  0  0  0  0  0  0  0  0  0  0  0
    6.2101  -11.2656   26.1166 C   0  0  0  0  0  0  0  0  0  0  0  0
    6.7710  -11.1416   24.8619 C   0  0  0  0  0  0  0  0  0  0  0  0
    7.0113  -12.2990   24.1545 C   0  0  0  0  0  0  0  0  0  0  0  0
    6.7089  -13.5461   24.6652 C   0  0  0  0  0  0  0  0  0  0  0  0
    8.8836  -17.1637   23.1906 C   0  0  0  0  0  0  0  0  0  0  0  0
    8.8725  -17.9976   24.1315 O   0  0  0  0  0  0  0  0  0  0  0  0
   11.7381  -17.5407   20.6612 C   0  0  0  0  0  0  0  0  0  0  0  0
   12.3895  -17.1416   21.9773 C   0  0  1  0  0  0  0  0  0  0  0  0
   12.7619  -15.8193   21.8802 O   0  0  0  0  0  0  0  0  0  0  0  0
   11.3895  -17.4046   23.0657 C   0  0  2  0  0  0  0  0  0  0  0  0
   10.1510  -16.7497   22.6927 N   0  0  0  0  0  0  0  0  0  0  0  0
   11.8298  -16.9720   24.3948 C   0  0  0  0  0  0  0  0  0  0  0  0
   12.0828  -15.7626   24.5926 O   0  0  0  0  0  0  0  0  0  0  0  0
   11.9684  -17.9152   25.4496 N   0  0  0  0  0  0  0  0  0  0  0  0
   12.5819  -17.5073   26.6920 C   0  0  1  0  0  0  0  0  0  0  0  0
   11.5664  -17.5004   27.8221 C   0  0  0  0  0  0  0  0  0  0  0  0
   10.8029  -16.2349   27.8221 C   0  0  0  0  0  0  0  0  0  0  0  0
   11.2887  -15.1691   28.5444 C   0  0  0  0  0  0  0  0  0  0  0  0
   10.6335  -13.9411   28.5986 C   0  0  0  0  0  0  0  0  0  0  0  0
    9.4621  -13.8243   27.8935 C   0  0  0  0  0  0  0  0  0  0  0  0
    8.9555  -14.8814   27.1614 C   0  0  0  0  0  0  0  0  0  0  0  0
    9.6215  -16.0820   27.1246 C   0  0  0  0  0  0  0  0  0  0  0  0
   13.6733  -18.4451   27.0262 C   0  0  0  0  0  0  0  0  0  0  0  0
   14.3636  -18.2262   28.0508 O   0  0  0  0  0  0  0  0  0  0  0  0
   13.9627  -19.5620   26.2452 O   0  0  0  0  0  0  0  0  0  0  0  0
  2  1  1  1
  2  3  1  0
  4  3  1  0
  5  4  2  0
  6  7  1  0
  6  5  1  0
  7 12  2  0
  8  9  2  0
  8  7  1  0
  9 10  1  0
 10 11  2  0
 12 11  1  0
 12  4  1  0
 13  2  1  0
 13 14  2  0
 16 15  1  6
 16 17  1  0
 16 18  1  0
 18 19  1  6
 19 13  1  0
 20 18  1  0
 21 20  2  0
 22 20  1  0
 23 22  1  0
 23 24  1  1
 24 25  1  0
 25 26  2  0
 26 27  1  0
 28 27  2  0
 29 28  1  0
 30 29  2  0
 30 25  1  0
 31 23  1  0
 32 31  2  0
 33 31  1  0
M  END
$$$$
