WTF.pdb
     RDKit          3D

 33 35  0  0  1  0  0  0  0  0999 V2000
    8.0042  -17.0290   21.0810 N   0  0  0  0  0  0  0  0  0  0  0  0
    8.5537  -16.3929   22.2692 C   0  0  1  0  0  0  0  0  0  0  0  0
    7.5261  -15.7296   23.1136 C   0  0  0  0  0  0  0  0  0  0  0  0
    7.2327  -14.3344   22.7868 C   0  0  0  0  0  0  0  0  0  0  0  0
    7.2181  -13.7496   21.5414 C   0  0  0  0  0  0  0  0  0  0  0  0
    6.9021  -12.4656   21.7297 N   0  0  0  0  0  0  0  0  0  0  0  0
    6.7138  -12.1929   23.0179 C   0  0  0  0  0  0  0  0  0  0  0  0
    6.3799  -11.0507   23.7329 C   0  0  0  0  0  0  0  0  0  0  0  0
    6.2523  -11.0738   25.1043 C   0  0  0  0  0  0  0  0  0  0  0  0
    6.4530  -12.2379   25.8176 C   0  0  0  0  0  0  0  0  0  0  0  0
    6.7843  -13.3709   25.1075 C   0  0  0  0  0  0  0  0  0  0  0  0
    6.9154  -13.3618   23.7327 C   0  0  0  0  0  0  0  0  0  0  0  0
    9.4225  -17.3549   22.9851 C   0  0  0  0  0  0  0  0  0  0  0  0
    9.0305  -18.5128   23.2792 O   0  0  0  0  0  0  0  0  0  0  0  0
   13.7795  -19.0418   23.9139 C   0  0  0  0  0  0  0  0  0  0  0  0
   12.9274  -17.9430   23.2956 C   0  0  1  0  0  0  0  0  0  0  0  0
   12.7656  -18.2354   21.9596 O   0  0  0  0  0  0  0  0  0  0  0  0
   11.6363  -17.8987   24.0604 C   0  0  2  0  0  0  0  0  0  0  0  0
   10.7446  -16.9907   23.3658 N   0  0  0  0  0  0  0  0  0  0  0  0
   11.7900  -17.5082   25.4644 C   0  0  0  0  0  0  0  0  0  0  0  0
   12.4609  -16.4904   25.7471 O   0  0  0  0  0  0  0  0  0  0  0  0
   11.1840  -18.2765   26.4959 N   0  0  0  0  0  0  0  0  0  0  0  0
   11.5559  -18.0391   27.8712 C   0  0  1  0  0  0  0  0  0  0  0  0
   10.3708  -17.5290   28.6735 C   0  0  0  0  0  0  0  0  0  0  0  0
   10.1427  -16.0943   28.4016 C   0  0  0  0  0  0  0  0  0  0  0  0
   10.9590  -15.1678   29.0090 C   0  0  0  0  0  0  0  0  0  0  0  0
   10.8142  -13.7971   28.8080 C   0  0  0  0  0  0  0  0  0  0  0  0
    9.8096  -13.3899   27.9666 C   0  0  0  0  0  0  0  0  0  0  0  0
    8.9779  -14.3026   27.3459 C   0  0  0  0  0  0  0  0  0  0  0  0
    9.1421  -15.6491   27.5612 C   0  0  0  0  0  0  0  0  0  0  0  0
   12.0395  -19.3006   28.4688 C   0  0  0  0  0  0  0  0  0  0  0  0
   12.4771  -19.2818   29.6445 O   0  0  0  0  0  0  0  0  0  0  0  0
   12.0268  -20.5083   27.7741 O   0  0  0  0  0  0  0  0  0  0  0  0
  2  1  1  6
  2  3  1  0
  4  3  1  0
  5  4  2  0
  6  7  1  0
  6  5  1  0
  7 12  2  0
  8  9  2  0
  8  7  1  0
  9 10  1  0
 10 11  2  0
 12 11  1  0
 12  4  1  0
 13  2  1  0
 13 14  2  0
 16 15  1  1
 16 17  1  0
 16 18  1  0
 18 19  1  6
 19 13  1  0
 20 18  1  0
 21 20  2  0
 22 20  1  0
 23 22  1  0
 23 24  1  1
 24 25  1  0
 25 26  2  0
 26 27  1  0
 28 27  2  0
 29 28  1  0
 30 29  2  0
 30 25  1  0
 31 23  1  0
 32 31  2  0
 33 31  1  0
M  END
$$$$
