WTF.pdb
     RDKit          3D

 33 35  0  0  1  0  0  0  0  0999 V2000
    4.9967  -20.2038   22.8642 N   0  0  0  0  0  0  0  0  0  0  0  0
    5.9755  -19.3890   23.5689 C   0  0  1  0  0  0  0  0  0  0  0  0
    6.9987  -20.1880   24.2926 C   0  0  0  0  0  0  0  0  0  0  0  0
    6.8608  -20.2366   25.7479 C   0  0  0  0  0  0  0  0  0  0  0  0
    6.1091  -21.1180   26.4905 C   0  0  0  0  0  0  0  0  0  0  0  0
    6.2869  -20.7820   27.7708 N   0  0  0  0  0  0  0  0  0  0  0  0
    7.1054  -19.7407   27.8933 C   0  0  0  0  0  0  0  0  0  0  0  0
    7.6058  -19.0162   28.9667 C   0  0  0  0  0  0  0  0  0  0  0  0
    8.4623  -17.9539   28.7791 C   0  0  0  0  0  0  0  0  0  0  0  0
    8.8541  -17.5715   27.5124 C   0  0  0  0  0  0  0  0  0  0  0  0
    8.3573  -18.2908   26.4477 C   0  0  0  0  0  0  0  0  0  0  0  0
    7.4979  -19.3580   26.6217 C   0  0  0  0  0  0  0  0  0  0  0  0
    6.5206  -18.3671   22.6463 C   0  0  0  0  0  0  0  0  0  0  0  0
    6.2652  -18.3795   21.4152 O   0  0  0  0  0  0  0  0  0  0  0  0
    7.0709  -14.2467   21.0981 C   0  0  0  0  0  0  0  0  0  0  0  0
    6.5912  -15.5071   21.8029 C   0  0  1  0  0  0  0  0  0  0  0  0
    5.8484  -16.2379   20.9023 O   0  0  0  0  0  0  0  0  0  0  0  0
    7.8098  -16.2290   22.3005 C   0  0  2  0  0  0  0  0  0  0  0  0
    7.3609  -17.3271   23.1340 N   0  0  0  0  0  0  0  0  0  0  0  0
    8.7527  -15.3735   23.0262 C   0  0  0  0  0  0  0  0  0  0  0  0
    9.3368  -14.4505   22.4157 O   0  0  0  0  0  0  0  0  0  0  0  0
    9.0023  -15.5885   24.4092 N   0  0  0  0  0  0  0  0  0  0  0  0
   10.1052  -14.9079   25.0468 C   0  0  1  0  0  0  0  0  0  0  0  0
    9.6957  -14.3659   26.4059 C   0  0  0  0  0  0  0  0  0  0  0  0
    8.4685  -13.5508   26.2880 C   0  0  0  0  0  0  0  0  0  0  0  0
    8.0377  -13.1810   25.0344 C   0  0  0  0  0  0  0  0  0  0  0  0
    6.8924  -12.4144   24.8327 C   0  0  0  0  0  0  0  0  0  0  0  0
    6.1908  -12.0307   25.9479 C   0  0  0  0  0  0  0  0  0  0  0  0
    6.6048  -12.3906   27.2164 C   0  0  0  0  0  0  0  0  0  0  0  0
    7.7382  -13.1471   27.3877 C   0  0  0  0  0  0  0  0  0  0  0  0
   11.2261  -15.8544   25.2196 C   0  0  0  0  0  0  0  0  0  0  0  0
   11.0403  -17.0650   24.9475 O   0  0  0  0  0  0  0  0  0  0  0  0
   12.4802  -15.4509   25.6733 O   0  0  0  0  0  0  0  0  0  0  0  0
  2  1  1  6
  2  3  1  0
  4  3  1  0
  5  4  2  0
  6  7  1  0
  6  5  1  0
  7 12  2  0
  8  9  2  0
  8  7  1  0
  9 10  1  0
 10 11  2  0
 12 11  1  0
 12  4  1  0
 13  2  1  0
 13 14  2  0
 16 15  1  6
 16 17  1  0
 16 18  1  0
 18 19  1  1
 19 13  1  0
 20 18  1  0
 21 20  2  0
 22 20  1  0
 23 22  1  0
 23 24  1  1
 24 25  1  0
 25 26  2  0
 26 27  1  0
 28 27  2  0
 29 28  1  0
 30 29  2  0
 30 25  1  0
 31 23  1  0
 32 31  2  0
 33 31  1  0
M  END
$$$$
