WTF.pdb
     RDKit          3D

 33 35  0  0  1  0  0  0  0  0999 V2000
    7.1245  -17.8005   20.7932 N   0  0  0  0  0  0  0  0  0  0  0  0
    7.9456  -16.8459   21.5232 C   0  0  1  0  0  0  0  0  0  0  0  0
    7.2802  -15.5339   21.7348 C   0  0  0  0  0  0  0  0  0  0  0  0
    7.2454  -14.6401   20.5775 C   0  0  0  0  0  0  0  0  0  0  0  0
    6.2424  -14.5151   19.6438 C   0  0  0  0  0  0  0  0  0  0  0  0
    6.6469  -13.5840   18.7759 N   0  0  0  0  0  0  0  0  0  0  0  0
    7.8460  -13.1058   19.0964 C   0  0  0  0  0  0  0  0  0  0  0  0
    8.6943  -12.1547   18.5456 C   0  0  0  0  0  0  0  0  0  0  0  0
    9.9132  -11.8628   19.1170 C   0  0  0  0  0  0  0  0  0  0  0  0
   10.3349  -12.5084   20.2614 C   0  0  0  0  0  0  0  0  0  0  0  0
    9.4927  -13.4520   20.8075 C   0  0  0  0  0  0  0  0  0  0  0  0
    8.2681  -13.7543   20.2448 C   0  0  0  0  0  0  0  0  0  0  0  0
    8.4680  -17.4853   22.7524 C   0  0  0  0  0  0  0  0  0  0  0  0
    7.7306  -18.1598   23.5154 O   0  0  0  0  0  0  0  0  0  0  0  0
   11.9205  -19.3357   25.4526 C   0  0  0  0  0  0  0  0  0  0  0  0
   11.4245  -18.8248   24.1077 C   0  0  1  0  0  0  0  0  0  0  0  0
   10.9714  -19.9067   23.3860 O   0  0  0  0  0  0  0  0  0  0  0  0
   10.3616  -17.8017   24.3856 C   0  0  2  0  0  0  0  0  0  0  0  0
    9.8392  -17.3525   23.1099 N   0  0  0  0  0  0  0  0  0  0  0  0
   10.8240  -16.6673   25.1898 C   0  0  0  0  0  0  0  0  0  0  0  0
   11.7026  -15.9061   24.7267 O   0  0  0  0  0  0  0  0  0  0  0  0
   10.2810  -16.4325   26.4827 N   0  0  0  0  0  0  0  0  0  0  0  0
   11.0048  -15.6030   27.4177 C   0  0  1  0  0  0  0  0  0  0  0  0
   10.7994  -14.1298   27.1080 C   0  0  0  0  0  0  0  0  0  0  0  0
    9.3597  -13.8285   26.9644 C   0  0  0  0  0  0  0  0  0  0  0  0
    8.6784  -14.3510   25.8890 C   0  0  0  0  0  0  0  0  0  0  0  0
    7.3216  -14.1178   25.6777 C   0  0  0  0  0  0  0  0  0  0  0  0
    6.6703  -13.3329   26.5958 C   0  0  0  0  0  0  0  0  0  0  0  0
    7.3344  -12.7976   27.6833 C   0  0  0  0  0  0  0  0  0  0  0  0
    8.6729  -13.0431   27.8684 C   0  0  0  0  0  0  0  0  0  0  0  0
   10.5259  -15.8823   28.7871 C   0  0  0  0  0  0  0  0  0  0  0  0
   10.9634  -15.1836   29.7329 O   0  0  0  0  0  0  0  0  0  0  0  0
    9.6072  -16.8922   29.0648 O   0  0  0  0  0  0  0  0  0  0  0  0
  2  1  1  1
  2  3  1  0
  4  3  1  0
  5  4  2  0
  6  7  1  0
  6  5  1  0
  7 12  2  0
  8  9  2  0
  8  7  1  0
  9 10  1  0
 10 11  2  0
 12 11  1  0
 12  4  1  0
 13  2  1  0
 13 14  2  0
 16 15  1  1
 16 17  1  0
 16 18  1  0
 18 19  1  6
 19 13  1  0
 20 18  1  0
 21 20  2  0
 22 20  1  0
 23 22  1  0
 23 24  1  6
 24 25  1  0
 25 26  2  0
 26 27  1  0
 28 27  2  0
 29 28  1  0
 30 29  2  0
 30 25  1  0
 31 23  1  0
 32 31  2  0
 33 31  1  0
M  END
$$$$
