WTF.pdb
     RDKit          3D

 33 35  0  0  1  0  0  0  0  0999 V2000
    9.1733  -17.8258   20.2937 N   0  0  0  0  0  0  0  0  0  0  0  0
    8.8067  -16.9656   21.4091 C   0  0  1  0  0  0  0  0  0  0  0  0
    7.4499  -16.3733   21.2780 C   0  0  0  0  0  0  0  0  0  0  0  0
    7.2857  -15.3783   20.2185 C   0  0  0  0  0  0  0  0  0  0  0  0
    6.8007  -15.5793   18.9466 C   0  0  0  0  0  0  0  0  0  0  0  0
    6.8347  -14.3917   18.3364 N   0  0  0  0  0  0  0  0  0  0  0  0
    7.3113  -13.4439   19.1387 C   0  0  0  0  0  0  0  0  0  0  0  0
    7.5478  -12.0825   19.0045 C   0  0  0  0  0  0  0  0  0  0  0  0
    8.0644  -11.3378   20.0419 C   0  0  0  0  0  0  0  0  0  0  0  0
    8.3660  -11.9218   21.2552 C   0  0  0  0  0  0  0  0  0  0  0  0
    8.1311  -13.2728   21.3877 C   0  0  0  0  0  0  0  0  0  0  0  0
    7.6136  -14.0311   20.3559 C   0  0  0  0  0  0  0  0  0  0  0  0
    9.0551  -17.6788   22.6827 C   0  0  0  0  0  0  0  0  0  0  0  0
    8.7761  -18.8962   22.8279 O   0  0  0  0  0  0  0  0  0  0  0  0
   10.5719  -19.6595   23.5780 C   0  0  0  0  0  0  0  0  0  0  0  0
   11.2362  -18.6179   24.4665 C   0  0  1  0  0  0  0  0  0  0  0  0
   12.2092  -17.9875   23.7233 O   0  0  0  0  0  0  0  0  0  0  0  0
   10.1572  -17.6927   24.9495 C   0  0  2  0  0  0  0  0  0  0  0  0
    9.6248  -16.9968   23.7944 N   0  0  0  0  0  0  0  0  0  0  0  0
   10.6025  -16.7427   25.9727 C   0  0  0  0  0  0  0  0  0  0  0  0
   11.5263  -15.9424   25.7046 O   0  0  0  0  0  0  0  0  0  0  0  0
    9.9924  -16.7292   27.2568 N   0  0  0  0  0  0  0  0  0  0  0  0
   10.4665  -15.8038   28.2594 C   0  0  1  0  0  0  0  0  0  0  0  0
    9.3100  -15.0441   28.8869 C   0  0  0  0  0  0  0  0  0  0  0  0
    8.5054  -14.3750   27.8433 C   0  0  0  0  0  0  0  0  0  0  0  0
    8.8610  -13.1065   27.4455 C   0  0  0  0  0  0  0  0  0  0  0  0
    8.1587  -12.4041   26.4690 C   0  0  0  0  0  0  0  0  0  0  0  0
    7.0767  -13.0303   25.9030 C   0  0  0  0  0  0  0  0  0  0  0  0
    6.7014  -14.3038   26.2870 C   0  0  0  0  0  0  0  0  0  0  0  0
    7.4113  -14.9746   27.2525 C   0  0  0  0  0  0  0  0  0  0  0  0
   11.1832  -16.5526   29.3121 C   0  0  0  0  0  0  0  0  0  0  0  0
   11.7032  -15.9137   30.2584 O   0  0  0  0  0  0  0  0  0  0  0  0
   11.3017  -17.9406   29.2911 O   0  0  0  0  0  0  0  0  0  0  0  0
  2  1  1  6
  2  3  1  0
  4  3  1  0
  5  4  2  0
  6  7  1  0
  6  5  1  0
  7 12  2  0
  8  9  2  0
  8  7  1  0
  9 10  1  0
 10 11  2  0
 12 11  1  0
 12  4  1  0
 13  2  1  0
 13 14  2  0
 16 15  1  6
 16 17  1  0
 16 18  1  0
 18 19  1  6
 19 13  1  0
 20 18  1  0
 21 20  2  0
 22 20  1  0
 23 22  1  0
 23 24  1  1
 24 25  1  0
 25 26  2  0
 26 27  1  0
 28 27  2  0
 29 28  1  0
 30 29  2  0
 30 25  1  0
 31 23  1  0
 32 31  2  0
 33 31  1  0
M  END
$$$$
