WTF.pdb
     RDKit          3D

 33 35  0  0  1  0  0  0  0  0999 V2000
    6.1507  -17.9637   21.1226 N   0  0  0  0  0  0  0  0  0  0  0  0
    6.9254  -16.9505   21.8238 C   0  0  1  0  0  0  0  0  0  0  0  0
    6.0874  -15.9019   22.4619 C   0  0  0  0  0  0  0  0  0  0  0  0
    6.7120  -14.5881   22.6135 C   0  0  0  0  0  0  0  0  0  0  0  0
    7.4531  -13.8987   21.6813 C   0  0  0  0  0  0  0  0  0  0  0  0
    7.8178  -12.7519   22.2605 N   0  0  0  0  0  0  0  0  0  0  0  0
    7.3563  -12.6649   23.5049 C   0  0  0  0  0  0  0  0  0  0  0  0
    7.4447  -11.7135   24.5122 C   0  0  0  0  0  0  0  0  0  0  0  0
    6.8447  -11.9067   25.7370 C   0  0  0  0  0  0  0  0  0  0  0  0
    6.1322  -13.0574   26.0062 C   0  0  0  0  0  0  0  0  0  0  0  0
    6.0449  -14.0010   25.0063 C   0  0  0  0  0  0  0  0  0  0  0  0
    6.6416  -13.8200   23.7739 C   0  0  0  0  0  0  0  0  0  0  0  0
    7.8939  -17.6106   22.7286 C   0  0  0  0  0  0  0  0  0  0  0  0
    7.5226  -18.3701   23.6594 O   0  0  0  0  0  0  0  0  0  0  0  0
    9.9078  -20.1265   22.3597 C   0  0  0  0  0  0  0  0  0  0  0  0
   10.9665  -19.0906   22.7087 C   0  0  1  0  0  0  0  0  0  0  0  0
   11.5552  -18.6764   21.5346 O   0  0  0  0  0  0  0  0  0  0  0  0
   10.2777  -17.9860   23.4564 C   0  0  2  0  0  0  0  0  0  0  0  0
    9.2925  -17.4012   22.5680 N   0  0  0  0  0  0  0  0  0  0  0  0
   11.1880  -16.9610   23.9745 C   0  0  0  0  0  0  0  0  0  0  0  0
   11.5488  -16.0267   23.2243 O   0  0  0  0  0  0  0  0  0  0  0  0
   11.6572  -17.0259   25.3150 N   0  0  0  0  0  0  0  0  0  0  0  0
   12.7695  -16.1982   25.7197 C   0  0  1  0  0  0  0  0  0  0  0  0
   12.2826  -14.8887   26.3167 C   0  0  0  0  0  0  0  0  0  0  0  0
   11.2954  -15.1447   27.3863 C   0  0  0  0  0  0  0  0  0  0  0  0
   11.3008  -14.3353   28.4992 C   0  0  0  0  0  0  0  0  0  0  0  0
   10.4059  -14.5058   29.5529 C   0  0  0  0  0  0  0  0  0  0  0  0
    9.4981  -15.5292   29.4445 C   0  0  0  0  0  0  0  0  0  0  0  0
    9.4744  -16.3544   28.3362 C   0  0  0  0  0  0  0  0  0  0  0  0
   10.3682  -16.1646   27.3107 C   0  0  0  0  0  0  0  0  0  0  0  0
   13.5726  -16.9216   26.7269 C   0  0  0  0  0  0  0  0  0  0  0  0
   13.1122  -17.9806   27.2175 O   0  0  0  0  0  0  0  0  0  0  0  0
   14.8208  -16.4701   27.1503 O   0  0  0  0  0  0  0  0  0  0  0  0
  2  1  1  1
  2  3  1  0
  4  3  1  0
  5  4  2  0
  6  7  1  0
  6  5  1  0
  7 12  2  0
  8  9  2  0
  8  7  1  0
  9 10  1  0
 10 11  2  0
 12 11  1  0
 12  4  1  0
 13  2  1  0
 13 14  2  0
 16 15  1  6
 16 17  1  0
 16 18  1  0
 18 19  1  6
 19 13  1  0
 20 18  1  0
 21 20  2  0
 22 20  1  0
 23 22  1  0
 23 24  1  1
 24 25  1  0
 25 26  2  0
 26 27  1  0
 28 27  2  0
 29 28  1  0
 30 29  2  0
 30 25  1  0
 31 23  1  0
 32 31  2  0
 33 31  1  0
M  END
$$$$
