WTF.pdb
     RDKit          3D

 33 35  0  0  1  0  0  0  0  0999 V2000
    6.5545  -17.3108   23.2269 N   0  0  0  0  0  0  0  0  0  0  0  0
    7.8154  -16.6948   23.6130 C   0  0  1  0  0  0  0  0  0  0  0  0
    7.8284  -16.2030   25.0154 C   0  0  0  0  0  0  0  0  0  0  0  0
    6.7871  -15.2369   25.3644 C   0  0  0  0  0  0  0  0  0  0  0  0
    5.5806  -15.4881   25.9766 C   0  0  0  0  0  0  0  0  0  0  0  0
    4.9615  -14.3101   26.0906 N   0  0  0  0  0  0  0  0  0  0  0  0
    5.6968  -13.3215   25.5895 C   0  0  0  0  0  0  0  0  0  0  0  0
    5.5261  -11.9497   25.4602 C   0  0  0  0  0  0  0  0  0  0  0  0
    6.4918  -11.1576   24.8794 C   0  0  0  0  0  0  0  0  0  0  0  0
    7.6671  -11.7025   24.4039 C   0  0  0  0  0  0  0  0  0  0  0  0
    7.8358  -13.0636   24.5325 C   0  0  0  0  0  0  0  0  0  0  0  0
    6.8758  -13.8694   25.1127 C   0  0  0  0  0  0  0  0  0  0  0  0
    8.9334  -17.5989   23.2591 C   0  0  0  0  0  0  0  0  0  0  0  0
    8.8525  -18.4137   22.3048 O   0  0  0  0  0  0  0  0  0  0  0  0
   10.2464  -17.0648   21.3748 C   0  0  0  0  0  0  0  0  0  0  0  0
   11.5103  -16.8321   22.1898 C   0  0  1  0  0  0  0  0  0  0  0  0
   11.5572  -15.4970   22.5244 O   0  0  0  0  0  0  0  0  0  0  0  0
   11.4468  -17.7464   23.3788 C   0  0  2  0  0  0  0  0  0  0  0  0
   10.1484  -17.5709   23.9997 N   0  0  0  0  0  0  0  0  0  0  0  0
   12.5235  -17.5344   24.3500 C   0  0  0  0  0  0  0  0  0  0  0  0
   13.7137  -17.6075   23.9704 O   0  0  0  0  0  0  0  0  0  0  0  0
   12.2210  -17.2487   25.7095 N   0  0  0  0  0  0  0  0  0  0  0  0
   13.1880  -17.5647   26.7346 C   0  0  1  0  0  0  0  0  0  0  0  0
   12.7165  -17.0774   28.0942 C   0  0  0  0  0  0  0  0  0  0  0  0
   11.7592  -15.9622   27.9392 C   0  0  0  0  0  0  0  0  0  0  0  0
   10.5931  -15.9847   28.6695 C   0  0  0  0  0  0  0  0  0  0  0  0
    9.6373  -14.9752   28.5845 C   0  0  0  0  0  0  0  0  0  0  0  0
    9.9002  -13.9337   27.7306 C   0  0  0  0  0  0  0  0  0  0  0  0
   11.0646  -13.8902   26.9873 C   0  0  0  0  0  0  0  0  0  0  0  0
   11.9911  -14.8989   27.0898 C   0  0  0  0  0  0  0  0  0  0  0  0
   13.3828  -19.0283   26.7846 C   0  0  0  0  0  0  0  0  0  0  0  0
   12.7044  -19.7533   26.0175 O   0  0  0  0  0  0  0  0  0  0  0  0
   14.2916  -19.6309   27.6519 O   0  0  0  0  0  0  0  0  0  0  0  0
  2  1  1  1
  2  3  1  0
  4  3  1  0
  5  4  2  0
  6  7  1  0
  6  5  1  0
  7 12  2  0
  8  9  2  0
  8  7  1  0
  9 10  1  0
 10 11  2  0
 12 11  1  0
 12  4  1  0
 13  2  1  0
 13 14  2  0
 16 15  1  6
 16 17  1  0
 16 18  1  0
 18 19  1  1
 19 13  1  0
 20 18  1  0
 21 20  2  0
 22 20  1  0
 23 22  1  0
 23 24  1  1
 24 25  1  0
 25 26  2  0
 26 27  1  0
 28 27  2  0
 29 28  1  0
 30 29  2  0
 30 25  1  0
 31 23  1  0
 32 31  2  0
 33 31  1  0
M  END
$$$$
