WTF.pdb
     RDKit          3D

 33 35  0  0  1  0  0  0  0  0999 V2000
    8.9628  -17.7997   17.7679 N   0  0  0  0  0  0  0  0  0  0  0  0
    8.5150  -18.0600   19.1281 C   0  0  1  0  0  0  0  0  0  0  0  0
    9.0389  -19.3324   19.6898 C   0  0  0  0  0  0  0  0  0  0  0  0
    8.0537  -20.2020   20.3320 C   0  0  0  0  0  0  0  0  0  0  0  0
    7.1432  -21.0331   19.7208 C   0  0  0  0  0  0  0  0  0  0  0  0
    6.4551  -21.6261   20.7000 N   0  0  0  0  0  0  0  0  0  0  0  0
    6.8687  -21.2260   21.8991 C   0  0  0  0  0  0  0  0  0  0  0  0
    6.5019  -21.5225   23.2049 C   0  0  0  0  0  0  0  0  0  0  0  0
    7.1307  -20.9322   24.2790 C   0  0  0  0  0  0  0  0  0  0  0  0
    8.1511  -20.0220   24.0933 C   0  0  0  0  0  0  0  0  0  0  0  0
    8.5146  -19.7282   22.7975 C   0  0  0  0  0  0  0  0  0  0  0  0
    7.8926  -20.3127   21.7116 C   0  0  0  0  0  0  0  0  0  0  0  0
    8.7589  -16.8624   19.9640 C   0  0  0  0  0  0  0  0  0  0  0  0
    9.3769  -15.8597   19.5240 O   0  0  0  0  0  0  0  0  0  0  0  0
    6.7527  -14.6092   20.5183 C   0  0  0  0  0  0  0  0  0  0  0  0
    6.9663  -14.9530   21.9852 C   0  0  1  0  0  0  0  0  0  0  0  0
    5.9324  -15.7717   22.3820 O   0  0  0  0  0  0  0  0  0  0  0  0
    8.3179  -15.5965   22.0985 C   0  0  2  0  0  0  0  0  0  0  0  0
    8.2941  -16.8118   21.3082 N   0  0  0  0  0  0  0  0  0  0  0  0
    8.7292  -15.8772   23.4767 C   0  0  0  0  0  0  0  0  0  0  0  0
    8.9655  -17.0581   23.8168 O   0  0  0  0  0  0  0  0  0  0  0  0
    8.8590  -14.8203   24.4188 N   0  0  0  0  0  0  0  0  0  0  0  0
    9.1865  -15.1278   25.7915 C   0  0  1  0  0  0  0  0  0  0  0  0
    9.4342  -13.8578   26.5879 C   0  0  0  0  0  0  0  0  0  0  0  0
    8.3583  -12.8753   26.3400 C   0  0  0  0  0  0  0  0  0  0  0  0
    8.4056  -12.1177   25.1922 C   0  0  0  0  0  0  0  0  0  0  0  0
    7.4336  -11.1700   24.8805 C   0  0  0  0  0  0  0  0  0  0  0  0
    6.4040  -11.0114   25.7736 C   0  0  0  0  0  0  0  0  0  0  0  0
    6.3361  -11.7612   26.9326 C   0  0  0  0  0  0  0  0  0  0  0  0
    7.3079  -12.6894   27.2163 C   0  0  0  0  0  0  0  0  0  0  0  0
    8.0674  -15.8734   26.4030 C   0  0  0  0  0  0  0  0  0  0  0  0
    6.9648  -15.9033   25.8051 O   0  0  0  0  0  0  0  0  0  0  0  0
    8.1929  -16.5435   27.6181 O   0  0  0  0  0  0  0  0  0  0  0  0
  2  1  1  6
  2  3  1  0
  4  3  1  0
  5  4  2  0
  6  7  1  0
  6  5  1  0
  7 12  2  0
  8  9  2  0
  8  7  1  0
  9 10  1  0
 10 11  2  0
 12 11  1  0
 12  4  1  0
 13  2  1  0
 13 14  2  0
 16 15  1  6
 16 17  1  0
 16 18  1  0
 18 19  1  6
 19 13  1  0
 20 18  1  0
 21 20  2  0
 22 20  1  0
 23 22  1  0
 23 24  1  1
 24 25  1  0
 25 26  2  0
 26 27  1  0
 28 27  2  0
 29 28  1  0
 30 29  2  0
 30 25  1  0
 31 23  1  0
 32 31  2  0
 33 31  1  0
M  END
$$$$
