WTF.pdb
     RDKit          3D

 33 35  0  0  1  0  0  0  0  0999 V2000
    6.6878  -17.4946   20.9026 N   0  0  0  0  0  0  0  0  0  0  0  0
    7.5834  -16.6808   21.7114 C   0  0  1  0  0  0  0  0  0  0  0  0
    7.1200  -15.2785   21.8777 C   0  0  0  0  0  0  0  0  0  0  0  0
    7.1898  -14.4357   20.6843 C   0  0  0  0  0  0  0  0  0  0  0  0
    6.1409  -13.9441   19.9417 C   0  0  0  0  0  0  0  0  0  0  0  0
    6.6807  -13.2312   18.9496 N   0  0  0  0  0  0  0  0  0  0  0  0
    8.0094  -13.2363   19.0114 C   0  0  0  0  0  0  0  0  0  0  0  0
    9.0221  -12.6711   18.2482 C   0  0  0  0  0  0  0  0  0  0  0  0
   10.3495  -12.8566   18.5661 C   0  0  0  0  0  0  0  0  0  0  0  0
   10.7200  -13.6138   19.6586 C   0  0  0  0  0  0  0  0  0  0  0  0
    9.7146  -14.1744   20.4155 C   0  0  0  0  0  0  0  0  0  0  0  0
    8.3800  -13.9964   20.1080 C   0  0  0  0  0  0  0  0  0  0  0  0
    7.8872  -17.3909   22.9747 C   0  0  0  0  0  0  0  0  0  0  0  0
    6.9995  -17.9994   23.6250 O   0  0  0  0  0  0  0  0  0  0  0  0
    9.6563  -20.1802   23.6286 C   0  0  0  0  0  0  0  0  0  0  0  0
   10.4511  -19.1917   24.4693 C   0  0  1  0  0  0  0  0  0  0  0  0
   11.5800  -18.8462   23.7603 O   0  0  0  0  0  0  0  0  0  0  0  0
    9.5471  -18.0291   24.7609 C   0  0  2  0  0  0  0  0  0  0  0  0
    9.2114  -17.4049   23.4961 N   0  0  0  0  0  0  0  0  0  0  0  0
   10.1176  -17.0511   25.6913 C   0  0  0  0  0  0  0  0  0  0  0  0
   10.8492  -16.1380   25.2474 O   0  0  0  0  0  0  0  0  0  0  0  0
    9.8437  -17.1371   27.0837 N   0  0  0  0  0  0  0  0  0  0  0  0
   10.4824  -16.2137   27.9923 C   0  0  1  0  0  0  0  0  0  0  0  0
    9.4515  -15.4752   28.8291 C   0  0  0  0  0  0  0  0  0  0  0  0
    8.6882  -14.5280   27.9897 C   0  0  0  0  0  0  0  0  0  0  0  0
    7.4909  -14.9389   27.4499 C   0  0  0  0  0  0  0  0  0  0  0  0
    6.7082  -14.1111   26.6485 C   0  0  0  0  0  0  0  0  0  0  0  0
    7.1784  -12.8445   26.4084 C   0  0  0  0  0  0  0  0  0  0  0  0
    8.3780  -12.4106   26.9402 C   0  0  0  0  0  0  0  0  0  0  0  0
    9.1309  -13.2470   27.7275 C   0  0  0  0  0  0  0  0  0  0  0  0
   11.3887  -16.9614   28.8879 C   0  0  0  0  0  0  0  0  0  0  0  0
   11.3525  -18.2154   28.8720 O   0  0  0  0  0  0  0  0  0  0  0  0
   12.2807  -16.3242   29.7479 O   0  0  0  0  0  0  0  0  0  0  0  0
  2  1  1  1
  2  3  1  0
  4  3  1  0
  5  4  2  0
  6  7  1  0
  6  5  1  0
  7 12  2  0
  8  9  2  0
  8  7  1  0
  9 10  1  0
 10 11  2  0
 12 11  1  0
 12  4  1  0
 13  2  1  0
 13 14  2  0
 16 15  1  6
 16 17  1  0
 16 18  1  0
 18 19  1  6
 19 13  1  0
 20 18  1  0
 21 20  2  0
 22 20  1  0
 23 22  1  0
 23 24  1  1
 24 25  1  0
 25 26  2  0
 26 27  1  0
 28 27  2  0
 29 28  1  0
 30 29  2  0
 30 25  1  0
 31 23  1  0
 32 31  2  0
 33 31  1  0
M  END
$$$$
