VPQ.pdb
     RDKit          3D

 24 24  0  0  1  0  0  0  0  0999 V2000
   17.7689   -9.4998  -17.0666 C   0  0  0  0  0  0  0  0  0  0  0  0
   17.8087   -9.0791  -15.6227 C   0  0  2  0  0  0  0  0  0  0  0  0
   17.4702   -7.6373  -15.4668 C   0  0  0  0  0  0  0  0  0  0  0  0
   19.0634   -9.5309  -14.9107 C   0  0  2  0  0  0  0  0  0  0  0  0
   19.3918  -10.9027  -15.1363 N   0  0  0  0  0  0  0  0  0  0  0  0
   18.9656   -9.1100  -13.5140 C   0  0  0  0  0  0  0  0  0  0  0  0
   18.2170   -9.7784  -12.7560 O   0  0  0  0  0  0  0  0  0  0  0  0
   19.6645   -7.9829  -12.9372 N   0  0  0  0  0  0  0  0  0  0  0  0
   20.6023   -7.2144  -13.7021 C   0  0  0  0  0  0  0  0  0  0  0  0
   21.0898   -6.1461  -12.7727 C   0  0  0  0  0  0  0  0  0  0  0  0
   20.7450   -6.6117  -11.3881 C   0  0  0  0  0  0  0  0  0  0  0  0
   19.5500   -7.4857  -11.6184 C   0  0  1  0  0  0  0  0  0  0  0  0
   18.3280   -6.6532  -11.4032 C   0  0  0  0  0  0  0  0  0  0  0  0
   17.8672   -5.9912  -12.3684 O   0  0  0  0  0  0  0  0  0  0  0  0
   12.9715   -6.0323   -6.4361 N   0  0  0  0  0  0  0  0  0  0  0  0
   13.5020   -6.8146   -7.5052 C   0  0  0  0  0  0  0  0  0  0  0  0
   13.3273   -8.0526   -7.4568 O   0  0  0  0  0  0  0  0  0  0  0  0
   14.2326   -6.2206   -8.6347 C   0  0  0  0  0  0  0  0  0  0  0  0
   15.6130   -6.7621   -8.8534 C   0  0  0  0  0  0  0  0  0  0  0  0
   16.2835   -6.1015  -10.0053 C   0  0  2  0  0  0  0  0  0  0  0  0
   17.6661   -6.5796  -10.1541 N   0  0  0  0  0  0  0  0  0  0  0  0
   16.3836   -4.6358   -9.7435 C   0  0  0  0  0  0  0  0  0  0  0  0
   17.5376   -3.9747   -9.3590 O   0  0  0  0  0  0  0  0  0  0  0  0
   15.3626   -3.8682   -9.8620 O   0  0  0  0  0  0  0  0  0  0  0  0
  2  1  1  6
  2  3  1  0
  4  6  1  0
  4  2  1  0
  4  5  1  1
  6  8  1  0
  6  7  2  0
  8  9  1  0
 10  9  1  0
 11 10  1  0
 11 12  1  0
 12  8  1  0
 12 13  1  6
 14 13  2  0
 16 15  1  0
 17 16  2  0
 18 16  1  0
 19 18  1  0
 20 21  1  0
 20 19  1  1
 21 13  1  0
 22 20  1  0
 23 22  1  0
 24 22  2  0
M  END
$$$$
