VPQ.pdb
     RDKit          3D

 24 24  0  0  1  0  0  0  0  0999 V2000
   25.5158  -18.5001  -17.1117 C   0  0  0  0  0  0  0  0  0  0  0  0
   26.9926  -18.4089  -16.8394 C   0  0  2  0  0  0  0  0  0  0  0  0
   27.6424  -17.3841  -17.7027 C   0  0  0  0  0  0  0  0  0  0  0  0
   27.6722  -19.7589  -16.8124 C   0  0  2  0  0  0  0  0  0  0  0  0
   27.8189  -20.3561  -18.1018 N   0  0  0  0  0  0  0  0  0  0  0  0
   27.0148  -20.5744  -15.7925 C   0  0  0  0  0  0  0  0  0  0  0  0
   26.1183  -21.3703  -16.1728 O   0  0  0  0  0  0  0  0  0  0  0  0
   27.3169  -20.5356  -14.3787 N   0  0  0  0  0  0  0  0  0  0  0  0
   28.3297  -19.6668  -13.8548 C   0  0  0  0  0  0  0  0  0  0  0  0
   28.3284  -19.9040  -12.3762 C   0  0  0  0  0  0  0  0  0  0  0  0
   27.6248  -21.2131  -12.1666 C   0  0  0  0  0  0  0  0  0  0  0  0
   26.7097  -21.2928  -13.3504 C   0  0  1  0  0  0  0  0  0  0  0  0
   25.3766  -20.7628  -12.9326 C   0  0  0  0  0  0  0  0  0  0  0  0
   25.1671  -19.5245  -13.0026 O   0  0  0  0  0  0  0  0  0  0  0  0
   18.7693  -23.2088  -10.9712 N   0  0  0  0  0  0  0  0  0  0  0  0
   19.5526  -22.7708  -12.0808 C   0  0  0  0  0  0  0  0  0  0  0  0
   19.3187  -23.2918  -13.1941 O   0  0  0  0  0  0  0  0  0  0  0  0
   20.6031  -21.7496  -11.9549 C   0  0  0  0  0  0  0  0  0  0  0  0
   21.9792  -22.2036  -12.3379 C   0  0  0  0  0  0  0  0  0  0  0  0
   22.9784  -21.1127  -12.1815 C   0  0  2  0  0  0  0  0  0  0  0  0
   24.3374  -21.6000  -12.4605 N   0  0  0  0  0  0  0  0  0  0  0  0
   22.9915  -20.6557  -10.7609 C   0  0  0  0  0  0  0  0  0  0  0  0
   22.1454  -19.6991  -10.2266 O   0  0  0  0  0  0  0  0  0  0  0  0
   23.8243  -21.1410   -9.9143 O   0  0  0  0  0  0  0  0  0  0  0  0
  2  1  1  6
  2  3  1  0
  4  6  1  0
  4  2  1  0
  4  5  1  6
  6  8  1  0
  6  7  2  0
  8  9  1  0
 10  9  1  0
 11 10  1  0
 11 12  1  0
 12  8  1  0
 12 13  1  1
 14 13  2  0
 16 15  1  0
 17 16  2  0
 18 16  1  0
 19 18  1  0
 20 21  1  0
 20 19  1  1
 21 13  1  0
 22 20  1  0
 23 22  1  0
 24 22  2  0
M  END
$$$$
