VPQ.pdb
     RDKit          3D

 24 24  0  0  1  0  0  0  0  0999 V2000
   18.0111   -9.9710  -17.8822 C   0  0  0  0  0  0  0  0  0  0  0  0
   18.8148  -11.2336  -18.0342 C   0  0  2  0  0  0  0  0  0  0  0  0
   18.2755  -12.0937  -19.1239 C   0  0  0  0  0  0  0  0  0  0  0  0
   19.0660  -11.9353  -16.7191 C   0  0  2  0  0  0  0  0  0  0  0  0
   17.9255  -12.6269  -16.2078 N   0  0  0  0  0  0  0  0  0  0  0  0
   19.7038  -10.9809  -15.8135 C   0  0  0  0  0  0  0  0  0  0  0  0
   18.9596  -10.3302  -15.0359 O   0  0  0  0  0  0  0  0  0  0  0  0
   21.1259  -10.7279  -15.7436 N   0  0  0  0  0  0  0  0  0  0  0  0
   22.0528  -11.4379  -16.5755 C   0  0  0  0  0  0  0  0  0  0  0  0
   23.4010  -10.8893  -16.2234 C   0  0  0  0  0  0  0  0  0  0  0  0
   23.2374  -10.2057  -14.8973 C   0  0  0  0  0  0  0  0  0  0  0  0
   21.7933   -9.8061  -14.9043 C   0  0  1  0  0  0  0  0  0  0  0  0
   21.7128   -8.3957  -15.3912 C   0  0  0  0  0  0  0  0  0  0  0  0
   21.2757   -8.1782  -16.5504 O   0  0  0  0  0  0  0  0  0  0  0  0
   17.6778   -5.1970  -15.8638 N   0  0  0  0  0  0  0  0  0  0  0  0
   18.4808   -4.1128  -15.3988 C   0  0  0  0  0  0  0  0  0  0  0  0
   18.0149   -2.9574  -15.5161 O   0  0  0  0  0  0  0  0  0  0  0  0
   19.8097   -4.3106  -14.8014 C   0  0  0  0  0  0  0  0  0  0  0  0
   20.2297   -5.7411  -14.6463 C   0  0  0  0  0  0  0  0  0  0  0  0
   21.6892   -5.9109  -14.8784 C   0  0  2  0  0  0  0  0  0  0  0  0
   22.1093   -7.2920  -14.5986 N   0  0  0  0  0  0  0  0  0  0  0  0
   22.4444   -5.0517  -13.9200 C   0  0  0  0  0  0  0  0  0  0  0  0
   22.7116   -5.3780  -12.6015 O   0  0  0  0  0  0  0  0  0  0  0  0
   22.9091   -3.9098  -14.2750 O   0  0  0  0  0  0  0  0  0  0  0  0
  2  1  1  1
  2  3  1  0
  4  6  1  0
  4  2  1  0
  4  5  1  1
  6  8  1  0
  6  7  2  0
  8  9  1  0
 10  9  1  0
 11 10  1  0
 11 12  1  0
 12  8  1  0
 12 13  1  6
 14 13  2  0
 16 15  1  0
 17 16  2  0
 18 16  1  0
 19 18  1  0
 20 21  1  0
 20 19  1  1
 21 13  1  0
 22 20  1  0
 23 22  1  0
 24 22  2  0
M  END
$$$$
