VPQ.pdb
     RDKit          3D

 24 24  0  0  1  0  0  0  0  0999 V2000
   20.4923  -13.6756  -19.1436 C   0  0  0  0  0  0  0  0  0  0  0  0
   21.6142  -14.5919  -18.7371 C   0  0  2  0  0  0  0  0  0  0  0  0
   21.9176  -15.5862  -19.8034 C   0  0  0  0  0  0  0  0  0  0  0  0
   21.4355  -15.1640  -17.3493 C   0  0  2  0  0  0  0  0  0  0  0  0
   20.3967  -16.1403  -17.2578 N   0  0  0  0  0  0  0  0  0  0  0  0
   21.3596  -14.0480  -16.4078 C   0  0  0  0  0  0  0  0  0  0  0  0
   20.2165  -13.6720  -16.0422 O   0  0  0  0  0  0  0  0  0  0  0  0
   22.4995  -13.3431  -15.8645 N   0  0  0  0  0  0  0  0  0  0  0  0
   23.8352  -13.6413  -16.2914 C   0  0  0  0  0  0  0  0  0  0  0  0
   24.7147  -12.7040  -15.5230 C   0  0  0  0  0  0  0  0  0  0  0  0
   23.8902  -12.2137  -14.3686 C   0  0  0  0  0  0  0  0  0  0  0  0
   22.4900  -12.3169  -14.8917 C   0  0  1  0  0  0  0  0  0  0  0  0
   22.1097  -10.9813  -15.4432 C   0  0  0  0  0  0  0  0  0  0  0  0
   22.4761  -10.6793  -16.6080 O   0  0  0  0  0  0  0  0  0  0  0  0
   16.4976   -8.4165  -15.0263 N   0  0  0  0  0  0  0  0  0  0  0  0
   17.1630   -8.5711  -16.2792 C   0  0  0  0  0  0  0  0  0  0  0  0
   16.4539   -8.6020  -17.3096 O   0  0  0  0  0  0  0  0  0  0  0  0
   18.6241   -8.6938  -16.3903 C   0  0  0  0  0  0  0  0  0  0  0  0
   19.3633   -8.6827  -15.0864 C   0  0  0  0  0  0  0  0  0  0  0  0
   20.8327   -8.7941  -15.2897 C   0  0  2  0  0  0  0  0  0  0  0  0
   21.3516  -10.0401  -14.7063 N   0  0  0  0  0  0  0  0  0  0  0  0
   21.5170   -7.6857  -14.5616 C   0  0  0  0  0  0  0  0  0  0  0  0
   22.2969   -7.8422  -13.4286 O   0  0  0  0  0  0  0  0  0  0  0  0
   21.4176   -6.4694  -14.9575 O   0  0  0  0  0  0  0  0  0  0  0  0
  2  1  1  6
  2  3  1  0
  4  6  1  0
  4  2  1  0
  4  5  1  6
  6  8  1  0
  6  7  2  0
  8  9  1  0
 10  9  1  0
 11 10  1  0
 11 12  1  0
 12  8  1  0
 12 13  1  6
 14 13  2  0
 16 15  1  0
 17 16  2  0
 18 16  1  0
 19 18  1  0
 20 21  1  0
 20 19  1  1
 21 13  1  0
 22 20  1  0
 23 22  1  0
 24 22  2  0
M  END
$$$$
