VPQ.pdb
     RDKit          3D

 24 24  0  0  1  0  0  0  0  0999 V2000
   19.3543  -15.5638    3.4943 C   0  0  0  0  0  0  0  0  0  0  0  0
   18.1719  -14.7989    2.9648 C   0  0  2  0  0  0  0  0  0  0  0  0
   18.6017  -13.6148    2.1706 C   0  0  0  0  0  0  0  0  0  0  0  0
   17.1248  -14.5259    4.0203 C   0  0  2  0  0  0  0  0  0  0  0  0
   17.4863  -13.4914    4.9366 N   0  0  0  0  0  0  0  0  0  0  0  0
   16.7347  -15.8056    4.6100 C   0  0  0  0  0  0  0  0  0  0  0  0
   17.0193  -15.9996    5.8196 O   0  0  0  0  0  0  0  0  0  0  0  0
   16.0461  -16.8660    3.9081 N   0  0  0  0  0  0  0  0  0  0  0  0
   15.5472  -16.6798    2.5770 C   0  0  0  0  0  0  0  0  0  0  0  0
   14.9252  -17.9891    2.2008 C   0  0  0  0  0  0  0  0  0  0  0  0
   14.7028  -18.7279    3.4882 C   0  0  0  0  0  0  0  0  0  0  0  0
   15.7683  -18.1692    4.3813 C   0  0  1  0  0  0  0  0  0  0  0  0
   16.9457  -19.0868    4.3157 C   0  0  0  0  0  0  0  0  0  0  0  0
   17.7240  -19.0056    3.3308 O   0  0  0  0  0  0  0  0  0  0  0  0
   21.7380  -18.8604    7.3196 N   0  0  0  0  0  0  0  0  0  0  0  0
   20.4901  -19.0837    7.9747 C   0  0  0  0  0  0  0  0  0  0  0  0
   20.3794  -18.6881    9.1566 O   0  0  0  0  0  0  0  0  0  0  0  0
   19.3578  -19.7516    7.3157 C   0  0  0  0  0  0  0  0  0  0  0  0
   19.5907  -20.1329    5.8850 C   0  0  0  0  0  0  0  0  0  0  0  0
   18.4332  -20.8790    5.3224 C   0  0  2  0  0  0  0  0  0  0  0  0
   17.2215  -20.0459    5.3195 N   0  0  0  0  0  0  0  0  0  0  0  0
   18.1250  -22.0460    6.2000 C   0  0  0  0  0  0  0  0  0  0  0  0
   18.8912  -23.1954    6.2911 O   0  0  0  0  0  0  0  0  0  0  0  0
   17.0864  -22.0554    6.9529 O   0  0  0  0  0  0  0  0  0  0  0  0
  2  1  1  1
  2  3  1  0
  4  6  1  0
  4  2  1  0
  4  5  1  1
  6  8  1  0
  6  7  2  0
  8  9  1  0
 10  9  1  0
 11 10  1  0
 11 12  1  0
 12  8  1  0
 12 13  1  6
 14 13  2  0
 16 15  1  0
 17 16  2  0
 18 16  1  0
 19 18  1  0
 20 21  1  0
 20 19  1  1
 21 13  1  0
 22 20  1  0
 23 22  1  0
 24 22  2  0
M  END
$$$$
