VPQ.pdb
     RDKit          3D

 24 24  0  0  1  0  0  0  0  0999 V2000
   24.8174  -12.9390  -16.9336 C   0  0  0  0  0  0  0  0  0  0  0  0
   23.9917  -11.6871  -16.8134 C   0  0  2  0  0  0  0  0  0  0  0  0
   24.2669  -10.9748  -15.5348 C   0  0  0  0  0  0  0  0  0  0  0  0
   22.5304  -11.9113  -17.1288 C   0  0  2  0  0  0  0  0  0  0  0  0
   22.3071  -12.6526  -18.3293 N   0  0  0  0  0  0  0  0  0  0  0  0
   21.8443  -10.6244  -17.0258 C   0  0  0  0  0  0  0  0  0  0  0  0
   22.0819   -9.7657  -17.9135 O   0  0  0  0  0  0  0  0  0  0  0  0
   20.9126  -10.2632  -15.9803 N   0  0  0  0  0  0  0  0  0  0  0  0
   20.4681  -11.2222  -15.0118 C   0  0  0  0  0  0  0  0  0  0  0  0
   19.5414  -10.4703  -14.1070 C   0  0  0  0  0  0  0  0  0  0  0  0
   19.1507   -9.2279  -14.8529 C   0  0  0  0  0  0  0  0  0  0  0  0
   20.3253   -8.9970  -15.7540 C   0  0  1  0  0  0  0  0  0  0  0  0
   21.2406   -8.0328  -15.0721 C   0  0  0  0  0  0  0  0  0  0  0  0
   22.1515   -8.4822  -14.3301 O   0  0  0  0  0  0  0  0  0  0  0  0
   21.5925   -1.7971  -16.5891 N   0  0  0  0  0  0  0  0  0  0  0  0
   21.5501   -3.0155  -17.3309 C   0  0  0  0  0  0  0  0  0  0  0  0
   21.3336   -2.9355  -18.5607 O   0  0  0  0  0  0  0  0  0  0  0  0
   21.7474   -4.3313  -16.7049 C   0  0  0  0  0  0  0  0  0  0  0  0
   21.8735   -4.3116  -15.2115 C   0  0  0  0  0  0  0  0  0  0  0  0
   22.0904   -5.6772  -14.6629 C   0  0  2  0  0  0  0  0  0  0  0  0
   21.1239   -6.6307  -15.2278 N   0  0  0  0  0  0  0  0  0  0  0  0
   21.8391   -5.6636  -13.1919 C   0  0  0  0  0  0  0  0  0  0  0  0
   20.7564   -6.2569  -12.5656 O   0  0  0  0  0  0  0  0  0  0  0  0
   22.6445   -5.0744  -12.3856 O   0  0  0  0  0  0  0  0  0  0  0  0
  2  1  1  1
  2  3  1  0
  4  6  1  0
  4  2  1  0
  4  5  1  6
  6  8  1  0
  6  7  2  0
  8  9  1  0
 10  9  1  0
 11 10  1  0
 11 12  1  0
 12  8  1  0
 12 13  1  1
 14 13  2  0
 16 15  1  0
 17 16  2  0
 18 16  1  0
 19 18  1  0
 20 21  1  0
 20 19  1  6
 21 13  1  0
 22 20  1  0
 23 22  1  0
 24 22  2  0
M  END
$$$$
