VPQ.pdb
     RDKit          3D

 24 24  0  0  1  0  0  0  0  0999 V2000
   23.8785  -21.1836  -10.8136 C   0  0  0  0  0  0  0  0  0  0  0  0
   25.3529  -21.2992  -10.5377 C   0  0  2  0  0  0  0  0  0  0  0  0
   25.6159  -22.1141   -9.3193 C   0  0  0  0  0  0  0  0  0  0  0  0
   26.0701  -19.9697  -10.5953 C   0  0  2  0  0  0  0  0  0  0  0  0
   25.7314  -19.0854   -9.5258 N   0  0  0  0  0  0  0  0  0  0  0  0
   25.9219  -19.4357  -11.9482 C   0  0  0  0  0  0  0  0  0  0  0  0
   25.0796  -18.5180  -12.1224 O   0  0  0  0  0  0  0  0  0  0  0  0
   26.6703  -19.8825  -13.1022 N   0  0  0  0  0  0  0  0  0  0  0  0
   27.6856  -20.8883  -12.9905 C   0  0  0  0  0  0  0  0  0  0  0  0
   28.2057  -21.0819  -14.3814 C   0  0  0  0  0  0  0  0  0  0  0  0
   27.7774  -19.8703  -15.1569 C   0  0  0  0  0  0  0  0  0  0  0  0
   26.5374  -19.4352  -14.4370 C   0  0  1  0  0  0  0  0  0  0  0  0
   25.3653  -20.0303  -15.1474 C   0  0  0  0  0  0  0  0  0  0  0  0
   25.0303  -21.2129  -14.8799 O   0  0  0  0  0  0  0  0  0  0  0  0
   20.5583  -16.4024  -16.7885 N   0  0  0  0  0  0  0  0  0  0  0  0
   20.8597  -17.0663  -15.5617 C   0  0  0  0  0  0  0  0  0  0  0  0
   20.2808  -16.6616  -14.5289 O   0  0  0  0  0  0  0  0  0  0  0  0
   21.8103  -18.1851  -15.4792 C   0  0  0  0  0  0  0  0  0  0  0  0
   22.3749  -18.6368  -16.7922 C   0  0  0  0  0  0  0  0  0  0  0  0
   23.3146  -19.7771  -16.6201 C   0  0  2  0  0  0  0  0  0  0  0  0
   24.6146  -19.3153  -16.1112 N   0  0  0  0  0  0  0  0  0  0  0  0
   23.5918  -20.3931  -17.9508 C   0  0  0  0  0  0  0  0  0  0  0  0
   22.7179  -21.2131  -18.6439 O   0  0  0  0  0  0  0  0  0  0  0  0
   24.7046  -20.1929  -18.5570 O   0  0  0  0  0  0  0  0  0  0  0  0
  2  1  1  1
  2  3  1  0
  4  6  1  0
  4  2  1  0
  4  5  1  1
  6  8  1  0
  6  7  2  0
  8  9  1  0
 10  9  1  0
 11 10  1  0
 11 12  1  0
 12  8  1  0
 12 13  1  6
 14 13  2  0
 16 15  1  0
 17 16  2  0
 18 16  1  0
 19 18  1  0
 20 21  1  0
 20 19  1  6
 21 13  1  0
 22 20  1  0
 23 22  1  0
 24 22  2  0
M  END
$$$$
