VPQ.pdb
     RDKit          3D

 24 24  0  0  1  0  0  0  0  0999 V2000
   23.8978  -15.7838  -18.8633 C   0  0  0  0  0  0  0  0  0  0  0  0
   23.7003  -14.5729  -17.9924 C   0  0  2  0  0  0  0  0  0  0  0  0
   23.7718  -13.3149  -18.7860 C   0  0  0  0  0  0  0  0  0  0  0  0
   24.5501  -14.5999  -16.7426 C   0  0  2  0  0  0  0  0  0  0  0  0
   24.5503  -15.8617  -16.0729 N   0  0  0  0  0  0  0  0  0  0  0  0
   24.1955  -13.4366  -15.9311 C   0  0  0  0  0  0  0  0  0  0  0  0
   23.0978  -13.4677  -15.3180 O   0  0  0  0  0  0  0  0  0  0  0  0
   25.0113  -12.2521  -15.7794 N   0  0  0  0  0  0  0  0  0  0  0  0
   26.2964  -12.1449  -16.4057 C   0  0  0  0  0  0  0  0  0  0  0  0
   26.8080  -10.7887  -16.0294 C   0  0  0  0  0  0  0  0  0  0  0  0
   25.9937  -10.3514  -14.8468 C   0  0  0  0  0  0  0  0  0  0  0  0
   24.7024  -11.0861  -15.0415 C   0  0  1  0  0  0  0  0  0  0  0  0
   23.7586  -10.1695  -15.7498 C   0  0  0  0  0  0  0  0  0  0  0  0
   23.8255  -10.0798  -17.0027 O   0  0  0  0  0  0  0  0  0  0  0  0
   16.7853   -8.3814  -16.5133 N   0  0  0  0  0  0  0  0  0  0  0  0
   17.9403   -8.9681  -15.9149 C   0  0  0  0  0  0  0  0  0  0  0  0
   17.7633   -9.9482  -15.1574 O   0  0  0  0  0  0  0  0  0  0  0  0
   19.3003   -8.4639  -16.1564 C   0  0  0  0  0  0  0  0  0  0  0  0
   20.3913   -9.2223  -15.4626 C   0  0  0  0  0  0  0  0  0  0  0  0
   21.7305   -8.6447  -15.7556 C   0  0  2  0  0  0  0  0  0  0  0  0
   22.7898   -9.3963  -15.0662 N   0  0  0  0  0  0  0  0  0  0  0  0
   21.7973   -7.2551  -15.2157 C   0  0  0  0  0  0  0  0  0  0  0  0
   21.3233   -6.1275  -15.8641 O   0  0  0  0  0  0  0  0  0  0  0  0
   22.3222   -7.0115  -14.0707 O   0  0  0  0  0  0  0  0  0  0  0  0
  2  1  1  6
  2  3  1  0
  4  6  1  0
  4  2  1  0
  4  5  1  1
  6  8  1  0
  6  7  2  0
  8  9  1  0
 10  9  1  0
 11 10  1  0
 11 12  1  0
 12  8  1  0
 12 13  1  6
 14 13  2  0
 16 15  1  0
 17 16  2  0
 18 16  1  0
 19 18  1  0
 20 21  1  0
 20 19  1  1
 21 13  1  0
 22 20  1  0
 23 22  1  0
 24 22  2  0
M  END
$$$$
