VPQ.pdb
     RDKit          3D

 24 24  0  0  1  0  0  0  0  0999 V2000
   16.9460  -19.8278    0.9943 C   0  0  0  0  0  0  0  0  0  0  0  0
   16.4447  -21.2052    1.3334 C   0  0  2  0  0  0  0  0  0  0  0  0
   16.7058  -22.1667    0.2264 C   0  0  0  0  0  0  0  0  0  0  0  0
   15.0317  -21.2034    1.8704 C   0  0  2  0  0  0  0  0  0  0  0  0
   14.0475  -20.8376    0.9017 N   0  0  0  0  0  0  0  0  0  0  0  0
   15.0248  -20.4429    3.1190 C   0  0  0  0  0  0  0  0  0  0  0  0
   14.4030  -19.3498    3.1310 O   0  0  0  0  0  0  0  0  0  0  0  0
   15.6789  -20.8520    4.3422 N   0  0  0  0  0  0  0  0  0  0  0  0
   16.2771  -22.1483    4.4720 C   0  0  0  0  0  0  0  0  0  0  0  0
   16.8541  -22.1814    5.8535 C   0  0  0  0  0  0  0  0  0  0  0  0
   16.1816  -21.0735    6.6106 C   0  0  0  0  0  0  0  0  0  0  0  0
   15.8272  -20.0985    5.5295 C   0  0  1  0  0  0  0  0  0  0  0  0
   16.9213  -19.0836    5.4542 C   0  0  0  0  0  0  0  0  0  0  0  0
   17.9986  -19.3941    4.8838 O   0  0  0  0  0  0  0  0  0  0  0  0
   16.9687  -13.7468    2.9271 N   0  0  0  0  0  0  0  0  0  0  0  0
   16.0428  -14.0723    3.9631 C   0  0  0  0  0  0  0  0  0  0  0  0
   14.9770  -13.4185    4.0113 O   0  0  0  0  0  0  0  0  0  0  0  0
   16.3009  -15.1284    4.9531 C   0  0  0  0  0  0  0  0  0  0  0  0
   17.6210  -15.8237    4.8105 C   0  0  0  0  0  0  0  0  0  0  0  0
   17.8617  -16.7751    5.9284 C   0  0  2  0  0  0  0  0  0  0  0  0
   16.7940  -17.7837    5.9999 N   0  0  0  0  0  0  0  0  0  0  0  0
   17.8136  -16.0362    7.2241 C   0  0  0  0  0  0  0  0  0  0  0  0
   18.7128  -15.0588    7.6147 O   0  0  0  0  0  0  0  0  0  0  0  0
   16.8985  -16.2740    8.0912 O   0  0  0  0  0  0  0  0  0  0  0  0
  2  1  1  6
  2  3  1  0
  4  6  1  0
  4  2  1  0
  4  5  1  6
  6  8  1  0
  6  7  2  0
  8  9  1  0
 10  9  1  0
 11 10  1  0
 11 12  1  0
 12  8  1  0
 12 13  1  6
 14 13  2  0
 16 15  1  0
 17 16  2  0
 18 16  1  0
 19 18  1  0
 20 21  1  0
 20 19  1  6
 21 13  1  0
 22 20  1  0
 23 22  1  0
 24 22  2  0
M  END
$$$$
