VPQ.pdb
     RDKit          3D

 24 24  0  0  1  0  0  0  0  0999 V2000
   24.7247  -16.6319  -15.1357 C   0  0  0  0  0  0  0  0  0  0  0  0
   26.0291  -16.7962  -15.8671 C   0  0  2  0  0  0  0  0  0  0  0  0
   26.3162  -15.6224  -16.7375 C   0  0  0  0  0  0  0  0  0  0  0  0
   26.1661  -18.1461  -16.5336 C   0  0  2  0  0  0  0  0  0  0  0  0
   25.3470  -18.3018  -17.6936 N   0  0  0  0  0  0  0  0  0  0  0  0
   26.0303  -19.1738  -15.5027 C   0  0  0  0  0  0  0  0  0  0  0  0
   24.9162  -19.7478  -15.3966 O   0  0  0  0  0  0  0  0  0  0  0  0
   27.0800  -19.5812  -14.5951 N   0  0  0  0  0  0  0  0  0  0  0  0
   28.3801  -18.9786  -14.6380 C   0  0  0  0  0  0  0  0  0  0  0  0
   29.1625  -19.6479  -13.5506 C   0  0  0  0  0  0  0  0  0  0  0  0
   28.4198  -20.9100  -13.2216 C   0  0  0  0  0  0  0  0  0  0  0  0
   27.0070  -20.5701  -13.5870 C   0  0  1  0  0  0  0  0  0  0  0  0
   26.3153  -20.1028  -12.3477 C   0  0  0  0  0  0  0  0  0  0  0  0
   26.4934  -18.9183  -11.9635 O   0  0  0  0  0  0  0  0  0  0  0  0
   22.8316  -22.0793  -13.0512 N   0  0  0  0  0  0  0  0  0  0  0  0
   22.1398  -20.9166  -12.5973 C   0  0  0  0  0  0  0  0  0  0  0  0
   21.2947  -20.4098  -13.3684 O   0  0  0  0  0  0  0  0  0  0  0  0
   22.3877  -20.3108  -11.2806 C   0  0  0  0  0  0  0  0  0  0  0  0
   23.3389  -21.0667  -10.4027 C   0  0  0  0  0  0  0  0  0  0  0  0
   24.6994  -20.4655  -10.4254 C   0  0  2  0  0  0  0  0  0  0  0  0
   25.4654  -20.9410  -11.5870 N   0  0  0  0  0  0  0  0  0  0  0  0
   25.4583  -20.9171   -9.2225 C   0  0  0  0  0  0  0  0  0  0  0  0
   25.3372  -20.3714   -7.9559 O   0  0  0  0  0  0  0  0  0  0  0  0
   26.3061  -21.8774   -9.2933 O   0  0  0  0  0  0  0  0  0  0  0  0
  2  1  1  6
  2  3  1  0
  4  6  1  0
  4  2  1  0
  4  5  1  6
  6  8  1  0
  6  7  2  0
  8  9  1  0
 10  9  1  0
 11 10  1  0
 11 12  1  0
 12  8  1  0
 12 13  1  1
 14 13  2  0
 16 15  1  0
 17 16  2  0
 18 16  1  0
 19 18  1  0
 20 21  1  0
 20 19  1  1
 21 13  1  0
 22 20  1  0
 23 22  1  0
 24 22  2  0
M  END
$$$$
