VPQ.pdb
     RDKit          3D

 24 24  0  0  1  0  0  0  0  0999 V2000
   24.4133  -17.0841  -15.2240 C   0  0  0  0  0  0  0  0  0  0  0  0
   25.8055  -17.4611  -14.7962 C   0  0  2  0  0  0  0  0  0  0  0  0
   26.7220  -16.2879  -14.8325 C   0  0  0  0  0  0  0  0  0  0  0  0
   26.3181  -18.7053  -15.4849 C   0  0  2  0  0  0  0  0  0  0  0  0
   26.5875  -18.5245  -16.8760 N   0  0  0  0  0  0  0  0  0  0  0  0
   25.4288  -19.8123  -15.1364 C   0  0  0  0  0  0  0  0  0  0  0  0
   24.5472  -20.1358  -15.9730 O   0  0  0  0  0  0  0  0  0  0  0  0
   25.4857  -20.5642  -13.9024 N   0  0  0  0  0  0  0  0  0  0  0  0
   26.5285  -20.3473  -12.9429 C   0  0  0  0  0  0  0  0  0  0  0  0
   26.2322  -21.2890  -11.8168 C   0  0  0  0  0  0  0  0  0  0  0  0
   25.2869  -22.3145  -12.3713 C   0  0  0  0  0  0  0  0  0  0  0  0
   24.5890  -21.5668  -13.4663 C   0  0  1  0  0  0  0  0  0  0  0  0
   23.3163  -21.0203  -12.9058 C   0  0  0  0  0  0  0  0  0  0  0  0
   23.3749  -20.2116  -11.9441 O   0  0  0  0  0  0  0  0  0  0  0  0
   19.7330  -17.6112  -15.7398 N   0  0  0  0  0  0  0  0  0  0  0  0
   19.9901  -18.9455  -16.1758 C   0  0  0  0  0  0  0  0  0  0  0  0
   19.9100  -19.1776  -17.4027 O   0  0  0  0  0  0  0  0  0  0  0  0
   20.3365  -20.0300  -15.2452 C   0  0  0  0  0  0  0  0  0  0  0  0
   20.3820  -19.6362  -13.7996 C   0  0  0  0  0  0  0  0  0  0  0  0
   20.7910  -20.7755  -12.9350 C   0  0  2  0  0  0  0  0  0  0  0  0
   22.0444  -21.3765  -13.4146 N   0  0  0  0  0  0  0  0  0  0  0  0
   19.7622  -21.8532  -13.0196 C   0  0  0  0  0  0  0  0  0  0  0  0
   18.4940  -21.7856  -12.4685 O   0  0  0  0  0  0  0  0  0  0  0  0
   20.0021  -22.9545  -13.6324 O   0  0  0  0  0  0  0  0  0  0  0  0
  2  1  1  6
  2  3  1  0
  4  6  1  0
  4  2  1  0
  4  5  1  6
  6  8  1  0
  6  7  2  0
  8  9  1  0
 10  9  1  0
 11 10  1  0
 11 12  1  0
 12  8  1  0
 12 13  1  1
 14 13  2  0
 16 15  1  0
 17 16  2  0
 18 16  1  0
 19 18  1  0
 20 21  1  0
 20 19  1  6
 21 13  1  0
 22 20  1  0
 23 22  1  0
 24 22  2  0
M  END
$$$$
