VPQ.pdb
     RDKit          3D

 24 24  0  0  1  0  0  0  0  0999 V2000
   19.9627  -21.1018  -14.9704 C   0  0  0  0  0  0  0  0  0  0  0  0
   20.8147  -19.9413  -14.5337 C   0  0  2  0  0  0  0  0  0  0  0  0
   20.8991  -18.8992  -15.5942 C   0  0  0  0  0  0  0  0  0  0  0  0
   22.1371  -20.3704  -13.9401 C   0  0  2  0  0  0  0  0  0  0  0  0
   23.0821  -20.8282  -14.9086 N   0  0  0  0  0  0  0  0  0  0  0  0
   21.8589  -21.2780  -12.8281 C   0  0  0  0  0  0  0  0  0  0  0  0
   21.9466  -22.5130  -13.0492 O   0  0  0  0  0  0  0  0  0  0  0  0
   21.4902  -20.8637  -11.4925 N   0  0  0  0  0  0  0  0  0  0  0  0
   21.4065  -19.4774  -11.1367 C   0  0  0  0  0  0  0  0  0  0  0  0
   20.9876  -19.4625   -9.6991 C   0  0  0  0  0  0  0  0  0  0  0  0
   21.2759  -20.8365   -9.1686 C   0  0  0  0  0  0  0  0  0  0  0  0
   21.1743  -21.6945  -10.3928 C   0  0  1  0  0  0  0  0  0  0  0  0
   19.7875  -22.2481  -10.4477 C   0  0  0  0  0  0  0  0  0  0  0  0
   18.9234  -21.6520  -11.1408 O   0  0  0  0  0  0  0  0  0  0  0  0
   18.6595  -28.5085   -9.3004 N   0  0  0  0  0  0  0  0  0  0  0  0
   17.4409  -27.9512   -9.7913 C   0  0  0  0  0  0  0  0  0  0  0  0
   16.4731  -28.7283   -9.9494 O   0  0  0  0  0  0  0  0  0  0  0  0
   17.2950  -26.5233  -10.1107 C   0  0  0  0  0  0  0  0  0  0  0  0
   18.4985  -25.6802   -9.8151 C   0  0  0  0  0  0  0  0  0  0  0  0
   18.2577  -24.2493  -10.1429 C   0  0  2  0  0  0  0  0  0  0  0  0
   19.4061  -23.4191   -9.7500 N   0  0  0  0  0  0  0  0  0  0  0  0
   17.0996  -23.7488   -9.3458 C   0  0  0  0  0  0  0  0  0  0  0  0
   15.7752  -23.8114   -9.7439 O   0  0  0  0  0  0  0  0  0  0  0  0
   17.2693  -23.2055   -8.1961 O   0  0  0  0  0  0  0  0  0  0  0  0
  2  1  1  6
  2  3  1  0
  4  6  1  0
  4  2  1  0
  4  5  1  6
  6  8  1  0
  6  7  2  0
  8  9  1  0
 10  9  1  0
 11 10  1  0
 11 12  1  0
 12  8  1  0
 12 13  1  6
 14 13  2  0
 16 15  1  0
 17 16  2  0
 18 16  1  0
 19 18  1  0
 20 21  1  0
 20 19  1  1
 21 13  1  0
 22 20  1  0
 23 22  1  0
 24 22  2  0
M  END
$$$$
