VPQ.pdb
     RDKit          3D

 24 24  0  0  1  0  0  0  0  0999 V2000
   14.2065  -19.2090    1.4074 C   0  0  0  0  0  0  0  0  0  0  0  0
   15.0123  -18.5631    2.5015 C   0  0  2  0  0  0  0  0  0  0  0  0
   14.2915  -17.4031    3.0953 C   0  0  0  0  0  0  0  0  0  0  0  0
   16.4460  -18.2995    2.1014 C   0  0  2  0  0  0  0  0  0  0  0  0
   17.1088  -19.4379    1.5490 N   0  0  0  0  0  0  0  0  0  0  0  0
   17.1140  -17.6433    3.2242 C   0  0  0  0  0  0  0  0  0  0  0  0
   17.6323  -18.3786    4.1031 O   0  0  0  0  0  0  0  0  0  0  0  0
   17.2243  -16.2122    3.4015 N   0  0  0  0  0  0  0  0  0  0  0  0
   16.6757  -15.2965    2.4446 C   0  0  0  0  0  0  0  0  0  0  0  0
   16.9764  -13.9325    2.9848 C   0  0  0  0  0  0  0  0  0  0  0  0
   18.0659  -14.1192    4.0001 C   0  0  0  0  0  0  0  0  0  0  0  0
   17.8467  -15.5252    4.4692 C   0  0  1  0  0  0  0  0  0  0  0  0
   17.0091  -15.4681    5.7053 C   0  0  0  0  0  0  0  0  0  0  0  0
   15.7988  -15.1408    5.6033 O   0  0  0  0  0  0  0  0  0  0  0  0
   15.4882  -19.9825    8.8665 N   0  0  0  0  0  0  0  0  0  0  0  0
   16.8603  -19.6038    8.7658 C   0  0  0  0  0  0  0  0  0  0  0  0
   17.7192  -20.5029    8.9060 O   0  0  0  0  0  0  0  0  0  0  0  0
   17.2832  -18.2190    8.5095 C   0  0  0  0  0  0  0  0  0  0  0  0
   16.1671  -17.2249    8.3961 C   0  0  0  0  0  0  0  0  0  0  0  0
   16.6828  -15.8444    8.1933 C   0  0  2  0  0  0  0  0  0  0  0  0
   17.5236  -15.7685    6.9893 N   0  0  0  0  0  0  0  0  0  0  0  0
   17.5700  -15.4765    9.3354 C   0  0  0  0  0  0  0  0  0  0  0  0
   17.1614  -15.3603   10.6530 O   0  0  0  0  0  0  0  0  0  0  0  0
   18.8170  -15.2334    9.1569 O   0  0  0  0  0  0  0  0  0  0  0  0
  2  1  1  6
  2  3  1  0
  4  6  1  0
  4  2  1  0
  4  5  1  1
  6  8  1  0
  6  7  2  0
  8  9  1  0
 10  9  1  0
 11 10  1  0
 11 12  1  0
 12  8  1  0
 12 13  1  1
 14 13  2  0
 16 15  1  0
 17 16  2  0
 18 16  1  0
 19 18  1  0
 20 21  1  0
 20 19  1  1
 21 13  1  0
 22 20  1  0
 23 22  1  0
 24 22  2  0
M  END
$$$$
