RFY.pdb
     RDKit          3D

 35 36  0  0  1  0  0  0  0  0999 V2000
   30.0410  -18.8253  -21.3157 N   0  0  0  0  0  0  0  0  0  0  0  0
   30.7403  -19.7542  -20.4971 C   0  0  0  0  0  0  0  0  0  0  0  0
   31.5900  -20.5536  -21.0023 N   0  0  0  0  0  0  0  0  0  0  0  0
   30.4900  -19.7949  -19.0894 N   0  0  0  0  0  0  0  0  0  0  0  0
   29.4240  -19.0088  -18.4837 C   0  0  0  0  0  0  0  0  0  0  0  0
   28.1124  -19.5013  -19.0496 C   0  0  0  0  0  0  0  0  0  0  0  0
   27.1903  -19.9944  -17.9579 C   0  0  0  0  0  0  0  0  0  0  0  0
   27.8613  -20.9344  -17.0072 C   0  0  2  0  0  0  0  0  0  0  0  0
   28.2928  -22.1334  -17.7196 N   0  0  0  0  0  0  0  0  0  0  0  0
   27.0113  -21.3551  -15.8671 C   0  0  0  0  0  0  0  0  0  0  0  0
   26.1628  -22.3017  -16.0240 O   0  0  0  0  0  0  0  0  0  0  0  0
   32.1045  -21.2457  -20.4365 N   0  0  0  0  0  0  0  0  0  0  0  0
   27.1164  -20.7281  -14.5945 C   0  0  1  0  0  0  0  0  0  0  0  0
   26.2374  -21.0140  -13.4788 C   0  0  0  0  0  0  0  0  0  0  0  0
   26.8183  -20.5329  -12.1768 C   0  0  0  0  0  0  0  0  0  0  0  0
   25.9301  -20.7032  -11.0252 C   0  0  0  0  0  0  0  0  0  0  0  0
   24.9869  -19.7542  -10.6947 C   0  0  0  0  0  0  0  0  0  0  0  0
   24.1384  -19.9020   -9.6057 C   0  0  0  0  0  0  0  0  0  0  0  0
   24.2124  -21.0226   -8.8048 C   0  0  0  0  0  0  0  0  0  0  0  0
   25.1511  -21.9809   -9.1229 C   0  0  0  0  0  0  0  0  0  0  0  0
   25.9912  -21.8259  -10.2079 C   0  0  0  0  0  0  0  0  0  0  0  0
   24.8519  -20.6125  -13.7271 O   0  0  0  0  0  0  0  0  0  0  0  0
   24.5539  -19.4086  -14.0343 O   0  0  0  0  0  0  0  0  0  0  0  0
   16.4896  -20.1410  -16.1834 C   0  0  0  0  0  0  0  0  0  0  0  0
   17.8366  -20.4640  -15.9349 C   0  0  0  0  0  0  0  0  0  0  0  0
   18.1784  -21.6617  -15.3810 C   0  0  0  0  0  0  0  0  0  0  0  0
   19.5036  -21.9603  -15.1451 C   0  0  0  0  0  0  0  0  0  0  0  0
   20.5261  -21.0824  -15.4507 C   0  0  0  0  0  0  0  0  0  0  0  0
   21.9171  -21.4335  -15.1747 C   0  0  1  0  0  0  0  0  0  0  0  0
   22.3676  -21.0831  -13.7501 N   0  0  0  0  0  0  0  0  0  0  0  0
   23.7580  -21.5123  -13.6480 C   0  0  0  0  0  0  0  0  0  0  0  0
   21.5017  -21.7974  -12.8040 O   0  0  0  0  0  0  0  0  0  0  0  0
   21.7879  -23.1138  -12.4871 C   0  0  0  0  0  0  0  0  0  0  0  0
   20.1487  -19.8705  -16.0134 C   0  0  0  0  0  0  0  0  0  0  0  0
   18.8280  -19.5638  -16.2526 O   0  0  0  0  0  0  0  0  0  0  0  0
  2  1  1  0
  3  2  2  0
  4  2  1  0
  5  4  1  0
  6  5  1  0
  7  6  1  0
  8 10  1  0
  8  7  1  0
  8  9  1  6
 10 12  1  0
 11 10  2  0
 12 13  1  0
 13 21  1  0
 14 15  1  0
 13 14  1  6
 15 20  2  0
 16 17  2  0
 16 15  1  0
 17 18  1  0
 18 19  2  0
 19 20  1  0
 21 22  2  0
 21 30  1  0
 23 24  1  0
 24 25  2  0
 25 26  1  0
 27 26  2  0
 27 28  1  0
 29 28  1  6
 29 31  1  0
 30 29  1  0
 31 32  1  0
 33 27  1  0
 34 24  1  0
 34 33  2  0
 35 31  2  0
M  END
$$$$
