RFY.pdb
     RDKit          3D

 35 36  0  0  1  0  0  0  0  0999 V2000
   28.7884  -22.0737  -21.3490 N   0  0  0  0  0  0  0  0  0  0  0  0
   29.0545  -20.7596  -20.8755 C   0  0  0  0  0  0  0  0  0  0  0  0
   28.7336  -19.7426  -21.5677 N   0  0  0  0  0  0  0  0  0  0  0  0
   29.6895  -20.5725  -19.6076 N   0  0  0  0  0  0  0  0  0  0  0  0
   29.7087  -21.6277  -18.6038 C   0  0  0  0  0  0  0  0  0  0  0  0
   28.3390  -22.2652  -18.5820 C   0  0  0  0  0  0  0  0  0  0  0  0
   27.8971  -22.5763  -17.1702 C   0  0  0  0  0  0  0  0  0  0  0  0
   27.0127  -21.5193  -16.5889 C   0  0  2  0  0  0  0  0  0  0  0  0
   27.7531  -20.2669  -16.4682 N   0  0  0  0  0  0  0  0  0  0  0  0
   26.4564  -21.8576  -15.2565 C   0  0  0  0  0  0  0  0  0  0  0  0
   25.8513  -22.9736  -15.0866 O   0  0  0  0  0  0  0  0  0  0  0  0
   28.9563  -18.7793  -21.2737 N   0  0  0  0  0  0  0  0  0  0  0  0
   26.5797  -20.9661  -14.1548 C   0  0  2  0  0  0  0  0  0  0  0  0
   25.9746  -21.1962  -12.8586 C   0  0  0  0  0  0  0  0  0  0  0  0
   26.9052  -20.8218  -11.7369 C   0  0  0  0  0  0  0  0  0  0  0  0
   26.2366  -20.5954  -10.4541 C   0  0  0  0  0  0  0  0  0  0  0  0
   24.8796  -20.7834  -10.3044 C   0  0  0  0  0  0  0  0  0  0  0  0
   24.2322  -20.5723   -9.0945 C   0  0  0  0  0  0  0  0  0  0  0  0
   24.9377  -20.1605   -7.9830 C   0  0  0  0  0  0  0  0  0  0  0  0
   26.2962  -19.9681   -8.1172 C   0  0  0  0  0  0  0  0  0  0  0  0
   26.9323  -20.1804   -9.3244 C   0  0  0  0  0  0  0  0  0  0  0  0
   24.6227  -20.6449  -12.7545 O   0  0  0  0  0  0  0  0  0  0  0  0
   24.4205  -19.3838  -12.7172 O   0  0  0  0  0  0  0  0  0  0  0  0
   22.7711  -16.2931  -16.9716 C   0  0  0  0  0  0  0  0  0  0  0  0
   22.4507  -17.4388  -16.2197 C   0  0  0  0  0  0  0  0  0  0  0  0
   21.4146  -17.4275  -15.3339 C   0  0  0  0  0  0  0  0  0  0  0  0
   21.1158  -18.5597  -14.6063 C   0  0  0  0  0  0  0  0  0  0  0  0
   21.8336  -19.7335  -14.7352 C   0  0  0  0  0  0  0  0  0  0  0  0
   21.4907  -20.9082  -13.9371 C   0  0  2  0  0  0  0  0  0  0  0  0
   22.1168  -20.9024  -12.5360 N   0  0  0  0  0  0  0  0  0  0  0  0
   23.4587  -21.4532  -12.6899 C   0  0  0  0  0  0  0  0  0  0  0  0
   21.2821  -21.7282  -11.6547 O   0  0  0  0  0  0  0  0  0  0  0  0
   20.1225  -21.1909  -11.1235 C   0  0  0  0  0  0  0  0  0  0  0  0
   22.8831  -19.7161  -15.6441 C   0  0  0  0  0  0  0  0  0  0  0  0
   23.1886  -18.5900  -16.3750 O   0  0  0  0  0  0  0  0  0  0  0  0
  2  1  1  0
  3  2  2  0
  4  2  1  0
  5  4  1  0
  6  5  1  0
  7  6  1  0
  8 10  1  0
  8  7  1  0
  8  9  1  1
 10 12  1  0
 11 10  2  0
 12 13  1  0
 13 21  1  0
 14 15  1  0
 13 14  1  1
 15 20  2  0
 16 17  2  0
 16 15  1  0
 17 18  1  0
 18 19  2  0
 19 20  1  0
 21 22  2  0
 21 30  1  0
 23 24  1  0
 24 25  2  0
 25 26  1  0
 27 26  2  0
 27 28  1  0
 29 28  1  6
 29 31  1  0
 30 29  1  0
 31 32  1  0
 33 27  1  0
 34 24  1  0
 34 33  2  0
 35 31  2  0
M  END
$$$$
