RFY.pdb
     RDKit          3D

 35 36  0  0  1  0  0  0  0  0999 V2000
   28.2359  -31.7445  -18.1962 N   0  0  0  0  0  0  0  0  0  0  0  0
   28.5981  -31.7016  -16.8219 C   0  0  0  0  0  0  0  0  0  0  0  0
   29.4414  -32.5258  -16.3466 N   0  0  0  0  0  0  0  0  0  0  0  0
   28.0112  -30.7232  -15.9591 N   0  0  0  0  0  0  0  0  0  0  0  0
   27.0324  -29.7640  -16.4522 C   0  0  0  0  0  0  0  0  0  0  0  0
   27.5049  -28.3835  -16.0599 C   0  0  0  0  0  0  0  0  0  0  0  0
   26.4915  -27.6808  -15.1854 C   0  0  0  0  0  0  0  0  0  0  0  0
   25.4749  -26.9140  -15.9702 C   0  0  2  0  0  0  0  0  0  0  0  0
   26.1236  -25.8142  -16.6780 N   0  0  0  0  0  0  0  0  0  0  0  0
   24.3735  -26.3512  -15.1519 C   0  0  0  0  0  0  0  0  0  0  0  0
   24.6317  -25.4626  -14.2663 O   0  0  0  0  0  0  0  0  0  0  0  0
   29.7398  -32.5061  -15.3594 N   0  0  0  0  0  0  0  0  0  0  0  0
   23.0279  -26.7777  -15.3281 C   0  0  2  0  0  0  0  0  0  0  0  0
   21.9017  -26.2120  -14.6133 C   0  0  0  0  0  0  0  0  0  0  0  0
   21.0991  -25.2853  -15.4858 C   0  0  0  0  0  0  0  0  0  0  0  0
   19.8809  -24.7735  -14.8549 C   0  0  0  0  0  0  0  0  0  0  0  0
   19.8982  -23.6486  -14.0589 C   0  0  0  0  0  0  0  0  0  0  0  0
   18.7513  -23.1522  -13.4541 C   0  0  0  0  0  0  0  0  0  0  0  0
   17.5357  -23.7791  -13.6329 C   0  0  0  0  0  0  0  0  0  0  0  0
   17.5024  -24.9057  -14.4266 C   0  0  0  0  0  0  0  0  0  0  0  0
   18.6480  -25.3928  -15.0245 C   0  0  0  0  0  0  0  0  0  0  0  0
   21.1207  -27.2180  -13.8918 O   0  0  0  0  0  0  0  0  0  0  0  0
   20.7694  -28.3123  -14.4501 O   0  0  0  0  0  0  0  0  0  0  0  0
   24.4430  -32.1998   -9.8803 C   0  0  0  0  0  0  0  0  0  0  0  0
   23.4673  -31.1953  -10.0189 C   0  0  0  0  0  0  0  0  0  0  0  0
   23.8092  -29.8764   -9.9741 C   0  0  0  0  0  0  0  0  0  0  0  0
   22.8391  -28.9065  -10.1120 C   0  0  0  0  0  0  0  0  0  0  0  0
   21.5050  -29.2149  -10.2979 C   0  0  0  0  0  0  0  0  0  0  0  0
   20.5067  -28.1562  -10.4290 C   0  0  2  0  0  0  0  0  0  0  0  0
   19.9052  -28.0506  -11.8368 N   0  0  0  0  0  0  0  0  0  0  0  0
   20.7046  -27.0571  -12.5452 C   0  0  0  0  0  0  0  0  0  0  0  0
   18.5025  -27.6368  -11.7090 O   0  0  0  0  0  0  0  0  0  0  0  0
   17.5238  -28.6035  -11.5563 C   0  0  0  0  0  0  0  0  0  0  0  0
   21.1858  -30.5655  -10.3392 C   0  0  0  0  0  0  0  0  0  0  0  0
   22.1479  -31.5409  -10.2025 O   0  0  0  0  0  0  0  0  0  0  0  0
  2  1  1  0
  3  2  2  0
  4  2  1  0
  5  4  1  0
  6  5  1  0
  7  6  1  0
  8 10  1  0
  8  7  1  0
  8  9  1  1
 10 12  1  0
 11 10  2  0
 12 13  1  0
 13 21  1  0
 14 15  1  0
 13 14  1  6
 15 20  2  0
 16 17  2  0
 16 15  1  0
 17 18  1  0
 18 19  2  0
 19 20  1  0
 21 22  2  0
 21 30  1  0
 23 24  1  0
 24 25  2  0
 25 26  1  0
 27 26  2  0
 27 28  1  0
 29 28  1  6
 29 31  1  0
 30 29  1  0
 31 32  1  0
 33 27  1  0
 34 24  1  0
 34 33  2  0
 35 31  2  0
M  END
$$$$
