RFY.pdb
     RDKit          3D

 35 36  0  0  1  0  0  0  0  0999 V2000
   27.3767  -23.9342  -19.1991 N   0  0  0  0  0  0  0  0  0  0  0  0
   27.9280  -22.6557  -18.9104 C   0  0  0  0  0  0  0  0  0  0  0  0
   27.6886  -21.6602  -19.6641 N   0  0  0  0  0  0  0  0  0  0  0  0
   28.7615  -22.4806  -17.7613 N   0  0  0  0  0  0  0  0  0  0  0  0
   28.5971  -23.3028  -16.5704 C   0  0  0  0  0  0  0  0  0  0  0  0
   27.1284  -23.6328  -16.4399 C   0  0  0  0  0  0  0  0  0  0  0  0
   26.6766  -23.5804  -14.9982 C   0  0  0  0  0  0  0  0  0  0  0  0
   26.5517  -22.1844  -14.4758 C   0  0  2  0  0  0  0  0  0  0  0  0
   27.7925  -21.4537  -14.7164 N   0  0  0  0  0  0  0  0  0  0  0  0
   26.2408  -22.1029  -13.0280 C   0  0  0  0  0  0  0  0  0  0  0  0
   25.2467  -22.7576  -12.5550 O   0  0  0  0  0  0  0  0  0  0  0  0
   28.0844  -20.7240  -19.4881 N   0  0  0  0  0  0  0  0  0  0  0  0
   27.0256  -21.3094  -12.1459 C   0  0  2  0  0  0  0  0  0  0  0  0
   26.7128  -21.1101  -10.7453 C   0  0  0  0  0  0  0  0  0  0  0  0
   27.9295  -20.7084   -9.9563 C   0  0  0  0  0  0  0  0  0  0  0  0
   27.6518  -20.3649   -8.5603 C   0  0  0  0  0  0  0  0  0  0  0  0
   28.1071  -21.1464   -7.5205 C   0  0  0  0  0  0  0  0  0  0  0  0
   27.8512  -20.8333   -6.1923 C   0  0  0  0  0  0  0  0  0  0  0  0
   27.1204  -19.7105   -5.8637 C   0  0  0  0  0  0  0  0  0  0  0  0
   26.6582  -18.9187   -6.8932 C   0  0  0  0  0  0  0  0  0  0  0  0
   26.9172  -19.2374   -8.2116 C   0  0  0  0  0  0  0  0  0  0  0  0
   25.5327  -20.2691  -10.5387 O   0  0  0  0  0  0  0  0  0  0  0  0
   25.5622  -19.0136  -10.7742 O   0  0  0  0  0  0  0  0  0  0  0  0
   17.9853  -17.8934  -13.7070 C   0  0  0  0  0  0  0  0  0  0  0  0
   19.1717  -18.4932  -13.2454 C   0  0  0  0  0  0  0  0  0  0  0  0
   20.3387  -17.7902  -13.1975 C   0  0  0  0  0  0  0  0  0  0  0  0
   21.4909  -18.3949  -12.7421 C   0  0  0  0  0  0  0  0  0  0  0  0
   21.5200  -19.7111  -12.3219 C   0  0  0  0  0  0  0  0  0  0  0  0
   22.7650  -20.3173  -11.8562 C   0  0  2  0  0  0  0  0  0  0  0  0
   23.0148  -20.1297  -10.3537 N   0  0  0  0  0  0  0  0  0  0  0  0
   24.2923  -20.7750  -10.0720 C   0  0  0  0  0  0  0  0  0  0  0  0
   21.9089  -20.7579   -9.6206 O   0  0  0  0  0  0  0  0  0  0  0  0
   21.8963  -22.1330   -9.4645 C   0  0  0  0  0  0  0  0  0  0  0  0
   20.3175  -20.4026  -12.3818 C   0  0  0  0  0  0  0  0  0  0  0  0
   19.1620  -19.8068  -12.8350 O   0  0  0  0  0  0  0  0  0  0  0  0
  2  1  1  0
  3  2  2  0
  4  2  1  0
  5  4  1  0
  6  5  1  0
  7  6  1  0
  8 10  1  0
  8  7  1  0
  8  9  1  1
 10 12  1  0
 11 10  2  0
 12 13  1  0
 13 21  1  0
 14 15  1  0
 13 14  1  1
 15 20  2  0
 16 17  2  0
 16 15  1  0
 17 18  1  0
 18 19  2  0
 19 20  1  0
 21 22  2  0
 21 30  1  0
 23 24  1  0
 24 25  2  0
 25 26  1  0
 27 26  2  0
 27 28  1  0
 29 28  1  6
 29 31  1  0
 30 29  1  0
 31 32  1  0
 33 27  1  0
 34 24  1  0
 34 33  2  0
 35 31  2  0
M  END
$$$$
