RFY.pdb
     RDKit          3D

 35 36  0  0  1  0  0  0  0  0999 V2000
   21.9177  -18.2790  -17.6435 N   0  0  0  0  0  0  0  0  0  0  0  0
   21.5913  -18.3255  -16.2603 C   0  0  0  0  0  0  0  0  0  0  0  0
   21.5151  -17.2574  -15.5750 N   0  0  0  0  0  0  0  0  0  0  0  0
   21.3449  -19.5840  -15.6268 N   0  0  0  0  0  0  0  0  0  0  0  0
   21.4665  -20.8389  -16.3559 C   0  0  0  0  0  0  0  0  0  0  0  0
   22.6289  -21.6022  -15.7649 C   0  0  0  0  0  0  0  0  0  0  0  0
   23.6390  -21.9779  -16.8250 C   0  0  0  0  0  0  0  0  0  0  0  0
   24.5572  -20.8523  -17.1817 C   0  0  2  0  0  0  0  0  0  0  0  0
   25.1986  -21.1252  -18.4644 N   0  0  0  0  0  0  0  0  0  0  0  0
   25.6195  -20.5938  -16.1796 C   0  0  0  0  0  0  0  0  0  0  0  0
   26.6296  -21.3781  -16.1095 O   0  0  0  0  0  0  0  0  0  0  0  0
   21.3502  -17.2628  -14.5567 N   0  0  0  0  0  0  0  0  0  0  0  0
   25.5429  -19.4878  -15.2882 C   0  0  2  0  0  0  0  0  0  0  0  0
   26.5438  -19.1897  -14.2840 C   0  0  0  0  0  0  0  0  0  0  0  0
   27.1210  -17.8122  -14.4670 C   0  0  0  0  0  0  0  0  0  0  0  0
   27.7688  -17.6014  -15.7631 C   0  0  0  0  0  0  0  0  0  0  0  0
   28.9645  -18.2092  -16.0797 C   0  0  0  0  0  0  0  0  0  0  0  0
   29.5904  -18.0183  -17.3042 C   0  0  0  0  0  0  0  0  0  0  0  0
   29.0266  -17.2002  -18.2610 C   0  0  0  0  0  0  0  0  0  0  0  0
   27.8304  -16.5851  -17.9589 C   0  0  0  0  0  0  0  0  0  0  0  0
   27.2146  -16.7804  -16.7384 C   0  0  0  0  0  0  0  0  0  0  0  0
   26.0984  -19.5012  -12.9249 O   0  0  0  0  0  0  0  0  0  0  0  0
   25.1044  -18.8966  -12.3966 O   0  0  0  0  0  0  0  0  0  0  0  0
   20.2202  -20.4563  -12.4194 C   0  0  0  0  0  0  0  0  0  0  0  0
   21.5097  -20.7964  -11.9698 C   0  0  0  0  0  0  0  0  0  0  0  0
   21.9022  -20.5182  -10.6943 C   0  0  0  0  0  0  0  0  0  0  0  0
   23.1695  -20.8592  -10.2720 C   0  0  0  0  0  0  0  0  0  0  0  0
   24.0826  -21.4843  -11.0998 C   0  0  0  0  0  0  0  0  0  0  0  0
   25.4199  -21.8191  -10.6159 C   0  0  2  0  0  0  0  0  0  0  0  0
   26.4116  -20.6506  -10.6945 N   0  0  0  0  0  0  0  0  0  0  0  0
   26.7236  -20.4789  -12.1091 C   0  0  0  0  0  0  0  0  0  0  0  0
   27.6008  -21.0015   -9.9086 O   0  0  0  0  0  0  0  0  0  0  0  0
   28.7729  -21.3310  -10.5667 C   0  0  0  0  0  0  0  0  0  0  0  0
   23.6559  -21.7550  -12.3930 C   0  0  0  0  0  0  0  0  0  0  0  0
   22.3922  -21.4183  -12.8233 O   0  0  0  0  0  0  0  0  0  0  0  0
  2  1  1  0
  3  2  2  0
  4  2  1  0
  5  4  1  0
  6  5  1  0
  7  6  1  0
  8 10  1  0
  8  7  1  0
  8  9  1  6
 10 12  1  0
 11 10  2  0
 12 13  1  0
 13 21  1  0
 14 15  1  0
 13 14  1  6
 15 20  2  0
 16 17  2  0
 16 15  1  0
 17 18  1  0
 18 19  2  0
 19 20  1  0
 21 22  2  0
 21 30  1  0
 23 24  1  0
 24 25  2  0
 25 26  1  0
 27 26  2  0
 27 28  1  0
 29 28  1  6
 29 31  1  0
 30 29  1  0
 31 32  1  0
 33 27  1  0
 34 24  1  0
 34 33  2  0
 35 31  2  0
M  END
$$$$
