RFY.pdb
     RDKit          3D

 35 36  0  0  1  0  0  0  0  0999 V2000
   22.2357   -7.7083  -16.1592 N   0  0  0  0  0  0  0  0  0  0  0  0
   21.0699   -8.2658  -16.7526 C   0  0  0  0  0  0  0  0  0  0  0  0
   19.9120   -7.9298  -16.3490 N   0  0  0  0  0  0  0  0  0  0  0  0
   21.1939   -9.2150  -17.8153 N   0  0  0  0  0  0  0  0  0  0  0  0
   22.4914   -9.5567  -18.3819 C   0  0  0  0  0  0  0  0  0  0  0  0
   22.2570  -10.5393  -19.5055 C   0  0  0  0  0  0  0  0  0  0  0  0
   23.5517  -10.9158  -20.1891 C   0  0  0  0  0  0  0  0  0  0  0  0
   24.7626  -10.4667  -19.4344 C   0  0  2  0  0  0  0  0  0  0  0  0
   25.4747   -9.4497  -20.2024 N   0  0  0  0  0  0  0  0  0  0  0  0
   25.7168  -11.5556  -19.1131 C   0  0  0  0  0  0  0  0  0  0  0  0
   26.5793  -11.9212  -19.9866 O   0  0  0  0  0  0  0  0  0  0  0  0
   19.0480   -8.2910  -16.7816 N   0  0  0  0  0  0  0  0  0  0  0  0
   25.6970  -12.2082  -17.8493 C   0  0  2  0  0  0  0  0  0  0  0  0
   26.6035  -13.2757  -17.4778 C   0  0  0  0  0  0  0  0  0  0  0  0
   27.4977  -12.8729  -16.3366 C   0  0  0  0  0  0  0  0  0  0  0  0
   28.4724  -11.8345  -16.6768 C   0  0  0  0  0  0  0  0  0  0  0  0
   28.1848  -10.4957  -16.5205 C   0  0  0  0  0  0  0  0  0  0  0  0
   29.0987   -9.5004  -16.8391 C   0  0  0  0  0  0  0  0  0  0  0  0
   30.3462   -9.8237  -17.3310 C   0  0  0  0  0  0  0  0  0  0  0  0
   30.6486  -11.1590  -17.4928 C   0  0  0  0  0  0  0  0  0  0  0  0
   29.7336  -12.1427  -17.1734 C   0  0  0  0  0  0  0  0  0  0  0  0
   25.9297  -14.5648  -17.3142 O   0  0  0  0  0  0  0  0  0  0  0  0
   25.0687  -14.7517  -16.3889 O   0  0  0  0  0  0  0  0  0  0  0  0
   19.9545  -13.4808  -18.7126 C   0  0  0  0  0  0  0  0  0  0  0  0
   21.0745  -14.3195  -18.8633 C   0  0  0  0  0  0  0  0  0  0  0  0
   22.1786  -13.8976  -19.5424 C   0  0  0  0  0  0  0  0  0  0  0  0
   23.2663  -14.7336  -19.6794 C   0  0  0  0  0  0  0  0  0  0  0  0
   23.2912  -16.0092  -19.1486 C   0  0  0  0  0  0  0  0  0  0  0  0
   24.4602  -16.8675  -19.3258 C   0  0  2  0  0  0  0  0  0  0  0  0
   25.3853  -16.9051  -18.1019 N   0  0  0  0  0  0  0  0  0  0  0  0
   26.1765  -15.6807  -18.1547 C   0  0  0  0  0  0  0  0  0  0  0  0
   26.2248  -18.1057  -18.1954 O   0  0  0  0  0  0  0  0  0  0  0  0
   25.7856  -19.2843  -17.6178 C   0  0  0  0  0  0  0  0  0  0  0  0
   22.1533  -16.4123  -18.4626 C   0  0  0  0  0  0  0  0  0  0  0  0
   21.0626  -15.5842  -18.3206 O   0  0  0  0  0  0  0  0  0  0  0  0
  2  1  1  0
  3  2  2  0
  4  2  1  0
  5  4  1  0
  6  5  1  0
  7  6  1  0
  8 10  1  0
  8  7  1  0
  8  9  1  6
 10 12  1  0
 11 10  2  0
 12 13  1  0
 13 21  1  0
 14 15  1  0
 13 14  1  6
 15 20  2  0
 16 17  2  0
 16 15  1  0
 17 18  1  0
 18 19  2  0
 19 20  1  0
 21 22  2  0
 21 30  1  0
 23 24  1  0
 24 25  2  0
 25 26  1  0
 27 26  2  0
 27 28  1  0
 29 28  1  1
 29 31  1  0
 30 29  1  0
 31 32  1  0
 33 27  1  0
 34 24  1  0
 34 33  2  0
 35 31  2  0
M  END
$$$$
