RFY.pdb
     RDKit          3D

 35 36  0  0  1  0  0  0  0  0999 V2000
   30.4188  -22.4582  -20.9591 N   0  0  0  0  0  0  0  0  0  0  0  0
   29.9371  -23.7949  -20.9038 C   0  0  0  0  0  0  0  0  0  0  0  0
   30.5355  -24.7271  -21.5278 N   0  0  0  0  0  0  0  0  0  0  0  0
   28.7673  -24.1011  -20.1398 N   0  0  0  0  0  0  0  0  0  0  0  0
   27.9722  -23.0536  -19.5140 C   0  0  0  0  0  0  0  0  0  0  0  0
   28.2698  -23.0746  -18.0328 C   0  0  0  0  0  0  0  0  0  0  0  0
   27.0109  -23.2706  -17.2192 C   0  0  0  0  0  0  0  0  0  0  0  0
   26.4309  -21.9845  -16.7220 C   0  0  2  0  0  0  0  0  0  0  0  0
   27.4543  -20.9435  -16.7338 N   0  0  0  0  0  0  0  0  0  0  0  0
   25.8660  -22.0618  -15.3530 C   0  0  0  0  0  0  0  0  0  0  0  0
   24.9002  -22.8672  -15.1099 O   0  0  0  0  0  0  0  0  0  0  0  0
   30.2259  -25.7101  -21.4853 N   0  0  0  0  0  0  0  0  0  0  0  0
   26.3747  -21.2572  -14.2958 C   0  0  1  0  0  0  0  0  0  0  0  0
   25.7763  -21.1827  -12.9784 C   0  0  0  0  0  0  0  0  0  0  0  0
   26.7794  -20.7701  -11.9354 C   0  0  0  0  0  0  0  0  0  0  0  0
   26.2284  -20.6643  -10.5830 C   0  0  0  0  0  0  0  0  0  0  0  0
   25.8661  -19.4486  -10.0443 C   0  0  0  0  0  0  0  0  0  0  0  0
   25.3428  -19.3331   -8.7635 C   0  0  0  0  0  0  0  0  0  0  0  0
   25.1649  -20.4502   -7.9742 C   0  0  0  0  0  0  0  0  0  0  0  0
   25.5227  -21.6737   -8.4994 C   0  0  0  0  0  0  0  0  0  0  0  0
   26.0425  -21.7796   -9.7743 C   0  0  0  0  0  0  0  0  0  0  0  0
   24.5204  -20.4310  -12.9643 O   0  0  0  0  0  0  0  0  0  0  0  0
   24.4772  -19.2028  -13.3140 O   0  0  0  0  0  0  0  0  0  0  0  0
   16.3415  -17.7030  -14.0651 C   0  0  0  0  0  0  0  0  0  0  0  0
   17.5654  -18.3933  -13.9875 C   0  0  0  0  0  0  0  0  0  0  0  0
   18.7455  -17.7551  -14.2293 C   0  0  0  0  0  0  0  0  0  0  0  0
   19.9345  -18.4481  -14.1483 C   0  0  0  0  0  0  0  0  0  0  0  0
   19.9884  -19.7908  -13.8260 C   0  0  0  0  0  0  0  0  0  0  0  0
   21.2692  -20.4908  -13.7613 C   0  0  1  0  0  0  0  0  0  0  0  0
   22.0498  -20.2240  -12.4673 N   0  0  0  0  0  0  0  0  0  0  0  0
   23.2815  -20.9988  -12.5704 C   0  0  0  0  0  0  0  0  0  0  0  0
   21.2234  -20.6552  -11.3332 O   0  0  0  0  0  0  0  0  0  0  0  0
   20.4664  -19.7171  -10.6532 C   0  0  0  0  0  0  0  0  0  0  0  0
   18.7717  -20.4150  -13.5853 C   0  0  0  0  0  0  0  0  0  0  0  0
   17.5796  -19.7308  -13.6637 O   0  0  0  0  0  0  0  0  0  0  0  0
  2  1  1  0
  3  2  2  0
  4  2  1  0
  5  4  1  0
  6  5  1  0
  7  6  1  0
  8 10  1  0
  8  7  1  0
  8  9  1  1
 10 12  1  0
 11 10  2  0
 12 13  1  0
 13 21  1  0
 14 15  1  0
 13 14  1  6
 15 20  2  0
 16 17  2  0
 16 15  1  0
 17 18  1  0
 18 19  2  0
 19 20  1  0
 21 22  2  0
 21 30  1  0
 23 24  1  0
 24 25  2  0
 25 26  1  0
 27 26  2  0
 27 28  1  0
 29 28  1  6
 29 31  1  0
 30 29  1  0
 31 32  1  0
 33 27  1  0
 34 24  1  0
 34 33  2  0
 35 31  2  0
M  END
$$$$
