RFY.pdb
     RDKit          3D

 35 36  0  0  1  0  0  0  0  0999 V2000
   28.2947  -26.6044  -16.3476 N   0  0  0  0  0  0  0  0  0  0  0  0
   27.9151  -25.9132  -17.5308 C   0  0  0  0  0  0  0  0  0  0  0  0
   27.3228  -26.5221  -18.4767 N   0  0  0  0  0  0  0  0  0  0  0  0
   28.1995  -24.5179  -17.6649 N   0  0  0  0  0  0  0  0  0  0  0  0
   28.5767  -23.7051  -16.5166 C   0  0  0  0  0  0  0  0  0  0  0  0
   28.7793  -22.2891  -17.0034 C   0  0  0  0  0  0  0  0  0  0  0  0
   28.0922  -21.2908  -16.0998 C   0  0  0  0  0  0  0  0  0  0  0  0
   26.6192  -21.5245  -15.9848 C   0  0  2  0  0  0  0  0  0  0  0  0
   25.9420  -21.0019  -17.1679 N   0  0  0  0  0  0  0  0  0  0  0  0
   25.9980  -20.9090  -14.7871 C   0  0  0  0  0  0  0  0  0  0  0  0
   25.9380  -19.6333  -14.6886 O   0  0  0  0  0  0  0  0  0  0  0  0
   27.0799  -26.0606  -19.3667 N   0  0  0  0  0  0  0  0  0  0  0  0
   25.4634  -21.7069  -13.7377 C   0  0  2  0  0  0  0  0  0  0  0  0
   24.9096  -21.1649  -12.5135 C   0  0  0  0  0  0  0  0  0  0  0  0
   23.4249  -21.3938  -12.4266 C   0  0  0  0  0  0  0  0  0  0  0  0
   22.6468  -20.6676  -13.4322 C   0  0  0  0  0  0  0  0  0  0  0  0
   22.2735  -21.2576  -14.6204 C   0  0  0  0  0  0  0  0  0  0  0  0
   21.5362  -20.5813  -15.5830 C   0  0  0  0  0  0  0  0  0  0  0  0
   21.1461  -19.2741  -15.3787 C   0  0  0  0  0  0  0  0  0  0  0  0
   21.5121  -18.6703  -14.1947 C   0  0  0  0  0  0  0  0  0  0  0  0
   22.2456  -19.3503  -13.2425 C   0  0  0  0  0  0  0  0  0  0  0  0
   25.6687  -21.5526  -11.3236 O   0  0  0  0  0  0  0  0  0  0  0  0
   25.7204  -22.7689  -10.9355 O   0  0  0  0  0  0  0  0  0  0  0  0
   29.1055  -19.9291   -3.2248 C   0  0  0  0  0  0  0  0  0  0  0  0
   28.7165  -19.8644   -4.5757 C   0  0  0  0  0  0  0  0  0  0  0  0
   29.1479  -20.7950   -5.4736 C   0  0  0  0  0  0  0  0  0  0  0  0
   28.7560  -20.7151   -6.7930 C   0  0  0  0  0  0  0  0  0  0  0  0
   27.9270  -19.7128   -7.2597 C   0  0  0  0  0  0  0  0  0  0  0  0
   27.5439  -19.6582   -8.6685 C   0  0  1  0  0  0  0  0  0  0  0  0
   26.7085  -20.8620   -9.1246 N   0  0  0  0  0  0  0  0  0  0  0  0
   26.3905  -20.6257  -10.5285 C   0  0  0  0  0  0  0  0  0  0  0  0
   25.5014  -20.9274   -8.2917 O   0  0  0  0  0  0  0  0  0  0  0  0
   25.4474  -21.8369   -7.2499 C   0  0  0  0  0  0  0  0  0  0  0  0
   27.5035  -18.7790   -6.3235 C   0  0  0  0  0  0  0  0  0  0  0  0
   27.8897  -18.8510   -5.0039 O   0  0  0  0  0  0  0  0  0  0  0  0
  2  1  1  0
  3  2  2  0
  4  2  1  0
  5  4  1  0
  6  5  1  0
  7  6  1  0
  8 10  1  0
  8  7  1  0
  8  9  1  6
 10 12  1  0
 11 10  2  0
 12 13  1  0
 13 21  1  0
 14 15  1  0
 13 14  1  6
 15 20  2  0
 16 17  2  0
 16 15  1  0
 17 18  1  0
 18 19  2  0
 19 20  1  0
 21 22  2  0
 21 30  1  0
 23 24  1  0
 24 25  2  0
 25 26  1  0
 27 26  2  0
 27 28  1  0
 29 28  1  6
 29 31  1  0
 30 29  1  0
 31 32  1  0
 33 27  1  0
 34 24  1  0
 34 33  2  0
 35 31  2  0
M  END
$$$$
