RFY.pdb
     RDKit          3D

 35 36  0  0  1  0  0  0  0  0999 V2000
   28.5041  -20.5752  -18.5739 N   0  0  0  0  0  0  0  0  0  0  0  0
   27.2788  -19.8915  -18.8045 C   0  0  0  0  0  0  0  0  0  0  0  0
   26.6552  -20.0295  -19.9038 N   0  0  0  0  0  0  0  0  0  0  0  0
   26.7363  -19.0378  -17.7932 N   0  0  0  0  0  0  0  0  0  0  0  0
   27.2367  -19.0661  -16.4256 C   0  0  0  0  0  0  0  0  0  0  0  0
   26.6162  -20.2580  -15.7346 C   0  0  0  0  0  0  0  0  0  0  0  0
   26.2174  -19.9271  -14.3145 C   0  0  0  0  0  0  0  0  0  0  0  0
   27.0248  -20.6650  -13.2942 C   0  0  2  0  0  0  0  0  0  0  0  0
   27.5745  -21.8818  -13.8846 N   0  0  0  0  0  0  0  0  0  0  0  0
   26.2667  -21.0436  -12.0771 C   0  0  0  0  0  0  0  0  0  0  0  0
   25.6982  -22.1897  -12.0150 O   0  0  0  0  0  0  0  0  0  0  0  0
   25.7598  -19.5550  -20.0964 N   0  0  0  0  0  0  0  0  0  0  0  0
   26.1550  -20.1582  -10.9693 C   0  0  1  0  0  0  0  0  0  0  0  0
   25.3265  -20.4173   -9.8093 C   0  0  0  0  0  0  0  0  0  0  0  0
   25.6545  -19.4865   -8.6735 C   0  0  0  0  0  0  0  0  0  0  0  0
   26.8623  -19.8507   -7.9301 C   0  0  0  0  0  0  0  0  0  0  0  0
   27.4050  -19.0130   -6.9798 C   0  0  0  0  0  0  0  0  0  0  0  0
   28.5496  -19.3448   -6.2676 C   0  0  0  0  0  0  0  0  0  0  0  0
   29.1928  -20.5444   -6.4914 C   0  0  0  0  0  0  0  0  0  0  0  0
   28.6618  -21.3931   -7.4391 C   0  0  0  0  0  0  0  0  0  0  0  0
   27.5228  -21.0552   -8.1431 C   0  0  0  0  0  0  0  0  0  0  0  0
   23.9035  -20.5209  -10.1366 O   0  0  0  0  0  0  0  0  0  0  0  0
   23.3760  -19.7933  -11.0449 O   0  0  0  0  0  0  0  0  0  0  0  0
   16.1043  -23.5060  -12.4808 C   0  0  0  0  0  0  0  0  0  0  0  0
   17.4358  -23.2765  -12.0873 C   0  0  0  0  0  0  0  0  0  0  0  0
   18.0415  -24.0780  -11.1658 C   0  0  0  0  0  0  0  0  0  0  0  0
   19.3468  -23.8374  -10.7930 C   0  0  0  0  0  0  0  0  0  0  0  0
   20.0881  -22.7978  -11.3214 C   0  0  0  0  0  0  0  0  0  0  0  0
   21.4657  -22.5709  -10.8911 C   0  0  1  0  0  0  0  0  0  0  0  0
   21.5989  -21.5040   -9.7960 N   0  0  0  0  0  0  0  0  0  0  0  0
   23.0213  -21.4197   -9.4837 C   0  0  0  0  0  0  0  0  0  0  0  0
   20.8067  -21.9320   -8.6366 O   0  0  0  0  0  0  0  0  0  0  0  0
   19.4712  -21.5763   -8.5619 C   0  0  0  0  0  0  0  0  0  0  0  0
   19.4460  -21.9979  -12.2572 C   0  0  0  0  0  0  0  0  0  0  0  0
   18.1429  -22.2308  -12.6356 O   0  0  0  0  0  0  0  0  0  0  0  0
  2  1  1  0
  3  2  2  0
  4  2  1  0
  5  4  1  0
  6  5  1  0
  7  6  1  0
  8 10  1  0
  8  7  1  0
  8  9  1  6
 10 12  1  0
 11 10  2  0
 12 13  1  0
 13 21  1  0
 14 15  1  0
 13 14  1  6
 15 20  2  0
 16 17  2  0
 16 15  1  0
 17 18  1  0
 18 19  2  0
 19 20  1  0
 21 22  2  0
 21 30  1  0
 23 24  1  0
 24 25  2  0
 25 26  1  0
 27 26  2  0
 27 28  1  0
 29 28  1  6
 29 31  1  0
 30 29  1  0
 31 32  1  0
 33 27  1  0
 34 24  1  0
 34 33  2  0
 35 31  2  0
M  END
$$$$
