RFY.pdb
     RDKit          3D

 35 36  0  0  1  0  0  0  0  0999 V2000
   24.2335  -20.7763  -21.6960 N   0  0  0  0  0  0  0  0  0  0  0  0
   25.2461  -19.8249  -21.9980 C   0  0  0  0  0  0  0  0  0  0  0  0
   25.2387  -19.1978  -23.1039 N   0  0  0  0  0  0  0  0  0  0  0  0
   26.2871  -19.5656  -21.0520 N   0  0  0  0  0  0  0  0  0  0  0  0
   26.9684  -20.6482  -20.3555 C   0  0  0  0  0  0  0  0  0  0  0  0
   26.1111  -21.0467  -19.1769 C   0  0  0  0  0  0  0  0  0  0  0  0
   26.6777  -20.5193  -17.8784 C   0  0  0  0  0  0  0  0  0  0  0  0
   27.2503  -21.5954  -17.0114 C   0  0  2  0  0  0  0  0  0  0  0  0
   27.2335  -22.8678  -17.7269 N   0  0  0  0  0  0  0  0  0  0  0  0
   26.5394  -21.7803  -15.7231 C   0  0  0  0  0  0  0  0  0  0  0  0
   25.6546  -22.6998  -15.6132 O   0  0  0  0  0  0  0  0  0  0  0  0
   25.9478  -18.4879  -23.3433 N   0  0  0  0  0  0  0  0  0  0  0  0
   26.8187  -20.9551  -14.5985 C   0  0  2  0  0  0  0  0  0  0  0  0
   26.2209  -21.1419  -13.2920 C   0  0  0  0  0  0  0  0  0  0  0  0
   27.0683  -20.5422  -12.2027 C   0  0  0  0  0  0  0  0  0  0  0  0
   26.4490  -20.5730  -10.8762 C   0  0  0  0  0  0  0  0  0  0  0  0
   25.7857  -19.4789  -10.3638 C   0  0  0  0  0  0  0  0  0  0  0  0
   25.1941  -19.4935   -9.1079 C   0  0  0  0  0  0  0  0  0  0  0  0
   25.2514  -20.6227   -8.3178 C   0  0  0  0  0  0  0  0  0  0  0  0
   25.9115  -21.7253   -8.8168 C   0  0  0  0  0  0  0  0  0  0  0  0
   26.4973  -21.7023  -10.0671 C   0  0  0  0  0  0  0  0  0  0  0  0
   24.8057  -20.7700  -13.2540 O   0  0  0  0  0  0  0  0  0  0  0  0
   24.3919  -19.6769  -13.7701 O   0  0  0  0  0  0  0  0  0  0  0  0
   16.8185  -18.5191  -10.9003 C   0  0  0  0  0  0  0  0  0  0  0  0
   18.1560  -18.9122  -11.0926 C   0  0  0  0  0  0  0  0  0  0  0  0
   18.7660  -19.7675  -10.2238 C   0  0  0  0  0  0  0  0  0  0  0  0
   20.0771  -20.1413  -10.4288 C   0  0  0  0  0  0  0  0  0  0  0  0
   20.8201  -19.6793  -11.4984 C   0  0  0  0  0  0  0  0  0  0  0  0
   22.2107  -20.0918  -11.6733 C   0  0  2  0  0  0  0  0  0  0  0  0
   22.3890  -21.2392  -12.6767 N   0  0  0  0  0  0  0  0  0  0  0  0
   23.8072  -21.5799  -12.6543 C   0  0  0  0  0  0  0  0  0  0  0  0
   21.9587  -20.7668  -13.9984 O   0  0  0  0  0  0  0  0  0  0  0  0
   20.6944  -21.0959  -14.4552 C   0  0  0  0  0  0  0  0  0  0  0  0
   20.1737  -18.8096  -12.3665 C   0  0  0  0  0  0  0  0  0  0  0  0
   18.8647  -18.4310  -12.1698 O   0  0  0  0  0  0  0  0  0  0  0  0
  2  1  1  0
  3  2  2  0
  4  2  1  0
  5  4  1  0
  6  5  1  0
  7  6  1  0
  8 10  1  0
  8  7  1  0
  8  9  1  6
 10 12  1  0
 11 10  2  0
 12 13  1  0
 13 21  1  0
 14 15  1  0
 13 14  1  1
 15 20  2  0
 16 17  2  0
 16 15  1  0
 17 18  1  0
 18 19  2  0
 19 20  1  0
 21 22  2  0
 21 30  1  0
 23 24  1  0
 24 25  2  0
 25 26  1  0
 27 26  2  0
 27 28  1  0
 29 28  1  1
 29 31  1  0
 30 29  1  0
 31 32  1  0
 33 27  1  0
 34 24  1  0
 34 33  2  0
 35 31  2  0
M  END
$$$$
