PLE.pdb
     RDKit          3D

 25 25  0  0  1  0  0  0  0  0999 V2000
   26.9581  -19.0598  -14.6219 N   0  0  0  0  0  0  0  0  0  0  0  0
   28.2133  -18.5562  -15.1554 C   0  0  0  0  0  0  0  0  0  0  0  0
   29.1062  -19.7164  -15.4388 C   0  0  0  0  0  0  0  0  0  0  0  0
   28.4647  -20.8562  -14.6805 C   0  0  0  0  0  0  0  0  0  0  0  0
   26.9848  -20.4817  -14.8017 C   0  0  1  0  0  0  0  0  0  0  0  0
   26.1420  -21.2430  -13.8828 C   0  0  0  0  0  0  0  0  0  0  0  0
   25.9870  -22.4821  -14.1197 O   0  0  0  0  0  0  0  0  0  0  0  0
   25.4721  -19.2663   -9.2704 C   0  0  0  0  0  0  0  0  0  0  0  0
   25.9836  -20.3937  -10.0699 C   0  0  1  0  0  0  0  0  0  0  0  0
   27.2443  -20.9046   -9.3573 C   0  0  0  0  0  0  0  0  0  0  0  0
   25.1032  -21.4771  -10.4971 C   0  0  0  0  0  0  0  0  0  0  0  0
   24.6262  -21.6259  -11.8804 C   0  0  2  0  0  0  0  0  0  0  0  0
   25.4747  -20.7322  -12.7445 N   0  0  0  0  0  0  0  0  0  0  0  0
   23.2269  -21.1927  -12.0933 C   0  0  0  0  0  0  0  0  0  0  0  0
   22.2526  -21.6804  -11.4762 O   0  0  0  0  0  0  0  0  0  0  0  0
   22.8847  -20.1729  -13.0319 N   0  0  0  0  0  0  0  0  0  0  0  0
   21.5027  -19.8854  -13.3725 C   0  0  1  0  0  0  0  0  0  0  0  0
   21.3912  -18.7602  -14.3404 C   0  0  0  0  0  0  0  0  0  0  0  0
   21.6319  -19.0793  -15.7757 C   0  0  0  0  0  0  0  0  0  0  0  0
   21.2893  -18.0379  -16.7361 C   0  0  0  0  0  0  0  0  0  0  0  0
   20.7689  -16.9696  -16.3627 O   0  0  0  0  0  0  0  0  0  0  0  0
   20.9422  -21.1161  -13.9730 C   0  0  0  0  0  0  0  0  0  0  0  0
   21.6833  -22.1122  -14.5720 O   0  0  0  0  0  0  0  0  0  0  0  0
   21.5369  -18.2190  -18.0808 O   0  0  0  0  0  0  0  0  0  0  0  0
   19.6876  -21.3027  -13.9558 O   0  0  0  0  0  0  0  0  0  0  0  0
  2  1  1  0
  3  2  1  0
  4  3  1  0
  4  5  1  0
  5  1  1  0
  5  6  1  1
  6  7  2  0
  9  8  1  1
  9 10  1  0
 11  9  1  0
 12 11  1  1
 13  6  1  0
 13 12  1  0
 14 12  1  0
 14 16  1  0
 15 14  2  0
 17 16  1  0
 17 22  1  0
 17 18  1  6
 19 18  1  0
 19 20  1  0
 20 24  1  0
 21 20  2  0
 22 23  1  0
 25 22  2  0
M  END
$$$$
