PLE.pdb
     RDKit          3D

 25 25  0  0  1  0  0  0  0  0999 V2000
   41.2297  -10.9286  -12.8024 N   0  0  0  0  0  0  0  0  0  0  0  0
   42.4524  -11.2054  -13.5388 C   0  0  0  0  0  0  0  0  0  0  0  0
   43.6140  -10.8009  -12.6958 C   0  0  0  0  0  0  0  0  0  0  0  0
   42.9956   -9.9261  -11.6290 C   0  0  0  0  0  0  0  0  0  0  0  0
   41.6294  -10.5985  -11.4660 C   0  0  1  0  0  0  0  0  0  0  0  0
   40.6871   -9.7683  -10.7197 C   0  0  0  0  0  0  0  0  0  0  0  0
   39.9249   -9.0015  -11.3878 O   0  0  0  0  0  0  0  0  0  0  0  0
   37.0736  -10.6009   -6.1624 C   0  0  0  0  0  0  0  0  0  0  0  0
   37.5678   -9.8884   -7.3540 C   0  0  1  0  0  0  0  0  0  0  0  0
   36.6484   -8.6752   -7.5564 C   0  0  0  0  0  0  0  0  0  0  0  0
   38.9809   -9.5515   -7.5003 C   0  0  0  0  0  0  0  0  0  0  0  0
   39.5187   -8.8342   -8.6663 C   0  0  2  0  0  0  0  0  0  0  0  0
   40.5379   -9.7332   -9.3131 N   0  0  0  0  0  0  0  0  0  0  0  0
   40.2306   -7.5793   -8.3359 C   0  0  0  0  0  0  0  0  0  0  0  0
   41.3491   -7.5486   -7.7739 O   0  0  0  0  0  0  0  0  0  0  0  0
   39.6833   -6.2962   -8.6393 N   0  0  0  0  0  0  0  0  0  0  0  0
   40.3818   -5.0706   -8.2946 C   0  0  1  0  0  0  0  0  0  0  0  0
   40.5413   -4.1722   -9.4705 C   0  0  0  0  0  0  0  0  0  0  0  0
   41.6110   -4.5228  -10.4466 C   0  0  0  0  0  0  0  0  0  0  0  0
   41.7037   -3.6828  -11.6341 C   0  0  0  0  0  0  0  0  0  0  0  0
   40.7312   -3.5495  -12.4008 O   0  0  0  0  0  0  0  0  0  0  0  0
   39.5751   -4.3927   -7.2559 C   0  0  0  0  0  0  0  0  0  0  0  0
   40.0592   -3.4645   -6.3591 O   0  0  0  0  0  0  0  0  0  0  0  0
   42.8756   -3.0184  -11.9298 O   0  0  0  0  0  0  0  0  0  0  0  0
   38.3400   -4.6623   -7.1512 O   0  0  0  0  0  0  0  0  0  0  0  0
  2  1  1  0
  3  2  1  0
  4  3  1  0
  4  5  1  0
  5  1  1  0
  5  6  1  6
  6  7  2  0
  9  8  1  1
  9 10  1  0
 11  9  1  0
 12 11  1  1
 13  6  1  0
 13 12  1  0
 14 12  1  0
 14 16  1  0
 15 14  2  0
 17 16  1  0
 17 22  1  0
 17 18  1  6
 19 18  1  0
 19 20  1  0
 20 24  1  0
 21 20  2  0
 22 23  1  0
 25 22  2  0
M  END
$$$$
