PLE.pdb
     RDKit          3D

 25 25  0  0  1  0  0  0  0  0999 V2000
   19.8403  -11.3755  -14.6826 N   0  0  0  0  0  0  0  0  0  0  0  0
   20.3147  -12.5829  -15.3392 C   0  0  0  0  0  0  0  0  0  0  0  0
   19.3899  -12.9041  -16.4639 C   0  0  0  0  0  0  0  0  0  0  0  0
   18.1656  -12.0664  -16.1721 C   0  0  0  0  0  0  0  0  0  0  0  0
   18.8092  -10.8386  -15.5212 C   0  0  1  0  0  0  0  0  0  0  0  0
   17.8305   -9.9922  -14.8431 C   0  0  0  0  0  0  0  0  0  0  0  0
   17.0053   -9.3534  -15.5686 O   0  0  0  0  0  0  0  0  0  0  0  0
   13.7026   -8.5726  -11.5332 C   0  0  0  0  0  0  0  0  0  0  0  0
   14.9619   -9.0471  -10.9324 C   0  0  1  0  0  0  0  0  0  0  0  0
   14.5755   -9.9480   -9.7503 C   0  0  0  0  0  0  0  0  0  0  0  0
   16.0203   -9.6253  -11.7552 C   0  0  0  0  0  0  0  0  0  0  0  0
   16.6528   -8.9061  -12.8714 C   0  0  2  0  0  0  0  0  0  0  0  0
   17.7096   -9.8114  -13.4450 N   0  0  0  0  0  0  0  0  0  0  0  0
   17.3499   -7.6609  -12.4782 C   0  0  0  0  0  0  0  0  0  0  0  0
   18.4156   -7.6454  -11.8210 O   0  0  0  0  0  0  0  0  0  0  0  0
   16.8482   -6.3704  -12.8260 N   0  0  0  0  0  0  0  0  0  0  0  0
   17.6803   -5.1832  -12.7431 C   0  0  1  0  0  0  0  0  0  0  0  0
   18.9916   -5.3752  -13.4205 C   0  0  0  0  0  0  0  0  0  0  0  0
   19.8961   -4.1930  -13.4861 C   0  0  0  0  0  0  0  0  0  0  0  0
   21.1905   -4.4034  -14.1221 C   0  0  0  0  0  0  0  0  0  0  0  0
   22.0191   -3.4775  -14.2077 O   0  0  0  0  0  0  0  0  0  0  0  0
   16.9350   -4.0880  -13.4023 C   0  0  0  0  0  0  0  0  0  0  0  0
   17.1544   -2.7436  -13.1918 O   0  0  0  0  0  0  0  0  0  0  0  0
   21.5207   -5.6374  -14.6424 O   0  0  0  0  0  0  0  0  0  0  0  0
   16.0152   -4.3695  -14.2292 O   0  0  0  0  0  0  0  0  0  0  0  0
  2  1  1  0
  3  2  1  0
  4  3  1  0
  4  5  1  0
  5  1  1  0
  5  6  1  1
  6  7  2  0
  9  8  1  6
  9 10  1  0
 11  9  1  0
 12 11  1  1
 13  6  1  0
 13 12  1  0
 14 12  1  0
 14 16  1  0
 15 14  2  0
 17 16  1  0
 17 22  1  0
 17 18  1  6
 19 18  1  0
 19 20  1  0
 20 24  1  0
 21 20  2  0
 22 23  1  0
 25 22  2  0
M  END
$$$$
