PLE.pdb
     RDKit          3D

 25 25  0  0  1  0  0  0  0  0999 V2000
   26.9333  -19.1310  -15.3147 N   0  0  0  0  0  0  0  0  0  0  0  0
   28.2943  -18.7617  -15.6687 C   0  0  0  0  0  0  0  0  0  0  0  0
   29.1449  -19.9853  -15.6176 C   0  0  0  0  0  0  0  0  0  0  0  0
   28.3042  -20.9745  -14.8427 C   0  0  0  0  0  0  0  0  0  0  0  0
   26.8979  -20.5638  -15.2885 C   0  0  1  0  0  0  0  0  0  0  0  0
   25.8557  -21.1471  -14.4472 C   0  0  0  0  0  0  0  0  0  0  0  0
   25.6657  -22.4009  -14.5341 O   0  0  0  0  0  0  0  0  0  0  0  0
   25.8685  -19.9738   -9.5192 C   0  0  0  0  0  0  0  0  0  0  0  0
   25.6450  -20.6518  -10.8085 C   0  0  1  0  0  0  0  0  0  0  0  0
   26.5212  -21.9130  -10.8023 C   0  0  0  0  0  0  0  0  0  0  0  0
   24.2954  -20.9093  -11.3023 C   0  0  0  0  0  0  0  0  0  0  0  0
   23.9950  -21.1725  -12.7177 C   0  0  2  0  0  0  0  0  0  0  0  0
   25.0291  -20.4476  -13.5366 N   0  0  0  0  0  0  0  0  0  0  0  0
   22.6820  -20.6589  -13.1687 C   0  0  0  0  0  0  0  0  0  0  0  0
   22.5212  -19.5225  -13.6693 O   0  0  0  0  0  0  0  0  0  0  0  0
   21.4886  -21.4352  -13.0627 N   0  0  0  0  0  0  0  0  0  0  0  0
   20.2783  -21.0708  -13.7776 C   0  0  1  0  0  0  0  0  0  0  0  0
   19.9232  -22.0750  -14.8172 C   0  0  0  0  0  0  0  0  0  0  0  0
   20.2131  -21.7113  -16.2327 C   0  0  0  0  0  0  0  0  0  0  0  0
   19.1320  -21.0696  -16.9700 C   0  0  0  0  0  0  0  0  0  0  0  0
   19.3678  -20.1647  -17.7928 O   0  0  0  0  0  0  0  0  0  0  0  0
   19.1939  -20.9880  -12.7743 C   0  0  0  0  0  0  0  0  0  0  0  0
   17.9975  -20.3278  -12.9555 O   0  0  0  0  0  0  0  0  0  0  0  0
   17.8234  -21.4556  -16.7678 O   0  0  0  0  0  0  0  0  0  0  0  0
   19.3415  -21.5541  -11.6488 O   0  0  0  0  0  0  0  0  0  0  0  0
  2  1  1  0
  3  2  1  0
  4  3  1  0
  4  5  1  0
  5  1  1  0
  5  6  1  1
  6  7  2  0
  9  8  1  1
  9 10  1  0
 11  9  1  0
 12 11  1  1
 13  6  1  0
 13 12  1  0
 14 12  1  0
 14 16  1  0
 15 14  2  0
 17 16  1  0
 17 22  1  0
 17 18  1  6
 19 18  1  0
 19 20  1  0
 20 24  1  0
 21 20  2  0
 22 23  1  0
 25 22  2  0
M  END
$$$$
