PLE.pdb
     RDKit          3D

 25 25  0  0  1  0  0  0  0  0999 V2000
   28.9467  -21.6993  -16.3109 N   0  0  0  0  0  0  0  0  0  0  0  0
   29.3795  -23.0250  -16.7220 C   0  0  0  0  0  0  0  0  0  0  0  0
   28.2522  -23.6903  -17.4362 C   0  0  0  0  0  0  0  0  0  0  0  0
   27.0494  -22.8518  -17.0677 C   0  0  0  0  0  0  0  0  0  0  0  0
   27.6907  -21.4652  -16.9610 C   0  0  1  0  0  0  0  0  0  0  0  0
   26.8169  -20.4982  -16.3011 C   0  0  0  0  0  0  0  0  0  0  0  0
   26.8025  -20.4930  -15.0302 O   0  0  0  0  0  0  0  0  0  0  0  0
   27.2917  -15.3362  -16.6427 C   0  0  0  0  0  0  0  0  0  0  0  0
   26.7692  -16.5691  -16.0272 C   0  0  1  0  0  0  0  0  0  0  0  0
   26.6820  -16.3062  -14.5167 C   0  0  0  0  0  0  0  0  0  0  0  0
   25.5764  -17.2278  -16.5513 C   0  0  0  0  0  0  0  0  0  0  0  0
   25.1605  -18.5784  -16.1437 C   0  0  2  0  0  0  0  0  0  0  0  0
   25.9770  -19.5580  -16.9433 N   0  0  0  0  0  0  0  0  0  0  0  0
   23.7436  -18.8941  -16.4331 C   0  0  0  0  0  0  0  0  0  0  0  0
   23.3307  -19.2362  -17.5646 O   0  0  0  0  0  0  0  0  0  0  0  0
   22.7330  -18.8295  -15.4269 N   0  0  0  0  0  0  0  0  0  0  0  0
   21.3462  -19.1449  -15.7205 C   0  0  1  0  0  0  0  0  0  0  0  0
   20.5560  -19.3825  -14.4818 C   0  0  0  0  0  0  0  0  0  0  0  0
   19.1031  -19.6647  -14.6529 C   0  0  0  0  0  0  0  0  0  0  0  0
   18.5936  -20.8583  -13.9894 C   0  0  0  0  0  0  0  0  0  0  0  0
   19.2884  -21.4748  -13.1597 O   0  0  0  0  0  0  0  0  0  0  0  0
   20.7872  -17.9875  -16.4534 C   0  0  0  0  0  0  0  0  0  0  0  0
   19.8177  -18.0633  -17.4304 O   0  0  0  0  0  0  0  0  0  0  0  0
   17.3274  -21.3272  -14.2709 O   0  0  0  0  0  0  0  0  0  0  0  0
   21.2095  -16.8204  -16.1910 O   0  0  0  0  0  0  0  0  0  0  0  0
  2  1  1  0
  3  2  1  0
  4  3  1  0
  4  5  1  0
  5  1  1  0
  5  6  1  1
  6  7  2  0
  9  8  1  6
  9 10  1  0
 11  9  1  0
 12 11  1  6
 13  6  1  0
 13 12  1  0
 14 12  1  0
 14 16  1  0
 15 14  2  0
 17 16  1  0
 17 22  1  0
 17 18  1  1
 19 18  1  0
 19 20  1  0
 20 24  1  0
 21 20  2  0
 22 23  1  0
 25 22  2  0
M  END
$$$$
