PLE.pdb
     RDKit          3D

 25 25  0  0  1  0  0  0  0  0999 V2000
   26.7677  -19.3793  -15.3361 N   0  0  0  0  0  0  0  0  0  0  0  0
   27.9395  -18.8138  -15.9848 C   0  0  0  0  0  0  0  0  0  0  0  0
   28.9264  -19.9075  -16.2155 C   0  0  0  0  0  0  0  0  0  0  0  0
   28.4381  -21.0256  -15.3226 C   0  0  0  0  0  0  0  0  0  0  0  0
   26.9244  -20.8031  -15.3899 C   0  0  1  0  0  0  0  0  0  0  0  0
   26.2068  -21.5495  -14.3592 C   0  0  0  0  0  0  0  0  0  0  0  0
   26.1239  -22.8101  -14.4990 O   0  0  0  0  0  0  0  0  0  0  0  0
   24.3421  -19.8766   -9.4957 C   0  0  0  0  0  0  0  0  0  0  0  0
   25.4915  -20.4121  -10.2468 C   0  0  1  0  0  0  0  0  0  0  0  0
   26.7129  -20.3028   -9.3225 C   0  0  0  0  0  0  0  0  0  0  0  0
   25.4153  -21.7030  -10.9246 C   0  0  0  0  0  0  0  0  0  0  0  0
   24.8177  -21.8759  -12.2573 C   0  0  2  0  0  0  0  0  0  0  0  0
   25.5891  -21.0024  -13.2100 N   0  0  0  0  0  0  0  0  0  0  0  0
   23.4063  -21.4409  -12.3545 C   0  0  0  0  0  0  0  0  0  0  0  0
   22.5176  -21.7983  -11.5480 O   0  0  0  0  0  0  0  0  0  0  0  0
   22.9521  -20.5702  -13.3907 N   0  0  0  0  0  0  0  0  0  0  0  0
   21.5633  -20.1557  -13.4815 C   0  0  1  0  0  0  0  0  0  0  0  0
   21.4083  -18.8994  -14.2643 C   0  0  0  0  0  0  0  0  0  0  0  0
   20.0188  -18.4075  -14.4816 C   0  0  0  0  0  0  0  0  0  0  0  0
   19.8745  -17.2300  -15.3283 C   0  0  0  0  0  0  0  0  0  0  0  0
   20.8739  -16.6513  -15.7948 O   0  0  0  0  0  0  0  0  0  0  0  0
   20.8293  -21.2528  -14.1501 C   0  0  0  0  0  0  0  0  0  0  0  0
   19.5396  -21.6378  -13.8528 O   0  0  0  0  0  0  0  0  0  0  0  0
   18.6227  -16.7347  -15.6284 O   0  0  0  0  0  0  0  0  0  0  0  0
   21.3990  -21.9134  -15.0711 O   0  0  0  0  0  0  0  0  0  0  0  0
  2  1  1  0
  3  2  1  0
  4  3  1  0
  4  5  1  0
  5  1  1  0
  5  6  1  1
  6  7  2  0
  9  8  1  1
  9 10  1  0
 11  9  1  0
 12 11  1  1
 13  6  1  0
 13 12  1  0
 14 12  1  0
 14 16  1  0
 15 14  2  0
 17 16  1  0
 17 22  1  0
 17 18  1  6
 19 18  1  0
 19 20  1  0
 20 24  1  0
 21 20  2  0
 22 23  1  0
 25 22  2  0
M  END
$$$$
