PLE.pdb
     RDKit          3D

 25 25  0  0  1  0  0  0  0  0999 V2000
   25.2961  -25.5733  -16.5232 N   0  0  0  0  0  0  0  0  0  0  0  0
   25.2328  -25.5325  -17.9752 C   0  0  0  0  0  0  0  0  0  0  0  0
   25.1448  -24.1074  -18.4049 C   0  0  0  0  0  0  0  0  0  0  0  0
   24.7630  -23.3740  -17.1391 C   0  0  0  0  0  0  0  0  0  0  0  0
   25.4887  -24.2207  -16.0895 C   0  0  1  0  0  0  0  0  0  0  0  0
   25.0359  -23.9301  -14.7314 C   0  0  0  0  0  0  0  0  0  0  0  0
   25.4549  -24.6860  -13.7995 O   0  0  0  0  0  0  0  0  0  0  0  0
   26.6350  -21.1814  -10.8303 C   0  0  0  0  0  0  0  0  0  0  0  0
   26.4240  -20.6955  -12.2056 C   0  0  1  0  0  0  0  0  0  0  0  0
   27.7571  -20.0912  -12.6701 C   0  0  0  0  0  0  0  0  0  0  0  0
   25.8101  -21.5461  -13.2210 C   0  0  0  0  0  0  0  0  0  0  0  0
   24.4394  -22.0676  -13.1098 C   0  0  2  0  0  0  0  0  0  0  0  0
   24.1684  -22.8804  -14.3474 N   0  0  0  0  0  0  0  0  0  0  0  0
   23.3907  -21.0238  -13.0678 C   0  0  0  0  0  0  0  0  0  0  0  0
   23.2807  -20.1941  -12.1365 O   0  0  0  0  0  0  0  0  0  0  0  0
   22.4160  -20.8880  -14.1020 N   0  0  0  0  0  0  0  0  0  0  0  0
   21.3369  -19.9209  -14.0077 C   0  0  1  0  0  0  0  0  0  0  0  0
   20.8801  -19.4653  -15.3490 C   0  0  0  0  0  0  0  0  0  0  0  0
   19.7167  -18.5352  -15.3850 C   0  0  0  0  0  0  0  0  0  0  0  0
   19.2083  -18.1861  -16.7055 C   0  0  0  0  0  0  0  0  0  0  0  0
   19.1988  -17.0030  -17.0950 O   0  0  0  0  0  0  0  0  0  0  0  0
   20.2208  -20.5885  -13.3019 C   0  0  0  0  0  0  0  0  0  0  0  0
   19.2779  -19.9467  -12.5279 O   0  0  0  0  0  0  0  0  0  0  0  0
   18.7270  -19.1647  -17.5499 O   0  0  0  0  0  0  0  0  0  0  0  0
   20.0908  -21.8472  -13.3911 O   0  0  0  0  0  0  0  0  0  0  0  0
  2  1  1  0
  3  2  1  0
  4  3  1  0
  4  5  1  0
  5  1  1  0
  5  6  1  1
  6  7  2  0
  9  8  1  1
  9 10  1  0
 11  9  1  0
 12 11  1  6
 13  6  1  0
 13 12  1  0
 14 12  1  0
 14 16  1  0
 15 14  2  0
 17 16  1  0
 17 22  1  0
 17 18  1  6
 19 18  1  0
 19 20  1  0
 20 24  1  0
 21 20  2  0
 22 23  1  0
 25 22  2  0
M  END
$$$$
