PLE.pdb
     RDKit          3D

 25 25  0  0  1  0  0  0  0  0999 V2000
   21.0363  -11.5417  -18.9850 N   0  0  0  0  0  0  0  0  0  0  0  0
   20.4952  -12.7833  -19.5137 C   0  0  0  0  0  0  0  0  0  0  0  0
   19.8444  -13.5285  -18.3981 C   0  0  0  0  0  0  0  0  0  0  0  0
   20.3809  -12.8547  -17.1556 C   0  0  0  0  0  0  0  0  0  0  0  0
   20.5238  -11.4133  -17.6525 C   0  0  1  0  0  0  0  0  0  0  0  0
   21.3280  -10.5920  -16.7509 C   0  0  0  0  0  0  0  0  0  0  0  0
   20.8739  -10.3886  -15.5813 O   0  0  0  0  0  0  0  0  0  0  0  0
   26.9217  -10.6469  -16.2686 C   0  0  0  0  0  0  0  0  0  0  0  0
   25.4805  -10.5356  -15.9812 C   0  0  1  0  0  0  0  0  0  0  0  0
   25.2828  -10.9947  -14.5292 C   0  0  0  0  0  0  0  0  0  0  0  0
   24.7413   -9.3148  -16.2887 C   0  0  0  0  0  0  0  0  0  0  0  0
   23.3012   -9.1621  -16.0323 C   0  0  2  0  0  0  0  0  0  0  0  0
   22.5743   -9.9947  -17.0540 N   0  0  0  0  0  0  0  0  0  0  0  0
   22.7953   -7.7806  -16.1952 C   0  0  0  0  0  0  0  0  0  0  0  0
   22.8892   -7.1333  -17.2629 O   0  0  0  0  0  0  0  0  0  0  0  0
   22.1552   -7.0784  -15.1297 N   0  0  0  0  0  0  0  0  0  0  0  0
   21.7700   -5.6844  -15.2609 C   0  0  1  0  0  0  0  0  0  0  0  0
   20.2917   -5.5186  -15.3101 C   0  0  0  0  0  0  0  0  0  0  0  0
   19.5997   -6.0016  -16.5380 C   0  0  0  0  0  0  0  0  0  0  0  0
   18.1426   -5.9918  -16.5054 C   0  0  0  0  0  0  0  0  0  0  0  0
   17.4849   -5.5132  -17.4486 O   0  0  0  0  0  0  0  0  0  0  0  0
   22.3116   -4.9751  -14.0807 C   0  0  0  0  0  0  0  0  0  0  0  0
   22.8973   -5.5844  -12.9917 O   0  0  0  0  0  0  0  0  0  0  0  0
   17.4646   -6.5149  -15.4241 O   0  0  0  0  0  0  0  0  0  0  0  0
   22.2481   -3.7091  -14.0308 O   0  0  0  0  0  0  0  0  0  0  0  0
  2  1  1  0
  3  2  1  0
  4  3  1  0
  4  5  1  0
  5  1  1  0
  5  6  1  1
  6  7  2  0
  9  8  1  1
  9 10  1  0
 11  9  1  0
 12 11  1  6
 13  6  1  0
 13 12  1  0
 14 12  1  0
 14 16  1  0
 15 14  2  0
 17 16  1  0
 17 22  1  0
 17 18  1  1
 19 18  1  0
 19 20  1  0
 20 24  1  0
 21 20  2  0
 22 23  1  0
 25 22  2  0
M  END
$$$$
