PLE.pdb
     RDKit          3D

 25 25  0  0  1  0  0  0  0  0999 V2000
   18.5764  -10.7774  -17.2122 N   0  0  0  0  0  0  0  0  0  0  0  0
   17.9894  -12.0907  -17.0013 C   0  0  0  0  0  0  0  0  0  0  0  0
   16.5048  -11.9571  -17.0412 C   0  0  0  0  0  0  0  0  0  0  0  0
   16.2741  -10.4710  -16.8867 C   0  0  0  0  0  0  0  0  0  0  0  0
   17.5032   -9.9151  -17.6116 C   0  0  1  0  0  0  0  0  0  0  0  0
   17.7111   -8.4942  -17.3432 C   0  0  0  0  0  0  0  0  0  0  0  0
   18.5713   -7.8835  -18.0522 O   0  0  0  0  0  0  0  0  0  0  0  0
   14.2806   -4.0450  -16.6580 C   0  0  0  0  0  0  0  0  0  0  0  0
   15.5952   -4.6727  -16.8807 C   0  0  1  0  0  0  0  0  0  0  0  0
   16.5425   -3.5595  -17.3514 C   0  0  0  0  0  0  0  0  0  0  0  0
   16.2014   -5.5344  -15.8699 C   0  0  0  0  0  0  0  0  0  0  0  0
   17.4388   -6.2950  -16.1008 C   0  0  2  0  0  0  0  0  0  0  0  0
   17.0433   -7.7236  -16.3624 N   0  0  0  0  0  0  0  0  0  0  0  0
   18.3587   -6.3306  -14.9417 C   0  0  0  0  0  0  0  0  0  0  0  0
   18.2303   -7.1267  -13.9837 O   0  0  0  0  0  0  0  0  0  0  0  0
   19.4738   -5.4459  -14.8329 N   0  0  0  0  0  0  0  0  0  0  0  0
   20.6728   -5.8197  -14.1038 C   0  0  1  0  0  0  0  0  0  0  0  0
   21.3013   -7.0487  -14.6605 C   0  0  0  0  0  0  0  0  0  0  0  0
   22.5805   -7.4926  -14.0388 C   0  0  0  0  0  0  0  0  0  0  0  0
   23.2071   -8.6728  -14.6209 C   0  0  0  0  0  0  0  0  0  0  0  0
   22.6769   -9.2742  -15.5740 O   0  0  0  0  0  0  0  0  0  0  0  0
   21.6155   -4.6846  -14.2144 C   0  0  0  0  0  0  0  0  0  0  0  0
   22.5369   -4.3254  -13.2542 O   0  0  0  0  0  0  0  0  0  0  0  0
   24.4035   -9.1455  -14.1233 O   0  0  0  0  0  0  0  0  0  0  0  0
   21.6025   -3.9629  -15.2575 O   0  0  0  0  0  0  0  0  0  0  0  0
  2  1  1  0
  3  2  1  0
  4  3  1  0
  4  5  1  0
  5  1  1  0
  5  6  1  1
  6  7  2  0
  9  8  1  1
  9 10  1  0
 11  9  1  0
 12 11  1  1
 13  6  1  0
 13 12  1  0
 14 12  1  0
 14 16  1  0
 15 14  2  0
 17 16  1  0
 17 22  1  0
 17 18  1  6
 19 18  1  0
 19 20  1  0
 20 24  1  0
 21 20  2  0
 22 23  1  0
 25 22  2  0
M  END
$$$$
