YEF.pdb
     RDKit          3D

 33 34  0  0  1  0  0  0  0  0999 V2000
    6.7832  -12.1247   17.1674 O   0  0  0  0  0  0  0  0  0  0  0  0
    7.1039  -12.7235   18.3936 C   0  0  0  0  0  0  0  0  0  0  0  0
    8.3249  -12.5557   18.9919 C   0  0  0  0  0  0  0  0  0  0  0  0
    8.6213  -13.1510   20.1949 C   0  0  0  0  0  0  0  0  0  0  0  0
    7.6972  -13.9524   20.8636 C   0  0  0  0  0  0  0  0  0  0  0  0
    8.0085  -14.6009   22.1655 C   0  0  0  0  0  0  0  0  0  0  0  0
    8.8770  -15.8034   21.8635 C   0  0  2  0  0  0  0  0  0  0  0  0
    8.0116  -16.8352   21.3251 N   0  0  0  0  0  0  0  0  0  0  0  0
    9.5789  -16.3210   23.0385 C   0  0  0  0  0  0  0  0  0  0  0  0
    8.9532  -16.9122   23.9550 O   0  0  0  0  0  0  0  0  0  0  0  0
    6.4717  -14.1139   20.2517 C   0  0  0  0  0  0  0  0  0  0  0  0
    6.1827  -13.5176   19.0522 C   0  0  0  0  0  0  0  0  0  0  0  0
   10.9912  -16.1633   23.1653 N   0  0  0  0  0  0  0  0  0  0  0  0
   11.7332  -16.5216   24.3406 C   0  0  1  0  0  0  0  0  0  0  0  0
   13.2066  -16.3384   24.1899 C   0  0  0  0  0  0  0  0  0  0  0  0
   13.8703  -17.0448   23.0717 C   0  0  0  0  0  0  0  0  0  0  0  0
   15.3414  -17.1026   23.1281 C   0  0  0  0  0  0  0  0  0  0  0  0
   16.0651  -17.4019   22.1354 O   0  0  0  0  0  0  0  0  0  0  0  0
   11.2168  -15.9573   25.5992 C   0  0  0  0  0  0  0  0  0  0  0  0
   10.7286  -14.7764   25.6271 O   0  0  0  0  0  0  0  0  0  0  0  0
   16.0492  -16.8272   24.3019 O   0  0  0  0  0  0  0  0  0  0  0  0
   11.2132  -16.6424   26.8300 N   0  0  0  0  0  0  0  0  0  0  0  0
   10.5726  -16.0830   28.0303 C   0  0  1  0  0  0  0  0  0  0  0  0
    9.0580  -16.2535   27.8284 C   0  0  0  0  0  0  0  0  0  0  0  0
    8.4331  -15.0477   27.2818 C   0  0  0  0  0  0  0  0  0  0  0  0
    7.4844  -15.1177   26.2639 C   0  0  0  0  0  0  0  0  0  0  0  0
    6.8869  -13.9844   25.7626 C   0  0  0  0  0  0  0  0  0  0  0  0
    7.1936  -12.7277   26.2382 C   0  0  0  0  0  0  0  0  0  0  0  0
    8.1314  -12.6585   27.2448 C   0  0  0  0  0  0  0  0  0  0  0  0
    8.7356  -13.7824   27.7546 C   0  0  0  0  0  0  0  0  0  0  0  0
   10.9547  -16.9179   29.1761 C   0  0  0  0  0  0  0  0  0  0  0  0
   10.8845  -16.4568   30.4961 O   0  0  0  0  0  0  0  0  0  0  0  0
   11.3625  -18.0886   28.9807 O   0  0  0  0  0  0  0  0  0  0  0  0
  2  1  1  0
  3  2  2  0
  4  3  1  0
  5 11  1  0
  5  4  2  0
  6  5  1  0
  7  9  1  0
  7  6  1  0
  7  8  1  1
  9 10  2  0
 11 12  2  0
 12  2  1  0
 13 14  1  0
 13  9  1  0
 14 15  1  6
 16 15  1  0
 17 16  1  0
 17 18  2  0
 19 14  1  0
 20 19  2  0
 21 17  1  0
 22 19  1  0
 23 24  1  6
 23 22  1  0
 24 25  1  0
 25 30  2  0
 26 27  2  0
 26 25  1  0
 27 28  1  0
 28 29  2  0
 30 29  1  0
 31 23  1  0
 31 32  1  0
 33 31  2  0
M  END
$$$$
