YEF.pdb
     RDKit          3D

 33 34  0  0  1  0  0  0  0  0999 V2000
    7.3173  -12.1265   24.1930 O   0  0  0  0  0  0  0  0  0  0  0  0
    7.0826  -13.4162   23.6964 C   0  0  0  0  0  0  0  0  0  0  0  0
    6.6430  -14.4385   24.4954 C   0  0  0  0  0  0  0  0  0  0  0  0
    6.4183  -15.6969   23.9903 C   0  0  0  0  0  0  0  0  0  0  0  0
    6.6260  -15.9944   22.6443 C   0  0  0  0  0  0  0  0  0  0  0  0
    6.3858  -17.3530   22.0884 C   0  0  0  0  0  0  0  0  0  0  0  0
    7.4560  -17.5996   21.0465 C   0  0  2  0  0  0  0  0  0  0  0  0
    7.0580  -18.7707   20.2893 N   0  0  0  0  0  0  0  0  0  0  0  0
    8.7839  -17.8192   21.6206 C   0  0  0  0  0  0  0  0  0  0  0  0
    9.0074  -18.8027   22.3714 O   0  0  0  0  0  0  0  0  0  0  0  0
    7.0685  -14.9575   21.8499 C   0  0  0  0  0  0  0  0  0  0  0  0
    7.2906  -13.7051   22.3598 C   0  0  0  0  0  0  0  0  0  0  0  0
    9.8528  -16.9176   21.3373 N   0  0  0  0  0  0  0  0  0  0  0  0
   11.2099  -17.1306   21.7535 C   0  0  1  0  0  0  0  0  0  0  0  0
   12.1987  -16.3137   20.9907 C   0  0  0  0  0  0  0  0  0  0  0  0
   12.1677  -16.4099   19.5143 C   0  0  0  0  0  0  0  0  0  0  0  0
   13.3289  -17.0640   18.8863 C   0  0  0  0  0  0  0  0  0  0  0  0
   13.2533  -18.1512   18.2452 O   0  0  0  0  0  0  0  0  0  0  0  0
   11.4307  -17.0763   23.2087 C   0  0  0  0  0  0  0  0  0  0  0  0
   12.5853  -17.3237   23.6979 O   0  0  0  0  0  0  0  0  0  0  0  0
   14.6145  -16.5193   18.9580 O   0  0  0  0  0  0  0  0  0  0  0  0
   10.4312  -16.7573   24.1486 N   0  0  0  0  0  0  0  0  0  0  0  0
   10.7553  -16.3996   25.5382 C   0  0  1  0  0  0  0  0  0  0  0  0
    9.4951  -15.7354   26.1164 C   0  0  0  0  0  0  0  0  0  0  0  0
    9.7242  -15.1820   27.4523 C   0  0  0  0  0  0  0  0  0  0  0  0
    9.5241  -13.8302   27.7238 C   0  0  0  0  0  0  0  0  0  0  0  0
    9.7249  -13.3154   28.9837 C   0  0  0  0  0  0  0  0  0  0  0  0
   10.1323  -14.1051   30.0372 C   0  0  0  0  0  0  0  0  0  0  0  0
   10.3300  -15.4417   29.7688 C   0  0  0  0  0  0  0  0  0  0  0  0
   10.1329  -15.9688   28.5153 C   0  0  0  0  0  0  0  0  0  0  0  0
   10.9718  -17.6448   26.2856 C   0  0  0  0  0  0  0  0  0  0  0  0
   11.8098  -17.7109   27.4052 O   0  0  0  0  0  0  0  0  0  0  0  0
   10.3931  -18.6961   25.9184 O   0  0  0  0  0  0  0  0  0  0  0  0
  2  1  1  0
  3  2  2  0
  4  3  1  0
  5 11  1  0
  5  4  2  0
  6  5  1  0
  7  9  1  0
  7  6  1  0
  7  8  1  1
  9 10  2  0
 11 12  2  0
 12  2  1  0
 13 14  1  0
 13  9  1  0
 14 15  1  6
 16 15  1  0
 17 16  1  0
 17 18  2  0
 19 14  1  0
 20 19  2  0
 21 17  1  0
 22 19  1  0
 23 24  1  1
 23 22  1  0
 24 25  1  0
 25 30  2  0
 26 27  2  0
 26 25  1  0
 27 28  1  0
 28 29  2  0
 30 29  1  0
 31 23  1  0
 31 32  1  0
 33 31  2  0
M  END
$$$$
