YEF.pdb
     RDKit          3D

 33 34  0  0  1  0  0  0  0  0999 V2000
    6.9766  -11.9251   17.2400 O   0  0  0  0  0  0  0  0  0  0  0  0
    7.2289  -12.6349   18.4221 C   0  0  0  0  0  0  0  0  0  0  0  0
    8.4239  -12.5475   19.0863 C   0  0  0  0  0  0  0  0  0  0  0  0
    8.6531  -13.2513   20.2446 C   0  0  0  0  0  0  0  0  0  0  0  0
    7.6841  -14.0861   20.7990 C   0  0  0  0  0  0  0  0  0  0  0  0
    7.9226  -14.8517   22.0518 C   0  0  0  0  0  0  0  0  0  0  0  0
    8.7415  -16.0684   21.6768 C   0  0  2  0  0  0  0  0  0  0  0  0
    7.9020  -16.9143   20.8503 N   0  0  0  0  0  0  0  0  0  0  0  0
    9.2105  -16.8305   22.8345 C   0  0  0  0  0  0  0  0  0  0  0  0
    8.3982  -17.4281   23.5854 O   0  0  0  0  0  0  0  0  0  0  0  0
    6.4853  -14.1659   20.1217 C   0  0  0  0  0  0  0  0  0  0  0  0
    6.2633  -13.4616   18.9674 C   0  0  0  0  0  0  0  0  0  0  0  0
   10.6035  -16.9092   23.1328 N   0  0  0  0  0  0  0  0  0  0  0  0
   11.1358  -17.5503   24.3016 C   0  0  1  0  0  0  0  0  0  0  0  0
   12.4957  -18.1284   24.0927 C   0  0  0  0  0  0  0  0  0  0  0  0
   13.0848  -18.9042   25.2067 C   0  0  0  0  0  0  0  0  0  0  0  0
   14.3996  -19.5145   24.9429 C   0  0  0  0  0  0  0  0  0  0  0  0
   14.6429  -20.7439   25.1106 O   0  0  0  0  0  0  0  0  0  0  0  0
   11.0379  -16.7633   25.5427 C   0  0  0  0  0  0  0  0  0  0  0  0
   11.6871  -15.6696   25.6687 O   0  0  0  0  0  0  0  0  0  0  0  0
   15.4858  -18.7640   24.4828 O   0  0  0  0  0  0  0  0  0  0  0  0
   10.2507  -17.1307   26.6516 N   0  0  0  0  0  0  0  0  0  0  0  0
   10.2763  -16.3698   27.9103 C   0  0  1  0  0  0  0  0  0  0  0  0
    8.8271  -15.9315   28.1774 C   0  0  0  0  0  0  0  0  0  0  0  0
    8.4077  -14.8395   27.2971 C   0  0  0  0  0  0  0  0  0  0  0  0
    8.9241  -13.5531   27.4370 C   0  0  0  0  0  0  0  0  0  0  0  0
    8.5401  -12.5322   26.5986 C   0  0  0  0  0  0  0  0  0  0  0  0
    7.6299  -12.7272   25.5822 C   0  0  0  0  0  0  0  0  0  0  0  0
    7.1194  -13.9992   25.4437 C   0  0  0  0  0  0  0  0  0  0  0  0
    7.4944  -15.0278   26.2740 C   0  0  0  0  0  0  0  0  0  0  0  0
   10.6565  -17.2926   28.9873 C   0  0  0  0  0  0  0  0  0  0  0  0
   10.8721  -16.8621   30.3020 O   0  0  0  0  0  0  0  0  0  0  0  0
   10.7987  -18.5137   28.7352 O   0  0  0  0  0  0  0  0  0  0  0  0
  2  1  1  0
  3  2  2  0
  4  3  1  0
  5 11  1  0
  5  4  2  0
  6  5  1  0
  7  9  1  0
  7  6  1  0
  7  8  1  6
  9 10  2  0
 11 12  2  0
 12  2  1  0
 13 14  1  0
 13  9  1  0
 14 15  1  6
 16 15  1  0
 17 16  1  0
 17 18  2  0
 19 14  1  0
 20 19  2  0
 21 17  1  0
 22 19  1  0
 23 24  1  1
 23 22  1  0
 24 25  1  0
 25 30  2  0
 26 27  2  0
 26 25  1  0
 27 28  1  0
 28 29  2  0
 30 29  1  0
 31 23  1  0
 31 32  1  0
 33 31  2  0
M  END
$$$$
