YEF.pdb
     RDKit          3D

 33 34  0  0  1  0  0  0  0  0999 V2000
    7.4877  -11.9798   17.4967 O   0  0  0  0  0  0  0  0  0  0  0  0
    7.6713  -12.6863   18.6934 C   0  0  0  0  0  0  0  0  0  0  0  0
    8.9056  -12.8461   19.2659 C   0  0  0  0  0  0  0  0  0  0  0  0
    9.0662  -13.5424   20.4401 C   0  0  0  0  0  0  0  0  0  0  0  0
    7.9845  -14.1186   21.1044 C   0  0  0  0  0  0  0  0  0  0  0  0
    8.1482  -14.8740   22.3753 C   0  0  0  0  0  0  0  0  0  0  0  0
    8.7912  -16.1983   22.0225 C   0  0  2  0  0  0  0  0  0  0  0  0
    7.8281  -16.9498   21.2408 N   0  0  0  0  0  0  0  0  0  0  0  0
    9.1847  -16.9817   23.1940 C   0  0  0  0  0  0  0  0  0  0  0  0
    8.3629  -17.7405   23.7682 O   0  0  0  0  0  0  0  0  0  0  0  0
    6.7472  -13.9512   20.5187 C   0  0  0  0  0  0  0  0  0  0  0  0
    6.5940  -13.2558   19.3478 C   0  0  0  0  0  0  0  0  0  0  0  0
   10.5132  -16.8980   23.7074 N   0  0  0  0  0  0  0  0  0  0  0  0
   11.0218  -17.7425   24.7507 C   0  0  1  0  0  0  0  0  0  0  0  0
   12.3847  -18.2799   24.4665 C   0  0  0  0  0  0  0  0  0  0  0  0
   12.5900  -18.9675   23.1723 C   0  0  0  0  0  0  0  0  0  0  0  0
   13.6025  -20.0377   23.1643 C   0  0  0  0  0  0  0  0  0  0  0  0
   14.4126  -20.2228   22.2112 O   0  0  0  0  0  0  0  0  0  0  0  0
   10.9007  -17.1926   26.1116 C   0  0  0  0  0  0  0  0  0  0  0  0
   11.1193  -17.9325   27.1306 O   0  0  0  0  0  0  0  0  0  0  0  0
   13.7386  -20.9369   24.2262 O   0  0  0  0  0  0  0  0  0  0  0  0
   10.5510  -15.8582   26.3968 N   0  0  0  0  0  0  0  0  0  0  0  0
   10.1187  -15.4367   27.7382 C   0  0  1  0  0  0  0  0  0  0  0  0
    8.5835  -15.3673   27.6934 C   0  0  0  0  0  0  0  0  0  0  0  0
    8.1026  -14.1108   27.1161 C   0  0  0  0  0  0  0  0  0  0  0  0
    6.7661  -13.9370   26.7631 C   0  0  0  0  0  0  0  0  0  0  0  0
    6.3134  -12.7499   26.2354 C   0  0  0  0  0  0  0  0  0  0  0  0
    7.1531  -11.6767   26.0292 C   0  0  0  0  0  0  0  0  0  0  0  0
    8.4746  -11.8484   26.3784 C   0  0  0  0  0  0  0  0  0  0  0  0
    8.9398  -13.0286   26.9066 C   0  0  0  0  0  0  0  0  0  0  0  0
   10.4779  -16.5017   28.6831 C   0  0  0  0  0  0  0  0  0  0  0  0
   10.4103  -16.3270   30.0705 O   0  0  0  0  0  0  0  0  0  0  0  0
   10.8629  -17.6134   28.2462 O   0  0  0  0  0  0  0  0  0  0  0  0
  2  1  1  0
  3  2  2  0
  4  3  1  0
  5 11  1  0
  5  4  2  0
  6  5  1  0
  7  9  1  0
  7  6  1  0
  7  8  1  1
  9 10  2  0
 11 12  2  0
 12  2  1  0
 13 14  1  0
 13  9  1  0
 14 15  1  6
 16 15  1  0
 17 16  1  0
 17 18  2  0
 19 14  1  0
 20 19  2  0
 21 17  1  0
 22 19  1  0
 23 24  1  6
 23 22  1  0
 24 25  1  0
 25 30  2  0
 26 27  2  0
 26 25  1  0
 27 28  1  0
 28 29  2  0
 30 29  1  0
 31 23  1  0
 31 32  1  0
 33 31  2  0
M  END
$$$$
