YEF.pdb
     RDKit          3D

 33 34  0  0  1  0  0  0  0  0999 V2000
   17.1106  -15.4263   17.5616 O   0  0  0  0  0  0  0  0  0  0  0  0
   15.9151  -15.1286   18.2303 C   0  0  0  0  0  0  0  0  0  0  0  0
   15.1612  -14.0264   17.9242 C   0  0  0  0  0  0  0  0  0  0  0  0
   13.9913  -13.7508   18.5911 C   0  0  0  0  0  0  0  0  0  0  0  0
   13.5155  -14.5764   19.6086 C   0  0  0  0  0  0  0  0  0  0  0  0
   12.2509  -14.2865   20.3361 C   0  0  0  0  0  0  0  0  0  0  0  0
   11.2425  -15.3287   19.9017 C   0  0  2  0  0  0  0  0  0  0  0  0
   10.6465  -14.8618   18.6648 N   0  0  0  0  0  0  0  0  0  0  0  0
   10.1901  -15.5642   20.8907 C   0  0  0  0  0  0  0  0  0  0  0  0
    9.4377  -14.6297   21.2668 O   0  0  0  0  0  0  0  0  0  0  0  0
   14.2828  -15.6827   19.9079 C   0  0  0  0  0  0  0  0  0  0  0  0
   15.4483  -15.9517   19.2391 C   0  0  0  0  0  0  0  0  0  0  0  0
    9.9984  -16.8636   21.4477 N   0  0  0  0  0  0  0  0  0  0  0  0
    9.2852  -17.1130   22.6682 C   0  0  1  0  0  0  0  0  0  0  0  0
    8.7616  -18.5064   22.7743 C   0  0  0  0  0  0  0  0  0  0  0  0
    9.4199  -19.5462   21.9526 C   0  0  0  0  0  0  0  0  0  0  0  0
    8.7830  -20.8747   21.9623 C   0  0  0  0  0  0  0  0  0  0  0  0
    8.3855  -21.4640   20.9165 O   0  0  0  0  0  0  0  0  0  0  0  0
    9.9729  -16.6700   23.8930 C   0  0  0  0  0  0  0  0  0  0  0  0
   11.2447  -16.7535   23.9876 O   0  0  0  0  0  0  0  0  0  0  0  0
    8.5700  -21.5856   23.1471 O   0  0  0  0  0  0  0  0  0  0  0  0
    9.3164  -16.1352   25.0187 N   0  0  0  0  0  0  0  0  0  0  0  0
   10.0507  -15.7230   26.2249 C   0  0  1  0  0  0  0  0  0  0  0  0
    9.8247  -14.2093   26.3698 C   0  0  0  0  0  0  0  0  0  0  0  0
    8.4039  -13.8571   26.3498 C   0  0  0  0  0  0  0  0  0  0  0  0
    7.7355  -13.5977   25.1552 C   0  0  0  0  0  0  0  0  0  0  0  0
    6.3965  -13.2823   25.1377 C   0  0  0  0  0  0  0  0  0  0  0  0
    5.6503  -13.2068   26.2940 C   0  0  0  0  0  0  0  0  0  0  0  0
    6.3111  -13.4635   27.4752 C   0  0  0  0  0  0  0  0  0  0  0  0
    7.6479  -13.7798   27.5068 C   0  0  0  0  0  0  0  0  0  0  0  0
    9.4174  -16.3694   27.3813 C   0  0  0  0  0  0  0  0  0  0  0  0
    8.3148  -17.2224   27.2523 O   0  0  0  0  0  0  0  0  0  0  0  0
    9.8685  -16.1577   28.5331 O   0  0  0  0  0  0  0  0  0  0  0  0
  2  1  1  0
  3  2  2  0
  4  3  1  0
  5 11  1  0
  5  4  2  0
  6  5  1  0
  7  9  1  0
  7  6  1  0
  7  8  1  6
  9 10  2  0
 11 12  2  0
 12  2  1  0
 13 14  1  0
 13  9  1  0
 14 15  1  1
 16 15  1  0
 17 16  1  0
 17 18  2  0
 19 14  1  0
 20 19  2  0
 21 17  1  0
 22 19  1  0
 23 24  1  1
 23 22  1  0
 24 25  1  0
 25 30  2  0
 26 27  2  0
 26 25  1  0
 27 28  1  0
 28 29  2  0
 30 29  1  0
 31 23  1  0
 31 32  1  0
 33 31  2  0
M  END
$$$$
