YEF.pdb
     RDKit          3D

 33 34  0  0  1  0  0  0  0  0999 V2000
    8.2480  -12.3711   17.1958 O   0  0  0  0  0  0  0  0  0  0  0  0
    7.9981  -12.9568   18.4445 C   0  0  0  0  0  0  0  0  0  0  0  0
    8.9111  -13.7653   19.0687 C   0  0  0  0  0  0  0  0  0  0  0  0
    8.6482  -14.3309   20.2935 C   0  0  0  0  0  0  0  0  0  0  0  0
    7.4433  -14.1107   20.9592 C   0  0  0  0  0  0  0  0  0  0  0  0
    7.1494  -14.7184   22.2846 C   0  0  0  0  0  0  0  0  0  0  0  0
    7.4861  -16.1906   22.1801 C   0  0  2  0  0  0  0  0  0  0  0  0
    6.2333  -16.9210   22.1972 N   0  0  0  0  0  0  0  0  0  0  0  0
    8.3426  -16.6677   23.2664 C   0  0  0  0  0  0  0  0  0  0  0  0
    7.8450  -17.1457   24.3175 O   0  0  0  0  0  0  0  0  0  0  0  0
    6.5321  -13.2953   20.3212 C   0  0  0  0  0  0  0  0  0  0  0  0
    6.8006  -12.7344   19.1000 C   0  0  0  0  0  0  0  0  0  0  0  0
    9.7630  -16.5984   23.1515 N   0  0  0  0  0  0  0  0  0  0  0  0
   10.6704  -17.0644   24.1614 C   0  0  1  0  0  0  0  0  0  0  0  0
   12.0154  -17.4283   23.6271 C   0  0  0  0  0  0  0  0  0  0  0  0
   12.9923  -18.0063   24.5765 C   0  0  0  0  0  0  0  0  0  0  0  0
   14.3140  -18.3408   24.0180 C   0  0  0  0  0  0  0  0  0  0  0  0
   15.4032  -18.0948   24.6113 O   0  0  0  0  0  0  0  0  0  0  0  0
   10.7474  -16.2211   25.3665 C   0  0  0  0  0  0  0  0  0  0  0  0
   11.2536  -15.0492   25.3053 O   0  0  0  0  0  0  0  0  0  0  0  0
   14.4568  -18.9619   22.7736 O   0  0  0  0  0  0  0  0  0  0  0  0
   10.2862  -16.6152   26.6378 N   0  0  0  0  0  0  0  0  0  0  0  0
   10.4711  -15.7716   27.8286 C   0  0  1  0  0  0  0  0  0  0  0  0
    9.0649  -15.5071   28.3910 C   0  0  0  0  0  0  0  0  0  0  0  0
    8.2848  -14.6128   27.5336 C   0  0  0  0  0  0  0  0  0  0  0  0
    8.5681  -13.2510   27.4543 C   0  0  0  0  0  0  0  0  0  0  0  0
    7.8436  -12.4154   26.6360 C   0  0  0  0  0  0  0  0  0  0  0  0
    6.8058  -12.8787   25.8563 C   0  0  0  0  0  0  0  0  0  0  0  0
    6.5259  -14.2252   25.9346 C   0  0  0  0  0  0  0  0  0  0  0  0
    7.2416  -15.0708   26.7475 C   0  0  0  0  0  0  0  0  0  0  0  0
   11.1986  -16.5600   28.8312 C   0  0  0  0  0  0  0  0  0  0  0  0
   11.5479  -17.8995   28.6222 O   0  0  0  0  0  0  0  0  0  0  0  0
   11.5243  -16.0281   29.9203 O   0  0  0  0  0  0  0  0  0  0  0  0
  2  1  1  0
  3  2  2  0
  4  3  1  0
  5 11  1  0
  5  4  2  0
  6  5  1  0
  7  9  1  0
  7  6  1  0
  7  8  1  1
  9 10  2  0
 11 12  2  0
 12  2  1  0
 13 14  1  0
 13  9  1  0
 14 15  1  6
 16 15  1  0
 17 16  1  0
 17 18  2  0
 19 14  1  0
 20 19  2  0
 21 17  1  0
 22 19  1  0
 23 24  1  1
 23 22  1  0
 24 25  1  0
 25 30  2  0
 26 27  2  0
 26 25  1  0
 27 28  1  0
 28 29  2  0
 30 29  1  0
 31 23  1  0
 31 32  1  0
 33 31  2  0
M  END
$$$$
