YEF.pdb
     RDKit          3D

 33 34  0  0  1  0  0  0  0  0999 V2000
    7.4077  -11.9388   16.9701 O   0  0  0  0  0  0  0  0  0  0  0  0
    7.4847  -12.5974   18.2051 C   0  0  0  0  0  0  0  0  0  0  0  0
    6.3829  -13.1347   18.8169 C   0  0  0  0  0  0  0  0  0  0  0  0
    6.4779  -13.7772   20.0283 C   0  0  0  0  0  0  0  0  0  0  0  0
    7.6961  -13.9135   20.6922 C   0  0  0  0  0  0  0  0  0  0  0  0
    7.8090  -14.6069   22.0033 C   0  0  0  0  0  0  0  0  0  0  0  0
    8.4712  -15.9427   21.7411 C   0  0  2  0  0  0  0  0  0  0  0  0
    7.4992  -16.7794   21.0640 N   0  0  0  0  0  0  0  0  0  0  0  0
    8.9259  -16.6132   22.9596 C   0  0  0  0  0  0  0  0  0  0  0  0
    8.1005  -17.0792   23.7857 O   0  0  0  0  0  0  0  0  0  0  0  0
    8.7980  -13.3688   20.0668 C   0  0  0  0  0  0  0  0  0  0  0  0
    8.6964  -12.7294   18.8590 C   0  0  0  0  0  0  0  0  0  0  0  0
   10.3195  -16.7505   23.2328 N   0  0  0  0  0  0  0  0  0  0  0  0
   10.8448  -17.3479   24.4276 C   0  0  1  0  0  0  0  0  0  0  0  0
   12.1168  -18.0961   24.2059 C   0  0  0  0  0  0  0  0  0  0  0  0
   12.1597  -19.0468   23.0727 C   0  0  0  0  0  0  0  0  0  0  0  0
   13.4476  -19.1480   22.3643 C   0  0  0  0  0  0  0  0  0  0  0  0
   13.5454  -19.4126   21.1317 O   0  0  0  0  0  0  0  0  0  0  0  0
   10.9089  -16.4525   25.5952 C   0  0  0  0  0  0  0  0  0  0  0  0
   11.4476  -15.2977   25.4968 O   0  0  0  0  0  0  0  0  0  0  0  0
   14.6691  -18.9565   23.0169 O   0  0  0  0  0  0  0  0  0  0  0  0
   10.4004  -16.7763   26.8684 N   0  0  0  0  0  0  0  0  0  0  0  0
   10.6489  -15.9280   28.0443 C   0  0  1  0  0  0  0  0  0  0  0  0
    9.2670  -15.5559   28.6059 C   0  0  0  0  0  0  0  0  0  0  0  0
    8.5421  -14.6354   27.7282 C   0  0  0  0  0  0  0  0  0  0  0  0
    8.7889  -13.2643   27.7488 C   0  0  0  0  0  0  0  0  0  0  0  0
    8.1176  -12.4032   26.9120 C   0  0  0  0  0  0  0  0  0  0  0  0
    7.1712  -12.8487   26.0145 C   0  0  0  0  0  0  0  0  0  0  0  0
    6.9273  -14.2043   25.9939 C   0  0  0  0  0  0  0  0  0  0  0  0
    7.5907  -15.0755   26.8241 C   0  0  0  0  0  0  0  0  0  0  0  0
   11.3230  -16.7488   29.0581 C   0  0  0  0  0  0  0  0  0  0  0  0
   11.8503  -16.2034   30.2347 O   0  0  0  0  0  0  0  0  0  0  0  0
   11.4400  -17.9851   28.8764 O   0  0  0  0  0  0  0  0  0  0  0  0
  2  1  1  0
  3  2  2  0
  4  3  1  0
  5 11  1  0
  5  4  2  0
  6  5  1  0
  7  9  1  0
  7  6  1  0
  7  8  1  1
  9 10  2  0
 11 12  2  0
 12  2  1  0
 13 14  1  0
 13  9  1  0
 14 15  1  6
 16 15  1  0
 17 16  1  0
 17 18  2  0
 19 14  1  0
 20 19  2  0
 21 17  1  0
 22 19  1  0
 23 24  1  1
 23 22  1  0
 24 25  1  0
 25 30  2  0
 26 27  2  0
 26 25  1  0
 27 28  1  0
 28 29  2  0
 30 29  1  0
 31 23  1  0
 31 32  1  0
 33 31  2  0
M  END
$$$$
