YEF.pdb
     RDKit          3D

 33 34  0  0  1  0  0  0  0  0999 V2000
    9.1014  -20.0833   28.6604 O   0  0  0  0  0  0  0  0  0  0  0  0
    8.1379  -19.8525   27.6687 C   0  0  0  0  0  0  0  0  0  0  0  0
    7.4098  -20.8678   27.1066 C   0  0  0  0  0  0  0  0  0  0  0  0
    6.4690  -20.6221   26.1350 C   0  0  0  0  0  0  0  0  0  0  0  0
    6.2100  -19.3319   25.6750 C   0  0  0  0  0  0  0  0  0  0  0  0
    5.1942  -19.0560   24.6241 C   0  0  0  0  0  0  0  0  0  0  0  0
    5.8251  -19.4133   23.2952 C   0  0  2  0  0  0  0  0  0  0  0  0
    6.2795  -20.7873   23.3899 N   0  0  0  0  0  0  0  0  0  0  0  0
    6.9523  -18.5512   22.9385 C   0  0  0  0  0  0  0  0  0  0  0  0
    8.1346  -18.9731   23.0094 O   0  0  0  0  0  0  0  0  0  0  0  0
    6.9489  -18.3183   26.2482 C   0  0  0  0  0  0  0  0  0  0  0  0
    7.8854  -18.5700   27.2164 C   0  0  0  0  0  0  0  0  0  0  0  0
    6.7287  -17.2113   22.5022 N   0  0  0  0  0  0  0  0  0  0  0  0
    7.7806  -16.2752   22.2238 C   0  0  1  0  0  0  0  0  0  0  0  0
    7.5158  -15.4255   21.0259 C   0  0  0  0  0  0  0  0  0  0  0  0
    8.5923  -14.5088   20.5892 C   0  0  0  0  0  0  0  0  0  0  0  0
    8.3628  -13.8053   19.3152 C   0  0  0  0  0  0  0  0  0  0  0  0
    9.2463  -13.6816   18.4191 O   0  0  0  0  0  0  0  0  0  0  0  0
    8.2417  -15.4934   23.3837 C   0  0  0  0  0  0  0  0  0  0  0  0
    7.4535  -15.2615   24.3627 O   0  0  0  0  0  0  0  0  0  0  0  0
    7.1333  -13.2162   19.0052 O   0  0  0  0  0  0  0  0  0  0  0  0
    9.5385  -14.9581   23.5112 N   0  0  0  0  0  0  0  0  0  0  0  0
   10.2833  -15.0165   24.7784 C   0  0  1  0  0  0  0  0  0  0  0  0
   10.0149  -13.6841   25.4968 C   0  0  0  0  0  0  0  0  0  0  0  0
    8.5906  -13.4763   25.7642 C   0  0  0  0  0  0  0  0  0  0  0  0
    8.0463  -13.7056   27.0261 C   0  0  0  0  0  0  0  0  0  0  0  0
    6.7106  -13.4946   27.2789 C   0  0  0  0  0  0  0  0  0  0  0  0
    5.8458  -13.0480   26.3031 C   0  0  0  0  0  0  0  0  0  0  0  0
    6.3839  -12.8210   25.0555 C   0  0  0  0  0  0  0  0  0  0  0  0
    7.7161  -13.0275   24.7895 C   0  0  0  0  0  0  0  0  0  0  0  0
    9.6922  -16.0800   25.6003 C   0  0  0  0  0  0  0  0  0  0  0  0
    8.5735  -16.8128   25.1865 O   0  0  0  0  0  0  0  0  0  0  0  0
   10.1960  -16.3519   26.7171 O   0  0  0  0  0  0  0  0  0  0  0  0
  2  1  1  0
  3  2  2  0
  4  3  1  0
  5 11  1  0
  5  4  2  0
  6  5  1  0
  7  9  1  0
  7  6  1  0
  7  8  1  1
  9 10  2  0
 11 12  2  0
 12  2  1  0
 13 14  1  0
 13  9  1  0
 14 15  1  6
 16 15  1  0
 17 16  1  0
 17 18  2  0
 19 14  1  0
 20 19  2  0
 21 17  1  0
 22 19  1  0
 23 24  1  1
 23 22  1  0
 24 25  1  0
 25 30  2  0
 26 27  2  0
 26 25  1  0
 27 28  1  0
 28 29  2  0
 30 29  1  0
 31 23  1  0
 31 32  1  0
 33 31  2  0
M  END
$$$$
