YEF.pdb
     RDKit          3D

 33 34  0  0  1  0  0  0  0  0999 V2000
   20.2754  -18.8321   17.4432 O   0  0  0  0  0  0  0  0  0  0  0  0
   19.3237  -18.4671   18.4054 C   0  0  0  0  0  0  0  0  0  0  0  0
   19.3871  -17.2774   19.0818 C   0  0  0  0  0  0  0  0  0  0  0  0
   18.4444  -16.9367   20.0223 C   0  0  0  0  0  0  0  0  0  0  0  0
   17.3805  -17.7820   20.3335 C   0  0  0  0  0  0  0  0  0  0  0  0
   16.3556  -17.4223   21.3496 C   0  0  0  0  0  0  0  0  0  0  0  0
   15.1128  -17.0022   20.5942 C   0  0  2  0  0  0  0  0  0  0  0  0
   15.3978  -15.7224   19.9743 N   0  0  0  0  0  0  0  0  0  0  0  0
   13.9305  -16.8774   21.4472 C   0  0  0  0  0  0  0  0  0  0  0  0
   13.6546  -15.7884   22.0117 O   0  0  0  0  0  0  0  0  0  0  0  0
   17.3272  -18.9766   19.6463 C   0  0  0  0  0  0  0  0  0  0  0  0
   18.2703  -19.3103   18.7098 C   0  0  0  0  0  0  0  0  0  0  0  0
   13.0666  -17.9939   21.6542 N   0  0  0  0  0  0  0  0  0  0  0  0
   11.9196  -17.9680   22.5168 C   0  0  1  0  0  0  0  0  0  0  0  0
   10.9588  -19.0802   22.2585 C   0  0  0  0  0  0  0  0  0  0  0  0
    9.7690  -19.1700   23.1338 C   0  0  0  0  0  0  0  0  0  0  0  0
    8.8013  -20.2296   22.7997 C   0  0  0  0  0  0  0  0  0  0  0  0
    7.7095  -20.3949   23.4157 O   0  0  0  0  0  0  0  0  0  0  0  0
   12.2209  -17.7990   23.9485 C   0  0  0  0  0  0  0  0  0  0  0  0
   13.3204  -17.2636   24.3200 O   0  0  0  0  0  0  0  0  0  0  0  0
    9.0280  -21.1400   21.7632 O   0  0  0  0  0  0  0  0  0  0  0  0
   11.3581  -18.1935   24.9898 N   0  0  0  0  0  0  0  0  0  0  0  0
   11.2053  -17.3977   26.2175 C   0  0  1  0  0  0  0  0  0  0  0  0
   10.6080  -16.0490   25.7843 C   0  0  0  0  0  0  0  0  0  0  0  0
   10.3129  -15.1816   26.9261 C   0  0  0  0  0  0  0  0  0  0  0  0
    9.2467  -14.2850   26.9022 C   0  0  0  0  0  0  0  0  0  0  0  0
    8.9619  -13.4821   27.9824 C   0  0  0  0  0  0  0  0  0  0  0  0
    9.7117  -13.5223   29.1382 C   0  0  0  0  0  0  0  0  0  0  0  0
   10.7657  -14.4089   29.1620 C   0  0  0  0  0  0  0  0  0  0  0  0
   11.0611  -15.2166   28.0903 C   0  0  0  0  0  0  0  0  0  0  0  0
   10.2073  -18.0627   27.0647 C   0  0  0  0  0  0  0  0  0  0  0  0
    9.1016  -18.7364   26.5322 O   0  0  0  0  0  0  0  0  0  0  0  0
   10.3357  -18.0331   28.3127 O   0  0  0  0  0  0  0  0  0  0  0  0
  2  1  1  0
  3  2  2  0
  4  3  1  0
  5 11  1  0
  5  4  2  0
  6  5  1  0
  7  9  1  0
  7  6  1  0
  7  8  1  1
  9 10  2  0
 11 12  2  0
 12  2  1  0
 13 14  1  0
 13  9  1  0
 14 15  1  1
 16 15  1  0
 17 16  1  0
 17 18  2  0
 19 14  1  0
 20 19  2  0
 21 17  1  0
 22 19  1  0
 23 24  1  6
 23 22  1  0
 24 25  1  0
 25 30  2  0
 26 27  2  0
 26 25  1  0
 27 28  1  0
 28 29  2  0
 30 29  1  0
 31 23  1  0
 31 32  1  0
 33 31  2  0
M  END
$$$$
