YEF.pdb
     RDKit          3D

 33 34  0  0  1  0  0  0  0  0999 V2000
    3.5977  -20.4785   21.4128 O   0  0  0  0  0  0  0  0  0  0  0  0
    4.2748  -19.2559   21.3053 C   0  0  0  0  0  0  0  0  0  0  0  0
    5.0046  -18.7310   22.3392 C   0  0  0  0  0  0  0  0  0  0  0  0
    5.6620  -17.5303   22.2151 C   0  0  0  0  0  0  0  0  0  0  0  0
    5.6190  -16.7895   21.0350 C   0  0  0  0  0  0  0  0  0  0  0  0
    6.3268  -15.4893   20.8911 C   0  0  0  0  0  0  0  0  0  0  0  0
    7.6516  -15.7795   20.2184 C   0  0  2  0  0  0  0  0  0  0  0  0
    7.3797  -16.6475   19.0889 N   0  0  0  0  0  0  0  0  0  0  0  0
    8.6226  -16.4228   21.1041 C   0  0  0  0  0  0  0  0  0  0  0  0
    8.7842  -17.6695   21.0869 O   0  0  0  0  0  0  0  0  0  0  0  0
    4.8814  -17.3278   20.0014 C   0  0  0  0  0  0  0  0  0  0  0  0
    4.2283  -18.5255   20.1317 C   0  0  0  0  0  0  0  0  0  0  0  0
    9.4061  -15.6433   22.0065 N   0  0  0  0  0  0  0  0  0  0  0  0
   10.3104  -16.2043   22.9697 C   0  0  1  0  0  0  0  0  0  0  0  0
   11.7434  -15.9019   22.6835 C   0  0  0  0  0  0  0  0  0  0  0  0
   12.7580  -16.4950   23.5827 C   0  0  0  0  0  0  0  0  0  0  0  0
   14.0530  -16.8271   22.9637 C   0  0  0  0  0  0  0  0  0  0  0  0
   15.0650  -16.0708   23.0179 O   0  0  0  0  0  0  0  0  0  0  0  0
    9.9494  -15.9630   24.3771 C   0  0  0  0  0  0  0  0  0  0  0  0
    9.6895  -14.7799   24.7851 O   0  0  0  0  0  0  0  0  0  0  0  0
   14.2548  -18.0193   22.2620 O   0  0  0  0  0  0  0  0  0  0  0  0
    9.8599  -16.9733   25.3547 N   0  0  0  0  0  0  0  0  0  0  0  0
    9.6823  -16.6621   26.7814 C   0  0  1  0  0  0  0  0  0  0  0  0
    8.3293  -15.9416   26.8993 C   0  0  0  0  0  0  0  0  0  0  0  0
    8.4800  -14.4865   26.9564 C   0  0  0  0  0  0  0  0  0  0  0  0
    9.6237  -13.8938   27.4872 C   0  0  0  0  0  0  0  0  0  0  0  0
    9.7697  -12.5264   27.5254 C   0  0  0  0  0  0  0  0  0  0  0  0
    8.7981  -11.6759   27.0436 C   0  0  0  0  0  0  0  0  0  0  0  0
    7.6673  -12.2619   26.5186 C   0  0  0  0  0  0  0  0  0  0  0  0
    7.5087  -13.6261   26.4741 C   0  0  0  0  0  0  0  0  0  0  0  0
    9.5629  -17.9322   27.5085 C   0  0  0  0  0  0  0  0  0  0  0  0
    9.4470  -17.9898   28.9025 O   0  0  0  0  0  0  0  0  0  0  0  0
    9.5650  -19.0132   26.8711 O   0  0  0  0  0  0  0  0  0  0  0  0
  2  1  1  0
  3  2  2  0
  4  3  1  0
  5 11  1  0
  5  4  2  0
  6  5  1  0
  7  9  1  0
  7  6  1  0
  7  8  1  6
  9 10  2  0
 11 12  2  0
 12  2  1  0
 13 14  1  0
 13  9  1  0
 14 15  1  6
 16 15  1  0
 17 16  1  0
 17 18  2  0
 19 14  1  0
 20 19  2  0
 21 17  1  0
 22 19  1  0
 23 24  1  6
 23 22  1  0
 24 25  1  0
 25 30  2  0
 26 27  2  0
 26 25  1  0
 27 28  1  0
 28 29  2  0
 30 29  1  0
 31 23  1  0
 31 32  1  0
 33 31  2  0
M  END
$$$$
