YEF.pdb
     RDKit          3D

 33 34  0  0  1  0  0  0  0  0999 V2000
    7.8572  -12.7849   15.6940 O   0  0  0  0  0  0  0  0  0  0  0  0
    7.8610  -13.2760   17.0069 C   0  0  0  0  0  0  0  0  0  0  0  0
    8.9633  -13.8710   17.5616 C   0  0  0  0  0  0  0  0  0  0  0  0
    8.9482  -14.3467   18.8511 C   0  0  0  0  0  0  0  0  0  0  0  0
    7.8142  -14.2476   19.6558 C   0  0  0  0  0  0  0  0  0  0  0  0
    7.7880  -14.7595   21.0521 C   0  0  0  0  0  0  0  0  0  0  0  0
    9.1852  -15.2480   21.3699 C   0  0  2  0  0  0  0  0  0  0  0  0
    9.4897  -16.3170   20.4383 N   0  0  0  0  0  0  0  0  0  0  0  0
    9.3291  -15.7407   22.7401 C   0  0  0  0  0  0  0  0  0  0  0  0
    8.8904  -15.0769   23.7136 O   0  0  0  0  0  0  0  0  0  0  0  0
    6.7108  -13.6469   19.0866 C   0  0  0  0  0  0  0  0  0  0  0  0
    6.7326  -13.1747   17.8003 C   0  0  0  0  0  0  0  0  0  0  0  0
    9.9725  -16.9880   22.9966 N   0  0  0  0  0  0  0  0  0  0  0  0
   10.1153  -17.5596   24.3056 C   0  0  1  0  0  0  0  0  0  0  0  0
   10.6745  -18.9431   24.2901 C   0  0  0  0  0  0  0  0  0  0  0  0
   10.6670  -19.6669   22.9994 C   0  0  0  0  0  0  0  0  0  0  0  0
   11.6956  -20.7093   22.8387 C   0  0  0  0  0  0  0  0  0  0  0  0
   11.4615  -21.9449   22.9709 O   0  0  0  0  0  0  0  0  0  0  0  0
   10.7753  -16.6915   25.2955 C   0  0  0  0  0  0  0  0  0  0  0  0
   11.9968  -16.3477   25.1430 O   0  0  0  0  0  0  0  0  0  0  0  0
   13.0223  -20.3990   22.5251 O   0  0  0  0  0  0  0  0  0  0  0  0
   10.1431  -16.1831   26.4472 N   0  0  0  0  0  0  0  0  0  0  0  0
   10.9094  -15.6586   27.5881 C   0  0  1  0  0  0  0  0  0  0  0  0
   10.6893  -14.1370   27.5910 C   0  0  0  0  0  0  0  0  0  0  0  0
    9.3031  -13.7774   27.2872 C   0  0  0  0  0  0  0  0  0  0  0  0
    8.5040  -13.1127   28.2150 C   0  0  0  0  0  0  0  0  0  0  0  0
    7.2065  -12.7620   27.9215 C   0  0  0  0  0  0  0  0  0  0  0  0
    6.6323  -13.0479   26.7017 C   0  0  0  0  0  0  0  0  0  0  0  0
    7.4225  -13.7049   25.7842 C   0  0  0  0  0  0  0  0  0  0  0  0
    8.7198  -14.0608   26.0643 C   0  0  0  0  0  0  0  0  0  0  0  0
   10.3057  -16.1870   28.8179 C   0  0  0  0  0  0  0  0  0  0  0  0
    9.2134  -17.0625   28.8004 O   0  0  0  0  0  0  0  0  0  0  0  0
   10.7738  -15.8494   29.9323 O   0  0  0  0  0  0  0  0  0  0  0  0
  2  1  1  0
  3  2  2  0
  4  3  1  0
  5 11  1  0
  5  4  2  0
  6  5  1  0
  7  9  1  0
  7  6  1  0
  7  8  1  6
  9 10  2  0
 11 12  2  0
 12  2  1  0
 13 14  1  0
 13  9  1  0
 14 15  1  6
 16 15  1  0
 17 16  1  0
 17 18  2  0
 19 14  1  0
 20 19  2  0
 21 17  1  0
 22 19  1  0
 23 24  1  1
 23 22  1  0
 24 25  1  0
 25 30  2  0
 26 27  2  0
 26 25  1  0
 27 28  1  0
 28 29  2  0
 30 29  1  0
 31 23  1  0
 31 32  1  0
 33 31  2  0
M  END
$$$$
