YEF.pdb
     RDKit          3D

 33 34  0  0  1  0  0  0  0  0999 V2000
    7.4396  -11.9682   17.2280 O   0  0  0  0  0  0  0  0  0  0  0  0
    7.5299  -12.6799   18.4323 C   0  0  0  0  0  0  0  0  0  0  0  0
    8.7033  -12.7882   19.1312 C   0  0  0  0  0  0  0  0  0  0  0  0
    8.7725  -13.4905   20.3108 C   0  0  0  0  0  0  0  0  0  0  0  0
    7.6559  -14.1253   20.8526 C   0  0  0  0  0  0  0  0  0  0  0  0
    7.7209  -14.8876   22.1282 C   0  0  0  0  0  0  0  0  0  0  0  0
    8.3876  -16.2109   21.8186 C   0  0  2  0  0  0  0  0  0  0  0  0
    7.4422  -17.0007   21.0533 N   0  0  0  0  0  0  0  0  0  0  0  0
    8.7858  -16.9531   23.0151 C   0  0  0  0  0  0  0  0  0  0  0  0
    7.9362  -17.5801   23.6976 O   0  0  0  0  0  0  0  0  0  0  0  0
    6.4806  -14.0093   20.1403 C   0  0  0  0  0  0  0  0  0  0  0  0
    6.4184  -13.3076   18.9649 C   0  0  0  0  0  0  0  0  0  0  0  0
   10.1507  -16.9785   23.4300 N   0  0  0  0  0  0  0  0  0  0  0  0
   10.6059  -17.5946   24.6438 C   0  0  1  0  0  0  0  0  0  0  0  0
   11.7439  -18.5380   24.4388 C   0  0  0  0  0  0  0  0  0  0  0  0
   12.2109  -19.3079   25.6131 C   0  0  0  0  0  0  0  0  0  0  0  0
   12.9716  -20.5348   25.3188 C   0  0  0  0  0  0  0  0  0  0  0  0
   13.1182  -21.4788   26.1471 O   0  0  0  0  0  0  0  0  0  0  0  0
   10.8320  -16.6677   25.7659 C   0  0  0  0  0  0  0  0  0  0  0  0
   11.5765  -15.6396   25.6164 O   0  0  0  0  0  0  0  0  0  0  0  0
   13.5941  -20.7423   24.0842 O   0  0  0  0  0  0  0  0  0  0  0  0
   10.2684  -16.8252   27.0472 N   0  0  0  0  0  0  0  0  0  0  0  0
   10.5856  -15.9105   28.1547 C   0  0  1  0  0  0  0  0  0  0  0  0
    9.2479  -15.3024   28.6069 C   0  0  0  0  0  0  0  0  0  0  0  0
    8.6294  -14.4854   27.5614 C   0  0  0  0  0  0  0  0  0  0  0  0
    7.6073  -14.9849   26.7571 C   0  0  0  0  0  0  0  0  0  0  0  0
    7.0169  -14.2100   25.7857 C   0  0  0  0  0  0  0  0  0  0  0  0
    7.4032  -12.9066   25.5584 C   0  0  0  0  0  0  0  0  0  0  0  0
    8.4137  -12.4127   26.3538 C   0  0  0  0  0  0  0  0  0  0  0  0
    9.0117  -13.1757   27.3276 C   0  0  0  0  0  0  0  0  0  0  0  0
   11.0967  -16.7149   29.2717 C   0  0  0  0  0  0  0  0  0  0  0  0
   11.6017  -16.1367   30.4424 O   0  0  0  0  0  0  0  0  0  0  0  0
   11.0886  -17.9671   29.1878 O   0  0  0  0  0  0  0  0  0  0  0  0
  2  1  1  0
  3  2  2  0
  4  3  1  0
  5 11  1  0
  5  4  2  0
  6  5  1  0
  7  9  1  0
  7  6  1  0
  7  8  1  1
  9 10  2  0
 11 12  2  0
 12  2  1  0
 13 14  1  0
 13  9  1  0
 14 15  1  6
 16 15  1  0
 17 16  1  0
 17 18  2  0
 19 14  1  0
 20 19  2  0
 21 17  1  0
 22 19  1  0
 23 24  1  1
 23 22  1  0
 24 25  1  0
 25 30  2  0
 26 27  2  0
 26 25  1  0
 27 28  1  0
 28 29  2  0
 30 29  1  0
 31 23  1  0
 31 32  1  0
 33 31  2  0
M  END
$$$$
