YEF.pdb
     RDKit          3D

 33 34  0  0  1  0  0  0  0  0999 V2000
    9.4998  -12.3304   19.1062 O   0  0  0  0  0  0  0  0  0  0  0  0
    8.6163  -13.1383   19.8354 C   0  0  0  0  0  0  0  0  0  0  0  0
    8.4987  -13.0487   21.1974 C   0  0  0  0  0  0  0  0  0  0  0  0
    7.6266  -13.8496   21.8956 C   0  0  0  0  0  0  0  0  0  0  0  0
    6.8213  -14.7897   21.2545 C   0  0  0  0  0  0  0  0  0  0  0  0
    5.8747  -15.6608   22.0012 C   0  0  0  0  0  0  0  0  0  0  0  0
    6.5064  -17.0343   22.0796 C   0  0  2  0  0  0  0  0  0  0  0  0
    5.4557  -17.9723   22.4252 N   0  0  0  0  0  0  0  0  0  0  0  0
    7.5818  -17.1220   23.0680 C   0  0  0  0  0  0  0  0  0  0  0  0
    7.3273  -17.3336   24.2809 O   0  0  0  0  0  0  0  0  0  0  0  0
    6.9484  -14.8707   19.8835 C   0  0  0  0  0  0  0  0  0  0  0  0
    7.8198  -14.0693   19.1935 C   0  0  0  0  0  0  0  0  0  0  0  0
    8.9436  -16.9681   22.6711 N   0  0  0  0  0  0  0  0  0  0  0  0
   10.0609  -17.1948   23.5432 C   0  0  1  0  0  0  0  0  0  0  0  0
   11.3615  -17.3133   22.8212 C   0  0  0  0  0  0  0  0  0  0  0  0
   12.5558  -17.6640   23.6215 C   0  0  0  0  0  0  0  0  0  0  0  0
   13.8203  -17.7827   22.8748 C   0  0  0  0  0  0  0  0  0  0  0  0
   14.6651  -16.8464   22.7826 O   0  0  0  0  0  0  0  0  0  0  0  0
   10.1367  -16.2932   24.7054 C   0  0  0  0  0  0  0  0  0  0  0  0
   10.5041  -15.0779   24.5590 O   0  0  0  0  0  0  0  0  0  0  0  0
   14.1781  -18.9569   22.2056 O   0  0  0  0  0  0  0  0  0  0  0  0
    9.8211  -16.6751   26.0240 N   0  0  0  0  0  0  0  0  0  0  0  0
   10.0479  -15.7797   27.1689 C   0  0  1  0  0  0  0  0  0  0  0  0
    8.6650  -15.5086   27.7835 C   0  0  0  0  0  0  0  0  0  0  0  0
    7.9307  -14.4703   27.0582 C   0  0  0  0  0  0  0  0  0  0  0  0
    8.2446  -13.1208   27.2040 C   0  0  0  0  0  0  0  0  0  0  0  0
    7.5634  -12.1480   26.5094 C   0  0  0  0  0  0  0  0  0  0  0  0
    6.5408  -12.4555   25.6381 C   0  0  0  0  0  0  0  0  0  0  0  0
    6.2305  -13.7899   25.4938 C   0  0  0  0  0  0  0  0  0  0  0  0
    6.9029  -14.7715   26.1812 C   0  0  0  0  0  0  0  0  0  0  0  0
   10.8309  -16.5163   28.1692 C   0  0  0  0  0  0  0  0  0  0  0  0
   11.2186  -17.8488   27.9848 O   0  0  0  0  0  0  0  0  0  0  0  0
   11.1706  -15.9445   29.2335 O   0  0  0  0  0  0  0  0  0  0  0  0
  2  1  1  0
  3  2  2  0
  4  3  1  0
  5 11  1  0
  5  4  2  0
  6  5  1  0
  7  9  1  0
  7  6  1  0
  7  8  1  1
  9 10  2  0
 11 12  2  0
 12  2  1  0
 13 14  1  0
 13  9  1  0
 14 15  1  6
 16 15  1  0
 17 16  1  0
 17 18  2  0
 19 14  1  0
 20 19  2  0
 21 17  1  0
 22 19  1  0
 23 24  1  1
 23 22  1  0
 24 25  1  0
 25 30  2  0
 26 27  2  0
 26 25  1  0
 27 28  1  0
 28 29  2  0
 30 29  1  0
 31 23  1  0
 31 32  1  0
 33 31  2  0
M  END
$$$$
