YEF.pdb
     RDKit          3D

 33 34  0  0  1  0  0  0  0  0999 V2000
    7.6147  -12.5372   16.6220 O   0  0  0  0  0  0  0  0  0  0  0  0
    7.7604  -13.0816   17.9055 C   0  0  0  0  0  0  0  0  0  0  0  0
    7.5360  -12.3479   19.0405 C   0  0  0  0  0  0  0  0  0  0  0  0
    7.6839  -12.8991   20.2910 C   0  0  0  0  0  0  0  0  0  0  0  0
    8.0685  -14.2276   20.4657 C   0  0  0  0  0  0  0  0  0  0  0  0
    8.2314  -14.8330   21.8145 C   0  0  0  0  0  0  0  0  0  0  0  0
    8.4960  -16.3090   21.6073 C   0  0  2  0  0  0  0  0  0  0  0  0
    7.2331  -16.9271   21.2518 N   0  0  0  0  0  0  0  0  0  0  0  0
    9.0458  -16.9709   22.7908 C   0  0  0  0  0  0  0  0  0  0  0  0
    8.3119  -17.2511   23.7724 O   0  0  0  0  0  0  0  0  0  0  0  0
    8.2915  -14.9561   19.3160 C   0  0  0  0  0  0  0  0  0  0  0  0
    8.1421  -14.4005   18.0723 C   0  0  0  0  0  0  0  0  0  0  0  0
   10.4300  -17.3114   22.8518 N   0  0  0  0  0  0  0  0  0  0  0  0
   11.1014  -17.7162   24.0542 C   0  0  1  0  0  0  0  0  0  0  0  0
   12.3825  -18.4391   23.8027 C   0  0  0  0  0  0  0  0  0  0  0  0
   13.0925  -18.9958   24.9757 C   0  0  0  0  0  0  0  0  0  0  0  0
   14.3898  -19.6372   24.6996 C   0  0  0  0  0  0  0  0  0  0  0  0
   15.4802  -19.2512   25.2104 O   0  0  0  0  0  0  0  0  0  0  0  0
   11.2340  -16.6652   25.0774 C   0  0  0  0  0  0  0  0  0  0  0  0
   12.0293  -15.6814   24.8957 O   0  0  0  0  0  0  0  0  0  0  0  0
   14.5062  -20.7332   23.8395 O   0  0  0  0  0  0  0  0  0  0  0  0
   10.5231  -16.6517   26.2935 N   0  0  0  0  0  0  0  0  0  0  0  0
   11.0439  -15.9762   27.4919 C   0  0  1  0  0  0  0  0  0  0  0  0
   10.9919  -14.4690   27.1930 C   0  0  0  0  0  0  0  0  0  0  0  0
    9.6689  -14.0406   26.7354 C   0  0  0  0  0  0  0  0  0  0  0  0
    8.8747  -13.1896   27.5011 C   0  0  0  0  0  0  0  0  0  0  0  0
    7.6384  -12.7758   27.0619 C   0  0  0  0  0  0  0  0  0  0  0  0
    7.1235  -13.1789   25.8487 C   0  0  0  0  0  0  0  0  0  0  0  0
    7.9088  -14.0201   25.0915 C   0  0  0  0  0  0  0  0  0  0  0  0
    9.1454  -14.4409   25.5181 C   0  0  0  0  0  0  0  0  0  0  0  0
   10.1101  -16.2325   28.5957 C   0  0  0  0  0  0  0  0  0  0  0  0
    8.9807  -17.0466   28.4483 O   0  0  0  0  0  0  0  0  0  0  0  0
   10.3178  -15.7085   29.7170 O   0  0  0  0  0  0  0  0  0  0  0  0
  2  1  1  0
  3  2  2  0
  4  3  1  0
  5 11  1  0
  5  4  2  0
  6  5  1  0
  7  9  1  0
  7  6  1  0
  7  8  1  1
  9 10  2  0
 11 12  2  0
 12  2  1  0
 13 14  1  0
 13  9  1  0
 14 15  1  6
 16 15  1  0
 17 16  1  0
 17 18  2  0
 19 14  1  0
 20 19  2  0
 21 17  1  0
 22 19  1  0
 23 24  1  6
 23 22  1  0
 24 25  1  0
 25 30  2  0
 26 27  2  0
 26 25  1  0
 27 28  1  0
 28 29  2  0
 30 29  1  0
 31 23  1  0
 31 32  1  0
 33 31  2  0
M  END
$$$$
