YEF.pdb
     RDKit          3D

 33 34  0  0  1  0  0  0  0  0999 V2000
    8.0174  -12.1760   16.7979 O   0  0  0  0  0  0  0  0  0  0  0  0
    7.8594  -12.7543   18.0651 C   0  0  0  0  0  0  0  0  0  0  0  0
    6.6278  -13.0652   18.5783 C   0  0  0  0  0  0  0  0  0  0  0  0
    6.4926  -13.6320   19.8232 C   0  0  0  0  0  0  0  0  0  0  0  0
    7.5984  -13.9176   20.6227 C   0  0  0  0  0  0  0  0  0  0  0  0
    7.4623  -14.5306   21.9710 C   0  0  0  0  0  0  0  0  0  0  0  0
    7.6616  -16.0216   21.8006 C   0  0  2  0  0  0  0  0  0  0  0  0
    6.3621  -16.6001   21.5179 N   0  0  0  0  0  0  0  0  0  0  0  0
    8.2359  -16.6681   22.9810 C   0  0  0  0  0  0  0  0  0  0  0  0
    7.5067  -17.0179   23.9437 O   0  0  0  0  0  0  0  0  0  0  0  0
    8.8327  -13.6002   20.0955 C   0  0  0  0  0  0  0  0  0  0  0  0
    8.9605  -13.0352   18.8536 C   0  0  0  0  0  0  0  0  0  0  0  0
    9.6391  -16.9138   23.0606 N   0  0  0  0  0  0  0  0  0  0  0  0
   10.2829  -17.5119   24.1955 C   0  0  1  0  0  0  0  0  0  0  0  0
   11.5059  -18.2900   23.8411 C   0  0  0  0  0  0  0  0  0  0  0  0
   12.1674  -19.0507   24.9244 C   0  0  0  0  0  0  0  0  0  0  0  0
   13.4159  -19.7417   24.5576 C   0  0  0  0  0  0  0  0  0  0  0  0
   14.3270  -20.0215   25.3886 O   0  0  0  0  0  0  0  0  0  0  0  0
   10.4966  -16.6077   25.3383 C   0  0  0  0  0  0  0  0  0  0  0  0
   11.2487  -15.5812   25.2199 O   0  0  0  0  0  0  0  0  0  0  0  0
   13.6834  -20.1410   23.2447 O   0  0  0  0  0  0  0  0  0  0  0  0
    9.9125  -16.7864   26.6077 N   0  0  0  0  0  0  0  0  0  0  0  0
   10.2598  -15.9292   27.7517 C   0  0  1  0  0  0  0  0  0  0  0  0
    8.9332  -15.3611   28.2818 C   0  0  0  0  0  0  0  0  0  0  0  0
    8.3319  -14.4012   27.3543 C   0  0  0  0  0  0  0  0  0  0  0  0
    7.3097  -14.7732   26.4838 C   0  0  0  0  0  0  0  0  0  0  0  0
    6.7355  -13.8655   25.6241 C   0  0  0  0  0  0  0  0  0  0  0  0
    7.1388  -12.5484   25.5790 C   0  0  0  0  0  0  0  0  0  0  0  0
    8.1494  -12.1805   26.4399 C   0  0  0  0  0  0  0  0  0  0  0  0
    8.7314  -13.0768   27.3036 C   0  0  0  0  0  0  0  0  0  0  0  0
   10.8167  -16.7871   28.8052 C   0  0  0  0  0  0  0  0  0  0  0  0
   10.9524  -18.1719   28.6505 O   0  0  0  0  0  0  0  0  0  0  0  0
   11.1871  -16.2751   29.8895 O   0  0  0  0  0  0  0  0  0  0  0  0
  2  1  1  0
  3  2  2  0
  4  3  1  0
  5 11  1  0
  5  4  2  0
  6  5  1  0
  7  9  1  0
  7  6  1  0
  7  8  1  1
  9 10  2  0
 11 12  2  0
 12  2  1  0
 13 14  1  0
 13  9  1  0
 14 15  1  6
 16 15  1  0
 17 16  1  0
 17 18  2  0
 19 14  1  0
 20 19  2  0
 21 17  1  0
 22 19  1  0
 23 24  1  1
 23 22  1  0
 24 25  1  0
 25 30  2  0
 26 27  2  0
 26 25  1  0
 27 28  1  0
 28 29  2  0
 30 29  1  0
 31 23  1  0
 31 32  1  0
 33 31  2  0
M  END
$$$$
