LSE.pdb
     RDKit          3D

 24 23  0  0  1  0  0  0  0  0999 V2000
    6.3378  -12.1060   25.6063 C   0  0  0  0  0  0  0  0  0  0  0  0
    6.5727  -13.0744   26.7653 C   0  0  2  0  0  0  0  0  0  0  0  0
    7.3545  -12.3155   27.8061 C   0  0  0  0  0  0  0  0  0  0  0  0
    7.3688  -14.2288   26.2223 C   0  0  0  0  0  0  0  0  0  0  0  0
    6.6530  -15.0365   25.1833 C   0  0  2  0  0  0  0  0  0  0  0  0
    5.7179  -15.9224   25.8136 N   0  0  0  0  0  0  0  0  0  0  0  0
    7.6640  -15.8005   24.4045 C   0  0  0  0  0  0  0  0  0  0  0  0
    8.2957  -16.7418   24.9797 O   0  0  0  0  0  0  0  0  0  0  0  0
    8.3715  -15.0234   20.5048 O   0  0  0  0  0  0  0  0  0  0  0  0
    8.9282  -16.2416   20.8921 C   0  0  0  0  0  0  0  0  0  0  0  0
    9.0387  -16.2650   22.4064 C   0  0  2  0  0  0  0  0  0  0  0  0
    7.9796  -15.5507   23.0447 N   0  0  0  0  0  0  0  0  0  0  0  0
   10.3847  -15.8195   22.8486 C   0  0  0  0  0  0  0  0  0  0  0  0
   10.6183  -14.5889   22.8138 O   0  0  0  0  0  0  0  0  0  0  0  0
   11.3645  -16.7304   23.2899 N   0  0  0  0  0  0  0  0  0  0  0  0
   12.7257  -16.3221   23.6803 C   0  0  1  0  0  0  0  0  0  0  0  0
   13.0547  -17.0411   24.9604 C   0  0  0  0  0  0  0  0  0  0  0  0
   12.2447  -18.2711   25.2276 C   0  0  0  0  0  0  0  0  0  0  0  0
   12.2264  -18.6729   26.6341 C   0  0  0  0  0  0  0  0  0  0  0  0
   11.4442  -18.1518   27.4391 O   0  0  0  0  0  0  0  0  0  0  0  0
   13.6530  -16.7161   22.5955 C   0  0  0  0  0  0  0  0  0  0  0  0
   14.9693  -16.2994   22.6452 O   0  0  0  0  0  0  0  0  0  0  0  0
   13.0896  -19.6603   27.1274 O   0  0  0  0  0  0  0  0  0  0  0  0
   13.2799  -17.4119   21.6403 O   0  0  0  0  0  0  0  0  0  0  0  0
  2  1  1  6
  3  2  1  0
  4  2  1  0
  5  6  1  1
  5  4  1  0
  7  5  1  0
  8  7  2  0
  9 10  1  0
 11 10  1  6
 11 13  1  0
 11 12  1  0
 12  7  1  0
 13 14  2  0
 15 16  1  0
 15 13  1  0
 16 17  1  1
 18 19  1  0
 18 17  1  0
 19 20  2  0
 21 22  1  0
 21 16  1  0
 23 19  1  0
 24 21  2  0
M  END
$$$$
