LSE.pdb
     RDKit          3D

 24 23  0  0  1  0  0  0  0  0999 V2000
    8.8389  -12.9385   18.4623 C   0  0  0  0  0  0  0  0  0  0  0  0
    8.0595  -13.4293   19.6820 C   0  0  2  0  0  0  0  0  0  0  0  0
    7.4488  -12.2086   20.3202 C   0  0  0  0  0  0  0  0  0  0  0  0
    9.0493  -14.0867   20.6037 C   0  0  0  0  0  0  0  0  0  0  0  0
    9.6178  -15.3710   20.0826 C   0  0  2  0  0  0  0  0  0  0  0  0
    8.6318  -16.0588   19.3009 N   0  0  0  0  0  0  0  0  0  0  0  0
   10.0464  -16.1986   21.2418 C   0  0  0  0  0  0  0  0  0  0  0  0
   10.7147  -15.6483   22.1726 O   0  0  0  0  0  0  0  0  0  0  0  0
    9.4750  -20.3034   21.5067 O   0  0  0  0  0  0  0  0  0  0  0  0
    9.5272  -19.6224   22.7223 C   0  0  0  0  0  0  0  0  0  0  0  0
   10.2556  -18.3070   22.5104 C   0  0  2  0  0  0  0  0  0  0  0  0
    9.7588  -17.5798   21.3863 N   0  0  0  0  0  0  0  0  0  0  0  0
   11.7253  -18.5145   22.4606 C   0  0  0  0  0  0  0  0  0  0  0  0
   12.2364  -18.7069   21.3328 O   0  0  0  0  0  0  0  0  0  0  0  0
   12.5210  -18.4983   23.6231 N   0  0  0  0  0  0  0  0  0  0  0  0
   13.9876  -18.6407   23.5967 C   0  0  1  0  0  0  0  0  0  0  0  0
   14.5451  -17.3803   22.9932 C   0  0  0  0  0  0  0  0  0  0  0  0
   16.0305  -17.2269   23.0953 C   0  0  0  0  0  0  0  0  0  0  0  0
   16.5438  -16.0100   22.4662 C   0  0  0  0  0  0  0  0  0  0  0  0
   16.9792  -16.0222   21.3080 O   0  0  0  0  0  0  0  0  0  0  0  0
   14.4576  -18.8167   24.9896 C   0  0  0  0  0  0  0  0  0  0  0  0
   15.7428  -19.2696   25.2184 O   0  0  0  0  0  0  0  0  0  0  0  0
   16.5639  -14.7844   23.1452 O   0  0  0  0  0  0  0  0  0  0  0  0
   13.7277  -18.5682   25.9597 O   0  0  0  0  0  0  0  0  0  0  0  0
  2  1  1  6
  3  2  1  0
  4  2  1  0
  5  6  1  1
  5  4  1  0
  7  5  1  0
  8  7  2  0
  9 10  1  0
 11 10  1  6
 11 13  1  0
 11 12  1  0
 12  7  1  0
 13 14  2  0
 15 16  1  0
 15 13  1  0
 16 17  1  1
 18 19  1  0
 18 17  1  0
 19 20  2  0
 21 22  1  0
 21 16  1  0
 23 19  1  0
 24 21  2  0
M  END
$$$$
