LSE.pdb
     RDKit          3D

 24 23  0  0  1  0  0  0  0  0999 V2000
    8.6339  -13.7711   18.1298 C   0  0  0  0  0  0  0  0  0  0  0  0
    7.6851  -14.1816   19.2555 C   0  0  2  0  0  0  0  0  0  0  0  0
    6.4719  -13.2957   19.1379 C   0  0  0  0  0  0  0  0  0  0  0  0
    8.4083  -13.9432   20.5522 C   0  0  0  0  0  0  0  0  0  0  0  0
    7.9454  -14.8084   21.6841 C   0  0  2  0  0  0  0  0  0  0  0  0
    6.7223  -14.2904   22.2247 N   0  0  0  0  0  0  0  0  0  0  0  0
    9.0124  -14.8359   22.7200 C   0  0  0  0  0  0  0  0  0  0  0  0
    9.2410  -13.7807   23.3910 O   0  0  0  0  0  0  0  0  0  0  0  0
    9.8480  -17.6186   25.2285 O   0  0  0  0  0  0  0  0  0  0  0  0
   10.4398  -16.3624   25.3543 C   0  0  0  0  0  0  0  0  0  0  0  0
   10.8619  -15.8848   23.9760 C   0  0  2  0  0  0  0  0  0  0  0  0
    9.8064  -15.9726   23.0182 N   0  0  0  0  0  0  0  0  0  0  0  0
   12.1030  -16.5695   23.5326 C   0  0  0  0  0  0  0  0  0  0  0  0
   11.9705  -17.6758   22.9593 O   0  0  0  0  0  0  0  0  0  0  0  0
   13.3790  -16.0102   23.7414 N   0  0  0  0  0  0  0  0  0  0  0  0
   14.6300  -16.7057   23.3903 C   0  0  1  0  0  0  0  0  0  0  0  0
   15.7251  -15.6740   23.3862 C   0  0  0  0  0  0  0  0  0  0  0  0
   17.1102  -16.2146   23.2139 C   0  0  0  0  0  0  0  0  0  0  0  0
   18.1486  -15.1843   23.1927 C   0  0  0  0  0  0  0  0  0  0  0  0
   18.3465  -14.4949   22.1844 O   0  0  0  0  0  0  0  0  0  0  0  0
   14.8816  -17.7446   24.4147 C   0  0  0  0  0  0  0  0  0  0  0  0
   15.6016  -18.8729   24.0720 O   0  0  0  0  0  0  0  0  0  0  0  0
   18.9592  -14.9353   24.3082 O   0  0  0  0  0  0  0  0  0  0  0  0
   14.4628  -17.6299   25.5753 O   0  0  0  0  0  0  0  0  0  0  0  0
  2  1  1  6
  3  2  1  0
  4  2  1  0
  5  6  1  1
  5  4  1  0
  7  5  1  0
  8  7  2  0
  9 10  1  0
 11 10  1  1
 11 13  1  0
 11 12  1  0
 12  7  1  0
 13 14  2  0
 15 16  1  0
 15 13  1  0
 16 17  1  1
 18 19  1  0
 18 17  1  0
 19 20  2  0
 21 22  1  0
 21 16  1  0
 23 19  1  0
 24 21  2  0
M  END
$$$$
