LSE.pdb
     RDKit          3D

 24 23  0  0  1  0  0  0  0  0999 V2000
    7.3916  -14.8389   16.4725 C   0  0  0  0  0  0  0  0  0  0  0  0
    8.5344  -14.9946   17.4754 C   0  0  2  0  0  0  0  0  0  0  0  0
    9.2089  -16.3038   17.1566 C   0  0  0  0  0  0  0  0  0  0  0  0
    7.9183  -15.0206   18.8470 C   0  0  0  0  0  0  0  0  0  0  0  0
    7.9079  -13.6942   19.5431 C   0  0  2  0  0  0  0  0  0  0  0  0
    8.5755  -12.7149   18.7358 N   0  0  0  0  0  0  0  0  0  0  0  0
    8.5870  -13.8491   20.8574 C   0  0  0  0  0  0  0  0  0  0  0  0
    9.8155  -13.5363   20.9519 O   0  0  0  0  0  0  0  0  0  0  0  0
    6.8098  -15.3226   24.4003 O   0  0  0  0  0  0  0  0  0  0  0  0
    7.8401  -14.3865   24.4803 C   0  0  0  0  0  0  0  0  0  0  0  0
    8.7012  -14.5054   23.2353 C   0  0  2  0  0  0  0  0  0  0  0  0
    7.9529  -14.3283   22.0320 N   0  0  0  0  0  0  0  0  0  0  0  0
    9.4842  -15.7673   23.2484 C   0  0  0  0  0  0  0  0  0  0  0  0
    9.0875  -16.6925   22.5023 O   0  0  0  0  0  0  0  0  0  0  0  0
   10.6246  -15.9295   24.0596 N   0  0  0  0  0  0  0  0  0  0  0  0
   11.4200  -17.1697   24.0914 C   0  0  1  0  0  0  0  0  0  0  0  0
   12.6641  -16.9198   23.2831 C   0  0  0  0  0  0  0  0  0  0  0  0
   13.6527  -15.9847   23.9063 C   0  0  0  0  0  0  0  0  0  0  0  0
   14.8179  -15.7099   23.0654 C   0  0  0  0  0  0  0  0  0  0  0  0
   15.8835  -16.3174   23.2290 O   0  0  0  0  0  0  0  0  0  0  0  0
   11.7534  -17.4660   25.5031 C   0  0  0  0  0  0  0  0  0  0  0  0
   11.3897  -16.5676   26.4878 O   0  0  0  0  0  0  0  0  0  0  0  0
   14.7771  -14.7519   22.0437 O   0  0  0  0  0  0  0  0  0  0  0  0
   12.3521  -18.5014   25.8275 O   0  0  0  0  0  0  0  0  0  0  0  0
  2  1  1  6
  3  2  1  0
  4  2  1  0
  5  6  1  6
  5  4  1  0
  7  5  1  0
  8  7  2  0
  9 10  1  0
 11 10  1  1
 11 13  1  0
 11 12  1  0
 12  7  1  0
 13 14  2  0
 15 16  1  0
 15 13  1  0
 16 17  1  6
 18 19  1  0
 18 17  1  0
 19 20  2  0
 21 22  1  0
 21 16  1  0
 23 19  1  0
 24 21  2  0
M  END
$$$$
