LSE.pdb
     RDKit          3D

 24 23  0  0  1  0  0  0  0  0999 V2000
    7.0205  -11.0419   25.5478 C   0  0  0  0  0  0  0  0  0  0  0  0
    6.2452  -12.2754   26.0098 C   0  0  2  0  0  0  0  0  0  0  0  0
    5.9009  -12.0472   27.4589 C   0  0  0  0  0  0  0  0  0  0  0  0
    7.1595  -13.4583   25.8483 C   0  0  0  0  0  0  0  0  0  0  0  0
    8.0256  -13.4055   24.6272 C   0  0  2  0  0  0  0  0  0  0  0  0
    7.3112  -12.7855   23.5495 N   0  0  0  0  0  0  0  0  0  0  0  0
    8.4195  -14.7950   24.2713 C   0  0  0  0  0  0  0  0  0  0  0  0
    8.6222  -15.6319   25.2064 O   0  0  0  0  0  0  0  0  0  0  0  0
    9.5169  -16.1441   20.4396 O   0  0  0  0  0  0  0  0  0  0  0  0
    8.7882  -17.0187   21.2449 C   0  0  0  0  0  0  0  0  0  0  0  0
    8.9769  -16.6132   22.6960 C   0  0  2  0  0  0  0  0  0  0  0  0
    8.5884  -15.2614   22.9427 N   0  0  0  0  0  0  0  0  0  0  0  0
   10.3571  -16.9109   23.1565 C   0  0  0  0  0  0  0  0  0  0  0  0
   11.1983  -15.9859   23.0730 O   0  0  0  0  0  0  0  0  0  0  0  0
   10.7175  -18.1737   23.6667 N   0  0  0  0  0  0  0  0  0  0  0  0
   12.0844  -18.5034   24.1079 C   0  0  1  0  0  0  0  0  0  0  0  0
   11.9760  -19.6652   25.0577 C   0  0  0  0  0  0  0  0  0  0  0  0
   12.5935  -19.4485   26.4039 C   0  0  0  0  0  0  0  0  0  0  0  0
   11.6653  -19.6415   27.5180 C   0  0  0  0  0  0  0  0  0  0  0  0
   10.4989  -20.0063   27.3243 O   0  0  0  0  0  0  0  0  0  0  0  0
   12.8787  -18.8661   22.9123 C   0  0  0  0  0  0  0  0  0  0  0  0
   14.2557  -18.7626   22.9572 O   0  0  0  0  0  0  0  0  0  0  0  0
   12.0559  -19.4227   28.8459 O   0  0  0  0  0  0  0  0  0  0  0  0
   12.3407  -19.2614   21.8682 O   0  0  0  0  0  0  0  0  0  0  0  0
  2  1  1  1
  3  2  1  0
  4  2  1  0
  5  6  1  6
  5  4  1  0
  7  5  1  0
  8  7  2  0
  9 10  1  0
 11 10  1  6
 11 13  1  0
 11 12  1  0
 12  7  1  0
 13 14  2  0
 15 16  1  0
 15 13  1  0
 16 17  1  1
 18 19  1  0
 18 17  1  0
 19 20  2  0
 21 22  1  0
 21 16  1  0
 23 19  1  0
 24 21  2  0
M  END
$$$$
