LSE.pdb
     RDKit          3D

 24 23  0  0  1  0  0  0  0  0999 V2000
    5.7416  -12.1798   25.6223 C   0  0  0  0  0  0  0  0  0  0  0  0
    6.4339  -12.9175   26.7680 C   0  0  2  0  0  0  0  0  0  0  0  0
    7.2305  -11.8851   27.5231 C   0  0  0  0  0  0  0  0  0  0  0  0
    7.3332  -13.9513   26.1485 C   0  0  0  0  0  0  0  0  0  0  0  0
    6.6167  -14.9782   25.3262 C   0  0  2  0  0  0  0  0  0  0  0  0
    6.0100  -15.9534   26.1849 N   0  0  0  0  0  0  0  0  0  0  0  0
    7.6009  -15.6168   24.4119 C   0  0  0  0  0  0  0  0  0  0  0  0
    8.4166  -16.4673   24.8887 O   0  0  0  0  0  0  0  0  0  0  0  0
    7.2780  -15.3608   20.4515 O   0  0  0  0  0  0  0  0  0  0  0  0
    8.6177  -15.5866   20.7652 C   0  0  0  0  0  0  0  0  0  0  0  0
    8.7163  -15.9554   22.2348 C   0  0  2  0  0  0  0  0  0  0  0  0
    7.6969  -15.3412   23.0241 N   0  0  0  0  0  0  0  0  0  0  0  0
   10.0832  -15.7008   22.7568 C   0  0  0  0  0  0  0  0  0  0  0  0
   10.3066  -14.5674   23.2422 O   0  0  0  0  0  0  0  0  0  0  0  0
   11.0931  -16.6821   22.7137 N   0  0  0  0  0  0  0  0  0  0  0  0
   12.4155  -16.5042   23.3394 C   0  0  1  0  0  0  0  0  0  0  0  0
   12.6107  -17.6480   24.2973 C   0  0  0  0  0  0  0  0  0  0  0  0
   13.9986  -17.7982   24.8372 C   0  0  0  0  0  0  0  0  0  0  0  0
   14.1666  -18.9498   25.7236 C   0  0  0  0  0  0  0  0  0  0  0  0
   15.2629  -19.2099   26.2353 O   0  0  0  0  0  0  0  0  0  0  0  0
   13.4378  -16.5267   22.2687 C   0  0  0  0  0  0  0  0  0  0  0  0
   14.6707  -15.9466   22.4974 O   0  0  0  0  0  0  0  0  0  0  0  0
   13.0983  -19.8034   26.0297 O   0  0  0  0  0  0  0  0  0  0  0  0
   13.2175  -17.0533   21.1688 O   0  0  0  0  0  0  0  0  0  0  0  0
  2  1  1  6
  3  2  1  0
  4  2  1  0
  5  6  1  1
  5  4  1  0
  7  5  1  0
  8  7  2  0
  9 10  1  0
 11 10  1  6
 11 13  1  0
 11 12  1  0
 12  7  1  0
 13 14  2  0
 15 16  1  0
 15 13  1  0
 16 17  1  1
 18 19  1  0
 18 17  1  0
 19 20  2  0
 21 22  1  0
 21 16  1  0
 23 19  1  0
 24 21  2  0
M  END
$$$$
