LSE.pdb
     RDKit          3D

 24 23  0  0  1  0  0  0  0  0999 V2000
    6.7230  -11.2141   25.5729 C   0  0  0  0  0  0  0  0  0  0  0  0
    6.3283  -12.6849   25.4426 C   0  0  2  0  0  0  0  0  0  0  0  0
    5.4244  -12.9911   26.6086 C   0  0  0  0  0  0  0  0  0  0  0  0
    7.5962  -13.4905   25.5118 C   0  0  0  0  0  0  0  0  0  0  0  0
    7.5268  -14.8106   24.8071 C   0  0  2  0  0  0  0  0  0  0  0  0
    6.1588  -15.2186   24.6702 N   0  0  0  0  0  0  0  0  0  0  0  0
    8.2994  -15.8056   25.5981 C   0  0  0  0  0  0  0  0  0  0  0  0
    9.3433  -15.4207   26.2130 O   0  0  0  0  0  0  0  0  0  0  0  0
    7.3794  -18.7465   28.2718 O   0  0  0  0  0  0  0  0  0  0  0  0
    7.9732  -19.2027   27.0956 C   0  0  0  0  0  0  0  0  0  0  0  0
    8.7674  -18.0643   26.4800 C   0  0  2  0  0  0  0  0  0  0  0  0
    7.9504  -17.1749   25.7178 N   0  0  0  0  0  0  0  0  0  0  0  0
    9.9304  -18.5801   25.7139 C   0  0  0  0  0  0  0  0  0  0  0  0
    9.6837  -19.2952   24.7149 O   0  0  0  0  0  0  0  0  0  0  0  0
   11.2575  -18.2858   26.0838 N   0  0  0  0  0  0  0  0  0  0  0  0
   12.4272  -18.9501   25.4819 C   0  0  1  0  0  0  0  0  0  0  0  0
   13.3691  -17.8671   25.0306 C   0  0  0  0  0  0  0  0  0  0  0  0
   13.0580  -17.2668   23.6952 C   0  0  0  0  0  0  0  0  0  0  0  0
   13.9934  -16.2192   23.2857 C   0  0  0  0  0  0  0  0  0  0  0  0
   14.9274  -15.8718   24.0192 O   0  0  0  0  0  0  0  0  0  0  0  0
   13.0543  -19.8035   26.5165 C   0  0  0  0  0  0  0  0  0  0  0  0
   14.0407  -20.6986   26.1493 O   0  0  0  0  0  0  0  0  0  0  0  0
   13.8720  -15.5676   22.0510 O   0  0  0  0  0  0  0  0  0  0  0  0
   12.7179  -19.7371   27.7074 O   0  0  0  0  0  0  0  0  0  0  0  0
  2  1  1  1
  3  2  1  0
  4  2  1  0
  5  6  1  1
  5  4  1  0
  7  5  1  0
  8  7  2  0
  9 10  1  0
 11 10  1  6
 11 13  1  0
 11 12  1  0
 12  7  1  0
 13 14  2  0
 15 16  1  0
 15 13  1  0
 16 17  1  1
 18 19  1  0
 18 17  1  0
 19 20  2  0
 21 22  1  0
 21 16  1  0
 23 19  1  0
 24 21  2  0
M  END
$$$$
