LSE.pdb
     RDKit          3D

 24 23  0  0  1  0  0  0  0  0999 V2000
    7.0948  -17.6858   18.5929 C   0  0  0  0  0  0  0  0  0  0  0  0
    8.3400  -18.4269   19.0792 C   0  0  2  0  0  0  0  0  0  0  0  0
    7.9733  -19.8871   19.1401 C   0  0  0  0  0  0  0  0  0  0  0  0
    8.6676  -17.8914   20.4457 C   0  0  0  0  0  0  0  0  0  0  0  0
    8.9485  -16.4203   20.4800 C   0  0  2  0  0  0  0  0  0  0  0  0
    9.9966  -16.1027   19.5543 N   0  0  0  0  0  0  0  0  0  0  0  0
    9.3367  -16.0493   21.8672 C   0  0  0  0  0  0  0  0  0  0  0  0
   10.5464  -16.2036   22.2259 O   0  0  0  0  0  0  0  0  0  0  0  0
    6.7012  -15.2652   25.0520 O   0  0  0  0  0  0  0  0  0  0  0  0
    7.8591  -14.4917   24.9791 C   0  0  0  0  0  0  0  0  0  0  0  0
    8.8929  -15.2423   24.1584 C   0  0  2  0  0  0  0  0  0  0  0  0
    8.4403  -15.5277   22.8344 N   0  0  0  0  0  0  0  0  0  0  0  0
    9.3695  -16.4503   24.8791 C   0  0  0  0  0  0  0  0  0  0  0  0
    9.1469  -17.5601   24.3415 O   0  0  0  0  0  0  0  0  0  0  0  0
   10.0433  -16.3656   26.1133 N   0  0  0  0  0  0  0  0  0  0  0  0
   10.6056  -17.5388   26.8057 C   0  0  1  0  0  0  0  0  0  0  0  0
   11.8924  -17.8901   26.1097 C   0  0  0  0  0  0  0  0  0  0  0  0
   11.9032  -19.2193   25.4215 C   0  0  0  0  0  0  0  0  0  0  0  0
   13.1588  -19.5183   24.7329 C   0  0  0  0  0  0  0  0  0  0  0  0
   13.5349  -18.8450   23.7653 O   0  0  0  0  0  0  0  0  0  0  0  0
   10.8490  -17.1665   28.2178 C   0  0  0  0  0  0  0  0  0  0  0  0
   10.5867  -15.8749   28.6324 O   0  0  0  0  0  0  0  0  0  0  0  0
   13.9853  -20.5748   25.1381 O   0  0  0  0  0  0  0  0  0  0  0  0
   11.2832  -17.9843   29.0415 O   0  0  0  0  0  0  0  0  0  0  0  0
  2  1  1  1
  3  2  1  0
  4  2  1  0
  5  6  1  6
  5  4  1  0
  7  5  1  0
  8  7  2  0
  9 10  1  0
 11 10  1  1
 11 13  1  0
 11 12  1  0
 12  7  1  0
 13 14  2  0
 15 16  1  0
 15 13  1  0
 16 17  1  6
 18 19  1  0
 18 17  1  0
 19 20  2  0
 21 22  1  0
 21 16  1  0
 23 19  1  0
 24 21  2  0
M  END
$$$$
