LSE.pdb
     RDKit          3D

 24 23  0  0  1  0  0  0  0  0999 V2000
    5.6153  -12.2626   25.5917 C   0  0  0  0  0  0  0  0  0  0  0  0
    6.4039  -12.9686   26.6943 C   0  0  2  0  0  0  0  0  0  0  0  0
    7.1645  -11.8966   27.4309 C   0  0  0  0  0  0  0  0  0  0  0  0
    7.3401  -13.9330   26.0198 C   0  0  0  0  0  0  0  0  0  0  0  0
    6.6577  -14.9705   25.1819 C   0  0  2  0  0  0  0  0  0  0  0  0
    5.9880  -15.9160   26.0269 N   0  0  0  0  0  0  0  0  0  0  0  0
    7.6839  -15.6445   24.3422 C   0  0  0  0  0  0  0  0  0  0  0  0
    8.3215  -16.6305   24.8293 O   0  0  0  0  0  0  0  0  0  0  0  0
    7.9050  -16.1529   20.2126 O   0  0  0  0  0  0  0  0  0  0  0  0
    9.0334  -15.5979   20.8149 C   0  0  0  0  0  0  0  0  0  0  0  0
    9.0218  -15.9567   22.2903 C   0  0  2  0  0  0  0  0  0  0  0  0
    8.0080  -15.2605   23.0161 N   0  0  0  0  0  0  0  0  0  0  0  0
   10.3724  -15.7975   22.8872 C   0  0  0  0  0  0  0  0  0  0  0  0
   10.6878  -14.6528   23.2874 O   0  0  0  0  0  0  0  0  0  0  0  0
   11.2686  -16.8781   23.0041 N   0  0  0  0  0  0  0  0  0  0  0  0
   12.5921  -16.7609   23.6416 C   0  0  1  0  0  0  0  0  0  0  0  0
   12.8541  -18.0557   24.3617 C   0  0  0  0  0  0  0  0  0  0  0  0
   14.1595  -18.1276   25.0906 C   0  0  0  0  0  0  0  0  0  0  0  0
   14.4018  -19.4139   25.7438 C   0  0  0  0  0  0  0  0  0  0  0  0
   13.5361  -20.2980   25.7587 O   0  0  0  0  0  0  0  0  0  0  0  0
   13.5961  -16.5310   22.5781 C   0  0  0  0  0  0  0  0  0  0  0  0
   14.8114  -15.9611   22.9059 O   0  0  0  0  0  0  0  0  0  0  0  0
   15.6188  -19.6984   26.3774 O   0  0  0  0  0  0  0  0  0  0  0  0
   13.3761  -16.8366   21.3975 O   0  0  0  0  0  0  0  0  0  0  0  0
  2  1  1  6
  3  2  1  0
  4  2  1  0
  5  6  1  1
  5  4  1  0
  7  5  1  0
  8  7  2  0
  9 10  1  0
 11 10  1  6
 11 13  1  0
 11 12  1  0
 12  7  1  0
 13 14  2  0
 15 16  1  0
 15 13  1  0
 16 17  1  6
 18 19  1  0
 18 17  1  0
 19 20  2  0
 21 22  1  0
 21 16  1  0
 23 19  1  0
 24 21  2  0
M  END
$$$$
