LSE.pdb
     RDKit          3D

 24 23  0  0  1  0  0  0  0  0999 V2000
    8.1723  -13.0101   18.1965 C   0  0  0  0  0  0  0  0  0  0  0  0
    7.4518  -13.3135   19.5100 C   0  0  2  0  0  0  0  0  0  0  0  0
    7.2183  -11.9877   20.1869 C   0  0  0  0  0  0  0  0  0  0  0  0
    8.3666  -14.1859   20.3245 C   0  0  0  0  0  0  0  0  0  0  0  0
    8.5953  -15.5486   19.7458 C   0  0  2  0  0  0  0  0  0  0  0  0
    7.4369  -16.3675   19.9548 N   0  0  0  0  0  0  0  0  0  0  0  0
    9.7897  -16.1429   20.4037 C   0  0  0  0  0  0  0  0  0  0  0  0
    9.7259  -16.4343   21.6395 O   0  0  0  0  0  0  0  0  0  0  0  0
   13.5603  -17.1101   18.5831 O   0  0  0  0  0  0  0  0  0  0  0  0
   12.8755  -17.9782   19.4326 C   0  0  0  0  0  0  0  0  0  0  0  0
   12.0423  -17.1547   20.3987 C   0  0  2  0  0  0  0  0  0  0  0  0
   11.0145  -16.4124   19.7416 N   0  0  0  0  0  0  0  0  0  0  0  0
   12.9072  -16.3074   21.2587 C   0  0  0  0  0  0  0  0  0  0  0  0
   13.1946  -15.1656   20.8299 O   0  0  0  0  0  0  0  0  0  0  0  0
   13.3899  -16.7561   22.5039 N   0  0  0  0  0  0  0  0  0  0  0  0
   14.2552  -15.9394   23.3735 C   0  0  1  0  0  0  0  0  0  0  0  0
   14.0641  -16.4351   24.7811 C   0  0  0  0  0  0  0  0  0  0  0  0
   14.1316  -17.9209   24.9489 C   0  0  0  0  0  0  0  0  0  0  0  0
   13.9825  -18.3668   26.3342 C   0  0  0  0  0  0  0  0  0  0  0  0
   12.9100  -18.2358   26.9375 O   0  0  0  0  0  0  0  0  0  0  0  0
   15.6560  -16.1222   22.9306 C   0  0  0  0  0  0  0  0  0  0  0  0
   16.6400  -15.2958   23.4385 O   0  0  0  0  0  0  0  0  0  0  0  0
   15.0428  -18.9585   27.0337 O   0  0  0  0  0  0  0  0  0  0  0  0
   15.9719  -16.9990   22.1139 O   0  0  0  0  0  0  0  0  0  0  0  0
  2  1  1  6
  3  2  1  0
  4  2  1  0
  5  6  1  1
  5  4  1  0
  7  5  1  0
  8  7  2  0
  9 10  1  0
 11 10  1  6
 11 13  1  0
 11 12  1  0
 12  7  1  0
 13 14  2  0
 15 16  1  0
 15 13  1  0
 16 17  1  1
 18 19  1  0
 18 17  1  0
 19 20  2  0
 21 22  1  0
 21 16  1  0
 23 19  1  0
 24 21  2  0
M  END
$$$$
