LSE.pdb
     RDKit          3D

 24 23  0  0  1  0  0  0  0  0999 V2000
    8.2379  -13.7634   17.9731 C   0  0  0  0  0  0  0  0  0  0  0  0
    7.5318  -13.2054   19.2085 C   0  0  2  0  0  0  0  0  0  0  0  0
    7.3698  -11.7252   18.9776 C   0  0  0  0  0  0  0  0  0  0  0  0
    8.4244  -13.4767   20.3880 C   0  0  0  0  0  0  0  0  0  0  0  0
    8.5495  -14.9261   20.7455 C   0  0  2  0  0  0  0  0  0  0  0  0
    7.3101  -15.6002   20.4885 N   0  0  0  0  0  0  0  0  0  0  0  0
    8.9175  -15.0243   22.1834 C   0  0  0  0  0  0  0  0  0  0  0  0
   10.0090  -14.5017   22.5725 O   0  0  0  0  0  0  0  0  0  0  0  0
    6.6159  -16.9012   25.1697 O   0  0  0  0  0  0  0  0  0  0  0  0
    7.4212  -15.8154   25.5112 C   0  0  0  0  0  0  0  0  0  0  0  0
    8.5713  -15.7345   24.5230 C   0  0  2  0  0  0  0  0  0  0  0  0
    8.1262  -15.6695   23.1676 N   0  0  0  0  0  0  0  0  0  0  0  0
    9.5519  -16.8250   24.7574 C   0  0  0  0  0  0  0  0  0  0  0  0
    9.3263  -17.9245   24.2004 O   0  0  0  0  0  0  0  0  0  0  0  0
   10.6896  -16.6438   25.5682 N   0  0  0  0  0  0  0  0  0  0  0  0
   11.6031  -17.7421   25.9304 C   0  0  1  0  0  0  0  0  0  0  0  0
   12.9872  -17.3234   25.5146 C   0  0  0  0  0  0  0  0  0  0  0  0
   13.1429  -16.9852   24.0649 C   0  0  0  0  0  0  0  0  0  0  0  0
   14.5008  -16.5877   23.6931 C   0  0  0  0  0  0  0  0  0  0  0  0
   15.2973  -16.1606   24.5382 O   0  0  0  0  0  0  0  0  0  0  0  0
   11.5251  -17.9410   27.3954 C   0  0  0  0  0  0  0  0  0  0  0  0
   12.2036  -18.9974   27.9724 O   0  0  0  0  0  0  0  0  0  0  0  0
   14.9551  -16.6735   22.3703 O   0  0  0  0  0  0  0  0  0  0  0  0
   10.8656  -17.1837   28.1214 O   0  0  0  0  0  0  0  0  0  0  0  0
  2  1  1  6
  3  2  1  0
  4  2  1  0
  5  6  1  1
  5  4  1  0
  7  5  1  0
  8  7  2  0
  9 10  1  0
 11 10  1  1
 11 13  1  0
 11 12  1  0
 12  7  1  0
 13 14  2  0
 15 16  1  0
 15 13  1  0
 16 17  1  1
 18 19  1  0
 18 17  1  0
 19 20  2  0
 21 22  1  0
 21 16  1  0
 23 19  1  0
 24 21  2  0
M  END
$$$$
