LSE.pdb
     RDKit          3D

 24 23  0  0  1  0  0  0  0  0999 V2000
    6.1793  -11.9915   24.8126 C   0  0  0  0  0  0  0  0  0  0  0  0
    6.3260  -12.6526   26.1829 C   0  0  2  0  0  0  0  0  0  0  0  0
    6.9950  -11.6412   27.0773 C   0  0  0  0  0  0  0  0  0  0  0  0
    7.1904  -13.8689   25.9965 C   0  0  0  0  0  0  0  0  0  0  0  0
    6.6891  -14.8283   24.9610 C   0  0  2  0  0  0  0  0  0  0  0  0
    5.6297  -15.6255   25.5074 N   0  0  0  0  0  0  0  0  0  0  0  0
    7.8252  -15.6840   24.5255 C   0  0  0  0  0  0  0  0  0  0  0  0
    8.4335  -16.3827   25.3959 O   0  0  0  0  0  0  0  0  0  0  0  0
    9.7508  -15.5656   20.8026 O   0  0  0  0  0  0  0  0  0  0  0  0
    9.5227  -16.8279   21.3491 C   0  0  0  0  0  0  0  0  0  0  0  0
    9.3398  -16.6813   22.8493 C   0  0  2  0  0  0  0  0  0  0  0  0
    8.2865  -15.7784   23.1877 N   0  0  0  0  0  0  0  0  0  0  0  0
   10.6255  -16.3434   23.5116 C   0  0  0  0  0  0  0  0  0  0  0  0
   10.9049  -15.1275   23.6281 O   0  0  0  0  0  0  0  0  0  0  0  0
   11.5011  -17.3370   23.9919 N   0  0  0  0  0  0  0  0  0  0  0  0
   12.7985  -17.0312   24.6203 C   0  0  1  0  0  0  0  0  0  0  0  0
   13.0942  -18.1420   25.5912 C   0  0  0  0  0  0  0  0  0  0  0  0
   12.1068  -18.2949   26.7056 C   0  0  0  0  0  0  0  0  0  0  0  0
   12.4011  -19.4084   27.6076 C   0  0  0  0  0  0  0  0  0  0  0  0
   12.7115  -20.5231   27.1692 O   0  0  0  0  0  0  0  0  0  0  0  0
   13.8233  -16.9702   23.5536 C   0  0  0  0  0  0  0  0  0  0  0  0
   15.0243  -16.3346   23.8038 O   0  0  0  0  0  0  0  0  0  0  0  0
   12.3445  -19.2607   28.9999 O   0  0  0  0  0  0  0  0  0  0  0  0
   13.6331  -17.4753   22.4380 O   0  0  0  0  0  0  0  0  0  0  0  0
  2  1  1  6
  3  2  1  0
  4  2  1  0
  5  6  1  1
  5  4  1  0
  7  5  1  0
  8  7  2  0
  9 10  1  0
 11 10  1  6
 11 13  1  0
 11 12  1  0
 12  7  1  0
 13 14  2  0
 15 16  1  0
 15 13  1  0
 16 17  1  1
 18 19  1  0
 18 17  1  0
 19 20  2  0
 21 22  1  0
 21 16  1  0
 23 19  1  0
 24 21  2  0
M  END
$$$$
