LSE.pdb
     RDKit          3D

 24 23  0  0  1  0  0  0  0  0999 V2000
    6.0984  -12.5910   25.1809 C   0  0  0  0  0  0  0  0  0  0  0  0
    6.0373  -13.2516   26.5579 C   0  0  2  0  0  0  0  0  0  0  0  0
    6.7171  -12.3084   27.5163 C   0  0  0  0  0  0  0  0  0  0  0  0
    6.7824  -14.5539   26.4567 C   0  0  0  0  0  0  0  0  0  0  0  0
    6.2970  -15.4585   25.3657 C   0  0  2  0  0  0  0  0  0  0  0  0
    5.6978  -16.6304   25.9349 N   0  0  0  0  0  0  0  0  0  0  0  0
    7.4559  -15.8204   24.5063 C   0  0  0  0  0  0  0  0  0  0  0  0
    8.2583  -16.7205   24.9087 O   0  0  0  0  0  0  0  0  0  0  0  0
    9.7198  -15.8152   20.2545 O   0  0  0  0  0  0  0  0  0  0  0  0
    8.7470  -15.1708   21.0177 C   0  0  0  0  0  0  0  0  0  0  0  0
    8.7872  -15.7314   22.4284 C   0  0  2  0  0  0  0  0  0  0  0  0
    7.7352  -15.2242   23.2502 N   0  0  0  0  0  0  0  0  0  0  0  0
   10.1312  -15.5519   23.0341 C   0  0  0  0  0  0  0  0  0  0  0  0
   10.4910  -14.3786   23.2869 O   0  0  0  0  0  0  0  0  0  0  0  0
   10.9742  -16.6447   23.3169 N   0  0  0  0  0  0  0  0  0  0  0  0
   12.3642  -16.4901   23.7815 C   0  0  1  0  0  0  0  0  0  0  0  0
   12.6440  -17.6244   24.7295 C   0  0  0  0  0  0  0  0  0  0  0  0
   11.9038  -17.5671   26.0291 C   0  0  0  0  0  0  0  0  0  0  0  0
   12.1910  -18.6890   26.9230 C   0  0  0  0  0  0  0  0  0  0  0  0
   12.9687  -19.5916   26.5888 O   0  0  0  0  0  0  0  0  0  0  0  0
   13.2537  -16.5526   22.5997 C   0  0  0  0  0  0  0  0  0  0  0  0
   12.7435  -16.9837   21.3902 O   0  0  0  0  0  0  0  0  0  0  0  0
   11.6006  -18.7886   28.1899 O   0  0  0  0  0  0  0  0  0  0  0  0
   14.4479  -16.2280   22.6653 O   0  0  0  0  0  0  0  0  0  0  0  0
  2  1  1  6
  3  2  1  0
  4  2  1  0
  5  6  1  1
  5  4  1  0
  7  5  1  0
  8  7  2  0
  9 10  1  0
 11 10  1  6
 11 13  1  0
 11 12  1  0
 12  7  1  0
 13 14  2  0
 15 16  1  0
 15 13  1  0
 16 17  1  1
 18 19  1  0
 18 17  1  0
 19 20  2  0
 21 22  1  0
 21 16  1  0
 23 19  1  0
 24 21  2  0
M  END
$$$$
