LSE.pdb
     RDKit          3D

 24 23  0  0  1  0  0  0  0  0999 V2000
    7.8019  -13.1522   18.5950 C   0  0  0  0  0  0  0  0  0  0  0  0
    7.3190  -13.5092   20.0005 C   0  0  2  0  0  0  0  0  0  0  0  0
    7.2350  -12.2145   20.7666 C   0  0  0  0  0  0  0  0  0  0  0  0
    8.3459  -14.4297   20.6001 C   0  0  0  0  0  0  0  0  0  0  0  0
    8.5328  -15.7146   19.8530 C   0  0  2  0  0  0  0  0  0  0  0  0
    7.3072  -16.4592   19.8497 N   0  0  0  0  0  0  0  0  0  0  0  0
    9.6198  -16.4867   20.5125 C   0  0  0  0  0  0  0  0  0  0  0  0
    9.3584  -17.1169   21.5851 O   0  0  0  0  0  0  0  0  0  0  0  0
   13.3600  -17.3103   18.8080 O   0  0  0  0  0  0  0  0  0  0  0  0
   12.7465  -18.2037   19.6853 C   0  0  0  0  0  0  0  0  0  0  0  0
   11.9030  -17.4141   20.6705 C   0  0  2  0  0  0  0  0  0  0  0  0
   10.9482  -16.5721   20.0235 N   0  0  0  0  0  0  0  0  0  0  0  0
   12.7600  -16.6803   21.6363 C   0  0  0  0  0  0  0  0  0  0  0  0
   13.0243  -15.4846   21.3704 O   0  0  0  0  0  0  0  0  0  0  0  0
   13.2601  -17.2903   22.8035 N   0  0  0  0  0  0  0  0  0  0  0  0
   14.1372  -16.5953   23.7624 C   0  0  1  0  0  0  0  0  0  0  0  0
   14.1767  -17.4303   25.0134 C   0  0  0  0  0  0  0  0  0  0  0  0
   12.8737  -17.5532   25.7397 C   0  0  0  0  0  0  0  0  0  0  0  0
   12.9210  -18.4555   26.8903 C   0  0  0  0  0  0  0  0  0  0  0  0
   12.1051  -18.3574   27.8154 O   0  0  0  0  0  0  0  0  0  0  0  0
   15.4830  -16.4818   23.1560 C   0  0  0  0  0  0  0  0  0  0  0  0
   16.4045  -15.6141   23.7102 O   0  0  0  0  0  0  0  0  0  0  0  0
   13.8877  -19.4647   26.9932 O   0  0  0  0  0  0  0  0  0  0  0  0
   15.8073  -17.1457   22.1612 O   0  0  0  0  0  0  0  0  0  0  0  0
  2  1  1  6
  3  2  1  0
  4  2  1  0
  5  6  1  1
  5  4  1  0
  7  5  1  0
  8  7  2  0
  9 10  1  0
 11 10  1  6
 11 13  1  0
 11 12  1  0
 12  7  1  0
 13 14  2  0
 15 16  1  0
 15 13  1  0
 16 17  1  1
 18 19  1  0
 18 17  1  0
 19 20  2  0
 21 22  1  0
 21 16  1  0
 23 19  1  0
 24 21  2  0
M  END
$$$$
