LSE.pdb
     RDKit          3D

 24 23  0  0  1  0  0  0  0  0999 V2000
    7.7241  -13.4688   17.7365 C   0  0  0  0  0  0  0  0  0  0  0  0
    7.2302  -13.1990   19.1576 C   0  0  2  0  0  0  0  0  0  0  0  0
    6.8926  -11.7320   19.2227 C   0  0  0  0  0  0  0  0  0  0  0  0
    8.3601  -13.5385   20.0900 C   0  0  0  0  0  0  0  0  0  0  0  0
    8.7162  -14.9932   20.1227 C   0  0  2  0  0  0  0  0  0  0  0  0
    7.5224  -15.7876   20.1091 N   0  0  0  0  0  0  0  0  0  0  0  0
    9.5116  -15.2537   21.3524 C   0  0  0  0  0  0  0  0  0  0  0  0
   10.5437  -14.5456   21.5748 O   0  0  0  0  0  0  0  0  0  0  0  0
    8.8955  -18.4549   23.9648 O   0  0  0  0  0  0  0  0  0  0  0  0
    9.3557  -17.2686   24.5350 C   0  0  0  0  0  0  0  0  0  0  0  0
   10.0293  -16.4406   23.4551 C   0  0  2  0  0  0  0  0  0  0  0  0
    9.1972  -16.2512   22.3101 N   0  0  0  0  0  0  0  0  0  0  0  0
   11.3640  -16.9956   23.1138 C   0  0  0  0  0  0  0  0  0  0  0  0
   11.3984  -17.9189   22.2674 O   0  0  0  0  0  0  0  0  0  0  0  0
   12.5467  -16.5140   23.7087 N   0  0  0  0  0  0  0  0  0  0  0  0
   13.8930  -16.9106   23.2593 C   0  0  1  0  0  0  0  0  0  0  0  0
   14.2799  -15.9802   22.1420 C   0  0  0  0  0  0  0  0  0  0  0  0
   15.6572  -16.1822   21.5917 C   0  0  0  0  0  0  0  0  0  0  0  0
   16.0048  -15.2560   20.5140 C   0  0  0  0  0  0  0  0  0  0  0  0
   15.2478  -14.3304   20.1956 O   0  0  0  0  0  0  0  0  0  0  0  0
   14.8187  -16.7774   24.4071 C   0  0  0  0  0  0  0  0  0  0  0  0
   16.0613  -17.3787   24.3481 O   0  0  0  0  0  0  0  0  0  0  0  0
   17.2044  -15.3768   19.7999 O   0  0  0  0  0  0  0  0  0  0  0  0
   14.5089  -16.1393   25.4232 O   0  0  0  0  0  0  0  0  0  0  0  0
  2  1  1  6
  3  2  1  0
  4  2  1  0
  5  6  1  1
  5  4  1  0
  7  5  1  0
  8  7  2  0
  9 10  1  0
 11 10  1  1
 11 13  1  0
 11 12  1  0
 12  7  1  0
 13 14  2  0
 15 16  1  0
 15 13  1  0
 16 17  1  6
 18 19  1  0
 18 17  1  0
 19 20  2  0
 21 22  1  0
 21 16  1  0
 23 19  1  0
 24 21  2  0
M  END
$$$$
