GQR.pdb
     RDKit          3D

 25 24  0  0  1  0  0  0  0  0999 V2000
   27.2075  -25.7612  -16.7001 N   0  0  0  0  0  0  0  0  0  0  0  0
   27.1185  -24.3234  -16.9763 C   0  0  0  0  0  0  0  0  0  0  0  0
   26.6686  -23.6147  -15.7391 C   0  0  0  0  0  0  0  0  0  0  0  0
   26.1863  -24.2619  -14.7977 O   0  0  0  0  0  0  0  0  0  0  0  0
   28.9280  -20.5772  -11.9146 N   0  0  0  0  0  0  0  0  0  0  0  0
   27.5637  -20.2601  -12.0012 C   0  0  0  0  0  0  0  0  0  0  0  0
   26.7400  -20.6449  -11.1619 O   0  0  0  0  0  0  0  0  0  0  0  0
   27.0994  -19.4208  -13.1632 C   0  0  0  0  0  0  0  0  0  0  0  0
   27.2462  -20.1911  -14.4302 C   0  0  0  0  0  0  0  0  0  0  0  0
   26.4133  -21.4213  -14.4890 C   0  0  2  0  0  0  0  0  0  0  0  0
   26.8029  -22.2147  -15.6685 N   0  0  0  0  0  0  0  0  0  0  0  0
   24.9604  -21.2303  -14.5758 C   0  0  0  0  0  0  0  0  0  0  0  0
   24.4339  -21.0023  -15.7208 O   0  0  0  0  0  0  0  0  0  0  0  0
   18.5116  -23.9471   -9.0687 N   0  0  0  0  0  0  0  0  0  0  0  0
   17.8151  -23.5856  -10.2803 C   0  0  0  0  0  0  0  0  0  0  0  0
   16.5678  -23.7962  -10.3805 N   0  0  0  0  0  0  0  0  0  0  0  0
   18.5767  -23.0013  -11.3224 N   0  0  0  0  0  0  0  0  0  0  0  0
   20.0299  -23.0098  -11.3037 C   0  0  0  0  0  0  0  0  0  0  0  0
   20.5897  -22.2243  -12.4190 C   0  0  0  0  0  0  0  0  0  0  0  0
   22.0165  -21.9858  -12.5713 C   0  0  0  0  0  0  0  0  0  0  0  0
   22.5876  -21.2358  -13.7265 C   0  0  2  0  0  0  0  0  0  0  0  0
   24.0815  -21.2853  -13.4876 N   0  0  0  0  0  0  0  0  0  0  0  0
   22.2576  -19.8048  -13.8252 C   0  0  0  0  0  0  0  0  0  0  0  0
   22.8926  -18.9053  -13.2610 O   0  0  0  0  0  0  0  0  0  0  0  0
   21.1563  -19.4042  -14.6048 O   0  0  0  0  0  0  0  0  0  0  0  0
  2  1  1  0
  3  4  2  0
  3  2  1  0
  5  6  1  0
  6  7  2  0
  8  6  1  0
  8  9  1  0
 10  9  1  6
 10 12  1  0
 10 11  1  0
 11  3  1  0
 12 22  1  0
 13 12  2  0
 15 14  1  0
 16 15  2  0
 17 15  1  0
 18 19  1  0
 18 17  1  0
 20 19  1  0
 21 20  1  1
 22 21  1  0
 23 25  1  0
 23 21  1  0
 24 23  2  0
M  END
$$$$
