GQR.pdb
     RDKit          3D

 25 24  0  0  1  0  0  0  0  0999 V2000
   22.4868  -20.4661   -8.8091 N   0  0  0  0  0  0  0  0  0  0  0  0
   23.6775  -21.2584   -9.1344 C   0  0  0  0  0  0  0  0  0  0  0  0
   24.4387  -20.5726  -10.2233 C   0  0  0  0  0  0  0  0  0  0  0  0
   24.0339  -19.4896  -10.6719 O   0  0  0  0  0  0  0  0  0  0  0  0
   30.3628  -22.0500  -11.2476 N   0  0  0  0  0  0  0  0  0  0  0  0
   29.8783  -21.3576  -10.1272 C   0  0  0  0  0  0  0  0  0  0  0  0
   30.5661  -21.1712   -9.1157 O   0  0  0  0  0  0  0  0  0  0  0  0
   28.4684  -20.8281  -10.1714 C   0  0  0  0  0  0  0  0  0  0  0  0
   27.8838  -21.0667  -11.5211 C   0  0  0  0  0  0  0  0  0  0  0  0
   26.5098  -20.5237  -11.6885 C   0  0  2  0  0  0  0  0  0  0  0  0
   25.6093  -21.1764  -10.7214 N   0  0  0  0  0  0  0  0  0  0  0  0
   25.8925  -20.6881  -13.0103 C   0  0  0  0  0  0  0  0  0  0  0  0
   25.3505  -21.8106  -13.3044 O   0  0  0  0  0  0  0  0  0  0  0  0
   19.2229  -17.3621  -15.3412 N   0  0  0  0  0  0  0  0  0  0  0  0
   19.3053  -18.3403  -16.3996 C   0  0  0  0  0  0  0  0  0  0  0  0
   18.2591  -18.9465  -16.7845 N   0  0  0  0  0  0  0  0  0  0  0  0
   20.5803  -18.5818  -16.9684 N   0  0  0  0  0  0  0  0  0  0  0  0
   21.8006  -18.1076  -16.3372 C   0  0  0  0  0  0  0  0  0  0  0  0
   22.6197  -19.2262  -15.8351 C   0  0  0  0  0  0  0  0  0  0  0  0
   23.8650  -19.0230  -15.1115 C   0  0  0  0  0  0  0  0  0  0  0  0
   25.0374  -19.9325  -15.2574 C   0  0  2  0  0  0  0  0  0  0  0  0
   25.8392  -19.6951  -13.9956 N   0  0  0  0  0  0  0  0  0  0  0  0
   25.9662  -19.6557  -16.3652 C   0  0  0  0  0  0  0  0  0  0  0  0
   25.7928  -20.0386  -17.5288 O   0  0  0  0  0  0  0  0  0  0  0  0
   27.1331  -18.9093  -16.1154 O   0  0  0  0  0  0  0  0  0  0  0  0
  2  1  1  0
  3  4  2  0
  3  2  1  0
  5  6  1  0
  6  7  2  0
  8  6  1  0
  8  9  1  0
 10  9  1  6
 10 12  1  0
 10 11  1  0
 11  3  1  0
 12 22  1  0
 13 12  2  0
 15 14  1  0
 16 15  2  0
 17 15  1  0
 18 19  1  0
 18 17  1  0
 20 19  1  0
 21 20  1  1
 22 21  1  0
 23 25  1  0
 23 21  1  0
 24 23  2  0
M  END
$$$$
