GQR.pdb
     RDKit          3D

 25 24  0  0  1  0  0  0  0  0999 V2000
   18.1065  -24.8453   -9.2329 N   0  0  0  0  0  0  0  0  0  0  0  0
   18.8128  -24.9817   -7.9546 C   0  0  0  0  0  0  0  0  0  0  0  0
   17.8421  -25.4158   -6.9036 C   0  0  0  0  0  0  0  0  0  0  0  0
   16.6291  -25.4493   -7.1594 O   0  0  0  0  0  0  0  0  0  0  0  0
   19.7736  -28.0484   -1.6037 N   0  0  0  0  0  0  0  0  0  0  0  0
   18.4041  -27.9861   -1.3037 C   0  0  0  0  0  0  0  0  0  0  0  0
   17.9334  -28.4520   -0.2585 O   0  0  0  0  0  0  0  0  0  0  0  0
   17.4858  -27.3256   -2.2990 C   0  0  0  0  0  0  0  0  0  0  0  0
   18.2687  -26.8769   -3.4848 C   0  0  0  0  0  0  0  0  0  0  0  0
   17.4579  -26.1705   -4.5116 C   0  0  2  0  0  0  0  0  0  0  0  0
   18.3300  -25.7805   -5.6339 N   0  0  0  0  0  0  0  0  0  0  0  0
   16.7637  -24.9515   -4.0793 C   0  0  0  0  0  0  0  0  0  0  0  0
   17.3077  -23.8152   -4.3096 O   0  0  0  0  0  0  0  0  0  0  0  0
   10.8697  -19.6616   -6.3664 N   0  0  0  0  0  0  0  0  0  0  0  0
   10.4404  -19.8230   -4.9976 C   0  0  0  0  0  0  0  0  0  0  0  0
    9.5695  -19.0391   -4.5106 N   0  0  0  0  0  0  0  0  0  0  0  0
   11.0274  -20.8722   -4.2480 N   0  0  0  0  0  0  0  0  0  0  0  0
   12.1112  -21.6796   -4.7828 C   0  0  0  0  0  0  0  0  0  0  0  0
   12.5322  -22.7207   -3.8274 C   0  0  0  0  0  0  0  0  0  0  0  0
   13.6906  -23.5707   -4.0544 C   0  0  0  0  0  0  0  0  0  0  0  0
   14.8602  -23.5996   -3.1301 C   0  0  2  0  0  0  0  0  0  0  0  0
   15.5247  -24.9266   -3.4281 N   0  0  0  0  0  0  0  0  0  0  0  0
   14.5729  -23.6250   -1.6867 C   0  0  0  0  0  0  0  0  0  0  0  0
   14.4819  -24.6600   -1.0150 O   0  0  0  0  0  0  0  0  0  0  0  0
   14.3865  -22.4105   -1.0001 O   0  0  0  0  0  0  0  0  0  0  0  0
  2  1  1  0
  3  4  2  0
  3  2  1  0
  5  6  1  0
  6  7  2  0
  8  6  1  0
  8  9  1  0
 10  9  1  1
 10 12  1  0
 10 11  1  0
 11  3  1  0
 12 22  1  0
 13 12  2  0
 15 14  1  0
 16 15  2  0
 17 15  1  0
 18 19  1  0
 18 17  1  0
 20 19  1  0
 21 20  1  6
 22 21  1  0
 23 25  1  0
 23 21  1  0
 24 23  2  0
M  END
$$$$
