GQR.pdb
     RDKit          3D

 25 24  0  0  1  0  0  0  0  0999 V2000
   23.0959  -14.4003  -17.5693 N   0  0  0  0  0  0  0  0  0  0  0  0
   22.1342  -14.1557  -16.4892 C   0  0  0  0  0  0  0  0  0  0  0  0
   22.5695  -12.9570  -15.7089 C   0  0  0  0  0  0  0  0  0  0  0  0
   22.0358  -12.7028  -14.6187 O   0  0  0  0  0  0  0  0  0  0  0  0
   27.8411  -10.0244  -17.0608 N   0  0  0  0  0  0  0  0  0  0  0  0
   27.7975  -11.1013  -16.1621 C   0  0  0  0  0  0  0  0  0  0  0  0
   28.8163  -11.7015  -15.7978 O   0  0  0  0  0  0  0  0  0  0  0  0
   26.4551  -11.5316  -15.6301 C   0  0  0  0  0  0  0  0  0  0  0  0
   25.4088  -10.5628  -16.0625 C   0  0  0  0  0  0  0  0  0  0  0  0
   24.0422  -10.8946  -15.5800 C   0  0  2  0  0  0  0  0  0  0  0  0
   23.5852  -12.1344  -16.2330 N   0  0  0  0  0  0  0  0  0  0  0  0
   22.9980   -9.8898  -15.8149 C   0  0  0  0  0  0  0  0  0  0  0  0
   22.4020   -9.8706  -16.9483 O   0  0  0  0  0  0  0  0  0  0  0  0
   15.2769  -11.0566  -15.2539 N   0  0  0  0  0  0  0  0  0  0  0  0
   15.2656   -9.6749  -15.6721 C   0  0  0  0  0  0  0  0  0  0  0  0
   14.1996   -9.1604  -16.1291 N   0  0  0  0  0  0  0  0  0  0  0  0
   16.4740   -8.9453  -15.5501 N   0  0  0  0  0  0  0  0  0  0  0  0
   17.7694   -9.6040  -15.5702 C   0  0  0  0  0  0  0  0  0  0  0  0
   18.8694   -8.6396  -15.3853 C   0  0  0  0  0  0  0  0  0  0  0  0
   20.2655   -9.0440  -15.3297 C   0  0  0  0  0  0  0  0  0  0  0  0
   21.3804   -8.0662  -15.1750 C   0  0  2  0  0  0  0  0  0  0  0  0
   22.5848   -8.9339  -14.8792 N   0  0  0  0  0  0  0  0  0  0  0  0
   21.2940   -7.1247  -14.0469 C   0  0  0  0  0  0  0  0  0  0  0  0
   21.8129   -7.3175  -12.9404 O   0  0  0  0  0  0  0  0  0  0  0  0
   20.5839   -5.9202  -14.2079 O   0  0  0  0  0  0  0  0  0  0  0  0
  2  1  1  0
  3  4  2  0
  3  2  1  0
  5  6  1  0
  6  7  2  0
  8  6  1  0
  8  9  1  0
 10  9  1  6
 10 12  1  0
 10 11  1  0
 11  3  1  0
 12 22  1  0
 13 12  2  0
 15 14  1  0
 16 15  2  0
 17 15  1  0
 18 19  1  0
 18 17  1  0
 20 19  1  0
 21 20  1  1
 22 21  1  0
 23 25  1  0
 23 21  1  0
 24 23  2  0
M  END
$$$$
