GQR.pdb
     RDKit          3D

 25 24  0  0  1  0  0  0  0  0999 V2000
   28.7007  -20.9821  -17.6960 N   0  0  0  0  0  0  0  0  0  0  0  0
   28.4405  -19.9940  -16.6437 C   0  0  0  0  0  0  0  0  0  0  0  0
   28.4492  -20.6804  -15.3155 C   0  0  0  0  0  0  0  0  0  0  0  0
   27.8877  -21.7783  -15.1842 O   0  0  0  0  0  0  0  0  0  0  0  0
   32.3336  -22.0569  -10.7072 N   0  0  0  0  0  0  0  0  0  0  0  0
   30.9363  -21.9393  -10.6520 C   0  0  0  0  0  0  0  0  0  0  0  0
   30.1920  -22.9238  -10.5637 O   0  0  0  0  0  0  0  0  0  0  0  0
   30.3346  -20.5589  -10.7035 C   0  0  0  0  0  0  0  0  0  0  0  0
   30.2633  -20.0939  -12.1173 C   0  0  0  0  0  0  0  0  0  0  0  0
   29.0742  -20.5926  -12.8577 C   0  0  2  0  0  0  0  0  0  0  0  0
   29.1003  -20.0601  -14.2318 N   0  0  0  0  0  0  0  0  0  0  0  0
   27.7597  -20.2491  -12.3019 C   0  0  0  0  0  0  0  0  0  0  0  0
   27.3426  -19.0422  -12.4007 O   0  0  0  0  0  0  0  0  0  0  0  0
   19.9460  -22.6788  -14.1847 N   0  0  0  0  0  0  0  0  0  0  0  0
   20.1131  -21.2454  -14.1460 C   0  0  0  0  0  0  0  0  0  0  0  0
   19.3131  -20.4971  -14.7864 N   0  0  0  0  0  0  0  0  0  0  0  0
   21.1881  -20.7333  -13.3782 N   0  0  0  0  0  0  0  0  0  0  0  0
   22.1140  -21.6098  -12.6804 C   0  0  0  0  0  0  0  0  0  0  0  0
   23.1579  -20.8428  -11.9758 C   0  0  0  0  0  0  0  0  0  0  0  0
   24.5719  -21.1693  -12.0748 C   0  0  0  0  0  0  0  0  0  0  0  0
   25.5833  -20.6664  -11.1015 C   0  0  2  0  0  0  0  0  0  0  0  0
   26.9013  -21.1530  -11.6648 N   0  0  0  0  0  0  0  0  0  0  0  0
   25.5230  -21.2063   -9.7336 C   0  0  0  0  0  0  0  0  0  0  0  0
   25.8903  -22.3454   -9.4199 O   0  0  0  0  0  0  0  0  0  0  0  0
   25.0217  -20.3984   -8.6957 O   0  0  0  0  0  0  0  0  0  0  0  0
  2  1  1  0
  3  4  2  0
  3  2  1  0
  5  6  1  0
  6  7  2  0
  8  6  1  0
  8  9  1  0
 10  9  1  1
 10 12  1  0
 10 11  1  0
 11  3  1  0
 12 22  1  0
 13 12  2  0
 15 14  1  0
 16 15  2  0
 17 15  1  0
 18 19  1  0
 18 17  1  0
 20 19  1  0
 21 20  1  6
 22 21  1  0
 23 25  1  0
 23 21  1  0
 24 23  2  0
M  END
$$$$
