GQR.pdb
     RDKit          3D

 25 24  0  0  1  0  0  0  0  0999 V2000
   30.5855  -20.7498  -11.0756 N   0  0  0  0  0  0  0  0  0  0  0  0
   29.9224  -21.2965  -12.2642 C   0  0  0  0  0  0  0  0  0  0  0  0
   28.9257  -20.3027  -12.7687 C   0  0  0  0  0  0  0  0  0  0  0  0
   28.6800  -19.2838  -12.1058 O   0  0  0  0  0  0  0  0  0  0  0  0
   26.2955  -17.7761  -17.6602 N   0  0  0  0  0  0  0  0  0  0  0  0
   27.4204  -17.1560  -17.0951 C   0  0  0  0  0  0  0  0  0  0  0  0
   27.7010  -15.9703  -17.3105 O   0  0  0  0  0  0  0  0  0  0  0  0
   28.3096  -17.9753  -16.1961 C   0  0  0  0  0  0  0  0  0  0  0  0
   27.7188  -19.3296  -16.0033 C   0  0  0  0  0  0  0  0  0  0  0  0
   27.3115  -19.6167  -14.6024 C   0  0  2  0  0  0  0  0  0  0  0  0
   28.2810  -20.5470  -13.9966 N   0  0  0  0  0  0  0  0  0  0  0  0
   25.9843  -20.2142  -14.4111 C   0  0  0  0  0  0  0  0  0  0  0  0
   25.7460  -21.3665  -14.9167 O   0  0  0  0  0  0  0  0  0  0  0  0
   23.8873  -21.3489   -6.9595 N   0  0  0  0  0  0  0  0  0  0  0  0
   22.7561  -21.3333   -7.8562 C   0  0  0  0  0  0  0  0  0  0  0  0
   21.5768  -21.3285   -7.3879 N   0  0  0  0  0  0  0  0  0  0  0  0
   23.0250  -21.3253   -9.2473 N   0  0  0  0  0  0  0  0  0  0  0  0
   24.3828  -21.3774   -9.7632 C   0  0  0  0  0  0  0  0  0  0  0  0
   24.4023  -21.3572  -11.2374 C   0  0  0  0  0  0  0  0  0  0  0  0
   23.5231  -20.5039  -12.0215 C   0  0  0  0  0  0  0  0  0  0  0  0
   23.6391  -20.3744  -13.5023 C   0  0  2  0  0  0  0  0  0  0  0  0
   24.9359  -19.6190  -13.6994 N   0  0  0  0  0  0  0  0  0  0  0  0
   22.6137  -19.5702  -14.1867 C   0  0  0  0  0  0  0  0  0  0  0  0
   22.7333  -18.3659  -14.4442 O   0  0  0  0  0  0  0  0  0  0  0  0
   21.4114  -20.1830  -14.5866 O   0  0  0  0  0  0  0  0  0  0  0  0
  2  1  1  0
  3  4  2  0
  3  2  1  0
  5  6  1  0
  6  7  2  0
  8  6  1  0
  8  9  1  0
 10  9  1  6
 10 12  1  0
 10 11  1  0
 11  3  1  0
 12 22  1  0
 13 12  2  0
 15 14  1  0
 16 15  2  0
 17 15  1  0
 18 19  1  0
 18 17  1  0
 20 19  1  0
 21 20  1  1
 22 21  1  0
 23 25  1  0
 23 21  1  0
 24 23  2  0
M  END
$$$$
