GQR.pdb
     RDKit          3D

 25 24  0  0  1  0  0  0  0  0999 V2000
   29.1234  -17.5177  -18.0514 N   0  0  0  0  0  0  0  0  0  0  0  0
   28.2719  -18.6685  -17.7322 C   0  0  0  0  0  0  0  0  0  0  0  0
   26.9722  -18.1770  -17.1803 C   0  0  0  0  0  0  0  0  0  0  0  0
   26.8429  -18.0134  -15.9579 O   0  0  0  0  0  0  0  0  0  0  0  0
   22.8240  -15.3215  -20.7563 N   0  0  0  0  0  0  0  0  0  0  0  0
   22.0225  -15.4400  -19.6104 C   0  0  0  0  0  0  0  0  0  0  0  0
   20.8962  -14.9333  -19.5350 O   0  0  0  0  0  0  0  0  0  0  0  0
   22.5658  -16.2143  -18.4377 C   0  0  0  0  0  0  0  0  0  0  0  0
   23.9637  -16.6441  -18.7230 C   0  0  0  0  0  0  0  0  0  0  0  0
   24.5875  -17.4350  -17.6294 C   0  0  2  0  0  0  0  0  0  0  0  0
   25.9127  -17.9081  -18.0681 N   0  0  0  0  0  0  0  0  0  0  0  0
   23.8522  -18.6198  -17.1706 C   0  0  0  0  0  0  0  0  0  0  0  0
   24.0482  -19.7376  -17.7642 O   0  0  0  0  0  0  0  0  0  0  0  0
   21.0129  -24.0279  -13.9787 N   0  0  0  0  0  0  0  0  0  0  0  0
   19.8404  -23.7405  -13.1870 C   0  0  0  0  0  0  0  0  0  0  0  0
   19.1853  -24.6897  -12.6579 N   0  0  0  0  0  0  0  0  0  0  0  0
   19.4697  -22.3812  -13.0378 N   0  0  0  0  0  0  0  0  0  0  0  0
   19.9265  -21.3587  -13.9643 C   0  0  0  0  0  0  0  0  0  0  0  0
   21.2072  -20.7700  -13.5315 C   0  0  0  0  0  0  0  0  0  0  0  0
   21.9015  -19.7502  -14.3021 C   0  0  0  0  0  0  0  0  0  0  0  0
   22.2253  -19.9164  -15.7480 C   0  0  2  0  0  0  0  0  0  0  0  0
   22.9394  -18.6316  -16.1092 N   0  0  0  0  0  0  0  0  0  0  0  0
   21.0916  -20.0061  -16.6824 C   0  0  0  0  0  0  0  0  0  0  0  0
   20.4263  -19.0346  -17.0622 O   0  0  0  0  0  0  0  0  0  0  0  0
   20.7184  -21.2632  -17.1938 O   0  0  0  0  0  0  0  0  0  0  0  0
  2  1  1  0
  3  4  2  0
  3  2  1  0
  5  6  1  0
  6  7  2  0
  8  6  1  0
  8  9  1  0
 10  9  1  6
 10 12  1  0
 10 11  1  0
 11  3  1  0
 12 22  1  0
 13 12  2  0
 15 14  1  0
 16 15  2  0
 17 15  1  0
 18 19  1  0
 18 17  1  0
 20 19  1  0
 21 20  1  1
 22 21  1  0
 23 25  1  0
 23 21  1  0
 24 23  2  0
M  END
$$$$
