GQR.pdb
     RDKit          3D

 25 24  0  0  1  0  0  0  0  0999 V2000
   17.3481  -26.1921   -3.5251 N   0  0  0  0  0  0  0  0  0  0  0  0
   17.1500  -25.3227   -4.6897 C   0  0  0  0  0  0  0  0  0  0  0  0
   18.2408  -25.5761   -5.6803 C   0  0  0  0  0  0  0  0  0  0  0  0
   19.2725  -26.1656   -5.3253 O   0  0  0  0  0  0  0  0  0  0  0  0
   18.0162  -29.7597   -8.6141 N   0  0  0  0  0  0  0  0  0  0  0  0
   16.8897  -28.9300   -8.7238 C   0  0  0  0  0  0  0  0  0  0  0  0
   15.7639  -29.3729   -8.9833 O   0  0  0  0  0  0  0  0  0  0  0  0
   17.0726  -27.4489   -8.5162 C   0  0  0  0  0  0  0  0  0  0  0  0
   18.5102  -27.1505   -8.2621 C   0  0  0  0  0  0  0  0  0  0  0  0
   18.8149  -25.6996   -8.1489 C   0  0  2  0  0  0  0  0  0  0  0  0
   18.0724  -25.1359   -7.0073 N   0  0  0  0  0  0  0  0  0  0  0  0
   18.4892  -24.8649   -9.3117 C   0  0  0  0  0  0  0  0  0  0  0  0
   17.3600  -24.2615   -9.3431 O   0  0  0  0  0  0  0  0  0  0  0  0
   24.3829  -23.6430  -14.7800 N   0  0  0  0  0  0  0  0  0  0  0  0
   23.4752  -24.7425  -14.5541 C   0  0  0  0  0  0  0  0  0  0  0  0
   23.9080  -25.9352  -14.5731 N   0  0  0  0  0  0  0  0  0  0  0  0
   22.1139  -24.4282  -14.3183 N   0  0  0  0  0  0  0  0  0  0  0  0
   21.6530  -23.0532  -14.2219 C   0  0  0  0  0  0  0  0  0  0  0  0
   20.5360  -22.9229  -13.2682 C   0  0  0  0  0  0  0  0  0  0  0  0
   19.9162  -24.0710  -12.6251 C   0  0  0  0  0  0  0  0  0  0  0  0
   18.8113  -23.9376  -11.6329 C   0  0  2  0  0  0  0  0  0  0  0  0
   19.3324  -24.6629  -10.4108 N   0  0  0  0  0  0  0  0  0  0  0  0
   17.5351  -24.5944  -11.9592 C   0  0  0  0  0  0  0  0  0  0  0  0
   17.2834  -25.7814  -11.7174 O   0  0  0  0  0  0  0  0  0  0  0  0
   16.5175  -23.8499  -12.5847 O   0  0  0  0  0  0  0  0  0  0  0  0
  2  1  1  0
  3  4  2  0
  3  2  1  0
  5  6  1  0
  6  7  2  0
  8  6  1  0
  8  9  1  0
 10  9  1  6
 10 12  1  0
 10 11  1  0
 11  3  1  0
 12 22  1  0
 13 12  2  0
 15 14  1  0
 16 15  2  0
 17 15  1  0
 18 19  1  0
 18 17  1  0
 20 19  1  0
 21 20  1  6
 22 21  1  0
 23 25  1  0
 23 21  1  0
 24 23  2  0
M  END
$$$$
