PYT.pdb
     RDKit          3D

 27 28  0  0  1  0  0  0  0  0999 V2000
    7.6072  -15.2854   18.7563 N   0  0  0  0  0  0  0  0  0  0  0  0
    7.3360  -14.8613   17.3630 C   0  0  0  0  0  0  0  0  0  0  0  0
    7.5338  -13.3735   17.4717 C   0  0  0  0  0  0  0  0  0  0  0  0
    8.6434  -13.1869   18.4600 C   0  0  0  0  0  0  0  0  0  0  0  0
    8.7947  -14.5279   19.1129 C   0  0  1  0  0  0  0  0  0  0  0  0
    8.9406  -14.4894   20.5609 C   0  0  0  0  0  0  0  0  0  0  0  0
   10.0819  -14.3773   21.0882 O   0  0  0  0  0  0  0  0  0  0  0  0
    7.4090  -12.7052   29.0259 O   0  0  0  0  0  0  0  0  0  0  0  0
    7.2459  -12.9681   27.6540 C   0  0  0  0  0  0  0  0  0  0  0  0
    7.9351  -12.2177   26.7269 C   0  0  0  0  0  0  0  0  0  0  0  0
    7.7835  -12.4654   25.3902 C   0  0  0  0  0  0  0  0  0  0  0  0
    6.9532  -13.4529   24.9479 C   0  0  0  0  0  0  0  0  0  0  0  0
    6.7480  -13.7687   23.5018 C   0  0  0  0  0  0  0  0  0  0  0  0
    7.9528  -14.3996   22.8776 C   0  0  2  0  0  0  0  0  0  0  0  0
    7.8657  -14.5713   21.4543 N   0  0  0  0  0  0  0  0  0  0  0  0
    8.1095  -15.7535   23.4695 C   0  0  0  0  0  0  0  0  0  0  0  0
    7.2363  -16.6447   23.3150 O   0  0  0  0  0  0  0  0  0  0  0  0
    6.2624  -14.2055   25.8709 C   0  0  0  0  0  0  0  0  0  0  0  0
    6.4105  -13.9605   27.2334 C   0  0  0  0  0  0  0  0  0  0  0  0
   10.4855  -18.2750   22.6072 C   0  0  0  0  0  0  0  0  0  0  0  0
   10.7060  -18.0956   24.0940 C   0  0  1  0  0  0  0  0  0  0  0  0
   11.8633  -17.3846   24.3186 O   0  0  0  0  0  0  0  0  0  0  0  0
    9.4833  -17.4756   24.7195 C   0  0  2  0  0  0  0  0  0  0  0  0
    9.2437  -16.1288   24.2416 N   0  0  0  0  0  0  0  0  0  0  0  0
    9.5714  -17.4169   26.1922 C   0  0  0  0  0  0  0  0  0  0  0  0
    9.5881  -16.2243   26.8833 O   0  0  0  0  0  0  0  0  0  0  0  0
    9.6329  -18.4872   26.8342 O   0  0  0  0  0  0  0  0  0  0  0  0
  1  2  1  0
  3  2  1  0
  4  3  1  0
  4  5  1  0
  5  1  1  0
  5  6  1  1
  6 15  1  0
  6  7  2  0
  8  9  1  0
  9 10  2  0
 10 11  1  0
 12 11  2  0
 12 13  1  0
 14 13  1  1
 14 16  1  0
 15 14  1  0
 16 17  2  0
 18 12  1  0
 19  9  1  0
 19 18  2  0
 21 20  1  6
 21 23  1  0
 22 21  1  0
 23 25  1  0
 23 24  1  6
 24 16  1  0
 25 26  1  0
 27 25  2  0
M  END
$$$$
