PYT.pdb
     RDKit          3D

 27 28  0  0  1  0  0  0  0  0999 V2000
    7.6996  -15.2909   18.8924 N   0  0  0  0  0  0  0  0  0  0  0  0
    7.3647  -14.9281   17.4957 C   0  0  0  0  0  0  0  0  0  0  0  0
    7.3328  -13.4264   17.5885 C   0  0  0  0  0  0  0  0  0  0  0  0
    8.4023  -13.0619   18.5715 C   0  0  0  0  0  0  0  0  0  0  0  0
    8.7578  -14.3571   19.2376 C   0  0  1  0  0  0  0  0  0  0  0  0
    8.8982  -14.2813   20.6846 C   0  0  0  0  0  0  0  0  0  0  0  0
   10.0102  -13.9924   21.2073 O   0  0  0  0  0  0  0  0  0  0  0  0
    7.3783  -13.0990   29.2359 O   0  0  0  0  0  0  0  0  0  0  0  0
    7.2101  -13.2859   27.8522 C   0  0  0  0  0  0  0  0  0  0  0  0
    6.5954  -14.4270   27.3857 C   0  0  0  0  0  0  0  0  0  0  0  0
    6.4269  -14.6184   26.0417 C   0  0  0  0  0  0  0  0  0  0  0  0
    6.8600  -13.6914   25.1398 C   0  0  0  0  0  0  0  0  0  0  0  0
    6.7035  -13.8460   23.6619 C   0  0  0  0  0  0  0  0  0  0  0  0
    7.9347  -14.3933   23.0106 C   0  0  2  0  0  0  0  0  0  0  0  0
    7.8493  -14.5151   21.5821 N   0  0  0  0  0  0  0  0  0  0  0  0
    8.1600  -15.7593   23.5503 C   0  0  0  0  0  0  0  0  0  0  0  0
    7.3500  -16.6955   23.3314 O   0  0  0  0  0  0  0  0  0  0  0  0
    7.4748  -12.5493   25.6016 C   0  0  0  0  0  0  0  0  0  0  0  0
    7.6506  -12.3462   26.9677 C   0  0  0  0  0  0  0  0  0  0  0  0
   10.6175  -18.1871   22.6880 C   0  0  0  0  0  0  0  0  0  0  0  0
   10.8307  -18.0034   24.1753 C   0  0  1  0  0  0  0  0  0  0  0  0
   11.9563  -17.2439   24.4021 O   0  0  0  0  0  0  0  0  0  0  0  0
    9.5827  -17.4390   24.8033 C   0  0  2  0  0  0  0  0  0  0  0  0
    9.2932  -16.0965   24.3414 N   0  0  0  0  0  0  0  0  0  0  0  0
    9.6629  -17.3956   26.2771 C   0  0  0  0  0  0  0  0  0  0  0  0
    9.8145  -18.5326   27.0414 O   0  0  0  0  0  0  0  0  0  0  0  0
    9.5905  -16.2879   26.8509 O   0  0  0  0  0  0  0  0  0  0  0  0
  1  2  1  0
  3  2  1  0
  4  3  1  0
  4  5  1  0
  5  1  1  0
  5  6  1  1
  6 15  1  0
  6  7  2  0
  8  9  1  0
  9 10  2  0
 10 11  1  0
 12 11  2  0
 12 13  1  0
 14 13  1  1
 14 16  1  0
 15 14  1  0
 16 17  2  0
 18 12  1  0
 19  9  1  0
 19 18  2  0
 21 20  1  6
 21 23  1  0
 22 21  1  0
 23 25  1  0
 23 24  1  6
 24 16  1  0
 25 26  1  0
 27 25  2  0
M  END
$$$$
