PYT.pdb
     RDKit          3D

 27 28  0  0  1  0  0  0  0  0999 V2000
    7.8864  -15.4448   18.6572 N   0  0  0  0  0  0  0  0  0  0  0  0
    7.5719  -15.0890   17.2539 C   0  0  0  0  0  0  0  0  0  0  0  0
    7.5476  -13.5866   17.3368 C   0  0  0  0  0  0  0  0  0  0  0  0
    8.6063  -13.2220   18.3314 C   0  0  0  0  0  0  0  0  0  0  0  0
    8.9454  -14.5149   19.0103 C   0  0  1  0  0  0  0  0  0  0  0  0
    9.0673  -14.4307   20.4586 C   0  0  0  0  0  0  0  0  0  0  0  0
   10.1734  -14.1421   20.9938 O   0  0  0  0  0  0  0  0  0  0  0  0
    7.3969  -12.5808   28.8272 O   0  0  0  0  0  0  0  0  0  0  0  0
    7.2452  -12.9096   27.4683 C   0  0  0  0  0  0  0  0  0  0  0  0
    6.5576  -14.0490   27.1126 C   0  0  0  0  0  0  0  0  0  0  0  0
    6.4045  -14.3777   25.7936 C   0  0  0  0  0  0  0  0  0  0  0  0
    6.9248  -13.5914   24.8081 C   0  0  0  0  0  0  0  0  0  0  0  0
    6.7895  -13.8997   23.3523 C   0  0  0  0  0  0  0  0  0  0  0  0
    8.0508  -14.4500   22.7645 C   0  0  2  0  0  0  0  0  0  0  0  0
    8.0061  -14.6556   21.3438 N   0  0  0  0  0  0  0  0  0  0  0  0
    8.2966  -15.7763   23.3878 C   0  0  0  0  0  0  0  0  0  0  0  0
    7.5123  -16.7427   23.2100 O   0  0  0  0  0  0  0  0  0  0  0  0
    7.6129  -12.4516   25.1590 C   0  0  0  0  0  0  0  0  0  0  0  0
    7.7736  -12.1093   26.4988 C   0  0  0  0  0  0  0  0  0  0  0  0
   10.7358  -18.2795   22.7572 C   0  0  0  0  0  0  0  0  0  0  0  0
   10.9550  -17.9572   24.2199 C   0  0  1  0  0  0  0  0  0  0  0  0
   12.0814  -17.1800   24.3699 O   0  0  0  0  0  0  0  0  0  0  0  0
    9.7094  -17.3361   24.7972 C   0  0  2  0  0  0  0  0  0  0  0  0
    9.4216  -16.0397   24.2174 N   0  0  0  0  0  0  0  0  0  0  0  0
    9.7927  -17.1611   26.2609 C   0  0  0  0  0  0  0  0  0  0  0  0
    9.9283  -18.2267   27.1247 O   0  0  0  0  0  0  0  0  0  0  0  0
    9.7382  -16.0052   26.7325 O   0  0  0  0  0  0  0  0  0  0  0  0
  1  2  1  0
  3  2  1  0
  4  3  1  0
  4  5  1  0
  5  1  1  0
  5  6  1  1
  6 15  1  0
  6  7  2  0
  8  9  1  0
  9 10  2  0
 10 11  1  0
 12 11  2  0
 12 13  1  0
 14 13  1  1
 14 16  1  0
 15 14  1  0
 16 17  2  0
 18 12  1  0
 19  9  1  0
 19 18  2  0
 21 20  1  6
 21 23  1  0
 22 21  1  0
 23 25  1  0
 23 24  1  6
 24 16  1  0
 25 26  1  0
 27 25  2  0
M  END
$$$$
