PYT.pdb
     RDKit          3D

 27 28  0  0  1  0  0  0  0  0999 V2000
    7.3252  -14.8747   20.4037 N   0  0  0  0  0  0  0  0  0  0  0  0
    6.6935  -14.2701   19.2079 C   0  0  0  0  0  0  0  0  0  0  0  0
    7.1291  -12.8363   19.3465 C   0  0  0  0  0  0  0  0  0  0  0  0
    8.5082  -12.8899   19.9279 C   0  0  0  0  0  0  0  0  0  0  0  0
    8.6612  -14.3036   20.4029 C   0  0  1  0  0  0  0  0  0  0  0  0
    9.2597  -14.4432   21.7227 C   0  0  0  0  0  0  0  0  0  0  0  0
   10.5065  -14.3226   21.8780 O   0  0  0  0  0  0  0  0  0  0  0  0
   10.5405  -15.2149   30.4085 O   0  0  0  0  0  0  0  0  0  0  0  0
    9.9553  -15.0264   29.1437 C   0  0  0  0  0  0  0  0  0  0  0  0
   10.1134  -13.8247   28.4889 C   0  0  0  0  0  0  0  0  0  0  0  0
    9.5481  -13.6313   27.2583 C   0  0  0  0  0  0  0  0  0  0  0  0
    8.8209  -14.6154   26.6561 C   0  0  0  0  0  0  0  0  0  0  0  0
    8.1809  -14.4615   25.3146 C   0  0  0  0  0  0  0  0  0  0  0  0
    9.0847  -14.8816   24.1982 C   0  0  2  0  0  0  0  0  0  0  0  0
    8.5275  -14.7134   22.8852 N   0  0  0  0  0  0  0  0  0  0  0  0
    9.3664  -16.3306   24.3682 C   0  0  0  0  0  0  0  0  0  0  0  0
    8.4499  -17.1896   24.3191 O   0  0  0  0  0  0  0  0  0  0  0  0
    8.6603  -15.8181   27.3069 C   0  0  0  0  0  0  0  0  0  0  0  0
    9.2320  -16.0239   28.5595 C   0  0  0  0  0  0  0  0  0  0  0  0
   11.0423  -18.6855   22.2569 C   0  0  0  0  0  0  0  0  0  0  0  0
   11.8422  -18.7241   23.5414 C   0  0  1  0  0  0  0  0  0  0  0  0
   13.0120  -18.0137   23.3924 O   0  0  0  0  0  0  0  0  0  0  0  0
   10.9878  -18.2500   24.6885 C   0  0  2  0  0  0  0  0  0  0  0  0
   10.6758  -16.8380   24.5951 N   0  0  0  0  0  0  0  0  0  0  0  0
   11.6261  -18.4796   25.9999 C   0  0  0  0  0  0  0  0  0  0  0  0
   11.9311  -19.7423   26.4609 O   0  0  0  0  0  0  0  0  0  0  0  0
   11.8992  -17.4932   26.7168 O   0  0  0  0  0  0  0  0  0  0  0  0
  1  2  1  0
  3  2  1  0
  4  3  1  0
  4  5  1  0
  5  1  1  0
  5  6  1  1
  6 15  1  0
  6  7  2  0
  8  9  1  0
  9 10  2  0
 10 11  1  0
 12 11  2  0
 12 13  1  0
 14 13  1  1
 14 16  1  0
 15 14  1  0
 16 17  2  0
 18 12  1  0
 19  9  1  0
 19 18  2  0
 21 20  1  6
 21 23  1  0
 22 21  1  0
 23 25  1  0
 23 24  1  6
 24 16  1  0
 25 26  1  0
 27 25  2  0
M  END
$$$$
