PYT.pdb
     RDKit          3D

 27 28  0  0  1  0  0  0  0  0999 V2000
    7.7685  -16.8393   19.1722 N   0  0  0  0  0  0  0  0  0  0  0  0
    7.5414  -16.8706   17.7086 C   0  0  0  0  0  0  0  0  0  0  0  0
    7.8044  -15.4338   17.3461 C   0  0  0  0  0  0  0  0  0  0  0  0
    8.9037  -14.9841   18.2584 C   0  0  0  0  0  0  0  0  0  0  0  0
    8.9825  -16.0526   19.3070 C   0  0  1  0  0  0  0  0  0  0  0  0
    9.1045  -15.5610   20.6719 C   0  0  0  0  0  0  0  0  0  0  0  0
   10.1835  -15.0441   21.0740 O   0  0  0  0  0  0  0  0  0  0  0  0
    7.4731  -11.9516   28.4646 O   0  0  0  0  0  0  0  0  0  0  0  0
    7.3203  -12.5723   27.2119 C   0  0  0  0  0  0  0  0  0  0  0  0
    6.6750  -13.7862   27.1240 C   0  0  0  0  0  0  0  0  0  0  0  0
    6.5212  -14.3983   25.9103 C   0  0  0  0  0  0  0  0  0  0  0  0
    6.9993  -13.8256   24.7686 C   0  0  0  0  0  0  0  0  0  0  0  0
    6.8609  -14.4468   23.4166 C   0  0  0  0  0  0  0  0  0  0  0  0
    8.1311  -15.0834   22.9470 C   0  0  2  0  0  0  0  0  0  0  0  0
    8.0722  -15.6201   21.6160 N   0  0  0  0  0  0  0  0  0  0  0  0
    8.4305  -16.2172   23.8595 C   0  0  0  0  0  0  0  0  0  0  0  0
    7.7128  -17.2490   23.8849 O   0  0  0  0  0  0  0  0  0  0  0  0
    7.6449  -12.6124   24.8517 C   0  0  0  0  0  0  0  0  0  0  0  0
    7.8060  -11.9822   26.0826 C   0  0  0  0  0  0  0  0  0  0  0  0
   12.2163  -16.2970   25.6570 C   0  0  0  0  0  0  0  0  0  0  0  0
   11.4954  -17.5825   25.3117 C   0  0  1  0  0  0  0  0  0  0  0  0
   11.9942  -18.6218   26.0642 O   0  0  0  0  0  0  0  0  0  0  0  0
   10.0084  -17.3881   25.4579 C   0  0  2  0  0  0  0  0  0  0  0  0
    9.5356  -16.2124   24.7553 N   0  0  0  0  0  0  0  0  0  0  0  0
    9.5920  -17.2616   26.8689 C   0  0  0  0  0  0  0  0  0  0  0  0
    9.7624  -18.2797   27.7824 O   0  0  0  0  0  0  0  0  0  0  0  0
    9.0664  -16.1930   27.2473 O   0  0  0  0  0  0  0  0  0  0  0  0
  1  2  1  0
  3  2  1  0
  4  3  1  0
  4  5  1  0
  5  1  1  0
  5  6  1  1
  6 15  1  0
  6  7  2  0
  8  9  1  0
  9 10  2  0
 10 11  1  0
 12 11  2  0
 12 13  1  0
 14 13  1  1
 14 16  1  0
 15 14  1  0
 16 17  2  0
 18 12  1  0
 19  9  1  0
 19 18  2  0
 21 20  1  1
 21 23  1  0
 22 21  1  0
 23 25  1  0
 23 24  1  6
 24 16  1  0
 25 26  1  0
 27 25  2  0
M  END
$$$$
