PYT.pdb
     RDKit          3D

 27 28  0  0  1  0  0  0  0  0999 V2000
    8.5408  -15.0310   19.6735 N   0  0  0  0  0  0  0  0  0  0  0  0
    8.3946  -14.4366   18.3245 C   0  0  0  0  0  0  0  0  0  0  0  0
    7.1371  -13.6291   18.5009 C   0  0  0  0  0  0  0  0  0  0  0  0
    7.1831  -13.1161   19.9072 C   0  0  0  0  0  0  0  0  0  0  0  0
    8.2683  -13.9155   20.5635 C   0  0  1  0  0  0  0  0  0  0  0  0
    7.9427  -14.4114   21.8930 C   0  0  0  0  0  0  0  0  0  0  0  0
    7.5601  -13.6188   22.7978 O   0  0  0  0  0  0  0  0  0  0  0  0
    7.4452  -19.6009   29.0341 O   0  0  0  0  0  0  0  0  0  0  0  0
    7.5563  -19.1445   27.7085 C   0  0  0  0  0  0  0  0  0  0  0  0
    6.4449  -18.6552   27.0580 C   0  0  0  0  0  0  0  0  0  0  0  0
    6.5424  -18.2088   25.7686 C   0  0  0  0  0  0  0  0  0  0  0  0
    7.7323  -18.2375   25.1027 C   0  0  0  0  0  0  0  0  0  0  0  0
    7.8989  -17.7640   23.6953 C   0  0  0  0  0  0  0  0  0  0  0  0
    7.7202  -16.2839   23.5649 C   0  0  2  0  0  0  0  0  0  0  0  0
    8.0253  -15.7592   22.2632 N   0  0  0  0  0  0  0  0  0  0  0  0
    8.6488  -15.6322   24.5245 C   0  0  0  0  0  0  0  0  0  0  0  0
    9.8661  -15.4700   24.2557 O   0  0  0  0  0  0  0  0  0  0  0  0
    8.8458  -18.7257   25.7490 C   0  0  0  0  0  0  0  0  0  0  0  0
    8.7559  -19.1821   27.0612 C   0  0  0  0  0  0  0  0  0  0  0  0
    7.8971  -12.1915   26.1699 C   0  0  0  0  0  0  0  0  0  0  0  0
    8.2729  -13.1784   27.2544 C   0  0  1  0  0  0  0  0  0  0  0  0
    7.1495  -13.5731   27.9455 O   0  0  0  0  0  0  0  0  0  0  0  0
    9.0487  -14.3230   26.6556 C   0  0  2  0  0  0  0  0  0  0  0  0
    8.2290  -15.1534   25.7966 N   0  0  0  0  0  0  0  0  0  0  0  0
    9.6462  -15.1985   27.6836 C   0  0  0  0  0  0  0  0  0  0  0  0
   10.5254  -14.7263   28.6343 O   0  0  0  0  0  0  0  0  0  0  0  0
    9.3431  -16.4108   27.6910 O   0  0  0  0  0  0  0  0  0  0  0  0
  1  2  1  0
  3  2  1  0
  4  3  1  0
  4  5  1  0
  5  1  1  0
  5  6  1  1
  6 15  1  0
  6  7  2  0
  8  9  1  0
  9 10  2  0
 10 11  1  0
 12 11  2  0
 12 13  1  0
 14 13  1  6
 14 16  1  0
 15 14  1  0
 16 17  2  0
 18 12  1  0
 19  9  1  0
 19 18  2  0
 21 20  1  6
 21 23  1  0
 22 21  1  0
 23 25  1  0
 23 24  1  1
 24 16  1  0
 25 26  1  0
 27 25  2  0
M  END
$$$$
