PYT.pdb
     RDKit          3D

 27 28  0  0  1  0  0  0  0  0999 V2000
    8.9862  -16.4492   20.2124 N   0  0  0  0  0  0  0  0  0  0  0  0
    8.7264  -16.9383   18.8383 C   0  0  0  0  0  0  0  0  0  0  0  0
    7.5592  -17.8579   19.0765 C   0  0  0  0  0  0  0  0  0  0  0  0
    6.7548  -17.2130   20.1628 C   0  0  0  0  0  0  0  0  0  0  0  0
    7.6576  -16.1542   20.7209 C   0  0  1  0  0  0  0  0  0  0  0  0
    7.6889  -16.0823   22.1746 C   0  0  0  0  0  0  0  0  0  0  0  0
    6.6335  -15.8562   22.8289 O   0  0  0  0  0  0  0  0  0  0  0  0
   10.1035  -16.7048   30.6127 O   0  0  0  0  0  0  0  0  0  0  0  0
   10.1372  -16.6745   29.2071 C   0  0  0  0  0  0  0  0  0  0  0  0
   10.8035  -15.6568   28.5605 C   0  0  0  0  0  0  0  0  0  0  0  0
   10.8421  -15.6181   27.1936 C   0  0  0  0  0  0  0  0  0  0  0  0
   10.2270  -16.5783   26.4454 C   0  0  0  0  0  0  0  0  0  0  0  0
   10.2356  -16.5879   24.9512 C   0  0  0  0  0  0  0  0  0  0  0  0
    8.9258  -16.1580   24.3690 C   0  0  2  0  0  0  0  0  0  0  0  0
    8.8506  -16.2513   22.9378 N   0  0  0  0  0  0  0  0  0  0  0  0
    8.7237  -14.7289   24.7223 C   0  0  0  0  0  0  0  0  0  0  0  0
    9.3793  -13.8134   24.1630 O   0  0  0  0  0  0  0  0  0  0  0  0
    9.5599  -17.5974   27.0875 C   0  0  0  0  0  0  0  0  0  0  0  0
    9.5153  -17.6448   28.4782 C   0  0  0  0  0  0  0  0  0  0  0  0
    5.9789  -12.1824   24.3533 C   0  0  0  0  0  0  0  0  0  0  0  0
    6.1721  -12.4591   25.8289 C   0  0  1  0  0  0  0  0  0  0  0  0
    5.2145  -13.3420   26.2746 O   0  0  0  0  0  0  0  0  0  0  0  0
    7.5845  -12.9198   26.0806 C   0  0  2  0  0  0  0  0  0  0  0  0
    7.7867  -14.3045   25.7048 N   0  0  0  0  0  0  0  0  0  0  0  0
    7.9797  -12.7799   27.4963 C   0  0  0  0  0  0  0  0  0  0  0  0
    7.9548  -11.5683   28.1530 O   0  0  0  0  0  0  0  0  0  0  0  0
    8.3500  -13.7971   28.1206 O   0  0  0  0  0  0  0  0  0  0  0  0
  1  2  1  0
  3  2  1  0
  4  3  1  0
  4  5  1  0
  5  1  1  0
  5  6  1  1
  6 15  1  0
  6  7  2  0
  8  9  1  0
  9 10  2  0
 10 11  1  0
 12 11  2  0
 12 13  1  0
 14 13  1  6
 14 16  1  0
 15 14  1  0
 16 17  2  0
 18 12  1  0
 19  9  1  0
 19 18  2  0
 21 20  1  6
 21 23  1  0
 22 21  1  0
 23 25  1  0
 23 24  1  1
 24 16  1  0
 25 26  1  0
 27 25  2  0
M  END
$$$$
