PYT.pdb
     RDKit          3D

 27 28  0  0  1  0  0  0  0  0999 V2000
    7.0597  -14.8120   20.4047 N   0  0  0  0  0  0  0  0  0  0  0  0
    6.3411  -14.1683   19.2805 C   0  0  0  0  0  0  0  0  0  0  0  0
    6.7174  -12.7259   19.4872 C   0  0  0  0  0  0  0  0  0  0  0  0
    8.1253  -12.7471   19.9973 C   0  0  0  0  0  0  0  0  0  0  0  0
    8.3665  -14.1777   20.3754 C   0  0  1  0  0  0  0  0  0  0  0  0
    9.0371  -14.3669   21.6536 C   0  0  0  0  0  0  0  0  0  0  0  0
   10.2920  -14.2638   21.7415 O   0  0  0  0  0  0  0  0  0  0  0  0
   10.8172  -15.0169   30.2486 O   0  0  0  0  0  0  0  0  0  0  0  0
   10.1473  -14.8891   29.0186 C   0  0  0  0  0  0  0  0  0  0  0  0
   10.1832  -13.6901   28.3414 C   0  0  0  0  0  0  0  0  0  0  0  0
    9.5349  -13.5555   27.1443 C   0  0  0  0  0  0  0  0  0  0  0  0
    8.8437  -14.5966   26.5981 C   0  0  0  0  0  0  0  0  0  0  0  0
    8.1172  -14.5084   25.2953 C   0  0  0  0  0  0  0  0  0  0  0  0
    8.9931  -14.8408   24.1284 C   0  0  2  0  0  0  0  0  0  0  0  0
    8.3688  -14.6685   22.8465 N   0  0  0  0  0  0  0  0  0  0  0  0
    9.3668  -16.2746   24.2402 C   0  0  0  0  0  0  0  0  0  0  0  0
    8.4957  -17.1778   24.3185 O   0  0  0  0  0  0  0  0  0  0  0  0
    8.8052  -15.7970   27.2715 C   0  0  0  0  0  0  0  0  0  0  0  0
    9.4620  -15.9431   28.4903 C   0  0  0  0  0  0  0  0  0  0  0  0
   11.5035  -18.3629   21.8846 C   0  0  0  0  0  0  0  0  0  0  0  0
   12.1317  -18.4541   23.2588 C   0  0  1  0  0  0  0  0  0  0  0  0
   13.2645  -17.6737   23.3144 O   0  0  0  0  0  0  0  0  0  0  0  0
   11.1086  -18.1122   24.3108 C   0  0  2  0  0  0  0  0  0  0  0  0
   10.7184  -16.7175   24.2660 N   0  0  0  0  0  0  0  0  0  0  0  0
   11.5883  -18.3971   25.6779 C   0  0  0  0  0  0  0  0  0  0  0  0
   11.9133  -19.6698   26.0954 O   0  0  0  0  0  0  0  0  0  0  0  0
   11.7033  -17.4496   26.4845 O   0  0  0  0  0  0  0  0  0  0  0  0
  1  2  1  0
  3  2  1  0
  4  3  1  0
  4  5  1  0
  5  1  1  0
  5  6  1  1
  6 15  1  0
  6  7  2  0
  8  9  1  0
  9 10  2  0
 10 11  1  0
 12 11  2  0
 12 13  1  0
 14 13  1  1
 14 16  1  0
 15 14  1  0
 16 17  2  0
 18 12  1  0
 19  9  1  0
 19 18  2  0
 21 20  1  6
 21 23  1  0
 22 21  1  0
 23 25  1  0
 23 24  1  1
 24 16  1  0
 25 26  1  0
 27 25  2  0
M  END
$$$$
