PYT.pdb
     RDKit          3D

 27 28  0  0  1  0  0  0  0  0999 V2000
    7.1941  -14.9581   20.4136 N   0  0  0  0  0  0  0  0  0  0  0  0
    6.5385  -14.3746   19.2201 C   0  0  0  0  0  0  0  0  0  0  0  0
    6.8970  -12.9215   19.3769 C   0  0  0  0  0  0  0  0  0  0  0  0
    8.2735  -12.9086   19.9667 C   0  0  0  0  0  0  0  0  0  0  0  0
    8.4980  -14.3174   20.4276 C   0  0  1  0  0  0  0  0  0  0  0  0
    9.0952  -14.4397   21.7497 C   0  0  0  0  0  0  0  0  0  0  0  0
   10.3185  -14.1846   21.9276 O   0  0  0  0  0  0  0  0  0  0  0  0
   10.5574  -14.7218   30.3749 O   0  0  0  0  0  0  0  0  0  0  0  0
    9.9204  -14.7393   29.1212 C   0  0  0  0  0  0  0  0  0  0  0  0
    9.4503  -15.9286   28.6092 C   0  0  0  0  0  0  0  0  0  0  0  0
    8.8292  -15.9564   27.3907 C   0  0  0  0  0  0  0  0  0  0  0  0
    8.6623  -14.8166   26.6605 C   0  0  0  0  0  0  0  0  0  0  0  0
    7.9925  -14.7860   25.3251 C   0  0  0  0  0  0  0  0  0  0  0  0
    8.9511  -15.0151   24.1991 C   0  0  2  0  0  0  0  0  0  0  0  0
    8.3869  -14.8367   22.8904 N   0  0  0  0  0  0  0  0  0  0  0  0
    9.4158  -16.4240   24.2832 C   0  0  0  0  0  0  0  0  0  0  0  0
    8.6062  -17.3858   24.2741 O   0  0  0  0  0  0  0  0  0  0  0  0
    9.1306  -13.6256   27.1683 C   0  0  0  0  0  0  0  0  0  0  0  0
    9.7639  -13.5879   28.4076 C   0  0  0  0  0  0  0  0  0  0  0  0
   11.6187  -18.3362   21.9758 C   0  0  0  0  0  0  0  0  0  0  0  0
   12.2835  -18.4212   23.3331 C   0  0  1  0  0  0  0  0  0  0  0  0
   13.3815  -17.5918   23.3753 O   0  0  0  0  0  0  0  0  0  0  0  0
   11.2721  -18.1423   24.4146 C   0  0  2  0  0  0  0  0  0  0  0  0
   10.7907  -16.7761   24.3786 N   0  0  0  0  0  0  0  0  0  0  0  0
   11.8098  -18.3899   25.7673 C   0  0  0  0  0  0  0  0  0  0  0  0
   11.9317  -17.3891   26.7073 O   0  0  0  0  0  0  0  0  0  0  0  0
   12.1668  -19.5486   26.0697 O   0  0  0  0  0  0  0  0  0  0  0  0
  1  2  1  0
  3  2  1  0
  4  3  1  0
  4  5  1  0
  5  1  1  0
  5  6  1  1
  6 15  1  0
  6  7  2  0
  8  9  1  0
  9 10  2  0
 10 11  1  0
 12 11  2  0
 12 13  1  0
 14 13  1  1
 14 16  1  0
 15 14  1  0
 16 17  2  0
 18 12  1  0
 19  9  1  0
 19 18  2  0
 21 20  1  6
 21 23  1  0
 22 21  1  0
 23 25  1  0
 23 24  1  1
 24 16  1  0
 25 26  1  0
 27 25  2  0
M  END
$$$$
