PYT.pdb
     RDKit          3D

 27 28  0  0  1  0  0  0  0  0999 V2000
    7.0601  -14.7309   20.4130 N   0  0  0  0  0  0  0  0  0  0  0  0
    6.3636  -14.0871   19.2750 C   0  0  0  0  0  0  0  0  0  0  0  0
    6.7744  -12.6515   19.4616 C   0  0  0  0  0  0  0  0  0  0  0  0
    8.1786  -12.6996   19.9799 C   0  0  0  0  0  0  0  0  0  0  0  0
    8.3823  -14.1296   20.3813 C   0  0  1  0  0  0  0  0  0  0  0  0
    9.0413  -14.3154   21.6660 C   0  0  0  0  0  0  0  0  0  0  0  0
   10.2898  -14.1653   21.7747 O   0  0  0  0  0  0  0  0  0  0  0  0
   10.8394  -14.8784   30.2382 O   0  0  0  0  0  0  0  0  0  0  0  0
   10.1611  -14.7843   29.0098 C   0  0  0  0  0  0  0  0  0  0  0  0
   10.1129  -13.5785   28.3454 C   0  0  0  0  0  0  0  0  0  0  0  0
    9.4558  -13.4765   27.1500 C   0  0  0  0  0  0  0  0  0  0  0  0
    8.8381  -14.5573   26.5928 C   0  0  0  0  0  0  0  0  0  0  0  0
    8.1061  -14.5058   25.2911 C   0  0  0  0  0  0  0  0  0  0  0  0
    8.9825  -14.8503   24.1281 C   0  0  2  0  0  0  0  0  0  0  0  0
    8.3682  -14.6640   22.8433 N   0  0  0  0  0  0  0  0  0  0  0  0
    9.3310  -16.2905   24.2382 C   0  0  0  0  0  0  0  0  0  0  0  0
    8.4449  -17.1817   24.2693 O   0  0  0  0  0  0  0  0  0  0  0  0
    8.8837  -15.7645   27.2533 C   0  0  0  0  0  0  0  0  0  0  0  0
    9.5503  -15.8776   28.4704 C   0  0  0  0  0  0  0  0  0  0  0  0
   11.4288  -18.3744   21.8998 C   0  0  0  0  0  0  0  0  0  0  0  0
   12.0610  -18.4891   23.2704 C   0  0  1  0  0  0  0  0  0  0  0  0
   13.1997  -17.7180   23.3327 O   0  0  0  0  0  0  0  0  0  0  0  0
   11.0439  -18.1541   24.3305 C   0  0  2  0  0  0  0  0  0  0  0  0
   10.6740  -16.7532   24.3148 N   0  0  0  0  0  0  0  0  0  0  0  0
   11.5208  -18.4738   25.6908 C   0  0  0  0  0  0  0  0  0  0  0  0
   11.8388  -19.7579   26.0783 O   0  0  0  0  0  0  0  0  0  0  0  0
   11.6399  -17.5464   26.5198 O   0  0  0  0  0  0  0  0  0  0  0  0
  1  2  1  0
  3  2  1  0
  4  3  1  0
  4  5  1  0
  5  1  1  0
  5  6  1  1
  6 15  1  0
  6  7  2  0
  8  9  1  0
  9 10  2  0
 10 11  1  0
 12 11  2  0
 12 13  1  0
 14 13  1  1
 14 16  1  0
 15 14  1  0
 16 17  2  0
 18 12  1  0
 19  9  1  0
 19 18  2  0
 21 20  1  6
 21 23  1  0
 22 21  1  0
 23 25  1  0
 23 24  1  1
 24 16  1  0
 25 26  1  0
 27 25  2  0
M  END
$$$$
