PYT.pdb
     RDKit          3D

 27 28  0  0  1  0  0  0  0  0999 V2000
    7.8030  -15.5537   18.7718 N   0  0  0  0  0  0  0  0  0  0  0  0
    7.5225  -15.1619   17.3709 C   0  0  0  0  0  0  0  0  0  0  0  0
    7.6055  -13.6625   17.4697 C   0  0  0  0  0  0  0  0  0  0  0  0
    8.6821  -13.3850   18.4732 C   0  0  0  0  0  0  0  0  0  0  0  0
    8.9239  -14.7059   19.1399 C   0  0  1  0  0  0  0  0  0  0  0  0
    9.0436  -14.6455   20.5895 C   0  0  0  0  0  0  0  0  0  0  0  0
   10.1739  -14.5128   21.1353 O   0  0  0  0  0  0  0  0  0  0  0  0
    7.3466  -12.4791   28.9018 O   0  0  0  0  0  0  0  0  0  0  0  0
    7.1977  -12.8313   27.5485 C   0  0  0  0  0  0  0  0  0  0  0  0
    6.5538  -14.0021   27.2132 C   0  0  0  0  0  0  0  0  0  0  0  0
    6.4037  -14.3538   25.8997 C   0  0  0  0  0  0  0  0  0  0  0  0
    6.8841  -13.5601   24.9000 C   0  0  0  0  0  0  0  0  0  0  0  0
    6.7497  -13.8925   23.4494 C   0  0  0  0  0  0  0  0  0  0  0  0
    8.0027  -14.4788   22.8786 C   0  0  2  0  0  0  0  0  0  0  0  0
    7.9539  -14.7277   21.4649 N   0  0  0  0  0  0  0  0  0  0  0  0
    8.2299  -15.7885   23.5426 C   0  0  0  0  0  0  0  0  0  0  0  0
    7.4273  -16.7459   23.4021 O   0  0  0  0  0  0  0  0  0  0  0  0
    7.5283  -12.3890   25.2306 C   0  0  0  0  0  0  0  0  0  0  0  0
    7.6856  -12.0231   26.5646 C   0  0  0  0  0  0  0  0  0  0  0  0
   10.7418  -18.1511   22.7867 C   0  0  0  0  0  0  0  0  0  0  0  0
   10.9623  -17.8993   24.2629 C   0  0  1  0  0  0  0  0  0  0  0  0
   12.0603  -17.0894   24.4463 O   0  0  0  0  0  0  0  0  0  0  0  0
    9.6999  -17.3573   24.8818 C   0  0  2  0  0  0  0  0  0  0  0  0
    9.3568  -16.0451   24.3720 N   0  0  0  0  0  0  0  0  0  0  0  0
    9.7914  -17.2544   26.3519 C   0  0  0  0  0  0  0  0  0  0  0  0
    9.9605  -18.3585   27.1596 O   0  0  0  0  0  0  0  0  0  0  0  0
    9.7127  -16.1255   26.8818 O   0  0  0  0  0  0  0  0  0  0  0  0
  1  2  1  0
  3  2  1  0
  4  3  1  0
  4  5  1  0
  5  1  1  0
  5  6  1  1
  6 15  1  0
  6  7  2  0
  8  9  1  0
  9 10  2  0
 10 11  1  0
 12 11  2  0
 12 13  1  0
 14 13  1  1
 14 16  1  0
 15 14  1  0
 16 17  2  0
 18 12  1  0
 19  9  1  0
 19 18  2  0
 21 20  1  6
 21 23  1  0
 22 21  1  0
 23 25  1  0
 23 24  1  6
 24 16  1  0
 25 26  1  0
 27 25  2  0
M  END
$$$$
