PYT.pdb
     RDKit          3D

 27 28  0  0  1  0  0  0  0  0999 V2000
    7.2459  -14.8915   20.3057 N   0  0  0  0  0  0  0  0  0  0  0  0
    6.5339  -14.2113   19.1989 C   0  0  0  0  0  0  0  0  0  0  0  0
    6.7972  -12.7676   19.5322 C   0  0  0  0  0  0  0  0  0  0  0  0
    8.1791  -12.7339   20.1086 C   0  0  0  0  0  0  0  0  0  0  0  0
    8.5043  -14.1702   20.3894 C   0  0  1  0  0  0  0  0  0  0  0  0
    9.1292  -14.4137   21.6815 C   0  0  0  0  0  0  0  0  0  0  0  0
   10.3861  -14.4115   21.7971 O   0  0  0  0  0  0  0  0  0  0  0  0
   10.7038  -14.6318   30.3123 O   0  0  0  0  0  0  0  0  0  0  0  0
   10.0501  -14.6056   29.0674 C   0  0  0  0  0  0  0  0  0  0  0  0
    9.4933  -15.7600   28.5626 C   0  0  0  0  0  0  0  0  0  0  0  0
    8.8553  -15.7452   27.3526 C   0  0  0  0  0  0  0  0  0  0  0  0
    8.7565  -14.5965   26.6240 C   0  0  0  0  0  0  0  0  0  0  0  0
    8.0723  -14.5200   25.2978 C   0  0  0  0  0  0  0  0  0  0  0  0
    8.9907  -14.8423   24.1611 C   0  0  2  0  0  0  0  0  0  0  0  0
    8.4128  -14.6619   22.8586 N   0  0  0  0  0  0  0  0  0  0  0  0
    9.3632  -16.2761   24.2761 C   0  0  0  0  0  0  0  0  0  0  0  0
    8.4947  -17.1851   24.2630 O   0  0  0  0  0  0  0  0  0  0  0  0
    9.3116  -13.4402   27.1247 C   0  0  0  0  0  0  0  0  0  0  0  0
    9.9628  -13.4460   28.3552 C   0  0  0  0  0  0  0  0  0  0  0  0
   11.1997  -18.4032   21.9670 C   0  0  0  0  0  0  0  0  0  0  0  0
   11.9972  -18.4560   23.2525 C   0  0  1  0  0  0  0  0  0  0  0  0
   13.1149  -17.6588   23.1494 O   0  0  0  0  0  0  0  0  0  0  0  0
   11.1090  -18.1057   24.4182 C   0  0  2  0  0  0  0  0  0  0  0  0
   10.7107  -16.7126   24.4072 N   0  0  0  0  0  0  0  0  0  0  0  0
   11.7534  -18.3748   25.7192 C   0  0  0  0  0  0  0  0  0  0  0  0
   12.1414  -19.6407   26.1024 O   0  0  0  0  0  0  0  0  0  0  0  0
   11.9538  -17.4199   26.4999 O   0  0  0  0  0  0  0  0  0  0  0  0
  1  2  1  0
  3  2  1  0
  4  3  1  0
  4  5  1  0
  5  1  1  0
  5  6  1  1
  6 15  1  0
  6  7  2  0
  8  9  1  0
  9 10  2  0
 10 11  1  0
 12 11  2  0
 12 13  1  0
 14 13  1  1
 14 16  1  0
 15 14  1  0
 16 17  2  0
 18 12  1  0
 19  9  1  0
 19 18  2  0
 21 20  1  6
 21 23  1  0
 22 21  1  0
 23 25  1  0
 23 24  1  1
 24 16  1  0
 25 26  1  0
 27 25  2  0
M  END
$$$$
