MWA.pdb
     RDKit          3D

 28 29  0  0  1  0  0  0  0  0999 V2000
   17.8345  -11.0138  -21.1211 C   0  0  0  0  0  0  0  0  0  0  0  0
   17.5496   -9.7298  -19.9073 S   0  0  0  0  0  0  0  0  0  0  0  0
   17.5852  -10.2027  -18.2034 C   0  0  0  0  0  0  0  0  0  0  0  0
   17.3110   -9.1718  -17.1730 C   0  0  0  0  0  0  0  0  0  0  0  0
   17.7261   -9.4995  -15.8028 C   0  0  2  0  0  0  0  0  0  0  0  0
   16.8566  -10.4656  -15.1968 N   0  0  0  0  0  0  0  0  0  0  0  0
   17.7615   -8.3115  -14.8988 C   0  0  0  0  0  0  0  0  0  0  0  0
   16.7205   -7.7019  -14.5425 O   0  0  0  0  0  0  0  0  0  0  0  0
   19.0343   -7.8624  -14.4286 N   0  0  0  0  0  0  0  0  0  0  0  0
   19.1435   -6.6686  -13.6077 C   0  0  1  0  0  0  0  0  0  0  0  0
   19.8730   -6.9974  -12.3000 C   0  0  0  0  0  0  0  0  0  0  0  0
   18.9521   -7.5963  -11.3104 C   0  0  0  0  0  0  0  0  0  0  0  0
   18.8366   -8.9340  -10.9995 C   0  0  0  0  0  0  0  0  0  0  0  0
   17.8780   -9.0885  -10.0421 N   0  0  0  0  0  0  0  0  0  0  0  0
   17.3768   -7.8686   -9.7344 C   0  0  0  0  0  0  0  0  0  0  0  0
   16.4039   -7.4690   -8.8456 C   0  0  0  0  0  0  0  0  0  0  0  0
   16.0700   -6.1330   -8.7184 C   0  0  0  0  0  0  0  0  0  0  0  0
   16.7100   -5.1810   -9.4835 C   0  0  0  0  0  0  0  0  0  0  0  0
   17.6767   -5.6079  -10.3623 C   0  0  0  0  0  0  0  0  0  0  0  0
   18.0413   -6.9288  -10.5215 C   0  0  0  0  0  0  0  0  0  0  0  0
   19.9917   -5.6867  -14.3328 C   0  0  0  0  0  0  0  0  0  0  0  0
   21.0158   -6.1059  -14.9739 O   0  0  0  0  0  0  0  0  0  0  0  0
   20.6514   -3.9788  -16.5636 C   0  0  0  0  0  0  0  0  0  0  0  0
   20.6090   -3.4253  -15.1328 C   0  0  2  0  0  0  0  0  0  0  0  0
   19.7307   -4.2902  -14.3575 N   0  0  0  0  0  0  0  0  0  0  0  0
   20.1501   -2.0355  -15.0972 C   0  0  0  0  0  0  0  0  0  0  0  0
   18.9899   -1.7737  -14.7084 O   0  0  0  0  0  0  0  0  0  0  0  0
   20.9724   -0.9964  -15.4852 O   0  0  0  0  0  0  0  0  0  0  0  0
  1  2  1  0
  3  2  1  0
  4  3  1  0
  5  4  1  0
  5  6  1  1
  7  5  1  0
  8  7  2  0
  9  7  1  0
 10  9  1  0
 10 11  1  1
 11 12  1  0
 12 20  1  0
 12 13  2  0
 13 14  1  0
 15 16  2  0
 15 14  1  0
 17 16  1  0
 18 17  2  0
 19 18  1  0
 19 20  2  0
 20 15  1  0
 21 22  2  0
 21 10  1  0
 24 23  1  6
 24 25  1  0
 25 21  1  0
 26 24  1  0
 27 26  2  0
 28 26  1  0
M  END
$$$$
