MWA.pdb
     RDKit          3D

 28 29  0  0  1  0  0  0  0  0999 V2000
   30.5322  -21.9311  -17.9969 C   0  0  0  0  0  0  0  0  0  0  0  0
   29.9876  -20.2287  -17.9050 S   0  0  0  0  0  0  0  0  0  0  0  0
   29.7970  -19.5244  -16.2940 C   0  0  0  0  0  0  0  0  0  0  0  0
   29.0173  -20.2727  -15.2780 C   0  0  0  0  0  0  0  0  0  0  0  0
   27.6280  -19.8394  -15.0800 C   0  0  2  0  0  0  0  0  0  0  0  0
   27.5527  -18.5091  -14.5498 N   0  0  0  0  0  0  0  0  0  0  0  0
   26.8615  -20.7258  -14.1546 C   0  0  0  0  0  0  0  0  0  0  0  0
   26.7202  -21.9585  -14.3615 O   0  0  0  0  0  0  0  0  0  0  0  0
   26.2720  -20.1363  -12.9937 N   0  0  0  0  0  0  0  0  0  0  0  0
   25.4602  -20.9313  -12.0881 C   0  0  1  0  0  0  0  0  0  0  0  0
   25.5494  -20.3612  -10.6678 C   0  0  0  0  0  0  0  0  0  0  0  0
   26.8421  -20.7009  -10.0358 C   0  0  0  0  0  0  0  0  0  0  0  0
   27.8958  -21.3654  -10.6255 C   0  0  0  0  0  0  0  0  0  0  0  0
   28.9076  -21.4899   -9.7199 N   0  0  0  0  0  0  0  0  0  0  0  0
   28.5180  -20.9147   -8.5575 C   0  0  0  0  0  0  0  0  0  0  0  0
   29.1516  -20.7674   -7.3439 C   0  0  0  0  0  0  0  0  0  0  0  0
   28.5221  -20.1266   -6.2923 C   0  0  0  0  0  0  0  0  0  0  0  0
   27.2469  -19.6255   -6.4472 C   0  0  0  0  0  0  0  0  0  0  0  0
   26.6384  -19.7866   -7.6690 C   0  0  0  0  0  0  0  0  0  0  0  0
   27.2283  -20.4183   -8.7441 C   0  0  0  0  0  0  0  0  0  0  0  0
   24.0405  -20.8038  -12.5095 C   0  0  0  0  0  0  0  0  0  0  0  0
   23.5194  -19.6386  -12.5890 O   0  0  0  0  0  0  0  0  0  0  0  0
   21.3252  -22.9530  -13.9115 C   0  0  0  0  0  0  0  0  0  0  0  0
   21.8402  -21.6686  -13.2481 C   0  0  2  0  0  0  0  0  0  0  0  0
   23.2146  -21.9136  -12.8339 N   0  0  0  0  0  0  0  0  0  0  0  0
   21.0080  -21.2681  -12.1120 C   0  0  0  0  0  0  0  0  0  0  0  0
   21.3990  -21.4936  -10.9449 O   0  0  0  0  0  0  0  0  0  0  0  0
   19.7915  -20.6419  -12.2970 O   0  0  0  0  0  0  0  0  0  0  0  0
  1  2  1  0
  3  2  1  0
  4  3  1  0
  5  4  1  0
  5  6  1  1
  7  5  1  0
  8  7  2  0
  9  7  1  0
 10  9  1  0
 10 11  1  1
 11 12  1  0
 12 20  1  0
 12 13  2  0
 13 14  1  0
 15 16  2  0
 15 14  1  0
 17 16  1  0
 18 17  2  0
 19 18  1  0
 19 20  2  0
 20 15  1  0
 21 22  2  0
 21 10  1  0
 24 23  1  1
 24 25  1  0
 25 21  1  0
 26 24  1  0
 27 26  2  0
 28 26  1  0
M  END
$$$$
