MWA.pdb
     RDKit          3D

 28 29  0  0  1  0  0  0  0  0999 V2000
   33.0957  -23.1907   -9.2783 C   0  0  0  0  0  0  0  0  0  0  0  0
   33.1359  -21.5729  -10.0426 S   0  0  0  0  0  0  0  0  0  0  0  0
   31.6799  -21.0430  -10.8954 C   0  0  0  0  0  0  0  0  0  0  0  0
   30.4278  -21.8174  -10.7147 C   0  0  0  0  0  0  0  0  0  0  0  0
   29.2448  -21.3094  -11.4214 C   0  0  2  0  0  0  0  0  0  0  0  0
   29.2904  -19.8856  -11.5866 N   0  0  0  0  0  0  0  0  0  0  0  0
   27.9621  -21.6308  -10.7277 C   0  0  0  0  0  0  0  0  0  0  0  0
   27.6794  -22.7910  -10.3326 O   0  0  0  0  0  0  0  0  0  0  0  0
   27.0303  -20.5687  -10.5117 N   0  0  0  0  0  0  0  0  0  0  0  0
   25.7450  -20.8247   -9.8844 C   0  0  1  0  0  0  0  0  0  0  0  0
   25.4953  -19.8049   -8.7674 C   0  0  0  0  0  0  0  0  0  0  0  0
   26.7108  -19.5978   -7.9513 C   0  0  0  0  0  0  0  0  0  0  0  0
   27.7923  -18.8068   -8.2739 C   0  0  0  0  0  0  0  0  0  0  0  0
   28.7118  -18.8771   -7.2695 N   0  0  0  0  0  0  0  0  0  0  0  0
   28.2354  -19.7021   -6.3070 C   0  0  0  0  0  0  0  0  0  0  0  0
   28.7592  -20.1108   -5.1009 C   0  0  0  0  0  0  0  0  0  0  0  0
   28.0566  -20.9778   -4.2839 C   0  0  0  0  0  0  0  0  0  0  0  0
   26.8180  -21.4453   -4.6690 C   0  0  0  0  0  0  0  0  0  0  0  0
   26.3195  -21.0211   -5.8776 C   0  0  0  0  0  0  0  0  0  0  0  0
   26.9852  -20.1580   -6.7233 C   0  0  0  0  0  0  0  0  0  0  0  0
   24.6840  -20.6088  -10.9027 C   0  0  0  0  0  0  0  0  0  0  0  0
   24.6956  -19.5314  -11.5917 O   0  0  0  0  0  0  0  0  0  0  0  0
   22.1600  -22.5712  -12.7584 C   0  0  0  0  0  0  0  0  0  0  0  0
   22.6708  -21.2351  -12.2026 C   0  0  2  0  0  0  0  0  0  0  0  0
   23.6422  -21.5397  -11.1613 N   0  0  0  0  0  0  0  0  0  0  0  0
   21.5812  -20.4058  -11.6842 C   0  0  0  0  0  0  0  0  0  0  0  0
   21.4509  -20.2512  -10.4493 O   0  0  0  0  0  0  0  0  0  0  0  0
   20.6853  -19.7839  -12.5310 O   0  0  0  0  0  0  0  0  0  0  0  0
  1  2  1  0
  3  2  1  0
  4  3  1  0
  5  4  1  0
  5  6  1  1
  7  5  1  0
  8  7  2  0
  9  7  1  0
 10  9  1  0
 10 11  1  1
 11 12  1  0
 12 20  1  0
 12 13  2  0
 13 14  1  0
 15 16  2  0
 15 14  1  0
 17 16  1  0
 18 17  2  0
 19 18  1  0
 19 20  2  0
 20 15  1  0
 21 22  2  0
 21 10  1  0
 24 23  1  1
 24 25  1  0
 25 21  1  0
 26 24  1  0
 27 26  2  0
 28 26  1  0
M  END
$$$$
