MWA.pdb
     RDKit          3D

 28 29  0  0  1  0  0  0  0  0999 V2000
   29.9240  -18.8550  -20.4357 C   0  0  0  0  0  0  0  0  0  0  0  0
   29.9143  -20.6257  -20.1760 S   0  0  0  0  0  0  0  0  0  0  0  0
   28.4251  -21.3449  -19.5492 C   0  0  0  0  0  0  0  0  0  0  0  0
   28.3422  -21.6626  -18.1027 C   0  0  0  0  0  0  0  0  0  0  0  0
   27.2485  -21.0219  -17.3609 C   0  0  2  0  0  0  0  0  0  0  0  0
   27.3550  -19.5919  -17.3795 N   0  0  0  0  0  0  0  0  0  0  0  0
   27.1852  -21.4396  -15.9287 C   0  0  0  0  0  0  0  0  0  0  0  0
   27.2114  -22.6464  -15.5747 O   0  0  0  0  0  0  0  0  0  0  0  0
   27.0917  -20.4177  -14.9339 N   0  0  0  0  0  0  0  0  0  0  0  0
   26.9282  -20.7596  -13.5313 C   0  0  1  0  0  0  0  0  0  0  0  0
   27.6879  -19.7562  -12.6559 C   0  0  0  0  0  0  0  0  0  0  0  0
   28.1202  -20.3759  -11.3849 C   0  0  0  0  0  0  0  0  0  0  0  0
   29.1425  -21.2854  -11.2199 C   0  0  0  0  0  0  0  0  0  0  0  0
   29.2312  -21.6226   -9.9017 N   0  0  0  0  0  0  0  0  0  0  0  0
   28.2802  -20.9422   -9.2186 C   0  0  0  0  0  0  0  0  0  0  0  0
   27.9434  -20.9182   -7.8836 C   0  0  0  0  0  0  0  0  0  0  0  0
   26.9083  -20.1203   -7.4312 C   0  0  0  0  0  0  0  0  0  0  0  0
   26.1981  -19.3360   -8.3153 C   0  0  0  0  0  0  0  0  0  0  0  0
   26.5557  -19.3796   -9.6417 C   0  0  0  0  0  0  0  0  0  0  0  0
   27.5801  -20.1599  -10.1363 C   0  0  0  0  0  0  0  0  0  0  0  0
   25.4888  -20.6197  -13.1876 C   0  0  0  0  0  0  0  0  0  0  0  0
   24.9852  -19.4481  -13.0912 O   0  0  0  0  0  0  0  0  0  0  0  0
   22.4592  -22.7657  -12.7714 C   0  0  0  0  0  0  0  0  0  0  0  0
   23.2491  -21.4677  -12.5557 C   0  0  2  0  0  0  0  0  0  0  0  0
   24.6255  -21.7243  -12.9562 N   0  0  0  0  0  0  0  0  0  0  0  0
   23.1782  -21.0084  -11.1674 C   0  0  0  0  0  0  0  0  0  0  0  0
   24.0752  -21.3344  -10.3581 O   0  0  0  0  0  0  0  0  0  0  0  0
   22.1373  -20.2171  -10.7239 O   0  0  0  0  0  0  0  0  0  0  0  0
  1  2  1  0
  3  2  1  0
  4  3  1  0
  5  4  1  0
  5  6  1  1
  7  5  1  0
  8  7  2  0
  9  7  1  0
 10  9  1  0
 10 11  1  1
 11 12  1  0
 12 20  1  0
 12 13  2  0
 13 14  1  0
 15 16  2  0
 15 14  1  0
 17 16  1  0
 18 17  2  0
 19 18  1  0
 19 20  2  0
 20 15  1  0
 21 22  2  0
 21 10  1  0
 24 23  1  1
 24 25  1  0
 25 21  1  0
 26 24  1  0
 27 26  2  0
 28 26  1  0
M  END
$$$$
