MWA.pdb
     RDKit          3D

 28 29  0  0  1  0  0  0  0  0999 V2000
   28.5770  -18.4143  -20.1215 C   0  0  0  0  0  0  0  0  0  0  0  0
   28.3195  -19.9156  -19.1819 S   0  0  0  0  0  0  0  0  0  0  0  0
   27.1952  -19.8361  -17.8190 C   0  0  0  0  0  0  0  0  0  0  0  0
   26.9296  -21.0717  -17.0427 C   0  0  0  0  0  0  0  0  0  0  0  0
   27.6189  -21.1852  -15.7508 C   0  0  2  0  0  0  0  0  0  0  0  0
   28.7417  -22.0748  -15.8195 N   0  0  0  0  0  0  0  0  0  0  0  0
   26.7342  -21.6777  -14.6532 C   0  0  0  0  0  0  0  0  0  0  0  0
   26.6162  -22.8991  -14.3766 O   0  0  0  0  0  0  0  0  0  0  0  0
   26.0004  -20.7121  -13.8969 N   0  0  0  0  0  0  0  0  0  0  0  0
   25.1395  -21.1251  -12.8018 C   0  0  1  0  0  0  0  0  0  0  0  0
   25.1325  -20.0511  -11.7078 C   0  0  0  0  0  0  0  0  0  0  0  0
   26.4527  -19.9502  -11.0496 C   0  0  0  0  0  0  0  0  0  0  0  0
   27.6280  -19.5202  -11.6267 C   0  0  0  0  0  0  0  0  0  0  0  0
   28.6258  -19.5723  -10.6987 N   0  0  0  0  0  0  0  0  0  0  0  0
   28.1071  -20.0296   -9.5344 C   0  0  0  0  0  0  0  0  0  0  0  0
   28.6746  -20.2667   -8.3024 C   0  0  0  0  0  0  0  0  0  0  0  0
   27.9102  -20.7446   -7.2535 C   0  0  0  0  0  0  0  0  0  0  0  0
   26.5650  -20.9906   -7.4297 C   0  0  0  0  0  0  0  0  0  0  0  0
   26.0250  -20.7451   -8.6696 C   0  0  0  0  0  0  0  0  0  0  0  0
   26.7493  -20.2689   -9.7428 C   0  0  0  0  0  0  0  0  0  0  0  0
   23.7486  -21.2157  -13.3180 C   0  0  0  0  0  0  0  0  0  0  0  0
   23.2462  -20.2096  -13.9269 O   0  0  0  0  0  0  0  0  0  0  0  0
   21.2081  -23.7704  -14.1116 C   0  0  0  0  0  0  0  0  0  0  0  0
   21.5739  -22.3375  -13.7015 C   0  0  2  0  0  0  0  0  0  0  0  0
   22.9308  -22.3688  -13.1739 N   0  0  0  0  0  0  0  0  0  0  0  0
   20.6356  -21.7934  -12.7181 C   0  0  0  0  0  0  0  0  0  0  0  0
   19.4244  -21.6792  -13.0113 O   0  0  0  0  0  0  0  0  0  0  0  0
   21.0567  -21.3995  -11.4636 O   0  0  0  0  0  0  0  0  0  0  0  0
  1  2  1  0
  3  2  1  0
  4  3  1  0
  5  4  1  0
  5  6  1  6
  7  5  1  0
  8  7  2  0
  9  7  1  0
 10  9  1  0
 10 11  1  1
 11 12  1  0
 12 20  1  0
 12 13  2  0
 13 14  1  0
 15 16  2  0
 15 14  1  0
 17 16  1  0
 18 17  2  0
 19 18  1  0
 19 20  2  0
 20 15  1  0
 21 22  2  0
 21 10  1  0
 24 23  1  1
 24 25  1  0
 25 21  1  0
 26 24  1  0
 27 26  2  0
 28 26  1  0
M  END
$$$$
