MWA.pdb
     RDKit          3D

 28 29  0  0  1  0  0  0  0  0999 V2000
   30.3403  -22.5570  -19.7421 C   0  0  0  0  0  0  0  0  0  0  0  0
   30.0787  -22.0215  -18.0545 S   0  0  0  0  0  0  0  0  0  0  0  0
   28.8717  -22.8975  -17.1040 C   0  0  0  0  0  0  0  0  0  0  0  0
   28.5689  -22.4266  -15.7304 C   0  0  0  0  0  0  0  0  0  0  0  0
   27.3395  -21.6388  -15.5725 C   0  0  2  0  0  0  0  0  0  0  0  0
   27.6090  -20.2312  -15.5194 N   0  0  0  0  0  0  0  0  0  0  0  0
   26.5723  -21.9865  -14.3396 C   0  0  0  0  0  0  0  0  0  0  0  0
   26.2663  -23.1706  -14.0452 O   0  0  0  0  0  0  0  0  0  0  0  0
   26.1778  -20.9224  -13.4708 N   0  0  0  0  0  0  0  0  0  0  0  0
   25.3674  -21.1862  -12.2941 C   0  0  1  0  0  0  0  0  0  0  0  0
   25.7257  -20.1968  -11.1792 C   0  0  0  0  0  0  0  0  0  0  0  0
   26.9822  -20.5851  -10.5035 C   0  0  0  0  0  0  0  0  0  0  0  0
   28.0444  -21.2584  -11.0672 C   0  0  0  0  0  0  0  0  0  0  0  0
   29.0136  -21.4323  -10.1240 N   0  0  0  0  0  0  0  0  0  0  0  0
   28.5882  -20.8801   -8.9630 C   0  0  0  0  0  0  0  0  0  0  0  0
   29.1728  -20.7818   -7.7201 C   0  0  0  0  0  0  0  0  0  0  0  0
   28.5140  -20.1553   -6.6779 C   0  0  0  0  0  0  0  0  0  0  0  0
   27.2584  -19.6193   -6.8718 C   0  0  0  0  0  0  0  0  0  0  0  0
   26.6989  -19.7319   -8.1221 C   0  0  0  0  0  0  0  0  0  0  0  0
   27.3194  -20.3477   -9.1892 C   0  0  0  0  0  0  0  0  0  0  0  0
   23.9460  -20.9329  -12.6472 C   0  0  0  0  0  0  0  0  0  0  0  0
   23.6094  -19.7745  -13.0721 O   0  0  0  0  0  0  0  0  0  0  0  0
   20.8435  -22.8353  -13.3379 C   0  0  0  0  0  0  0  0  0  0  0  0
   21.5610  -21.5497  -12.9047 C   0  0  2  0  0  0  0  0  0  0  0  0
   22.9232  -21.9134  -12.5400 N   0  0  0  0  0  0  0  0  0  0  0  0
   20.8742  -20.8875  -11.7942 C   0  0  0  0  0  0  0  0  0  0  0  0
   21.2950  -21.0370  -10.6252 O   0  0  0  0  0  0  0  0  0  0  0  0
   19.7637  -20.0948  -12.0056 O   0  0  0  0  0  0  0  0  0  0  0  0
  1  2  1  0
  3  2  1  0
  4  3  1  0
  5  4  1  0
  5  6  1  1
  7  5  1  0
  8  7  2  0
  9  7  1  0
 10  9  1  0
 10 11  1  1
 11 12  1  0
 12 20  1  0
 12 13  2  0
 13 14  1  0
 15 16  2  0
 15 14  1  0
 17 16  1  0
 18 17  2  0
 19 18  1  0
 19 20  2  0
 20 15  1  0
 21 22  2  0
 21 10  1  0
 24 23  1  1
 24 25  1  0
 25 21  1  0
 26 24  1  0
 27 26  2  0
 28 26  1  0
M  END
$$$$
