MWA.pdb
     RDKit          3D

 28 29  0  0  1  0  0  0  0  0999 V2000
   31.3729  -18.3720  -20.1616 C   0  0  0  0  0  0  0  0  0  0  0  0
   30.5093  -19.1534  -18.8027 S   0  0  0  0  0  0  0  0  0  0  0  0
   30.5117  -20.9212  -18.7502 C   0  0  0  0  0  0  0  0  0  0  0  0
   29.8596  -21.5999  -17.6038 C   0  0  0  0  0  0  0  0  0  0  0  0
   28.3994  -21.4675  -17.5184 C   0  0  2  0  0  0  0  0  0  0  0  0
   27.9607  -20.1465  -17.8637 N   0  0  0  0  0  0  0  0  0  0  0  0
   27.8598  -21.7689  -16.1591 C   0  0  0  0  0  0  0  0  0  0  0  0
   28.1745  -22.8066  -15.5216 O   0  0  0  0  0  0  0  0  0  0  0  0
   26.9524  -20.8328  -15.5734 N   0  0  0  0  0  0  0  0  0  0  0  0
   26.4795  -21.0100  -14.2110 C   0  0  1  0  0  0  0  0  0  0  0  0
   26.8429  -19.7828  -13.3670 C   0  0  0  0  0  0  0  0  0  0  0  0
   26.5041  -19.9940  -11.9433 C   0  0  0  0  0  0  0  0  0  0  0  0
   25.2642  -19.8392  -11.3619 C   0  0  0  0  0  0  0  0  0  0  0  0
   25.3567  -20.1236  -10.0315 N   0  0  0  0  0  0  0  0  0  0  0  0
   26.6385  -20.4586   -9.7513 C   0  0  0  0  0  0  0  0  0  0  0  0
   27.2601  -20.8266   -8.5789 C   0  0  0  0  0  0  0  0  0  0  0  0
   28.6105  -21.1246   -8.5594 C   0  0  0  0  0  0  0  0  0  0  0  0
   29.3538  -21.0564   -9.7188 C   0  0  0  0  0  0  0  0  0  0  0  0
   28.7079  -20.6864  -10.8741 C   0  0  0  0  0  0  0  0  0  0  0  0
   27.3642  -20.3809  -10.9394 C   0  0  0  0  0  0  0  0  0  0  0  0
   24.9951  -21.0796  -14.2438 C   0  0  0  0  0  0  0  0  0  0  0  0
   24.3436  -20.1517  -14.8355 O   0  0  0  0  0  0  0  0  0  0  0  0
   22.3587  -23.6306  -13.6806 C   0  0  0  0  0  0  0  0  0  0  0  0
   22.8055  -22.1744  -13.8673 C   0  0  2  0  0  0  0  0  0  0  0  0
   24.2446  -22.1292  -13.6490 N   0  0  0  0  0  0  0  0  0  0  0  0
   22.1032  -21.2659  -12.9589 C   0  0  0  0  0  0  0  0  0  0  0  0
   22.5934  -21.0068  -11.8371 O   0  0  0  0  0  0  0  0  0  0  0  0
   20.9027  -20.6822  -13.3116 O   0  0  0  0  0  0  0  0  0  0  0  0
  1  2  1  0
  3  2  1  0
  4  3  1  0
  5  4  1  0
  5  6  1  1
  7  5  1  0
  8  7  2  0
  9  7  1  0
 10  9  1  0
 10 11  1  1
 11 12  1  0
 12 20  1  0
 12 13  2  0
 13 14  1  0
 15 16  2  0
 15 14  1  0
 17 16  1  0
 18 17  2  0
 19 18  1  0
 19 20  2  0
 20 15  1  0
 21 22  2  0
 21 10  1  0
 24 23  1  1
 24 25  1  0
 25 21  1  0
 26 24  1  0
 27 26  2  0
 28 26  1  0
M  END
$$$$
