MWA.pdb
     RDKit          3D

 28 29  0  0  1  0  0  0  0  0999 V2000
   28.1063  -18.5244   -6.0659 C   0  0  0  0  0  0  0  0  0  0  0  0
   27.9788  -20.2509   -6.5198 S   0  0  0  0  0  0  0  0  0  0  0  0
   27.9371  -20.6343   -8.2458 C   0  0  0  0  0  0  0  0  0  0  0  0
   26.8157  -20.1118   -9.0639 C   0  0  0  0  0  0  0  0  0  0  0  0
   26.1068  -21.0946   -9.8936 C   0  0  2  0  0  0  0  0  0  0  0  0
   26.8637  -21.4590  -11.0560 N   0  0  0  0  0  0  0  0  0  0  0  0
   24.7757  -20.6126  -10.3688 C   0  0  0  0  0  0  0  0  0  0  0  0
   24.0241  -19.8952   -9.6599 O   0  0  0  0  0  0  0  0  0  0  0  0
   24.3540  -20.9891  -11.6816 N   0  0  0  0  0  0  0  0  0  0  0  0
   23.1070  -20.4873  -12.2332 C   0  0  1  0  0  0  0  0  0  0  0  0
   23.3356  -19.9700  -13.6581 C   0  0  0  0  0  0  0  0  0  0  0  0
   22.1153  -19.3329  -14.1976 C   0  0  0  0  0  0  0  0  0  0  0  0
   21.0705  -18.8087  -13.4676 C   0  0  0  0  0  0  0  0  0  0  0  0
   20.1320  -18.3135  -14.3240 N   0  0  0  0  0  0  0  0  0  0  0  0
   20.5600  -18.5127  -15.5932 C   0  0  0  0  0  0  0  0  0  0  0  0
   20.0006  -18.2064  -16.8136 C   0  0  0  0  0  0  0  0  0  0  0  0
   20.6555  -18.5236  -17.9897 C   0  0  0  0  0  0  0  0  0  0  0  0
   21.8817  -19.1532  -17.9542 C   0  0  0  0  0  0  0  0  0  0  0  0
   22.4165  -19.4471  -16.7226 C   0  0  0  0  0  0  0  0  0  0  0  0
   21.7988  -19.1492  -15.5256 C   0  0  0  0  0  0  0  0  0  0  0  0
   22.1591  -21.6271  -12.3412 C   0  0  0  0  0  0  0  0  0  0  0  0
   22.5506  -22.7085  -12.9005 O   0  0  0  0  0  0  0  0  0  0  0  0
   18.8040  -22.5985  -11.0135 C   0  0  0  0  0  0  0  0  0  0  0  0
   20.0094  -22.7913  -11.9434 C   0  0  2  0  0  0  0  0  0  0  0  0
   20.8250  -21.5882  -11.8540 N   0  0  0  0  0  0  0  0  0  0  0  0
   19.5989  -23.0515  -13.3245 C   0  0  0  0  0  0  0  0  0  0  0  0
   19.3730  -24.2251  -13.6953 O   0  0  0  0  0  0  0  0  0  0  0  0
   19.4533  -22.0256  -14.2369 O   0  0  0  0  0  0  0  0  0  0  0  0
  1  2  1  0
  3  2  1  0
  4  3  1  0
  5  4  1  0
  5  6  1  6
  7  5  1  0
  8  7  2  0
  9  7  1  0
 10  9  1  0
 10 11  1  6
 11 12  1  0
 12 20  1  0
 12 13  2  0
 13 14  1  0
 15 16  2  0
 15 14  1  0
 17 16  1  0
 18 17  2  0
 19 18  1  0
 19 20  2  0
 20 15  1  0
 21 22  2  0
 21 10  1  0
 24 23  1  1
 24 25  1  0
 25 21  1  0
 26 24  1  0
 27 26  2  0
 28 26  1  0
M  END
$$$$
