MWA.pdb
     RDKit          3D

 28 29  0  0  1  0  0  0  0  0999 V2000
   28.4141  -23.2784  -18.5824 C   0  0  0  0  0  0  0  0  0  0  0  0
   29.4407  -21.8292  -18.3617 S   0  0  0  0  0  0  0  0  0  0  0  0
   29.3078  -20.9684  -16.8224 C   0  0  0  0  0  0  0  0  0  0  0  0
   28.4665  -21.5537  -15.7502 C   0  0  0  0  0  0  0  0  0  0  0  0
   27.5338  -20.6347  -15.0849 C   0  0  2  0  0  0  0  0  0  0  0  0
   28.2138  -19.5236  -14.4851 N   0  0  0  0  0  0  0  0  0  0  0  0
   26.7284  -21.2892  -14.0112 C   0  0  0  0  0  0  0  0  0  0  0  0
   26.4866  -22.5236  -14.0048 O   0  0  0  0  0  0  0  0  0  0  0  0
   26.2201  -20.4683  -12.9573 N   0  0  0  0  0  0  0  0  0  0  0  0
   25.3494  -21.0256  -11.9363 C   0  0  1  0  0  0  0  0  0  0  0  0
   25.5589  -20.2866  -10.6096 C   0  0  0  0  0  0  0  0  0  0  0  0
   26.8523  -20.6515   -9.9929 C   0  0  0  0  0  0  0  0  0  0  0  0
   27.8031  -21.4995  -10.5184 C   0  0  0  0  0  0  0  0  0  0  0  0
   28.8536  -21.5830   -9.6531 N   0  0  0  0  0  0  0  0  0  0  0  0
   28.5901  -20.8004   -8.5798 C   0  0  0  0  0  0  0  0  0  0  0  0
   29.3083  -20.5319   -7.4360 C   0  0  0  0  0  0  0  0  0  0  0  0
   28.8055  -19.6781   -6.4711 C   0  0  0  0  0  0  0  0  0  0  0  0
   27.5736  -19.0831   -6.6436 C   0  0  0  0  0  0  0  0  0  0  0  0
   26.8787  -19.3689   -7.7944 C   0  0  0  0  0  0  0  0  0  0  0  0
   27.3415  -20.2135   -8.7821 C   0  0  0  0  0  0  0  0  0  0  0  0
   23.9421  -20.7765  -12.3446 C   0  0  0  0  0  0  0  0  0  0  0  0
   23.5189  -19.5714  -12.4086 O   0  0  0  0  0  0  0  0  0  0  0  0
   21.0460  -22.6720  -13.7475 C   0  0  0  0  0  0  0  0  0  0  0  0
   21.6682  -21.4491  -13.0602 C   0  0  2  0  0  0  0  0  0  0  0  0
   23.0246  -21.8107  -12.6728 N   0  0  0  0  0  0  0  0  0  0  0  0
   20.8847  -21.0145  -11.9024 C   0  0  0  0  0  0  0  0  0  0  0  0
   19.8433  -20.3421  -12.0733 O   0  0  0  0  0  0  0  0  0  0  0  0
   21.2688  -21.3307  -10.6144 O   0  0  0  0  0  0  0  0  0  0  0  0
  1  2  1  0
  3  2  1  0
  4  3  1  0
  5  4  1  0
  5  6  1  1
  7  5  1  0
  8  7  2  0
  9  7  1  0
 10  9  1  0
 10 11  1  1
 11 12  1  0
 12 20  1  0
 12 13  2  0
 13 14  1  0
 15 16  2  0
 15 14  1  0
 17 16  1  0
 18 17  2  0
 19 18  1  0
 19 20  2  0
 20 15  1  0
 21 22  2  0
 21 10  1  0
 24 23  1  1
 24 25  1  0
 25 21  1  0
 26 24  1  0
 27 26  2  0
 28 26  1  0
M  END
$$$$
