MWA.pdb
     RDKit          3D

 28 29  0  0  1  0  0  0  0  0999 V2000
   29.7987  -20.9174   -9.4078 C   0  0  0  0  0  0  0  0  0  0  0  0
   29.8103  -21.6675  -11.0327 S   0  0  0  0  0  0  0  0  0  0  0  0
   29.5725  -20.5980  -12.4210 C   0  0  0  0  0  0  0  0  0  0  0  0
   28.2399  -19.9784  -12.6219 C   0  0  0  0  0  0  0  0  0  0  0  0
   27.0976  -20.9003  -12.6676 C   0  0  2  0  0  0  0  0  0  0  0  0
   27.2123  -21.8416  -13.7435 N   0  0  0  0  0  0  0  0  0  0  0  0
   25.7862  -20.2048  -12.8297 C   0  0  0  0  0  0  0  0  0  0  0  0
   25.5063  -19.1397  -12.2218 O   0  0  0  0  0  0  0  0  0  0  0  0
   24.8230  -20.7835  -13.7129 N   0  0  0  0  0  0  0  0  0  0  0  0
   23.5269  -20.1575  -13.9111 C   0  0  1  0  0  0  0  0  0  0  0  0
   23.1278  -20.2371  -15.3891 C   0  0  0  0  0  0  0  0  0  0  0  0
   23.8497  -19.2275  -16.1928 C   0  0  0  0  0  0  0  0  0  0  0  0
   25.1563  -19.3021  -16.6247 C   0  0  0  0  0  0  0  0  0  0  0  0
   25.4562  -18.1774  -17.3350 N   0  0  0  0  0  0  0  0  0  0  0  0
   24.3604  -17.3823  -17.3647 C   0  0  0  0  0  0  0  0  0  0  0  0
   24.1290  -16.1524  -17.9390 C   0  0  0  0  0  0  0  0  0  0  0  0
   22.8949  -15.5393  -17.8212 C   0  0  0  0  0  0  0  0  0  0  0  0
   21.8770  -16.1551  -17.1240 C   0  0  0  0  0  0  0  0  0  0  0  0
   22.1357  -17.3820  -16.5611 C   0  0  0  0  0  0  0  0  0  0  0  0
   23.3504  -18.0294  -16.6537 C   0  0  0  0  0  0  0  0  0  0  0  0
   22.5159  -20.9416  -13.1545 C   0  0  0  0  0  0  0  0  0  0  0  0
   22.8600  -22.0571  -12.6321 O   0  0  0  0  0  0  0  0  0  0  0  0
   20.4818  -20.8408  -10.6854 C   0  0  0  0  0  0  0  0  0  0  0  0
   20.2928  -21.3212  -12.1306 C   0  0  2  0  0  0  0  0  0  0  0  0
   21.1707  -20.5215  -12.9735 N   0  0  0  0  0  0  0  0  0  0  0  0
   18.8988  -21.2133  -12.5651 C   0  0  0  0  0  0  0  0  0  0  0  0
   18.5511  -20.2703  -13.3105 O   0  0  0  0  0  0  0  0  0  0  0  0
   17.9490  -22.1342  -12.1697 O   0  0  0  0  0  0  0  0  0  0  0  0
  1  2  1  0
  3  2  1  0
  4  3  1  0
  5  4  1  0
  5  6  1  6
  7  5  1  0
  8  7  2  0
  9  7  1  0
 10  9  1  0
 10 11  1  6
 11 12  1  0
 12 20  1  0
 12 13  2  0
 13 14  1  0
 15 16  2  0
 15 14  1  0
 17 16  1  0
 18 17  2  0
 19 18  1  0
 19 20  2  0
 20 15  1  0
 21 22  2  0
 21 10  1  0
 24 23  1  1
 24 25  1  0
 25 21  1  0
 26 24  1  0
 27 26  2  0
 28 26  1  0
M  END
$$$$
