MWA.pdb
     RDKit          3D

 28 29  0  0  1  0  0  0  0  0999 V2000
   17.9464  -22.1646  -12.4229 C   0  0  0  0  0  0  0  0  0  0  0  0
   19.5633  -21.9345  -11.6911 S   0  0  0  0  0  0  0  0  0  0  0  0
   19.9539  -20.3217  -11.0790 C   0  0  0  0  0  0  0  0  0  0  0  0
   21.3555  -19.8455  -11.1722 C   0  0  0  0  0  0  0  0  0  0  0  0
   22.3724  -20.8730  -11.4311 C   0  0  2  0  0  0  0  0  0  0  0  0
   22.4923  -21.7945  -10.3388 N   0  0  0  0  0  0  0  0  0  0  0  0
   23.7315  -20.3063  -11.6795 C   0  0  0  0  0  0  0  0  0  0  0  0
   23.9122  -19.2405  -12.3227 O   0  0  0  0  0  0  0  0  0  0  0  0
   24.8598  -21.0133  -11.1602 N   0  0  0  0  0  0  0  0  0  0  0  0
   26.2044  -20.4871  -11.3217 C   0  0  1  0  0  0  0  0  0  0  0  0
   27.1423  -21.1209  -10.2879 C   0  0  0  0  0  0  0  0  0  0  0  0
   27.0670  -20.4122   -8.9925 C   0  0  0  0  0  0  0  0  0  0  0  0
   26.0793  -19.5397   -8.5893 C   0  0  0  0  0  0  0  0  0  0  0  0
   26.3649  -19.0921   -7.3333 N   0  0  0  0  0  0  0  0  0  0  0  0
   27.5220  -19.6651   -6.9251 C   0  0  0  0  0  0  0  0  0  0  0  0
   28.2430  -19.5559   -5.7571 C   0  0  0  0  0  0  0  0  0  0  0  0
   29.4195  -20.2624   -5.5852 C   0  0  0  0  0  0  0  0  0  0  0  0
   29.8865  -21.0881   -6.5859 C   0  0  0  0  0  0  0  0  0  0  0  0
   29.1469  -21.1781   -7.7408 C   0  0  0  0  0  0  0  0  0  0  0  0
   27.9692  -20.4923   -7.9547 C   0  0  0  0  0  0  0  0  0  0  0  0
   26.7036  -20.9007  -12.6593 C   0  0  0  0  0  0  0  0  0  0  0  0
   26.5012  -22.1006  -13.0530 O   0  0  0  0  0  0  0  0  0  0  0  0
   28.0841  -19.2427  -15.7136 C   0  0  0  0  0  0  0  0  0  0  0  0
   27.6652  -20.4759  -14.9020 C   0  0  2  0  0  0  0  0  0  0  0  0
   27.4022  -20.0319  -13.5402 N   0  0  0  0  0  0  0  0  0  0  0  0
   28.6887  -21.5225  -14.9295 C   0  0  0  0  0  0  0  0  0  0  0  0
   29.4566  -21.6669  -13.9521 O   0  0  0  0  0  0  0  0  0  0  0  0
   28.8296  -22.3622  -16.0164 O   0  0  0  0  0  0  0  0  0  0  0  0
  1  2  1  0
  3  2  1  0
  4  3  1  0
  5  4  1  0
  5  6  1  1
  7  5  1  0
  8  7  2  0
  9  7  1  0
 10  9  1  0
 10 11  1  1
 11 12  1  0
 12 20  1  0
 12 13  2  0
 13 14  1  0
 15 16  2  0
 15 14  1  0
 17 16  1  0
 18 17  2  0
 19 18  1  0
 19 20  2  0
 20 15  1  0
 21 22  2  0
 21 10  1  0
 24 23  1  6
 24 25  1  0
 25 21  1  0
 26 24  1  0
 27 26  2  0
 28 26  1  0
M  END
$$$$
