MWA.pdb
     RDKit          3D

 28 29  0  0  1  0  0  0  0  0999 V2000
   27.0647  -18.8219   -6.3312 C   0  0  0  0  0  0  0  0  0  0  0  0
   28.0850  -20.2291   -6.7574 S   0  0  0  0  0  0  0  0  0  0  0  0
   27.9555  -20.8544   -8.4067 C   0  0  0  0  0  0  0  0  0  0  0  0
   26.8514  -20.3658   -9.2682 C   0  0  0  0  0  0  0  0  0  0  0  0
   26.6948  -21.0392  -10.5640 C   0  0  2  0  0  0  0  0  0  0  0  0
   27.9203  -21.0583  -11.3086 N   0  0  0  0  0  0  0  0  0  0  0  0
   25.6607  -20.4056  -11.4352 C   0  0  0  0  0  0  0  0  0  0  0  0
   25.7019  -19.1909  -11.7594 O   0  0  0  0  0  0  0  0  0  0  0  0
   24.5898  -21.2238  -11.9111 N   0  0  0  0  0  0  0  0  0  0  0  0
   23.6048  -20.6926  -12.8377 C   0  0  1  0  0  0  0  0  0  0  0  0
   23.8272  -21.2847  -14.2342 C   0  0  0  0  0  0  0  0  0  0  0  0
   24.8585  -20.5291  -14.9771 C   0  0  0  0  0  0  0  0  0  0  0  0
   26.2195  -20.7432  -14.9412 C   0  0  0  0  0  0  0  0  0  0  0  0
   26.8345  -19.8421  -15.7591 N   0  0  0  0  0  0  0  0  0  0  0  0
   25.8873  -19.0529  -16.3192 C   0  0  0  0  0  0  0  0  0  0  0  0
   25.9687  -18.0022  -17.2056 C   0  0  0  0  0  0  0  0  0  0  0  0
   24.8270  -17.3484  -17.6318 C   0  0  0  0  0  0  0  0  0  0  0  0
   23.5881  -17.7424  -17.1722 C   0  0  0  0  0  0  0  0  0  0  0  0
   23.5364  -18.7937  -16.2884 C   0  0  0  0  0  0  0  0  0  0  0  0
   24.6485  -19.4739  -15.8371 C   0  0  0  0  0  0  0  0  0  0  0  0
   22.2613  -21.1461  -12.3922 C   0  0  0  0  0  0  0  0  0  0  0  0
   22.0998  -22.3690  -12.0549 O   0  0  0  0  0  0  0  0  0  0  0  0
   18.9192  -19.6507  -11.5965 C   0  0  0  0  0  0  0  0  0  0  0  0
   19.8723  -20.8329  -11.8180 C   0  0  2  0  0  0  0  0  0  0  0  0
   21.1286  -20.2915  -12.3173 N   0  0  0  0  0  0  0  0  0  0  0  0
   19.3147  -21.8189  -12.7455 C   0  0  0  0  0  0  0  0  0  0  0  0
   19.6930  -21.8341  -13.9382 O   0  0  0  0  0  0  0  0  0  0  0  0
   18.3732  -22.7413  -12.3342 O   0  0  0  0  0  0  0  0  0  0  0  0
  1  2  1  0
  3  2  1  0
  4  3  1  0
  5  4  1  0
  5  6  1  6
  7  5  1  0
  8  7  2  0
  9  7  1  0
 10  9  1  0
 10 11  1  6
 11 12  1  0
 12 20  1  0
 12 13  2  0
 13 14  1  0
 15 16  2  0
 15 14  1  0
 17 16  1  0
 18 17  2  0
 19 18  1  0
 19 20  2  0
 20 15  1  0
 21 22  2  0
 21 10  1  0
 24 23  1  6
 24 25  1  0
 25 21  1  0
 26 24  1  0
 27 26  2  0
 28 26  1  0
M  END
$$$$
