MWA.pdb
     RDKit          3D

 28 29  0  0  1  0  0  0  0  0999 V2000
   29.8005  -16.2474  -16.5628 C   0  0  0  0  0  0  0  0  0  0  0  0
   28.9451  -17.4472  -15.5471 S   0  0  0  0  0  0  0  0  0  0  0  0
   27.4700  -18.1646  -16.2085 C   0  0  0  0  0  0  0  0  0  0  0  0
   26.7656  -19.2015  -15.4156 C   0  0  0  0  0  0  0  0  0  0  0  0
   27.5833  -19.9411  -14.4454 C   0  0  2  0  0  0  0  0  0  0  0  0
   28.5224  -20.8120  -15.0907 N   0  0  0  0  0  0  0  0  0  0  0  0
   26.7740  -20.7806  -13.5127 C   0  0  0  0  0  0  0  0  0  0  0  0
   26.3929  -21.9427  -13.8071 O   0  0  0  0  0  0  0  0  0  0  0  0
   26.4274  -20.2289  -12.2406 N   0  0  0  0  0  0  0  0  0  0  0  0
   25.5665  -20.9577  -11.3248 C   0  0  1  0  0  0  0  0  0  0  0  0
   25.7063  -20.3871   -9.9088 C   0  0  0  0  0  0  0  0  0  0  0  0
   27.0339  -20.6969   -9.3364 C   0  0  0  0  0  0  0  0  0  0  0  0
   28.0343  -21.4338   -9.9326 C   0  0  0  0  0  0  0  0  0  0  0  0
   29.1037  -21.4989   -9.0891 N   0  0  0  0  0  0  0  0  0  0  0  0
   28.8034  -20.8140   -7.9600 C   0  0  0  0  0  0  0  0  0  0  0  0
   29.5208  -20.5727   -6.8097 C   0  0  0  0  0  0  0  0  0  0  0  0
   28.9748  -19.8273   -5.7807 C   0  0  0  0  0  0  0  0  0  0  0  0
   27.6999  -19.3147   -5.8948 C   0  0  0  0  0  0  0  0  0  0  0  0
   27.0067  -19.5709   -7.0536 C   0  0  0  0  0  0  0  0  0  0  0  0
   27.5119  -20.3086   -8.1043 C   0  0  0  0  0  0  0  0  0  0  0  0
   24.1569  -20.7306  -11.7380 C   0  0  0  0  0  0  0  0  0  0  0  0
   23.7139  -19.5324  -11.7994 O   0  0  0  0  0  0  0  0  0  0  0  0
   21.5179  -22.5633  -13.5460 C   0  0  0  0  0  0  0  0  0  0  0  0
   21.9429  -21.4352  -12.5962 C   0  0  2  0  0  0  0  0  0  0  0  0
   23.2581  -21.7786  -12.0736 N   0  0  0  0  0  0  0  0  0  0  0  0
   20.9774  -21.2389  -11.5133 C   0  0  0  0  0  0  0  0  0  0  0  0
   19.9427  -20.5653  -11.7174 O   0  0  0  0  0  0  0  0  0  0  0  0
   21.1810  -21.7831  -10.2608 O   0  0  0  0  0  0  0  0  0  0  0  0
  1  2  1  0
  3  2  1  0
  4  3  1  0
  5  4  1  0
  5  6  1  6
  7  5  1  0
  8  7  2  0
  9  7  1  0
 10  9  1  0
 10 11  1  1
 11 12  1  0
 12 20  1  0
 12 13  2  0
 13 14  1  0
 15 16  2  0
 15 14  1  0
 17 16  1  0
 18 17  2  0
 19 18  1  0
 19 20  2  0
 20 15  1  0
 21 22  2  0
 21 10  1  0
 24 23  1  6
 24 25  1  0
 25 21  1  0
 26 24  1  0
 27 26  2  0
 28 26  1  0
M  END
$$$$
