MWA.pdb
     RDKit          3D

 28 29  0  0  1  0  0  0  0  0999 V2000
   26.7311  -24.6374  -17.6406 C   0  0  0  0  0  0  0  0  0  0  0  0
   28.2890  -23.8387  -18.0124 S   0  0  0  0  0  0  0  0  0  0  0  0
   28.9008  -22.6683  -16.8360 C   0  0  0  0  0  0  0  0  0  0  0  0
   28.3869  -22.7219  -15.4456 C   0  0  0  0  0  0  0  0  0  0  0  0
   27.6226  -21.5525  -14.9925 C   0  0  2  0  0  0  0  0  0  0  0  0
   28.4410  -20.3778  -14.9089 N   0  0  0  0  0  0  0  0  0  0  0  0
   26.9916  -21.7451  -13.6529 C   0  0  0  0  0  0  0  0  0  0  0  0
   26.1053  -22.6123  -13.4416 O   0  0  0  0  0  0  0  0  0  0  0  0
   27.4218  -20.9045  -12.5801 N   0  0  0  0  0  0  0  0  0  0  0  0
   26.7687  -20.9626  -11.2835 C   0  0  1  0  0  0  0  0  0  0  0  0
   27.5483  -20.1210  -10.2665 C   0  0  0  0  0  0  0  0  0  0  0  0
   26.9255  -20.1891   -8.9272 C   0  0  0  0  0  0  0  0  0  0  0  0
   25.5767  -20.2450   -8.6499 C   0  0  0  0  0  0  0  0  0  0  0  0
   25.4007  -20.2958   -7.2987 N   0  0  0  0  0  0  0  0  0  0  0  0
   26.6177  -20.2732   -6.7052 C   0  0  0  0  0  0  0  0  0  0  0  0
   26.9991  -20.3035   -5.3824 C   0  0  0  0  0  0  0  0  0  0  0  0
   28.3366  -20.2685   -5.0325 C   0  0  0  0  0  0  0  0  0  0  0  0
   29.3085  -20.2026   -6.0084 C   0  0  0  0  0  0  0  0  0  0  0  0
   28.8995  -20.1736   -7.3202 C   0  0  0  0  0  0  0  0  0  0  0  0
   27.5778  -20.2066   -7.7142 C   0  0  0  0  0  0  0  0  0  0  0  0
   25.4271  -20.3364  -11.4148 C   0  0  0  0  0  0  0  0  0  0  0  0
   25.3457  -19.1190  -11.7981 O   0  0  0  0  0  0  0  0  0  0  0  0
   22.9453  -20.3312  -13.0694 C   0  0  0  0  0  0  0  0  0  0  0  0
   22.9541  -20.4017  -11.5364 C   0  0  2  0  0  0  0  0  0  0  0  0
   24.2116  -21.0175  -11.1363 N   0  0  0  0  0  0  0  0  0  0  0  0
   21.8085  -21.1507  -11.0167 C   0  0  0  0  0  0  0  0  0  0  0  0
   20.6486  -20.7174  -11.1975 O   0  0  0  0  0  0  0  0  0  0  0  0
   21.9766  -22.3342  -10.3256 O   0  0  0  0  0  0  0  0  0  0  0  0
  1  2  1  0
  3  2  1  0
  4  3  1  0
  5  4  1  0
  5  6  1  1
  7  5  1  0
  8  7  2  0
  9  7  1  0
 10  9  1  0
 10 11  1  1
 11 12  1  0
 12 20  1  0
 12 13  2  0
 13 14  1  0
 15 16  2  0
 15 14  1  0
 17 16  1  0
 18 17  2  0
 19 18  1  0
 19 20  2  0
 20 15  1  0
 21 22  2  0
 21 10  1  0
 24 23  1  6
 24 25  1  0
 25 21  1  0
 26 24  1  0
 27 26  2  0
 28 26  1  0
M  END
$$$$
