MWA.pdb
     RDKit          3D

 28 29  0  0  1  0  0  0  0  0999 V2000
   27.8078  -22.7937  -15.4207 C   0  0  0  0  0  0  0  0  0  0  0  0
   28.1763  -21.5287  -16.6319 S   0  0  0  0  0  0  0  0  0  0  0  0
   28.3483  -19.8694  -16.0442 C   0  0  0  0  0  0  0  0  0  0  0  0
   27.1324  -19.1375  -15.6133 C   0  0  0  0  0  0  0  0  0  0  0  0
   25.9941  -19.1707  -16.5408 C   0  0  2  0  0  0  0  0  0  0  0  0
   26.2305  -18.3702  -17.7070 N   0  0  0  0  0  0  0  0  0  0  0  0
   24.7209  -18.6887  -15.9272 C   0  0  0  0  0  0  0  0  0  0  0  0
   24.5351  -17.4849  -15.6132 O   0  0  0  0  0  0  0  0  0  0  0  0
   23.6833  -19.6436  -15.6943 N   0  0  0  0  0  0  0  0  0  0  0  0
   22.3958  -19.2269  -15.1655 C   0  0  1  0  0  0  0  0  0  0  0  0
   21.3108  -19.3969  -16.2351 C   0  0  0  0  0  0  0  0  0  0  0  0
   21.1420  -18.1595  -17.0266 C   0  0  0  0  0  0  0  0  0  0  0  0
   20.5183  -17.0007  -16.6173 C   0  0  0  0  0  0  0  0  0  0  0  0
   20.5643  -16.0879  -17.6292 N   0  0  0  0  0  0  0  0  0  0  0  0
   21.2088  -16.6448  -18.6820 C   0  0  0  0  0  0  0  0  0  0  0  0
   21.5207  -16.1609  -19.9329 C   0  0  0  0  0  0  0  0  0  0  0  0
   22.1996  -16.9482  -20.8450 C   0  0  0  0  0  0  0  0  0  0  0  0
   22.5738  -18.2327  -20.5113 C   0  0  0  0  0  0  0  0  0  0  0  0
   22.2497  -18.6897  -19.2563 C   0  0  0  0  0  0  0  0  0  0  0  0
   21.5742  -17.9397  -18.3159 C   0  0  0  0  0  0  0  0  0  0  0  0
   22.0389  -20.1402  -14.0484 C   0  0  0  0  0  0  0  0  0  0  0  0
   22.1946  -21.4000  -14.2034 O   0  0  0  0  0  0  0  0  0  0  0  0
   20.9873  -19.9279  -10.4629 C   0  0  0  0  0  0  0  0  0  0  0  0
   21.1902  -20.6802  -11.7850 C   0  0  2  0  0  0  0  0  0  0  0  0
   21.5278  -19.6925  -12.8004 N   0  0  0  0  0  0  0  0  0  0  0  0
   20.0026  -21.4469  -12.1660 C   0  0  0  0  0  0  0  0  0  0  0  0
   19.2131  -20.9864  -13.0207 O   0  0  0  0  0  0  0  0  0  0  0  0
   19.7288  -22.6768  -11.6013 O   0  0  0  0  0  0  0  0  0  0  0  0
  1  2  1  0
  3  2  1  0
  4  3  1  0
  5  4  1  0
  5  6  1  6
  7  5  1  0
  8  7  2  0
  9  7  1  0
 10  9  1  0
 10 11  1  6
 11 12  1  0
 12 20  1  0
 12 13  2  0
 13 14  1  0
 15 16  2  0
 15 14  1  0
 17 16  1  0
 18 17  2  0
 19 18  1  0
 19 20  2  0
 20 15  1  0
 21 22  2  0
 21 10  1  0
 24 23  1  1
 24 25  1  0
 25 21  1  0
 26 24  1  0
 27 26  2  0
 28 26  1  0
M  END
$$$$
