MWA.pdb
     RDKit          3D

 28 29  0  0  1  0  0  0  0  0999 V2000
   30.6073  -21.7848  -10.0437 C   0  0  0  0  0  0  0  0  0  0  0  0
   28.9202  -21.2936  -10.3838 S   0  0  0  0  0  0  0  0  0  0  0  0
   28.5865  -20.5841  -11.9691 C   0  0  0  0  0  0  0  0  0  0  0  0
   27.2161  -20.0940  -12.2551 C   0  0  0  0  0  0  0  0  0  0  0  0
   26.1392  -21.0876  -12.1549 C   0  0  2  0  0  0  0  0  0  0  0  0
   26.3626  -22.2082  -13.0216 N   0  0  0  0  0  0  0  0  0  0  0  0
   24.7940  -20.5332  -12.4907 C   0  0  0  0  0  0  0  0  0  0  0  0
   24.3085  -19.5335  -11.9015 O   0  0  0  0  0  0  0  0  0  0  0  0
   24.0416  -21.1737  -13.5233 N   0  0  0  0  0  0  0  0  0  0  0  0
   22.7621  -20.6356  -13.9525 C   0  0  1  0  0  0  0  0  0  0  0  0
   22.5933  -20.8291  -15.4639 C   0  0  0  0  0  0  0  0  0  0  0  0
   23.1517  -19.6844  -16.2149 C   0  0  0  0  0  0  0  0  0  0  0  0
   24.4840  -19.3542  -16.3390 C   0  0  0  0  0  0  0  0  0  0  0  0
   24.5961  -18.2326  -17.1064 N   0  0  0  0  0  0  0  0  0  0  0  0
   23.3544  -17.8386  -17.4763 C   0  0  0  0  0  0  0  0  0  0  0  0
   22.9119  -16.7826  -18.2414 C   0  0  0  0  0  0  0  0  0  0  0  0
   21.5614  -16.5975  -18.4750 C   0  0  0  0  0  0  0  0  0  0  0  0
   20.6379  -17.4719  -17.9423 C   0  0  0  0  0  0  0  0  0  0  0  0
   21.1075  -18.5167  -17.1828 C   0  0  0  0  0  0  0  0  0  0  0  0
   22.4442  -18.7392  -16.9244 C   0  0  0  0  0  0  0  0  0  0  0  0
   21.6868  -21.4271  -13.2995 C   0  0  0  0  0  0  0  0  0  0  0  0
   21.8413  -22.6894  -13.1633 O   0  0  0  0  0  0  0  0  0  0  0  0
   18.5618  -20.8392  -11.3498 C   0  0  0  0  0  0  0  0  0  0  0  0
   19.5012  -21.7298  -12.1741 C   0  0  2  0  0  0  0  0  0  0  0  0
   20.4799  -20.8590  -12.8101 N   0  0  0  0  0  0  0  0  0  0  0  0
   18.7729  -22.5220  -13.1668 C   0  0  0  0  0  0  0  0  0  0  0  0
   18.6922  -22.1167  -14.3480 O   0  0  0  0  0  0  0  0  0  0  0  0
   18.1670  -23.7161  -12.8302 O   0  0  0  0  0  0  0  0  0  0  0  0
  1  2  1  0
  3  2  1  0
  4  3  1  0
  5  4  1  0
  5  6  1  6
  7  5  1  0
  8  7  2  0
  9  7  1  0
 10  9  1  0
 10 11  1  6
 11 12  1  0
 12 20  1  0
 12 13  2  0
 13 14  1  0
 15 16  2  0
 15 14  1  0
 17 16  1  0
 18 17  2  0
 19 18  1  0
 19 20  2  0
 20 15  1  0
 21 22  2  0
 21 10  1  0
 24 23  1  6
 24 25  1  0
 25 21  1  0
 26 24  1  0
 27 26  2  0
 28 26  1  0
M  END
$$$$
