HLL.pdb
     RDKit          3D

 27 27  0  0  1  0  0  0  0  0999 V2000
   15.0722  -20.0021    1.7380 N   0  0  0  0  0  0  0  0  0  0  0  0
   15.0254  -19.1153    2.8630 C   0  0  1  0  0  0  0  0  0  0  0  0
   14.3389  -19.7670    4.0672 C   0  0  0  0  0  0  0  0  0  0  0  0
   12.9177  -19.9536    3.7572 C   0  0  0  0  0  0  0  0  0  0  0  0
   12.0599  -19.0337    3.2404 C   0  0  0  0  0  0  0  0  0  0  0  0
   10.8628  -19.6610    3.1295 N   0  0  0  0  0  0  0  0  0  0  0  0
   10.9606  -20.9306    3.5605 C   0  0  0  0  0  0  0  0  0  0  0  0
   12.2343  -21.1165    3.9510 N   0  0  0  0  0  0  0  0  0  0  0  0
   16.3988  -18.7918    3.2823 C   0  0  0  0  0  0  0  0  0  0  0  0
   17.3603  -19.5508    2.9520 O   0  0  0  0  0  0  0  0  0  0  0  0
   18.0792  -13.4685    4.0372 C   0  0  0  0  0  0  0  0  0  0  0  0
   17.9150  -14.9157    3.6236 C   0  0  1  0  0  0  0  0  0  0  0  0
   19.0023  -15.1688    2.5855 C   0  0  0  0  0  0  0  0  0  0  0  0
   18.1340  -15.8689    4.7363 C   0  0  0  0  0  0  0  0  0  0  0  0
   18.0147  -17.3153    4.4014 C   0  0  2  0  0  0  0  0  0  0  0  0
   16.6300  -17.6256    4.0565 N   0  0  0  0  0  0  0  0  0  0  0  0
   18.3698  -18.1549    5.5910 C   0  0  0  0  0  0  0  0  0  0  0  0
   17.4968  -18.4987    6.4225 O   0  0  0  0  0  0  0  0  0  0  0  0
   20.5796  -22.7176    5.0274 C   0  0  0  0  0  0  0  0  0  0  0  0
   19.6457  -21.6514    5.7181 C   0  0  1  0  0  0  0  0  0  0  0  0
   18.7909  -22.4968    6.6579 C   0  0  0  0  0  0  0  0  0  0  0  0
   20.5209  -20.7408    6.4871 C   0  0  0  0  0  0  0  0  0  0  0  0
   19.9575  -19.4774    6.9864 C   0  0  2  0  0  0  0  0  0  0  0  0
   19.6955  -18.5860    5.8150 N   0  0  0  0  0  0  0  0  0  0  0  0
   20.6913  -18.6529    7.9388 C   0  0  0  0  0  0  0  0  0  0  0  0
   21.2345  -17.5426    7.5601 O   0  0  0  0  0  0  0  0  0  0  0  0
   20.8975  -18.9012    9.2869 O   0  0  0  0  0  0  0  0  0  0  0  0
  2  1  1  6
  2  9  1  0
  2  3  1  0
  3  4  1  0
  4  8  1  0
  4  5  2  0
  5  6  1  0
  7  6  1  0
  8  7  2  0
  9 10  2  0
 12 14  1  0
 12 11  1  1
 13 12  1  0
 15 14  1  1
 15 16  1  0
 16  9  1  0
 17 15  1  0
 18 17  2  0
 20 22  1  0
 20 19  1  1
 21 20  1  0
 23 22  1  6
 23 25  1  0
 23 24  1  0
 24 17  1  0
 25 27  1  0
 26 25  2  0
M  END
$$$$
