HLL.pdb
     RDKit          3D

 27 27  0  0  1  0  0  0  0  0999 V2000
   29.6802  -38.1918   -7.1429 N   0  0  0  0  0  0  0  0  0  0  0  0
   30.2795  -38.7931   -5.9880 C   0  0  1  0  0  0  0  0  0  0  0  0
   31.5624  -39.5490   -6.3469 C   0  0  0  0  0  0  0  0  0  0  0  0
   31.2046  -40.7594   -7.0938 C   0  0  0  0  0  0  0  0  0  0  0  0
   30.3085  -41.7158   -6.7315 C   0  0  0  0  0  0  0  0  0  0  0  0
   30.3169  -42.6324   -7.7308 N   0  0  0  0  0  0  0  0  0  0  0  0
   31.1864  -42.2686   -8.6893 C   0  0  0  0  0  0  0  0  0  0  0  0
   31.7397  -41.1065   -8.2980 N   0  0  0  0  0  0  0  0  0  0  0  0
   30.6619  -37.7378   -5.0359 C   0  0  0  0  0  0  0  0  0  0  0  0
   31.2193  -38.0432   -3.9378 O   0  0  0  0  0  0  0  0  0  0  0  0
   32.6872  -32.9406   -6.6411 C   0  0  0  0  0  0  0  0  0  0  0  0
   32.4184  -34.1935   -5.8346 C   0  0  1  0  0  0  0  0  0  0  0  0
   33.5772  -34.3008   -4.8500 C   0  0  0  0  0  0  0  0  0  0  0  0
   31.1688  -34.1203   -5.0423 C   0  0  0  0  0  0  0  0  0  0  0  0
   30.7424  -35.3749   -4.3621 C   0  0  2  0  0  0  0  0  0  0  0  0
   30.3996  -36.3822   -5.3623 N   0  0  0  0  0  0  0  0  0  0  0  0
   29.5100  -35.1299   -3.5452 C   0  0  0  0  0  0  0  0  0  0  0  0
   28.3903  -34.9903   -4.0915 O   0  0  0  0  0  0  0  0  0  0  0  0
   25.1590  -35.3031   -1.8949 C   0  0  0  0  0  0  0  0  0  0  0  0
   26.1262  -36.2142   -1.0463 C   0  0  1  0  0  0  0  0  0  0  0  0
   25.5468  -37.6121   -1.2430 C   0  0  0  0  0  0  0  0  0  0  0  0
   27.4674  -36.1146   -1.6610 C   0  0  0  0  0  0  0  0  0  0  0  0
   28.2815  -34.9213   -1.3855 C   0  0  2  0  0  0  0  0  0  0  0  0
   29.5679  -35.0482   -2.1368 N   0  0  0  0  0  0  0  0  0  0  0  0
   28.6662  -34.5733   -0.0230 C   0  0  0  0  0  0  0  0  0  0  0  0
   29.8023  -34.9628    0.4554 O   0  0  0  0  0  0  0  0  0  0  0  0
   27.9428  -33.8264    0.8936 O   0  0  0  0  0  0  0  0  0  0  0  0
  2  1  1  6
  2  9  1  0
  2  3  1  0
  3  4  1  0
  4  8  1  0
  4  5  2  0
  5  6  1  0
  7  6  1  0
  8  7  2  0
  9 10  2  0
 12 14  1  0
 12 11  1  1
 13 12  1  0
 15 14  1  6
 15 16  1  0
 16  9  1  0
 17 15  1  0
 18 17  2  0
 20 22  1  0
 20 19  1  6
 21 20  1  0
 23 22  1  1
 23 25  1  0
 23 24  1  0
 24 17  1  0
 25 27  1  0
 26 25  2  0
M  END
$$$$
