HLL.pdb
     RDKit          3D

 27 27  0  0  1  0  0  0  0  0999 V2000
   15.5115  -25.3929    1.9501 N   0  0  0  0  0  0  0  0  0  0  0  0
   15.6407  -26.6560    2.6150 C   0  0  1  0  0  0  0  0  0  0  0  0
   15.7550  -27.8109    1.6153 C   0  0  0  0  0  0  0  0  0  0  0  0
   14.5138  -27.8878    0.8381 C   0  0  0  0  0  0  0  0  0  0  0  0
   13.2506  -28.0431    1.3170 C   0  0  0  0  0  0  0  0  0  0  0  0
   12.4391  -28.0584    0.2306 N   0  0  0  0  0  0  0  0  0  0  0  0
   13.1630  -27.9179   -0.8935 C   0  0  0  0  0  0  0  0  0  0  0  0
   14.4512  -27.8117   -0.5210 N   0  0  0  0  0  0  0  0  0  0  0  0
   16.8792  -26.6602    3.4104 C   0  0  0  0  0  0  0  0  0  0  0  0
   17.1738  -27.6674    4.1236 O   0  0  0  0  0  0  0  0  0  0  0  0
   21.1384  -24.6721    1.0880 C   0  0  0  0  0  0  0  0  0  0  0  0
   20.0199  -25.3309    1.8673 C   0  0  1  0  0  0  0  0  0  0  0  0
   20.1956  -26.8287    1.6451 C   0  0  0  0  0  0  0  0  0  0  0  0
   20.1027  -25.0864    3.3260 C   0  0  0  0  0  0  0  0  0  0  0  0
   18.9671  -25.5916    4.1468 C   0  0  2  0  0  0  0  0  0  0  0  0
   17.7334  -25.5283    3.3680 N   0  0  0  0  0  0  0  0  0  0  0  0
   18.7706  -24.7230    5.3523 C   0  0  0  0  0  0  0  0  0  0  0  0
   19.6936  -24.5537    6.1836 O   0  0  0  0  0  0  0  0  0  0  0  0
   18.2313  -20.8337    8.6045 C   0  0  0  0  0  0  0  0  0  0  0  0
   16.9030  -21.0387    7.7804 C   0  0  1  0  0  0  0  0  0  0  0  0
   16.5841  -19.6322    7.2817 C   0  0  0  0  0  0  0  0  0  0  0  0
   17.2280  -21.9321    6.6478 C   0  0  0  0  0  0  0  0  0  0  0  0
   17.3596  -23.3743    6.9037 C   0  0  2  0  0  0  0  0  0  0  0  0
   17.5431  -24.0679    5.5920 N   0  0  0  0  0  0  0  0  0  0  0  0
   16.3048  -24.1151    7.5847 C   0  0  0  0  0  0  0  0  0  0  0  0
   16.2745  -24.1720    8.8758 O   0  0  0  0  0  0  0  0  0  0  0  0
   15.2522  -24.8082    7.0074 O   0  0  0  0  0  0  0  0  0  0  0  0
  2  1  1  6
  2  9  1  0
  2  3  1  0
  3  4  1  0
  4  8  1  0
  4  5  2  0
  5  6  1  0
  7  6  1  0
  8  7  2  0
  9 10  2  0
 12 14  1  0
 12 11  1  6
 13 12  1  0
 15 14  1  6
 15 16  1  0
 16  9  1  0
 17 15  1  0
 18 17  2  0
 20 22  1  0
 20 19  1  1
 21 20  1  0
 23 22  1  6
 23 25  1  0
 23 24  1  0
 24 17  1  0
 25 27  1  0
 26 25  2  0
M  END
$$$$
