HLL.pdb
     RDKit          3D

 27 27  0  0  1  0  0  0  0  0999 V2000
   25.9785  -19.1555  -18.0336 N   0  0  0  0  0  0  0  0  0  0  0  0
   25.2905  -18.5139  -16.9523 C   0  0  1  0  0  0  0  0  0  0  0  0
   24.0154  -17.8132  -17.4313 C   0  0  0  0  0  0  0  0  0  0  0  0
   24.3861  -16.5590  -18.0948 C   0  0  0  0  0  0  0  0  0  0  0  0
   25.4954  -15.8053  -17.8705 C   0  0  0  0  0  0  0  0  0  0  0  0
   25.4043  -14.7474  -18.7139 N   0  0  0  0  0  0  0  0  0  0  0  0
   24.2786  -14.8295  -19.4442 C   0  0  0  0  0  0  0  0  0  0  0  0
   23.6436  -15.9525  -19.0632 N   0  0  0  0  0  0  0  0  0  0  0  0
   24.8729  -19.5302  -15.9729 C   0  0  0  0  0  0  0  0  0  0  0  0
   24.5348  -20.6891  -16.3634 O   0  0  0  0  0  0  0  0  0  0  0  0
   25.5380  -22.2639  -11.4166 C   0  0  0  0  0  0  0  0  0  0  0  0
   24.7721  -20.9674  -11.2594 C   0  0  1  0  0  0  0  0  0  0  0  0
   25.2486  -20.3700   -9.9404 C   0  0  0  0  0  0  0  0  0  0  0  0
   25.0685  -19.9819  -12.3251 C   0  0  0  0  0  0  0  0  0  0  0  0
   24.4573  -20.2448  -13.6576 C   0  0  2  0  0  0  0  0  0  0  0  0
   24.8543  -19.1968  -14.5940 N   0  0  0  0  0  0  0  0  0  0  0  0
   22.9622  -20.2038  -13.5606 C   0  0  0  0  0  0  0  0  0  0  0  0
   22.3662  -19.1570  -13.2134 O   0  0  0  0  0  0  0  0  0  0  0  0
   19.7419  -22.1062  -17.3285 C   0  0  0  0  0  0  0  0  0  0  0  0
   20.3684  -21.1738  -16.2222 C   0  0  1  0  0  0  0  0  0  0  0  0
   19.5982  -19.8676  -16.3931 C   0  0  0  0  0  0  0  0  0  0  0  0
   20.0657  -21.7899  -14.9125 C   0  0  0  0  0  0  0  0  0  0  0  0
   20.6933  -21.2270  -13.7075 C   0  0  2  0  0  0  0  0  0  0  0  0
   22.1768  -21.3392  -13.8560 N   0  0  0  0  0  0  0  0  0  0  0  0
   20.3985  -21.7670  -12.3858 C   0  0  0  0  0  0  0  0  0  0  0  0
   19.2674  -21.5140  -11.8134 O   0  0  0  0  0  0  0  0  0  0  0  0
   21.2093  -22.5752  -11.6042 O   0  0  0  0  0  0  0  0  0  0  0  0
  2  1  1  6
  2  9  1  0
  2  3  1  0
  3  4  1  0
  4  8  1  0
  4  5  2  0
  5  6  1  0
  7  6  1  0
  8  7  2  0
  9 10  2  0
 12 14  1  0
 12 11  1  6
 13 12  1  0
 15 14  1  1
 15 16  1  0
 16  9  1  0
 17 15  1  0
 18 17  2  0
 20 22  1  0
 20 19  1  6
 21 20  1  0
 23 22  1  6
 23 25  1  0
 23 24  1  0
 24 17  1  0
 25 27  1  0
 26 25  2  0
M  END
$$$$
