HLL.pdb
     RDKit          3D

 27 27  0  0  1  0  0  0  0  0999 V2000
   27.7139  -20.8058  -16.8804 N   0  0  0  0  0  0  0  0  0  0  0  0
   27.1340  -20.0002  -15.8465 C   0  0  1  0  0  0  0  0  0  0  0  0
   26.3788  -18.7990  -16.4237 C   0  0  0  0  0  0  0  0  0  0  0  0
   27.3398  -17.9088  -17.0830 C   0  0  0  0  0  0  0  0  0  0  0  0
   27.5431  -17.7615  -18.4194 C   0  0  0  0  0  0  0  0  0  0  0  0
   28.5241  -16.8341  -18.5473 N   0  0  0  0  0  0  0  0  0  0  0  0
   28.9259  -16.4110  -17.3362 C   0  0  0  0  0  0  0  0  0  0  0  0
   28.1934  -17.0755  -16.4245 N   0  0  0  0  0  0  0  0  0  0  0  0
   26.1491  -20.8021  -15.1026 C   0  0  0  0  0  0  0  0  0  0  0  0
   25.4702  -21.6913  -15.7011 O   0  0  0  0  0  0  0  0  0  0  0  0
   24.6085  -20.1407   -9.7692 C   0  0  0  0  0  0  0  0  0  0  0  0
   25.6839  -20.4213  -10.7974 C   0  0  1  0  0  0  0  0  0  0  0  0
   26.9498  -20.7036   -9.9964 C   0  0  0  0  0  0  0  0  0  0  0  0
   25.4043  -21.6200  -11.6216 C   0  0  0  0  0  0  0  0  0  0  0  0
   24.9670  -21.3714  -13.0236 C   0  0  2  0  0  0  0  0  0  0  0  0
   25.9712  -20.5674  -13.7147 N   0  0  0  0  0  0  0  0  0  0  0  0
   23.6901  -20.5868  -13.0381 C   0  0  0  0  0  0  0  0  0  0  0  0
   23.6799  -19.3647  -12.7589 O   0  0  0  0  0  0  0  0  0  0  0  0
   21.1577  -19.9057  -17.0696 C   0  0  0  0  0  0  0  0  0  0  0  0
   20.8307  -20.7313  -15.7669 C   0  0  1  0  0  0  0  0  0  0  0  0
   21.9394  -21.7794  -15.7334 C   0  0  0  0  0  0  0  0  0  0  0  0
   20.9556  -19.8038  -14.6221 C   0  0  0  0  0  0  0  0  0  0  0  0
   21.2194  -20.3632  -13.2879 C   0  0  2  0  0  0  0  0  0  0  0  0
   22.4590  -21.1955  -13.3656 N   0  0  0  0  0  0  0  0  0  0  0  0
   20.2345  -21.2042  -12.6184 C   0  0  0  0  0  0  0  0  0  0  0  0
   19.0824  -20.7225  -12.2842 O   0  0  0  0  0  0  0  0  0  0  0  0
   20.3614  -22.5405  -12.2724 O   0  0  0  0  0  0  0  0  0  0  0  0
  2  1  1  6
  2  9  1  0
  2  3  1  0
  3  4  1  0
  4  8  1  0
  4  5  2  0
  5  6  1  0
  7  6  1  0
  8  7  2  0
  9 10  2  0
 12 14  1  0
 12 11  1  1
 13 12  1  0
 15 14  1  1
 15 16  1  0
 16  9  1  0
 17 15  1  0
 18 17  2  0
 20 22  1  0
 20 19  1  6
 21 20  1  0
 23 22  1  6
 23 25  1  0
 23 24  1  0
 24 17  1  0
 25 27  1  0
 26 25  2  0
M  END
$$$$
