HLL.pdb
     RDKit          3D

 27 27  0  0  1  0  0  0  0  0999 V2000
   27.3153  -19.4626  -16.9083 N   0  0  0  0  0  0  0  0  0  0  0  0
   26.5653  -18.6530  -15.9939 C   0  0  1  0  0  0  0  0  0  0  0  0
   25.6735  -17.6485  -16.7302 C   0  0  0  0  0  0  0  0  0  0  0  0
   26.5248  -16.6358  -17.3630 C   0  0  0  0  0  0  0  0  0  0  0  0
   27.0504  -15.5234  -16.7840 C   0  0  0  0  0  0  0  0  0  0  0  0
   27.7621  -14.8986  -17.7546 N   0  0  0  0  0  0  0  0  0  0  0  0
   27.6889  -15.5909  -18.9047 C   0  0  0  0  0  0  0  0  0  0  0  0
   26.9219  -16.6699  -18.6661 N   0  0  0  0  0  0  0  0  0  0  0  0
   25.6703  -19.5153  -15.2052 C   0  0  0  0  0  0  0  0  0  0  0  0
   25.1687  -20.5576  -15.7266 O   0  0  0  0  0  0  0  0  0  0  0  0
   26.4143  -21.8716  -11.1750 C   0  0  0  0  0  0  0  0  0  0  0  0
   25.1341  -21.1473  -10.8161 C   0  0  1  0  0  0  0  0  0  0  0  0
   25.3052  -20.7120   -9.3652 C   0  0  0  0  0  0  0  0  0  0  0  0
   24.9099  -19.9248  -11.6222 C   0  0  0  0  0  0  0  0  0  0  0  0
   24.6209  -20.1301  -13.0688 C   0  0  2  0  0  0  0  0  0  0  0  0
   25.3787  -19.1658  -13.8615 N   0  0  0  0  0  0  0  0  0  0  0  0
   23.1691  -19.8843  -13.3485 C   0  0  0  0  0  0  0  0  0  0  0  0
   22.6598  -18.7528  -13.1705 O   0  0  0  0  0  0  0  0  0  0  0  0
   18.8930  -19.4482  -16.2131 C   0  0  0  0  0  0  0  0  0  0  0  0
   19.0983  -20.9585  -15.8097 C   0  0  1  0  0  0  0  0  0  0  0  0
   18.8625  -21.7025  -17.1210 C   0  0  0  0  0  0  0  0  0  0  0  0
   20.5035  -21.1042  -15.3731 C   0  0  0  0  0  0  0  0  0  0  0  0
   20.8844  -20.5995  -14.0454 C   0  0  2  0  0  0  0  0  0  0  0  0
   22.3284  -20.9157  -13.8206 N   0  0  0  0  0  0  0  0  0  0  0  0
   20.1998  -21.0589  -12.8430 C   0  0  0  0  0  0  0  0  0  0  0  0
   20.5320  -22.1785  -12.2887 O   0  0  0  0  0  0  0  0  0  0  0  0
   19.1792  -20.4197  -12.1565 O   0  0  0  0  0  0  0  0  0  0  0  0
  2  1  1  6
  2  9  1  0
  2  3  1  0
  3  4  1  0
  4  8  1  0
  4  5  2  0
  5  6  1  0
  7  6  1  0
  8  7  2  0
  9 10  2  0
 12 14  1  0
 12 11  1  6
 13 12  1  0
 15 14  1  1
 15 16  1  0
 16  9  1  0
 17 15  1  0
 18 17  2  0
 20 22  1  0
 20 19  1  6
 21 20  1  0
 23 22  1  6
 23 25  1  0
 23 24  1  0
 24 17  1  0
 25 27  1  0
 26 25  2  0
M  END
$$$$
