HLL.pdb
     RDKit          3D

 27 27  0  0  1  0  0  0  0  0999 V2000
   26.1053  -20.4974  -13.5069 N   0  0  0  0  0  0  0  0  0  0  0  0
   25.9416  -20.1586  -12.1240 C   0  0  1  0  0  0  0  0  0  0  0  0
   24.5146  -20.4344  -11.6404 C   0  0  0  0  0  0  0  0  0  0  0  0
   23.5714  -19.7829  -12.5550 C   0  0  0  0  0  0  0  0  0  0  0  0
   23.8703  -19.0105  -13.6335 C   0  0  0  0  0  0  0  0  0  0  0  0
   22.6804  -18.6343  -14.1641 N   0  0  0  0  0  0  0  0  0  0  0  0
   21.6668  -19.1500  -13.4471 C   0  0  0  0  0  0  0  0  0  0  0  0
   22.2154  -19.8636  -12.4475 N   0  0  0  0  0  0  0  0  0  0  0  0
   26.8345  -20.9994  -11.3102 C   0  0  0  0  0  0  0  0  0  0  0  0
   27.0329  -22.2113  -11.6292 O   0  0  0  0  0  0  0  0  0  0  0  0
   30.9588  -18.8229   -7.9452 C   0  0  0  0  0  0  0  0  0  0  0  0
   29.6367  -19.5424   -8.1090 C   0  0  1  0  0  0  0  0  0  0  0  0
   28.6378  -18.4694   -8.5269 C   0  0  0  0  0  0  0  0  0  0  0  0
   29.6591  -20.5677   -9.1780 C   0  0  0  0  0  0  0  0  0  0  0  0
   28.3828  -21.2951   -9.4236 C   0  0  2  0  0  0  0  0  0  0  0  0
   27.4664  -20.4380  -10.1707 N   0  0  0  0  0  0  0  0  0  0  0  0
   27.7142  -21.6249   -8.1234 C   0  0  0  0  0  0  0  0  0  0  0  0
   28.2423  -22.4181   -7.3088 O   0  0  0  0  0  0  0  0  0  0  0  0
   28.8377  -20.8228   -4.8438 C   0  0  0  0  0  0  0  0  0  0  0  0
   27.3587  -20.5887   -4.3502 C   0  0  1  0  0  0  0  0  0  0  0  0
   27.4985  -19.4204   -3.3785 C   0  0  0  0  0  0  0  0  0  0  0  0
   26.5642  -20.1913   -5.5322 C   0  0  0  0  0  0  0  0  0  0  0  0
   25.9786  -21.2455   -6.3740 C   0  0  2  0  0  0  0  0  0  0  0  0
   26.4708  -21.0553   -7.7730 N   0  0  0  0  0  0  0  0  0  0  0  0
   24.5333  -21.3945   -6.4933 C   0  0  0  0  0  0  0  0  0  0  0  0
   23.8329  -21.8045   -5.4870 O   0  0  0  0  0  0  0  0  0  0  0  0
   23.7467  -21.1338   -7.6045 O   0  0  0  0  0  0  0  0  0  0  0  0
  2  1  1  6
  2  9  1  0
  2  3  1  0
  3  4  1  0
  4  8  1  0
  4  5  2  0
  5  6  1  0
  7  6  1  0
  8  7  2  0
  9 10  2  0
 12 14  1  0
 12 11  1  6
 13 12  1  0
 15 14  1  1
 15 16  1  0
 16  9  1  0
 17 15  1  0
 18 17  2  0
 20 22  1  0
 20 19  1  6
 21 20  1  0
 23 22  1  1
 23 25  1  0
 23 24  1  0
 24 17  1  0
 25 27  1  0
 26 25  2  0
M  END
$$$$
