HLL.pdb
     RDKit          3D

 27 27  0  0  1  0  0  0  0  0999 V2000
   18.1033  -12.2767  -17.5881 N   0  0  0  0  0  0  0  0  0  0  0  0
   18.9046  -11.1971  -18.0847 C   0  0  1  0  0  0  0  0  0  0  0  0
   18.0401  -10.0674  -18.6526 C   0  0  0  0  0  0  0  0  0  0  0  0
   17.4032  -10.5350  -19.8881 C   0  0  0  0  0  0  0  0  0  0  0  0
   16.0997  -10.8802  -20.0630 C   0  0  0  0  0  0  0  0  0  0  0  0
   15.9818  -11.2454  -21.3636 N   0  0  0  0  0  0  0  0  0  0  0  0
   17.1674  -11.1349  -21.9877 C   0  0  0  0  0  0  0  0  0  0  0  0
   18.0525  -10.6943  -21.0755 N   0  0  0  0  0  0  0  0  0  0  0  0
   19.6808  -10.6198  -16.9754 C   0  0  0  0  0  0  0  0  0  0  0  0
   19.2284  -10.6655  -15.7909 O   0  0  0  0  0  0  0  0  0  0  0  0
   23.6850  -10.2614  -13.7515 C   0  0  0  0  0  0  0  0  0  0  0  0
   24.0660   -9.8226  -15.1496 C   0  0  1  0  0  0  0  0  0  0  0  0
   25.3769  -10.5369  -15.4579 C   0  0  0  0  0  0  0  0  0  0  0  0
   23.0836  -10.2354  -16.1786 C   0  0  0  0  0  0  0  0  0  0  0  0
   21.7397   -9.5975  -16.1038 C   0  0  2  0  0  0  0  0  0  0  0  0
   20.9348  -10.0151  -17.2486 N   0  0  0  0  0  0  0  0  0  0  0  0
   21.8679   -8.1060  -16.1777 C   0  0  0  0  0  0  0  0  0  0  0  0
   22.2563   -7.5425  -17.2280 O   0  0  0  0  0  0  0  0  0  0  0  0
   20.7643   -3.4459  -17.0994 C   0  0  0  0  0  0  0  0  0  0  0  0
   20.1704   -3.8098  -15.6850 C   0  0  1  0  0  0  0  0  0  0  0  0
   18.6963   -3.4401  -15.8226 C   0  0  0  0  0  0  0  0  0  0  0  0
   20.3274   -5.2697  -15.5105 C   0  0  0  0  0  0  0  0  0  0  0  0
   21.6690   -5.8059  -15.2361 C   0  0  2  0  0  0  0  0  0  0  0  0
   21.5564   -7.2875  -15.0702 N   0  0  0  0  0  0  0  0  0  0  0  0
   22.4391   -5.3489  -14.0856 C   0  0  0  0  0  0  0  0  0  0  0  0
   22.3416   -5.9583  -12.9497 O   0  0  0  0  0  0  0  0  0  0  0  0
   23.3284   -4.2869  -14.0332 O   0  0  0  0  0  0  0  0  0  0  0  0
  2  1  1  1
  2  9  1  0
  2  3  1  0
  3  4  1  0
  4  8  1  0
  4  5  2  0
  5  6  1  0
  7  6  1  0
  8  7  2  0
  9 10  2  0
 12 14  1  0
 12 11  1  1
 13 12  1  0
 15 14  1  6
 15 16  1  0
 16  9  1  0
 17 15  1  0
 18 17  2  0
 20 22  1  0
 20 19  1  6
 21 20  1  0
 23 22  1  1
 23 25  1  0
 23 24  1  0
 24 17  1  0
 25 27  1  0
 26 25  2  0
M  END
$$$$
