HLL.pdb
     RDKit          3D

 27 27  0  0  1  0  0  0  0  0999 V2000
   25.4802  -30.3737  -21.1887 N   0  0  0  0  0  0  0  0  0  0  0  0
   25.6790  -31.7924  -21.1460 C   0  0  1  0  0  0  0  0  0  0  0  0
   26.7839  -32.2367  -22.1094 C   0  0  0  0  0  0  0  0  0  0  0  0
   26.2662  -32.1813  -23.4803 C   0  0  0  0  0  0  0  0  0  0  0  0
   26.9381  -31.8009  -24.5996 C   0  0  0  0  0  0  0  0  0  0  0  0
   26.0537  -31.9122  -25.6215 N   0  0  0  0  0  0  0  0  0  0  0  0
   24.8665  -32.3471  -25.1647 C   0  0  0  0  0  0  0  0  0  0  0  0
   24.9939  -32.5153  -23.8362 N   0  0  0  0  0  0  0  0  0  0  0  0
   26.1143  -32.1801  -19.7945 C   0  0  0  0  0  0  0  0  0  0  0  0
   26.2244  -33.4066  -19.4888 O   0  0  0  0  0  0  0  0  0  0  0  0
   30.1507  -29.8171  -17.1100 C   0  0  0  0  0  0  0  0  0  0  0  0
   29.1672  -30.8761  -17.5613 C   0  0  1  0  0  0  0  0  0  0  0  0
   29.7455  -32.2015  -17.0789 C   0  0  0  0  0  0  0  0  0  0  0  0
   27.8273  -30.7274  -16.9470 C   0  0  0  0  0  0  0  0  0  0  0  0
   26.7495  -31.5992  -17.4917 C   0  0  2  0  0  0  0  0  0  0  0  0
   26.4072  -31.1681  -18.8443 N   0  0  0  0  0  0  0  0  0  0  0  0
   25.5079  -31.4701  -16.6621 C   0  0  0  0  0  0  0  0  0  0  0  0
   25.4800  -31.8716  -15.4749 O   0  0  0  0  0  0  0  0  0  0  0  0
   20.9203  -27.7457  -15.8507 C   0  0  0  0  0  0  0  0  0  0  0  0
   21.2300  -29.2862  -15.7212 C   0  0  1  0  0  0  0  0  0  0  0  0
   20.1245  -29.9328  -16.5508 C   0  0  0  0  0  0  0  0  0  0  0  0
   22.5514  -29.5173  -16.3432 C   0  0  0  0  0  0  0  0  0  0  0  0
   23.1093  -30.8779  -16.3266 C   0  0  2  0  0  0  0  0  0  0  0  0
   24.3313  -30.8937  -17.1880 N   0  0  0  0  0  0  0  0  0  0  0  0
   22.3162  -32.0197  -16.7656 C   0  0  0  0  0  0  0  0  0  0  0  0
   21.6167  -32.6960  -15.9145 O   0  0  0  0  0  0  0  0  0  0  0  0
   22.1891  -32.5136  -18.0546 O   0  0  0  0  0  0  0  0  0  0  0  0
  2  1  1  1
  2  9  1  0
  2  3  1  0
  3  4  1  0
  4  8  1  0
  4  5  2  0
  5  6  1  0
  7  6  1  0
  8  7  2  0
  9 10  2  0
 12 14  1  0
 12 11  1  1
 13 12  1  0
 15 14  1  1
 15 16  1  0
 16  9  1  0
 17 15  1  0
 18 17  2  0
 20 22  1  0
 20 19  1  6
 21 20  1  0
 23 22  1  6
 23 25  1  0
 23 24  1  0
 24 17  1  0
 25 27  1  0
 26 25  2  0
M  END
$$$$
