HLL.pdb
     RDKit          3D

 27 27  0  0  1  0  0  0  0  0999 V2000
   23.9994  -23.0760  -17.7579 N   0  0  0  0  0  0  0  0  0  0  0  0
   23.5932  -21.7015  -17.7618 C   0  0  1  0  0  0  0  0  0  0  0  0
   22.1080  -21.5529  -18.1054 C   0  0  0  0  0  0  0  0  0  0  0  0
   21.9766  -21.3313  -19.5491 C   0  0  0  0  0  0  0  0  0  0  0  0
   21.7982  -20.1438  -20.1871 C   0  0  0  0  0  0  0  0  0  0  0  0
   21.7327  -20.4370  -21.5094 N   0  0  0  0  0  0  0  0  0  0  0  0
   21.8649  -21.7612  -21.7000 C   0  0  0  0  0  0  0  0  0  0  0  0
   22.0165  -22.3201  -20.4858 N   0  0  0  0  0  0  0  0  0  0  0  0
   23.7745  -21.1390  -16.4137 C   0  0  0  0  0  0  0  0  0  0  0  0
   23.8201  -21.9069  -15.4048 O   0  0  0  0  0  0  0  0  0  0  0  0
   26.9121  -16.7420  -16.0248 C   0  0  0  0  0  0  0  0  0  0  0  0
   26.2032  -18.0710  -15.8712 C   0  0  1  0  0  0  0  0  0  0  0  0
   27.2037  -18.9890  -15.1784 C   0  0  0  0  0  0  0  0  0  0  0  0
   25.0010  -17.9945  -15.0090 C   0  0  0  0  0  0  0  0  0  0  0  0
   24.1726  -19.2290  -14.9180 C   0  0  2  0  0  0  0  0  0  0  0  0
   23.8967  -19.7339  -16.2602 N   0  0  0  0  0  0  0  0  0  0  0  0
   22.8498  -18.9215  -14.2839 C   0  0  0  0  0  0  0  0  0  0  0  0
   22.7803  -18.5127  -13.1009 O   0  0  0  0  0  0  0  0  0  0  0  0
   19.0640  -15.2970  -15.4590 C   0  0  0  0  0  0  0  0  0  0  0  0
   19.9878  -16.2383  -14.5952 C   0  0  1  0  0  0  0  0  0  0  0  0
   19.4725  -16.0215  -13.1753 C   0  0  0  0  0  0  0  0  0  0  0  0
   19.7291  -17.6254  -15.0374 C   0  0  0  0  0  0  0  0  0  0  0  0
   20.3640  -18.7292  -14.3016 C   0  0  2  0  0  0  0  0  0  0  0  0
   21.6408  -19.0814  -14.9953 N   0  0  0  0  0  0  0  0  0  0  0  0
   19.6716  -19.9972  -14.1061 C   0  0  0  0  0  0  0  0  0  0  0  0
   19.9600  -21.0199  -14.8423 O   0  0  0  0  0  0  0  0  0  0  0  0
   18.6865  -20.2862  -13.1747 O   0  0  0  0  0  0  0  0  0  0  0  0
  2  1  1  1
  2  9  1  0
  2  3  1  0
  3  4  1  0
  4  8  1  0
  4  5  2  0
  5  6  1  0
  7  6  1  0
  8  7  2  0
  9 10  2  0
 12 14  1  0
 12 11  1  1
 13 12  1  0
 15 14  1  6
 15 16  1  0
 16  9  1  0
 17 15  1  0
 18 17  2  0
 20 22  1  0
 20 19  1  6
 21 20  1  0
 23 22  1  6
 23 25  1  0
 23 24  1  0
 24 17  1  0
 25 27  1  0
 26 25  2  0
M  END
$$$$
