HLL.pdb
     RDKit          3D

 27 27  0  0  1  0  0  0  0  0999 V2000
   22.5677  -20.0687  -15.8073 N   0  0  0  0  0  0  0  0  0  0  0  0
   23.0754  -19.8061  -14.4929 C   0  0  1  0  0  0  0  0  0  0  0  0
   21.9837  -19.9465  -13.4277 C   0  0  0  0  0  0  0  0  0  0  0  0
   20.9513  -18.9342  -13.6727 C   0  0  0  0  0  0  0  0  0  0  0  0
   19.8292  -19.0686  -14.4288 C   0  0  0  0  0  0  0  0  0  0  0  0
   19.1868  -17.8764  -14.3581 N   0  0  0  0  0  0  0  0  0  0  0  0
   19.8777  -17.0201  -13.5857 C   0  0  0  0  0  0  0  0  0  0  0  0
   20.9737  -17.6726  -13.1581 N   0  0  0  0  0  0  0  0  0  0  0  0
   24.1142  -20.7970  -14.1681 C   0  0  0  0  0  0  0  0  0  0  0  0
   23.9421  -22.0190  -14.4628 O   0  0  0  0  0  0  0  0  0  0  0  0
   27.8345  -18.5527  -13.9023 C   0  0  0  0  0  0  0  0  0  0  0  0
   27.5232  -19.7267  -14.8064 C   0  0  1  0  0  0  0  0  0  0  0  0
   28.6390  -19.7485  -15.8447 C   0  0  0  0  0  0  0  0  0  0  0  0
   27.5487  -21.0291  -14.1008 C   0  0  0  0  0  0  0  0  0  0  0  0
   26.3411  -21.3706  -13.2987 C   0  0  2  0  0  0  0  0  0  0  0  0
   25.3035  -20.3680  -13.5244 N   0  0  0  0  0  0  0  0  0  0  0  0
   26.6651  -21.3457  -11.8356 C   0  0  0  0  0  0  0  0  0  0  0  0
   27.4836  -22.1566  -11.3416 O   0  0  0  0  0  0  0  0  0  0  0  0
   28.3626  -20.9315   -7.0792 C   0  0  0  0  0  0  0  0  0  0  0  0
   27.2408  -19.8718   -7.4021 C   0  0  1  0  0  0  0  0  0  0  0  0
   27.8400  -18.5656   -6.8888 C   0  0  0  0  0  0  0  0  0  0  0  0
   27.0898  -19.8336   -8.8726 C   0  0  0  0  0  0  0  0  0  0  0  0
   26.0799  -20.6994   -9.4996 C   0  0  2  0  0  0  0  0  0  0  0  0
   26.0613  -20.4110  -10.9666 N   0  0  0  0  0  0  0  0  0  0  0  0
   24.6842  -20.6493   -9.0814 C   0  0  0  0  0  0  0  0  0  0  0  0
   23.8038  -20.0478   -9.8123 O   0  0  0  0  0  0  0  0  0  0  0  0
   24.1254  -21.1991   -7.9382 O   0  0  0  0  0  0  0  0  0  0  0  0
  2  1  1  6
  2  9  1  0
  2  3  1  0
  3  4  1  0
  4  8  1  0
  4  5  2  0
  5  6  1  0
  7  6  1  0
  8  7  2  0
  9 10  2  0
 12 14  1  0
 12 11  1  1
 13 12  1  0
 15 14  1  6
 15 16  1  0
 16  9  1  0
 17 15  1  0
 18 17  2  0
 20 22  1  0
 20 19  1  6
 21 20  1  0
 23 22  1  1
 23 25  1  0
 23 24  1  0
 24 17  1  0
 25 27  1  0
 26 25  2  0
M  END
$$$$
