HLL.pdb
     RDKit          3D

 27 27  0  0  1  0  0  0  0  0999 V2000
   12.3995  -14.5999    4.9656 N   0  0  0  0  0  0  0  0  0  0  0  0
   13.4207  -13.8760    5.6638 C   0  0  1  0  0  0  0  0  0  0  0  0
   13.0678  -13.6870    7.1423 C   0  0  0  0  0  0  0  0  0  0  0  0
   12.2874  -12.4540    7.2882 C   0  0  0  0  0  0  0  0  0  0  0  0
   11.9621  -11.5650    6.3120 C   0  0  0  0  0  0  0  0  0  0  0  0
   11.2384  -10.5923    6.9195 N   0  0  0  0  0  0  0  0  0  0  0  0
   11.1112  -10.8570    8.2314 C   0  0  0  0  0  0  0  0  0  0  0  0
   11.7608  -12.0116    8.4645 N   0  0  0  0  0  0  0  0  0  0  0  0
   14.6745  -14.6458    5.6226 C   0  0  0  0  0  0  0  0  0  0  0  0
   14.6520  -15.8843    5.3479 O   0  0  0  0  0  0  0  0  0  0  0  0
   19.3958  -12.3917    3.8711 C   0  0  0  0  0  0  0  0  0  0  0  0
   18.2432  -13.3379    4.1326 C   0  0  1  0  0  0  0  0  0  0  0  0
   18.4103  -14.4715    3.1272 C   0  0  0  0  0  0  0  0  0  0  0  0
   18.2767  -13.9379    5.4867 C   0  0  0  0  0  0  0  0  0  0  0  0
   17.1170  -14.7949    5.8594 C   0  0  2  0  0  0  0  0  0  0  0  0
   15.9013  -13.9864    5.8931 N   0  0  0  0  0  0  0  0  0  0  0  0
   17.3081  -15.3582    7.2350 C   0  0  0  0  0  0  0  0  0  0  0  0
   17.1357  -14.6478    8.2534 O   0  0  0  0  0  0  0  0  0  0  0  0
   14.5610  -18.7207   10.0024 C   0  0  0  0  0  0  0  0  0  0  0  0
   15.5236  -17.5150    9.6777 C   0  0  1  0  0  0  0  0  0  0  0  0
   15.7358  -16.8640   11.0415 C   0  0  0  0  0  0  0  0  0  0  0  0
   16.7880  -18.0924    9.1734 C   0  0  0  0  0  0  0  0  0  0  0  0
   17.8913  -17.1819    8.8321 C   0  0  2  0  0  0  0  0  0  0  0  0
   17.6877  -16.7040    7.4301 N   0  0  0  0  0  0  0  0  0  0  0  0
   19.2778  -17.6291    8.8870 C   0  0  0  0  0  0  0  0  0  0  0  0
   19.8764  -18.0365    7.8161 O   0  0  0  0  0  0  0  0  0  0  0  0
   20.1063  -17.6757    9.9974 O   0  0  0  0  0  0  0  0  0  0  0  0
  2  1  1  6
  2  9  1  0
  2  3  1  0
  3  4  1  0
  4  8  1  0
  4  5  2  0
  5  6  1  0
  7  6  1  0
  8  7  2  0
  9 10  2  0
 12 14  1  0
 12 11  1  1
 13 12  1  0
 15 14  1  1
 15 16  1  0
 16  9  1  0
 17 15  1  0
 18 17  2  0
 20 22  1  0
 20 19  1  1
 21 20  1  0
 23 22  1  6
 23 25  1  0
 23 24  1  0
 24 17  1  0
 25 27  1  0
 26 25  2  0
M  END
$$$$
