QRI.pdb
     RDKit          3D

 29 28  0  0  1  0  0  0  0  0999 V2000
   19.2302  -25.7421   -7.9825 N   0  0  0  0  0  0  0  0  0  0  0  0
   18.5295  -24.8071   -7.1789 C   0  0  0  0  0  0  0  0  0  0  0  0
   18.0616  -25.1197   -6.0603 O   0  0  0  0  0  0  0  0  0  0  0  0
   18.3117  -23.3861   -7.6318 C   0  0  0  0  0  0  0  0  0  0  0  0
   18.9590  -23.1333   -8.9464 C   0  0  0  0  0  0  0  0  0  0  0  0
   18.0597  -22.7103  -10.0589 C   0  0  2  0  0  0  0  0  0  0  0  0
   17.2931  -23.9093  -10.4411 N   0  0  0  0  0  0  0  0  0  0  0  0
   18.7771  -22.2283  -11.2739 C   0  0  0  0  0  0  0  0  0  0  0  0
   19.5669  -23.0127  -11.8609 O   0  0  0  0  0  0  0  0  0  0  0  0
   17.3974  -15.2487  -16.9048 N   0  0  0  0  0  0  0  0  0  0  0  0
   18.5717  -15.9505  -17.2795 C   0  0  0  0  0  0  0  0  0  0  0  0
   19.1562  -15.6012  -18.3661 N   0  0  0  0  0  0  0  0  0  0  0  0
   19.1310  -17.0118  -16.5213 N   0  0  0  0  0  0  0  0  0  0  0  0
   18.5036  -17.5028  -15.3137 C   0  0  0  0  0  0  0  0  0  0  0  0
   19.3150  -18.6403  -14.7311 C   0  0  0  0  0  0  0  0  0  0  0  0
   18.5664  -19.2421  -13.5645 C   0  0  0  0  0  0  0  0  0  0  0  0
   19.3150  -20.3252  -12.8783 C   0  0  2  0  0  0  0  0  0  0  0  0
   18.5898  -20.9158  -11.7811 N   0  0  0  0  0  0  0  0  0  0  0  0
   20.7347  -20.0098  -12.5668 C   0  0  0  0  0  0  0  0  0  0  0  0
   21.1088  -19.1616  -11.7287 O   0  0  0  0  0  0  0  0  0  0  0  0
   20.0012  -16.0700  -18.7601 C   0  0  0  0  0  0  0  0  0  0  0  0
   26.0336  -22.5546  -11.6461 C   0  0  0  0  0  0  0  0  0  0  0  0
   25.3216  -21.3371  -12.2398 C   0  0  2  0  0  0  0  0  0  0  0  0
   23.8626  -21.6011  -12.4281 C   0  0  0  0  0  0  0  0  0  0  0  0
   23.6973  -22.8071  -13.3387 C   0  0  2  0  0  0  0  0  0  0  0  0
   23.1850  -20.3900  -13.0139 N   0  0  0  0  0  0  0  0  0  0  0  0
   21.7535  -20.7100  -13.2580 C   0  0  0  0  0  0  0  0  0  0  0  0
   23.7634  -20.0892  -14.3310 O   0  0  0  0  0  0  0  0  0  0  0  0
   23.1667  -20.4941  -15.3676 O   0  0  0  0  0  0  0  0  0  0  0  0
  2  1  1  0
  2  3  2  0
  4  2  1  0
  5  6  1  0
  5  4  1  0
  6  7  1  6
  8  9  2  0
  8  6  1  0
 10 11  1  0
 11 12  2  0
 13 11  1  0
 13 14  1  0
 15 14  1  0
 16 15  1  0
 17 16  1  1
 17 18  1  0
 18  8  1  0
 19 26  1  0
 19 17  1  0
 20 19  2  0
 22 21  1  0
 23 22  1  0
 23 25  1  0
 23 24  1  1
 25 26  1  6
 25 27  1  0
 27 29  1  0
 28 27  2  0
M  END
$$$$
