QRI.pdb
     RDKit          3D

 29 28  0  0  1  0  0  0  0  0999 V2000
   25.2588  -16.7038  -18.3527 N   0  0  0  0  0  0  0  0  0  0  0  0
   24.7463  -16.0214  -17.2202 C   0  0  0  0  0  0  0  0  0  0  0  0
   23.6339  -15.4470  -17.2444 O   0  0  0  0  0  0  0  0  0  0  0  0
   25.5167  -15.9528  -15.9264 C   0  0  0  0  0  0  0  0  0  0  0  0
   26.8104  -16.6784  -16.0294 C   0  0  0  0  0  0  0  0  0  0  0  0
   27.2810  -17.3749  -14.7970 C   0  0  2  0  0  0  0  0  0  0  0  0
   28.6009  -17.9405  -15.1277 N   0  0  0  0  0  0  0  0  0  0  0  0
   26.4057  -18.5001  -14.3599 C   0  0  0  0  0  0  0  0  0  0  0  0
   25.2341  -18.2423  -13.9796 O   0  0  0  0  0  0  0  0  0  0  0  0
   25.2963  -26.0345  -18.0668 N   0  0  0  0  0  0  0  0  0  0  0  0
   25.1262  -25.8730  -16.6679 C   0  0  0  0  0  0  0  0  0  0  0  0
   25.0037  -26.9312  -15.9541 N   0  0  0  0  0  0  0  0  0  0  0  0
   25.0845  -24.6111  -16.0198 N   0  0  0  0  0  0  0  0  0  0  0  0
   25.3164  -23.3754  -16.7356 C   0  0  0  0  0  0  0  0  0  0  0  0
   25.1007  -22.1927  -15.8156 C   0  0  0  0  0  0  0  0  0  0  0  0
   26.1954  -22.1632  -14.7742 C   0  0  0  0  0  0  0  0  0  0  0  0
   26.1230  -20.9840  -13.8751 C   0  0  2  0  0  0  0  0  0  0  0  0
   26.8591  -19.8451  -14.3645 N   0  0  0  0  0  0  0  0  0  0  0  0
   26.3461  -21.2763  -12.4339 C   0  0  0  0  0  0  0  0  0  0  0  0
   27.2244  -22.0471  -11.9909 O   0  0  0  0  0  0  0  0  0  0  0  0
   24.8345  -26.9335  -14.9243 C   0  0  0  0  0  0  0  0  0  0  0  0
   28.3384  -19.0487   -8.5771 C   0  0  0  0  0  0  0  0  0  0  0  0
   27.6357  -20.1051   -9.4327 C   0  0  2  0  0  0  0  0  0  0  0  0
   26.1608  -20.1044   -9.1914 C   0  0  0  0  0  0  0  0  0  0  0  0
   25.9054  -20.4008   -7.7224 C   0  0  2  0  0  0  0  0  0  0  0  0
   25.4883  -21.1270  -10.0695 N   0  0  0  0  0  0  0  0  0  0  0  0
   25.5147  -20.6458  -11.4762 C   0  0  0  0  0  0  0  0  0  0  0  0
   24.0688  -21.2345   -9.7045 O   0  0  0  0  0  0  0  0  0  0  0  0
   23.2367  -20.4568  -10.2499 O   0  0  0  0  0  0  0  0  0  0  0  0
  2  1  1  0
  2  3  2  0
  4  2  1  0
  5  6  1  0
  5  4  1  0
  6  7  1  6
  8  9  2  0
  8  6  1  0
 10 11  1  0
 11 12  2  0
 13 11  1  0
 13 14  1  0
 15 14  1  0
 16 15  1  0
 17 16  1  6
 17 18  1  0
 18  8  1  0
 19 26  1  0
 19 17  1  0
 20 19  2  0
 22 21  1  0
 23 22  1  0
 23 25  1  0
 23 24  1  6
 25 26  1  1
 25 27  1  0
 27 29  1  0
 28 27  2  0
M  END
$$$$
