QRI.pdb
     RDKit          3D

 29 28  0  0  1  0  0  0  0  0999 V2000
   27.3912  -21.9927  -15.5764 N   0  0  0  0  0  0  0  0  0  0  0  0
   28.0752  -21.3215  -16.6217 C   0  0  0  0  0  0  0  0  0  0  0  0
   29.2837  -21.5408  -16.8658 O   0  0  0  0  0  0  0  0  0  0  0  0
   27.3805  -20.3075  -17.4941 C   0  0  0  0  0  0  0  0  0  0  0  0
   25.9716  -20.1019  -17.0656 C   0  0  0  0  0  0  0  0  0  0  0  0
   25.0983  -21.3113  -17.0528 C   0  0  2  0  0  0  0  0  0  0  0  0
   25.1303  -21.8512  -18.4235 N   0  0  0  0  0  0  0  0  0  0  0  0
   23.6737  -21.0319  -16.7122 C   0  0  0  0  0  0  0  0  0  0  0  0
   22.8893  -20.6823  -17.6320 O   0  0  0  0  0  0  0  0  0  0  0  0
   16.7065  -21.7083  -12.0546 N   0  0  0  0  0  0  0  0  0  0  0  0
   17.3190  -22.8919  -12.5404 C   0  0  0  0  0  0  0  0  0  0  0  0
   16.5571  -23.8105  -13.0092 N   0  0  0  0  0  0  0  0  0  0  0  0
   18.7209  -23.1126  -12.5353 N   0  0  0  0  0  0  0  0  0  0  0  0
   19.6543  -22.0935  -12.1075 C   0  0  0  0  0  0  0  0  0  0  0  0
   20.0300  -21.2080  -13.2765 C   0  0  0  0  0  0  0  0  0  0  0  0
   21.4436  -21.5230  -13.7082 C   0  0  0  0  0  0  0  0  0  0  0  0
   21.8573  -20.8075  -14.9415 C   0  0  2  0  0  0  0  0  0  0  0  0
   23.1852  -21.1521  -15.3848 N   0  0  0  0  0  0  0  0  0  0  0  0
   21.5764  -19.3469  -14.9464 C   0  0  0  0  0  0  0  0  0  0  0  0
   22.1101  -18.5161  -14.1804 O   0  0  0  0  0  0  0  0  0  0  0  0
   16.8950  -24.7201  -13.3934 C   0  0  0  0  0  0  0  0  0  0  0  0
   22.3221  -16.4939  -19.0725 C   0  0  0  0  0  0  0  0  0  0  0  0
   22.0504  -16.8858  -17.6184 C   0  0  2  0  0  0  0  0  0  0  0  0
   20.5862  -16.8748  -17.3189 C   0  0  0  0  0  0  0  0  0  0  0  0
   20.0648  -15.4559  -17.4792 C   0  0  2  0  0  0  0  0  0  0  0  0
   20.3357  -17.3836  -15.9233 N   0  0  0  0  0  0  0  0  0  0  0  0
   20.6398  -18.8384  -15.8793 C   0  0  0  0  0  0  0  0  0  0  0  0
   18.9074  -17.2580  -15.6008 O   0  0  0  0  0  0  0  0  0  0  0  0
   18.5225  -16.2800  -14.9009 O   0  0  0  0  0  0  0  0  0  0  0  0
  2  1  1  0
  2  3  2  0
  4  2  1  0
  5  6  1  0
  5  4  1  0
  6  7  1  6
  8  9  2  0
  8  6  1  0
 10 11  1  0
 11 12  2  0
 13 11  1  0
 13 14  1  0
 15 14  1  0
 16 15  1  0
 17 16  1  1
 17 18  1  0
 18  8  1  0
 19 26  1  0
 19 17  1  0
 20 19  2  0
 22 21  1  0
 23 22  1  0
 23 25  1  0
 23 24  1  6
 25 26  1  1
 25 27  1  0
 27 29  1  0
 28 27  2  0
M  END
$$$$
