QRI.pdb
     RDKit          3D

 29 28  0  0  1  0  0  0  0  0999 V2000
   29.6563  -22.7671  -17.9006 N   0  0  0  0  0  0  0  0  0  0  0  0
   28.8670  -23.0017  -16.7461 C   0  0  0  0  0  0  0  0  0  0  0  0
   28.6357  -24.1599  -16.3301 O   0  0  0  0  0  0  0  0  0  0  0  0
   28.2650  -21.8659  -15.9592 C   0  0  0  0  0  0  0  0  0  0  0  0
   28.6038  -20.5506  -16.5644 C   0  0  0  0  0  0  0  0  0  0  0  0
   27.4656  -19.7624  -17.1199 C   0  0  2  0  0  0  0  0  0  0  0  0
   28.0693  -18.6260  -17.8380 N   0  0  0  0  0  0  0  0  0  0  0  0
   26.5472  -19.2049  -16.0860 C   0  0  0  0  0  0  0  0  0  0  0  0
   26.9987  -18.3634  -15.2665 O   0  0  0  0  0  0  0  0  0  0  0  0
   22.0873  -17.1245  -19.4802 N   0  0  0  0  0  0  0  0  0  0  0  0
   21.2785  -18.0524  -18.7754 C   0  0  0  0  0  0  0  0  0  0  0  0
   20.7006  -18.9763  -19.4511 N   0  0  0  0  0  0  0  0  0  0  0  0
   21.0757  -18.0134  -17.3713 N   0  0  0  0  0  0  0  0  0  0  0  0
   21.6645  -16.9849  -16.5415 C   0  0  0  0  0  0  0  0  0  0  0  0
   23.0464  -17.4076  -16.0906 C   0  0  0  0  0  0  0  0  0  0  0  0
   22.9622  -18.7605  -15.4227 C   0  0  0  0  0  0  0  0  0  0  0  0
   24.2734  -19.2633  -14.9407 C   0  0  2  0  0  0  0  0  0  0  0  0
   25.1852  -19.5969  -16.0065 N   0  0  0  0  0  0  0  0  0  0  0  0
   24.1982  -20.2872  -13.8644 C   0  0  0  0  0  0  0  0  0  0  0  0
   24.0374  -21.5116  -14.0559 O   0  0  0  0  0  0  0  0  0  0  0  0
   20.1186  -19.7366  -19.0360 C   0  0  0  0  0  0  0  0  0  0  0  0
   27.4336  -20.2465   -9.5679 C   0  0  0  0  0  0  0  0  0  0  0  0
   26.4702  -20.7250  -10.6563 C   0  0  2  0  0  0  0  0  0  0  0  0
   25.0488  -20.4663  -10.2736 C   0  0  0  0  0  0  0  0  0  0  0  0
   24.7237  -21.2721   -9.0263 C   0  0  2  0  0  0  0  0  0  0  0  0
   24.1281  -20.8372  -11.4067 N   0  0  0  0  0  0  0  0  0  0  0  0
   24.3157  -19.8663  -12.5172 C   0  0  0  0  0  0  0  0  0  0  0  0
   22.7307  -20.6938  -10.9747 O   0  0  0  0  0  0  0  0  0  0  0  0
   22.1841  -19.5573  -11.0403 O   0  0  0  0  0  0  0  0  0  0  0  0
  2  1  1  0
  2  3  2  0
  4  2  1  0
  5  6  1  0
  5  4  1  0
  6  7  1  1
  8  9  2  0
  8  6  1  0
 10 11  1  0
 11 12  2  0
 13 11  1  0
 13 14  1  0
 15 14  1  0
 16 15  1  0
 17 16  1  6
 17 18  1  0
 18  8  1  0
 19 26  1  0
 19 17  1  0
 20 19  2  0
 22 21  1  0
 23 22  1  0
 23 25  1  0
 23 24  1  6
 25 26  1  6
 25 27  1  0
 27 29  1  0
 28 27  2  0
M  END
$$$$
