QRI.pdb
     RDKit          3D

 29 28  0  0  1  0  0  0  0  0999 V2000
   28.1170  -16.7831  -18.6463 N   0  0  0  0  0  0  0  0  0  0  0  0
   29.2484  -17.6368  -18.6928 C   0  0  0  0  0  0  0  0  0  0  0  0
   30.0426  -17.6263  -19.6609 O   0  0  0  0  0  0  0  0  0  0  0  0
   29.5532  -18.6025  -17.5764 C   0  0  0  0  0  0  0  0  0  0  0  0
   28.6121  -18.4266  -16.4386 C   0  0  0  0  0  0  0  0  0  0  0  0
   28.5024  -19.5687  -15.4852 C   0  0  2  0  0  0  0  0  0  0  0  0
   28.1515  -20.7461  -16.2988 N   0  0  0  0  0  0  0  0  0  0  0  0
   27.4395  -19.4019  -14.4528 C   0  0  0  0  0  0  0  0  0  0  0  0
   27.5568  -18.4763  -13.6082 O   0  0  0  0  0  0  0  0  0  0  0  0
   20.8611  -23.1032  -13.9776 N   0  0  0  0  0  0  0  0  0  0  0  0
   20.1502  -22.1604  -13.1916 C   0  0  0  0  0  0  0  0  0  0  0  0
   19.2354  -22.6025  -12.4094 N   0  0  0  0  0  0  0  0  0  0  0  0
   20.3953  -20.7630  -13.2244 N   0  0  0  0  0  0  0  0  0  0  0  0
   21.4043  -20.1831  -14.0840 C   0  0  0  0  0  0  0  0  0  0  0  0
   22.6845  -19.9606  -13.3072 C   0  0  0  0  0  0  0  0  0  0  0  0
   23.8682  -20.1876  -14.2188 C   0  0  0  0  0  0  0  0  0  0  0  0
   25.1757  -20.1025  -13.5205 C   0  0  2  0  0  0  0  0  0  0  0  0
   26.3062  -20.2550  -14.4021 N   0  0  0  0  0  0  0  0  0  0  0  0
   25.2729  -20.8968  -12.2668 C   0  0  0  0  0  0  0  0  0  0  0  0
   25.4697  -22.1300  -12.2181 O   0  0  0  0  0  0  0  0  0  0  0  0
   18.6319  -22.0016  -11.8062 C   0  0  0  0  0  0  0  0  0  0  0  0
   27.9674  -19.2764   -7.9577 C   0  0  0  0  0  0  0  0  0  0  0  0
   27.2438  -20.1916   -8.9479 C   0  0  2  0  0  0  0  0  0  0  0  0
   25.7746  -20.2301   -8.6760 C   0  0  0  0  0  0  0  0  0  0  0  0
   25.5454  -20.8703   -7.3164 C   0  0  2  0  0  0  0  0  0  0  0  0
   25.0642  -21.0004   -9.7581 N   0  0  0  0  0  0  0  0  0  0  0  0
   25.1362  -20.2274  -11.0262 C   0  0  0  0  0  0  0  0  0  0  0  0
   23.6357  -21.1092   -9.4303 O   0  0  0  0  0  0  0  0  0  0  0  0
   22.8412  -20.2263   -9.8589 O   0  0  0  0  0  0  0  0  0  0  0  0
  2  1  1  0
  2  3  2  0
  4  2  1  0
  5  6  1  0
  5  4  1  0
  6  7  1  6
  8  9  2  0
  8  6  1  0
 10 11  1  0
 11 12  2  0
 13 11  1  0
 13 14  1  0
 15 14  1  0
 16 15  1  0
 17 16  1  6
 17 18  1  0
 18  8  1  0
 19 26  1  0
 19 17  1  0
 20 19  2  0
 22 21  1  0
 23 22  1  0
 23 25  1  0
 23 24  1  6
 25 26  1  6
 25 27  1  0
 27 29  1  0
 28 27  2  0
M  END
$$$$
