QRI.pdb
     RDKit          3D

 29 28  0  0  1  0  0  0  0  0999 V2000
   16.2868  -15.1185  -16.2592 N   0  0  0  0  0  0  0  0  0  0  0  0
   17.5920  -14.9083  -15.7463 C   0  0  0  0  0  0  0  0  0  0  0  0
   18.1590  -15.7560  -15.0196 O   0  0  0  0  0  0  0  0  0  0  0  0
   18.3651  -13.6507  -16.0506 C   0  0  0  0  0  0  0  0  0  0  0  0
   17.5509  -12.6965  -16.8490 C   0  0  0  0  0  0  0  0  0  0  0  0
   16.5712  -11.8643  -16.0919 C   0  0  2  0  0  0  0  0  0  0  0  0
   15.3691  -11.7782  -16.9397 N   0  0  0  0  0  0  0  0  0  0  0  0
   17.0326  -10.4723  -15.8221 C   0  0  0  0  0  0  0  0  0  0  0  0
   17.9749  -10.0032  -16.5119 O   0  0  0  0  0  0  0  0  0  0  0  0
   14.5868   -2.8106  -16.1497 N   0  0  0  0  0  0  0  0  0  0  0  0
   15.5168   -2.7079  -15.0836 C   0  0  0  0  0  0  0  0  0  0  0  0
   16.0140   -1.5528  -14.8328 N   0  0  0  0  0  0  0  0  0  0  0  0
   15.9240   -3.8079  -14.2847 N   0  0  0  0  0  0  0  0  0  0  0  0
   15.4569   -5.1532  -14.5397 C   0  0  0  0  0  0  0  0  0  0  0  0
   16.0654   -6.1137  -13.5403 C   0  0  0  0  0  0  0  0  0  0  0  0
   15.6798   -7.5280  -13.9074 C   0  0  0  0  0  0  0  0  0  0  0  0
   16.7947   -8.3086  -14.5006 C   0  0  2  0  0  0  0  0  0  0  0  0
   16.4369   -9.6695  -14.8145 N   0  0  0  0  0  0  0  0  0  0  0  0
   18.1010   -8.1706  -13.8029 C   0  0  0  0  0  0  0  0  0  0  0  0
   18.3411   -8.5904  -12.6505 O   0  0  0  0  0  0  0  0  0  0  0  0
   16.6949   -1.3558  -14.0669 C   0  0  0  0  0  0  0  0  0  0  0  0
   23.4847   -9.8501  -14.0382 C   0  0  0  0  0  0  0  0  0  0  0  0
   22.7161   -8.5526  -13.7782 C   0  0  2  0  0  0  0  0  0  0  0  0
   21.3339   -8.6193  -14.3428 C   0  0  0  0  0  0  0  0  0  0  0  0
   21.4250   -8.6218  -15.8603 C   0  0  2  0  0  0  0  0  0  0  0  0
   20.5153   -7.4519  -13.8567 N   0  0  0  0  0  0  0  0  0  0  0  0
   19.1646   -7.5202  -14.4749 C   0  0  0  0  0  0  0  0  0  0  0  0
   21.1150   -6.1967  -14.3307 O   0  0  0  0  0  0  0  0  0  0  0  0
   22.1829   -5.7887  -13.7943 O   0  0  0  0  0  0  0  0  0  0  0  0
  2  1  1  0
  2  3  2  0
  4  2  1  0
  5  6  1  0
  5  4  1  0
  6  7  1  6
  8  9  2  0
  8  6  1  0
 10 11  1  0
 11 12  2  0
 13 11  1  0
 13 14  1  0
 15 14  1  0
 16 15  1  0
 17 16  1  1
 17 18  1  0
 18  8  1  0
 19 26  1  0
 19 17  1  0
 20 19  2  0
 22 21  1  0
 23 22  1  0
 23 25  1  0
 23 24  1  1
 25 26  1  6
 25 27  1  0
 27 29  1  0
 28 27  2  0
M  END
$$$$
