QRI.pdb
     RDKit          3D

 29 28  0  0  1  0  0  0  0  0999 V2000
   20.4680  -17.1307  -17.1071 N   0  0  0  0  0  0  0  0  0  0  0  0
   21.7165  -16.5029  -17.3483 C   0  0  0  0  0  0  0  0  0  0  0  0
   22.7416  -17.1627  -17.6342 O   0  0  0  0  0  0  0  0  0  0  0  0
   21.8732  -15.0057  -17.2724 C   0  0  0  0  0  0  0  0  0  0  0  0
   22.4055  -14.4535  -18.5463 C   0  0  0  0  0  0  0  0  0  0  0  0
   21.4242  -13.7615  -19.4314 C   0  0  2  0  0  0  0  0  0  0  0  0
   22.1762  -13.3508  -20.6303 N   0  0  0  0  0  0  0  0  0  0  0  0
   20.8234  -12.5343  -18.8345 C   0  0  0  0  0  0  0  0  0  0  0  0
   21.5234  -11.4908  -18.7646 O   0  0  0  0  0  0  0  0  0  0  0  0
   13.7935  -10.7934  -14.3315 N   0  0  0  0  0  0  0  0  0  0  0  0
   13.9411   -9.5551  -15.0072 C   0  0  0  0  0  0  0  0  0  0  0  0
   13.4673   -8.5056  -14.4430 N   0  0  0  0  0  0  0  0  0  0  0  0
   14.5810   -9.4161  -16.2663 N   0  0  0  0  0  0  0  0  0  0  0  0
   15.2273  -10.5312  -16.9234 C   0  0  0  0  0  0  0  0  0  0  0  0
   16.7267  -10.3239  -16.9462 C   0  0  0  0  0  0  0  0  0  0  0  0
   17.3831  -11.4969  -17.6368 C   0  0  0  0  0  0  0  0  0  0  0  0
   18.8660  -11.4241  -17.6425 C   0  0  2  0  0  0  0  0  0  0  0  0
   19.4898  -12.5152  -18.3488 N   0  0  0  0  0  0  0  0  0  0  0  0
   19.4866  -11.1208  -16.3253 C   0  0  0  0  0  0  0  0  0  0  0  0
   19.5359  -11.9144  -15.3612 O   0  0  0  0  0  0  0  0  0  0  0  0
   13.4996   -7.5472  -14.8548 C   0  0  0  0  0  0  0  0  0  0  0  0
   24.2603  -10.9736  -13.7907 C   0  0  0  0  0  0  0  0  0  0  0  0
   23.0102  -10.0909  -13.7892 C   0  0  2  0  0  0  0  0  0  0  0  0
   22.1860  -10.3168  -15.0153 C   0  0  0  0  0  0  0  0  0  0  0  0
   22.9777   -9.8562  -16.2285 C   0  0  2  0  0  0  0  0  0  0  0  0
   20.8816   -9.5706  -14.9114 N   0  0  0  0  0  0  0  0  0  0  0  0
   20.0710   -9.8459  -16.1272 C   0  0  0  0  0  0  0  0  0  0  0  0
   21.1387   -8.1236  -14.9149 O   0  0  0  0  0  0  0  0  0  0  0  0
   21.6179   -7.5854  -13.8779 O   0  0  0  0  0  0  0  0  0  0  0  0
  2  1  1  0
  2  3  2  0
  4  2  1  0
  5  6  1  0
  5  4  1  0
  6  7  1  6
  8  9  2  0
  8  6  1  0
 10 11  1  0
 11 12  2  0
 13 11  1  0
 13 14  1  0
 15 14  1  0
 16 15  1  0
 17 16  1  1
 17 18  1  0
 18  8  1  0
 19 26  1  0
 19 17  1  0
 20 19  2  0
 22 21  1  0
 23 22  1  0
 23 25  1  0
 23 24  1  6
 25 26  1  1
 25 27  1  0
 27 29  1  0
 28 27  2  0
M  END
$$$$
