QRI.pdb
     RDKit          3D

 29 28  0  0  1  0  0  0  0  0999 V2000
   15.5443  -28.9257   -4.4718 N   0  0  0  0  0  0  0  0  0  0  0  0
   15.5078  -28.2395   -3.2313 C   0  0  0  0  0  0  0  0  0  0  0  0
   14.7421  -28.5922   -2.3053 O   0  0  0  0  0  0  0  0  0  0  0  0
   16.3911  -27.0479   -2.9637 C   0  0  0  0  0  0  0  0  0  0  0  0
   17.2350  -26.7255   -4.1448 C   0  0  0  0  0  0  0  0  0  0  0  0
   16.7277  -25.6546   -5.0508 C   0  0  2  0  0  0  0  0  0  0  0  0
   17.7492  -25.4912   -6.1002 N   0  0  0  0  0  0  0  0  0  0  0  0
   16.5462  -24.3307   -4.3893 C   0  0  0  0  0  0  0  0  0  0  0  0
   17.2378  -23.3568   -4.7855 O   0  0  0  0  0  0  0  0  0  0  0  0
   10.6127  -19.7206   -3.8273 N   0  0  0  0  0  0  0  0  0  0  0  0
   11.0286  -19.3203   -5.1229 C   0  0  0  0  0  0  0  0  0  0  0  0
   10.3106  -18.4564   -5.7413 N   0  0  0  0  0  0  0  0  0  0  0  0
   12.1894  -19.8213   -5.7676 N   0  0  0  0  0  0  0  0  0  0  0  0
   12.5265  -21.2281   -5.7517 C   0  0  0  0  0  0  0  0  0  0  0  0
   12.9517  -21.6457   -4.3601 C   0  0  0  0  0  0  0  0  0  0  0  0
   13.8926  -22.8243   -4.4574 C   0  0  0  0  0  0  0  0  0  0  0  0
   14.6775  -23.0567   -3.2188 C   0  0  2  0  0  0  0  0  0  0  0  0
   15.6171  -24.1443   -3.3324 N   0  0  0  0  0  0  0  0  0  0  0  0
   13.8815  -23.0719   -1.9625 C   0  0  0  0  0  0  0  0  0  0  0  0
   13.0536  -23.9559   -1.6542 O   0  0  0  0  0  0  0  0  0  0  0  0
   10.5296  -18.0737   -6.6872 C   0  0  0  0  0  0  0  0  0  0  0  0
   16.7233  -22.9442    2.2823 C   0  0  0  0  0  0  0  0  0  0  0  0
   15.5680  -23.1163    1.2936 C   0  0  2  0  0  0  0  0  0  0  0  0
   14.6446  -21.9417    1.3296 C   0  0  0  0  0  0  0  0  0  0  0  0
   14.1085  -21.7842    2.7434 C   0  0  2  0  0  0  0  0  0  0  0  0
   13.5187  -22.1334    0.3474 N   0  0  0  0  0  0  0  0  0  0  0  0
   14.0590  -22.0181   -1.0331 C   0  0  0  0  0  0  0  0  0  0  0  0
   12.5445  -21.0428    0.4938 O   0  0  0  0  0  0  0  0  0  0  0  0
   12.6030  -20.0606   -0.2977 O   0  0  0  0  0  0  0  0  0  0  0  0
  2  1  1  0
  2  3  2  0
  4  2  1  0
  5  6  1  0
  5  4  1  0
  6  7  1  6
  8  9  2  0
  8  6  1  0
 10 11  1  0
 11 12  2  0
 13 11  1  0
 13 14  1  0
 15 14  1  0
 16 15  1  0
 17 16  1  6
 17 18  1  0
 18  8  1  0
 19 26  1  0
 19 17  1  0
 20 19  2  0
 22 21  1  0
 23 22  1  0
 23 25  1  0
 23 24  1  6
 25 26  1  1
 25 27  1  0
 27 29  1  0
 28 27  2  0
M  END
$$$$
