QRI.pdb
     RDKit          3D

 29 28  0  0  1  0  0  0  0  0999 V2000
   12.4350  -21.3713  -11.6241 N   0  0  0  0  0  0  0  0  0  0  0  0
   13.2352  -20.2668  -11.2358 C   0  0  0  0  0  0  0  0  0  0  0  0
   12.9022  -19.0880  -11.4958 O   0  0  0  0  0  0  0  0  0  0  0  0
   14.5304  -20.4563  -10.4885 C   0  0  0  0  0  0  0  0  0  0  0  0
   14.8188  -21.8978  -10.2653 C   0  0  0  0  0  0  0  0  0  0  0  0
   16.1156  -22.2204   -9.6022 C   0  0  2  0  0  0  0  0  0  0  0  0
   17.1519  -22.0679  -10.6386 N   0  0  0  0  0  0  0  0  0  0  0  0
   16.2035  -23.6140   -9.0792 C   0  0  0  0  0  0  0  0  0  0  0  0
   15.7631  -24.5552   -9.7889 O   0  0  0  0  0  0  0  0  0  0  0  0
   20.8712  -28.9550  -11.3657 N   0  0  0  0  0  0  0  0  0  0  0  0
   19.4621  -28.8626  -11.2322 C   0  0  0  0  0  0  0  0  0  0  0  0
   18.7394  -29.3223  -12.1865 N   0  0  0  0  0  0  0  0  0  0  0  0
   18.8132  -28.2924  -10.1062 N   0  0  0  0  0  0  0  0  0  0  0  0
   19.5544  -27.7777   -8.9754 C   0  0  0  0  0  0  0  0  0  0  0  0
   18.6019  -27.2231   -7.9376 C   0  0  0  0  0  0  0  0  0  0  0  0
   18.1314  -25.8542   -8.3718 C   0  0  0  0  0  0  0  0  0  0  0  0
   17.2549  -25.1881   -7.3757 C   0  0  2  0  0  0  0  0  0  0  0  0
   16.7700  -23.9016   -7.8098 N   0  0  0  0  0  0  0  0  0  0  0  0
   17.7641  -25.2041   -5.9783 C   0  0  0  0  0  0  0  0  0  0  0  0
   18.7508  -24.5536   -5.5720 O   0  0  0  0  0  0  0  0  0  0  0  0
   17.6959  -29.3199  -12.1919 C   0  0  0  0  0  0  0  0  0  0  0  0
   15.6210  -27.0723   -0.4382 C   0  0  0  0  0  0  0  0  0  0  0  0
   16.7922  -26.6688   -1.3367 C   0  0  2  0  0  0  0  0  0  0  0  0
   16.3524  -26.4946   -2.7544 C   0  0  0  0  0  0  0  0  0  0  0  0
   15.8911  -27.8396   -3.2922 C   0  0  2  0  0  0  0  0  0  0  0  0
   17.4806  -25.9429   -3.5862 N   0  0  0  0  0  0  0  0  0  0  0  0
   17.0971  -26.0075   -5.0214 C   0  0  0  0  0  0  0  0  0  0  0  0
   18.6647  -26.8015   -3.4441 O   0  0  0  0  0  0  0  0  0  0  0  0
   19.3415  -26.7383   -2.3798 O   0  0  0  0  0  0  0  0  0  0  0  0
  2  1  1  0
  2  3  2  0
  4  2  1  0
  5  6  1  0
  5  4  1  0
  6  7  1  6
  8  9  2  0
  8  6  1  0
 10 11  1  0
 11 12  2  0
 13 11  1  0
 13 14  1  0
 15 14  1  0
 16 15  1  0
 17 16  1  6
 17 18  1  0
 18  8  1  0
 19 26  1  0
 19 17  1  0
 20 19  2  0
 22 21  1  0
 23 22  1  0
 23 25  1  0
 23 24  1  6
 25 26  1  6
 25 27  1  0
 27 29  1  0
 28 27  2  0
M  END
$$$$
