QRI.pdb
     RDKit          3D

 29 28  0  0  1  0  0  0  0  0999 V2000
   24.9501  -14.7444  -22.6572 N   0  0  0  0  0  0  0  0  0  0  0  0
   25.9886  -14.9449  -21.7125 C   0  0  0  0  0  0  0  0  0  0  0  0
   27.1624  -15.1986  -22.0673 O   0  0  0  0  0  0  0  0  0  0  0  0
   25.7315  -14.8624  -20.2296 C   0  0  0  0  0  0  0  0  0  0  0  0
   24.2916  -14.6254  -19.9438 C   0  0  0  0  0  0  0  0  0  0  0  0
   23.8955  -14.6005  -18.5058 C   0  0  2  0  0  0  0  0  0  0  0  0
   25.0360  -14.0149  -17.7793 N   0  0  0  0  0  0  0  0  0  0  0  0
   23.6331  -15.9470  -17.9215 C   0  0  0  0  0  0  0  0  0  0  0  0
   22.6173  -16.5843  -18.3033 O   0  0  0  0  0  0  0  0  0  0  0  0
   25.2160  -21.3732  -11.8459 N   0  0  0  0  0  0  0  0  0  0  0  0
   25.7516  -22.0626  -12.9638 C   0  0  0  0  0  0  0  0  0  0  0  0
   25.5132  -23.3187  -13.0624 N   0  0  0  0  0  0  0  0  0  0  0  0
   26.5322  -21.4409  -13.9728 N   0  0  0  0  0  0  0  0  0  0  0  0
   26.5423  -20.0059  -14.1569 C   0  0  0  0  0  0  0  0  0  0  0  0
   25.2470  -19.5542  -14.7970 C   0  0  0  0  0  0  0  0  0  0  0  0
   25.4915  -18.2831  -15.5769 C   0  0  0  0  0  0  0  0  0  0  0  0
   24.2815  -17.7745  -16.2708 C   0  0  2  0  0  0  0  0  0  0  0  0
   24.4969  -16.5231  -16.9537 N   0  0  0  0  0  0  0  0  0  0  0  0
   23.0297  -17.8198  -15.4687 C   0  0  0  0  0  0  0  0  0  0  0  0
   22.8425  -17.1924  -14.4042 O   0  0  0  0  0  0  0  0  0  0  0  0
   25.8096  -23.9156  -13.8655 C   0  0  0  0  0  0  0  0  0  0  0  0
   18.4167  -17.4187  -17.9209 C   0  0  0  0  0  0  0  0  0  0  0  0
   19.4652  -17.3910  -16.8065 C   0  0  2  0  0  0  0  0  0  0  0  0
   19.5300  -18.7015  -16.0909 C   0  0  0  0  0  0  0  0  0  0  0  0
   18.2233  -18.9162  -15.3444 C   0  0  2  0  0  0  0  0  0  0  0  0
   20.6992  -18.7196  -15.1413 N   0  0  0  0  0  0  0  0  0  0  0  0
   21.9586  -18.6257  -15.9262 C   0  0  0  0  0  0  0  0  0  0  0  0
   20.7506  -20.0132  -14.4458 O   0  0  0  0  0  0  0  0  0  0  0  0
   20.2351  -20.1106  -13.2971 O   0  0  0  0  0  0  0  0  0  0  0  0
  2  1  1  0
  2  3  2  0
  4  2  1  0
  5  6  1  0
  5  4  1  0
  6  7  1  1
  8  9  2  0
  8  6  1  0
 10 11  1  0
 11 12  2  0
 13 11  1  0
 13 14  1  0
 15 14  1  0
 16 15  1  0
 17 16  1  1
 17 18  1  0
 18  8  1  0
 19 26  1  0
 19 17  1  0
 20 19  2  0
 22 21  1  0
 23 22  1  0
 23 25  1  0
 23 24  1  6
 25 26  1  1
 25 27  1  0
 27 29  1  0
 28 27  2  0
M  END
$$$$
