QRI.pdb
     RDKit          3D

 29 28  0  0  1  0  0  0  0  0999 V2000
   14.9890  -20.1102  -18.4859 N   0  0  0  0  0  0  0  0  0  0  0  0
   15.4086  -19.5615  -19.7244 C   0  0  0  0  0  0  0  0  0  0  0  0
   14.7971  -18.6121  -20.2655 O   0  0  0  0  0  0  0  0  0  0  0  0
   16.6148  -20.0947  -20.4541 C   0  0  0  0  0  0  0  0  0  0  0  0
   17.2664  -21.1916  -19.6905 C   0  0  0  0  0  0  0  0  0  0  0  0
   18.7580  -21.2115  -19.6989 C   0  0  2  0  0  0  0  0  0  0  0  0
   19.1508  -21.7352  -21.0191 N   0  0  0  0  0  0  0  0  0  0  0  0
   19.3625  -22.0991  -18.6644 C   0  0  0  0  0  0  0  0  0  0  0  0
   19.4192  -23.3363  -18.8875 O   0  0  0  0  0  0  0  0  0  0  0  0
   25.6358  -25.2568  -15.0939 N   0  0  0  0  0  0  0  0  0  0  0  0
   25.2058  -24.5721  -16.2593 C   0  0  0  0  0  0  0  0  0  0  0  0
   25.4698  -25.1027  -17.3965 N   0  0  0  0  0  0  0  0  0  0  0  0
   24.5037  -23.3391  -16.2346 N   0  0  0  0  0  0  0  0  0  0  0  0
   23.9648  -22.7899  -15.0095 C   0  0  0  0  0  0  0  0  0  0  0  0
   22.4561  -22.9148  -15.0024 C   0  0  0  0  0  0  0  0  0  0  0  0
   21.8856  -22.1490  -16.1737 C   0  0  0  0  0  0  0  0  0  0  0  0
   20.4297  -22.3658  -16.3678 C   0  0  2  0  0  0  0  0  0  0  0  0
   19.8733  -21.5845  -17.4441 N   0  0  0  0  0  0  0  0  0  0  0  0
   19.6184  -22.3454  -15.1213 C   0  0  0  0  0  0  0  0  0  0  0  0
   19.4470  -21.3399  -14.3992 O   0  0  0  0  0  0  0  0  0  0  0  0
   25.2036  -24.6904  -18.3174 C   0  0  0  0  0  0  0  0  0  0  0  0
   15.2071  -25.4969  -14.7255 C   0  0  0  0  0  0  0  0  0  0  0  0
   16.1577  -24.3232  -14.4794 C   0  0  2  0  0  0  0  0  0  0  0  0
   17.2121  -24.6800  -13.4820 C   0  0  0  0  0  0  0  0  0  0  0  0
   16.5537  -24.8886  -12.1278 C   0  0  2  0  0  0  0  0  0  0  0  0
   18.2518  -23.5924  -13.4109 N   0  0  0  0  0  0  0  0  0  0  0  0
   18.9843  -23.5410  -14.7039 C   0  0  0  0  0  0  0  0  0  0  0  0
   19.2535  -23.9326  -12.3908 O   0  0  0  0  0  0  0  0  0  0  0  0
   18.9599  -23.7826  -11.1718 O   0  0  0  0  0  0  0  0  0  0  0  0
  2  1  1  0
  2  3  2  0
  4  2  1  0
  5  6  1  0
  5  4  1  0
  6  7  1  6
  8  9  2  0
  8  6  1  0
 10 11  1  0
 11 12  2  0
 13 11  1  0
 13 14  1  0
 15 14  1  0
 16 15  1  0
 17 16  1  1
 17 18  1  0
 18  8  1  0
 19 26  1  0
 19 17  1  0
 20 19  2  0
 22 21  1  0
 23 22  1  0
 23 25  1  0
 23 24  1  6
 25 26  1  1
 25 27  1  0
 27 29  1  0
 28 27  2  0
M  END
$$$$
