QRI.pdb
     RDKit          3D

 29 28  0  0  1  0  0  0  0  0999 V2000
   23.3979  -18.5206  -23.7642 N   0  0  0  0  0  0  0  0  0  0  0  0
   22.0782  -18.2285  -23.3352 C   0  0  0  0  0  0  0  0  0  0  0  0
   21.1757  -17.9165  -24.1452 O   0  0  0  0  0  0  0  0  0  0  0  0
   21.6940  -18.2789  -21.8786 C   0  0  0  0  0  0  0  0  0  0  0  0
   22.8266  -18.7486  -21.0375 C   0  0  0  0  0  0  0  0  0  0  0  0
   23.0238  -18.0455  -19.7366 C   0  0  2  0  0  0  0  0  0  0  0  0
   24.4784  -18.0230  -19.5023 N   0  0  0  0  0  0  0  0  0  0  0  0
   22.3906  -18.7281  -18.5719 C   0  0  0  0  0  0  0  0  0  0  0  0
   21.1603  -18.9886  -18.6191 O   0  0  0  0  0  0  0  0  0  0  0  0
   24.8319  -22.8949  -12.3881 N   0  0  0  0  0  0  0  0  0  0  0  0
   25.2313  -23.0125  -13.7440 C   0  0  0  0  0  0  0  0  0  0  0  0
   25.2798  -24.1883  -14.2535 N   0  0  0  0  0  0  0  0  0  0  0  0
   25.5779  -21.9058  -14.5620 N   0  0  0  0  0  0  0  0  0  0  0  0
   25.6242  -20.5560  -14.0435 C   0  0  0  0  0  0  0  0  0  0  0  0
   24.6552  -19.6738  -14.8015 C   0  0  0  0  0  0  0  0  0  0  0  0
   23.6457  -20.5405  -15.5181 C   0  0  0  0  0  0  0  0  0  0  0  0
   22.6187  -19.7629  -16.2563 C   0  0  2  0  0  0  0  0  0  0  0  0
   23.1381  -19.0898  -17.4206 N   0  0  0  0  0  0  0  0  0  0  0  0
   21.7402  -18.9147  -15.4071 C   0  0  0  0  0  0  0  0  0  0  0  0
   21.9943  -17.7381  -15.0714 O   0  0  0  0  0  0  0  0  0  0  0  0
   25.6206  -24.4018  -15.2165 C   0  0  0  0  0  0  0  0  0  0  0  0
   17.2919  -17.5441  -17.0875 C   0  0  0  0  0  0  0  0  0  0  0  0
   18.5422  -17.6364  -16.2100 C   0  0  2  0  0  0  0  0  0  0  0  0
   18.2939  -18.4776  -14.9998 C   0  0  0  0  0  0  0  0  0  0  0  0
   17.1867  -17.8375  -14.1781 C   0  0  2  0  0  0  0  0  0  0  0  0
   19.5562  -18.6091  -14.1884 N   0  0  0  0  0  0  0  0  0  0  0  0
   20.5215  -19.4597  -14.9339 C   0  0  0  0  0  0  0  0  0  0  0  0
   19.2672  -19.3247  -12.9378 O   0  0  0  0  0  0  0  0  0  0  0  0
   19.3201  -20.5864  -12.9291 O   0  0  0  0  0  0  0  0  0  0  0  0
  2  1  1  0
  2  3  2  0
  4  2  1  0
  5  6  1  0
  5  4  1  0
  6  7  1  1
  8  9  2  0
  8  6  1  0
 10 11  1  0
 11 12  2  0
 13 11  1  0
 13 14  1  0
 15 14  1  0
 16 15  1  0
 17 16  1  1
 17 18  1  0
 18  8  1  0
 19 26  1  0
 19 17  1  0
 20 19  2  0
 22 21  1  0
 23 22  1  0
 23 25  1  0
 23 24  1  6
 25 26  1  1
 25 27  1  0
 27 29  1  0
 28 27  2  0
M  END
$$$$
