QRI.pdb
     RDKit          3D

 29 28  0  0  1  0  0  0  0  0999 V2000
   26.0197  -13.2867  -20.3281 N   0  0  0  0  0  0  0  0  0  0  0  0
   26.2979  -14.6739  -20.4241 C   0  0  0  0  0  0  0  0  0  0  0  0
   27.4156  -15.0976  -20.7974 O   0  0  0  0  0  0  0  0  0  0  0  0
   25.2599  -15.7113  -20.0808 C   0  0  0  0  0  0  0  0  0  0  0  0
   23.9401  -15.0840  -19.8059 C   0  0  0  0  0  0  0  0  0  0  0  0
   23.4713  -15.1169  -18.3900 C   0  0  2  0  0  0  0  0  0  0  0  0
   24.3782  -14.2300  -17.6401 N   0  0  0  0  0  0  0  0  0  0  0  0
   23.5352  -16.4655  -17.7571 C   0  0  0  0  0  0  0  0  0  0  0  0
   22.8725  -17.4053  -18.2682 O   0  0  0  0  0  0  0  0  0  0  0  0
   25.7135  -19.9781  -11.0632 N   0  0  0  0  0  0  0  0  0  0  0  0
   26.2930  -21.0708  -11.7575 C   0  0  0  0  0  0  0  0  0  0  0  0
   26.1865  -22.2365  -11.2339 N   0  0  0  0  0  0  0  0  0  0  0  0
   26.9801  -20.9442  -12.9928 N   0  0  0  0  0  0  0  0  0  0  0  0
   26.9698  -19.7122  -13.7512 C   0  0  0  0  0  0  0  0  0  0  0  0
   25.5791  -19.4409  -14.2842 C   0  0  0  0  0  0  0  0  0  0  0  0
   25.6188  -18.2343  -15.1933 C   0  0  0  0  0  0  0  0  0  0  0  0
   24.3077  -17.9208  -15.8154 C   0  0  2  0  0  0  0  0  0  0  0  0
   24.3217  -16.7123  -16.6016 N   0  0  0  0  0  0  0  0  0  0  0  0
   23.1354  -18.0400  -14.9077 C   0  0  0  0  0  0  0  0  0  0  0  0
   22.8700  -17.2472  -13.9789 O   0  0  0  0  0  0  0  0  0  0  0  0
   26.5909  -23.1075  -11.6424 C   0  0  0  0  0  0  0  0  0  0  0  0
   17.3836  -18.7999  -15.4938 C   0  0  0  0  0  0  0  0  0  0  0  0
   18.6002  -18.7173  -14.5692 C   0  0  2  0  0  0  0  0  0  0  0  0
   19.8153  -19.2950  -15.2199 C   0  0  0  0  0  0  0  0  0  0  0  0
   19.5260  -20.7374  -15.6030 C   0  0  2  0  0  0  0  0  0  0  0  0
   20.9947  -19.2145  -14.2862 N   0  0  0  0  0  0  0  0  0  0  0  0
   22.2413  -19.1229  -15.0917 C   0  0  0  0  0  0  0  0  0  0  0  0
   21.1007  -20.4614  -13.5157 O   0  0  0  0  0  0  0  0  0  0  0  0
   21.7972  -21.4081  -13.9776 O   0  0  0  0  0  0  0  0  0  0  0  0
  2  1  1  0
  2  3  2  0
  4  2  1  0
  5  6  1  0
  5  4  1  0
  6  7  1  1
  8  9  2  0
  8  6  1  0
 10 11  1  0
 11 12  2  0
 13 11  1  0
 13 14  1  0
 15 14  1  0
 16 15  1  0
 17 16  1  1
 17 18  1  0
 18  8  1  0
 19 26  1  0
 19 17  1  0
 20 19  2  0
 22 21  1  0
 23 22  1  0
 23 25  1  0
 23 24  1  6
 25 26  1  1
 25 27  1  0
 27 29  1  0
 28 27  2  0
M  END
$$$$
