QRI.pdb
     RDKit          3D

 29 28  0  0  1  0  0  0  0  0999 V2000
   25.2712  -16.9234  -20.6914 N   0  0  0  0  0  0  0  0  0  0  0  0
   26.4794  -17.5973  -21.0027 C   0  0  0  0  0  0  0  0  0  0  0  0
   27.4737  -16.9897  -21.4611 O   0  0  0  0  0  0  0  0  0  0  0  0
   26.6283  -19.0831  -20.7972 C   0  0  0  0  0  0  0  0  0  0  0  0
   25.3742  -19.6835  -20.2702 C   0  0  0  0  0  0  0  0  0  0  0  0
   25.3459  -19.9868  -18.8099 C   0  0  2  0  0  0  0  0  0  0  0  0
   26.2023  -21.1714  -18.6234 N   0  0  0  0  0  0  0  0  0  0  0  0
   23.9923  -20.3223  -18.2823 C   0  0  0  0  0  0  0  0  0  0  0  0
   23.1503  -19.3971  -18.1453 O   0  0  0  0  0  0  0  0  0  0  0  0
   21.7902  -26.7878  -15.5448 N   0  0  0  0  0  0  0  0  0  0  0  0
   20.7573  -26.6122  -16.5010 C   0  0  0  0  0  0  0  0  0  0  0  0
   19.5644  -26.9353  -16.1590 N   0  0  0  0  0  0  0  0  0  0  0  0
   20.9718  -26.1015  -17.8076 N   0  0  0  0  0  0  0  0  0  0  0  0
   22.2961  -25.7888  -18.2989 C   0  0  0  0  0  0  0  0  0  0  0  0
   22.4139  -24.3038  -18.5687 C   0  0  0  0  0  0  0  0  0  0  0  0
   22.2336  -23.5447  -17.2745 C   0  0  0  0  0  0  0  0  0  0  0  0
   22.3498  -22.0730  -17.4325 C   0  0  2  0  0  0  0  0  0  0  0  0
   23.6334  -21.6511  -17.9355 N   0  0  0  0  0  0  0  0  0  0  0  0
   21.8593  -21.2750  -16.2771 C   0  0  0  0  0  0  0  0  0  0  0  0
   22.4917  -21.0977  -15.2139 O   0  0  0  0  0  0  0  0  0  0  0  0
   18.7396  -26.9130  -16.7980 C   0  0  0  0  0  0  0  0  0  0  0  0
   21.6394  -17.1728  -15.6930 C   0  0  0  0  0  0  0  0  0  0  0  0
   20.6094  -17.7922  -16.6402 C   0  0  1  0  0  0  0  0  0  0  0  0
   19.5427  -18.5151  -15.8830 C   0  0  0  0  0  0  0  0  0  0  0  0
   18.9961  -17.5917  -14.8062 C   0  0  2  0  0  0  0  0  0  0  0  0
   20.0983  -19.7768  -15.2760 N   0  0  0  0  0  0  0  0  0  0  0  0
   20.5857  -20.6620  -16.3668 C   0  0  0  0  0  0  0  0  0  0  0  0
   19.0214  -20.5173  -14.6038 O   0  0  0  0  0  0  0  0  0  0  0  0
   18.2727  -21.2661  -15.2917 O   0  0  0  0  0  0  0  0  0  0  0  0
  2  1  1  0
  2  3  2  0
  4  2  1  0
  5  6  1  0
  5  4  1  0
  6  7  1  6
  8  9  2  0
  8  6  1  0
 10 11  1  0
 11 12  2  0
 13 11  1  0
 13 14  1  0
 15 14  1  0
 16 15  1  0
 17 16  1  1
 17 18  1  0
 18  8  1  0
 19 26  1  0
 19 17  1  0
 20 19  2  0
 22 21  1  0
 23 22  1  0
 23 25  1  0
 23 24  1  6
 25 26  1  1
 25 27  1  0
 27 29  1  0
 28 27  2  0
M  END
$$$$
