QRI.pdb
     RDKit          3D

 29 28  0  0  1  0  0  0  0  0999 V2000
   19.7961  -20.0132  -12.3969 N   0  0  0  0  0  0  0  0  0  0  0  0
   19.0246  -20.3293  -13.5440 C   0  0  0  0  0  0  0  0  0  0  0  0
   17.9248  -20.9214  -13.4558 O   0  0  0  0  0  0  0  0  0  0  0  0
   19.4906  -19.9677  -14.9310 C   0  0  0  0  0  0  0  0  0  0  0  0
   20.7921  -19.2497  -14.8932 C   0  0  0  0  0  0  0  0  0  0  0  0
   21.9451  -19.9301  -15.5511 C   0  0  2  0  0  0  0  0  0  0  0  0
   21.8044  -21.3633  -15.2389 N   0  0  0  0  0  0  0  0  0  0  0  0
   23.2794  -19.4896  -15.0522 C   0  0  0  0  0  0  0  0  0  0  0  0
   23.6584  -18.3145  -15.2959 O   0  0  0  0  0  0  0  0  0  0  0  0
   26.4106  -19.8133   -8.3872 N   0  0  0  0  0  0  0  0  0  0  0  0
   25.8485  -20.8325   -9.1979 C   0  0  0  0  0  0  0  0  0  0  0  0
   24.6875  -21.2760   -8.8820 N   0  0  0  0  0  0  0  0  0  0  0  0
   26.4978  -21.3843  -10.3328 N   0  0  0  0  0  0  0  0  0  0  0  0
   27.6612  -20.7621  -10.9264 C   0  0  0  0  0  0  0  0  0  0  0  0
   27.3863  -20.4200  -12.3752 C   0  0  0  0  0  0  0  0  0  0  0  0
   25.9072  -20.5617  -12.6504 C   0  0  0  0  0  0  0  0  0  0  0  0
   25.5163  -20.1260  -14.0148 C   0  0  2  0  0  0  0  0  0  0  0  0
   24.1248  -20.3576  -14.3128 N   0  0  0  0  0  0  0  0  0  0  0  0
   26.4459  -20.5417  -15.0990 C   0  0  0  0  0  0  0  0  0  0  0  0
   27.0389  -21.6407  -15.1467 O   0  0  0  0  0  0  0  0  0  0  0  0
   24.1793  -22.0252   -9.4011 C   0  0  0  0  0  0  0  0  0  0  0  0
   26.6332  -22.0547  -20.4671 C   0  0  0  0  0  0  0  0  0  0  0  0
   27.4397  -21.1567  -19.5263 C   0  0  2  0  0  0  0  0  0  0  0  0
   26.6666  -20.8365  -18.2879 C   0  0  0  0  0  0  0  0  0  0  0  0
   25.4304  -20.0410  -18.6751 C   0  0  2  0  0  0  0  0  0  0  0  0
   27.5244  -20.0590  -17.3243 N   0  0  0  0  0  0  0  0  0  0  0  0
   26.6909  -19.6425  -16.1655 C   0  0  0  0  0  0  0  0  0  0  0  0
   27.9819  -18.8164  -17.9619 O   0  0  0  0  0  0  0  0  0  0  0  0
   27.3026  -17.7634  -17.8060 O   0  0  0  0  0  0  0  0  0  0  0  0
  2  1  1  0
  2  3  2  0
  4  2  1  0
  5  6  1  0
  5  4  1  0
  6  7  1  1
  8  9  2  0
  8  6  1  0
 10 11  1  0
 11 12  2  0
 13 11  1  0
 13 14  1  0
 15 14  1  0
 16 15  1  0
 17 16  1  1
 17 18  1  0
 18  8  1  0
 19 26  1  0
 19 17  1  0
 20 19  2  0
 22 21  1  0
 23 22  1  0
 23 25  1  0
 23 24  1  1
 25 26  1  6
 25 27  1  0
 27 29  1  0
 28 27  2  0
M  END
$$$$
