SCT.pdb
     RDKit          3D

 20 19  0  0  1  0  0  0  0  0999 V2000
   20.1626  -10.3100  -19.1635 O   0  0  0  0  0  0  0  0  0  0  0  0
   19.5025   -9.4347  -18.3269 C   0  0  0  0  0  0  0  0  0  0  0  0
   19.7905   -9.7387  -16.8733 C   0  0  2  0  0  0  0  0  0  0  0  0
   18.7261  -10.5860  -16.3923 N   0  0  0  0  0  0  0  0  0  0  0  0
   19.8835   -8.5355  -16.0467 C   0  0  0  0  0  0  0  0  0  0  0  0
   18.8825   -8.1401  -15.3973 O   0  0  0  0  0  0  0  0  0  0  0  0
   21.0681   -7.7543  -15.9216 N   0  0  0  0  0  0  0  0  0  0  0  0
   21.1192   -6.5669  -15.1069 C   0  0  1  0  0  0  0  0  0  0  0  0
   22.3336   -6.5499  -14.2022 C   0  0  0  0  0  0  0  0  0  0  0  0
   22.4609   -5.0003  -13.2799 S   0  0  0  0  0  0  0  0  0  0  0  0
   21.0780   -5.3287  -15.9111 C   0  0  0  0  0  0  0  0  0  0  0  0
   21.9979   -5.1174  -16.7379 O   0  0  0  0  0  0  0  0  0  0  0  0
   18.5397   -4.1648  -18.4396 C   0  0  0  0  0  0  0  0  0  0  0  0
   18.5743   -3.2006  -17.2921 C   0  0  1  0  0  0  0  0  0  0  0  0
   17.5869   -3.5678  -16.3716 O   0  0  0  0  0  0  0  0  0  0  0  0
   19.9113   -3.1966  -16.5698 C   0  0  2  0  0  0  0  0  0  0  0  0
   20.0253   -4.3893  -15.7613 N   0  0  0  0  0  0  0  0  0  0  0  0
   19.9656   -2.0163  -15.6815 C   0  0  0  0  0  0  0  0  0  0  0  0
   20.0377   -0.7148  -16.1632 O   0  0  0  0  0  0  0  0  0  0  0  0
   19.9469   -2.1771  -14.4390 O   0  0  0  0  0  0  0  0  0  0  0  0
  1  2  1  0
  3  5  1  0
  3  2  1  0
  3  4  1  1
  5  6  2  0
  7  8  1  0
  7  5  1  0
  8  9  1  6
  9 10  1  0
 11  8  1  0
 12 11  2  0
 14 13  1  6
 14 16  1  0
 15 14  1  0
 16 18  1  0
 16 17  1  1
 17 11  1  0
 18 19  1  0
 20 18  2  0
M  END
$$$$
