SCT.pdb
     RDKit          3D

 20 19  0  0  1  0  0  0  0  0999 V2000
   26.5487  -19.6329  -16.0396 O   0  0  0  0  0  0  0  0  0  0  0  0
   27.6029  -19.9445  -15.2072 C   0  0  0  0  0  0  0  0  0  0  0  0
   27.4617  -21.3387  -14.6372 C   0  0  2  0  0  0  0  0  0  0  0  0
   27.4884  -22.2613  -15.7464 N   0  0  0  0  0  0  0  0  0  0  0  0
   26.2308  -21.5181  -13.8677 C   0  0  0  0  0  0  0  0  0  0  0  0
   25.3132  -22.2535  -14.3119 O   0  0  0  0  0  0  0  0  0  0  0  0
   25.9906  -20.8975  -12.6082 N   0  0  0  0  0  0  0  0  0  0  0  0
   24.7547  -21.0776  -11.8896 C   0  0  1  0  0  0  0  0  0  0  0  0
   24.8537  -20.5936  -10.4579 C   0  0  0  0  0  0  0  0  0  0  0  0
   26.2190  -21.3845   -9.5756 S   0  0  0  0  0  0  0  0  0  0  0  0
   23.6119  -20.4246  -12.5598 C   0  0  0  0  0  0  0  0  0  0  0  0
   23.6719  -19.1920  -12.7868 O   0  0  0  0  0  0  0  0  0  0  0  0
   22.1021  -21.4953  -15.8871 C   0  0  0  0  0  0  0  0  0  0  0  0
   21.0119  -21.4620  -14.8585 C   0  0  1  0  0  0  0  0  0  0  0  0
   20.8024  -22.7631  -14.3890 O   0  0  0  0  0  0  0  0  0  0  0  0
   21.3562  -20.5830  -13.6676 C   0  0  2  0  0  0  0  0  0  0  0  0
   22.4641  -21.1647  -12.9441 N   0  0  0  0  0  0  0  0  0  0  0  0
   20.1838  -20.5233  -12.7690 C   0  0  0  0  0  0  0  0  0  0  0  0
   18.9826  -19.9302  -13.1380 O   0  0  0  0  0  0  0  0  0  0  0  0
   20.2584  -21.0235  -11.6227 O   0  0  0  0  0  0  0  0  0  0  0  0
  1  2  1  0
  3  5  1  0
  3  2  1  0
  3  4  1  6
  5  6  2  0
  7  8  1  0
  7  5  1  0
  8  9  1  1
  9 10  1  0
 11  8  1  0
 12 11  2  0
 14 13  1  6
 14 16  1  0
 15 14  1  0
 16 18  1  0
 16 17  1  1
 17 11  1  0
 18 19  1  0
 20 18  2  0
M  END
$$$$
