SCT.pdb
     RDKit          3D

 20 19  0  0  1  0  0  0  0  0999 V2000
   18.3980  -11.2876  -19.2594 O   0  0  0  0  0  0  0  0  0  0  0  0
   18.6544  -10.5065  -18.1523 C   0  0  0  0  0  0  0  0  0  0  0  0
   19.6446  -11.1744  -17.2239 C   0  0  2  0  0  0  0  0  0  0  0  0
   19.0261  -12.3819  -16.7324 N   0  0  0  0  0  0  0  0  0  0  0  0
   20.0385  -10.3226  -16.1020 C   0  0  0  0  0  0  0  0  0  0  0  0
   19.2220  -10.0848  -15.1763 O   0  0  0  0  0  0  0  0  0  0  0  0
   21.3251   -9.7234  -15.9805 N   0  0  0  0  0  0  0  0  0  0  0  0
   21.6508   -8.8215  -14.9049 C   0  0  1  0  0  0  0  0  0  0  0  0
   22.9418   -9.2053  -14.2123 C   0  0  0  0  0  0  0  0  0  0  0  0
   22.8094  -10.8087  -13.3879 S   0  0  0  0  0  0  0  0  0  0  0  0
   21.7218   -7.4149  -15.3500 C   0  0  0  0  0  0  0  0  0  0  0  0
   22.3410   -7.1493  -16.4085 O   0  0  0  0  0  0  0  0  0  0  0  0
   19.2352   -4.5118  -13.3761 C   0  0  0  0  0  0  0  0  0  0  0  0
   19.6123   -4.4839  -14.8268 C   0  0  1  0  0  0  0  0  0  0  0  0
   19.5640   -3.1595  -15.2744 O   0  0  0  0  0  0  0  0  0  0  0  0
   21.0143   -5.0136  -15.0784 C   0  0  2  0  0  0  0  0  0  0  0  0
   21.1065   -6.3761  -14.6048 N   0  0  0  0  0  0  0  0  0  0  0  0
   21.9763   -4.1840  -14.3221 C   0  0  0  0  0  0  0  0  0  0  0  0
   22.4171   -2.9451  -14.7713 O   0  0  0  0  0  0  0  0  0  0  0  0
   22.4235   -4.5997  -13.2280 O   0  0  0  0  0  0  0  0  0  0  0  0
  1  2  1  0
  3  5  1  0
  3  2  1  0
  3  4  1  1
  5  6  2  0
  7  8  1  0
  7  5  1  0
  8  9  1  6
  9 10  1  0
 11  8  1  0
 12 11  2  0
 14 13  1  1
 14 16  1  0
 15 14  1  0
 16 18  1  0
 16 17  1  1
 17 11  1  0
 18 19  1  0
 20 18  2  0
M  END
$$$$
