SCT.pdb
     RDKit          3D

 20 19  0  0  1  0  0  0  0  0999 V2000
   18.7645  -11.4667  -20.2162 O   0  0  0  0  0  0  0  0  0  0  0  0
   19.0991  -10.7922  -19.0610 C   0  0  0  0  0  0  0  0  0  0  0  0
   20.3889  -11.3172  -18.4702 C   0  0  2  0  0  0  0  0  0  0  0  0
   20.1337  -12.6591  -18.0048 N   0  0  0  0  0  0  0  0  0  0  0  0
   20.8890  -10.4935  -17.3698 C   0  0  0  0  0  0  0  0  0  0  0  0
   20.1780  -10.3078  -16.3500 O   0  0  0  0  0  0  0  0  0  0  0  0
   22.1678   -9.8659  -17.3725 N   0  0  0  0  0  0  0  0  0  0  0  0
   22.6923   -9.1925  -16.2115 C   0  0  1  0  0  0  0  0  0  0  0  0
   24.1472   -9.5336  -15.9653 C   0  0  0  0  0  0  0  0  0  0  0  0
   24.3403  -11.1994  -15.2899 S   0  0  0  0  0  0  0  0  0  0  0  0
   22.5289   -7.7266  -16.2876 C   0  0  0  0  0  0  0  0  0  0  0  0
   22.9646   -7.1243  -17.2985 O   0  0  0  0  0  0  0  0  0  0  0  0
   19.4857   -5.7981  -16.5519 C   0  0  0  0  0  0  0  0  0  0  0  0
   20.1604   -5.3133  -15.3040 C   0  0  1  0  0  0  0  0  0  0  0  0
   19.6048   -5.9824  -14.2083 O   0  0  0  0  0  0  0  0  0  0  0  0
   21.6569   -5.5780  -15.3059 C   0  0  2  0  0  0  0  0  0  0  0  0
   21.8940   -7.0025  -15.2457 N   0  0  0  0  0  0  0  0  0  0  0  0
   22.2502   -4.9487  -14.1071 C   0  0  0  0  0  0  0  0  0  0  0  0
   22.3631   -3.5718  -13.9580 O   0  0  0  0  0  0  0  0  0  0  0  0
   22.6745   -5.6720  -13.1761 O   0  0  0  0  0  0  0  0  0  0  0  0
  1  2  1  0
  3  5  1  0
  3  2  1  0
  3  4  1  1
  5  6  2  0
  7  8  1  0
  7  5  1  0
  8  9  1  6
  9 10  1  0
 11  8  1  0
 12 11  2  0
 14 13  1  6
 14 16  1  0
 15 14  1  0
 16 18  1  0
 16 17  1  1
 17 11  1  0
 18 19  1  0
 20 18  2  0
M  END
$$$$
