SCT.pdb
     RDKit          3D

 20 19  0  0  1  0  0  0  0  0999 V2000
   22.3035  -13.8672  -17.2636 O   0  0  0  0  0  0  0  0  0  0  0  0
   21.3717  -14.6076  -17.9601 C   0  0  0  0  0  0  0  0  0  0  0  0
   20.0007  -14.5016  -17.3296 C   0  0  2  0  0  0  0  0  0  0  0  0
   19.1083  -15.3351  -18.0985 N   0  0  0  0  0  0  0  0  0  0  0  0
   19.4948  -13.1297  -17.2921 C   0  0  0  0  0  0  0  0  0  0  0  0
   19.1016  -12.5755  -18.3496 O   0  0  0  0  0  0  0  0  0  0  0  0
   19.4136  -12.3514  -16.1018 N   0  0  0  0  0  0  0  0  0  0  0  0
   18.9809  -10.9770  -16.1142 C   0  0  1  0  0  0  0  0  0  0  0  0
   17.7037  -10.7758  -15.3255 C   0  0  0  0  0  0  0  0  0  0  0  0
   17.2971   -9.0238  -15.1432 S   0  0  0  0  0  0  0  0  0  0  0  0
   20.0227  -10.0530  -15.6219 C   0  0  0  0  0  0  0  0  0  0  0  0
   20.6183  -10.3321  -14.5533 O   0  0  0  0  0  0  0  0  0  0  0  0
   23.0731   -8.8059  -17.6933 C   0  0  0  0  0  0  0  0  0  0  0  0
   22.2609   -7.6509  -17.1893 C   0  0  1  0  0  0  0  0  0  0  0  0
   21.3741   -7.2564  -18.1968 O   0  0  0  0  0  0  0  0  0  0  0  0
   21.4446   -8.0019  -15.9565 C   0  0  2  0  0  0  0  0  0  0  0  0
   20.3526   -8.8706  -16.3334 N   0  0  0  0  0  0  0  0  0  0  0  0
   20.8844   -6.7568  -15.3897 C   0  0  0  0  0  0  0  0  0  0  0  0
   21.6614   -5.8178  -14.7222 O   0  0  0  0  0  0  0  0  0  0  0  0
   19.6593   -6.5217  -15.5067 O   0  0  0  0  0  0  0  0  0  0  0  0
  1  2  1  0
  3  5  1  0
  3  2  1  0
  3  4  1  6
  5  6  2  0
  7  8  1  0
  7  5  1  0
  8  9  1  1
  9 10  1  0
 11  8  1  0
 12 11  2  0
 14 13  1  6
 14 16  1  0
 15 14  1  0
 16 18  1  0
 16 17  1  6
 17 11  1  0
 18 19  1  0
 20 18  2  0
M  END
$$$$
