SCT.pdb
     RDKit          3D

 20 19  0  0  1  0  0  0  0  0999 V2000
   19.3802  -10.8020  -13.3201 O   0  0  0  0  0  0  0  0  0  0  0  0
   18.4234   -9.8856  -12.9375 C   0  0  0  0  0  0  0  0  0  0  0  0
   17.3354  -10.5368  -12.1123 C   0  0  2  0  0  0  0  0  0  0  0  0
   16.6717  -11.4989  -12.9584 N   0  0  0  0  0  0  0  0  0  0  0  0
   16.3636   -9.5763  -11.5903 C   0  0  0  0  0  0  0  0  0  0  0  0
   15.4818   -9.0991  -12.3484 O   0  0  0  0  0  0  0  0  0  0  0  0
   16.3455   -9.1286  -10.2380 N   0  0  0  0  0  0  0  0  0  0  0  0
   15.3714   -8.1812   -9.7586 C   0  0  1  0  0  0  0  0  0  0  0  0
   14.6611   -8.6757   -8.5158 C   0  0  0  0  0  0  0  0  0  0  0  0
   13.8648  -10.2753   -8.7903 S   0  0  0  0  0  0  0  0  0  0  0  0
   15.9576   -6.8499   -9.5025 C   0  0  0  0  0  0  0  0  0  0  0  0
   16.9886   -6.7731   -8.7915 O   0  0  0  0  0  0  0  0  0  0  0  0
   16.6860   -2.3281  -11.1758 C   0  0  0  0  0  0  0  0  0  0  0  0
   16.0493   -3.6836  -11.2465 C   0  0  1  0  0  0  0  0  0  0  0  0
   16.8202   -4.4948  -12.0858 O   0  0  0  0  0  0  0  0  0  0  0  0
   15.9617   -4.3617   -9.8893 C   0  0  2  0  0  0  0  0  0  0  0  0
   15.3763   -5.6742  -10.0437 N   0  0  0  0  0  0  0  0  0  0  0  0
   15.0874   -3.5542   -9.0124 C   0  0  0  0  0  0  0  0  0  0  0  0
   15.5838   -2.6412   -8.0899 O   0  0  0  0  0  0  0  0  0  0  0  0
   13.8438   -3.6853   -9.0906 O   0  0  0  0  0  0  0  0  0  0  0  0
  1  2  1  0
  3  5  1  0
  3  2  1  0
  3  4  1  6
  5  6  2  0
  7  8  1  0
  7  5  1  0
  8  9  1  1
  9 10  1  0
 11  8  1  0
 12 11  2  0
 14 13  1  1
 14 16  1  0
 15 14  1  0
 16 18  1  0
 16 17  1  6
 17 11  1  0
 18 19  1  0
 20 18  2  0
M  END
$$$$
