SCT.pdb
     RDKit          3D

 20 19  0  0  1  0  0  0  0  0999 V2000
   14.0921  -11.0981  -15.7963 O   0  0  0  0  0  0  0  0  0  0  0  0
   14.2643  -11.1508  -14.4291 C   0  0  0  0  0  0  0  0  0  0  0  0
   15.6853  -11.5219  -14.0665 C   0  0  2  0  0  0  0  0  0  0  0  0
   15.7800  -12.9609  -14.1167 N   0  0  0  0  0  0  0  0  0  0  0  0
   16.0802  -11.0411  -12.7428 C   0  0  0  0  0  0  0  0  0  0  0  0
   15.8640  -11.7488  -11.7266 O   0  0  0  0  0  0  0  0  0  0  0  0
   16.7135   -9.7854  -12.5164 N   0  0  0  0  0  0  0  0  0  0  0  0
   17.0353   -9.3183  -11.1918 C   0  0  1  0  0  0  0  0  0  0  0  0
   18.5178   -9.0572  -11.0254 C   0  0  0  0  0  0  0  0  0  0  0  0
   19.1564   -7.9691  -12.3202 S   0  0  0  0  0  0  0  0  0  0  0  0
   16.2704   -8.1114  -10.8178 C   0  0  0  0  0  0  0  0  0  0  0  0
   16.0765   -7.2284  -11.6879 O   0  0  0  0  0  0  0  0  0  0  0  0
   13.5077   -5.8903   -7.2890 C   0  0  0  0  0  0  0  0  0  0  0  0
   14.3360   -7.0463   -7.7635 C   0  0  1  0  0  0  0  0  0  0  0  0
   13.4989   -8.1540   -7.9342 O   0  0  0  0  0  0  0  0  0  0  0  0
   15.0240   -6.7691   -9.0899 C   0  0  2  0  0  0  0  0  0  0  0  0
   15.7601   -7.9419   -9.5048 N   0  0  0  0  0  0  0  0  0  0  0  0
   15.9765   -5.6539   -8.9049 C   0  0  0  0  0  0  0  0  0  0  0  0
   15.6448   -4.3300   -9.1660 O   0  0  0  0  0  0  0  0  0  0  0  0
   17.1364   -5.8939   -8.4961 O   0  0  0  0  0  0  0  0  0  0  0  0
  1  2  1  0
  3  5  1  0
  3  2  1  0
  3  4  1  1
  5  6  2  0
  7  8  1  0
  7  5  1  0
  8  9  1  6
  9 10  1  0
 11  8  1  0
 12 11  2  0
 14 13  1  6
 14 16  1  0
 15 14  1  0
 16 18  1  0
 16 17  1  1
 17 11  1  0
 18 19  1  0
 20 18  2  0
M  END
$$$$
