SCT.pdb
     RDKit          3D

 20 19  0  0  1  0  0  0  0  0999 V2000
   18.4017  -10.1231  -18.7738 O   0  0  0  0  0  0  0  0  0  0  0  0
   18.4482   -9.1001  -17.8504 C   0  0  0  0  0  0  0  0  0  0  0  0
   19.3249   -9.4611  -16.6716 C   0  0  2  0  0  0  0  0  0  0  0  0
   18.6238  -10.4628  -15.9053 N   0  0  0  0  0  0  0  0  0  0  0  0
   19.6402   -8.3126  -15.8225 C   0  0  0  0  0  0  0  0  0  0  0  0
   18.7883   -7.8832  -15.0040 O   0  0  0  0  0  0  0  0  0  0  0  0
   20.8864   -7.6234  -15.8591 N   0  0  0  0  0  0  0  0  0  0  0  0
   21.1561   -6.4849  -15.0180 C   0  0  1  0  0  0  0  0  0  0  0  0
   22.3507   -6.7147  -14.1159 C   0  0  0  0  0  0  0  0  0  0  0  0
   22.7455   -5.2458  -13.1388 S   0  0  0  0  0  0  0  0  0  0  0  0
   21.3479   -5.2429  -15.7940 C   0  0  0  0  0  0  0  0  0  0  0  0
   22.3105   -5.1771  -16.5961 O   0  0  0  0  0  0  0  0  0  0  0  0
   18.7105   -3.3511  -17.9579 C   0  0  0  0  0  0  0  0  0  0  0  0
   19.2592   -2.4522  -16.8909 C   0  0  1  0  0  0  0  0  0  0  0  0
   18.3721   -2.4516  -15.8092 O   0  0  0  0  0  0  0  0  0  0  0  0
   20.6178   -2.9061  -16.3834 C   0  0  2  0  0  0  0  0  0  0  0  0
   20.4684   -4.1395  -15.6448 N   0  0  0  0  0  0  0  0  0  0  0  0
   21.1526   -1.8715  -15.4730 C   0  0  0  0  0  0  0  0  0  0  0  0
   21.3153   -2.0810  -14.1090 O   0  0  0  0  0  0  0  0  0  0  0  0
   21.4783   -0.7526  -15.9333 O   0  0  0  0  0  0  0  0  0  0  0  0
  1  2  1  0
  3  5  1  0
  3  2  1  0
  3  4  1  1
  5  6  2  0
  7  8  1  0
  7  5  1  0
  8  9  1  6
  9 10  1  0
 11  8  1  0
 12 11  2  0
 14 13  1  6
 14 16  1  0
 15 14  1  0
 16 18  1  0
 16 17  1  1
 17 11  1  0
 18 19  1  0
 20 18  2  0
M  END
$$$$
