SCT.pdb
     RDKit          3D

 20 19  0  0  1  0  0  0  0  0999 V2000
   14.2999  -13.1376  -10.4666 O   0  0  0  0  0  0  0  0  0  0  0  0
   14.6888  -11.9270  -11.0001 C   0  0  0  0  0  0  0  0  0  0  0  0
   14.3792  -10.7846  -10.0580 C   0  0  2  0  0  0  0  0  0  0  0  0
   12.9463  -10.6145  -10.0449 N   0  0  0  0  0  0  0  0  0  0  0  0
   15.0273   -9.5326  -10.4476 C   0  0  0  0  0  0  0  0  0  0  0  0
   14.5066   -8.8028  -11.3287 O   0  0  0  0  0  0  0  0  0  0  0  0
   16.2478   -9.0664   -9.8798 N   0  0  0  0  0  0  0  0  0  0  0  0
   16.8171   -7.7902  -10.2313 C   0  0  1  0  0  0  0  0  0  0  0  0
   16.8345   -6.8329   -9.0579 C   0  0  0  0  0  0  0  0  0  0  0  0
   15.1701   -6.5125   -8.4292 S   0  0  0  0  0  0  0  0  0  0  0  0
   18.1767   -7.9147  -10.7946 C   0  0  0  0  0  0  0  0  0  0  0  0
   19.0853   -8.3931  -10.0734 O   0  0  0  0  0  0  0  0  0  0  0  0
   19.7581  -10.0172  -13.2645 C   0  0  0  0  0  0  0  0  0  0  0  0
   19.8095   -8.6176  -13.7994 C   0  0  1  0  0  0  0  0  0  0  0  0
   18.6931   -8.4116  -14.6168 O   0  0  0  0  0  0  0  0  0  0  0  0
   19.7863   -7.5686  -12.7000 C   0  0  2  0  0  0  0  0  0  0  0  0
   18.4626   -7.5055  -12.1227 N   0  0  0  0  0  0  0  0  0  0  0  0
   20.1063   -6.2534  -13.2941 C   0  0  0  0  0  0  0  0  0  0  0  0
   21.3974   -5.8826  -13.6497 O   0  0  0  0  0  0  0  0  0  0  0  0
   19.1871   -5.4254  -13.4926 O   0  0  0  0  0  0  0  0  0  0  0  0
  1  2  1  0
  3  5  1  0
  3  2  1  0
  3  4  1  6
  5  6  2  0
  7  8  1  0
  7  5  1  0
  8  9  1  1
  9 10  1  0
 11  8  1  0
 12 11  2  0
 14 13  1  1
 14 16  1  0
 15 14  1  0
 16 18  1  0
 16 17  1  6
 17 11  1  0
 18 19  1  0
 20 18  2  0
M  END
$$$$
