SCT.pdb
     RDKit          3D

 20 19  0  0  1  0  0  0  0  0999 V2000
   20.8975  -13.0966  -17.9755 O   0  0  0  0  0  0  0  0  0  0  0  0
   20.3122  -12.0602  -17.2793 C   0  0  0  0  0  0  0  0  0  0  0  0
   20.5266  -10.7360  -17.9785 C   0  0  2  0  0  0  0  0  0  0  0  0
   21.8699  -10.7407  -18.5056 N   0  0  0  0  0  0  0  0  0  0  0  0
   20.3415   -9.5868  -17.0927 C   0  0  0  0  0  0  0  0  0  0  0  0
   20.0762   -8.4571  -17.5757 O   0  0  0  0  0  0  0  0  0  0  0  0
   20.4443   -9.6603  -15.6738 N   0  0  0  0  0  0  0  0  0  0  0  0
   20.0170   -8.5820  -14.8187 C   0  0  1  0  0  0  0  0  0  0  0  0
   19.3528   -9.0875  -13.5550 C   0  0  0  0  0  0  0  0  0  0  0  0
   17.9101  -10.1138  -13.9204 S   0  0  0  0  0  0  0  0  0  0  0  0
   21.1222   -7.6664  -14.4702 C   0  0  0  0  0  0  0  0  0  0  0  0
   22.1799   -8.1513  -14.0004 O   0  0  0  0  0  0  0  0  0  0  0  0
   22.8254   -5.4363  -16.8652 C   0  0  0  0  0  0  0  0  0  0  0  0
   22.3460   -4.5669  -15.7418 C   0  0  1  0  0  0  0  0  0  0  0  0
   21.1385   -3.9720  -16.1228 O   0  0  0  0  0  0  0  0  0  0  0  0
   22.1014   -5.3465  -14.4605 C   0  0  2  0  0  0  0  0  0  0  0  0
   21.0031   -6.2651  -14.6579 N   0  0  0  0  0  0  0  0  0  0  0  0
   21.7354   -4.3948  -13.3902 C   0  0  0  0  0  0  0  0  0  0  0  0
   20.4494   -4.3042  -12.8715 O   0  0  0  0  0  0  0  0  0  0  0  0
   22.6086   -3.6298  -12.9189 O   0  0  0  0  0  0  0  0  0  0  0  0
  1  2  1  0
  3  5  1  0
  3  2  1  0
  3  4  1  1
  5  6  2  0
  7  8  1  0
  7  5  1  0
  8  9  1  1
  9 10  1  0
 11  8  1  0
 12 11  2  0
 14 13  1  6
 14 16  1  0
 15 14  1  0
 16 18  1  0
 16 17  1  6
 17 11  1  0
 18 19  1  0
 20 18  2  0
M  END
$$$$
