SCT.pdb
     RDKit          3D

 20 19  0  0  1  0  0  0  0  0999 V2000
   23.3055  -22.4285  -12.0511 O   0  0  0  0  0  0  0  0  0  0  0  0
   23.5333  -21.5510  -11.0120 C   0  0  0  0  0  0  0  0  0  0  0  0
   24.9117  -20.9345  -11.1034 C   0  0  2  0  0  0  0  0  0  0  0  0
   25.0804  -20.0855   -9.9489 N   0  0  0  0  0  0  0  0  0  0  0  0
   25.1093  -20.1584  -12.3274 C   0  0  0  0  0  0  0  0  0  0  0  0
   24.3981  -19.1466  -12.5519 O   0  0  0  0  0  0  0  0  0  0  0  0
   26.0835  -20.4792  -13.3159 N   0  0  0  0  0  0  0  0  0  0  0  0
   26.2932  -19.6554  -14.4794 C   0  0  1  0  0  0  0  0  0  0  0  0
   27.5291  -18.7900  -14.3480 C   0  0  0  0  0  0  0  0  0  0  0  0
   27.1250  -17.1286  -13.7609 S   0  0  0  0  0  0  0  0  0  0  0  0
   26.3671  -20.4460  -15.7248 C   0  0  0  0  0  0  0  0  0  0  0  0
   27.1965  -21.3851  -15.7929 O   0  0  0  0  0  0  0  0  0  0  0  0
   23.4200  -22.3382  -17.3414 C   0  0  0  0  0  0  0  0  0  0  0  0
   23.9883  -21.3278  -18.2921 C   0  0  1  0  0  0  0  0  0  0  0  0
   23.2497  -20.1451  -18.1792 O   0  0  0  0  0  0  0  0  0  0  0  0
   25.4437  -21.0020  -18.0005 C   0  0  2  0  0  0  0  0  0  0  0  0
   25.5230  -20.1596  -16.8286 N   0  0  0  0  0  0  0  0  0  0  0  0
   26.0032  -20.2636  -19.1524 C   0  0  0  0  0  0  0  0  0  0  0  0
   26.1841  -20.8440  -20.4020 O   0  0  0  0  0  0  0  0  0  0  0  0
   26.3339  -19.0630  -19.0146 O   0  0  0  0  0  0  0  0  0  0  0  0
  1  2  1  0
  3  5  1  0
  3  2  1  0
  3  4  1  1
  5  6  2  0
  7  8  1  0
  7  5  1  0
  8  9  1  1
  9 10  1  0
 11  8  1  0
 12 11  2  0
 14 13  1  1
 14 16  1  0
 15 14  1  0
 16 18  1  0
 16 17  1  1
 17 11  1  0
 18 19  1  0
 20 18  2  0
M  END
$$$$
