SCT.pdb
     RDKit          3D

 20 19  0  0  1  0  0  0  0  0999 V2000
   15.4934  -12.1012  -13.3178 O   0  0  0  0  0  0  0  0  0  0  0  0
   15.2989  -10.7692  -13.0190 C   0  0  0  0  0  0  0  0  0  0  0  0
   16.2721  -10.2934  -11.9631 C   0  0  2  0  0  0  0  0  0  0  0  0
   16.3865  -11.3432  -10.9796 N   0  0  0  0  0  0  0  0  0  0  0  0
   15.8516   -9.0492  -11.3192 C   0  0  0  0  0  0  0  0  0  0  0  0
   15.6181   -8.0289  -12.0152 O   0  0  0  0  0  0  0  0  0  0  0  0
   15.6825   -8.9077   -9.9118 N   0  0  0  0  0  0  0  0  0  0  0  0
   15.0814   -7.7358   -9.3274 C   0  0  1  0  0  0  0  0  0  0  0  0
   14.4071   -8.0414   -8.0062 C   0  0  0  0  0  0  0  0  0  0  0  0
   13.3332   -9.4912   -8.1211 S   0  0  0  0  0  0  0  0  0  0  0  0
   16.0488   -6.6337   -9.1513 C   0  0  0  0  0  0  0  0  0  0  0  0
   17.0796   -6.8416   -8.4668 O   0  0  0  0  0  0  0  0  0  0  0  0
   18.3266   -5.1625  -11.4581 C   0  0  0  0  0  0  0  0  0  0  0  0
   17.3951   -4.0611  -11.0495 C   0  0  1  0  0  0  0  0  0  0  0  0
   16.3485   -3.9961  -11.9754 O   0  0  0  0  0  0  0  0  0  0  0  0
   16.7909   -4.2847   -9.6731 C   0  0  2  0  0  0  0  0  0  0  0  0
   15.8285   -5.3611   -9.7389 N   0  0  0  0  0  0  0  0  0  0  0  0
   16.0919   -3.0503   -9.2570 C   0  0  0  0  0  0  0  0  0  0  0  0
   14.7078   -2.9623   -9.1703 O   0  0  0  0  0  0  0  0  0  0  0  0
   16.7596   -2.0306   -8.9666 O   0  0  0  0  0  0  0  0  0  0  0  0
  1  2  1  0
  3  5  1  0
  3  2  1  0
  3  4  1  1
  5  6  2  0
  7  8  1  0
  7  5  1  0
  8  9  1  1
  9 10  1  0
 11  8  1  0
 12 11  2  0
 14 13  1  6
 14 16  1  0
 15 14  1  0
 16 18  1  0
 16 17  1  6
 17 11  1  0
 18 19  1  0
 20 18  2  0
M  END
$$$$
