SCT.pdb
     RDKit          3D

 20 19  0  0  1  0  0  0  0  0999 V2000
   24.1919  -12.7744  -20.2637 O   0  0  0  0  0  0  0  0  0  0  0  0
   23.3223  -11.9717  -19.5559 C   0  0  0  0  0  0  0  0  0  0  0  0
   24.0673  -11.0202  -18.6460 C   0  0  2  0  0  0  0  0  0  0  0  0
   24.8021  -11.8202  -17.6961 N   0  0  0  0  0  0  0  0  0  0  0  0
   23.1813  -10.0948  -17.9401 C   0  0  0  0  0  0  0  0  0  0  0  0
   22.4252   -9.3293  -18.5900 O   0  0  0  0  0  0  0  0  0  0  0  0
   23.1126   -9.9969  -16.5206 N   0  0  0  0  0  0  0  0  0  0  0  0
   22.1426   -9.1630  -15.8572 C   0  0  1  0  0  0  0  0  0  0  0  0
   21.4815   -9.8742  -14.6949 C   0  0  0  0  0  0  0  0  0  0  0  0
   20.6146  -11.3682  -15.2285 S   0  0  0  0  0  0  0  0  0  0  0  0
   22.7191   -7.8834  -15.3971 C   0  0  0  0  0  0  0  0  0  0  0  0
   23.8661   -7.8886  -14.8886 O   0  0  0  0  0  0  0  0  0  0  0  0
   22.8598   -4.6269  -17.5452 C   0  0  0  0  0  0  0  0  0  0  0  0
   22.1918   -4.3588  -16.2301 C   0  0  1  0  0  0  0  0  0  0  0  0
   20.8061   -4.4072  -16.4161 O   0  0  0  0  0  0  0  0  0  0  0  0
   22.5587   -5.3810  -15.1670 C   0  0  2  0  0  0  0  0  0  0  0  0
   22.0007   -6.6662  -15.5220 N   0  0  0  0  0  0  0  0  0  0  0  0
   21.9763   -4.9525  -13.8777 C   0  0  0  0  0  0  0  0  0  0  0  0
   22.3866   -3.8041  -13.2114 O   0  0  0  0  0  0  0  0  0  0  0  0
   21.0735   -5.6416  -13.3485 O   0  0  0  0  0  0  0  0  0  0  0  0
  1  2  1  0
  3  5  1  0
  3  2  1  0
  3  4  1  1
  5  6  2  0
  7  8  1  0
  7  5  1  0
  8  9  1  1
  9 10  1  0
 11  8  1  0
 12 11  2  0
 14 13  1  6
 14 16  1  0
 15 14  1  0
 16 18  1  0
 16 17  1  6
 17 11  1  0
 18 19  1  0
 20 18  2  0
M  END
$$$$
