SCT.pdb
     RDKit          3D

 20 19  0  0  1  0  0  0  0  0999 V2000
   25.3058  -12.9109  -15.9189 O   0  0  0  0  0  0  0  0  0  0  0  0
   24.6250  -11.7120  -15.9384 C   0  0  0  0  0  0  0  0  0  0  0  0
   23.2484  -11.8698  -16.5455 C   0  0  2  0  0  0  0  0  0  0  0  0
   23.4279  -12.1721  -17.9450 N   0  0  0  0  0  0  0  0  0  0  0  0
   22.4184  -10.6748  -16.3950 C   0  0  0  0  0  0  0  0  0  0  0  0
   22.0727  -10.0177  -17.4093 O   0  0  0  0  0  0  0  0  0  0  0  0
   21.9588  -10.1871  -15.1380 N   0  0  0  0  0  0  0  0  0  0  0  0
   21.0849   -9.0462  -15.0330 C   0  0  1  0  0  0  0  0  0  0  0  0
   19.8836   -9.3291  -14.1551 C   0  0  0  0  0  0  0  0  0  0  0  0
   18.9660  -10.7799  -14.7217 S   0  0  0  0  0  0  0  0  0  0  0  0
   21.7864   -7.8410  -14.5464 C   0  0  0  0  0  0  0  0  0  0  0  0
   22.4995   -7.9338  -13.5182 O   0  0  0  0  0  0  0  0  0  0  0  0
   23.6652   -5.2402  -17.0295 C   0  0  0  0  0  0  0  0  0  0  0  0
   22.6949   -4.5876  -16.0912 C   0  0  1  0  0  0  0  0  0  0  0  0
   21.4809   -4.4047  -16.7619 O   0  0  0  0  0  0  0  0  0  0  0  0
   22.4249   -5.4244  -14.8517 C   0  0  2  0  0  0  0  0  0  0  0  0
   21.6648   -6.5976  -15.2190 N   0  0  0  0  0  0  0  0  0  0  0  0
   21.6252   -4.6206  -13.9032 C   0  0  0  0  0  0  0  0  0  0  0  0
   22.1182   -3.4796  -13.2819 O   0  0  0  0  0  0  0  0  0  0  0  0
   20.4513   -4.9679  -13.6363 O   0  0  0  0  0  0  0  0  0  0  0  0
  1  2  1  0
  3  5  1  0
  3  2  1  0
  3  4  1  6
  5  6  2  0
  7  8  1  0
  7  5  1  0
  8  9  1  1
  9 10  1  0
 11  8  1  0
 12 11  2  0
 14 13  1  6
 14 16  1  0
 15 14  1  0
 16 18  1  0
 16 17  1  6
 17 11  1  0
 18 19  1  0
 20 18  2  0
M  END
$$$$
