SCT.pdb
     RDKit          3D

 20 19  0  0  1  0  0  0  0  0999 V2000
   17.9082  -11.5367  -18.5160 O   0  0  0  0  0  0  0  0  0  0  0  0
   18.4137  -10.8185  -17.4529 C   0  0  0  0  0  0  0  0  0  0  0  0
   19.8675  -11.1537  -17.2030 C   0  0  2  0  0  0  0  0  0  0  0  0
   19.9214  -12.5226  -16.7497 N   0  0  0  0  0  0  0  0  0  0  0  0
   20.4935  -10.2753  -16.2150 C   0  0  0  0  0  0  0  0  0  0  0  0
   19.9829  -10.1486  -15.0734 O   0  0  0  0  0  0  0  0  0  0  0  0
   21.6807   -9.5284  -16.4637 N   0  0  0  0  0  0  0  0  0  0  0  0
   22.3769   -8.8263  -15.4155 C   0  0  1  0  0  0  0  0  0  0  0  0
   23.8181   -9.2746  -15.2909 C   0  0  0  0  0  0  0  0  0  0  0  0
   23.9433  -10.9568  -14.6408 S   0  0  0  0  0  0  0  0  0  0  0  0
   22.3227   -7.3602  -15.5857 C   0  0  0  0  0  0  0  0  0  0  0  0
   22.8478   -6.8532  -16.6063 O   0  0  0  0  0  0  0  0  0  0  0  0
   19.1064   -5.3357  -15.5904 C   0  0  0  0  0  0  0  0  0  0  0  0
   20.0291   -4.7731  -14.5513 C   0  0  1  0  0  0  0  0  0  0  0  0
   19.6789   -5.3088  -13.3074 O   0  0  0  0  0  0  0  0  0  0  0  0
   21.4865   -5.1134  -14.8153 C   0  0  2  0  0  0  0  0  0  0  0  0
   21.6926   -6.5309  -14.6222 N   0  0  0  0  0  0  0  0  0  0  0  0
   22.3271   -4.3771  -13.8476 C   0  0  0  0  0  0  0  0  0  0  0  0
   22.4641   -2.9945  -13.8693 O   0  0  0  0  0  0  0  0  0  0  0  0
   22.9496   -5.0102  -12.9634 O   0  0  0  0  0  0  0  0  0  0  0  0
  1  2  1  0
  3  5  1  0
  3  2  1  0
  3  4  1  1
  5  6  2  0
  7  8  1  0
  7  5  1  0
  8  9  1  6
  9 10  1  0
 11  8  1  0
 12 11  2  0
 14 13  1  6
 14 16  1  0
 15 14  1  0
 16 18  1  0
 16 17  1  1
 17 11  1  0
 18 19  1  0
 20 18  2  0
M  END
$$$$
