MGD.pdb
     RDKit          3D

 21 20  0  0  1  0  0  0  0  0999 V2000
    6.0879  -10.7024   26.2619 C   0  0  0  0  0  0  0  0  0  0  0  0
    6.6357  -11.9990   27.4057 S   0  0  0  0  0  0  0  0  0  0  0  0
    6.5099  -13.6427   26.6422 C   0  0  0  0  0  0  0  0  0  0  0  0
    6.9963  -13.6248   25.2153 C   0  0  0  0  0  0  0  0  0  0  0  0
    7.3383  -15.0080   24.7291 C   0  0  2  0  0  0  0  0  0  0  0  0
    8.0388  -15.6977   25.7932 N   0  0  0  0  0  0  0  0  0  0  0  0
    8.1382  -15.0034   23.4908 C   0  0  0  0  0  0  0  0  0  0  0  0
    7.5618  -14.7211   22.4112 O   0  0  0  0  0  0  0  0  0  0  0  0
    9.5218  -15.2986   23.4443 N   0  0  0  0  0  0  0  0  0  0  0  0
   10.3389  -15.2611   22.2809 C   0  0  0  0  0  0  0  0  0  0  0  0
   10.9956  -16.5265   21.9091 C   0  0  0  0  0  0  0  0  0  0  0  0
   11.7218  -16.5255   20.8926 O   0  0  0  0  0  0  0  0  0  0  0  0
   10.8281  -17.7077   22.6483 N   0  0  0  0  0  0  0  0  0  0  0  0
   11.6088  -18.9282   22.4194 C   0  0  1  0  0  0  0  0  0  0  0  0
   11.9292  -19.5846   23.7100 C   0  0  0  0  0  0  0  0  0  0  0  0
   12.6989  -18.7632   24.6626 C   0  0  0  0  0  0  0  0  0  0  0  0
   13.6960  -18.0866   24.3125 O   0  0  0  0  0  0  0  0  0  0  0  0
   10.8671  -19.8075   21.4671 C   0  0  0  0  0  0  0  0  0  0  0  0
   11.4390  -21.0163   21.0653 O   0  0  0  0  0  0  0  0  0  0  0  0
   12.3264  -18.7209   25.9988 O   0  0  0  0  0  0  0  0  0  0  0  0
    9.7444  -19.5509   20.9805 O   0  0  0  0  0  0  0  0  0  0  0  0
  2  1  1  0
  3  2  1  0
  4  5  1  0
  4  3  1  0
  5  6  1  1
  7  8  2  0
  7  5  1  0
  9  7  1  0
 10  9  1  0
 10 11  1  0
 11 13  1  0
 12 11  2  0
 13 14  1  0
 14 18  1  0
 14 15  1  1
 16 15  1  0
 17 16  2  0
 18 19  1  0
 20 16  1  0
 21 18  2  0
M  END
$$$$
