MGD.pdb
     RDKit          3D

 21 20  0  0  1  0  0  0  0  0999 V2000
    5.8292  -10.6834   27.9791 C   0  0  0  0  0  0  0  0  0  0  0  0
    6.9065  -11.5356   26.7948 S   0  0  0  0  0  0  0  0  0  0  0  0
    5.9430  -12.2603   25.4358 C   0  0  0  0  0  0  0  0  0  0  0  0
    6.8393  -12.9038   24.4084 C   0  0  0  0  0  0  0  0  0  0  0  0
    6.7998  -14.4059   24.5018 C   0  0  2  0  0  0  0  0  0  0  0  0
    7.2509  -14.7857   25.8250 N   0  0  0  0  0  0  0  0  0  0  0  0
    7.6059  -15.0704   23.4616 C   0  0  0  0  0  0  0  0  0  0  0  0
    7.2956  -14.8844   22.2589 O   0  0  0  0  0  0  0  0  0  0  0  0
    8.7130  -15.9085   23.7369 N   0  0  0  0  0  0  0  0  0  0  0  0
    9.5114  -16.5732   22.7657 C   0  0  0  0  0  0  0  0  0  0  0  0
   10.6667  -17.3275   23.2827 C   0  0  0  0  0  0  0  0  0  0  0  0
   11.1753  -18.1911   22.5370 O   0  0  0  0  0  0  0  0  0  0  0  0
   11.1971  -17.1086   24.5635 N   0  0  0  0  0  0  0  0  0  0  0  0
   12.3112  -17.8798   25.1252 C   0  0  1  0  0  0  0  0  0  0  0  0
   13.5636  -17.0872   25.0750 C   0  0  0  0  0  0  0  0  0  0  0  0
   13.9280  -16.5652   23.7448 C   0  0  0  0  0  0  0  0  0  0  0  0
   13.1867  -16.7064   22.7423 O   0  0  0  0  0  0  0  0  0  0  0  0
   11.9433  -18.3336   26.4995 C   0  0  0  0  0  0  0  0  0  0  0  0
   12.8189  -19.1629   27.2033 O   0  0  0  0  0  0  0  0  0  0  0  0
   15.1281  -15.8903   23.5709 O   0  0  0  0  0  0  0  0  0  0  0  0
   10.8878  -18.0292   27.0964 O   0  0  0  0  0  0  0  0  0  0  0  0
  2  1  1  0
  3  2  1  0
  4  5  1  0
  4  3  1  0
  5  6  1  1
  7  8  2  0
  7  5  1  0
  9  7  1  0
 10  9  1  0
 10 11  1  0
 11 13  1  0
 12 11  2  0
 13 14  1  0
 14 18  1  0
 14 15  1  1
 16 15  1  0
 17 16  2  0
 18 19  1  0
 20 16  1  0
 21 18  2  0
M  END
$$$$
