MGD.pdb
     RDKit          3D

 21 20  0  0  1  0  0  0  0  0999 V2000
    5.1686  -11.4856   27.0569 C   0  0  0  0  0  0  0  0  0  0  0  0
    6.7619  -11.9917   26.3534 S   0  0  0  0  0  0  0  0  0  0  0  0
    6.5426  -13.2864   25.0979 C   0  0  0  0  0  0  0  0  0  0  0  0
    7.8589  -13.6781   24.4762 C   0  0  0  0  0  0  0  0  0  0  0  0
    7.6764  -14.7131   23.3983 C   0  0  2  0  0  0  0  0  0  0  0  0
    6.9309  -15.8206   23.9606 N   0  0  0  0  0  0  0  0  0  0  0  0
    8.9514  -15.1775   22.8218 C   0  0  0  0  0  0  0  0  0  0  0  0
    9.6998  -14.3310   22.2736 O   0  0  0  0  0  0  0  0  0  0  0  0
    9.3853  -16.5246   22.8492 N   0  0  0  0  0  0  0  0  0  0  0  0
   10.6115  -17.0117   22.3184 C   0  0  0  0  0  0  0  0  0  0  0  0
   11.6011  -17.4846   23.3022 C   0  0  0  0  0  0  0  0  0  0  0  0
   12.7017  -17.8870   22.8691 O   0  0  0  0  0  0  0  0  0  0  0  0
   11.3447  -17.4978   24.6819 N   0  0  0  0  0  0  0  0  0  0  0  0
   12.2589  -18.0741   25.6737 C   0  0  1  0  0  0  0  0  0  0  0  0
   12.0970  -17.3929   26.9809 C   0  0  0  0  0  0  0  0  0  0  0  0
   10.7544  -17.4920   27.5829 C   0  0  0  0  0  0  0  0  0  0  0  0
    9.7971  -18.0552   26.9992 O   0  0  0  0  0  0  0  0  0  0  0  0
   12.0404  -19.5501   25.7354 C   0  0  0  0  0  0  0  0  0  0  0  0
   11.0210  -20.1232   24.9723 O   0  0  0  0  0  0  0  0  0  0  0  0
   10.5171  -16.9507   28.8385 O   0  0  0  0  0  0  0  0  0  0  0  0
   12.7085  -20.3452   26.4315 O   0  0  0  0  0  0  0  0  0  0  0  0
  2  1  1  0
  3  2  1  0
  4  5  1  0
  4  3  1  0
  5  6  1  1
  7  8  2  0
  7  5  1  0
  9  7  1  0
 10  9  1  0
 10 11  1  0
 11 13  1  0
 12 11  2  0
 13 14  1  0
 14 18  1  0
 14 15  1  1
 16 15  1  0
 17 16  2  0
 18 19  1  0
 20 16  1  0
 21 18  2  0
M  END
$$$$
