MGD.pdb
     RDKit          3D

 21 20  0  0  1  0  0  0  0  0999 V2000
    5.5528  -10.9769   26.5969 C   0  0  0  0  0  0  0  0  0  0  0  0
    6.8853  -12.0855   27.1308 S   0  0  0  0  0  0  0  0  0  0  0  0
    6.6610  -13.7552   26.4507 C   0  0  0  0  0  0  0  0  0  0  0  0
    7.4837  -13.9559   25.2034 C   0  0  0  0  0  0  0  0  0  0  0  0
    7.1213  -15.2372   24.5009 C   0  0  2  0  0  0  0  0  0  0  0  0
    7.1535  -16.3085   25.4756 N   0  0  0  0  0  0  0  0  0  0  0  0
    8.0039  -15.5394   23.3594 C   0  0  0  0  0  0  0  0  0  0  0  0
    8.1132  -14.6817   22.4485 O   0  0  0  0  0  0  0  0  0  0  0  0
    8.7387  -16.7420   23.2271 N   0  0  0  0  0  0  0  0  0  0  0  0
    9.5998  -17.0728   22.1447 C   0  0  0  0  0  0  0  0  0  0  0  0
   11.0347  -17.1698   22.4643 C   0  0  0  0  0  0  0  0  0  0  0  0
   11.7817  -17.7060   21.6186 O   0  0  0  0  0  0  0  0  0  0  0  0
   11.5725  -16.6893   23.6684 N   0  0  0  0  0  0  0  0  0  0  0  0
   12.6497  -17.3607   24.4034 C   0  0  1  0  0  0  0  0  0  0  0  0
   13.8157  -16.4561   24.5493 C   0  0  0  0  0  0  0  0  0  0  0  0
   14.3870  -15.9533   23.2862 C   0  0  0  0  0  0  0  0  0  0  0  0
   14.4763  -16.6677   22.2586 O   0  0  0  0  0  0  0  0  0  0  0  0
   12.1119  -17.8605   25.7038 C   0  0  0  0  0  0  0  0  0  0  0  0
   12.9250  -18.6453   26.5240 O   0  0  0  0  0  0  0  0  0  0  0  0
   14.8486  -14.6469   23.2068 O   0  0  0  0  0  0  0  0  0  0  0  0
   10.9620  -17.6331   26.1388 O   0  0  0  0  0  0  0  0  0  0  0  0
  2  1  1  0
  3  2  1  0
  4  5  1  0
  4  3  1  0
  5  6  1  1
  7  8  2  0
  7  5  1  0
  9  7  1  0
 10  9  1  0
 10 11  1  0
 11 13  1  0
 12 11  2  0
 13 14  1  0
 14 18  1  0
 14 15  1  1
 16 15  1  0
 17 16  2  0
 18 19  1  0
 20 16  1  0
 21 18  2  0
M  END
$$$$
