MGD.pdb
     RDKit          3D

 21 20  0  0  1  0  0  0  0  0999 V2000
    5.5277  -10.7797   28.2724 C   0  0  0  0  0  0  0  0  0  0  0  0
    6.1643  -11.2028   26.6275 S   0  0  0  0  0  0  0  0  0  0  0  0
    6.4786  -12.9864   26.4850 C   0  0  0  0  0  0  0  0  0  0  0  0
    6.9029  -13.3600   25.0874 C   0  0  0  0  0  0  0  0  0  0  0  0
    7.3219  -14.8035   25.0028 C   0  0  2  0  0  0  0  0  0  0  0  0
    8.3528  -15.0309   25.9948 N   0  0  0  0  0  0  0  0  0  0  0  0
    7.7910  -15.1909   23.6599 C   0  0  0  0  0  0  0  0  0  0  0  0
    6.9937  -15.7989   22.9036 O   0  0  0  0  0  0  0  0  0  0  0  0
    9.0903  -14.9179   23.1691 N   0  0  0  0  0  0  0  0  0  0  0  0
    9.6176  -15.3639   21.9259 C   0  0  0  0  0  0  0  0  0  0  0  0
   10.6472  -16.4154   21.9985 C   0  0  0  0  0  0  0  0  0  0  0  0
   11.1604  -16.7986   20.9259 O   0  0  0  0  0  0  0  0  0  0  0  0
   11.0553  -16.9874   23.2133 N   0  0  0  0  0  0  0  0  0  0  0  0
   12.4568  -17.2457   23.5606 C   0  0  1  0  0  0  0  0  0  0  0  0
   13.2233  -15.9765   23.5875 C   0  0  0  0  0  0  0  0  0  0  0  0
   14.5661  -16.0364   22.9808 C   0  0  0  0  0  0  0  0  0  0  0  0
   14.7515  -16.4075   21.7966 O   0  0  0  0  0  0  0  0  0  0  0  0
   12.5066  -18.0039   24.8462 C   0  0  0  0  0  0  0  0  0  0  0  0
   11.3729  -18.0453   25.6602 O   0  0  0  0  0  0  0  0  0  0  0  0
   15.6793  -15.6744   23.7262 O   0  0  0  0  0  0  0  0  0  0  0  0
   13.5040  -18.6244   25.2742 O   0  0  0  0  0  0  0  0  0  0  0  0
  2  1  1  0
  3  2  1  0
  4  5  1  0
  4  3  1  0
  5  6  1  1
  7  8  2  0
  7  5  1  0
  9  7  1  0
 10  9  1  0
 10 11  1  0
 11 13  1  0
 12 11  2  0
 13 14  1  0
 14 18  1  0
 14 15  1  1
 16 15  1  0
 17 16  2  0
 18 19  1  0
 20 16  1  0
 21 18  2  0
M  END
$$$$
