MGD.pdb
     RDKit          3D

 21 20  0  0  1  0  0  0  0  0999 V2000
    7.9450  -11.3631   27.4539 C   0  0  0  0  0  0  0  0  0  0  0  0
    6.2399  -11.7597   26.9797 S   0  0  0  0  0  0  0  0  0  0  0  0
    6.0841  -13.5022   26.4896 C   0  0  0  0  0  0  0  0  0  0  0  0
    6.4784  -13.7055   25.0488 C   0  0  0  0  0  0  0  0  0  0  0  0
    7.1367  -15.0429   24.8379 C   0  0  2  0  0  0  0  0  0  0  0  0
    8.0532  -15.2706   25.9364 N   0  0  0  0  0  0  0  0  0  0  0  0
    7.8337  -15.1455   23.5428 C   0  0  0  0  0  0  0  0  0  0  0  0
    7.1420  -15.1639   22.4947 O   0  0  0  0  0  0  0  0  0  0  0  0
    9.2406  -15.2246   23.4083 N   0  0  0  0  0  0  0  0  0  0  0  0
    9.9514  -15.3309   22.1811 C   0  0  0  0  0  0  0  0  0  0  0  0
   10.8451  -16.4947   22.0485 C   0  0  0  0  0  0  0  0  0  0  0  0
   11.4226  -16.6598   20.9531 O   0  0  0  0  0  0  0  0  0  0  0  0
   11.0577  -17.4045   23.0958 N   0  0  0  0  0  0  0  0  0  0  0  0
   12.2550  -17.4040   23.9432 C   0  0  1  0  0  0  0  0  0  0  0  0
   13.0271  -16.1537   23.7436 C   0  0  0  0  0  0  0  0  0  0  0  0
   14.3220  -16.3139   23.0564 C   0  0  0  0  0  0  0  0  0  0  0  0
   14.6826  -17.4037   22.5495 O   0  0  0  0  0  0  0  0  0  0  0  0
   11.8466  -17.6368   25.3607 C   0  0  0  0  0  0  0  0  0  0  0  0
   11.3040  -16.5825   26.0981 O   0  0  0  0  0  0  0  0  0  0  0  0
   15.1894  -15.2355   22.9539 O   0  0  0  0  0  0  0  0  0  0  0  0
   11.9505  -18.7252   25.9671 O   0  0  0  0  0  0  0  0  0  0  0  0
  2  1  1  0
  3  2  1  0
  4  5  1  0
  4  3  1  0
  5  6  1  1
  7  8  2  0
  7  5  1  0
  9  7  1  0
 10  9  1  0
 10 11  1  0
 11 13  1  0
 12 11  2  0
 13 14  1  0
 14 18  1  0
 14 15  1  1
 16 15  1  0
 17 16  2  0
 18 19  1  0
 20 16  1  0
 21 18  2  0
M  END
$$$$
