MGD.pdb
     RDKit          3D

 21 20  0  0  1  0  0  0  0  0999 V2000
    8.1189  -11.7710   27.7223 C   0  0  0  0  0  0  0  0  0  0  0  0
    6.5408  -11.7799   26.8282 S   0  0  0  0  0  0  0  0  0  0  0  0
    6.1502  -13.4408   26.2042 C   0  0  0  0  0  0  0  0  0  0  0  0
    7.1827  -13.9123   25.2121 C   0  0  0  0  0  0  0  0  0  0  0  0
    6.8413  -15.2709   24.6606 C   0  0  2  0  0  0  0  0  0  0  0  0
    6.7658  -16.1999   25.7696 N   0  0  0  0  0  0  0  0  0  0  0  0
    7.8030  -15.7409   23.6468 C   0  0  0  0  0  0  0  0  0  0  0  0
    8.8235  -16.3604   24.0368 O   0  0  0  0  0  0  0  0  0  0  0  0
    7.6454  -15.5358   22.2551 N   0  0  0  0  0  0  0  0  0  0  0  0
    8.5664  -15.9369   21.2484 C   0  0  0  0  0  0  0  0  0  0  0  0
    9.9905  -15.6967   21.5399 C   0  0  0  0  0  0  0  0  0  0  0  0
   10.3438  -14.5212   21.7725 O   0  0  0  0  0  0  0  0  0  0  0  0
   10.9401  -16.7299   21.5597 N   0  0  0  0  0  0  0  0  0  0  0  0
   12.2224  -16.6426   22.2664 C   0  0  1  0  0  0  0  0  0  0  0  0
   11.9994  -16.3676   23.7065 C   0  0  0  0  0  0  0  0  0  0  0  0
   13.1690  -15.8473   24.4388 C   0  0  0  0  0  0  0  0  0  0  0  0
   14.2875  -15.6903   23.8923 O   0  0  0  0  0  0  0  0  0  0  0  0
   13.0049  -17.8880   22.0079 C   0  0  0  0  0  0  0  0  0  0  0  0
   12.4251  -19.1289   22.2795 O   0  0  0  0  0  0  0  0  0  0  0  0
   13.0528  -15.5123   25.7805 O   0  0  0  0  0  0  0  0  0  0  0  0
   14.1703  -17.9216   21.5564 O   0  0  0  0  0  0  0  0  0  0  0  0
  2  1  1  0
  3  2  1  0
  4  5  1  0
  4  3  1  0
  5  6  1  1
  7  8  2  0
  7  5  1  0
  9  7  1  0
 10  9  1  0
 10 11  1  0
 11 13  1  0
 12 11  2  0
 13 14  1  0
 14 18  1  0
 14 15  1  1
 16 15  1  0
 17 16  2  0
 18 19  1  0
 20 16  1  0
 21 18  2  0
M  END
$$$$
