MGD.pdb
     RDKit          3D

 21 20  0  0  1  0  0  0  0  0999 V2000
    5.4797  -11.3358   26.4766 C   0  0  0  0  0  0  0  0  0  0  0  0
    7.0991  -11.8882   27.0784 S   0  0  0  0  0  0  0  0  0  0  0  0
    7.5800  -13.4644   26.3136 C   0  0  0  0  0  0  0  0  0  0  0  0
    6.3726  -14.2553   25.8784 C   0  0  0  0  0  0  0  0  0  0  0  0
    6.7669  -15.5423   25.2041 C   0  0  2  0  0  0  0  0  0  0  0  0
    7.5660  -16.3112   26.1361 N   0  0  0  0  0  0  0  0  0  0  0  0
    7.4934  -15.3321   23.9386 C   0  0  0  0  0  0  0  0  0  0  0  0
    6.9564  -14.6183   23.0557 O   0  0  0  0  0  0  0  0  0  0  0  0
    8.7645  -15.8877   23.6572 N   0  0  0  0  0  0  0  0  0  0  0  0
    9.5086  -15.6918   22.4611 C   0  0  0  0  0  0  0  0  0  0  0  0
   10.7819  -16.4264   22.3623 C   0  0  0  0  0  0  0  0  0  0  0  0
   10.7936  -17.4771   21.6866 O   0  0  0  0  0  0  0  0  0  0  0  0
   11.9553  -15.9887   22.9958 N   0  0  0  0  0  0  0  0  0  0  0  0
   12.9921  -16.8939   23.5030 C   0  0  1  0  0  0  0  0  0  0  0  0
   14.3360  -16.2971   23.3110 C   0  0  0  0  0  0  0  0  0  0  0  0
   14.6507  -15.8795   21.9322 C   0  0  0  0  0  0  0  0  0  0  0  0
   14.3047  -16.5528   20.9315 O   0  0  0  0  0  0  0  0  0  0  0  0
   12.6851  -17.2359   24.9239 C   0  0  0  0  0  0  0  0  0  0  0  0
   13.4789  -18.1728   25.5887 O   0  0  0  0  0  0  0  0  0  0  0  0
   15.3532  -14.7038   21.7082 O   0  0  0  0  0  0  0  0  0  0  0  0
   11.7511  -16.7441   25.5939 O   0  0  0  0  0  0  0  0  0  0  0  0
  2  1  1  0
  3  2  1  0
  4  5  1  0
  4  3  1  0
  5  6  1  1
  7  8  2  0
  7  5  1  0
  9  7  1  0
 10  9  1  0
 10 11  1  0
 11 13  1  0
 12 11  2  0
 13 14  1  0
 14 18  1  0
 14 15  1  1
 16 15  1  0
 17 16  2  0
 18 19  1  0
 20 16  1  0
 21 18  2  0
M  END
$$$$
