MGD.pdb
     RDKit          3D

 21 20  0  0  1  0  0  0  0  0999 V2000
    6.7362  -10.9598   25.9474 C   0  0  0  0  0  0  0  0  0  0  0  0
    6.6927  -12.4782   26.9385 S   0  0  0  0  0  0  0  0  0  0  0  0
    6.0248  -13.8686   25.9787 C   0  0  0  0  0  0  0  0  0  0  0  0
    7.0758  -14.4735   25.0830 C   0  0  0  0  0  0  0  0  0  0  0  0
    6.5251  -15.6214   24.2795 C   0  0  2  0  0  0  0  0  0  0  0  0
    5.9961  -16.6036   25.2036 N   0  0  0  0  0  0  0  0  0  0  0  0
    7.5241  -16.2296   23.3819 C   0  0  0  0  0  0  0  0  0  0  0  0
    7.1146  -16.9368   22.4282 O   0  0  0  0  0  0  0  0  0  0  0  0
    8.9221  -16.0642   23.5300 N   0  0  0  0  0  0  0  0  0  0  0  0
    9.8554  -15.9065   22.4686 C   0  0  0  0  0  0  0  0  0  0  0  0
   11.2755  -15.8520   22.8571 C   0  0  0  0  0  0  0  0  0  0  0  0
   12.1114  -15.6010   21.9632 O   0  0  0  0  0  0  0  0  0  0  0  0
   11.7050  -16.0728   24.1749 N   0  0  0  0  0  0  0  0  0  0  0  0
   12.5798  -17.1818   24.5702 C   0  0  1  0  0  0  0  0  0  0  0  0
   11.8028  -18.2194   25.2905 C   0  0  0  0  0  0  0  0  0  0  0  0
   11.2301  -17.7968   26.5820 C   0  0  0  0  0  0  0  0  0  0  0  0
   10.5151  -18.5561   27.2797 O   0  0  0  0  0  0  0  0  0  0  0  0
   13.2892  -17.6955   23.3606 C   0  0  0  0  0  0  0  0  0  0  0  0
   12.5574  -18.3371   22.3594 O   0  0  0  0  0  0  0  0  0  0  0  0
   11.4769  -16.5190   27.0638 O   0  0  0  0  0  0  0  0  0  0  0  0
   14.5191  -17.6008   23.1567 O   0  0  0  0  0  0  0  0  0  0  0  0
  2  1  1  0
  3  2  1  0
  4  5  1  0
  4  3  1  0
  5  6  1  1
  7  8  2  0
  7  5  1  0
  9  7  1  0
 10  9  1  0
 10 11  1  0
 11 13  1  0
 12 11  2  0
 13 14  1  0
 14 18  1  0
 14 15  1  6
 16 15  1  0
 17 16  2  0
 18 19  1  0
 20 16  1  0
 21 18  2  0
M  END
$$$$
