MGD.pdb
     RDKit          3D

 21 20  0  0  1  0  0  0  0  0999 V2000
    6.6743  -12.8471   22.2900 C   0  0  0  0  0  0  0  0  0  0  0  0
    6.7210  -12.7688   20.4785 S   0  0  0  0  0  0  0  0  0  0  0  0
    8.1936  -13.6073   19.8238 C   0  0  0  0  0  0  0  0  0  0  0  0
    8.3361  -13.3889   18.3389 C   0  0  0  0  0  0  0  0  0  0  0  0
    9.5090  -14.1475   17.7774 C   0  0  2  0  0  0  0  0  0  0  0  0
    9.2869  -15.5590   18.0159 N   0  0  0  0  0  0  0  0  0  0  0  0
   10.8001  -13.7163   18.3436 C   0  0  0  0  0  0  0  0  0  0  0  0
   11.1688  -12.5314   18.1498 O   0  0  0  0  0  0  0  0  0  0  0  0
   11.6527  -14.5596   19.0957 N   0  0  0  0  0  0  0  0  0  0  0  0
   12.8603  -14.1620   19.7331 C   0  0  0  0  0  0  0  0  0  0  0  0
   13.5625  -15.2060   20.4997 C   0  0  0  0  0  0  0  0  0  0  0  0
   12.9847  -16.3037   20.6475 O   0  0  0  0  0  0  0  0  0  0  0  0
   14.8338  -15.0034   21.0588 N   0  0  0  0  0  0  0  0  0  0  0  0
   15.5355  -16.0054   21.8682 C   0  0  1  0  0  0  0  0  0  0  0  0
   16.9521  -15.6116   22.0614 C   0  0  0  0  0  0  0  0  0  0  0  0
   17.6725  -15.2227   20.8349 C   0  0  0  0  0  0  0  0  0  0  0  0
   17.4333  -15.7481   19.7208 O   0  0  0  0  0  0  0  0  0  0  0  0
   14.7892  -16.2062   23.1461 C   0  0  0  0  0  0  0  0  0  0  0  0
   13.8035  -15.2882   23.5141 O   0  0  0  0  0  0  0  0  0  0  0  0
   18.6540  -14.2430   20.8897 O   0  0  0  0  0  0  0  0  0  0  0  0
   14.9734  -17.1521   23.9427 O   0  0  0  0  0  0  0  0  0  0  0  0
  2  1  1  0
  3  2  1  0
  4  5  1  0
  4  3  1  0
  5  6  1  1
  7  8  2  0
  7  5  1  0
  9  7  1  0
 10  9  1  0
 10 11  1  0
 11 13  1  0
 12 11  2  0
 13 14  1  0
 14 18  1  0
 14 15  1  1
 16 15  1  0
 17 16  2  0
 18 19  1  0
 20 16  1  0
 21 18  2  0
M  END
$$$$
