MGD.pdb
     RDKit          3D

 21 20  0  0  1  0  0  0  0  0999 V2000
    6.1232  -11.3213   27.5638 C   0  0  0  0  0  0  0  0  0  0  0  0
    6.5311  -12.9105   26.7906 S   0  0  0  0  0  0  0  0  0  0  0  0
    5.8018  -13.0388   25.1316 C   0  0  0  0  0  0  0  0  0  0  0  0
    6.2271  -14.3095   24.4408 C   0  0  0  0  0  0  0  0  0  0  0  0
    7.7071  -14.5473   24.5803 C   0  0  2  0  0  0  0  0  0  0  0  0
    8.3980  -13.3580   24.1255 N   0  0  0  0  0  0  0  0  0  0  0  0
    8.1724  -15.7379   23.8458 C   0  0  0  0  0  0  0  0  0  0  0  0
    7.6689  -16.8510   24.1370 O   0  0  0  0  0  0  0  0  0  0  0  0
    9.1558  -15.7026   22.8282 N   0  0  0  0  0  0  0  0  0  0  0  0
    9.6952  -16.8344   22.1570 C   0  0  0  0  0  0  0  0  0  0  0  0
   10.9103  -17.4207   22.7490 C   0  0  0  0  0  0  0  0  0  0  0  0
   11.3902  -18.4355   22.2006 O   0  0  0  0  0  0  0  0  0  0  0  0
   11.5274  -16.8834   23.8893 N   0  0  0  0  0  0  0  0  0  0  0  0
   12.6309  -17.5369   24.6011 C   0  0  1  0  0  0  0  0  0  0  0  0
   13.7541  -16.5877   24.7932 C   0  0  0  0  0  0  0  0  0  0  0  0
   14.4100  -16.1266   23.5555 C   0  0  0  0  0  0  0  0  0  0  0  0
   14.4434  -14.9168   23.2243 O   0  0  0  0  0  0  0  0  0  0  0  0
   12.1110  -18.1165   25.8754 C   0  0  0  0  0  0  0  0  0  0  0  0
   10.8264  -17.7791   26.3063 O   0  0  0  0  0  0  0  0  0  0  0  0
   15.0189  -17.0445   22.7113 O   0  0  0  0  0  0  0  0  0  0  0  0
   12.7423  -18.9013   26.6161 O   0  0  0  0  0  0  0  0  0  0  0  0
  2  1  1  0
  3  2  1  0
  4  5  1  0
  4  3  1  0
  5  6  1  6
  7  8  2  0
  7  5  1  0
  9  7  1  0
 10  9  1  0
 10 11  1  0
 11 13  1  0
 12 11  2  0
 13 14  1  0
 14 18  1  0
 14 15  1  1
 16 15  1  0
 17 16  2  0
 18 19  1  0
 20 16  1  0
 21 18  2  0
M  END
$$$$
