MGD.pdb
     RDKit          3D

 21 20  0  0  1  0  0  0  0  0999 V2000
    4.9006  -11.3141   26.5680 C   0  0  0  0  0  0  0  0  0  0  0  0
    6.5330  -11.4674   27.3436 S   0  0  0  0  0  0  0  0  0  0  0  0
    7.1947  -13.1485   27.1518 C   0  0  0  0  0  0  0  0  0  0  0  0
    7.1478  -13.5970   25.7132 C   0  0  0  0  0  0  0  0  0  0  0  0
    7.5824  -15.0308   25.5655 C   0  0  2  0  0  0  0  0  0  0  0  0
    8.7465  -15.2358   26.4029 N   0  0  0  0  0  0  0  0  0  0  0  0
    7.8677  -15.4066   24.1687 C   0  0  0  0  0  0  0  0  0  0  0  0
    7.3329  -16.4469   23.7114 O   0  0  0  0  0  0  0  0  0  0  0  0
    8.7108  -14.6633   23.3083 N   0  0  0  0  0  0  0  0  0  0  0  0
    9.2251  -15.1119   22.0606 C   0  0  0  0  0  0  0  0  0  0  0  0
   10.3408  -16.0718   22.1269 C   0  0  0  0  0  0  0  0  0  0  0  0
   10.8424  -16.4525   21.0479 O   0  0  0  0  0  0  0  0  0  0  0  0
   10.8421  -16.5614   23.3430 N   0  0  0  0  0  0  0  0  0  0  0  0
   12.2124  -17.0543   23.5185 C   0  0  1  0  0  0  0  0  0  0  0  0
   13.1825  -15.9418   23.3754 C   0  0  0  0  0  0  0  0  0  0  0  0
   14.4014  -16.2612   22.6094 C   0  0  0  0  0  0  0  0  0  0  0  0
   15.2884  -15.4059   22.3720 O   0  0  0  0  0  0  0  0  0  0  0  0
   12.3076  -17.7685   24.8265 C   0  0  0  0  0  0  0  0  0  0  0  0
   11.2002  -17.7891   25.6768 O   0  0  0  0  0  0  0  0  0  0  0  0
   14.5969  -17.5465   22.1237 O   0  0  0  0  0  0  0  0  0  0  0  0
   13.3221  -18.3686   25.2434 O   0  0  0  0  0  0  0  0  0  0  0  0
  2  1  1  0
  3  2  1  0
  4  5  1  0
  4  3  1  0
  5  6  1  1
  7  8  2  0
  7  5  1  0
  9  7  1  0
 10  9  1  0
 10 11  1  0
 11 13  1  0
 12 11  2  0
 13 14  1  0
 14 18  1  0
 14 15  1  1
 16 15  1  0
 17 16  2  0
 18 19  1  0
 20 16  1  0
 21 18  2  0
M  END
$$$$
