MGD.pdb
     RDKit          3D

 21 20  0  0  1  0  0  0  0  0999 V2000
    6.0177  -10.8374   26.3268 C   0  0  0  0  0  0  0  0  0  0  0  0
    6.8186  -12.0875   27.3687 S   0  0  0  0  0  0  0  0  0  0  0  0
    6.6575  -13.7457   26.6441 C   0  0  0  0  0  0  0  0  0  0  0  0
    7.4305  -13.8598   25.3548 C   0  0  0  0  0  0  0  0  0  0  0  0
    7.0823  -15.1207   24.6097 C   0  0  2  0  0  0  0  0  0  0  0  0
    7.1950  -16.2327   25.5314 N   0  0  0  0  0  0  0  0  0  0  0  0
    7.9234  -15.3387   23.4188 C   0  0  0  0  0  0  0  0  0  0  0  0
    7.9416  -14.4492   22.5323 O   0  0  0  0  0  0  0  0  0  0  0  0
    8.7152  -16.4939   23.2129 N   0  0  0  0  0  0  0  0  0  0  0  0
    9.5881  -16.7154   22.1122 C   0  0  0  0  0  0  0  0  0  0  0  0
   11.0155  -16.8772   22.4395 C   0  0  0  0  0  0  0  0  0  0  0  0
   11.7631  -17.3461   21.5552 O   0  0  0  0  0  0  0  0  0  0  0  0
   11.5454  -16.5292   23.6917 N   0  0  0  0  0  0  0  0  0  0  0  0
   12.6370  -17.2598   24.3444 C   0  0  1  0  0  0  0  0  0  0  0  0
   13.7937  -16.3606   24.5743 C   0  0  0  0  0  0  0  0  0  0  0  0
   14.3946  -15.7809   23.3587 C   0  0  0  0  0  0  0  0  0  0  0  0
   14.4896  -16.4234   22.2851 O   0  0  0  0  0  0  0  0  0  0  0  0
   12.1170  -17.8984   25.5901 C   0  0  0  0  0  0  0  0  0  0  0  0
   12.9686  -18.6969   26.3562 O   0  0  0  0  0  0  0  0  0  0  0  0
   14.8790  -14.4806   23.3785 O   0  0  0  0  0  0  0  0  0  0  0  0
   10.9501  -17.7799   26.0231 O   0  0  0  0  0  0  0  0  0  0  0  0
  2  1  1  0
  3  2  1  0
  4  5  1  0
  4  3  1  0
  5  6  1  1
  7  8  2  0
  7  5  1  0
  9  7  1  0
 10  9  1  0
 10 11  1  0
 11 13  1  0
 12 11  2  0
 13 14  1  0
 14 18  1  0
 14 15  1  1
 16 15  1  0
 17 16  2  0
 18 19  1  0
 20 16  1  0
 21 18  2  0
M  END
$$$$
