SVV.pdb
     RDKit          3D

 21 20  0  0  1  0  0  0  0  0999 V2000
   17.7684  -10.5245  -20.3240 O   0  0  0  0  0  0  0  0  0  0  0  0
   18.2021  -10.2651  -19.0373 C   0  0  0  0  0  0  0  0  0  0  0  0
   19.0048  -11.4443  -18.4768 C   0  0  2  0  0  0  0  0  0  0  0  0
   18.0727  -12.4927  -18.1067 N   0  0  0  0  0  0  0  0  0  0  0  0
   19.6811  -10.9768  -17.2635 C   0  0  0  0  0  0  0  0  0  0  0  0
   19.0334  -11.0048  -16.1698 O   0  0  0  0  0  0  0  0  0  0  0  0
   22.7378  -12.2209  -15.5850 C   0  0  0  0  0  0  0  0  0  0  0  0
   22.9513  -10.7229  -15.7842 C   0  0  2  0  0  0  0  0  0  0  0  0
   23.6570  -10.1416  -14.5847 C   0  0  0  0  0  0  0  0  0  0  0  0
   21.5958  -10.0253  -15.9330 C   0  0  2  0  0  0  0  0  0  0  0  0
   21.0111  -10.4922  -17.2139 N   0  0  0  0  0  0  0  0  0  0  0  0
   21.8414   -8.5776  -16.0197 C   0  0  0  0  0  0  0  0  0  0  0  0
   22.6912   -8.1858  -16.9061 O   0  0  0  0  0  0  0  0  0  0  0  0
   20.2882   -5.8890  -17.5842 C   0  0  0  0  0  0  0  0  0  0  0  0
   20.5222   -5.3870  -16.1993 C   0  0  1  0  0  0  0  0  0  0  0  0
   19.2715   -5.4913  -15.3497 C   0  0  0  0  0  0  0  0  0  0  0  0
   21.6221   -6.1368  -15.4732 C   0  0  2  0  0  0  0  0  0  0  0  0
   21.2647   -7.5343  -15.2627 N   0  0  0  0  0  0  0  0  0  0  0  0
   21.9353   -5.5142  -14.1827 C   0  0  0  0  0  0  0  0  0  0  0  0
   21.4320   -5.9658  -13.1339 O   0  0  0  0  0  0  0  0  0  0  0  0
   22.7804   -4.4206  -14.0370 O   0  0  0  0  0  0  0  0  0  0  0  0
  2  1  1  0
  2  3  1  0
  3  4  1  1
  5  3  1  0
  6  5  2  0
  8  7  1  1
  8 10  1  0
  9  8  1  0
 10 11  1  6
 10 12  1  0
 11  5  1  0
 12 18  1  0
 13 12  2  0
 15 14  1  6
 15 16  1  0
 17 15  1  0
 17 19  1  0
 17 18  1  1
 19 20  2  0
 19 21  1  0
M  END
$$$$
