SVV.pdb
     RDKit          3D

 21 20  0  0  1  0  0  0  0  0999 V2000
   23.9561  -13.0963  -14.9685 O   0  0  0  0  0  0  0  0  0  0  0  0
   23.3547  -11.9896  -15.5383 C   0  0  0  0  0  0  0  0  0  0  0  0
   22.1437  -12.3943  -16.3859 C   0  0  2  0  0  0  0  0  0  0  0  0
   22.6266  -13.0890  -17.5646 N   0  0  0  0  0  0  0  0  0  0  0  0
   21.4779  -11.1614  -16.8157 C   0  0  0  0  0  0  0  0  0  0  0  0
   21.9389  -10.5574  -17.8351 O   0  0  0  0  0  0  0  0  0  0  0  0
   18.0586  -10.4581  -18.1383 C   0  0  0  0  0  0  0  0  0  0  0  0
   18.2613   -9.5960  -16.8954 C   0  0  2  0  0  0  0  0  0  0  0  0
   17.5595   -8.2725  -17.0695 C   0  0  0  0  0  0  0  0  0  0  0  0
   19.7558   -9.3280  -16.6933 C   0  0  2  0  0  0  0  0  0  0  0  0
   20.3516  -10.5854  -16.1787 N   0  0  0  0  0  0  0  0  0  0  0  0
   19.8912   -8.2812  -15.6687 C   0  0  0  0  0  0  0  0  0  0  0  0
   19.5178   -8.5878  -14.4738 O   0  0  0  0  0  0  0  0  0  0  0  0
   22.0646   -4.5509  -15.9914 C   0  0  0  0  0  0  0  0  0  0  0  0
   21.9405   -5.3775  -14.7561 C   0  0  1  0  0  0  0  0  0  0  0  0
   22.0899   -4.5356  -13.5047 C   0  0  0  0  0  0  0  0  0  0  0  0
   20.6111   -6.0998  -14.6553 C   0  0  2  0  0  0  0  0  0  0  0  0
   20.3871   -6.9662  -15.8060 N   0  0  0  0  0  0  0  0  0  0  0  0
   19.4951   -5.1562  -14.5311 C   0  0  0  0  0  0  0  0  0  0  0  0
   18.8680   -4.7949  -15.5476 O   0  0  0  0  0  0  0  0  0  0  0  0
   19.0702   -4.6164  -13.3231 O   0  0  0  0  0  0  0  0  0  0  0  0
  2  1  1  0
  2  3  1  0
  3  4  1  6
  5  3  1  0
  6  5  2  0
  8  7  1  6
  8 10  1  0
  9  8  1  0
 10 11  1  1
 10 12  1  0
 11  5  1  0
 12 18  1  0
 13 12  2  0
 15 14  1  6
 15 16  1  0
 17 15  1  0
 17 19  1  0
 17 18  1  6
 19 20  2  0
 19 21  1  0
M  END
$$$$
