SVV.pdb
     RDKit          3D

 21 20  0  0  1  0  0  0  0  0999 V2000
   14.1714  -15.4496  -17.4645 O   0  0  0  0  0  0  0  0  0  0  0  0
   15.1522  -14.7128  -16.8271 C   0  0  0  0  0  0  0  0  0  0  0  0
   16.5512  -15.1611  -17.2639 C   0  0  2  0  0  0  0  0  0  0  0  0
   16.8537  -16.4153  -16.6002 N   0  0  0  0  0  0  0  0  0  0  0  0
   17.5019  -14.1487  -16.7957 C   0  0  0  0  0  0  0  0  0  0  0  0
   17.9772  -14.2722  -15.6230 O   0  0  0  0  0  0  0  0  0  0  0  0
   20.7896  -13.3540  -18.3410 C   0  0  0  0  0  0  0  0  0  0  0  0
   20.0499  -12.0295  -18.1744 C   0  0  2  0  0  0  0  0  0  0  0  0
   21.0259  -10.9399  -17.8073 C   0  0  0  0  0  0  0  0  0  0  0  0
   19.0184  -12.1542  -17.0489 C   0  0  2  0  0  0  0  0  0  0  0  0
   17.9362  -13.0341  -17.5541 N   0  0  0  0  0  0  0  0  0  0  0  0
   18.4655  -10.8151  -16.7942 C   0  0  0  0  0  0  0  0  0  0  0  0
   17.9125  -10.2167  -17.7929 O   0  0  0  0  0  0  0  0  0  0  0  0
   15.5746   -9.5686  -15.0415 C   0  0  0  0  0  0  0  0  0  0  0  0
   16.6867   -8.6798  -14.5966 C   0  0  1  0  0  0  0  0  0  0  0  0
   17.1654   -9.0401  -13.2044 C   0  0  0  0  0  0  0  0  0  0  0  0
   17.8929   -8.7326  -15.5139 C   0  0  2  0  0  0  0  0  0  0  0  0
   18.4463  -10.0791  -15.5893 N   0  0  0  0  0  0  0  0  0  0  0  0
   18.9385   -7.7996  -15.0808 C   0  0  0  0  0  0  0  0  0  0  0  0
   18.8034   -6.5752  -15.2806 O   0  0  0  0  0  0  0  0  0  0  0  0
   20.1087   -8.1923  -14.4423 O   0  0  0  0  0  0  0  0  0  0  0  0
  2  1  1  0
  2  3  1  0
  3  4  1  1
  5  3  1  0
  6  5  2  0
  8  7  1  1
  8 10  1  0
  9  8  1  0
 10 11  1  6
 10 12  1  0
 11  5  1  0
 12 18  1  0
 13 12  2  0
 15 14  1  6
 15 16  1  0
 17 15  1  0
 17 19  1  0
 17 18  1  1
 19 20  2  0
 19 21  1  0
M  END
$$$$
