SVV.pdb
     RDKit          3D

 21 20  0  0  1  0  0  0  0  0999 V2000
   19.6084  -15.3719  -20.2867 O   0  0  0  0  0  0  0  0  0  0  0  0
   19.8441  -14.6446  -19.1349 C   0  0  0  0  0  0  0  0  0  0  0  0
   21.3008  -14.7870  -18.6804 C   0  0  2  0  0  0  0  0  0  0  0  0
   21.5121  -16.1584  -18.2566 N   0  0  0  0  0  0  0  0  0  0  0  0
   21.4856  -13.9104  -17.5204 C   0  0  0  0  0  0  0  0  0  0  0  0
   20.9951  -14.2807  -16.4074 O   0  0  0  0  0  0  0  0  0  0  0  0
   24.5495  -11.2677  -17.2692 C   0  0  0  0  0  0  0  0  0  0  0  0
   23.8276  -11.7704  -16.0220 C   0  0  2  0  0  0  0  0  0  0  0  0
   24.3368  -13.1410  -15.6523 C   0  0  0  0  0  0  0  0  0  0  0  0
   22.3253  -11.8721  -16.3030 C   0  0  2  0  0  0  0  0  0  0  0  0
   22.1738  -12.6727  -17.5427 N   0  0  0  0  0  0  0  0  0  0  0  0
   21.8197  -10.5126  -16.5476 C   0  0  0  0  0  0  0  0  0  0  0  0
   22.0269  -10.0193  -17.7202 O   0  0  0  0  0  0  0  0  0  0  0  0
   18.5373   -9.3659  -17.2126 C   0  0  0  0  0  0  0  0  0  0  0  0
   19.0509   -8.4297  -16.1712 C   0  0  1  0  0  0  0  0  0  0  0  0
   18.5570   -8.8079  -14.7892 C   0  0  0  0  0  0  0  0  0  0  0  0
   20.5652   -8.3823  -16.1096 C   0  0  2  0  0  0  0  0  0  0  0  0
   21.1206   -9.6561  -15.6692 N   0  0  0  0  0  0  0  0  0  0  0  0
   21.0335   -7.3133  -15.2212 C   0  0  0  0  0  0  0  0  0  0  0  0
   21.4264   -7.5874  -14.0689 O   0  0  0  0  0  0  0  0  0  0  0  0
   21.0731   -5.9714  -15.5807 O   0  0  0  0  0  0  0  0  0  0  0  0
  2  1  1  0
  2  3  1  0
  3  4  1  1
  5  3  1  0
  6  5  2  0
  8  7  1  6
  8 10  1  0
  9  8  1  0
 10 11  1  6
 10 12  1  0
 11  5  1  0
 12 18  1  0
 13 12  2  0
 15 14  1  6
 15 16  1  0
 17 15  1  0
 17 19  1  0
 17 18  1  1
 19 20  2  0
 19 21  1  0
M  END
$$$$
