SVV.pdb
     RDKit          3D

 21 20  0  0  1  0  0  0  0  0999 V2000
   17.4163   -9.9706  -19.3555 O   0  0  0  0  0  0  0  0  0  0  0  0
   17.7097   -9.8188  -18.0131 C   0  0  0  0  0  0  0  0  0  0  0  0
   18.7394  -10.8562  -17.5521 C   0  0  2  0  0  0  0  0  0  0  0  0
   18.0319  -12.0742  -17.2043 N   0  0  0  0  0  0  0  0  0  0  0  0
   19.3793  -10.3312  -16.3426 C   0  0  0  0  0  0  0  0  0  0  0  0
   18.7552  -10.4417  -15.2404 O   0  0  0  0  0  0  0  0  0  0  0  0
   23.4414   -9.6685  -16.0708 C   0  0  0  0  0  0  0  0  0  0  0  0
   22.5682   -9.9271  -14.8461 C   0  0  2  0  0  0  0  0  0  0  0  0
   22.3222  -11.4074  -14.6951 C   0  0  0  0  0  0  0  0  0  0  0  0
   21.2167   -9.2276  -15.0207 C   0  0  2  0  0  0  0  0  0  0  0  0
   20.6492   -9.7051  -16.3055 N   0  0  0  0  0  0  0  0  0  0  0  0
   21.4673   -7.7813  -15.1175 C   0  0  0  0  0  0  0  0  0  0  0  0
   21.9837   -7.3548  -16.2188 O   0  0  0  0  0  0  0  0  0  0  0  0
   19.7020   -4.9589  -16.0852 C   0  0  0  0  0  0  0  0  0  0  0  0
   20.2854   -4.5778  -14.7665 C   0  0  1  0  0  0  0  0  0  0  0  0
   19.2921   -4.7765  -13.6391 C   0  0  0  0  0  0  0  0  0  0  0  0
   21.5285   -5.3717  -14.4148 C   0  0  2  0  0  0  0  0  0  0  0  0
   21.2126   -6.7723  -14.1631 N   0  0  0  0  0  0  0  0  0  0  0  0
   22.2127   -4.8087  -13.2460 C   0  0  0  0  0  0  0  0  0  0  0  0
   22.1263   -5.3778  -12.1388 O   0  0  0  0  0  0  0  0  0  0  0  0
   22.9764   -3.6482  -13.2821 O   0  0  0  0  0  0  0  0  0  0  0  0
  2  1  1  0
  2  3  1  0
  3  4  1  1
  5  3  1  0
  6  5  2  0
  8  7  1  6
  8 10  1  0
  9  8  1  0
 10 11  1  6
 10 12  1  0
 11  5  1  0
 12 18  1  0
 13 12  2  0
 15 14  1  6
 15 16  1  0
 17 15  1  0
 17 19  1  0
 17 18  1  1
 19 20  2  0
 19 21  1  0
M  END
$$$$
