SVV.pdb
     RDKit          3D

 21 20  0  0  1  0  0  0  0  0999 V2000
   27.7536  -16.8568  -17.1328 O   0  0  0  0  0  0  0  0  0  0  0  0
   27.0147  -17.8971  -16.6008 C   0  0  0  0  0  0  0  0  0  0  0  0
   27.9105  -18.8735  -15.8308 C   0  0  2  0  0  0  0  0  0  0  0  0
   28.6447  -19.6720  -16.7943 N   0  0  0  0  0  0  0  0  0  0  0  0
   27.0326  -19.7632  -15.0654 C   0  0  0  0  0  0  0  0  0  0  0  0
   26.5766  -20.7978  -15.6469 O   0  0  0  0  0  0  0  0  0  0  0  0
   27.6048  -20.8794  -11.3271 C   0  0  0  0  0  0  0  0  0  0  0  0
   26.1490  -20.4688  -11.5303 C   0  0  2  0  0  0  0  0  0  0  0  0
   25.2416  -21.4059  -10.7732 C   0  0  0  0  0  0  0  0  0  0  0  0
   25.7946  -20.5493  -13.0182 C   0  0  2  0  0  0  0  0  0  0  0  0
   26.6494  -19.5588  -13.7173 N   0  0  0  0  0  0  0  0  0  0  0  0
   24.3856  -20.1540  -13.1677 C   0  0  0  0  0  0  0  0  0  0  0  0
   24.0799  -18.9528  -12.8143 O   0  0  0  0  0  0  0  0  0  0  0  0
   20.0504  -19.9928  -15.3837 C   0  0  0  0  0  0  0  0  0  0  0  0
   21.4092  -20.5772  -15.1918 C   0  0  1  0  0  0  0  0  0  0  0  0
   22.4086  -19.9986  -16.1733 C   0  0  0  0  0  0  0  0  0  0  0  0
   21.9633  -20.3482  -13.7991 C   0  0  2  0  0  0  0  0  0  0  0  0
   23.3000  -20.9123  -13.6582 N   0  0  0  0  0  0  0  0  0  0  0  0
   21.0842  -20.9154  -12.7711 C   0  0  0  0  0  0  0  0  0  0  0  0
   21.1507  -22.1305  -12.4950 O   0  0  0  0  0  0  0  0  0  0  0  0
   20.1505  -20.1735  -12.0575 O   0  0  0  0  0  0  0  0  0  0  0  0
  2  1  1  0
  2  3  1  0
  3  4  1  6
  5  3  1  0
  6  5  2  0
  8  7  1  6
  8 10  1  0
  9  8  1  0
 10 11  1  6
 10 12  1  0
 11  5  1  0
 12 18  1  0
 13 12  2  0
 15 14  1  1
 15 16  1  0
 17 15  1  0
 17 19  1  0
 17 18  1  6
 19 20  2  0
 19 21  1  0
M  END
$$$$
