SVV.pdb
     RDKit          3D

 21 20  0  0  1  0  0  0  0  0999 V2000
   15.4888   -6.4806   -7.1698 O   0  0  0  0  0  0  0  0  0  0  0  0
   15.9524   -7.2309   -8.2344 C   0  0  0  0  0  0  0  0  0  0  0  0
   15.1819   -6.9030   -9.5180 C   0  0  2  0  0  0  0  0  0  0  0  0
   13.8295   -7.4095   -9.3775 N   0  0  0  0  0  0  0  0  0  0  0  0
   15.8336   -7.6222  -10.6162 C   0  0  0  0  0  0  0  0  0  0  0  0
   15.4443   -8.8058  -10.8697 O   0  0  0  0  0  0  0  0  0  0  0  0
   15.0868   -6.8004  -13.8525 C   0  0  0  0  0  0  0  0  0  0  0  0
   16.6082   -6.6934  -13.7965 C   0  0  2  0  0  0  0  0  0  0  0  0
   17.1965   -7.0419  -15.1408 C   0  0  0  0  0  0  0  0  0  0  0  0
   17.1553   -7.6786  -12.7591 C   0  0  2  0  0  0  0  0  0  0  0  0
   16.8720   -7.0974  -11.4239 N   0  0  0  0  0  0  0  0  0  0  0  0
   18.6122   -7.7640  -12.9434 C   0  0  0  0  0  0  0  0  0  0  0  0
   19.3030   -6.7364  -12.5854 O   0  0  0  0  0  0  0  0  0  0  0  0
   21.0288  -10.7602  -15.0920 C   0  0  0  0  0  0  0  0  0  0  0  0
   21.4483  -10.1077  -13.8180 C   0  0  1  0  0  0  0  0  0  0  0  0
   22.9519   -9.9299  -13.7516 C   0  0  0  0  0  0  0  0  0  0  0  0
   20.8250   -8.7401  -13.6175 C   0  0  2  0  0  0  0  0  0  0  0  0
   19.3789   -8.8318  -13.4591 N   0  0  0  0  0  0  0  0  0  0  0  0
   21.1370   -7.8389  -14.7319 C   0  0  0  0  0  0  0  0  0  0  0  0
   20.4123   -7.8292  -15.7477 O   0  0  0  0  0  0  0  0  0  0  0  0
   22.2176   -6.9650  -14.7399 O   0  0  0  0  0  0  0  0  0  0  0  0
  2  1  1  0
  2  3  1  0
  3  4  1  1
  5  3  1  0
  6  5  2  0
  8  7  1  6
  8 10  1  0
  9  8  1  0
 10 11  1  1
 10 12  1  0
 11  5  1  0
 12 18  1  0
 13 12  2  0
 15 14  1  6
 15 16  1  0
 17 15  1  0
 17 19  1  0
 17 18  1  6
 19 20  2  0
 19 21  1  0
M  END
$$$$
