SVV.pdb
     RDKit          3D

 21 20  0  0  1  0  0  0  0  0999 V2000
   22.2079  -19.1156   -8.9168 O   0  0  0  0  0  0  0  0  0  0  0  0
   23.2520  -19.4146   -9.7721 C   0  0  0  0  0  0  0  0  0  0  0  0
   22.9903  -20.7226  -10.5269 C   0  0  2  0  0  0  0  0  0  0  0  0
   23.1240  -21.8220   -9.5897 N   0  0  0  0  0  0  0  0  0  0  0  0
   24.0332  -20.8554  -11.5481 C   0  0  0  0  0  0  0  0  0  0  0  0
   25.2169  -21.1148  -11.1631 O   0  0  0  0  0  0  0  0  0  0  0  0
   24.3744  -23.4168  -13.9005 C   0  0  0  0  0  0  0  0  0  0  0  0
   24.4870  -22.1643  -14.7653 C   0  0  2  0  0  0  0  0  0  0  0  0
   25.5215  -22.3761  -15.8422 C   0  0  0  0  0  0  0  0  0  0  0  0
   24.9255  -20.9792  -13.8997 C   0  0  2  0  0  0  0  0  0  0  0  0
   23.8236  -20.7163  -12.9419 N   0  0  0  0  0  0  0  0  0  0  0  0
   25.0815  -19.8114  -14.7805 C   0  0  0  0  0  0  0  0  0  0  0  0
   23.9994  -19.2229  -15.1600 O   0  0  0  0  0  0  0  0  0  0  0  0
   27.3164  -16.5325  -14.4511 C   0  0  0  0  0  0  0  0  0  0  0  0
   27.3981  -17.1140  -15.8221 C   0  0  1  0  0  0  0  0  0  0  0  0
   28.6831  -17.8925  -16.0218 C   0  0  0  0  0  0  0  0  0  0  0  0
   26.2504  -18.0529  -16.1389 C   0  0  2  0  0  0  0  0  0  0  0  0
   26.2680  -19.2263  -15.2742 N   0  0  0  0  0  0  0  0  0  0  0  0
   26.2777  -18.4807  -17.5415 C   0  0  0  0  0  0  0  0  0  0  0  0
   25.9672  -17.6774  -18.4446 O   0  0  0  0  0  0  0  0  0  0  0  0
   26.6362  -19.7588  -17.9530 O   0  0  0  0  0  0  0  0  0  0  0  0
  2  1  1  0
  2  3  1  0
  3  4  1  1
  5  3  1  0
  6  5  2  0
  8  7  1  1
  8 10  1  0
  9  8  1  0
 10 11  1  1
 10 12  1  0
 11  5  1  0
 12 18  1  0
 13 12  2  0
 15 14  1  1
 15 16  1  0
 17 15  1  0
 17 19  1  0
 17 18  1  1
 19 20  2  0
 19 21  1  0
M  END
$$$$
