SVV.pdb
     RDKit          3D

 21 20  0  0  1  0  0  0  0  0999 V2000
   16.9760  -15.3332  -15.5192 O   0  0  0  0  0  0  0  0  0  0  0  0
   17.8892  -14.3493  -15.8494 C   0  0  0  0  0  0  0  0  0  0  0  0
   17.8831  -14.0738  -17.3571 C   0  0  2  0  0  0  0  0  0  0  0  0
   18.4077  -15.2446  -18.0345 N   0  0  0  0  0  0  0  0  0  0  0  0
   18.7934  -12.9513  -17.6011 C   0  0  0  0  0  0  0  0  0  0  0  0
   20.0086  -13.2142  -17.8667 O   0  0  0  0  0  0  0  0  0  0  0  0
   18.5508  -10.0637  -20.1639 C   0  0  0  0  0  0  0  0  0  0  0  0
   18.7107   -9.4975  -18.7557 C   0  0  2  0  0  0  0  0  0  0  0  0
   19.5531   -8.2473  -18.7984 C   0  0  0  0  0  0  0  0  0  0  0  0
   19.4152  -10.5253  -17.8649 C   0  0  2  0  0  0  0  0  0  0  0  0
   18.4218  -11.5850  -17.5638 N   0  0  0  0  0  0  0  0  0  0  0  0
   19.7909   -9.8528  -16.6117 C   0  0  0  0  0  0  0  0  0  0  0  0
   18.8262   -9.4704  -15.8473 O   0  0  0  0  0  0  0  0  0  0  0  0
   22.0539  -11.2049  -13.8272 C   0  0  0  0  0  0  0  0  0  0  0  0
   22.3739   -9.7626  -14.0318 C   0  0  1  0  0  0  0  0  0  0  0  0
   23.6616   -9.5823  -14.8105 C   0  0  0  0  0  0  0  0  0  0  0  0
   21.2883   -9.0132  -14.7796 C   0  0  2  0  0  0  0  0  0  0  0  0
   21.0802   -9.5665  -16.1120 N   0  0  0  0  0  0  0  0  0  0  0  0
   21.5994   -7.5841  -14.8884 C   0  0  0  0  0  0  0  0  0  0  0  0
   22.0536   -7.1243  -15.9559 O   0  0  0  0  0  0  0  0  0  0  0  0
   21.4194   -6.6729  -13.8546 O   0  0  0  0  0  0  0  0  0  0  0  0
  2  1  1  0
  2  3  1  0
  3  4  1  6
  5  3  1  0
  6  5  2  0
  8  7  1  6
  8 10  1  0
  9  8  1  0
 10 11  1  1
 10 12  1  0
 11  5  1  0
 12 18  1  0
 13 12  2  0
 15 14  1  6
 15 16  1  0
 17 15  1  0
 17 19  1  0
 17 18  1  6
 19 20  2  0
 19 21  1  0
M  END
$$$$
