SVV.pdb
     RDKit          3D

 21 20  0  0  1  0  0  0  0  0999 V2000
   19.2095  -19.4890  -14.4237 O   0  0  0  0  0  0  0  0  0  0  0  0
   19.4746  -20.3740  -13.3953 C   0  0  0  0  0  0  0  0  0  0  0  0
   20.9534  -20.3287  -12.9952 C   0  0  2  0  0  0  0  0  0  0  0  0
   21.7356  -20.8799  -14.0858 N   0  0  0  0  0  0  0  0  0  0  0  0
   21.1172  -21.1947  -11.8242 C   0  0  0  0  0  0  0  0  0  0  0  0
   21.3269  -22.4331  -12.0216 O   0  0  0  0  0  0  0  0  0  0  0  0
   23.4511  -20.4848   -8.7591 C   0  0  0  0  0  0  0  0  0  0  0  0
   22.0592  -20.8845   -8.2773 C   0  0  2  0  0  0  0  0  0  0  0  0
   22.1711  -21.7432   -7.0425 C   0  0  0  0  0  0  0  0  0  0  0  0
   21.3503  -21.6944   -9.3671 C   0  0  2  0  0  0  0  0  0  0  0  0
   21.0598  -20.7561  -10.4787 N   0  0  0  0  0  0  0  0  0  0  0  0
   20.0795  -22.1832   -8.8103 C   0  0  0  0  0  0  0  0  0  0  0  0
   19.1044  -21.3416   -8.7654 O   0  0  0  0  0  0  0  0  0  0  0  0
   16.5292  -25.4312   -8.0840 C   0  0  0  0  0  0  0  0  0  0  0  0
   17.8755  -25.0172   -8.5746 C   0  0  1  0  0  0  0  0  0  0  0  0
   17.8501  -24.6755  -10.0510 C   0  0  0  0  0  0  0  0  0  0  0  0
   18.4288  -23.8094   -7.8436 C   0  0  2  0  0  0  0  0  0  0  0  0
   19.7652  -23.4676   -8.3148 N   0  0  0  0  0  0  0  0  0  0  0  0
   18.4645  -24.0288   -6.3938 C   0  0  0  0  0  0  0  0  0  0  0  0
   19.5002  -24.4700   -5.8553 O   0  0  0  0  0  0  0  0  0  0  0  0
   17.3930  -23.7726   -5.5467 O   0  0  0  0  0  0  0  0  0  0  0  0
  2  1  1  0
  2  3  1  0
  3  4  1  6
  5  3  1  0
  6  5  2  0
  8  7  1  6
  8 10  1  0
  9  8  1  0
 10 11  1  6
 10 12  1  0
 11  5  1  0
 12 18  1  0
 13 12  2  0
 15 14  1  1
 15 16  1  0
 17 15  1  0
 17 19  1  0
 17 18  1  6
 19 20  2  0
 19 21  1  0
M  END
$$$$
