SVV.pdb
     RDKit          3D

 21 20  0  0  1  0  0  0  0  0999 V2000
   34.3341  -25.8175  -17.7107 O   0  0  0  0  0  0  0  0  0  0  0  0
   32.9992  -25.9964  -17.3993 C   0  0  0  0  0  0  0  0  0  0  0  0
   32.5414  -24.9938  -16.3344 C   0  0  2  0  0  0  0  0  0  0  0  0
   33.1851  -25.3380  -15.0805 N   0  0  0  0  0  0  0  0  0  0  0  0
   31.0940  -25.1575  -16.1717 C   0  0  0  0  0  0  0  0  0  0  0  0
   30.6733  -25.7531  -15.1302 O   0  0  0  0  0  0  0  0  0  0  0  0
   28.8512  -22.2535  -15.9597 C   0  0  0  0  0  0  0  0  0  0  0  0
   28.2218  -23.2009  -16.9773 C   0  0  2  0  0  0  0  0  0  0  0  0
   26.7190  -23.1587  -16.8561 C   0  0  0  0  0  0  0  0  0  0  0  0
   28.6890  -24.6338  -16.7039 C   0  0  2  0  0  0  0  0  0  0  0  0
   30.1193  -24.7003  -17.0919 N   0  0  0  0  0  0  0  0  0  0  0  0
   27.9158  -25.5334  -17.5738 C   0  0  0  0  0  0  0  0  0  0  0  0
   28.0331  -25.3533  -18.8447 O   0  0  0  0  0  0  0  0  0  0  0  0
   27.9756  -29.3211  -18.0280 C   0  0  0  0  0  0  0  0  0  0  0  0
   26.5523  -28.8848  -17.9364 C   0  0  1  0  0  0  0  0  0  0  0  0
   25.9696  -29.1676  -16.5661 C   0  0  0  0  0  0  0  0  0  0  0  0
   26.3659  -27.4045  -18.2068 C   0  0  2  0  0  0  0  0  0  0  0  0
   27.0527  -26.5906  -17.2114 N   0  0  0  0  0  0  0  0  0  0  0  0
   24.9458  -27.0390  -18.2395 C   0  0  0  0  0  0  0  0  0  0  0  0
   24.2597  -27.2931  -19.2503 O   0  0  0  0  0  0  0  0  0  0  0  0
   24.2856  -26.4088  -17.1915 O   0  0  0  0  0  0  0  0  0  0  0  0
  2  1  1  0
  2  3  1  0
  3  4  1  1
  5  3  1  0
  6  5  2  0
  8  7  1  1
  8 10  1  0
  9  8  1  0
 10 11  1  6
 10 12  1  0
 11  5  1  0
 12 18  1  0
 13 12  2  0
 15 14  1  1
 15 16  1  0
 17 15  1  0
 17 19  1  0
 17 18  1  1
 19 20  2  0
 19 21  1  0
M  END
$$$$
