SVV.pdb
     RDKit          3D

 21 20  0  0  1  0  0  0  0  0999 V2000
   18.0705  -14.3625  -19.3057 O   0  0  0  0  0  0  0  0  0  0  0  0
   18.5529  -13.6314  -18.2362 C   0  0  0  0  0  0  0  0  0  0  0  0
   19.7469  -14.3339  -17.5807 C   0  0  2  0  0  0  0  0  0  0  0  0
   19.2582  -15.5168  -16.8974 N   0  0  0  0  0  0  0  0  0  0  0  0
   20.2998  -13.4167  -16.5802 C   0  0  0  0  0  0  0  0  0  0  0  0
   19.6756  -13.2853  -15.4803 O   0  0  0  0  0  0  0  0  0  0  0  0
   23.8103  -13.3579  -15.0032 C   0  0  0  0  0  0  0  0  0  0  0  0
   23.4964  -11.9802  -15.5800 C   0  0  2  0  0  0  0  0  0  0  0  0
   24.0726  -10.9081  -14.6894 C   0  0  0  0  0  0  0  0  0  0  0  0
   21.9788  -11.7858  -15.6513 C   0  0  2  0  0  0  0  0  0  0  0  0
   21.4851  -12.6589  -16.7443 N   0  0  0  0  0  0  0  0  0  0  0  0
   21.7207  -10.3822  -16.0078 C   0  0  0  0  0  0  0  0  0  0  0  0
   22.1975   -9.9728  -17.1331 O   0  0  0  0  0  0  0  0  0  0  0  0
   18.8733   -8.7782  -17.2660 C   0  0  0  0  0  0  0  0  0  0  0  0
   19.3365   -7.8465  -16.1973 C   0  0  1  0  0  0  0  0  0  0  0  0
   18.5099   -7.9908  -14.9352 C   0  0  0  0  0  0  0  0  0  0  0  0
   20.7872   -8.0598  -15.8108 C   0  0  2  0  0  0  0  0  0  0  0  0
   21.0066   -9.4015  -15.2851 N   0  0  0  0  0  0  0  0  0  0  0  0
   21.2309   -7.0706  -14.8230 C   0  0  0  0  0  0  0  0  0  0  0  0
   21.4548   -5.8946  -15.1752 O   0  0  0  0  0  0  0  0  0  0  0  0
   21.4271   -7.3566  -13.4772 O   0  0  0  0  0  0  0  0  0  0  0  0
  2  1  1  0
  2  3  1  0
  3  4  1  1
  5  3  1  0
  6  5  2  0
  8  7  1  1
  8 10  1  0
  9  8  1  0
 10 11  1  6
 10 12  1  0
 11  5  1  0
 12 18  1  0
 13 12  2  0
 15 14  1  6
 15 16  1  0
 17 15  1  0
 17 19  1  0
 17 18  1  1
 19 20  2  0
 19 21  1  0
M  END
$$$$
