SVV.pdb
     RDKit          3D

 21 20  0  0  1  0  0  0  0  0999 V2000
   18.3048  -14.6951  -15.4656 O   0  0  0  0  0  0  0  0  0  0  0  0
   17.1401  -13.9576  -15.5695 C   0  0  0  0  0  0  0  0  0  0  0  0
   16.9052  -13.4967  -17.0121 C   0  0  2  0  0  0  0  0  0  0  0  0
   17.2035  -14.6068  -17.8974 N   0  0  0  0  0  0  0  0  0  0  0  0
   17.8566  -12.4164  -17.2876 C   0  0  0  0  0  0  0  0  0  0  0  0
   18.9277  -12.7072  -17.9077 O   0  0  0  0  0  0  0  0  0  0  0  0
   17.3171   -9.3421  -19.3643 C   0  0  0  0  0  0  0  0  0  0  0  0
   17.8141   -8.8988  -17.9910 C   0  0  2  0  0  0  0  0  0  0  0  0
   18.6969   -7.6843  -18.1328 C   0  0  0  0  0  0  0  0  0  0  0  0
   18.6367  -10.0230  -17.3541 C   0  0  2  0  0  0  0  0  0  0  0  0
   17.6743  -11.0625  -16.9137 N   0  0  0  0  0  0  0  0  0  0  0  0
   19.3162   -9.4700  -16.1724 C   0  0  0  0  0  0  0  0  0  0  0  0
   18.5635   -9.0610  -15.2094 O   0  0  0  0  0  0  0  0  0  0  0  0
   22.4811  -10.9696  -14.1992 C   0  0  0  0  0  0  0  0  0  0  0  0
   22.5562   -9.4857  -14.3298 C   0  0  1  0  0  0  0  0  0  0  0  0
   23.5285   -9.0702  -15.4156 C   0  0  0  0  0  0  0  0  0  0  0  0
   21.2192   -8.8495  -14.6567 C   0  0  2  0  0  0  0  0  0  0  0  0
   20.7003   -9.3261  -15.9328 N   0  0  0  0  0  0  0  0  0  0  0  0
   21.3132   -7.3861  -14.6848 C   0  0  0  0  0  0  0  0  0  0  0  0
   21.4206   -6.7475  -13.6180 O   0  0  0  0  0  0  0  0  0  0  0  0
   21.2907   -6.6324  -15.8522 O   0  0  0  0  0  0  0  0  0  0  0  0
  2  1  1  0
  2  3  1  0
  3  4  1  6
  5  3  1  0
  6  5  2  0
  8  7  1  6
  8 10  1  0
  9  8  1  0
 10 11  1  1
 10 12  1  0
 11  5  1  0
 12 18  1  0
 13 12  2  0
 15 14  1  6
 15 16  1  0
 17 15  1  0
 17 19  1  0
 17 18  1  6
 19 20  2  0
 19 21  1  0
M  END
$$$$
