SVV.pdb
     RDKit          3D

 21 20  0  0  1  0  0  0  0  0999 V2000
   33.7424   -1.2438  -17.1045 O   0  0  0  0  0  0  0  0  0  0  0  0
   32.8321   -0.2131  -17.2465 C   0  0  0  0  0  0  0  0  0  0  0  0
   31.6154   -0.6598  -18.0644 C   0  0  2  0  0  0  0  0  0  0  0  0
   31.9934   -0.6819  -19.4650 N   0  0  0  0  0  0  0  0  0  0  0  0
   30.5702    0.3515  -17.8830 C   0  0  0  0  0  0  0  0  0  0  0  0
   30.6505    1.4226  -18.5634 O   0  0  0  0  0  0  0  0  0  0  0  0
   27.0839    0.2721  -18.8384 C   0  0  0  0  0  0  0  0  0  0  0  0
   27.0965    0.5728  -17.3422 C   0  0  2  0  0  0  0  0  0  0  0  0
   25.9550    1.4953  -16.9951 C   0  0  0  0  0  0  0  0  0  0  0  0
   28.4098    1.2664  -16.9678 C   0  0  2  0  0  0  0  0  0  0  0  0
   29.4685    0.2278  -17.0014 N   0  0  0  0  0  0  0  0  0  0  0  0
   28.2775    1.7690  -15.5917 C   0  0  0  0  0  0  0  0  0  0  0  0
   28.2492    0.8868  -14.6525 O   0  0  0  0  0  0  0  0  0  0  0  0
   27.8161    5.8870  -14.1741 C   0  0  0  0  0  0  0  0  0  0  0  0
   28.6495    4.8591  -13.4860 C   0  0  1  0  0  0  0  0  0  0  0  0
   28.6789    5.0778  -11.9865 C   0  0  0  0  0  0  0  0  0  0  0  0
   28.1628    3.4429  -13.7238 C   0  0  2  0  0  0  0  0  0  0  0  0
   28.1822    3.1040  -15.1414 N   0  0  0  0  0  0  0  0  0  0  0  0
   26.8099    3.2436  -13.1936 C   0  0  0  0  0  0  0  0  0  0  0  0
   25.8174    3.5357  -13.8914 O   0  0  0  0  0  0  0  0  0  0  0  0
   26.5428    2.7360  -11.9278 O   0  0  0  0  0  0  0  0  0  0  0  0
  2  1  1  0
  2  3  1  0
  3  4  1  6
  5  3  1  0
  6  5  2  0
  8  7  1  6
  8 10  1  0
  9  8  1  0
 10 11  1  1
 10 12  1  0
 11  5  1  0
 12 18  1  0
 13 12  2  0
 15 14  1  6
 15 16  1  0
 17 15  1  0
 17 19  1  0
 17 18  1  6
 19 20  2  0
 19 21  1  0
M  END
$$$$
