VYI.pdb
     RDKit          3D

 28 28  0  0  1  0  0  0  0  0999 V2000
   19.8557  -21.4686  -11.5656 C   0  0  0  0  0  0  0  0  0  0  0  0
   19.5743  -20.6240  -12.8186 C   0  0  2  0  0  0  0  0  0  0  0  0
   18.2923  -21.1374  -13.3832 C   0  0  0  0  0  0  0  0  0  0  0  0
   20.7653  -20.7698  -13.7470 C   0  0  2  0  0  0  0  0  0  0  0  0
   20.7956  -22.1714  -14.2064 N   0  0  0  0  0  0  0  0  0  0  0  0
   22.0541  -20.4799  -13.1242 C   0  0  0  0  0  0  0  0  0  0  0  0
   22.3508  -19.2740  -12.8374 O   0  0  0  0  0  0  0  0  0  0  0  0
   28.6673  -19.5280   -7.8137 O   0  0  0  0  0  0  0  0  0  0  0  0
   27.6786  -20.1154   -8.6080 C   0  0  0  0  0  0  0  0  0  0  0  0
   28.0059  -20.9805   -9.6390 C   0  0  0  0  0  0  0  0  0  0  0  0
   27.0614  -21.5788  -10.4433 C   0  0  0  0  0  0  0  0  0  0  0  0
   25.7236  -21.3269  -10.2399 C   0  0  0  0  0  0  0  0  0  0  0  0
   24.6585  -21.9423  -11.0746 C   0  0  0  0  0  0  0  0  0  0  0  0
   24.3631  -21.0526  -12.2863 C   0  0  2  0  0  0  0  0  0  0  0  0
   23.0556  -21.4262  -12.7870 N   0  0  0  0  0  0  0  0  0  0  0  0
   25.4141  -21.2189  -13.3225 C   0  0  0  0  0  0  0  0  0  0  0  0
   25.5019  -22.3274  -13.8706 O   0  0  0  0  0  0  0  0  0  0  0  0
   25.3728  -20.4691   -9.2198 C   0  0  0  0  0  0  0  0  0  0  0  0
   26.3358  -19.8803   -8.4256 C   0  0  0  0  0  0  0  0  0  0  0  0
   28.3615  -16.9036  -16.6272 C   0  0  0  0  0  0  0  0  0  0  0  0
   28.1637  -18.4004  -16.3666 C   0  0  0  0  0  0  0  0  0  0  0  0
   27.3921  -18.5553  -15.1008 C   0  0  2  0  0  0  0  0  0  0  0  0
   28.2787  -17.9805  -13.9912 C   0  0  0  0  0  0  0  0  0  0  0  0
   27.0903  -20.0120  -14.8227 C   0  0  2  0  0  0  0  0  0  0  0  0
   26.2664  -20.1589  -13.6589 N   0  0  0  0  0  0  0  0  0  0  0  0
   28.2838  -20.8591  -14.8070 C   0  0  0  0  0  0  0  0  0  0  0  0
   28.9017  -21.3783  -15.9178 O   0  0  0  0  0  0  0  0  0  0  0  0
   28.8054  -21.1484  -13.6771 O   0  0  0  0  0  0  0  0  0  0  0  0
  2  1  1  1
  3  2  1  0
  4  2  1  0
  4  5  1  1
  6  7  2  0
  6  4  1  0
  9  8  1  0
 10  9  2  0
 11 12  2  0
 11 10  1  0
 12 18  1  0
 14 13  1  1
 13 12  1  0
 14 15  1  0
 15  6  1  0
 16 17  2  0
 16 14  1  0
 18 19  2  0
 19  9  1  0
 20 21  1  0
 21 22  1  0
 22 24  1  0
 22 23  1  1
 24 25  1  1
 25 16  1  0
 26 24  1  0
 27 26  1  0
 28 26  2  0
M  END
$$$$
