VYI.pdb
     RDKit          3D

 28 28  0  0  1  0  0  0  0  0999 V2000
   19.7367  -13.6886  -19.6917 C   0  0  0  0  0  0  0  0  0  0  0  0
   20.0706  -14.0412  -18.2334 C   0  0  2  0  0  0  0  0  0  0  0  0
   20.1880  -15.5278  -18.1846 C   0  0  0  0  0  0  0  0  0  0  0  0
   18.9662  -13.4757  -17.3605 C   0  0  2  0  0  0  0  0  0  0  0  0
   17.6892  -14.0214  -17.8584 N   0  0  0  0  0  0  0  0  0  0  0  0
   18.8648  -12.0190  -17.3848 C   0  0  0  0  0  0  0  0  0  0  0  0
   19.3096  -11.3797  -18.3937 O   0  0  0  0  0  0  0  0  0  0  0  0
   14.6644  -10.1446  -21.6927 O   0  0  0  0  0  0  0  0  0  0  0  0
   15.1953   -9.9325  -20.4172 C   0  0  0  0  0  0  0  0  0  0  0  0
   15.1458  -10.9187  -19.4458 C   0  0  0  0  0  0  0  0  0  0  0  0
   15.6573  -10.7483  -18.1784 C   0  0  0  0  0  0  0  0  0  0  0  0
   16.2509   -9.5566  -17.8293 C   0  0  0  0  0  0  0  0  0  0  0  0
   16.8207   -9.3131  -16.4780 C   0  0  0  0  0  0  0  0  0  0  0  0
   18.2882   -9.7519  -16.4417 C   0  0  2  0  0  0  0  0  0  0  0  0
   18.3039  -11.1992  -16.3722 N   0  0  0  0  0  0  0  0  0  0  0  0
   18.9856   -9.1405  -15.2816 C   0  0  0  0  0  0  0  0  0  0  0  0
   18.7301   -9.5989  -14.1585 O   0  0  0  0  0  0  0  0  0  0  0  0
   16.3122   -8.5597  -18.7791 C   0  0  0  0  0  0  0  0  0  0  0  0
   15.7932   -8.7517  -20.0434 C   0  0  0  0  0  0  0  0  0  0  0  0
   23.6530   -9.5976  -14.0150 C   0  0  0  0  0  0  0  0  0  0  0  0
   22.1687   -9.2178  -14.0191 C   0  0  0  0  0  0  0  0  0  0  0  0
   22.0566   -7.7791  -14.3921 C   0  0  2  0  0  0  0  0  0  0  0  0
   22.7846   -6.9985  -13.2929 C   0  0  0  0  0  0  0  0  0  0  0  0
   20.6079   -7.3472  -14.4638 C   0  0  2  0  0  0  0  0  0  0  0  0
   19.8935   -8.0885  -15.4612 N   0  0  0  0  0  0  0  0  0  0  0  0
   20.4394   -5.8977  -14.5776 C   0  0  0  0  0  0  0  0  0  0  0  0
   19.9280   -5.2428  -15.6706 O   0  0  0  0  0  0  0  0  0  0  0  0
   20.7917   -5.1685  -13.5894 O   0  0  0  0  0  0  0  0  0  0  0  0
  2  1  1  6
  3  2  1  0
  4  2  1  0
  4  5  1  6
  6  7  2  0
  6  4  1  0
  9  8  1  0
 10  9  2  0
 11 12  2  0
 11 10  1  0
 12 18  1  0
 14 13  1  1
 13 12  1  0
 14 15  1  0
 15  6  1  0
 16 17  2  0
 16 14  1  0
 18 19  2  0
 19  9  1  0
 20 21  1  0
 21 22  1  0
 22 24  1  0
 22 23  1  1
 24 25  1  6
 25 16  1  0
 26 24  1  0
 27 26  1  0
 28 26  2  0
M  END
$$$$
