VYI.pdb
     RDKit          3D

 28 28  0  0  1  0  0  0  0  0999 V2000
   25.7527  -19.8471  -14.8230 C   0  0  0  0  0  0  0  0  0  0  0  0
   27.0434  -19.0359  -14.6263 C   0  0  2  0  0  0  0  0  0  0  0  0
   27.7618  -19.0797  -15.9332 C   0  0  0  0  0  0  0  0  0  0  0  0
   27.8078  -19.6623  -13.4752 C   0  0  2  0  0  0  0  0  0  0  0  0
   28.0340  -21.0794  -13.8172 N   0  0  0  0  0  0  0  0  0  0  0  0
   27.1079  -19.6221  -12.1941 C   0  0  0  0  0  0  0  0  0  0  0  0
   26.6954  -18.5034  -11.7437 O   0  0  0  0  0  0  0  0  0  0  0  0
   20.7126  -19.1732  -13.0599 O   0  0  0  0  0  0  0  0  0  0  0  0
   21.7554  -19.7565  -12.3346 C   0  0  0  0  0  0  0  0  0  0  0  0
   22.0040  -19.3978  -11.0200 C   0  0  0  0  0  0  0  0  0  0  0  0
   23.0210  -19.9491  -10.2725 C   0  0  0  0  0  0  0  0  0  0  0  0
   23.8454  -20.9018  -10.8269 C   0  0  0  0  0  0  0  0  0  0  0  0
   24.9591  -21.5328  -10.0710 C   0  0  0  0  0  0  0  0  0  0  0  0
   26.1793  -20.6063  -10.0656 C   0  0  2  0  0  0  0  0  0  0  0  0
   26.8217  -20.7319  -11.3584 N   0  0  0  0  0  0  0  0  0  0  0  0
   27.1015  -20.9669   -8.9586 C   0  0  0  0  0  0  0  0  0  0  0  0
   27.8959  -21.8970   -9.1606 O   0  0  0  0  0  0  0  0  0  0  0  0
   23.6179  -21.2753  -12.1339 C   0  0  0  0  0  0  0  0  0  0  0  0
   22.5928  -20.7099  -12.8650 C   0  0  0  0  0  0  0  0  0  0  0  0
   30.4336  -18.5818   -4.6405 C   0  0  0  0  0  0  0  0  0  0  0  0
   29.5224  -19.7718   -4.9586 C   0  0  0  0  0  0  0  0  0  0  0  0
   28.7023  -19.4247   -6.1537 C   0  0  2  0  0  0  0  0  0  0  0  0
   27.8805  -18.1927   -5.7603 C   0  0  0  0  0  0  0  0  0  0  0  0
   27.7813  -20.5648   -6.5310 C   0  0  2  0  0  0  0  0  0  0  0  0
   27.0663  -20.2769   -7.7396 N   0  0  0  0  0  0  0  0  0  0  0  0
   26.9212  -21.0043   -5.4313 C   0  0  0  0  0  0  0  0  0  0  0  0
   27.3495  -21.6612   -4.3042 O   0  0  0  0  0  0  0  0  0  0  0  0
   25.6686  -20.7654   -5.5105 O   0  0  0  0  0  0  0  0  0  0  0  0
  2  1  1  6
  3  2  1  0
  4  2  1  0
  4  5  1  6
  6  7  2  0
  6  4  1  0
  9  8  1  0
 10  9  2  0
 11 12  2  0
 11 10  1  0
 12 18  1  0
 14 13  1  6
 13 12  1  0
 14 15  1  0
 15  6  1  0
 16 17  2  0
 16 14  1  0
 18 19  2  0
 19  9  1  0
 20 21  1  0
 21 22  1  0
 22 24  1  0
 22 23  1  1
 24 25  1  6
 25 16  1  0
 26 24  1  0
 27 26  1  0
 28 26  2  0
M  END
$$$$
