VYI.pdb
     RDKit          3D

 28 28  0  0  1  0  0  0  0  0999 V2000
   27.6811  -18.5240  -17.9858 C   0  0  0  0  0  0  0  0  0  0  0  0
   27.3030  -19.9424  -18.4416 C   0  0  2  0  0  0  0  0  0  0  0  0
   27.8554  -20.0941  -19.8193 C   0  0  0  0  0  0  0  0  0  0  0  0
   25.7929  -20.0630  -18.3603 C   0  0  2  0  0  0  0  0  0  0  0  0
   25.2219  -19.0746  -19.2948 N   0  0  0  0  0  0  0  0  0  0  0  0
   25.2371  -19.7938  -17.0368 C   0  0  0  0  0  0  0  0  0  0  0  0
   25.3125  -18.6156  -16.5567 O   0  0  0  0  0  0  0  0  0  0  0  0
   19.7325  -16.7916  -17.8011 O   0  0  0  0  0  0  0  0  0  0  0  0
   20.4372  -17.7486  -17.0654 C   0  0  0  0  0  0  0  0  0  0  0  0
   21.0241  -18.8403  -17.6836 C   0  0  0  0  0  0  0  0  0  0  0  0
   21.7261  -19.8039  -16.9940 C   0  0  0  0  0  0  0  0  0  0  0  0
   21.8694  -19.7074  -15.6285 C   0  0  0  0  0  0  0  0  0  0  0  0
   22.6151  -20.7153  -14.8298 C   0  0  0  0  0  0  0  0  0  0  0  0
   24.1148  -20.4035  -14.8619 C   0  0  2  0  0  0  0  0  0  0  0  0
   24.5953  -20.7325  -16.1889 N   0  0  0  0  0  0  0  0  0  0  0  0
   24.8295  -21.1759  -13.8138 C   0  0  0  0  0  0  0  0  0  0  0  0
   24.9425  -22.3984  -13.9861 O   0  0  0  0  0  0  0  0  0  0  0  0
   21.2941  -18.6297  -14.9905 C   0  0  0  0  0  0  0  0  0  0  0  0
   20.5947  -17.6753  -15.7011 C   0  0  0  0  0  0  0  0  0  0  0  0
   29.6423  -20.5414  -12.2618 C   0  0  0  0  0  0  0  0  0  0  0  0
   28.2179  -21.0497  -12.5078 C   0  0  0  0  0  0  0  0  0  0  0  0
   27.3767  -20.6634  -11.3396 C   0  0  2  0  0  0  0  0  0  0  0  0
   28.0043  -21.3479  -10.1209 C   0  0  0  0  0  0  0  0  0  0  0  0
   25.9485  -21.1305  -11.5198 C   0  0  2  0  0  0  0  0  0  0  0  0
   25.3507  -20.5382  -12.6803 N   0  0  0  0  0  0  0  0  0  0  0  0
   25.1371  -20.9966  -10.3091 C   0  0  0  0  0  0  0  0  0  0  0  0
   25.0522  -21.9291   -9.3048 O   0  0  0  0  0  0  0  0  0  0  0  0
   24.4459  -19.9326  -10.1588 O   0  0  0  0  0  0  0  0  0  0  0  0
  2  1  1  6
  3  2  1  0
  4  2  1  0
  4  5  1  6
  6  7  2  0
  6  4  1  0
  9  8  1  0
 10  9  2  0
 11 12  2  0
 11 10  1  0
 12 18  1  0
 14 13  1  6
 13 12  1  0
 14 15  1  0
 15  6  1  0
 16 17  2  0
 16 14  1  0
 18 19  2  0
 19  9  1  0
 20 21  1  0
 21 22  1  0
 22 24  1  0
 22 23  1  1
 24 25  1  6
 25 16  1  0
 26 24  1  0
 27 26  1  0
 28 26  2  0
M  END
$$$$
