VYI.pdb
     RDKit          3D

 28 28  0  0  1  0  0  0  0  0999 V2000
   30.4708  -22.4989  -18.0461 C   0  0  0  0  0  0  0  0  0  0  0  0
   29.4125  -21.8732  -17.1236 C   0  0  2  0  0  0  0  0  0  0  0  0
   28.8432  -22.9981  -16.3258 C   0  0  0  0  0  0  0  0  0  0  0  0
   28.4020  -21.1602  -18.0023 C   0  0  2  0  0  0  0  0  0  0  0  0
   29.1087  -20.0554  -18.6778 N   0  0  0  0  0  0  0  0  0  0  0  0
   27.2720  -20.5855  -17.2773 C   0  0  0  0  0  0  0  0  0  0  0  0
   27.4228  -19.4787  -16.6636 O   0  0  0  0  0  0  0  0  0  0  0  0
   19.3935  -18.7497  -13.7373 O   0  0  0  0  0  0  0  0  0  0  0  0
   20.4242  -19.2524  -14.5364 C   0  0  0  0  0  0  0  0  0  0  0  0
   21.0864  -18.4446  -15.4461 C   0  0  0  0  0  0  0  0  0  0  0  0
   22.1062  -18.9023  -16.2508 C   0  0  0  0  0  0  0  0  0  0  0  0
   22.5096  -20.2159  -16.1721 C   0  0  0  0  0  0  0  0  0  0  0  0
   23.6035  -20.7679  -17.0138 C   0  0  0  0  0  0  0  0  0  0  0  0
   24.9480  -20.6061  -16.2973 C   0  0  2  0  0  0  0  0  0  0  0  0
   25.9708  -21.1406  -17.1738 N   0  0  0  0  0  0  0  0  0  0  0  0
   24.9277  -21.3075  -14.9882 C   0  0  0  0  0  0  0  0  0  0  0  0
   24.9667  -22.5465  -15.0063 O   0  0  0  0  0  0  0  0  0  0  0  0
   21.8656  -21.0395  -15.2740 C   0  0  0  0  0  0  0  0  0  0  0  0
   20.8459  -20.5601  -14.4771 C   0  0  0  0  0  0  0  0  0  0  0  0
   28.5578  -20.5045  -11.6066 C   0  0  0  0  0  0  0  0  0  0  0  0
   27.3601  -21.1087  -12.3469 C   0  0  0  0  0  0  0  0  0  0  0  0
   26.1129  -20.6133  -11.6985 C   0  0  2  0  0  0  0  0  0  0  0  0
   26.1188  -21.1848  -10.2769 C   0  0  0  0  0  0  0  0  0  0  0  0
   24.8857  -21.0897  -12.4451 C   0  0  2  0  0  0  0  0  0  0  0  0
   24.8669  -20.5877  -13.7876 N   0  0  0  0  0  0  0  0  0  0  0  0
   23.6375  -20.8607  -11.7158 C   0  0  0  0  0  0  0  0  0  0  0  0
   22.8424  -19.7478  -11.8357 O   0  0  0  0  0  0  0  0  0  0  0  0
   23.2415  -21.7587  -10.8977 O   0  0  0  0  0  0  0  0  0  0  0  0
  2  1  1  6
  3  2  1  0
  4  2  1  0
  4  5  1  1
  6  7  2  0
  6  4  1  0
  9  8  1  0
 10  9  2  0
 11 12  2  0
 11 10  1  0
 12 18  1  0
 14 13  1  6
 13 12  1  0
 14 15  1  0
 15  6  1  0
 16 17  2  0
 16 14  1  0
 18 19  2  0
 19  9  1  0
 20 21  1  0
 21 22  1  0
 22 24  1  0
 22 23  1  1
 24 25  1  6
 25 16  1  0
 26 24  1  0
 27 26  1  0
 28 26  2  0
M  END
$$$$
