VYI.pdb
     RDKit          3D

 28 28  0  0  1  0  0  0  0  0999 V2000
   18.0468  -26.3674   -2.2648 C   0  0  0  0  0  0  0  0  0  0  0  0
   17.0299  -26.9980   -3.2295 C   0  0  2  0  0  0  0  0  0  0  0  0
   17.7286  -28.1496   -3.8710 C   0  0  0  0  0  0  0  0  0  0  0  0
   16.5889  -25.9190   -4.2006 C   0  0  2  0  0  0  0  0  0  0  0  0
   17.7837  -25.4874   -4.9505 N   0  0  0  0  0  0  0  0  0  0  0  0
   16.0127  -24.7363   -3.5665 C   0  0  0  0  0  0  0  0  0  0  0  0
   16.6990  -23.6639   -3.5071 O   0  0  0  0  0  0  0  0  0  0  0  0
   12.5666  -21.4796   -8.1453 O   0  0  0  0  0  0  0  0  0  0  0  0
   12.6204  -21.9183   -6.8193 C   0  0  0  0  0  0  0  0  0  0  0  0
   12.8378  -21.0313   -5.7780 C   0  0  0  0  0  0  0  0  0  0  0  0
   12.8974  -21.4242   -4.4592 C   0  0  0  0  0  0  0  0  0  0  0  0
   12.7378  -22.7504   -4.1274 C   0  0  0  0  0  0  0  0  0  0  0  0
   12.7919  -23.2351   -2.7231 C   0  0  0  0  0  0  0  0  0  0  0  0
   14.2481  -23.4539   -2.3004 C   0  0  2  0  0  0  0  0  0  0  0  0
   14.7224  -24.6395   -2.9853 N   0  0  0  0  0  0  0  0  0  0  0  0
   14.3457  -23.5979   -0.8253 C   0  0  0  0  0  0  0  0  0  0  0  0
   14.7310  -24.6909   -0.3850 O   0  0  0  0  0  0  0  0  0  0  0  0
   12.5202  -23.6525   -5.1465 C   0  0  0  0  0  0  0  0  0  0  0  0
   12.4641  -23.2370   -6.4614 C   0  0  0  0  0  0  0  0  0  0  0  0
   17.0238  -22.9734    3.8404 C   0  0  0  0  0  0  0  0  0  0  0  0
   15.5929  -22.6221    3.4202 C   0  0  0  0  0  0  0  0  0  0  0  0
   15.5126  -22.6939    1.9336 C   0  0  2  0  0  0  0  0  0  0  0  0
   16.4215  -21.5789    1.4060 C   0  0  0  0  0  0  0  0  0  0  0  0
   14.0933  -22.4777    1.4547 C   0  0  2  0  0  0  0  0  0  0  0  0
   14.0132  -22.5347    0.0246 N   0  0  0  0  0  0  0  0  0  0  0  0
   13.4610  -21.2900    2.0306 C   0  0  0  0  0  0  0  0  0  0  0  0
   13.3569  -20.0688    1.4117 O   0  0  0  0  0  0  0  0  0  0  0  0
   12.9607  -21.3795    3.2028 O   0  0  0  0  0  0  0  0  0  0  0  0
  2  1  1  1
  3  2  1  0
  4  2  1  0
  4  5  1  1
  6  7  2  0
  6  4  1  0
  9  8  1  0
 10  9  2  0
 11 12  2  0
 11 10  1  0
 12 18  1  0
 14 13  1  1
 13 12  1  0
 14 15  1  0
 15  6  1  0
 16 17  2  0
 16 14  1  0
 18 19  2  0
 19  9  1  0
 20 21  1  0
 21 22  1  0
 22 24  1  0
 22 23  1  6
 24 25  1  6
 25 16  1  0
 26 24  1  0
 27 26  1  0
 28 26  2  0
M  END
$$$$
