VYI.pdb
     RDKit          3D

 28 28  0  0  1  0  0  0  0  0999 V2000
   23.9706  -20.4006  -14.1780 C   0  0  0  0  0  0  0  0  0  0  0  0
   22.9459  -21.3962  -13.6112 C   0  0  2  0  0  0  0  0  0  0  0  0
   21.6404  -21.0509  -14.2458 C   0  0  0  0  0  0  0  0  0  0  0  0
   22.9589  -21.2577  -12.1005 C   0  0  2  0  0  0  0  0  0  0  0  0
   22.4017  -19.9309  -11.7758 N   0  0  0  0  0  0  0  0  0  0  0  0
   24.2873  -21.3395  -11.4992 C   0  0  0  0  0  0  0  0  0  0  0  0
   24.9360  -22.4345  -11.5667 O   0  0  0  0  0  0  0  0  0  0  0  0
   28.3713  -20.3047  -16.2657 O   0  0  0  0  0  0  0  0  0  0  0  0
   28.0801  -20.0717  -14.9187 C   0  0  0  0  0  0  0  0  0  0  0  0
   27.2937  -19.0001  -14.5291 C   0  0  0  0  0  0  0  0  0  0  0  0
   26.9845  -18.7371  -13.2129 C   0  0  0  0  0  0  0  0  0  0  0  0
   27.4627  -19.5565  -12.2157 C   0  0  0  0  0  0  0  0  0  0  0  0
   27.1634  -19.3242  -10.7782 C   0  0  0  0  0  0  0  0  0  0  0  0
   26.2841  -20.4560  -10.2368 C   0  0  2  0  0  0  0  0  0  0  0  0
   24.9675  -20.2960  -10.8206 N   0  0  0  0  0  0  0  0  0  0  0  0
   26.2341  -20.4118   -8.7530 C   0  0  0  0  0  0  0  0  0  0  0  0
   25.1636  -20.0691   -8.2302 O   0  0  0  0  0  0  0  0  0  0  0  0
   28.2477  -20.6296  -12.5785 C   0  0  0  0  0  0  0  0  0  0  0  0
   28.5452  -20.8748  -13.9037 C   0  0  0  0  0  0  0  0  0  0  0  0
   30.5244  -21.3939   -4.3285 C   0  0  0  0  0  0  0  0  0  0  0  0
   29.1335  -20.8646   -4.6929 C   0  0  0  0  0  0  0  0  0  0  0  0
   28.9459  -21.0203   -6.1633 C   0  0  2  0  0  0  0  0  0  0  0  0
   30.0862  -20.2363   -6.8212 C   0  0  0  0  0  0  0  0  0  0  0  0
   27.6098  -20.4618   -6.6032 C   0  0  2  0  0  0  0  0  0  0  0  0
   27.3576  -20.7460   -7.9854 N   0  0  0  0  0  0  0  0  0  0  0  0
   27.4253  -19.0533   -6.2509 C   0  0  0  0  0  0  0  0  0  0  0  0
   27.5399  -17.9972   -7.1209 O   0  0  0  0  0  0  0  0  0  0  0  0
   27.1337  -18.7657   -5.0407 O   0  0  0  0  0  0  0  0  0  0  0  0
  2  1  1  6
  3  2  1  0
  4  2  1  0
  4  5  1  6
  6  7  2  0
  6  4  1  0
  9  8  1  0
 10  9  2  0
 11 12  2  0
 11 10  1  0
 12 18  1  0
 14 13  1  6
 13 12  1  0
 14 15  1  0
 15  6  1  0
 16 17  2  0
 16 14  1  0
 18 19  2  0
 19  9  1  0
 20 21  1  0
 21 22  1  0
 22 24  1  0
 22 23  1  6
 24 25  1  6
 25 16  1  0
 26 24  1  0
 27 26  1  0
 28 26  2  0
M  END
$$$$
