VYI.pdb
     RDKit          3D

 28 28  0  0  1  0  0  0  0  0999 V2000
   25.8336  -21.1070  -18.3314 C   0  0  0  0  0  0  0  0  0  0  0  0
   27.2734  -20.6640  -18.0260 C   0  0  2  0  0  0  0  0  0  0  0  0
   27.9792  -20.6197  -19.3397 C   0  0  0  0  0  0  0  0  0  0  0  0
   27.8588  -21.6561  -17.0387 C   0  0  2  0  0  0  0  0  0  0  0  0
   27.8008  -22.9891  -17.6682 N   0  0  0  0  0  0  0  0  0  0  0  0
   27.1438  -21.7350  -15.7677 C   0  0  0  0  0  0  0  0  0  0  0  0
   26.1112  -22.4767  -15.6782 O   0  0  0  0  0  0  0  0  0  0  0  0
   24.4044  -20.3804   -7.4306 O   0  0  0  0  0  0  0  0  0  0  0  0
   25.1515  -20.3851   -8.6119 C   0  0  0  0  0  0  0  0  0  0  0  0
   25.6074  -21.5687   -9.1684 C   0  0  0  0  0  0  0  0  0  0  0  0
   26.3457  -21.6149  -10.3302 C   0  0  0  0  0  0  0  0  0  0  0  0
   26.6618  -20.4505  -10.9925 C   0  0  0  0  0  0  0  0  0  0  0  0
   27.4551  -20.4362  -12.2497 C   0  0  0  0  0  0  0  0  0  0  0  0
   26.6461  -21.0687  -13.3866 C   0  0  2  0  0  0  0  0  0  0  0  0
   27.4812  -21.0529  -14.5707 N   0  0  0  0  0  0  0  0  0  0  0  0
   25.3789  -20.3241  -13.6004 C   0  0  0  0  0  0  0  0  0  0  0  0
   25.4661  -19.1670  -14.0369 O   0  0  0  0  0  0  0  0  0  0  0  0
   26.2193  -19.2596  -10.4582 C   0  0  0  0  0  0  0  0  0  0  0  0
   25.4806  -19.2362   -9.2927 C   0  0  0  0  0  0  0  0  0  0  0  0
   22.2304  -20.5051  -17.1271 C   0  0  0  0  0  0  0  0  0  0  0  0
   22.9078  -20.0521  -15.8295 C   0  0  0  0  0  0  0  0  0  0  0  0
   22.1485  -20.6256  -14.6823 C   0  0  2  0  0  0  0  0  0  0  0  0
   20.7663  -19.9653  -14.7167 C   0  0  0  0  0  0  0  0  0  0  0  0
   22.8366  -20.3226  -13.3689 C   0  0  2  0  0  0  0  0  0  0  0  0
   24.1407  -20.9154  -13.3168 N   0  0  0  0  0  0  0  0  0  0  0  0
   22.0099  -20.6202  -12.1984 C   0  0  0  0  0  0  0  0  0  0  0  0
   22.1154  -21.7459  -11.4192 O   0  0  0  0  0  0  0  0  0  0  0  0
   21.1130  -19.7752  -11.8607 O   0  0  0  0  0  0  0  0  0  0  0  0
  2  1  1  6
  3  2  1  0
  4  2  1  0
  4  5  1  6
  6  7  2  0
  6  4  1  0
  9  8  1  0
 10  9  2  0
 11 12  2  0
 11 10  1  0
 12 18  1  0
 14 13  1  1
 13 12  1  0
 14 15  1  0
 15  6  1  0
 16 17  2  0
 16 14  1  0
 18 19  2  0
 19  9  1  0
 20 21  1  0
 21 22  1  0
 22 24  1  0
 22 23  1  1
 24 25  1  1
 25 16  1  0
 26 24  1  0
 27 26  1  0
 28 26  2  0
M  END
$$$$
