VYI.pdb
     RDKit          3D

 28 28  0  0  1  0  0  0  0  0999 V2000
   25.0420  -20.9320  -17.0346 C   0  0  0  0  0  0  0  0  0  0  0  0
   26.5501  -20.7240  -16.8230 C   0  0  2  0  0  0  0  0  0  0  0  0
   27.1560  -20.6804  -18.1857 C   0  0  0  0  0  0  0  0  0  0  0  0
   27.0528  -21.8623  -15.9551 C   0  0  2  0  0  0  0  0  0  0  0  0
   26.6456  -23.1230  -16.6042 N   0  0  0  0  0  0  0  0  0  0  0  0
   26.5138  -21.8687  -14.5978 C   0  0  0  0  0  0  0  0  0  0  0  0
   25.5044  -22.5998  -14.3312 O   0  0  0  0  0  0  0  0  0  0  0  0
   24.7862  -20.0249   -6.1164 O   0  0  0  0  0  0  0  0  0  0  0  0
   25.3971  -20.1199   -7.3700 C   0  0  0  0  0  0  0  0  0  0  0  0
   25.9945  -19.0197   -7.9627 C   0  0  0  0  0  0  0  0  0  0  0  0
   26.6061  -19.0728   -9.1957 C   0  0  0  0  0  0  0  0  0  0  0  0
   26.6427  -20.2570   -9.8963 C   0  0  0  0  0  0  0  0  0  0  0  0
   27.2877  -20.3767  -11.2303 C   0  0  0  0  0  0  0  0  0  0  0  0
   26.3405  -21.0785  -12.2089 C   0  0  2  0  0  0  0  0  0  0  0  0
   27.0058  -21.1240  -13.4954 N   0  0  0  0  0  0  0  0  0  0  0  0
   25.0451  -20.3561  -12.2877 C   0  0  0  0  0  0  0  0  0  0  0  0
   25.0415  -19.2558  -12.8590 O   0  0  0  0  0  0  0  0  0  0  0  0
   26.0548  -21.3660   -9.3271 C   0  0  0  0  0  0  0  0  0  0  0  0
   25.4472  -21.2905   -8.0902 C   0  0  0  0  0  0  0  0  0  0  0  0
   22.2586  -20.2302  -15.6551 C   0  0  0  0  0  0  0  0  0  0  0  0
   22.7572  -19.8568  -14.2553 C   0  0  0  0  0  0  0  0  0  0  0  0
   21.9996  -20.6664  -13.2592 C   0  0  2  0  0  0  0  0  0  0  0  0
   20.5438  -20.1977  -13.3517 C   0  0  0  0  0  0  0  0  0  0  0  0
   22.5299  -20.4417  -11.8596 C   0  0  2  0  0  0  0  0  0  0  0  0
   23.8806  -20.9054  -11.7352 N   0  0  0  0  0  0  0  0  0  0  0  0
   21.6384  -20.9448  -10.8136 C   0  0  0  0  0  0  0  0  0  0  0  0
   20.6855  -20.2030  -10.1601 O   0  0  0  0  0  0  0  0  0  0  0  0
   21.7419  -22.1707  -10.4687 O   0  0  0  0  0  0  0  0  0  0  0  0
  2  1  1  6
  3  2  1  0
  4  2  1  0
  4  5  1  6
  6  7  2  0
  6  4  1  0
  9  8  1  0
 10  9  2  0
 11 12  2  0
 11 10  1  0
 12 18  1  0
 14 13  1  1
 13 12  1  0
 14 15  1  0
 15  6  1  0
 16 17  2  0
 16 14  1  0
 18 19  2  0
 19  9  1  0
 20 21  1  0
 21 22  1  0
 22 24  1  0
 22 23  1  1
 24 25  1  6
 25 16  1  0
 26 24  1  0
 27 26  1  0
 28 26  2  0
M  END
$$$$
