VYI.pdb
     RDKit          3D

 28 28  0  0  1  0  0  0  0  0999 V2000
   24.7214  -16.7911  -18.1533 C   0  0  0  0  0  0  0  0  0  0  0  0
   25.7098  -17.4821  -17.2005 C   0  0  2  0  0  0  0  0  0  0  0  0
   27.0689  -17.2322  -17.7630 C   0  0  0  0  0  0  0  0  0  0  0  0
   25.3272  -18.9484  -17.1272 C   0  0  2  0  0  0  0  0  0  0  0  0
   25.4029  -19.4915  -18.4967 N   0  0  0  0  0  0  0  0  0  0  0  0
   23.9774  -19.1948  -16.6270 C   0  0  0  0  0  0  0  0  0  0  0  0
   22.9935  -19.1417  -17.4354 O   0  0  0  0  0  0  0  0  0  0  0  0
   16.8083  -21.2862  -11.9291 O   0  0  0  0  0  0  0  0  0  0  0  0
   18.1203  -21.1488  -12.3908 C   0  0  0  0  0  0  0  0  0  0  0  0
   18.4616  -21.4779  -13.6923 C   0  0  0  0  0  0  0  0  0  0  0  0
   19.7422  -21.3566  -14.1845 C   0  0  0  0  0  0  0  0  0  0  0  0
   20.7513  -20.8906  -13.3727 C   0  0  0  0  0  0  0  0  0  0  0  0
   22.1521  -20.7380  -13.8464 C   0  0  0  0  0  0  0  0  0  0  0  0
   22.2478  -19.5666  -14.8292 C   0  0  2  0  0  0  0  0  0  0  0  0
   23.6206  -19.5002  -15.2885 N   0  0  0  0  0  0  0  0  0  0  0  0
   21.8281  -18.3017  -14.1736 C   0  0  0  0  0  0  0  0  0  0  0  0
   22.4697  -17.9376  -13.1772 O   0  0  0  0  0  0  0  0  0  0  0  0
   20.4364  -20.5565  -12.0732 C   0  0  0  0  0  0  0  0  0  0  0  0
   19.1462  -20.6858  -11.6004 C   0  0  0  0  0  0  0  0  0  0  0  0
   22.5983  -13.7636  -15.6387 C   0  0  0  0  0  0  0  0  0  0  0  0
   22.1591  -14.9443  -14.7666 C   0  0  0  0  0  0  0  0  0  0  0  0
   20.6938  -15.1427  -14.9539 C   0  0  2  0  0  0  0  0  0  0  0  0
   20.0246  -13.8611  -14.4467 C   0  0  0  0  0  0  0  0  0  0  0  0
   20.2009  -16.3348  -14.1624 C   0  0  2  0  0  0  0  0  0  0  0  0
   20.7492  -17.5581  -14.6699 N   0  0  0  0  0  0  0  0  0  0  0  0
   18.7461  -16.3651  -14.0046 C   0  0  0  0  0  0  0  0  0  0  0  0
   18.0586  -15.9126  -12.9055 O   0  0  0  0  0  0  0  0  0  0  0  0
   18.0444  -16.8483  -14.9566 O   0  0  0  0  0  0  0  0  0  0  0  0
  2  1  1  6
  3  2  1  0
  4  2  1  0
  4  5  1  6
  6  7  2  0
  6  4  1  0
  9  8  1  0
 10  9  2  0
 11 12  2  0
 11 10  1  0
 12 18  1  0
 14 13  1  1
 13 12  1  0
 14 15  1  0
 15  6  1  0
 16 17  2  0
 16 14  1  0
 18 19  2  0
 19  9  1  0
 20 21  1  0
 21 22  1  0
 22 24  1  0
 22 23  1  1
 24 25  1  6
 25 16  1  0
 26 24  1  0
 27 26  1  0
 28 26  2  0
M  END
$$$$
