VYI.pdb
     RDKit          3D

 28 28  0  0  1  0  0  0  0  0999 V2000
   24.0773  -17.1154  -16.2890 C   0  0  0  0  0  0  0  0  0  0  0  0
   23.8093  -18.5822  -16.6621 C   0  0  2  0  0  0  0  0  0  0  0  0
   23.6351  -18.6061  -18.1437 C   0  0  0  0  0  0  0  0  0  0  0  0
   22.5884  -19.0373  -15.8850 C   0  0  2  0  0  0  0  0  0  0  0  0
   21.4968  -18.0924  -16.1882 N   0  0  0  0  0  0  0  0  0  0  0  0
   22.7686  -19.0556  -14.4358 C   0  0  0  0  0  0  0  0  0  0  0  0
   22.6347  -17.9727  -13.7771 O   0  0  0  0  0  0  0  0  0  0  0  0
   17.1485  -18.9629  -11.4566 O   0  0  0  0  0  0  0  0  0  0  0  0
   18.4487  -19.4759  -11.4600 C   0  0  0  0  0  0  0  0  0  0  0  0
   18.9249  -20.2179  -12.5283 C   0  0  0  0  0  0  0  0  0  0  0  0
   20.1987  -20.7400  -12.5692 C   0  0  0  0  0  0  0  0  0  0  0  0
   21.0623  -20.5334  -11.5176 C   0  0  0  0  0  0  0  0  0  0  0  0
   22.4482  -21.0711  -11.5038 C   0  0  0  0  0  0  0  0  0  0  0  0
   23.3915  -20.1060  -12.2289 C   0  0  2  0  0  0  0  0  0  0  0  0
   23.0884  -20.1879  -13.6436 N   0  0  0  0  0  0  0  0  0  0  0  0
   24.8081  -20.4560  -11.9514 C   0  0  0  0  0  0  0  0  0  0  0  0
   25.4395  -21.0275  -12.8524 O   0  0  0  0  0  0  0  0  0  0  0  0
   20.6114  -19.7978  -10.4428 C   0  0  0  0  0  0  0  0  0  0  0  0
   19.3307  -19.2837  -10.4224 C   0  0  0  0  0  0  0  0  0  0  0  0
   26.8202  -18.2013   -7.1800 C   0  0  0  0  0  0  0  0  0  0  0  0
   26.6507  -18.5534   -8.6615 C   0  0  0  0  0  0  0  0  0  0  0  0
   26.9232  -20.0092   -8.8289 C   0  0  2  0  0  0  0  0  0  0  0  0
   28.3831  -20.2174   -8.4132 C   0  0  0  0  0  0  0  0  0  0  0  0
   26.7261  -20.4374  -10.2670 C   0  0  2  0  0  0  0  0  0  0  0  0
   25.3965  -20.1481  -10.7177 N   0  0  0  0  0  0  0  0  0  0  0  0
   27.1459  -21.8157  -10.5248 C   0  0  0  0  0  0  0  0  0  0  0  0
   28.3693  -22.1917  -11.0221 O   0  0  0  0  0  0  0  0  0  0  0  0
   26.3196  -22.7569  -10.2722 O   0  0  0  0  0  0  0  0  0  0  0  0
  2  1  1  1
  3  2  1  0
  4  2  1  0
  4  5  1  1
  6  7  2  0
  6  4  1  0
  9  8  1  0
 10  9  2  0
 11 12  2  0
 11 10  1  0
 12 18  1  0
 14 13  1  1
 13 12  1  0
 14 15  1  0
 15  6  1  0
 16 17  2  0
 16 14  1  0
 18 19  2  0
 19  9  1  0
 20 21  1  0
 21 22  1  0
 22 24  1  0
 22 23  1  6
 24 25  1  1
 25 16  1  0
 26 24  1  0
 27 26  1  0
 28 26  2  0
M  END
$$$$
