VYI.pdb
     RDKit          3D

 28 28  0  0  1  0  0  0  0  0999 V2000
   28.3125  -17.9521  -14.1499 C   0  0  0  0  0  0  0  0  0  0  0  0
   28.3038  -19.3846  -14.7071 C   0  0  2  0  0  0  0  0  0  0  0  0
   28.9020  -19.3005  -16.0713 C   0  0  0  0  0  0  0  0  0  0  0  0
   26.8687  -19.8759  -14.6866 C   0  0  2  0  0  0  0  0  0  0  0  0
   26.1032  -19.0370  -15.6282 N   0  0  0  0  0  0  0  0  0  0  0  0
   26.2186  -19.7838  -13.3821 C   0  0  0  0  0  0  0  0  0  0  0  0
   25.7105  -18.6738  -13.0156 O   0  0  0  0  0  0  0  0  0  0  0  0
   20.4118  -19.1181  -14.9713 O   0  0  0  0  0  0  0  0  0  0  0  0
   21.3119  -19.7206  -14.0879 C   0  0  0  0  0  0  0  0  0  0  0  0
   21.3419  -19.3750  -12.7469 C   0  0  0  0  0  0  0  0  0  0  0  0
   22.2133  -19.9454  -11.8456 C   0  0  0  0  0  0  0  0  0  0  0  0
   23.1071  -20.9049  -12.2638 C   0  0  0  0  0  0  0  0  0  0  0  0
   24.0714  -21.5563  -11.3387 C   0  0  0  0  0  0  0  0  0  0  0  0
   25.3312  -20.6950  -11.2040 C   0  0  2  0  0  0  0  0  0  0  0  0
   26.0811  -20.8320  -12.4364 N   0  0  0  0  0  0  0  0  0  0  0  0
   26.1300  -21.1219  -10.0268 C   0  0  0  0  0  0  0  0  0  0  0  0
   26.8438  -22.1270  -10.1582 O   0  0  0  0  0  0  0  0  0  0  0  0
   23.0964  -21.2657  -13.5939 C   0  0  0  0  0  0  0  0  0  0  0  0
   22.2145  -20.6813  -14.4802 C   0  0  0  0  0  0  0  0  0  0  0  0
   28.8230  -18.9071   -5.0878 C   0  0  0  0  0  0  0  0  0  0  0  0
   27.9995  -20.0798   -5.6301 C   0  0  0  0  0  0  0  0  0  0  0  0
   27.3413  -19.6424   -6.8938 C   0  0  2  0  0  0  0  0  0  0  0  0
   26.3687  -18.5258   -6.5004 C   0  0  0  0  0  0  0  0  0  0  0  0
   26.5870  -20.7856   -7.5379 C   0  0  2  0  0  0  0  0  0  0  0  0
   26.0714  -20.4099   -8.8215 N   0  0  0  0  0  0  0  0  0  0  0  0
   25.5858  -21.3893   -6.6574 C   0  0  0  0  0  0  0  0  0  0  0  0
   25.8599  -22.2088   -5.5904 O   0  0  0  0  0  0  0  0  0  0  0  0
   24.3529  -21.1444   -6.8861 O   0  0  0  0  0  0  0  0  0  0  0  0
  2  1  1  6
  3  2  1  0
  4  2  1  0
  4  5  1  6
  6  7  2  0
  6  4  1  0
  9  8  1  0
 10  9  2  0
 11 12  2  0
 11 10  1  0
 12 18  1  0
 14 13  1  6
 13 12  1  0
 14 15  1  0
 15  6  1  0
 16 17  2  0
 16 14  1  0
 18 19  2  0
 19  9  1  0
 20 21  1  0
 21 22  1  0
 22 24  1  0
 22 23  1  1
 24 25  1  6
 25 16  1  0
 26 24  1  0
 27 26  1  0
 28 26  2  0
M  END
$$$$
