YWV.pdb
     RDKit          3D

 34 36  0  0  1  0  0  0  0  0999 V2000
   31.0409  -23.7936  -19.4336 O   0  0  0  0  0  0  0  0  0  0  0  0
   30.3518  -23.0574  -18.4946 C   0  0  0  0  0  0  0  0  0  0  0  0
   29.5833  -23.7192  -17.5534 C   0  0  0  0  0  0  0  0  0  0  0  0
   28.8822  -23.0051  -16.5986 C   0  0  0  0  0  0  0  0  0  0  0  0
   28.9669  -21.6026  -16.6052 C   0  0  0  0  0  0  0  0  0  0  0  0
   28.2338  -20.8138  -15.6075 C   0  0  0  0  0  0  0  0  0  0  0  0
   26.7159  -20.9297  -15.8260 C   0  0  2  0  0  0  0  0  0  0  0  0
   26.3880  -20.1404  -17.0352 N   0  0  0  0  0  0  0  0  0  0  0  0
   26.0074  -20.2938  -14.7097 C   0  0  0  0  0  0  0  0  0  0  0  0
   25.8636  -19.0284  -14.6189 O   0  0  0  0  0  0  0  0  0  0  0  0
   29.7307  -20.9486  -17.5410 C   0  0  0  0  0  0  0  0  0  0  0  0
   30.4330  -21.6564  -18.4986 C   0  0  0  0  0  0  0  0  0  0  0  0
   25.4459  -21.0743  -13.6774 N   0  0  0  0  0  0  0  0  0  0  0  0
   24.7071  -20.4445  -12.5618 C   0  0  1  0  0  0  0  0  0  0  0  0
   23.2418  -20.7117  -12.9093 C   0  0  0  0  0  0  0  0  0  0  0  0
   22.3004  -20.3290  -11.8476 C   0  0  0  0  0  0  0  0  0  0  0  0
   22.6134  -19.7133  -10.6740 C   0  0  0  0  0  0  0  0  0  0  0  0
   21.4778  -19.5608   -9.9806 N   0  0  0  0  0  0  0  0  0  0  0  0
   20.4409  -20.0671  -10.6886 C   0  0  0  0  0  0  0  0  0  0  0  0
   19.0893  -20.1388  -10.4086 C   0  0  0  0  0  0  0  0  0  0  0  0
   18.1841  -20.7023  -11.2995 C   0  0  0  0  0  0  0  0  0  0  0  0
   18.6983  -21.1853  -12.4714 C   0  0  0  0  0  0  0  0  0  0  0  0
   20.0399  -21.1212  -12.7618 C   0  0  0  0  0  0  0  0  0  0  0  0
   20.9361  -20.5548  -11.8636 C   0  0  0  0  0  0  0  0  0  0  0  0
   25.1692  -21.0418  -11.3322 C   0  0  0  0  0  0  0  0  0  0  0  0
   25.1576  -22.2902  -11.1379 O   0  0  0  0  0  0  0  0  0  0  0  0
   27.0936  -18.7555   -8.1119 C   0  0  0  0  0  0  0  0  0  0  0  0
   27.3285  -20.2199   -8.4431 C   0  0  2  0  0  0  0  0  0  0  0  0
   28.3883  -20.2420   -9.5238 C   0  0  0  0  0  0  0  0  0  0  0  0
   26.0904  -20.8643   -9.0109 C   0  0  2  0  0  0  0  0  0  0  0  0
   25.6739  -20.2539  -10.2582 N   0  0  0  0  0  0  0  0  0  0  0  0
   25.0158  -20.8357   -8.0443 C   0  0  0  0  0  0  0  0  0  0  0  0
   23.9440  -20.2156   -8.3000 O   0  0  0  0  0  0  0  0  0  0  0  0
   25.0594  -21.4600   -6.7964 O   0  0  0  0  0  0  0  0  0  0  0  0
  2 12  2  0
  2  1  1  0
  3  2  1  0
  4  5  1  0
  4  3  2  0
  5 11  2  0
  6  5  1  0
  7  9  1  0
  7  6  1  0
  7  8  1  6
  9 13  1  0
  9 10  2  0
 11 12  1  0
 13 14  1  0
 14 25  1  0
 14 15  1  6
 16 24  1  0
 16 15  1  0
 17 16  2  0
 18 17  1  0
 18 19  1  0
 19 24  2  0
 20 19  1  0
 20 21  2  0
 21 22  1  0
 22 23  2  0
 24 23  1  0
 25 26  2  0
 25 31  1  0
 28 27  1  6
 28 29  1  0
 30 32  1  0
 30 28  1  0
 30 31  1  6
 32 34  1  0
 33 32  2  0
M  END
$$$$
