YWV.pdb
     RDKit          3D

 34 36  0  0  1  0  0  0  0  0999 V2000
   33.4598  -18.6522  -19.7172 O   0  0  0  0  0  0  0  0  0  0  0  0
   32.3331  -18.4866  -18.9415 C   0  0  0  0  0  0  0  0  0  0  0  0
   31.4747  -19.5576  -18.7659 C   0  0  0  0  0  0  0  0  0  0  0  0
   30.3371  -19.4197  -17.9913 C   0  0  0  0  0  0  0  0  0  0  0  0
   30.0740  -18.1769  -17.3908 C   0  0  0  0  0  0  0  0  0  0  0  0
   28.8744  -17.9954  -16.5643 C   0  0  0  0  0  0  0  0  0  0  0  0
   27.5999  -18.1073  -17.4177 C   0  0  2  0  0  0  0  0  0  0  0  0
   27.5685  -16.9269  -18.3112 N   0  0  0  0  0  0  0  0  0  0  0  0
   26.4182  -18.0064  -16.5540 C   0  0  0  0  0  0  0  0  0  0  0  0
   26.1190  -16.9386  -15.9211 O   0  0  0  0  0  0  0  0  0  0  0  0
   30.9282  -17.1157  -17.5672 C   0  0  0  0  0  0  0  0  0  0  0  0
   32.0663  -17.2467  -18.3409 C   0  0  0  0  0  0  0  0  0  0  0  0
   25.5513  -19.1073  -16.3913 N   0  0  0  0  0  0  0  0  0  0  0  0
   24.3762  -19.0261  -15.4971 C   0  0  1  0  0  0  0  0  0  0  0  0
   23.1910  -19.0487  -16.4637 C   0  0  0  0  0  0  0  0  0  0  0  0
   21.8815  -19.0756  -15.7970 C   0  0  0  0  0  0  0  0  0  0  0  0
   21.1934  -17.9997  -15.3246 C   0  0  0  0  0  0  0  0  0  0  0  0
   20.0607  -18.4533  -14.7725 N   0  0  0  0  0  0  0  0  0  0  0  0
   20.0089  -19.8016  -14.8828 C   0  0  0  0  0  0  0  0  0  0  0  0
   19.0544  -20.7172  -14.4814 C   0  0  0  0  0  0  0  0  0  0  0  0
   19.2030  -22.0797  -14.7088 C   0  0  0  0  0  0  0  0  0  0  0  0
   20.3450  -22.4723  -15.3511 C   0  0  0  0  0  0  0  0  0  0  0  0
   21.3023  -21.5728  -15.7546 C   0  0  0  0  0  0  0  0  0  0  0  0
   21.1429  -20.2121  -15.5225 C   0  0  0  0  0  0  0  0  0  0  0  0
   24.4435  -20.1352  -14.5763 C   0  0  0  0  0  0  0  0  0  0  0  0
   24.7294  -21.3087  -14.9472 O   0  0  0  0  0  0  0  0  0  0  0  0
   25.0921  -19.8424  -10.3564 C   0  0  0  0  0  0  0  0  0  0  0  0
   25.2201  -21.0709  -11.2417 C   0  0  2  0  0  0  0  0  0  0  0  0
   26.5457  -20.9354  -11.9600 C   0  0  0  0  0  0  0  0  0  0  0  0
   24.1395  -21.1119  -12.2911 C   0  0  2  0  0  0  0  0  0  0  0  0
   24.1943  -19.9706  -13.1836 N   0  0  0  0  0  0  0  0  0  0  0  0
   22.8368  -21.2148  -11.6729 C   0  0  0  0  0  0  0  0  0  0  0  0
   22.0272  -20.2450  -11.7254 O   0  0  0  0  0  0  0  0  0  0  0  0
   22.3730  -22.3414  -10.9913 O   0  0  0  0  0  0  0  0  0  0  0  0
  2 12  2  0
  2  1  1  0
  3  2  1  0
  4  5  1  0
  4  3  2  0
  5 11  2  0
  6  5  1  0
  7  9  1  0
  7  6  1  0
  7  8  1  6
  9 13  1  0
  9 10  2  0
 11 12  1  0
 13 14  1  0
 14 25  1  0
 14 15  1  6
 16 24  1  0
 16 15  1  0
 17 16  2  0
 18 17  1  0
 18 19  1  0
 19 24  2  0
 20 19  1  0
 20 21  2  0
 21 22  1  0
 22 23  2  0
 24 23  1  0
 25 26  2  0
 25 31  1  0
 28 27  1  1
 28 29  1  0
 30 32  1  0
 30 28  1  0
 30 31  1  1
 32 34  1  0
 33 32  2  0
M  END
$$$$
