YWV.pdb
     RDKit          3D

 34 36  0  0  1  0  0  0  0  0999 V2000
   17.4660  -24.3569  -13.9064 O   0  0  0  0  0  0  0  0  0  0  0  0
   18.6376  -23.6901  -13.6213 C   0  0  0  0  0  0  0  0  0  0  0  0
   19.4256  -24.1337  -12.5740 C   0  0  0  0  0  0  0  0  0  0  0  0
   20.6073  -23.4839  -12.2666 C   0  0  0  0  0  0  0  0  0  0  0  0
   20.9875  -22.3713  -13.0358 C   0  0  0  0  0  0  0  0  0  0  0  0
   22.2343  -21.6570  -12.7353 C   0  0  0  0  0  0  0  0  0  0  0  0
   22.0942  -20.8303  -11.4461 C   0  0  2  0  0  0  0  0  0  0  0  0
   21.1937  -19.6953  -11.7517 N   0  0  0  0  0  0  0  0  0  0  0  0
   23.3929  -20.2469  -11.0913 C   0  0  0  0  0  0  0  0  0  0  0  0
   23.9272  -19.3009  -11.7620 O   0  0  0  0  0  0  0  0  0  0  0  0
   20.2029  -21.9334  -14.0749 C   0  0  0  0  0  0  0  0  0  0  0  0
   19.0202  -22.5778  -14.3866 C   0  0  0  0  0  0  0  0  0  0  0  0
   24.1104  -20.7182   -9.9719 N   0  0  0  0  0  0  0  0  0  0  0  0
   25.4696  -20.2183   -9.6725 C   0  0  1  0  0  0  0  0  0  0  0  0
   25.6348  -20.5081   -8.1798 C   0  0  0  0  0  0  0  0  0  0  0  0
   26.6482  -19.6719   -7.5212 C   0  0  0  0  0  0  0  0  0  0  0  0
   26.9920  -18.3995   -7.8633 C   0  0  0  0  0  0  0  0  0  0  0  0
   27.9646  -18.0046   -7.0317 N   0  0  0  0  0  0  0  0  0  0  0  0
   28.2509  -19.0009   -6.1608 C   0  0  0  0  0  0  0  0  0  0  0  0
   29.1591  -19.0757   -5.1216 C   0  0  0  0  0  0  0  0  0  0  0  0
   29.2817  -20.2142   -4.3346 C   0  0  0  0  0  0  0  0  0  0  0  0
   28.4569  -21.2616   -4.6405 C   0  0  0  0  0  0  0  0  0  0  0  0
   27.5504  -21.2008   -5.6714 C   0  0  0  0  0  0  0  0  0  0  0  0
   27.4360  -20.0567   -6.4517 C   0  0  0  0  0  0  0  0  0  0  0  0
   26.3948  -20.9051  -10.5412 C   0  0  0  0  0  0  0  0  0  0  0  0
   26.4192  -22.1640  -10.6472 O   0  0  0  0  0  0  0  0  0  0  0  0
   29.3825  -20.8244  -14.4808 C   0  0  0  0  0  0  0  0  0  0  0  0
   28.4455  -20.0970  -13.5310 C   0  0  2  0  0  0  0  0  0  0  0  0
   29.1606  -18.8257  -13.1262 C   0  0  0  0  0  0  0  0  0  0  0  0
   28.1988  -20.8958  -12.2773 C   0  0  2  0  0  0  0  0  0  0  0  0
   27.3394  -20.1993  -11.3402 N   0  0  0  0  0  0  0  0  0  0  0  0
   29.4512  -21.2560  -11.6515 C   0  0  0  0  0  0  0  0  0  0  0  0
   29.8247  -20.6764  -10.5918 O   0  0  0  0  0  0  0  0  0  0  0  0
   30.3247  -22.2308  -12.1368 O   0  0  0  0  0  0  0  0  0  0  0  0
  2 12  2  0
  2  1  1  0
  3  2  1  0
  4  5  1  0
  4  3  2  0
  5 11  2  0
  6  5  1  0
  7  9  1  0
  7  6  1  0
  7  8  1  6
  9 13  1  0
  9 10  2  0
 11 12  1  0
 13 14  1  0
 14 25  1  0
 14 15  1  1
 16 24  1  0
 16 15  1  0
 17 16  2  0
 18 17  1  0
 18 19  1  0
 19 24  2  0
 20 19  1  0
 20 21  2  0
 21 22  1  0
 22 23  2  0
 24 23  1  0
 25 26  2  0
 25 31  1  0
 28 27  1  6
 28 29  1  0
 30 32  1  0
 30 28  1  0
 30 31  1  1
 32 34  1  0
 33 32  2  0
M  END
$$$$
