YWV.pdb
     RDKit          3D

 34 36  0  0  1  0  0  0  0  0999 V2000
   29.4164  -15.6803  -18.5197 O   0  0  0  0  0  0  0  0  0  0  0  0
   28.7601  -16.4531  -17.5866 C   0  0  0  0  0  0  0  0  0  0  0  0
   27.9189  -17.4620  -18.0214 C   0  0  0  0  0  0  0  0  0  0  0  0
   27.2485  -18.2536  -17.1065 C   0  0  0  0  0  0  0  0  0  0  0  0
   27.4391  -18.0125  -15.7354 C   0  0  0  0  0  0  0  0  0  0  0  0
   26.7412  -18.8324  -14.7375 C   0  0  0  0  0  0  0  0  0  0  0  0
   27.6920  -19.8732  -14.1227 C   0  0  2  0  0  0  0  0  0  0  0  0
   27.9058  -20.9248  -15.1430 N   0  0  0  0  0  0  0  0  0  0  0  0
   27.0376  -20.5262  -12.9834 C   0  0  0  0  0  0  0  0  0  0  0  0
   26.2384  -21.5121  -13.1229 O   0  0  0  0  0  0  0  0  0  0  0  0
   28.2748  -17.0100  -15.3071 C   0  0  0  0  0  0  0  0  0  0  0  0
   28.9469  -16.2147  -16.2164 C   0  0  0  0  0  0  0  0  0  0  0  0
   27.2753  -20.0805  -11.6663 N   0  0  0  0  0  0  0  0  0  0  0  0
   26.5191  -20.6390  -10.5248 C   0  0  1  0  0  0  0  0  0  0  0  0
   27.2742  -20.1100   -9.3044 C   0  0  0  0  0  0  0  0  0  0  0  0
   26.6525  -20.4661   -8.0211 C   0  0  0  0  0  0  0  0  0  0  0  0
   25.4678  -21.1154   -7.8502 C   0  0  0  0  0  0  0  0  0  0  0  0
   25.2524  -21.2262   -6.5331 N   0  0  0  0  0  0  0  0  0  0  0  0
   26.2785  -20.6603   -5.8551 C   0  0  0  0  0  0  0  0  0  0  0  0
   26.5196  -20.5302   -4.5003 C   0  0  0  0  0  0  0  0  0  0  0  0
   27.6643  -19.9100   -4.0148 C   0  0  0  0  0  0  0  0  0  0  0  0
   28.5438  -19.4320   -4.9469 C   0  0  0  0  0  0  0  0  0  0  0  0
   28.3158  -19.5538   -6.2965 C   0  0  0  0  0  0  0  0  0  0  0  0
   27.1678  -20.1765   -6.7709 C   0  0  0  0  0  0  0  0  0  0  0  0
   25.1501  -20.1982  -10.6429 C   0  0  0  0  0  0  0  0  0  0  0  0
   24.8291  -18.9761  -10.6531 O   0  0  0  0  0  0  0  0  0  0  0  0
   22.2478  -22.5172  -12.6069 C   0  0  0  0  0  0  0  0  0  0  0  0
   22.2180  -21.0166  -12.3689 C   0  0  2  0  0  0  0  0  0  0  0  0
   23.1828  -20.4132  -13.3671 C   0  0  0  0  0  0  0  0  0  0  0  0
   22.7150  -20.6650  -10.9905 C   0  0  2  0  0  0  0  0  0  0  0  0
   24.0717  -21.1213  -10.7607 N   0  0  0  0  0  0  0  0  0  0  0  0
   21.8221  -21.1885   -9.9812 C   0  0  0  0  0  0  0  0  0  0  0  0
   22.2361  -22.0389   -9.1422 O   0  0  0  0  0  0  0  0  0  0  0  0
   20.4819  -20.8220   -9.8458 O   0  0  0  0  0  0  0  0  0  0  0  0
  2 12  2  0
  2  1  1  0
  3  2  1  0
  4  5  1  0
  4  3  2  0
  5 11  2  0
  6  5  1  0
  7  9  1  0
  7  6  1  0
  7  8  1  6
  9 13  1  0
  9 10  2  0
 11 12  1  0
 13 14  1  0
 14 25  1  0
 14 15  1  1
 16 24  1  0
 16 15  1  0
 17 16  2  0
 18 17  1  0
 18 19  1  0
 19 24  2  0
 20 19  1  0
 20 21  2  0
 21 22  1  0
 22 23  2  0
 24 23  1  0
 25 26  2  0
 25 31  1  0
 28 27  1  1
 28 29  1  0
 30 32  1  0
 30 28  1  0
 30 31  1  1
 32 34  1  0
 33 32  2  0
M  END
$$$$
