YWV.pdb
     RDKit          3D

 34 36  0  0  1  0  0  0  0  0999 V2000
   31.6273  -16.2284  -19.4847 O   0  0  0  0  0  0  0  0  0  0  0  0
   30.7117  -17.0499  -18.8639 C   0  0  0  0  0  0  0  0  0  0  0  0
   30.4096  -18.2729  -19.4362 C   0  0  0  0  0  0  0  0  0  0  0  0
   29.4952  -19.1178  -18.8337 C   0  0  0  0  0  0  0  0  0  0  0  0
   28.8840  -18.7100  -17.6361 C   0  0  0  0  0  0  0  0  0  0  0  0
   27.9071  -19.5813  -16.9715 C   0  0  0  0  0  0  0  0  0  0  0  0
   28.6159  -20.6689  -16.1469 C   0  0  2  0  0  0  0  0  0  0  0  0
   28.7985  -21.8396  -17.0350 N   0  0  0  0  0  0  0  0  0  0  0  0
   27.7402  -21.1082  -15.0547 C   0  0  0  0  0  0  0  0  0  0  0  0
   26.9218  -22.0802  -15.1790 O   0  0  0  0  0  0  0  0  0  0  0  0
   29.1860  -17.4951  -17.0706 C   0  0  0  0  0  0  0  0  0  0  0  0
   30.0983  -16.6457  -17.6682 C   0  0  0  0  0  0  0  0  0  0  0  0
   27.7744  -20.4606  -13.8019 N   0  0  0  0  0  0  0  0  0  0  0  0
   26.8745  -20.8764  -12.7045 C   0  0  1  0  0  0  0  0  0  0  0  0
   27.5329  -20.2808  -11.4590 C   0  0  0  0  0  0  0  0  0  0  0  0
   26.7159  -20.3961  -10.2428 C   0  0  0  0  0  0  0  0  0  0  0  0
   25.3659  -20.2396  -10.1589 C   0  0  0  0  0  0  0  0  0  0  0  0
   25.0174  -20.4049   -8.8764 N   0  0  0  0  0  0  0  0  0  0  0  0
   26.1199  -20.6657   -8.1353 C   0  0  0  0  0  0  0  0  0  0  0  0
   26.2776  -20.9148   -6.7849 C   0  0  0  0  0  0  0  0  0  0  0  0
   27.5237  -21.1726   -6.2268 C   0  0  0  0  0  0  0  0  0  0  0  0
   28.5908  -21.1671   -7.0825 C   0  0  0  0  0  0  0  0  0  0  0  0
   28.4481  -20.9200   -8.4267 C   0  0  0  0  0  0  0  0  0  0  0  0
   27.1969  -20.6640   -8.9742 C   0  0  0  0  0  0  0  0  0  0  0  0
   25.5535  -20.3781  -13.0029 C   0  0  0  0  0  0  0  0  0  0  0  0
   25.3285  -19.1609  -13.2563 O   0  0  0  0  0  0  0  0  0  0  0  0
   22.3096  -22.7729  -14.4089 C   0  0  0  0  0  0  0  0  0  0  0  0
   22.4198  -21.2583  -14.4643 C   0  0  2  0  0  0  0  0  0  0  0  0
   23.3202  -20.9447  -15.6401 C   0  0  0  0  0  0  0  0  0  0  0  0
   23.0816  -20.7060  -13.2283 C   0  0  2  0  0  0  0  0  0  0  0  0
   24.4170  -21.2362  -13.0345 N   0  0  0  0  0  0  0  0  0  0  0  0
   22.2613  -20.9491  -12.0630 C   0  0  0  0  0  0  0  0  0  0  0  0
   22.6329  -21.7771  -11.1827 O   0  0  0  0  0  0  0  0  0  0  0  0
   21.0392  -20.3224  -11.8130 O   0  0  0  0  0  0  0  0  0  0  0  0
  2 12  2  0
  2  1  1  0
  3  2  1  0
  4  5  1  0
  4  3  2  0
  5 11  2  0
  6  5  1  0
  7  9  1  0
  7  6  1  0
  7  8  1  6
  9 13  1  0
  9 10  2  0
 11 12  1  0
 13 14  1  0
 14 25  1  0
 14 15  1  1
 16 24  1  0
 16 15  1  0
 17 16  2  0
 18 17  1  0
 18 19  1  0
 19 24  2  0
 20 19  1  0
 20 21  2  0
 21 22  1  0
 22 23  2  0
 24 23  1  0
 25 26  2  0
 25 31  1  0
 28 27  1  1
 28 29  1  0
 30 32  1  0
 30 28  1  0
 30 31  1  1
 32 34  1  0
 33 32  2  0
M  END
$$$$
