YWV.pdb
     RDKit          3D

 34 36  0  0  1  0  0  0  0  0999 V2000
   30.0438  -16.1432  -19.6883 O   0  0  0  0  0  0  0  0  0  0  0  0
   29.2946  -16.8030  -18.7386 C   0  0  0  0  0  0  0  0  0  0  0  0
   29.7087  -16.7766  -17.4186 C   0  0  0  0  0  0  0  0  0  0  0  0
   28.9750  -17.4294  -16.4445 C   0  0  0  0  0  0  0  0  0  0  0  0
   27.8081  -18.1150  -16.8221 C   0  0  0  0  0  0  0  0  0  0  0  0
   27.0072  -18.8203  -15.8140 C   0  0  0  0  0  0  0  0  0  0  0  0
   27.7835  -20.0158  -15.2368 C   0  0  2  0  0  0  0  0  0  0  0  0
   27.8726  -21.0354  -16.3069 N   0  0  0  0  0  0  0  0  0  0  0  0
   27.0126  -20.6238  -14.1465 C   0  0  0  0  0  0  0  0  0  0  0  0
   26.0899  -21.4818  -14.3529 O   0  0  0  0  0  0  0  0  0  0  0  0
   27.3999  -18.1393  -18.1334 C   0  0  0  0  0  0  0  0  0  0  0  0
   28.1291  -17.4898  -19.1119 C   0  0  0  0  0  0  0  0  0  0  0  0
   27.2710  -20.2769  -12.8037 N   0  0  0  0  0  0  0  0  0  0  0  0
   26.4555  -20.8332  -11.7026 C   0  0  1  0  0  0  0  0  0  0  0  0
   27.2918  -20.5387  -10.4563 C   0  0  0  0  0  0  0  0  0  0  0  0
   26.5786  -20.7752   -9.1932 C   0  0  0  0  0  0  0  0  0  0  0  0
   25.4846  -21.5671   -9.0194 C   0  0  0  0  0  0  0  0  0  0  0  0
   25.1325  -21.4950   -7.7293 N   0  0  0  0  0  0  0  0  0  0  0  0
   25.9818  -20.6712   -7.0713 C   0  0  0  0  0  0  0  0  0  0  0  0
   26.0403  -20.2861   -5.7451 C   0  0  0  0  0  0  0  0  0  0  0  0
   27.0214  -19.4221   -5.2745 C   0  0  0  0  0  0  0  0  0  0  0  0
   27.9295  -18.9690   -6.1915 C   0  0  0  0  0  0  0  0  0  0  0  0
   27.8821  -19.3432   -7.5129 C   0  0  0  0  0  0  0  0  0  0  0  0
   26.8967  -20.2084   -7.9725 C   0  0  0  0  0  0  0  0  0  0  0  0
   25.1621  -20.1946  -11.7437 C   0  0  0  0  0  0  0  0  0  0  0  0
   25.0260  -18.9388  -11.7753 O   0  0  0  0  0  0  0  0  0  0  0  0
   21.7398  -22.0167  -13.3647 C   0  0  0  0  0  0  0  0  0  0  0  0
   21.9434  -20.5331  -13.1060 C   0  0  2  0  0  0  0  0  0  0  0  0
   22.8400  -20.0315  -14.2179 C   0  0  0  0  0  0  0  0  0  0  0  0
   22.6610  -20.2919  -11.8031 C   0  0  2  0  0  0  0  0  0  0  0  0
   23.9531  -20.9477  -11.7559 N   0  0  0  0  0  0  0  0  0  0  0  0
   21.8382  -20.7034  -10.6880 C   0  0  0  0  0  0  0  0  0  0  0  0
   22.1775  -21.6909   -9.9750 O   0  0  0  0  0  0  0  0  0  0  0  0
   20.6475  -20.0789  -10.3124 O   0  0  0  0  0  0  0  0  0  0  0  0
  2 12  2  0
  2  1  1  0
  3  2  1  0
  4  5  1  0
  4  3  2  0
  5 11  2  0
  6  5  1  0
  7  9  1  0
  7  6  1  0
  7  8  1  6
  9 13  1  0
  9 10  2  0
 11 12  1  0
 13 14  1  0
 14 25  1  0
 14 15  1  1
 16 24  1  0
 16 15  1  0
 17 16  2  0
 18 17  1  0
 18 19  1  0
 19 24  2  0
 20 19  1  0
 20 21  2  0
 21 22  1  0
 22 23  2  0
 24 23  1  0
 25 26  2  0
 25 31  1  0
 28 27  1  6
 28 29  1  0
 30 32  1  0
 30 28  1  0
 30 31  1  6
 32 34  1  0
 33 32  2  0
M  END
$$$$
