YWV.pdb
     RDKit          3D

 34 36  0  0  1  0  0  0  0  0999 V2000
   31.7512  -22.4813  -10.7480 O   0  0  0  0  0  0  0  0  0  0  0  0
   30.6496  -21.8050  -11.2254 C   0  0  0  0  0  0  0  0  0  0  0  0
   30.8350  -20.6161  -11.9086 C   0  0  0  0  0  0  0  0  0  0  0  0
   29.7471  -19.9172  -12.3997 C   0  0  0  0  0  0  0  0  0  0  0  0
   28.4586  -20.4373  -12.1910 C   0  0  0  0  0  0  0  0  0  0  0  0
   27.2819  -19.7199  -12.6968 C   0  0  0  0  0  0  0  0  0  0  0  0
   26.8314  -20.2936  -14.0507 C   0  0  2  0  0  0  0  0  0  0  0  0
   27.8147  -19.8452  -15.0630 N   0  0  0  0  0  0  0  0  0  0  0  0
   25.5436  -19.7031  -14.4321 C   0  0  0  0  0  0  0  0  0  0  0  0
   25.4558  -18.6124  -15.0899 O   0  0  0  0  0  0  0  0  0  0  0  0
   28.2780  -21.6178  -11.5122 C   0  0  0  0  0  0  0  0  0  0  0  0
   29.3610  -22.3206  -11.0181 C   0  0  0  0  0  0  0  0  0  0  0  0
   24.3318  -20.3342  -14.0808 N   0  0  0  0  0  0  0  0  0  0  0  0
   23.0286  -19.7107  -14.3965 C   0  0  1  0  0  0  0  0  0  0  0  0
   22.9924  -19.7160  -15.9256 C   0  0  0  0  0  0  0  0  0  0  0  0
   22.8405  -21.0553  -16.5113 C   0  0  0  0  0  0  0  0  0  0  0  0
   23.8452  -21.9234  -16.8135 C   0  0  0  0  0  0  0  0  0  0  0  0
   23.2882  -23.0189  -17.3457 N   0  0  0  0  0  0  0  0  0  0  0  0
   21.9433  -22.8698  -17.3899 C   0  0  0  0  0  0  0  0  0  0  0  0
   20.9430  -23.7123  -17.8372 C   0  0  0  0  0  0  0  0  0  0  0  0
   19.6017  -23.3545  -17.7790 C   0  0  0  0  0  0  0  0  0  0  0  0
   19.3187  -22.1226  -17.2562 C   0  0  0  0  0  0  0  0  0  0  0  0
   20.3035  -21.2751  -16.8089 C   0  0  0  0  0  0  0  0  0  0  0  0
   21.6419  -21.6436  -16.8714 C   0  0  0  0  0  0  0  0  0  0  0  0
   21.9983  -20.4884  -13.7516 C   0  0  0  0  0  0  0  0  0  0  0  0
   22.1051  -21.7333  -13.5636 O   0  0  0  0  0  0  0  0  0  0  0  0
   19.6220  -18.8469  -10.8266 C   0  0  0  0  0  0  0  0  0  0  0  0
   19.8271  -20.3336  -11.0654 C   0  0  2  0  0  0  0  0  0  0  0  0
   21.2079  -20.6580  -10.5366 C   0  0  0  0  0  0  0  0  0  0  0  0
   19.8168  -20.6645  -12.5354 C   0  0  2  0  0  0  0  0  0  0  0  0
   20.7926  -19.8937  -13.2808 N   0  0  0  0  0  0  0  0  0  0  0  0
   18.4928  -20.4820  -13.0865 C   0  0  0  0  0  0  0  0  0  0  0  0
   17.5219  -21.1666  -12.6540 O   0  0  0  0  0  0  0  0  0  0  0  0
   18.1777  -19.5761  -14.1009 O   0  0  0  0  0  0  0  0  0  0  0  0
  2 12  2  0
  2  1  1  0
  3  2  1  0
  4  5  1  0
  4  3  2  0
  5 11  2  0
  6  5  1  0
  7  9  1  0
  7  6  1  0
  7  8  1  6
  9 13  1  0
  9 10  2  0
 11 12  1  0
 13 14  1  0
 14 25  1  0
 14 15  1  6
 16 24  1  0
 16 15  1  0
 17 16  2  0
 18 17  1  0
 18 19  1  0
 19 24  2  0
 20 19  1  0
 20 21  2  0
 21 22  1  0
 22 23  2  0
 24 23  1  0
 25 26  2  0
 25 31  1  0
 28 27  1  6
 28 29  1  0
 30 32  1  0
 30 28  1  0
 30 31  1  6
 32 34  1  0
 33 32  2  0
M  END
$$$$
