YWV.pdb
     RDKit          3D

 34 36  0  0  1  0  0  0  0  0999 V2000
   30.4209  -15.8563  -19.7387 O   0  0  0  0  0  0  0  0  0  0  0  0
   29.5680  -16.5306  -18.8923 C   0  0  0  0  0  0  0  0  0  0  0  0
   29.9231  -16.6856  -17.5639 C   0  0  0  0  0  0  0  0  0  0  0  0
   29.0852  -17.3570  -16.6920 C   0  0  0  0  0  0  0  0  0  0  0  0
   27.8739  -17.8745  -17.1812 C   0  0  0  0  0  0  0  0  0  0  0  0
   26.9624  -18.5945  -16.2835 C   0  0  0  0  0  0  0  0  0  0  0  0
   27.5883  -19.9189  -15.8153 C   0  0  2  0  0  0  0  0  0  0  0  0
   27.5934  -20.8342  -16.9793 N   0  0  0  0  0  0  0  0  0  0  0  0
   26.7276  -20.5397  -14.8021 C   0  0  0  0  0  0  0  0  0  0  0  0
   25.7209  -21.2637  -15.1062 O   0  0  0  0  0  0  0  0  0  0  0  0
   27.5244  -17.7189  -18.5005 C   0  0  0  0  0  0  0  0  0  0  0  0
   28.3578  -17.0498  -19.3772 C   0  0  0  0  0  0  0  0  0  0  0  0
   26.9890  -20.3572  -13.4279 N   0  0  0  0  0  0  0  0  0  0  0  0
   26.0902  -20.9240  -12.3995 C   0  0  1  0  0  0  0  0  0  0  0  0
   26.8296  -20.6483  -11.0893 C   0  0  0  0  0  0  0  0  0  0  0  0
   26.0043  -20.8445   -9.8891 C   0  0  0  0  0  0  0  0  0  0  0  0
   24.9688  -21.7184   -9.7550 C   0  0  0  0  0  0  0  0  0  0  0  0
   24.4720  -21.5722   -8.5199 N   0  0  0  0  0  0  0  0  0  0  0  0
   25.1710  -20.6201   -7.8582 C   0  0  0  0  0  0  0  0  0  0  0  0
   25.0505  -20.1218   -6.5746 C   0  0  0  0  0  0  0  0  0  0  0  0
   25.8971  -19.1331   -6.0887 C   0  0  0  0  0  0  0  0  0  0  0  0
   26.8590  -18.6748   -6.9464 C   0  0  0  0  0  0  0  0  0  0  0  0
   26.9892  -19.1609   -8.2251 C   0  0  0  0  0  0  0  0  0  0  0  0
   26.1371  -20.1502   -8.7004 C   0  0  0  0  0  0  0  0  0  0  0  0
   24.8056  -20.2801  -12.5311 C   0  0  0  0  0  0  0  0  0  0  0  0
   24.6781  -19.0240  -12.5821 O   0  0  0  0  0  0  0  0  0  0  0  0
   22.3930  -19.9387  -15.2212 C   0  0  0  0  0  0  0  0  0  0  0  0
   21.6675  -20.6469  -14.0893 C   0  0  2  0  0  0  0  0  0  0  0  0
   20.2732  -20.0588  -14.0503 C   0  0  0  0  0  0  0  0  0  0  0  0
   22.3136  -20.3669  -12.7571 C   0  0  2  0  0  0  0  0  0  0  0  0
   23.5963  -21.0279  -12.6168 N   0  0  0  0  0  0  0  0  0  0  0  0
   21.4273  -20.7369  -11.6765 C   0  0  0  0  0  0  0  0  0  0  0  0
   20.5724  -19.9130  -11.2421 O   0  0  0  0  0  0  0  0  0  0  0  0
   21.4333  -21.9798  -11.0409 O   0  0  0  0  0  0  0  0  0  0  0  0
  2 12  2  0
  2  1  1  0
  3  2  1  0
  4  5  1  0
  4  3  2  0
  5 11  2  0
  6  5  1  0
  7  9  1  0
  7  6  1  0
  7  8  1  6
  9 13  1  0
  9 10  2  0
 11 12  1  0
 13 14  1  0
 14 25  1  0
 14 15  1  1
 16 24  1  0
 16 15  1  0
 17 16  2  0
 18 17  1  0
 18 19  1  0
 19 24  2  0
 20 19  1  0
 20 21  2  0
 21 22  1  0
 22 23  2  0
 24 23  1  0
 25 26  2  0
 25 31  1  0
 28 27  1  6
 28 29  1  0
 30 32  1  0
 30 28  1  0
 30 31  1  1
 32 34  1  0
 33 32  2  0
M  END
$$$$
