YWV.pdb
     RDKit          3D

 34 36  0  0  1  0  0  0  0  0999 V2000
   17.3120  -27.3188   -1.4985 O   0  0  0  0  0  0  0  0  0  0  0  0
   17.0464  -26.0515   -1.0274 C   0  0  0  0  0  0  0  0  0  0  0  0
   16.8289  -25.8699    0.3270 C   0  0  0  0  0  0  0  0  0  0  0  0
   16.5613  -24.6084    0.8272 C   0  0  0  0  0  0  0  0  0  0  0  0
   16.5156  -23.5229   -0.0638 C   0  0  0  0  0  0  0  0  0  0  0  0
   16.2320  -22.1710    0.4333 C   0  0  0  0  0  0  0  0  0  0  0  0
   14.7196  -21.9619    0.6177 C   0  0  2  0  0  0  0  0  0  0  0  0
   14.1214  -21.8891   -0.7349 N   0  0  0  0  0  0  0  0  0  0  0  0
   14.4756  -20.6609    1.2507 C   0  0  0  0  0  0  0  0  0  0  0  0
   14.3230  -19.5871    0.5772 O   0  0  0  0  0  0  0  0  0  0  0  0
   16.7319  -23.7066   -1.4078 C   0  0  0  0  0  0  0  0  0  0  0  0
   16.9988  -24.9649   -1.9142 C   0  0  0  0  0  0  0  0  0  0  0  0
   14.3964  -20.5488    2.6547 N   0  0  0  0  0  0  0  0  0  0  0  0
   14.2057  -19.2341    3.3045 C   0  0  1  0  0  0  0  0  0  0  0  0
   13.4848  -19.5823    4.6077 C   0  0  0  0  0  0  0  0  0  0  0  0
   13.1086  -18.4097    5.4098 C   0  0  0  0  0  0  0  0  0  0  0  0
   12.4155  -17.3217    4.9739 C   0  0  0  0  0  0  0  0  0  0  0  0
   12.2998  -16.4747    6.0049 N   0  0  0  0  0  0  0  0  0  0  0  0
   12.9058  -17.0002    7.0955 C   0  0  0  0  0  0  0  0  0  0  0  0
   13.0482  -16.5206    8.3840 C   0  0  0  0  0  0  0  0  0  0  0  0
   13.7124  -17.2438    9.3670 C   0  0  0  0  0  0  0  0  0  0  0  0
   14.2210  -18.4580    8.9955 C   0  0  0  0  0  0  0  0  0  0  0  0
   14.0874  -18.9460    7.7180 C   0  0  0  0  0  0  0  0  0  0  0  0
   13.4205  -18.2144    6.7429 C   0  0  0  0  0  0  0  0  0  0  0  0
   15.5046  -18.6253    3.4607 C   0  0  0  0  0  0  0  0  0  0  0  0
   16.5491  -19.3015    3.6805 O   0  0  0  0  0  0  0  0  0  0  0  0
   17.5724  -16.5807    1.0119 C   0  0  0  0  0  0  0  0  0  0  0  0
   17.3196  -15.7525    2.2607 C   0  0  2  0  0  0  0  0  0  0  0  0
   18.6156  -15.0276    2.5542 C   0  0  0  0  0  0  0  0  0  0  0  0
   17.0102  -16.6248    3.4499 C   0  0  2  0  0  0  0  0  0  0  0  0
   15.6886  -17.2157    3.3711 N   0  0  0  0  0  0  0  0  0  0  0  0
   17.1640  -15.8792    4.6788 C   0  0  0  0  0  0  0  0  0  0  0  0
   16.1486  -15.4330    5.2856 O   0  0  0  0  0  0  0  0  0  0  0  0
   18.3907  -15.5946    5.2814 O   0  0  0  0  0  0  0  0  0  0  0  0
  2 12  2  0
  2  1  1  0
  3  2  1  0
  4  5  1  0
  4  3  2  0
  5 11  2  0
  6  5  1  0
  7  9  1  0
  7  6  1  0
  7  8  1  6
  9 13  1  0
  9 10  2  0
 11 12  1  0
 13 14  1  0
 14 25  1  0
 14 15  1  1
 16 24  1  0
 16 15  1  0
 17 16  2  0
 18 17  1  0
 18 19  1  0
 19 24  2  0
 20 19  1  0
 20 21  2  0
 21 22  1  0
 22 23  2  0
 24 23  1  0
 25 26  2  0
 25 31  1  0
 28 27  1  6
 28 29  1  0
 30 32  1  0
 30 28  1  0
 30 31  1  6
 32 34  1  0
 33 32  2  0
M  END
$$$$
