YWV.pdb
     RDKit          3D

 34 36  0  0  1  0  0  0  0  0999 V2000
   30.8593  -16.9737  -19.1554 O   0  0  0  0  0  0  0  0  0  0  0  0
   30.0476  -17.5430  -18.1985 C   0  0  0  0  0  0  0  0  0  0  0  0
   29.0811  -18.4518  -18.5914 C   0  0  0  0  0  0  0  0  0  0  0  0
   28.2534  -19.0394  -17.6518 C   0  0  0  0  0  0  0  0  0  0  0  0
   28.4145  -18.6957  -16.2990 C   0  0  0  0  0  0  0  0  0  0  0  0
   27.5514  -19.2988  -15.2760 C   0  0  0  0  0  0  0  0  0  0  0  0
   28.2099  -20.5512  -14.6736 C   0  0  2  0  0  0  0  0  0  0  0  0
   28.1804  -21.6031  -15.7154 N   0  0  0  0  0  0  0  0  0  0  0  0
   27.3960  -21.0477  -13.5584 C   0  0  0  0  0  0  0  0  0  0  0  0
   26.3867  -21.8105  -13.7307 O   0  0  0  0  0  0  0  0  0  0  0  0
   29.3750  -17.7930  -15.9123 C   0  0  0  0  0  0  0  0  0  0  0  0
   30.2047  -17.2015  -16.8464 C   0  0  0  0  0  0  0  0  0  0  0  0
   27.7081  -20.6950  -12.2286 N   0  0  0  0  0  0  0  0  0  0  0  0
   26.8485  -21.1248  -11.1046 C   0  0  1  0  0  0  0  0  0  0  0  0
   27.6895  -20.8006   -9.8689 C   0  0  0  0  0  0  0  0  0  0  0  0
   26.9088  -20.7065   -8.6273 C   0  0  0  0  0  0  0  0  0  0  0  0
   25.5832  -20.9829   -8.4838 C   0  0  0  0  0  0  0  0  0  0  0  0
   25.2570  -20.7530   -7.2054 N   0  0  0  0  0  0  0  0  0  0  0  0
   26.3502  -20.3345   -6.5252 C   0  0  0  0  0  0  0  0  0  0  0  0
   26.5253  -19.9848   -5.1994 C   0  0  0  0  0  0  0  0  0  0  0  0
   27.7601  -19.5862   -4.7026 C   0  0  0  0  0  0  0  0  0  0  0  0
   28.7977  -19.5559   -5.5933 C   0  0  0  0  0  0  0  0  0  0  0  0
   28.6371  -19.9001   -6.9139 C   0  0  0  0  0  0  0  0  0  0  0  0
   27.3976  -20.2979   -7.3999 C   0  0  0  0  0  0  0  0  0  0  0  0
   25.5984  -20.4110  -11.2056 C   0  0  0  0  0  0  0  0  0  0  0  0
   25.5283  -19.1516  -11.1326 O   0  0  0  0  0  0  0  0  0  0  0  0
   22.3760  -21.8001  -13.4321 C   0  0  0  0  0  0  0  0  0  0  0  0
   22.5796  -20.3785  -12.9351 C   0  0  2  0  0  0  0  0  0  0  0  0
   23.6337  -19.7661  -13.8325 C   0  0  0  0  0  0  0  0  0  0  0  0
   23.1160  -20.3561  -11.5272 C   0  0  2  0  0  0  0  0  0  0  0  0
   24.3606  -21.0886  -11.3998 N   0  0  0  0  0  0  0  0  0  0  0  0
   22.1284  -20.8620  -10.6007 C   0  0  0  0  0  0  0  0  0  0  0  0
   22.3405  -21.9337   -9.9643 O   0  0  0  0  0  0  0  0  0  0  0  0
   20.9050  -20.2440  -10.3353 O   0  0  0  0  0  0  0  0  0  0  0  0
  2 12  2  0
  2  1  1  0
  3  2  1  0
  4  5  1  0
  4  3  2  0
  5 11  2  0
  6  5  1  0
  7  9  1  0
  7  6  1  0
  7  8  1  6
  9 13  1  0
  9 10  2  0
 11 12  1  0
 13 14  1  0
 14 25  1  0
 14 15  1  1
 16 24  1  0
 16 15  1  0
 17 16  2  0
 18 17  1  0
 18 19  1  0
 19 24  2  0
 20 19  1  0
 20 21  2  0
 21 22  1  0
 22 23  2  0
 24 23  1  0
 25 26  2  0
 25 31  1  0
 28 27  1  6
 28 29  1  0
 30 32  1  0
 30 28  1  0
 30 31  1  6
 32 34  1  0
 33 32  2  0
M  END
$$$$
