YWV.pdb
     RDKit          3D

 34 36  0  0  1  0  0  0  0  0999 V2000
   30.2412  -16.9763  -18.9822 O   0  0  0  0  0  0  0  0  0  0  0  0
   29.4976  -17.5069  -17.9506 C   0  0  0  0  0  0  0  0  0  0  0  0
   30.0064  -17.4650  -16.6646 C   0  0  0  0  0  0  0  0  0  0  0  0
   29.2806  -17.9891  -15.6102 C   0  0  0  0  0  0  0  0  0  0  0  0
   28.0241  -18.5610  -15.8718 C   0  0  0  0  0  0  0  0  0  0  0  0
   27.2285  -19.1284  -14.7763 C   0  0  0  0  0  0  0  0  0  0  0  0
   27.8731  -20.4190  -14.2434 C   0  0  2  0  0  0  0  0  0  0  0  0
   27.7139  -21.4514  -15.2930 N   0  0  0  0  0  0  0  0  0  0  0  0
   27.1264  -20.8964  -13.0741 C   0  0  0  0  0  0  0  0  0  0  0  0
   26.0952  -21.6425  -13.1752 O   0  0  0  0  0  0  0  0  0  0  0  0
   27.5219  -18.6010  -17.1497 C   0  0  0  0  0  0  0  0  0  0  0  0
   28.2426  -18.0799  -18.2080 C   0  0  0  0  0  0  0  0  0  0  0  0
   27.5314  -20.5430  -11.7699 N   0  0  0  0  0  0  0  0  0  0  0  0
   26.7530  -20.9720  -10.5879 C   0  0  1  0  0  0  0  0  0  0  0  0
   27.6606  -20.6066   -9.4121 C   0  0  0  0  0  0  0  0  0  0  0  0
   26.9932  -20.6717   -8.1043 C   0  0  0  0  0  0  0  0  0  0  0  0
   25.7296  -21.1184   -7.8637 C   0  0  0  0  0  0  0  0  0  0  0  0
   25.4985  -20.9939   -6.5505 N   0  0  0  0  0  0  0  0  0  0  0  0
   26.5920  -20.4757   -5.9433 C   0  0  0  0  0  0  0  0  0  0  0  0
   26.8465  -20.1721   -4.6191 C   0  0  0  0  0  0  0  0  0  0  0  0
   28.0652  -19.6469   -4.2077 C   0  0  0  0  0  0  0  0  0  0  0  0
   29.0042  -19.4435   -5.1812 C   0  0  0  0  0  0  0  0  0  0  0  0
   28.7640  -19.7401   -6.5013 C   0  0  0  0  0  0  0  0  0  0  0  0
   27.5414  -20.2656   -6.9014 C   0  0  0  0  0  0  0  0  0  0  0  0
   25.4825  -20.2887  -10.6231 C   0  0  0  0  0  0  0  0  0  0  0  0
   25.3876  -19.0295  -10.5774 O   0  0  0  0  0  0  0  0  0  0  0  0
   21.4867  -19.5760  -12.8996 C   0  0  0  0  0  0  0  0  0  0  0  0
   22.8082  -20.2429  -12.5558 C   0  0  2  0  0  0  0  0  0  0  0  0
   22.7106  -21.6619  -13.0739 C   0  0  0  0  0  0  0  0  0  0  0  0
   23.0184  -20.3192  -11.0657 C   0  0  2  0  0  0  0  0  0  0  0  0
   24.2510  -20.9982  -10.7169 N   0  0  0  0  0  0  0  0  0  0  0  0
   21.8874  -20.9531  -10.4263 C   0  0  0  0  0  0  0  0  0  0  0  0
   22.0046  -22.1051   -9.9185 O   0  0  0  0  0  0  0  0  0  0  0  0
   20.6193  -20.3799  -10.3160 O   0  0  0  0  0  0  0  0  0  0  0  0
  2 12  2  0
  2  1  1  0
  3  2  1  0
  4  5  1  0
  4  3  2  0
  5 11  2  0
  6  5  1  0
  7  9  1  0
  7  6  1  0
  7  8  1  6
  9 13  1  0
  9 10  2  0
 11 12  1  0
 13 14  1  0
 14 25  1  0
 14 15  1  1
 16 24  1  0
 16 15  1  0
 17 16  2  0
 18 17  1  0
 18 19  1  0
 19 24  2  0
 20 19  1  0
 20 21  2  0
 21 22  1  0
 22 23  2  0
 24 23  1  0
 25 26  2  0
 25 31  1  0
 28 27  1  1
 28 29  1  0
 30 32  1  0
 30 28  1  0
 30 31  1  6
 32 34  1  0
 33 32  2  0
M  END
$$$$
