YWV.pdb
     RDKit          3D

 34 36  0  0  1  0  0  0  0  0999 V2000
   26.1720  -13.5215  -20.3111 O   0  0  0  0  0  0  0  0  0  0  0  0
   25.7628  -14.4999  -19.4312 C   0  0  0  0  0  0  0  0  0  0  0  0
   25.3043  -15.7053  -19.9324 C   0  0  0  0  0  0  0  0  0  0  0  0
   24.8885  -16.7052  -19.0719 C   0  0  0  0  0  0  0  0  0  0  0  0
   24.9417  -16.4718  -17.6874 C   0  0  0  0  0  0  0  0  0  0  0  0
   24.5059  -17.5107  -16.7462 C   0  0  0  0  0  0  0  0  0  0  0  0
   25.6853  -18.4098  -16.3390 C   0  0  2  0  0  0  0  0  0  0  0  0
   26.0282  -19.2392  -17.5168 N   0  0  0  0  0  0  0  0  0  0  0  0
   25.2567  -19.3385  -15.2871 C   0  0  0  0  0  0  0  0  0  0  0  0
   24.6164  -20.4139  -15.5393 O   0  0  0  0  0  0  0  0  0  0  0  0
   25.3974  -15.2740  -17.1931 C   0  0  0  0  0  0  0  0  0  0  0  0
   25.8134  -14.2702  -18.0478 C   0  0  0  0  0  0  0  0  0  0  0  0
   25.5455  -19.0720  -13.9322 N   0  0  0  0  0  0  0  0  0  0  0  0
   25.1374  -20.0131  -12.8669 C   0  0  1  0  0  0  0  0  0  0  0  0
   26.0301  -19.6243  -11.6873 C   0  0  0  0  0  0  0  0  0  0  0  0
   25.7749  -20.4034  -10.4675 C   0  0  0  0  0  0  0  0  0  0  0  0
   25.1402  -21.6059  -10.3952 C   0  0  0  0  0  0  0  0  0  0  0  0
   25.0959  -21.9642   -9.1055 N   0  0  0  0  0  0  0  0  0  0  0  0
   25.6916  -21.0131   -8.3484 C   0  0  0  0  0  0  0  0  0  0  0  0
   25.9028  -20.9274   -6.9851 C   0  0  0  0  0  0  0  0  0  0  0  0
   26.5577  -19.8450   -6.4105 C   0  0  0  0  0  0  0  0  0  0  0  0
   26.9842  -18.8643   -7.2634 C   0  0  0  0  0  0  0  0  0  0  0  0
   26.7799  -18.9367   -8.6203 C   0  0  0  0  0  0  0  0  0  0  0  0
   26.1241  -20.0243   -9.1842 C   0  0  0  0  0  0  0  0  0  0  0  0
   23.7204  -19.8481  -12.6499 C   0  0  0  0  0  0  0  0  0  0  0  0
   23.1724  -18.7118  -12.5790 O   0  0  0  0  0  0  0  0  0  0  0  0
   20.8107  -22.5245  -13.9085 C   0  0  0  0  0  0  0  0  0  0  0  0
   20.5690  -21.1090  -13.4112 C   0  0  2  0  0  0  0  0  0  0  0  0
   20.9818  -20.1900  -14.5409 C   0  0  0  0  0  0  0  0  0  0  0  0
   21.4376  -20.7839  -12.2236 C   0  0  2  0  0  0  0  0  0  0  0  0
   22.8480  -20.9649  -12.5062 N   0  0  0  0  0  0  0  0  0  0  0  0
   21.0416  -21.5691  -11.0762 C   0  0  0  0  0  0  0  0  0  0  0  0
   21.8412  -22.4078  -10.5704 O   0  0  0  0  0  0  0  0  0  0  0  0
   19.7973  -21.4798  -10.4496 O   0  0  0  0  0  0  0  0  0  0  0  0
  2 12  2  0
  2  1  1  0
  3  2  1  0
  4  5  1  0
  4  3  2  0
  5 11  2  0
  6  5  1  0
  7  9  1  0
  7  6  1  0
  7  8  1  6
  9 13  1  0
  9 10  2  0
 11 12  1  0
 13 14  1  0
 14 25  1  0
 14 15  1  1
 16 24  1  0
 16 15  1  0
 17 16  2  0
 18 17  1  0
 18 19  1  0
 19 24  2  0
 20 19  1  0
 20 21  2  0
 21 22  1  0
 22 23  2  0
 24 23  1  0
 25 26  2  0
 25 31  1  0
 28 27  1  6
 28 29  1  0
 30 32  1  0
 30 28  1  0
 30 31  1  6
 32 34  1  0
 33 32  2  0
M  END
$$$$
