YWV.pdb
     RDKit          3D

 34 36  0  0  1  0  0  0  0  0999 V2000
   23.4151  -11.0131  -23.9802 O   0  0  0  0  0  0  0  0  0  0  0  0
   22.8421  -10.2822  -22.9624 C   0  0  0  0  0  0  0  0  0  0  0  0
   22.8400  -10.8024  -21.6802 C   0  0  0  0  0  0  0  0  0  0  0  0
   22.2728  -10.0896  -20.6394 C   0  0  0  0  0  0  0  0  0  0  0  0
   21.7026   -8.8344  -20.9107 C   0  0  0  0  0  0  0  0  0  0  0  0
   21.0900   -8.0524  -19.8298 C   0  0  0  0  0  0  0  0  0  0  0  0
   19.9370   -8.8323  -19.1759 C   0  0  2  0  0  0  0  0  0  0  0  0
   18.7538   -8.6777  -20.0526 N   0  0  0  0  0  0  0  0  0  0  0  0
   19.5878   -8.2118  -17.8930 C   0  0  0  0  0  0  0  0  0  0  0  0
   18.6918   -7.3083  -17.7882 O   0  0  0  0  0  0  0  0  0  0  0  0
   21.7062   -8.3208  -22.1848 C   0  0  0  0  0  0  0  0  0  0  0  0
   22.2707   -9.0286  -23.2295 C   0  0  0  0  0  0  0  0  0  0  0  0
   20.2409   -8.6019  -16.7050 N   0  0  0  0  0  0  0  0  0  0  0  0
   19.9461   -7.9340  -15.4190 C   0  0  1  0  0  0  0  0  0  0  0  0
   20.1123   -9.0534  -14.3900 C   0  0  0  0  0  0  0  0  0  0  0  0
   20.1419   -8.5814  -12.9985 C   0  0  0  0  0  0  0  0  0  0  0  0
   19.1462   -7.9166  -12.3499 C   0  0  0  0  0  0  0  0  0  0  0  0
   19.5770   -7.6503  -11.1101 N   0  0  0  0  0  0  0  0  0  0  0  0
   20.8317   -8.1331  -10.9509 C   0  0  0  0  0  0  0  0  0  0  0  0
   21.6885   -8.1165   -9.8664 C   0  0  0  0  0  0  0  0  0  0  0  0
   22.9524   -8.6910   -9.9208 C   0  0  0  0  0  0  0  0  0  0  0  0
   23.3089   -9.2754  -11.1050 C   0  0  0  0  0  0  0  0  0  0  0  0
   22.4673   -9.2980  -12.1910 C   0  0  0  0  0  0  0  0  0  0  0  0
   21.2050   -8.7208  -12.1252 C   0  0  0  0  0  0  0  0  0  0  0  0
   20.8580   -6.8245  -15.2774 C   0  0  0  0  0  0  0  0  0  0  0  0
   22.0866   -6.9159  -15.5578 O   0  0  0  0  0  0  0  0  0  0  0  0
   19.6432   -2.8122  -15.3153 C   0  0  0  0  0  0  0  0  0  0  0  0
   21.0857   -3.2711  -15.4485 C   0  0  2  0  0  0  0  0  0  0  0  0
   21.2598   -3.6983  -16.8903 C   0  0  0  0  0  0  0  0  0  0  0  0
   21.3661   -4.4730  -14.5840 C   0  0  2  0  0  0  0  0  0  0  0  0
   20.4230   -5.5497  -14.8142 N   0  0  0  0  0  0  0  0  0  0  0  0
   21.3841   -4.0995  -13.1876 C   0  0  0  0  0  0  0  0  0  0  0  0
   20.5406   -4.5917  -12.3846 O   0  0  0  0  0  0  0  0  0  0  0  0
   22.2912   -3.2015  -12.6220 O   0  0  0  0  0  0  0  0  0  0  0  0
  2 12  2  0
  2  1  1  0
  3  2  1  0
  4  5  1  0
  4  3  2  0
  5 11  2  0
  6  5  1  0
  7  9  1  0
  7  6  1  0
  7  8  1  6
  9 13  1  0
  9 10  2  0
 11 12  1  0
 13 14  1  0
 14 25  1  0
 14 15  1  1
 16 24  1  0
 16 15  1  0
 17 16  2  0
 18 17  1  0
 18 19  1  0
 19 24  2  0
 20 19  1  0
 20 21  2  0
 21 22  1  0
 22 23  2  0
 24 23  1  0
 25 26  2  0
 25 31  1  0
 28 27  1  6
 28 29  1  0
 30 32  1  0
 30 28  1  0
 30 31  1  1
 32 34  1  0
 33 32  2  0
M  END
$$$$
