YWV.pdb
     RDKit          3D

 34 36  0  0  1  0  0  0  0  0999 V2000
   21.9759  -12.4752  -19.1380 O   0  0  0  0  0  0  0  0  0  0  0  0
   22.3014  -13.6593  -18.5131 C   0  0  0  0  0  0  0  0  0  0  0  0
   23.0620  -13.6225  -17.3578 C   0  0  0  0  0  0  0  0  0  0  0  0
   23.4023  -14.7959  -16.7094 C   0  0  0  0  0  0  0  0  0  0  0  0
   22.9618  -16.0176  -17.2457 C   0  0  0  0  0  0  0  0  0  0  0  0
   23.3070  -17.2818  -16.5841 C   0  0  0  0  0  0  0  0  0  0  0  0
   24.7427  -17.7082  -16.9336 C   0  0  2  0  0  0  0  0  0  0  0  0
   24.7015  -18.3110  -18.2855 N   0  0  0  0  0  0  0  0  0  0  0  0
   25.1782  -18.7691  -16.0184 C   0  0  0  0  0  0  0  0  0  0  0  0
   24.8342  -19.9895  -16.1680 O   0  0  0  0  0  0  0  0  0  0  0  0
   22.2069  -16.0506  -18.3929 C   0  0  0  0  0  0  0  0  0  0  0  0
   21.8643  -14.8816  -19.0462 C   0  0  0  0  0  0  0  0  0  0  0  0
   26.0122  -18.4725  -14.9200 N   0  0  0  0  0  0  0  0  0  0  0  0
   26.3397  -19.5036  -13.9118 C   0  0  1  0  0  0  0  0  0  0  0  0
   27.5980  -18.9549  -13.2371 C   0  0  0  0  0  0  0  0  0  0  0  0
   28.0983  -19.7957  -12.1403 C   0  0  0  0  0  0  0  0  0  0  0  0
   29.0129  -20.7991  -12.2444 C   0  0  0  0  0  0  0  0  0  0  0  0
   29.1780  -21.3255  -11.0241 N   0  0  0  0  0  0  0  0  0  0  0  0
   28.3860  -20.6772  -10.1379 C   0  0  0  0  0  0  0  0  0  0  0  0
   28.2081  -20.8424   -8.7772 C   0  0  0  0  0  0  0  0  0  0  0  0
   27.3342  -20.0444   -8.0492 C   0  0  0  0  0  0  0  0  0  0  0  0
   26.6554  -19.0841   -8.7478 C   0  0  0  0  0  0  0  0  0  0  0  0
   26.8222  -18.9099  -10.1006 C   0  0  0  0  0  0  0  0  0  0  0  0
   27.6994  -19.7135  -10.8187 C   0  0  0  0  0  0  0  0  0  0  0  0
   25.1936  -19.6585  -13.0488 C   0  0  0  0  0  0  0  0  0  0  0  0
   24.4728  -18.6824  -12.6963 O   0  0  0  0  0  0  0  0  0  0  0  0
   22.8337  -23.1101  -12.5892 C   0  0  0  0  0  0  0  0  0  0  0  0
   22.5312  -21.7249  -12.0424 C   0  0  2  0  0  0  0  0  0  0  0  0
   22.0269  -20.9109  -13.2148 C   0  0  0  0  0  0  0  0  0  0  0  0
   23.7755  -21.0502  -11.5255 C   0  0  2  0  0  0  0  0  0  0  0  0
   24.8011  -20.9309  -12.5432 N   0  0  0  0  0  0  0  0  0  0  0  0
   24.2850  -21.7470  -10.3659 C   0  0  0  0  0  0  0  0  0  0  0  0
   25.4207  -22.3014  -10.4027 O   0  0  0  0  0  0  0  0  0  0  0  0
   23.6022  -21.8680   -9.1542 O   0  0  0  0  0  0  0  0  0  0  0  0
  2 12  2  0
  2  1  1  0
  3  2  1  0
  4  5  1  0
  4  3  2  0
  5 11  2  0
  6  5  1  0
  7  9  1  0
  7  6  1  0
  7  8  1  6
  9 13  1  0
  9 10  2  0
 11 12  1  0
 13 14  1  0
 14 25  1  0
 14 15  1  1
 16 24  1  0
 16 15  1  0
 17 16  2  0
 18 17  1  0
 18 19  1  0
 19 24  2  0
 20 19  1  0
 20 21  2  0
 21 22  1  0
 22 23  2  0
 24 23  1  0
 25 26  2  0
 25 31  1  0
 28 27  1  6
 28 29  1  0
 30 32  1  0
 30 28  1  0
 30 31  1  6
 32 34  1  0
 33 32  2  0
M  END
$$$$
