YWV.pdb
     RDKit          3D

 34 36  0  0  1  0  0  0  0  0999 V2000
   23.9037  -25.8945  -17.7189 O   0  0  0  0  0  0  0  0  0  0  0  0
   25.2660  -25.8368  -17.5203 C   0  0  0  0  0  0  0  0  0  0  0  0
   25.7497  -25.5856  -16.2484 C   0  0  0  0  0  0  0  0  0  0  0  0
   27.1125  -25.5235  -16.0204 C   0  0  0  0  0  0  0  0  0  0  0  0
   27.9890  -25.7197  -17.1009 C   0  0  0  0  0  0  0  0  0  0  0  0
   29.4411  -25.6582  -16.8945 C   0  0  0  0  0  0  0  0  0  0  0  0
   29.9899  -24.2732  -17.2761 C   0  0  2  0  0  0  0  0  0  0  0  0
   31.4391  -24.2796  -16.9720 N   0  0  0  0  0  0  0  0  0  0  0  0
   29.3886  -23.2500  -16.4133 C   0  0  0  0  0  0  0  0  0  0  0  0
   29.7480  -23.0763  -15.2006 O   0  0  0  0  0  0  0  0  0  0  0  0
   27.5055  -25.9688  -18.3623 C   0  0  0  0  0  0  0  0  0  0  0  0
   26.1446  -26.0312  -18.5971 C   0  0  0  0  0  0  0  0  0  0  0  0
   28.3732  -22.4027  -16.9043 N   0  0  0  0  0  0  0  0  0  0  0  0
   27.7721  -21.3580  -16.0474 C   0  0  1  0  0  0  0  0  0  0  0  0
   28.4520  -20.0729  -16.5226 C   0  0  0  0  0  0  0  0  0  0  0  0
   27.9213  -18.8538  -15.8964 C   0  0  0  0  0  0  0  0  0  0  0  0
   27.9770  -18.5354  -14.5736 C   0  0  0  0  0  0  0  0  0  0  0  0
   27.3645  -17.3551  -14.4144 N   0  0  0  0  0  0  0  0  0  0  0  0
   26.9171  -16.9096  -15.6120 C   0  0  0  0  0  0  0  0  0  0  0  0
   26.2410  -15.7571  -15.9657 C   0  0  0  0  0  0  0  0  0  0  0  0
   25.8810  -15.4919  -17.2812 C   0  0  0  0  0  0  0  0  0  0  0  0
   26.2290  -16.4313  -18.2125 C   0  0  0  0  0  0  0  0  0  0  0  0
   26.9003  -17.5816  -17.8743 C   0  0  0  0  0  0  0  0  0  0  0  0
   27.2560  -17.8362  -16.5554 C   0  0  0  0  0  0  0  0  0  0  0  0
   26.3416  -21.4042  -16.2309 C   0  0  0  0  0  0  0  0  0  0  0  0
   25.8081  -21.5933  -17.3606 O   0  0  0  0  0  0  0  0  0  0  0  0
   23.5362  -21.7133  -12.9209 C   0  0  0  0  0  0  0  0  0  0  0  0
   23.3131  -22.1841  -14.3484 C   0  0  2  0  0  0  0  0  0  0  0  0
   23.9577  -23.5503  -14.4463 C   0  0  0  0  0  0  0  0  0  0  0  0
   24.0041  -21.2860  -15.3416 C   0  0  2  0  0  0  0  0  0  0  0  0
   25.4392  -21.2431  -15.1406 N   0  0  0  0  0  0  0  0  0  0  0  0
   23.4420  -19.9548  -15.2975 C   0  0  0  0  0  0  0  0  0  0  0  0
   24.1371  -18.9822  -14.8859 O   0  0  0  0  0  0  0  0  0  0  0  0
   22.1400  -19.6342  -15.6858 O   0  0  0  0  0  0  0  0  0  0  0  0
  2 12  2  0
  2  1  1  0
  3  2  1  0
  4  5  1  0
  4  3  2  0
  5 11  2  0
  6  5  1  0
  7  9  1  0
  7  6  1  0
  7  8  1  1
  9 13  1  0
  9 10  2  0
 11 12  1  0
 13 14  1  0
 14 25  1  0
 14 15  1  6
 16 24  1  0
 16 15  1  0
 17 16  2  0
 18 17  1  0
 18 19  1  0
 19 24  2  0
 20 19  1  0
 20 21  2  0
 21 22  1  0
 22 23  2  0
 24 23  1  0
 25 26  2  0
 25 31  1  0
 28 27  1  1
 28 29  1  0
 30 32  1  0
 30 28  1  0
 30 31  1  1
 32 34  1  0
 33 32  2  0
M  END
$$$$
