YTD.pdb
     RDKit          3D

 28 28  0  0  1  0  0  0  0  0999 V2000
    5.3210  -10.2004   28.0328 O   0  0  0  0  0  0  0  0  0  0  0  0
    5.9992  -11.1874   27.3316 C   0  0  0  0  0  0  0  0  0  0  0  0
    6.3390  -11.0049   25.9985 C   0  0  0  0  0  0  0  0  0  0  0  0
    7.0126  -12.0302   25.3669 C   0  0  0  0  0  0  0  0  0  0  0  0
    7.3397  -13.1967   26.0296 C   0  0  0  0  0  0  0  0  0  0  0  0
    8.0679  -14.2989   25.3372 C   0  0  0  0  0  0  0  0  0  0  0  0
    7.0557  -15.1651   24.6095 C   0  0  2  0  0  0  0  0  0  0  0  0
    6.2694  -15.9685   25.5200 N   0  0  0  0  0  0  0  0  0  0  0  0
    7.7173  -15.9915   23.5728 C   0  0  0  0  0  0  0  0  0  0  0  0
    8.2098  -17.0900   23.9226 O   0  0  0  0  0  0  0  0  0  0  0  0
    6.9903  -13.3556   27.3586 C   0  0  0  0  0  0  0  0  0  0  0  0
    6.3189  -12.3429   28.0012 C   0  0  0  0  0  0  0  0  0  0  0  0
    6.8812  -15.3601   19.7782 C   0  0  0  0  0  0  0  0  0  0  0  0
    8.3104  -15.8289   19.8610 C   0  0  1  0  0  0  0  0  0  0  0  0
    9.1241  -14.6604   19.7761 O   0  0  0  0  0  0  0  0  0  0  0  0
    8.5955  -16.3875   21.2337 C   0  0  2  0  0  0  0  0  0  0  0  0
    7.8162  -15.5963   22.2146 N   0  0  0  0  0  0  0  0  0  0  0  0
   10.0148  -16.3861   21.6207 C   0  0  0  0  0  0  0  0  0  0  0  0
   10.3241  -15.7694   22.7048 O   0  0  0  0  0  0  0  0  0  0  0  0
   11.0916  -16.9817   20.9518 N   0  0  0  0  0  0  0  0  0  0  0  0
   12.3575  -17.3019   21.5925 C   0  0  1  0  0  0  0  0  0  0  0  0
   12.0795  -18.3140   22.6916 C   0  0  0  0  0  0  0  0  0  0  0  0
   12.6944  -17.8858   23.9882 C   0  0  0  0  0  0  0  0  0  0  0  0
   13.3780  -16.8337   24.0753 O   0  0  0  0  0  0  0  0  0  0  0  0
   13.3329  -17.8637   20.6434 C   0  0  0  0  0  0  0  0  0  0  0  0
   12.9188  -18.7750   19.7027 O   0  0  0  0  0  0  0  0  0  0  0  0
   12.5117  -18.6591   25.1223 O   0  0  0  0  0  0  0  0  0  0  0  0
   14.5249  -17.5151   20.6931 O   0  0  0  0  0  0  0  0  0  0  0  0
  1  2  1  0
  2 12  2  0
  3  4  2  0
  3  2  1  0
  4  5  1  0
  5  6  1  0
  5 11  2  0
  6  7  1  0
  7  8  1  1
  9 17  1  0
  9  7  1  0
 10  9  2  0
 12 11  1  0
 14 13  1  1
 14 16  1  0
 15 14  1  0
 16 18  1  0
 16 17  1  1
 18 20  1  0
 19 18  2  0
 20 21  1  0
 21 25  1  0
 21 22  1  1
 22 23  1  0
 23 27  1  0
 24 23  2  0
 25 26  1  0
 28 25  2  0
M  END
$$$$
