YTD.pdb
     RDKit          3D

 28 28  0  0  1  0  0  0  0  0999 V2000
    5.7675  -10.3189   28.3867 O   0  0  0  0  0  0  0  0  0  0  0  0
    6.2919  -11.2776   27.5313 C   0  0  0  0  0  0  0  0  0  0  0  0
    5.9228  -11.3139   26.1941 C   0  0  0  0  0  0  0  0  0  0  0  0
    6.4855  -12.2957   25.4045 C   0  0  0  0  0  0  0  0  0  0  0  0
    7.3828  -13.2110   25.9184 C   0  0  0  0  0  0  0  0  0  0  0  0
    7.9851  -14.2684   25.0561 C   0  0  0  0  0  0  0  0  0  0  0  0
    6.8641  -15.0612   24.4086 C   0  0  2  0  0  0  0  0  0  0  0  0
    6.1220  -15.8448   25.3720 N   0  0  0  0  0  0  0  0  0  0  0  0
    7.3809  -15.8948   23.2980 C   0  0  0  0  0  0  0  0  0  0  0  0
    7.5976  -17.1084   23.5255 O   0  0  0  0  0  0  0  0  0  0  0  0
    7.7355  -13.1548   27.2548 C   0  0  0  0  0  0  0  0  0  0  0  0
    7.1832  -12.1823   28.0539 C   0  0  0  0  0  0  0  0  0  0  0  0
    7.1407  -14.3197   19.8161 C   0  0  0  0  0  0  0  0  0  0  0  0
    7.9220  -15.5912   19.6106 C   0  0  1  0  0  0  0  0  0  0  0  0
    9.1917  -15.2049   19.0881 O   0  0  0  0  0  0  0  0  0  0  0  0
    8.2400  -16.2268   20.9419 C   0  0  2  0  0  0  0  0  0  0  0  0
    7.6386  -15.3829   22.0010 N   0  0  0  0  0  0  0  0  0  0  0  0
    9.6741  -16.4075   21.2154 C   0  0  0  0  0  0  0  0  0  0  0  0
   10.2021  -15.6370   22.0978 O   0  0  0  0  0  0  0  0  0  0  0  0
   10.5541  -17.3275   20.6315 N   0  0  0  0  0  0  0  0  0  0  0  0
   11.8855  -17.6046   21.1476 C   0  0  1  0  0  0  0  0  0  0  0  0
   11.7368  -18.0951   22.5783 C   0  0  0  0  0  0  0  0  0  0  0  0
   13.0698  -18.4165   23.1804 C   0  0  0  0  0  0  0  0  0  0  0  0
   14.1411  -18.1997   22.5581 O   0  0  0  0  0  0  0  0  0  0  0  0
   12.5883  -18.6233   20.3501 C   0  0  0  0  0  0  0  0  0  0  0  0
   13.7135  -18.2759   19.6429 O   0  0  0  0  0  0  0  0  0  0  0  0
   13.1345  -18.9650   24.4502 O   0  0  0  0  0  0  0  0  0  0  0  0
   12.1657  -19.7916   20.3169 O   0  0  0  0  0  0  0  0  0  0  0  0
  1  2  1  0
  2 12  2  0
  3  4  2  0
  3  2  1  0
  4  5  1  0
  5  6  1  0
  5 11  2  0
  6  7  1  0
  7  8  1  1
  9 17  1  0
  9  7  1  0
 10  9  2  0
 12 11  1  0
 14 13  1  1
 14 16  1  0
 15 14  1  0
 16 18  1  0
 16 17  1  1
 18 20  1  0
 19 18  2  0
 20 21  1  0
 21 25  1  0
 21 22  1  1
 22 23  1  0
 23 27  1  0
 24 23  2  0
 25 26  1  0
 28 25  2  0
M  END
$$$$
