YTD.pdb
     RDKit          3D

 28 28  0  0  1  0  0  0  0  0999 V2000
    8.3502  -11.2524   18.3989 O   0  0  0  0  0  0  0  0  0  0  0  0
    8.2346  -12.2073   19.3992 C   0  0  0  0  0  0  0  0  0  0  0  0
    7.0129  -12.8071   19.6702 C   0  0  0  0  0  0  0  0  0  0  0  0
    6.9751  -13.7476   20.6792 C   0  0  0  0  0  0  0  0  0  0  0  0
    8.1060  -14.0844   21.3965 C   0  0  0  0  0  0  0  0  0  0  0  0
    8.0539  -15.1023   22.4853 C   0  0  0  0  0  0  0  0  0  0  0  0
    8.4413  -16.4509   21.9057 C   0  0  2  0  0  0  0  0  0  0  0  0
    7.5127  -16.8958   20.8896 N   0  0  0  0  0  0  0  0  0  0  0  0
    8.6102  -17.4576   22.9797 C   0  0  0  0  0  0  0  0  0  0  0  0
    7.5772  -17.9372   23.5036 O   0  0  0  0  0  0  0  0  0  0  0  0
    9.3127  -13.4729   21.1080 C   0  0  0  0  0  0  0  0  0  0  0  0
    9.3661  -12.5339   20.1056 C   0  0  0  0  0  0  0  0  0  0  0  0
    9.2168  -20.4996   22.4180 C   0  0  0  0  0  0  0  0  0  0  0  0
   10.3416  -20.2685   23.3932 C   0  0  1  0  0  0  0  0  0  0  0  0
   11.4591  -19.8287   22.6235 O   0  0  0  0  0  0  0  0  0  0  0  0
   10.0190  -19.0992   24.2911 C   0  0  2  0  0  0  0  0  0  0  0  0
    9.8787  -17.8975   23.4358 N   0  0  0  0  0  0  0  0  0  0  0  0
   11.0101  -18.8362   25.3459 C   0  0  0  0  0  0  0  0  0  0  0  0
   11.6834  -17.7455   25.2561 O   0  0  0  0  0  0  0  0  0  0  0  0
   11.3194  -19.6319   26.4564 N   0  0  0  0  0  0  0  0  0  0  0  0
   11.8318  -19.0989   27.7089 C   0  0  1  0  0  0  0  0  0  0  0  0
   10.8245  -18.0875   28.2306 C   0  0  0  0  0  0  0  0  0  0  0  0
   11.3261  -17.4165   29.4718 C   0  0  0  0  0  0  0  0  0  0  0  0
   12.4500  -17.6971   29.9619 O   0  0  0  0  0  0  0  0  0  0  0  0
   12.0367  -20.1521   28.7171 C   0  0  0  0  0  0  0  0  0  0  0  0
   12.8610  -19.9150   29.7901 O   0  0  0  0  0  0  0  0  0  0  0  0
   10.5421  -16.4644   30.1014 O   0  0  0  0  0  0  0  0  0  0  0  0
   11.4668  -21.2502   28.5980 O   0  0  0  0  0  0  0  0  0  0  0  0
  1  2  1  0
  2 12  2  0
  3  4  2  0
  3  2  1  0
  4  5  1  0
  5  6  1  0
  5 11  2  0
  6  7  1  0
  7  8  1  6
  9 17  1  0
  9  7  1  0
 10  9  2  0
 12 11  1  0
 14 13  1  6
 14 16  1  0
 15 14  1  0
 16 18  1  0
 16 17  1  6
 18 20  1  0
 19 18  2  0
 20 21  1  0
 21 25  1  0
 21 22  1  1
 22 23  1  0
 23 27  1  0
 24 23  2  0
 25 26  1  0
 28 25  2  0
M  END
$$$$
