YTD.pdb
     RDKit          3D

 28 28  0  0  1  0  0  0  0  0999 V2000
  -14.4224  -22.4691   27.8279 O   0  0  0  0  0  0  0  0  0  0  0  0
  -13.1040  -22.8544   28.0256 C   0  0  0  0  0  0  0  0  0  0  0  0
  -12.1379  -21.9233   28.3799 C   0  0  0  0  0  0  0  0  0  0  0  0
  -10.8483  -22.3804   28.5593 C   0  0  0  0  0  0  0  0  0  0  0  0
  -10.5238  -23.7125   28.3943 C   0  0  0  0  0  0  0  0  0  0  0  0
   -9.1266  -24.1959   28.5906 C   0  0  0  0  0  0  0  0  0  0  0  0
   -8.3139  -23.8394   27.3590 C   0  0  2  0  0  0  0  0  0  0  0  0
   -8.8023  -24.5045   26.1708 N   0  0  0  0  0  0  0  0  0  0  0  0
   -6.8726  -24.0984   27.5851 C   0  0  0  0  0  0  0  0  0  0  0  0
   -6.4601  -25.2754   27.4589 O   0  0  0  0  0  0  0  0  0  0  0  0
  -11.5042  -24.6221   28.0409 C   0  0  0  0  0  0  0  0  0  0  0  0
  -12.7934  -24.1816   27.8586 C   0  0  0  0  0  0  0  0  0  0  0  0
   -3.8947  -21.6674   26.4695 C   0  0  0  0  0  0  0  0  0  0  0  0
   -3.7384  -22.1062   27.9021 C   0  0  1  0  0  0  0  0  0  0  0  0
   -4.4042  -21.1281   28.6988 O   0  0  0  0  0  0  0  0  0  0  0  0
   -4.5125  -23.3791   28.1433 C   0  0  2  0  0  0  0  0  0  0  0  0
   -5.9489  -23.0811   27.9348 N   0  0  0  0  0  0  0  0  0  0  0  0
   -4.3246  -23.9756   29.4748 C   0  0  0  0  0  0  0  0  0  0  0  0
   -4.7658  -23.3093   30.4810 O   0  0  0  0  0  0  0  0  0  0  0  0
   -3.7194  -25.1976   29.7946 N   0  0  0  0  0  0  0  0  0  0  0  0
   -3.5142  -25.6599   31.1584 C   0  0  1  0  0  0  0  0  0  0  0  0
   -4.0701  -27.0707   31.2598 C   0  0  0  0  0  0  0  0  0  0  0  0
   -3.9438  -27.6021   32.6542 C   0  0  0  0  0  0  0  0  0  0  0  0
   -3.4364  -26.9133   33.5762 O   0  0  0  0  0  0  0  0  0  0  0  0
   -2.0905  -25.6652   31.5336 C   0  0  0  0  0  0  0  0  0  0  0  0
   -1.1337  -25.4393   30.5743 O   0  0  0  0  0  0  0  0  0  0  0  0
   -4.3929  -28.8793   32.9447 O   0  0  0  0  0  0  0  0  0  0  0  0
   -1.7561  -25.8732   32.7125 O   0  0  0  0  0  0  0  0  0  0  0  0
  1  2  1  0
  2 12  2  0
  3  4  2  0
  3  2  1  0
  4  5  1  0
  5  6  1  0
  5 11  2  0
  6  7  1  0
  7  8  1  6
  9 17  1  0
  9  7  1  0
 10  9  2  0
 12 11  1  0
 14 13  1  6
 14 16  1  0
 15 14  1  0
 16 18  1  0
 16 17  1  1
 18 20  1  0
 19 18  2  0
 20 21  1  0
 21 25  1  0
 21 22  1  6
 22 23  1  0
 23 27  1  0
 24 23  2  0
 25 26  1  0
 28 25  2  0
M  END
$$$$
