YTD.pdb
     RDKit          3D

 28 28  0  0  1  0  0  0  0  0999 V2000
    7.6348  -14.1357   14.0369 O   0  0  0  0  0  0  0  0  0  0  0  0
    7.8964  -14.4759   15.3566 C   0  0  0  0  0  0  0  0  0  0  0  0
    7.7336  -15.7811   15.7988 C   0  0  0  0  0  0  0  0  0  0  0  0
    8.0128  -16.0440   17.1243 C   0  0  0  0  0  0  0  0  0  0  0  0
    8.4386  -15.0509   17.9843 C   0  0  0  0  0  0  0  0  0  0  0  0
    8.7376  -15.3459   19.4154 C   0  0  0  0  0  0  0  0  0  0  0  0
    9.0686  -14.0421   20.1191 C   0  0  2  0  0  0  0  0  0  0  0  0
   10.1655  -13.3429   19.4862 N   0  0  0  0  0  0  0  0  0  0  0  0
    9.3166  -14.2699   21.5620 C   0  0  0  0  0  0  0  0  0  0  0  0
   10.5036  -14.2486   21.9649 O   0  0  0  0  0  0  0  0  0  0  0  0
    8.5935  -13.7570   17.5202 C   0  0  0  0  0  0  0  0  0  0  0  0
    8.3191  -13.4798   16.2022 C   0  0  0  0  0  0  0  0  0  0  0  0
    7.2065  -12.6764   24.3190 C   0  0  0  0  0  0  0  0  0  0  0  0
    7.4207  -14.1122   24.7214 C   0  0  1  0  0  0  0  0  0  0  0  0
    6.2727  -14.8319   24.2757 O   0  0  0  0  0  0  0  0  0  0  0  0
    8.5655  -14.7063   23.9378 C   0  0  2  0  0  0  0  0  0  0  0  0
    8.2784  -14.5087   22.4977 N   0  0  0  0  0  0  0  0  0  0  0  0
    8.8183  -16.1325   24.1953 C   0  0  0  0  0  0  0  0  0  0  0  0
    8.5316  -16.9563   23.2517 O   0  0  0  0  0  0  0  0  0  0  0  0
    9.3423  -16.7200   25.3538 N   0  0  0  0  0  0  0  0  0  0  0  0
   10.1826  -17.9072   25.3429 C   0  0  1  0  0  0  0  0  0  0  0  0
   11.4072  -17.6024   24.4961 C   0  0  0  0  0  0  0  0  0  0  0  0
   12.3409  -18.7725   24.4557 C   0  0  0  0  0  0  0  0  0  0  0  0
   12.7825  -19.2972   25.5101 O   0  0  0  0  0  0  0  0  0  0  0  0
   10.6075  -18.2981   26.6973 C   0  0  0  0  0  0  0  0  0  0  0  0
   10.9569  -17.3294   27.6063 O   0  0  0  0  0  0  0  0  0  0  0  0
   12.7325  -19.2957   23.2349 O   0  0  0  0  0  0  0  0  0  0  0  0
   10.6498  -19.4986   27.0166 O   0  0  0  0  0  0  0  0  0  0  0  0
  1  2  1  0
  2 12  2  0
  3  4  2  0
  3  2  1  0
  4  5  1  0
  5  6  1  0
  5 11  2  0
  6  7  1  0
  7  8  1  6
  9 17  1  0
  9  7  1  0
 10  9  2  0
 12 11  1  0
 14 13  1  6
 14 16  1  0
 15 14  1  0
 16 18  1  0
 16 17  1  6
 18 20  1  0
 19 18  2  0
 20 21  1  0
 21 25  1  0
 21 22  1  6
 22 23  1  0
 23 27  1  0
 24 23  2  0
 25 26  1  0
 28 25  2  0
M  END
$$$$
