YTD.pdb
     RDKit          3D

 28 28  0  0  1  0  0  0  0  0999 V2000
    5.1735  -10.2080   27.9653 O   0  0  0  0  0  0  0  0  0  0  0  0
    5.9094  -11.2143   27.3557 C   0  0  0  0  0  0  0  0  0  0  0  0
    7.1004  -11.6590   27.9119 C   0  0  0  0  0  0  0  0  0  0  0  0
    7.7771  -12.6626   27.2494 C   0  0  0  0  0  0  0  0  0  0  0  0
    7.2936  -13.2087   26.0767 C   0  0  0  0  0  0  0  0  0  0  0  0
    8.0332  -14.2931   25.3685 C   0  0  0  0  0  0  0  0  0  0  0  0
    7.0235  -15.2325   24.7340 C   0  0  2  0  0  0  0  0  0  0  0  0
    6.2940  -15.9981   25.7211 N   0  0  0  0  0  0  0  0  0  0  0  0
    7.6740  -16.1043   23.7279 C   0  0  0  0  0  0  0  0  0  0  0  0
    7.9068  -17.2947   24.0443 O   0  0  0  0  0  0  0  0  0  0  0  0
    6.1039  -12.7488   25.5415 C   0  0  0  0  0  0  0  0  0  0  0  0
    5.4185  -11.7495   26.1902 C   0  0  0  0  0  0  0  0  0  0  0  0
    7.0412  -15.3564   20.0202 C   0  0  0  0  0  0  0  0  0  0  0  0
    8.4040  -15.9963   20.0706 C   0  0  1  0  0  0  0  0  0  0  0  0
    9.3518  -14.9382   19.9408 O   0  0  0  0  0  0  0  0  0  0  0  0
    8.6605  -16.5654   21.4445 C   0  0  2  0  0  0  0  0  0  0  0  0
    8.0410  -15.6535   22.4346 N   0  0  0  0  0  0  0  0  0  0  0  0
   10.0797  -16.7601   21.7794 C   0  0  0  0  0  0  0  0  0  0  0  0
   10.6822  -15.7848   22.3599 O   0  0  0  0  0  0  0  0  0  0  0  0
   10.8734  -17.8905   21.5467 N   0  0  0  0  0  0  0  0  0  0  0  0
   12.2826  -17.9689   21.8983 C   0  0  1  0  0  0  0  0  0  0  0  0
   12.5685  -19.3884   22.3596 C   0  0  0  0  0  0  0  0  0  0  0  0
   12.0081  -19.6355   23.7262 C   0  0  0  0  0  0  0  0  0  0  0  0
   11.9121  -18.7111   24.5737 O   0  0  0  0  0  0  0  0  0  0  0  0
   13.1570  -17.6370   20.7612 C   0  0  0  0  0  0  0  0  0  0  0  0
   12.6095  -17.4432   19.5164 O   0  0  0  0  0  0  0  0  0  0  0  0
   11.5833  -20.9068   24.0738 O   0  0  0  0  0  0  0  0  0  0  0  0
   14.3844  -17.5326   20.9268 O   0  0  0  0  0  0  0  0  0  0  0  0
  1  2  1  0
  2 12  2  0
  3  4  2  0
  3  2  1  0
  4  5  1  0
  5  6  1  0
  5 11  2  0
  6  7  1  0
  7  8  1  1
  9 17  1  0
  9  7  1  0
 10  9  2  0
 12 11  1  0
 14 13  1  1
 14 16  1  0
 15 14  1  0
 16 18  1  0
 16 17  1  1
 18 20  1  0
 19 18  2  0
 20 21  1  0
 21 25  1  0
 21 22  1  6
 22 23  1  0
 23 27  1  0
 24 23  2  0
 25 26  1  0
 28 25  2  0
M  END
$$$$
