YTD.pdb
     RDKit          3D

 28 28  0  0  1  0  0  0  0  0999 V2000
    4.9328  -10.1006   28.0316 O   0  0  0  0  0  0  0  0  0  0  0  0
    5.6682  -11.0586   27.3480 C   0  0  0  0  0  0  0  0  0  0  0  0
    5.3815  -11.3628   26.0248 C   0  0  0  0  0  0  0  0  0  0  0  0
    6.1553  -12.3261   25.4106 C   0  0  0  0  0  0  0  0  0  0  0  0
    7.1781  -12.9676   26.0809 C   0  0  0  0  0  0  0  0  0  0  0  0
    8.0084  -14.0076   25.4076 C   0  0  0  0  0  0  0  0  0  0  0  0
    7.0864  -15.0791   24.8542 C   0  0  2  0  0  0  0  0  0  0  0  0
    6.3829  -15.7882   25.9006 N   0  0  0  0  0  0  0  0  0  0  0  0
    7.8262  -16.0019   23.9616 C   0  0  0  0  0  0  0  0  0  0  0  0
    8.0755  -17.1552   24.3848 O   0  0  0  0  0  0  0  0  0  0  0  0
    7.4451  -12.6474   27.3999 C   0  0  0  0  0  0  0  0  0  0  0  0
    6.6827  -11.6897   28.0251 C   0  0  0  0  0  0  0  0  0  0  0  0
    7.1820  -15.9215   20.2008 C   0  0  0  0  0  0  0  0  0  0  0  0
    8.6484  -16.2317   20.3514 C   0  0  1  0  0  0  0  0  0  0  0  0
    9.3439  -15.0033   20.1473 O   0  0  0  0  0  0  0  0  0  0  0  0
    8.9564  -16.6061   21.7806 C   0  0  2  0  0  0  0  0  0  0  0  0
    8.2602  -15.6392   22.6614 N   0  0  0  0  0  0  0  0  0  0  0  0
   10.3878  -16.6338   22.1191 C   0  0  0  0  0  0  0  0  0  0  0  0
   10.9318  -15.5174   22.4489 O   0  0  0  0  0  0  0  0  0  0  0  0
   11.2497  -17.7378   22.1317 N   0  0  0  0  0  0  0  0  0  0  0  0
   12.6609  -17.6514   22.4732 C   0  0  1  0  0  0  0  0  0  0  0  0
   13.0511  -18.9452   23.1687 C   0  0  0  0  0  0  0  0  0  0  0  0
   12.5899  -18.9528   24.5934 C   0  0  0  0  0  0  0  0  0  0  0  0
   12.0804  -17.9328   25.1244 O   0  0  0  0  0  0  0  0  0  0  0  0
   13.5081  -17.4584   21.2846 C   0  0  0  0  0  0  0  0  0  0  0  0
   12.9397  -17.4774   20.0343 O   0  0  0  0  0  0  0  0  0  0  0  0
   12.7233  -20.1040   25.3513 O   0  0  0  0  0  0  0  0  0  0  0  0
   14.7314  -17.2793   21.4120 O   0  0  0  0  0  0  0  0  0  0  0  0
  1  2  1  0
  2 12  2  0
  3  4  2  0
  3  2  1  0
  4  5  1  0
  5  6  1  0
  5 11  2  0
  6  7  1  0
  7  8  1  1
  9 17  1  0
  9  7  1  0
 10  9  2  0
 12 11  1  0
 14 13  1  1
 14 16  1  0
 15 14  1  0
 16 18  1  0
 16 17  1  1
 18 20  1  0
 19 18  2  0
 20 21  1  0
 21 25  1  0
 21 22  1  6
 22 23  1  0
 23 27  1  0
 24 23  2  0
 25 26  1  0
 28 25  2  0
M  END
$$$$
