YTD.pdb
     RDKit          3D

 28 28  0  0  1  0  0  0  0  0999 V2000
    4.8828  -10.3535   28.2527 O   0  0  0  0  0  0  0  0  0  0  0  0
    5.6619  -11.2759   27.5688 C   0  0  0  0  0  0  0  0  0  0  0  0
    6.8741  -11.7062   28.0898 C   0  0  0  0  0  0  0  0  0  0  0  0
    7.5938  -12.6246   27.3532 C   0  0  0  0  0  0  0  0  0  0  0  0
    7.1318  -13.1022   26.1427 C   0  0  0  0  0  0  0  0  0  0  0  0
    7.9179  -14.0948   25.3545 C   0  0  0  0  0  0  0  0  0  0  0  0
    6.9648  -15.1427   24.8083 C   0  0  2  0  0  0  0  0  0  0  0  0
    6.3385  -15.9129   25.8605 N   0  0  0  0  0  0  0  0  0  0  0  0
    7.6455  -16.0098   23.8183 C   0  0  0  0  0  0  0  0  0  0  0  0
    7.8690  -17.2017   24.1361 O   0  0  0  0  0  0  0  0  0  0  0  0
    5.9204  -12.6585   25.6437 C   0  0  0  0  0  0  0  0  0  0  0  0
    5.1921  -11.7436   26.3661 C   0  0  0  0  0  0  0  0  0  0  0  0
    7.0798  -15.3335   20.1163 C   0  0  0  0  0  0  0  0  0  0  0  0
    8.4623  -15.9277   20.1875 C   0  0  1  0  0  0  0  0  0  0  0  0
    9.3762  -14.8437   20.0316 O   0  0  0  0  0  0  0  0  0  0  0  0
    8.7321  -16.4513   21.5769 C   0  0  2  0  0  0  0  0  0  0  0  0
    8.0512  -15.5530   22.5387 N   0  0  0  0  0  0  0  0  0  0  0  0
   10.1555  -16.5602   21.9323 C   0  0  0  0  0  0  0  0  0  0  0  0
   10.6685  -15.5857   22.5944 O   0  0  0  0  0  0  0  0  0  0  0  0
   11.0395  -17.6068   21.6406 N   0  0  0  0  0  0  0  0  0  0  0  0
   12.4319  -17.6230   22.0608 C   0  0  1  0  0  0  0  0  0  0  0  0
   12.6828  -18.9333   22.7887 C   0  0  0  0  0  0  0  0  0  0  0  0
   14.1219  -19.0664   23.1807 C   0  0  0  0  0  0  0  0  0  0  0  0
   14.9581  -18.1614   22.9279 O   0  0  0  0  0  0  0  0  0  0  0  0
   13.3564  -17.5103   20.9205 C   0  0  0  0  0  0  0  0  0  0  0  0
   12.8557  -17.4484   19.6428 O   0  0  0  0  0  0  0  0  0  0  0  0
   14.5513  -20.2078   23.8367 O   0  0  0  0  0  0  0  0  0  0  0  0
   14.5837  -17.4713   21.1129 O   0  0  0  0  0  0  0  0  0  0  0  0
  1  2  1  0
  2 12  2  0
  3  4  2  0
  3  2  1  0
  4  5  1  0
  5  6  1  0
  5 11  2  0
  6  7  1  0
  7  8  1  1
  9 17  1  0
  9  7  1  0
 10  9  2  0
 12 11  1  0
 14 13  1  1
 14 16  1  0
 15 14  1  0
 16 18  1  0
 16 17  1  1
 18 20  1  0
 19 18  2  0
 20 21  1  0
 21 25  1  0
 21 22  1  6
 22 23  1  0
 23 27  1  0
 24 23  2  0
 25 26  1  0
 28 25  2  0
M  END
$$$$
