YTD.pdb
     RDKit          3D

 28 28  0  0  1  0  0  0  0  0999 V2000
    5.0972  -10.2604   28.1460 O   0  0  0  0  0  0  0  0  0  0  0  0
    5.7794  -11.2179   27.4087 C   0  0  0  0  0  0  0  0  0  0  0  0
    5.2829  -11.6632   26.1917 C   0  0  0  0  0  0  0  0  0  0  0  0
    6.0160  -12.6167   25.5153 C   0  0  0  0  0  0  0  0  0  0  0  0
    7.1999  -13.1136   26.0237 C   0  0  0  0  0  0  0  0  0  0  0  0
    7.9844  -14.1442   25.2843 C   0  0  0  0  0  0  0  0  0  0  0  0
    7.0347  -15.2331   24.8187 C   0  0  2  0  0  0  0  0  0  0  0  0
    6.4809  -15.9844   25.9240 N   0  0  0  0  0  0  0  0  0  0  0  0
    7.6899  -16.1144   23.8239 C   0  0  0  0  0  0  0  0  0  0  0  0
    7.9429  -17.2950   24.1610 O   0  0  0  0  0  0  0  0  0  0  0  0
    7.6748  -12.6542   27.2390 C   0  0  0  0  0  0  0  0  0  0  0  0
    6.9554  -11.7045   27.9245 C   0  0  0  0  0  0  0  0  0  0  0  0
    7.1569  -15.2632   20.1117 C   0  0  0  0  0  0  0  0  0  0  0  0
    8.4560  -16.0240   20.1638 C   0  0  1  0  0  0  0  0  0  0  0  0
    9.4958  -15.0574   20.0249 O   0  0  0  0  0  0  0  0  0  0  0  0
    8.6632  -16.6050   21.5411 C   0  0  2  0  0  0  0  0  0  0  0  0
    8.0396  -15.6831   22.5192 N   0  0  0  0  0  0  0  0  0  0  0  0
   10.0683  -16.8344   21.9118 C   0  0  0  0  0  0  0  0  0  0  0  0
   10.6391  -15.9313   22.6257 O   0  0  0  0  0  0  0  0  0  0  0  0
   10.8786  -17.9291   21.5849 N   0  0  0  0  0  0  0  0  0  0  0  0
   12.2747  -18.0408   21.9776 C   0  0  1  0  0  0  0  0  0  0  0  0
   12.5849  -19.5151   22.1778 C   0  0  0  0  0  0  0  0  0  0  0  0
   11.9834  -20.0255   23.4508 C   0  0  0  0  0  0  0  0  0  0  0  0
   11.5951  -19.2415   24.3544 O   0  0  0  0  0  0  0  0  0  0  0  0
   13.1827  -17.4819   20.9623 C   0  0  0  0  0  0  0  0  0  0  0  0
   14.5300  -17.4107   21.2205 O   0  0  0  0  0  0  0  0  0  0  0  0
   11.8477  -21.3896   23.6465 O   0  0  0  0  0  0  0  0  0  0  0  0
   12.7324  -17.0765   19.8770 O   0  0  0  0  0  0  0  0  0  0  0  0
  1  2  1  0
  2 12  2  0
  3  4  2  0
  3  2  1  0
  4  5  1  0
  5  6  1  0
  5 11  2  0
  6  7  1  0
  7  8  1  1
  9 17  1  0
  9  7  1  0
 10  9  2  0
 12 11  1  0
 14 13  1  1
 14 16  1  0
 15 14  1  0
 16 18  1  0
 16 17  1  1
 18 20  1  0
 19 18  2  0
 20 21  1  0
 21 25  1  0
 21 22  1  6
 22 23  1  0
 23 27  1  0
 24 23  2  0
 25 26  1  0
 28 25  2  0
M  END
$$$$
