YTD.pdb
     RDKit          3D

 28 28  0  0  1  0  0  0  0  0999 V2000
    8.0467  -20.8183   11.8880 O   0  0  0  0  0  0  0  0  0  0  0  0
    8.5242  -20.0951   12.9719 C   0  0  0  0  0  0  0  0  0  0  0  0
    9.5088  -20.6200   13.7971 C   0  0  0  0  0  0  0  0  0  0  0  0
    9.9338  -19.8429   14.8552 C   0  0  0  0  0  0  0  0  0  0  0  0
    9.4043  -18.5894   15.0904 C   0  0  0  0  0  0  0  0  0  0  0  0
    9.8708  -17.7578   16.2371 C   0  0  0  0  0  0  0  0  0  0  0  0
    9.3446  -16.3454   16.0561 C   0  0  2  0  0  0  0  0  0  0  0  0
    9.7836  -15.7543   14.8108 N   0  0  0  0  0  0  0  0  0  0  0  0
    9.6914  -15.4998   17.2223 C   0  0  0  0  0  0  0  0  0  0  0  0
   10.7251  -14.7942   17.1501 O   0  0  0  0  0  0  0  0  0  0  0  0
    8.4236  -18.0875   14.2538 C   0  0  0  0  0  0  0  0  0  0  0  0
    7.9899  -18.8500   13.1956 C   0  0  0  0  0  0  0  0  0  0  0  0
    7.6454  -12.9310   18.8874 C   0  0  0  0  0  0  0  0  0  0  0  0
    8.1064  -13.8316   20.0035 C   0  0  1  0  0  0  0  0  0  0  0  0
    7.0827  -14.8086   20.1829 O   0  0  0  0  0  0  0  0  0  0  0  0
    9.3127  -14.6259   19.5659 C   0  0  2  0  0  0  0  0  0  0  0  0
    8.9112  -15.4553   18.4054 N   0  0  0  0  0  0  0  0  0  0  0  0
    9.8970  -15.4881   20.6048 C   0  0  0  0  0  0  0  0  0  0  0  0
    9.5975  -16.7370   20.5642 O   0  0  0  0  0  0  0  0  0  0  0  0
   10.7544  -15.1196   21.6494 N   0  0  0  0  0  0  0  0  0  0  0  0
   11.2048  -16.0401   22.6816 C   0  0  1  0  0  0  0  0  0  0  0  0
   12.5581  -15.5572   23.1769 C   0  0  0  0  0  0  0  0  0  0  0  0
   13.6263  -15.8045   22.1569 C   0  0  0  0  0  0  0  0  0  0  0  0
   13.4557  -16.6151   21.2104 O   0  0  0  0  0  0  0  0  0  0  0  0
   10.2643  -16.1085   23.8123 C   0  0  0  0  0  0  0  0  0  0  0  0
   10.4169  -17.0860   24.7653 O   0  0  0  0  0  0  0  0  0  0  0  0
   14.8323  -15.1304   22.2495 O   0  0  0  0  0  0  0  0  0  0  0  0
    9.3370  -15.2860   23.9041 O   0  0  0  0  0  0  0  0  0  0  0  0
  1  2  1  0
  2 12  2  0
  3  4  2  0
  3  2  1  0
  4  5  1  0
  5  6  1  0
  5 11  2  0
  6  7  1  0
  7  8  1  6
  9 17  1  0
  9  7  1  0
 10  9  2  0
 12 11  1  0
 14 13  1  6
 14 16  1  0
 15 14  1  0
 16 18  1  0
 16 17  1  6
 18 20  1  0
 19 18  2  0
 20 21  1  0
 21 25  1  0
 21 22  1  1
 22 23  1  0
 23 27  1  0
 24 23  2  0
 25 26  1  0
 28 25  2  0
M  END
$$$$
