YTD.pdb
     RDKit          3D

 28 28  0  0  1  0  0  0  0  0999 V2000
    5.7371  -21.6910   14.1333 O   0  0  0  0  0  0  0  0  0  0  0  0
    6.4685  -20.9239   15.0290 C   0  0  0  0  0  0  0  0  0  0  0  0
    5.8418  -19.9862   15.8375 C   0  0  0  0  0  0  0  0  0  0  0  0
    6.6342  -19.2608   16.7035 C   0  0  0  0  0  0  0  0  0  0  0  0
    7.9998  -19.4550   16.7688 C   0  0  0  0  0  0  0  0  0  0  0  0
    8.8471  -18.6652   17.7084 C   0  0  0  0  0  0  0  0  0  0  0  0
    8.6048  -17.1885   17.4535 C   0  0  2  0  0  0  0  0  0  0  0  0
    9.1358  -16.7599   16.1779 N   0  0  0  0  0  0  0  0  0  0  0  0
    9.1241  -16.3679   18.5727 C   0  0  0  0  0  0  0  0  0  0  0  0
   10.2838  -15.9028   18.4717 O   0  0  0  0  0  0  0  0  0  0  0  0
    8.6020  -20.3957   15.9528 C   0  0  0  0  0  0  0  0  0  0  0  0
    7.8257  -21.1260   15.0849 C   0  0  0  0  0  0  0  0  0  0  0  0
    7.5182  -13.4114   20.1126 C   0  0  0  0  0  0  0  0  0  0  0  0
    7.8989  -14.2858   21.2787 C   0  0  1  0  0  0  0  0  0  0  0  0
    6.7485  -15.0709   21.5870 O   0  0  0  0  0  0  0  0  0  0  0  0
    8.9399  -15.2930   20.8552 C   0  0  2  0  0  0  0  0  0  0  0  0
    8.3721  -16.0892   19.7420 N   0  0  0  0  0  0  0  0  0  0  0  0
    9.3961  -16.1981   21.9214 C   0  0  0  0  0  0  0  0  0  0  0  0
    9.3377  -17.4592   21.6818 O   0  0  0  0  0  0  0  0  0  0  0  0
    9.8971  -15.8590   23.1847 N   0  0  0  0  0  0  0  0  0  0  0  0
   10.7038  -16.7568   23.9964 C   0  0  1  0  0  0  0  0  0  0  0  0
   12.0214  -16.9804   23.2728 C   0  0  0  0  0  0  0  0  0  0  0  0
   12.9517  -17.8206   24.0921 C   0  0  0  0  0  0  0  0  0  0  0  0
   12.5925  -18.9304   24.5626 O   0  0  0  0  0  0  0  0  0  0  0  0
   10.9672  -16.2067   25.3365 C   0  0  0  0  0  0  0  0  0  0  0  0
   10.8001  -17.0031   26.4432 O   0  0  0  0  0  0  0  0  0  0  0  0
   14.2384  -17.3741   24.3426 O   0  0  0  0  0  0  0  0  0  0  0  0
   11.3388  -15.0277   25.4658 O   0  0  0  0  0  0  0  0  0  0  0  0
  1  2  1  0
  2 12  2  0
  3  4  2  0
  3  2  1  0
  4  5  1  0
  5  6  1  0
  5 11  2  0
  6  7  1  0
  7  8  1  6
  9 17  1  0
  9  7  1  0
 10  9  2  0
 12 11  1  0
 14 13  1  6
 14 16  1  0
 15 14  1  0
 16 18  1  0
 16 17  1  6
 18 20  1  0
 19 18  2  0
 20 21  1  0
 21 25  1  0
 21 22  1  6
 22 23  1  0
 23 27  1  0
 24 23  2  0
 25 26  1  0
 28 25  2  0
M  END
$$$$
