YTD.pdb
     RDKit          3D

 28 28  0  0  1  0  0  0  0  0999 V2000
    8.4521  -11.4234   17.8492 O   0  0  0  0  0  0  0  0  0  0  0  0
    8.3987  -12.3646   18.8675 C   0  0  0  0  0  0  0  0  0  0  0  0
    9.5619  -12.8402   19.4561 C   0  0  0  0  0  0  0  0  0  0  0  0
    9.4302  -13.7751   20.4625 C   0  0  0  0  0  0  0  0  0  0  0  0
    8.1911  -14.2251   20.8738 C   0  0  0  0  0  0  0  0  0  0  0  0
    8.0600  -15.2359   21.9626 C   0  0  0  0  0  0  0  0  0  0  0  0
    8.4445  -16.5960   21.4087 C   0  0  2  0  0  0  0  0  0  0  0  0
    7.5698  -17.0161   20.3358 N   0  0  0  0  0  0  0  0  0  0  0  0
    8.5163  -17.6052   22.4912 C   0  0  0  0  0  0  0  0  0  0  0  0
    7.4569  -17.8954   23.0955 O   0  0  0  0  0  0  0  0  0  0  0  0
    7.0456  -13.7361   20.2719 C   0  0  0  0  0  0  0  0  0  0  0  0
    7.1609  -12.8045   19.2679 C   0  0  0  0  0  0  0  0  0  0  0  0
    9.0025  -21.0048   22.2184 C   0  0  0  0  0  0  0  0  0  0  0  0
   10.0936  -20.6173   23.1820 C   0  0  1  0  0  0  0  0  0  0  0  0
   11.2325  -20.2850   22.3900 O   0  0  0  0  0  0  0  0  0  0  0  0
    9.7344  -19.3304   23.8838 C   0  0  2  0  0  0  0  0  0  0  0  0
    9.7209  -18.2506   22.8691 N   0  0  0  0  0  0  0  0  0  0  0  0
   10.6326  -18.9545   24.9866 C   0  0  0  0  0  0  0  0  0  0  0  0
   11.5965  -18.1519   24.7073 O   0  0  0  0  0  0  0  0  0  0  0  0
   10.5719  -19.3620   26.3253 N   0  0  0  0  0  0  0  0  0  0  0  0
   11.6354  -19.1204   27.2877 C   0  0  1  0  0  0  0  0  0  0  0  0
   11.0227  -19.1616   28.6778 C   0  0  0  0  0  0  0  0  0  0  0  0
   12.0726  -19.0141   29.7354 C   0  0  0  0  0  0  0  0  0  0  0  0
   13.2801  -18.8222   29.4401 O   0  0  0  0  0  0  0  0  0  0  0  0
   12.7071  -20.1256   27.1937 C   0  0  0  0  0  0  0  0  0  0  0  0
   12.4443  -21.3484   26.6258 O   0  0  0  0  0  0  0  0  0  0  0  0
   11.7158  -19.0893   31.0713 O   0  0  0  0  0  0  0  0  0  0  0  0
   13.8437  -19.8690   27.6261 O   0  0  0  0  0  0  0  0  0  0  0  0
  1  2  1  0
  2 12  2  0
  3  4  2  0
  3  2  1  0
  4  5  1  0
  5  6  1  0
  5 11  2  0
  6  7  1  0
  7  8  1  6
  9 17  1  0
  9  7  1  0
 10  9  2  0
 12 11  1  0
 14 13  1  6
 14 16  1  0
 15 14  1  0
 16 18  1  0
 16 17  1  6
 18 20  1  0
 19 18  2  0
 20 21  1  0
 21 25  1  0
 21 22  1  1
 22 23  1  0
 23 27  1  0
 24 23  2  0
 25 26  1  0
 28 25  2  0
M  END
$$$$
