YTD.pdb
     RDKit          3D

 28 28  0  0  1  0  0  0  0  0999 V2000
   10.9673  -15.4076   30.4061 O   0  0  0  0  0  0  0  0  0  0  0  0
   10.3141  -14.9609   29.2661 C   0  0  0  0  0  0  0  0  0  0  0  0
    9.5045  -13.8346   29.3073 C   0  0  0  0  0  0  0  0  0  0  0  0
    8.8875  -13.4505   28.1344 C   0  0  0  0  0  0  0  0  0  0  0  0
    9.0642  -14.1552   26.9600 C   0  0  0  0  0  0  0  0  0  0  0  0
    8.3923  -13.7314   25.6977 C   0  0  0  0  0  0  0  0  0  0  0  0
    7.2873  -14.7231   25.3813 C   0  0  2  0  0  0  0  0  0  0  0  0
    6.9106  -15.5082   26.5366 N   0  0  0  0  0  0  0  0  0  0  0  0
    7.6593  -15.5774   24.2293 C   0  0  0  0  0  0  0  0  0  0  0  0
    7.7033  -16.8176   24.4072 O   0  0  0  0  0  0  0  0  0  0  0  0
    9.8762  -15.2749   26.9436 C   0  0  0  0  0  0  0  0  0  0  0  0
   10.4975  -15.6699   28.1044 C   0  0  0  0  0  0  0  0  0  0  0  0
    6.3331  -14.8547   20.8113 C   0  0  0  0  0  0  0  0  0  0  0  0
    7.7369  -15.3386   20.5575 C   0  0  1  0  0  0  0  0  0  0  0  0
    8.5299  -14.1751   20.3294 O   0  0  0  0  0  0  0  0  0  0  0  0
    8.3122  -15.9463   21.8133 C   0  0  2  0  0  0  0  0  0  0  0  0
    7.9648  -15.0568   22.9463 N   0  0  0  0  0  0  0  0  0  0  0  0
    9.7674  -16.1604   21.7876 C   0  0  0  0  0  0  0  0  0  0  0  0
   10.4994  -15.2672   22.3509 O   0  0  0  0  0  0  0  0  0  0  0  0
   10.4717  -17.2308   21.2217 N   0  0  0  0  0  0  0  0  0  0  0  0
   11.9237  -17.3105   21.1910 C   0  0  1  0  0  0  0  0  0  0  0  0
   12.3349  -18.5839   21.9115 C   0  0  0  0  0  0  0  0  0  0  0  0
   12.5845  -18.3253   23.3653 C   0  0  0  0  0  0  0  0  0  0  0  0
   12.4615  -17.1748   23.8584 O   0  0  0  0  0  0  0  0  0  0  0  0
   12.4487  -17.3335   19.8156 C   0  0  0  0  0  0  0  0  0  0  0  0
   13.8062  -17.3459   19.6063 O   0  0  0  0  0  0  0  0  0  0  0  0
   12.9596  -19.3700   24.1932 O   0  0  0  0  0  0  0  0  0  0  0  0
   11.6675  -17.3418   18.8489 O   0  0  0  0  0  0  0  0  0  0  0  0
  1  2  1  0
  2 12  2  0
  3  4  2  0
  3  2  1  0
  4  5  1  0
  5  6  1  0
  5 11  2  0
  6  7  1  0
  7  8  1  1
  9 17  1  0
  9  7  1  0
 10  9  2  0
 12 11  1  0
 14 13  1  1
 14 16  1  0
 15 14  1  0
 16 18  1  0
 16 17  1  1
 18 20  1  0
 19 18  2  0
 20 21  1  0
 21 25  1  0
 21 22  1  6
 22 23  1  0
 23 27  1  0
 24 23  2  0
 25 26  1  0
 28 25  2  0
M  END
$$$$
