VWI.pdb
     RDKit          3D

 30 31  0  0  1  0  0  0  0  0999 V2000
   12.8551  -18.4885   21.2664 C   0  0  0  0  0  0  0  0  0  0  0  0
   12.3726  -17.7923   20.0419 C   0  0  1  0  0  0  0  0  0  0  0  0
   12.9326  -18.3369   18.7520 C   0  0  0  0  0  0  0  0  0  0  0  0
   10.8720  -17.5934   19.9962 C   0  0  2  0  0  0  0  0  0  0  0  0
   10.5178  -16.8126   18.7940 N   0  0  0  0  0  0  0  0  0  0  0  0
   10.3282  -16.8849   21.1676 C   0  0  0  0  0  0  0  0  0  0  0  0
   10.5755  -15.6381   21.3110 O   0  0  0  0  0  0  0  0  0  0  0  0
    9.5370  -17.4544   22.1815 N   0  0  0  0  0  0  0  0  0  0  0  0
    9.0489  -16.6982   23.3434 C   0  0  1  0  0  0  0  0  0  0  0  0
    7.6344  -17.0779   23.6597 C   0  0  0  0  0  0  0  0  0  0  0  0
    6.8534  -16.1395   24.4380 C   0  0  0  0  0  0  0  0  0  0  0  0
    5.5977  -16.4617   24.9676 C   0  0  0  0  0  0  0  0  0  0  0  0
    5.1780  -15.3821   25.6323 N   0  0  0  0  0  0  0  0  0  0  0  0
    6.0837  -14.3692   25.5704 C   0  0  0  0  0  0  0  0  0  0  0  0
    6.1032  -13.0904   26.0816 C   0  0  0  0  0  0  0  0  0  0  0  0
    7.1649  -12.2517   25.8617 C   0  0  0  0  0  0  0  0  0  0  0  0
    8.2365  -12.7027   25.1102 C   0  0  0  0  0  0  0  0  0  0  0  0
    8.1929  -13.9832   24.6112 C   0  0  0  0  0  0  0  0  0  0  0  0
    7.1472  -14.8607   24.8076 C   0  0  0  0  0  0  0  0  0  0  0  0
    9.9954  -16.6829   24.4664 C   0  0  0  0  0  0  0  0  0  0  0  0
   10.9808  -17.4894   24.5209 O   0  0  0  0  0  0  0  0  0  0  0  0
   10.7604  -13.0865   29.5570 C   0  0  0  0  0  0  0  0  0  0  0  0
   11.1969  -14.2013   28.6937 C   0  0  0  0  0  0  0  0  0  0  0  0
   10.4735  -14.5114   27.4606 C   0  0  2  0  0  0  0  0  0  0  0  0
    8.9731  -14.2318   27.5645 C   0  0  0  0  0  0  0  0  0  0  0  0
   10.7198  -15.8135   26.7479 C   0  0  2  0  0  0  0  0  0  0  0  0
    9.8752  -15.7751   25.5412 N   0  0  0  0  0  0  0  0  0  0  0  0
   10.5290  -17.0424   27.4886 C   0  0  0  0  0  0  0  0  0  0  0  0
   11.3376  -17.4697   28.3478 O   0  0  0  0  0  0  0  0  0  0  0  0
    9.4059  -17.8812   27.3140 O   0  0  0  0  0  0  0  0  0  0  0  0
  2  1  1  1
  2  3  1  0
  4  2  1  0
  4  5  1  6
  6  4  1  0
  6  7  2  0
  8  6  1  0
  9  8  1  0
 10 11  1  0
  9 10  1  1
 11 19  1  0
 12 11  2  0
 12 13  1  0
 13 14  1  0
 14 15  1  0
 15 16  2  0
 17 16  1  0
 18 17  2  0
 19 14  2  0
 19 18  1  0
 20 21  2  0
 20  9  1  0
 23 22  1  0
 23 24  1  0
 24 26  1  0
 24 25  1  1
 26 27  1  6
 26 28  1  0
 27 20  1  0
 28 30  1  0
 29 28  2  0
M  END
$$$$
