VWI.pdb
     RDKit          3D

 30 31  0  0  1  0  0  0  0  0999 V2000
   11.7283  -20.2090   22.4701 C   0  0  0  0  0  0  0  0  0  0  0  0
   12.2994  -19.6040   21.2354 C   0  0  1  0  0  0  0  0  0  0  0  0
   12.7940  -20.6040   20.2208 C   0  0  0  0  0  0  0  0  0  0  0  0
   11.4364  -18.5203   20.6234 C   0  0  2  0  0  0  0  0  0  0  0  0
   12.1703  -17.8773   19.5151 N   0  0  0  0  0  0  0  0  0  0  0  0
   11.0419  -17.4649   21.5722 C   0  0  0  0  0  0  0  0  0  0  0  0
   11.9205  -16.6239   21.9683 O   0  0  0  0  0  0  0  0  0  0  0  0
    9.7550  -17.2769   22.1079 N   0  0  0  0  0  0  0  0  0  0  0  0
    9.4402  -16.2442   23.1051 C   0  0  1  0  0  0  0  0  0  0  0  0
    8.1396  -15.5767   22.7763 C   0  0  0  0  0  0  0  0  0  0  0  0
    7.8615  -14.3107   23.4214 C   0  0  0  0  0  0  0  0  0  0  0  0
    8.2600  -13.0840   22.8761 C   0  0  0  0  0  0  0  0  0  0  0  0
    7.8294  -12.1382   23.7150 N   0  0  0  0  0  0  0  0  0  0  0  0
    7.1717  -12.6712   24.7796 C   0  0  0  0  0  0  0  0  0  0  0  0
    6.5635  -12.1177   25.8846 C   0  0  0  0  0  0  0  0  0  0  0  0
    5.9613  -12.9021   26.8338 C   0  0  0  0  0  0  0  0  0  0  0  0
    5.9669  -14.2773   26.6750 C   0  0  0  0  0  0  0  0  0  0  0  0
    6.5804  -14.8052   25.5635 C   0  0  0  0  0  0  0  0  0  0  0  0
    7.1973  -14.0553   24.5841 C   0  0  0  0  0  0  0  0  0  0  0  0
    9.6167  -16.7004   24.4900 C   0  0  0  0  0  0  0  0  0  0  0  0
    9.4704  -17.9242   24.8143 O   0  0  0  0  0  0  0  0  0  0  0  0
   10.4858  -12.5114   28.0835 C   0  0  0  0  0  0  0  0  0  0  0  0
   10.7004  -13.7477   27.3064 C   0  0  0  0  0  0  0  0  0  0  0  0
   10.1401  -15.0188   27.7652 C   0  0  2  0  0  0  0  0  0  0  0  0
   10.4943  -15.3348   29.2195 C   0  0  0  0  0  0  0  0  0  0  0  0
   10.2658  -16.2514   26.9114 C   0  0  2  0  0  0  0  0  0  0  0  0
    9.9641  -15.8176   25.5360 N   0  0  0  0  0  0  0  0  0  0  0  0
    9.4918  -17.4176   27.2803 C   0  0  0  0  0  0  0  0  0  0  0  0
    8.2898  -17.5846   26.9609 O   0  0  0  0  0  0  0  0  0  0  0  0
   10.0208  -18.4856   28.0385 O   0  0  0  0  0  0  0  0  0  0  0  0
  2  1  1  1
  2  3  1  0
  4  2  1  0
  4  5  1  6
  6  4  1  0
  6  7  2  0
  8  6  1  0
  9  8  1  0
 10 11  1  0
  9 10  1  1
 11 19  1  0
 12 11  2  0
 12 13  1  0
 13 14  1  0
 14 15  1  0
 15 16  2  0
 17 16  1  0
 18 17  2  0
 19 14  2  0
 19 18  1  0
 20 21  2  0
 20  9  1  0
 23 22  1  0
 23 24  1  0
 24 26  1  0
 24 25  1  1
 26 27  1  6
 26 28  1  0
 27 20  1  0
 28 30  1  0
 29 28  2  0
M  END
$$$$
