VWI.pdb
     RDKit          3D

 30 31  0  0  1  0  0  0  0  0999 V2000
   12.3002  -19.9058   22.3300 C   0  0  0  0  0  0  0  0  0  0  0  0
   12.4169  -19.2869   20.9808 C   0  0  1  0  0  0  0  0  0  0  0  0
   12.9357  -20.2143   19.9108 C   0  0  0  0  0  0  0  0  0  0  0  0
   11.1878  -18.5154   20.5476 C   0  0  2  0  0  0  0  0  0  0  0  0
   11.4497  -17.8668   19.2472 N   0  0  0  0  0  0  0  0  0  0  0  0
   10.7762  -17.4671   21.4971 C   0  0  0  0  0  0  0  0  0  0  0  0
   11.4640  -16.3913   21.5731 O   0  0  0  0  0  0  0  0  0  0  0  0
    9.6668  -17.5255   22.3596 N   0  0  0  0  0  0  0  0  0  0  0  0
    9.3532  -16.4777   23.3414 C   0  0  1  0  0  0  0  0  0  0  0  0
    7.9681  -15.9502   23.1212 C   0  0  0  0  0  0  0  0  0  0  0  0
    7.6722  -14.6283   23.6323 C   0  0  0  0  0  0  0  0  0  0  0  0
    8.1259  -13.4601   23.0073 C   0  0  0  0  0  0  0  0  0  0  0  0
    7.6600  -12.4380   23.7297 N   0  0  0  0  0  0  0  0  0  0  0  0
    6.9271  -12.8656   24.7926 C   0  0  0  0  0  0  0  0  0  0  0  0
    6.2603  -12.2081   25.8028 C   0  0  0  0  0  0  0  0  0  0  0  0
    5.5857  -12.8971   26.7770 C   0  0  0  0  0  0  0  0  0  0  0  0
    5.5770  -14.2810   26.7414 C   0  0  0  0  0  0  0  0  0  0  0  0
    6.2500  -14.9136   25.7228 C   0  0  0  0  0  0  0  0  0  0  0  0
    6.9406  -14.2618   24.7226 C   0  0  0  0  0  0  0  0  0  0  0  0
    9.7084  -16.8460   24.7182 C   0  0  0  0  0  0  0  0  0  0  0  0
    9.5810  -18.0402   25.1446 O   0  0  0  0  0  0  0  0  0  0  0  0
   10.8617  -12.4199   27.9442 C   0  0  0  0  0  0  0  0  0  0  0  0
   10.9998  -13.7035   27.2289 C   0  0  0  0  0  0  0  0  0  0  0  0
   10.4434  -14.9321   27.7958 C   0  0  2  0  0  0  0  0  0  0  0  0
   10.8200  -15.1332   29.2649 C   0  0  0  0  0  0  0  0  0  0  0  0
   10.5520  -16.2289   27.0405 C   0  0  2  0  0  0  0  0  0  0  0  0
   10.2160  -15.9069   25.6426 N   0  0  0  0  0  0  0  0  0  0  0  0
    9.7906  -17.3626   27.5203 C   0  0  0  0  0  0  0  0  0  0  0  0
    8.5565  -17.4991   27.3384 O   0  0  0  0  0  0  0  0  0  0  0  0
   10.3693  -18.4301   28.2419 O   0  0  0  0  0  0  0  0  0  0  0  0
  2  1  1  1
  2  3  1  0
  4  2  1  0
  4  5  1  6
  6  4  1  0
  6  7  2  0
  8  6  1  0
  9  8  1  0
 10 11  1  0
  9 10  1  1
 11 19  1  0
 12 11  2  0
 12 13  1  0
 13 14  1  0
 14 15  1  0
 15 16  2  0
 17 16  1  0
 18 17  2  0
 19 14  2  0
 19 18  1  0
 20 21  2  0
 20  9  1  0
 23 22  1  0
 23 24  1  0
 24 26  1  0
 24 25  1  1
 26 27  1  6
 26 28  1  0
 27 20  1  0
 28 30  1  0
 29 28  2  0
M  END
$$$$
