VWI.pdb
     RDKit          3D

 30 31  0  0  1  0  0  0  0  0999 V2000
   13.4686  -16.8739   19.1112 C   0  0  0  0  0  0  0  0  0  0  0  0
   12.8904  -16.4538   20.4173 C   0  0  1  0  0  0  0  0  0  0  0  0
   13.8795  -15.8211   21.3638 C   0  0  0  0  0  0  0  0  0  0  0  0
   11.6023  -15.6665   20.2971 C   0  0  2  0  0  0  0  0  0  0  0  0
   11.8807  -14.3672   19.6531 N   0  0  0  0  0  0  0  0  0  0  0  0
   10.9457  -15.3961   21.5876 C   0  0  0  0  0  0  0  0  0  0  0  0
   11.2598  -14.3394   22.2364 O   0  0  0  0  0  0  0  0  0  0  0  0
    9.9747  -16.2056   22.2041 N   0  0  0  0  0  0  0  0  0  0  0  0
    9.3994  -15.9106   23.5240 C   0  0  1  0  0  0  0  0  0  0  0  0
    7.9104  -16.0762   23.4961 C   0  0  0  0  0  0  0  0  0  0  0  0
    7.1106  -14.8738   23.3927 C   0  0  0  0  0  0  0  0  0  0  0  0
    6.4762  -14.4910   22.2043 C   0  0  0  0  0  0  0  0  0  0  0  0
    5.8220  -13.3578   22.4717 N   0  0  0  0  0  0  0  0  0  0  0  0
    5.9893  -12.9732   23.7655 C   0  0  0  0  0  0  0  0  0  0  0  0
    5.5284  -11.9006   24.4966 C   0  0  0  0  0  0  0  0  0  0  0  0
    5.8585  -11.7448   25.8178 C   0  0  0  0  0  0  0  0  0  0  0  0
    6.6715  -12.6862   26.4255 C   0  0  0  0  0  0  0  0  0  0  0  0
    7.1184  -13.7476   25.6743 C   0  0  0  0  0  0  0  0  0  0  0  0
    6.8115  -13.9446   24.3442 C   0  0  0  0  0  0  0  0  0  0  0  0
   10.1156  -16.5613   24.6289 C   0  0  0  0  0  0  0  0  0  0  0  0
   10.7535  -17.6519   24.4616 O   0  0  0  0  0  0  0  0  0  0  0  0
   10.7596  -13.2347   28.9892 C   0  0  0  0  0  0  0  0  0  0  0  0
   10.9690  -14.2380   27.9271 C   0  0  0  0  0  0  0  0  0  0  0  0
   10.7576  -15.6600   28.1981 C   0  0  2  0  0  0  0  0  0  0  0  0
   11.5532  -16.1604   29.4051 C   0  0  0  0  0  0  0  0  0  0  0  0
   10.8173  -16.6596   27.0751 C   0  0  2  0  0  0  0  0  0  0  0  0
   10.1462  -16.0171   25.9316 N   0  0  0  0  0  0  0  0  0  0  0  0
   10.2956  -17.9880   27.3169 C   0  0  0  0  0  0  0  0  0  0  0  0
    9.0794  -18.2844   27.2299 O   0  0  0  0  0  0  0  0  0  0  0  0
   11.1123  -19.0837   27.6745 O   0  0  0  0  0  0  0  0  0  0  0  0
  2  1  1  6
  2  3  1  0
  4  2  1  0
  4  5  1  1
  6  4  1  0
  6  7  2  0
  8  6  1  0
  9  8  1  0
 10 11  1  0
  9 10  1  6
 11 19  1  0
 12 11  2  0
 12 13  1  0
 13 14  1  0
 14 15  1  0
 15 16  2  0
 17 16  1  0
 18 17  2  0
 19 14  2  0
 19 18  1  0
 20 21  2  0
 20  9  1  0
 23 22  1  0
 23 24  1  0
 24 26  1  0
 24 25  1  1
 26 27  1  6
 26 28  1  0
 27 20  1  0
 28 30  1  0
 29 28  2  0
M  END
$$$$
