VWI.pdb
     RDKit          3D

 30 31  0  0  1  0  0  0  0  0999 V2000
   12.3171  -19.9388   22.4179 C   0  0  0  0  0  0  0  0  0  0  0  0
   12.7073  -19.2866   21.1376 C   0  0  1  0  0  0  0  0  0  0  0  0
   13.2961  -20.2235   20.1131 C   0  0  0  0  0  0  0  0  0  0  0  0
   11.6446  -18.3744   20.5610 C   0  0  2  0  0  0  0  0  0  0  0  0
   12.1912  -17.6676   19.3854 N   0  0  0  0  0  0  0  0  0  0  0  0
   11.1533  -17.3581   21.5073 C   0  0  0  0  0  0  0  0  0  0  0  0
   11.9172  -16.3825   21.8249 O   0  0  0  0  0  0  0  0  0  0  0  0
    9.8876  -17.3460   22.1204 N   0  0  0  0  0  0  0  0  0  0  0  0
    9.4979  -16.3675   23.1455 C   0  0  1  0  0  0  0  0  0  0  0  0
    8.1346  -15.8181   22.8550 C   0  0  0  0  0  0  0  0  0  0  0  0
    7.8031  -14.5290   23.4245 C   0  0  0  0  0  0  0  0  0  0  0  0
    8.2188  -13.3219   22.8489 C   0  0  0  0  0  0  0  0  0  0  0  0
    7.7274  -12.3463   23.6172 N   0  0  0  0  0  0  0  0  0  0  0  0
    7.0136  -12.8410   24.6640 C   0  0  0  0  0  0  0  0  0  0  0  0
    6.3339  -12.2480   25.7049 C   0  0  0  0  0  0  0  0  0  0  0  0
    5.6855  -12.9982   26.6513 C   0  0  0  0  0  0  0  0  0  0  0  0
    5.7171  -14.3789   26.5554 C   0  0  0  0  0  0  0  0  0  0  0  0
    6.4023  -14.9466   25.5072 C   0  0  0  0  0  0  0  0  0  0  0  0
    7.0676  -14.2319   24.5331 C   0  0  0  0  0  0  0  0  0  0  0  0
    9.7438  -16.8330   24.5168 C   0  0  0  0  0  0  0  0  0  0  0  0
    9.6636  -18.0662   24.8284 O   0  0  0  0  0  0  0  0  0  0  0  0
   10.9486  -12.6721   28.0968 C   0  0  0  0  0  0  0  0  0  0  0  0
   11.0386  -13.9158   27.3072 C   0  0  0  0  0  0  0  0  0  0  0  0
   10.3879  -15.1398   27.7747 C   0  0  2  0  0  0  0  0  0  0  0  0
   10.7185  -15.4704   29.2314 C   0  0  0  0  0  0  0  0  0  0  0  0
   10.4240  -16.3842   26.9296 C   0  0  2  0  0  0  0  0  0  0  0  0
   10.0889  -15.9490   25.5624 N   0  0  0  0  0  0  0  0  0  0  0  0
    9.6128  -17.5104   27.3403 C   0  0  0  0  0  0  0  0  0  0  0  0
    8.3914  -17.6218   27.0749 O   0  0  0  0  0  0  0  0  0  0  0  0
   10.1236  -18.5985   28.0822 O   0  0  0  0  0  0  0  0  0  0  0  0
  2  1  1  1
  2  3  1  0
  4  2  1  0
  4  5  1  6
  6  4  1  0
  6  7  2  0
  8  6  1  0
  9  8  1  0
 10 11  1  0
  9 10  1  1
 11 19  1  0
 12 11  2  0
 12 13  1  0
 13 14  1  0
 14 15  1  0
 15 16  2  0
 17 16  1  0
 18 17  2  0
 19 14  2  0
 19 18  1  0
 20 21  2  0
 20  9  1  0
 23 22  1  0
 23 24  1  0
 24 26  1  0
 24 25  1  1
 26 27  1  6
 26 28  1  0
 27 20  1  0
 28 30  1  0
 29 28  2  0
M  END
$$$$
