VWI.pdb
     RDKit          3D

 30 31  0  0  1  0  0  0  0  0999 V2000
   12.3511  -19.1527   21.6376 C   0  0  0  0  0  0  0  0  0  0  0  0
   12.5458  -18.1456   20.5584 C   0  0  1  0  0  0  0  0  0  0  0  0
   13.1494  -18.6968   19.2911 C   0  0  0  0  0  0  0  0  0  0  0  0
   11.3350  -17.2722   20.3039 C   0  0  2  0  0  0  0  0  0  0  0  0
   11.6855  -16.2216   19.3274 N   0  0  0  0  0  0  0  0  0  0  0  0
   10.8147  -16.6073   21.5111 C   0  0  0  0  0  0  0  0  0  0  0  0
   11.4752  -15.6379   22.0212 O   0  0  0  0  0  0  0  0  0  0  0  0
    9.6257  -16.9370   22.1862 N   0  0  0  0  0  0  0  0  0  0  0  0
    9.1447  -16.2131   23.3714 C   0  0  1  0  0  0  0  0  0  0  0  0
    7.6659  -15.9881   23.2842 C   0  0  0  0  0  0  0  0  0  0  0  0
    7.0408  -15.2565   24.3659 C   0  0  0  0  0  0  0  0  0  0  0  0
    6.3489  -15.8922   25.4043 C   0  0  0  0  0  0  0  0  0  0  0  0
    5.9234  -14.9269   26.2233 N   0  0  0  0  0  0  0  0  0  0  0  0
    6.2946  -13.6943   25.7842 C   0  0  0  0  0  0  0  0  0  0  0  0
    6.0953  -12.4214   26.2711 C   0  0  0  0  0  0  0  0  0  0  0  0
    6.5855  -11.3228   25.6142 C   0  0  0  0  0  0  0  0  0  0  0  0
    7.2942  -11.5005   24.4383 C   0  0  0  0  0  0  0  0  0  0  0  0
    7.4796  -12.7811   23.9732 C   0  0  0  0  0  0  0  0  0  0  0  0
    7.0055  -13.9141   24.6007 C   0  0  0  0  0  0  0  0  0  0  0  0
    9.6559  -16.7612   24.6345 C   0  0  0  0  0  0  0  0  0  0  0  0
    9.7932  -18.0158   24.8117 O   0  0  0  0  0  0  0  0  0  0  0  0
   10.0872  -13.5869   29.5801 C   0  0  0  0  0  0  0  0  0  0  0  0
    9.8150  -14.6198   28.5615 C   0  0  0  0  0  0  0  0  0  0  0  0
   10.9122  -15.2206   27.8030 C   0  0  2  0  0  0  0  0  0  0  0  0
   11.7422  -14.1881   27.0379 C   0  0  0  0  0  0  0  0  0  0  0  0
   10.6642  -16.4354   26.9504 C   0  0  2  0  0  0  0  0  0  0  0  0
   10.0304  -15.9361   25.7175 N   0  0  0  0  0  0  0  0  0  0  0  0
    9.9122  -17.5300   27.5262 C   0  0  0  0  0  0  0  0  0  0  0  0
    8.7038  -17.7534   27.2725 O   0  0  0  0  0  0  0  0  0  0  0  0
   10.4723  -18.4571   28.4328 O   0  0  0  0  0  0  0  0  0  0  0  0
  2  1  1  1
  2  3  1  0
  4  2  1  0
  4  5  1  6
  6  4  1  0
  6  7  2  0
  8  6  1  0
  9  8  1  0
 10 11  1  0
  9 10  1  1
 11 19  1  0
 12 11  2  0
 12 13  1  0
 13 14  1  0
 14 15  1  0
 15 16  2  0
 17 16  1  0
 18 17  2  0
 19 14  2  0
 19 18  1  0
 20 21  2  0
 20  9  1  0
 23 22  1  0
 23 24  1  0
 24 26  1  0
 24 25  1  6
 26 27  1  6
 26 28  1  0
 27 20  1  0
 28 30  1  0
 29 28  2  0
M  END
$$$$
