VWI.pdb
     RDKit          3D

 30 31  0  0  1  0  0  0  0  0999 V2000
   12.7646  -18.9857   21.7638 C   0  0  0  0  0  0  0  0  0  0  0  0
   12.8801  -18.0130   20.6426 C   0  0  1  0  0  0  0  0  0  0  0  0
   13.5697  -18.5533   19.4152 C   0  0  0  0  0  0  0  0  0  0  0  0
   11.5915  -17.2844   20.3227 C   0  0  2  0  0  0  0  0  0  0  0  0
   11.8511  -16.2598   19.2916 N   0  0  0  0  0  0  0  0  0  0  0  0
   10.9838  -16.6098   21.4827 C   0  0  0  0  0  0  0  0  0  0  0  0
   11.5599  -15.5797   21.9757 O   0  0  0  0  0  0  0  0  0  0  0  0
    9.7942  -16.9918   22.1286 N   0  0  0  0  0  0  0  0  0  0  0  0
    9.2405  -16.2764   23.2868 C   0  0  1  0  0  0  0  0  0  0  0  0
    7.7452  -16.2252   23.2058 C   0  0  0  0  0  0  0  0  0  0  0  0
    7.0462  -15.5329   24.2681 C   0  0  0  0  0  0  0  0  0  0  0  0
    6.2960  -16.2066   25.2400 C   0  0  0  0  0  0  0  0  0  0  0  0
    5.8105  -15.2710   26.0602 N   0  0  0  0  0  0  0  0  0  0  0  0
    6.1972  -14.0223   25.6844 C   0  0  0  0  0  0  0  0  0  0  0  0
    5.9557  -12.7670   26.1974 C   0  0  0  0  0  0  0  0  0  0  0  0
    6.4762  -11.6445   25.6076 C   0  0  0  0  0  0  0  0  0  0  0  0
    7.2594  -11.7795   24.4742 C   0  0  0  0  0  0  0  0  0  0  0  0
    7.4858  -13.0432   23.9819 C   0  0  0  0  0  0  0  0  0  0  0  0
    6.9836  -14.1990   24.5421 C   0  0  0  0  0  0  0  0  0  0  0  0
    9.8181  -16.7071   24.5667 C   0  0  0  0  0  0  0  0  0  0  0  0
   10.2583  -17.8911   24.7365 O   0  0  0  0  0  0  0  0  0  0  0  0
   10.4326  -12.5034   28.1756 C   0  0  0  0  0  0  0  0  0  0  0  0
   10.6542  -13.7069   27.3505 C   0  0  0  0  0  0  0  0  0  0  0  0
   10.3288  -15.0342   27.8726 C   0  0  2  0  0  0  0  0  0  0  0  0
   10.9509  -15.3031   29.2441 C   0  0  0  0  0  0  0  0  0  0  0  0
   10.4559  -16.2452   26.9886 C   0  0  2  0  0  0  0  0  0  0  0  0
    9.9264  -15.8389   25.6751 N   0  0  0  0  0  0  0  0  0  0  0  0
    9.8584  -17.4839   27.4400 C   0  0  0  0  0  0  0  0  0  0  0  0
    8.6485  -17.7734   27.2755 O   0  0  0  0  0  0  0  0  0  0  0  0
   10.5864  -18.4912   28.1114 O   0  0  0  0  0  0  0  0  0  0  0  0
  2  1  1  1
  2  3  1  0
  4  2  1  0
  4  5  1  6
  6  4  1  0
  6  7  2  0
  8  6  1  0
  9  8  1  0
 10 11  1  0
  9 10  1  1
 11 19  1  0
 12 11  2  0
 12 13  1  0
 13 14  1  0
 14 15  1  0
 15 16  2  0
 17 16  1  0
 18 17  2  0
 19 14  2  0
 19 18  1  0
 20 21  2  0
 20  9  1  0
 23 22  1  0
 23 24  1  0
 24 26  1  0
 24 25  1  1
 26 27  1  6
 26 28  1  0
 27 20  1  0
 28 30  1  0
 29 28  2  0
M  END
$$$$
