VWI.pdb
     RDKit          3D

 30 31  0  0  1  0  0  0  0  0999 V2000
   12.6829  -19.5153   19.7103 C   0  0  0  0  0  0  0  0  0  0  0  0
   12.2831  -18.6896   20.8829 C   0  0  1  0  0  0  0  0  0  0  0  0
   13.3467  -18.5541   21.9434 C   0  0  0  0  0  0  0  0  0  0  0  0
   11.6433  -17.3667   20.5166 C   0  0  2  0  0  0  0  0  0  0  0  0
   12.6661  -16.4709   19.9406 N   0  0  0  0  0  0  0  0  0  0  0  0
   11.0246  -16.6675   21.6559 C   0  0  0  0  0  0  0  0  0  0  0  0
   11.7385  -15.8749   22.3618 O   0  0  0  0  0  0  0  0  0  0  0  0
    9.6836  -16.7827   22.0642 N   0  0  0  0  0  0  0  0  0  0  0  0
    9.1539  -16.1484   23.2796 C   0  0  1  0  0  0  0  0  0  0  0  0
    7.6869  -15.8801   23.1345 C   0  0  0  0  0  0  0  0  0  0  0  0
    7.0238  -15.2060   24.2309 C   0  0  0  0  0  0  0  0  0  0  0  0
    6.2646  -15.8911   25.1877 C   0  0  0  0  0  0  0  0  0  0  0  0
    5.8196  -14.9717   26.0481 N   0  0  0  0  0  0  0  0  0  0  0  0
    6.2413  -13.7228   25.7130 C   0  0  0  0  0  0  0  0  0  0  0  0
    6.0465  -12.4803   26.2748 C   0  0  0  0  0  0  0  0  0  0  0  0
    6.5952  -11.3537   25.7194 C   0  0  0  0  0  0  0  0  0  0  0  0
    7.3595  -11.4712   24.5712 C   0  0  0  0  0  0  0  0  0  0  0  0
    7.5392  -12.7224   24.0299 C   0  0  0  0  0  0  0  0  0  0  0  0
    7.0073  -13.8818   24.5543 C   0  0  0  0  0  0  0  0  0  0  0  0
    9.5845  -16.8126   24.5168 C   0  0  0  0  0  0  0  0  0  0  0  0
   10.0010  -18.0171   24.5186 O   0  0  0  0  0  0  0  0  0  0  0  0
   10.8369  -13.0175   28.2566 C   0  0  0  0  0  0  0  0  0  0  0  0
   10.8775  -14.2223   27.4051 C   0  0  0  0  0  0  0  0  0  0  0  0
   10.3713  -15.5008   27.9045 C   0  0  2  0  0  0  0  0  0  0  0  0
   11.0270  -15.9278   29.2191 C   0  0  0  0  0  0  0  0  0  0  0  0
   10.2395  -16.6760   26.9741 C   0  0  2  0  0  0  0  0  0  0  0  0
    9.5700  -16.1582   25.7680 N   0  0  0  0  0  0  0  0  0  0  0  0
    9.5868  -17.8686   27.4710 C   0  0  0  0  0  0  0  0  0  0  0  0
    8.3668  -18.1132   27.3084 O   0  0  0  0  0  0  0  0  0  0  0  0
   10.2667  -18.8771   28.1893 O   0  0  0  0  0  0  0  0  0  0  0  0
  2  1  1  6
  2  3  1  0
  4  2  1  0
  4  5  1  1
  6  4  1  0
  6  7  2  0
  8  6  1  0
  9  8  1  0
 10 11  1  0
  9 10  1  6
 11 19  1  0
 12 11  2  0
 12 13  1  0
 13 14  1  0
 14 15  1  0
 15 16  2  0
 17 16  1  0
 18 17  2  0
 19 14  2  0
 19 18  1  0
 20 21  2  0
 20  9  1  0
 23 22  1  0
 23 24  1  0
 24 26  1  0
 24 25  1  1
 26 27  1  6
 26 28  1  0
 27 20  1  0
 28 30  1  0
 29 28  2  0
M  END
$$$$
