VWI.pdb
     RDKit          3D

 30 31  0  0  1  0  0  0  0  0999 V2000
   12.6816  -18.2061   21.1403 C   0  0  0  0  0  0  0  0  0  0  0  0
   12.0677  -17.5787   19.9376 C   0  0  1  0  0  0  0  0  0  0  0  0
   12.5861  -18.1073   18.6238 C   0  0  0  0  0  0  0  0  0  0  0  0
   10.5561  -17.4997   19.9866 C   0  0  2  0  0  0  0  0  0  0  0  0
   10.0611  -16.8272   18.7688 N   0  0  0  0  0  0  0  0  0  0  0  0
   10.0347  -16.7619   21.1500 C   0  0  0  0  0  0  0  0  0  0  0  0
   10.1844  -15.4925   21.2001 O   0  0  0  0  0  0  0  0  0  0  0  0
    9.3652  -17.3254   22.2511 N   0  0  0  0  0  0  0  0  0  0  0  0
    8.9554  -16.5481   23.4292 C   0  0  1  0  0  0  0  0  0  0  0  0
    7.5040  -16.7722   23.7265 C   0  0  0  0  0  0  0  0  0  0  0  0
    6.8066  -15.7312   24.4519 C   0  0  0  0  0  0  0  0  0  0  0  0
    5.6061  -15.9636   25.1345 C   0  0  0  0  0  0  0  0  0  0  0  0
    5.2580  -14.8027   25.6957 N   0  0  0  0  0  0  0  0  0  0  0  0
    6.1589  -13.8212   25.4219 C   0  0  0  0  0  0  0  0  0  0  0  0
    6.2343  -12.4893   25.7650 C   0  0  0  0  0  0  0  0  0  0  0  0
    7.2742  -11.7028   25.3421 C   0  0  0  0  0  0  0  0  0  0  0  0
    8.2660  -12.2619   24.5546 C   0  0  0  0  0  0  0  0  0  0  0  0
    8.1679  -13.5935   24.2261 C   0  0  0  0  0  0  0  0  0  0  0  0
    7.1414  -14.4217   24.6290 C   0  0  0  0  0  0  0  0  0  0  0  0
    9.8871  -16.6689   24.5583 C   0  0  0  0  0  0  0  0  0  0  0  0
   10.8367  -17.5189   24.5531 O   0  0  0  0  0  0  0  0  0  0  0  0
    9.5392  -12.5282   28.3709 C   0  0  0  0  0  0  0  0  0  0  0  0
   10.0482  -13.5490   27.4342 C   0  0  0  0  0  0  0  0  0  0  0  0
   10.1935  -14.9406   27.8613 C   0  0  2  0  0  0  0  0  0  0  0  0
   10.9320  -15.0801   29.1938 C   0  0  0  0  0  0  0  0  0  0  0  0
   10.6637  -15.9848   26.8852 C   0  0  2  0  0  0  0  0  0  0  0  0
    9.7913  -15.8510   25.7054 N   0  0  0  0  0  0  0  0  0  0  0  0
   10.7348  -17.3578   27.3379 C   0  0  0  0  0  0  0  0  0  0  0  0
    9.7424  -18.1234   27.3967 O   0  0  0  0  0  0  0  0  0  0  0  0
   11.9368  -17.9698   27.7575 O   0  0  0  0  0  0  0  0  0  0  0  0
  2  1  1  1
  2  3  1  0
  4  2  1  0
  4  5  1  6
  6  4  1  0
  6  7  2  0
  8  6  1  0
  9  8  1  0
 10 11  1  0
  9 10  1  1
 11 19  1  0
 12 11  2  0
 12 13  1  0
 13 14  1  0
 14 15  1  0
 15 16  2  0
 17 16  1  0
 18 17  2  0
 19 14  2  0
 19 18  1  0
 20 21  2  0
 20  9  1  0
 23 22  1  0
 23 24  1  0
 24 26  1  0
 24 25  1  1
 26 27  1  6
 26 28  1  0
 27 20  1  0
 28 30  1  0
 29 28  2  0
M  END
$$$$
