VWI.pdb
     RDKit          3D

 30 31  0  0  1  0  0  0  0  0999 V2000
   12.2617  -19.0134   19.2378 C   0  0  0  0  0  0  0  0  0  0  0  0
   11.8838  -18.1854   20.4161 C   0  0  1  0  0  0  0  0  0  0  0  0
   12.9975  -17.3253   20.9584 C   0  0  0  0  0  0  0  0  0  0  0  0
   10.5830  -17.4286   20.2467 C   0  0  2  0  0  0  0  0  0  0  0  0
   10.7500  -16.3945   19.2059 N   0  0  0  0  0  0  0  0  0  0  0  0
   10.1180  -16.7593   21.4737 C   0  0  0  0  0  0  0  0  0  0  0  0
   10.4542  -15.5434   21.6850 O   0  0  0  0  0  0  0  0  0  0  0  0
    9.3142  -17.3361   22.4734 N   0  0  0  0  0  0  0  0  0  0  0  0
    8.9303  -16.6319   23.7049 C   0  0  1  0  0  0  0  0  0  0  0  0
    7.5169  -16.9605   24.0783 C   0  0  0  0  0  0  0  0  0  0  0  0
    6.7597  -15.9408   24.7733 C   0  0  0  0  0  0  0  0  0  0  0  0
    5.4272  -16.1259   25.1622 C   0  0  0  0  0  0  0  0  0  0  0  0
    5.0543  -15.0044   25.7841 N   0  0  0  0  0  0  0  0  0  0  0  0
    6.0631  -14.0932   25.8267 C   0  0  0  0  0  0  0  0  0  0  0  0
    6.1621  -12.8208   26.3449 C   0  0  0  0  0  0  0  0  0  0  0  0
    7.3237  -12.1000   26.2461 C   0  0  0  0  0  0  0  0  0  0  0  0
    8.4167  -12.6656   25.6121 C   0  0  0  0  0  0  0  0  0  0  0  0
    8.2926  -13.9370   25.1035 C   0  0  0  0  0  0  0  0  0  0  0  0
    7.1451  -14.6982   25.1803 C   0  0  0  0  0  0  0  0  0  0  0  0
    9.9358  -16.7346   24.7708 C   0  0  0  0  0  0  0  0  0  0  0  0
   10.8303  -17.6424   24.7605 O   0  0  0  0  0  0  0  0  0  0  0  0
   10.5341  -12.2333   28.0249 C   0  0  0  0  0  0  0  0  0  0  0  0
   10.7642  -13.4630   27.2417 C   0  0  0  0  0  0  0  0  0  0  0  0
   10.6509  -14.7772   27.8743 C   0  0  2  0  0  0  0  0  0  0  0  0
   11.4466  -14.8812   29.1768 C   0  0  0  0  0  0  0  0  0  0  0  0
   10.8164  -16.0272   27.0533 C   0  0  2  0  0  0  0  0  0  0  0  0
    9.9755  -15.8353   25.8587 N   0  0  0  0  0  0  0  0  0  0  0  0
   10.5503  -17.3001   27.6890 C   0  0  0  0  0  0  0  0  0  0  0  0
    9.3976  -17.7663   27.8573 O   0  0  0  0  0  0  0  0  0  0  0  0
   11.5705  -18.1439   28.1815 O   0  0  0  0  0  0  0  0  0  0  0  0
  2  1  1  6
  2  3  1  0
  4  2  1  0
  4  5  1  6
  6  4  1  0
  6  7  2  0
  8  6  1  0
  9  8  1  0
 10 11  1  0
  9 10  1  1
 11 19  1  0
 12 11  2  0
 12 13  1  0
 13 14  1  0
 14 15  1  0
 15 16  2  0
 17 16  1  0
 18 17  2  0
 19 14  2  0
 19 18  1  0
 20 21  2  0
 20  9  1  0
 23 22  1  0
 23 24  1  0
 24 26  1  0
 24 25  1  1
 26 27  1  6
 26 28  1  0
 27 20  1  0
 28 30  1  0
 29 28  2  0
M  END
$$$$
