VWI.pdb
     RDKit          3D

 30 31  0  0  1  0  0  0  0  0999 V2000
    9.9151  -20.4809   22.0597 C   0  0  0  0  0  0  0  0  0  0  0  0
   10.4295  -20.0233   20.7396 C   0  0  1  0  0  0  0  0  0  0  0  0
   10.4626  -21.0930   19.6771 C   0  0  0  0  0  0  0  0  0  0  0  0
    9.8146  -18.7276   20.2534 C   0  0  2  0  0  0  0  0  0  0  0  0
   10.5332  -18.2661   19.0488 N   0  0  0  0  0  0  0  0  0  0  0  0
    9.8554  -17.6389   21.2448 C   0  0  0  0  0  0  0  0  0  0  0  0
   10.9832  -17.1207   21.5541 O   0  0  0  0  0  0  0  0  0  0  0  0
    8.7456  -17.0886   21.9110 N   0  0  0  0  0  0  0  0  0  0  0  0
    8.8589  -16.0426   22.9372 C   0  0  1  0  0  0  0  0  0  0  0  0
    7.6766  -15.1238   22.8824 C   0  0  0  0  0  0  0  0  0  0  0  0
    7.7067  -13.9520   23.7323 C   0  0  0  0  0  0  0  0  0  0  0  0
    8.3129  -12.7522   23.3397 C   0  0  0  0  0  0  0  0  0  0  0  0
    8.1407  -11.8928   24.3474 N   0  0  0  0  0  0  0  0  0  0  0  0
    7.4573  -12.4572   25.3791 C   0  0  0  0  0  0  0  0  0  0  0  0
    7.0482  -11.9868   26.6074 C   0  0  0  0  0  0  0  0  0  0  0  0
    6.3600  -12.7861   27.4828 C   0  0  0  0  0  0  0  0  0  0  0  0
    6.0726  -14.0912   27.1215 C   0  0  0  0  0  0  0  0  0  0  0  0
    6.4918  -14.5368   25.8901 C   0  0  0  0  0  0  0  0  0  0  0  0
    7.1853  -13.7687   24.9784 C   0  0  0  0  0  0  0  0  0  0  0  0
    9.2298  -16.5634   24.2596 C   0  0  0  0  0  0  0  0  0  0  0  0
    8.6156  -17.5480   24.7865 O   0  0  0  0  0  0  0  0  0  0  0  0
   14.5231  -16.2328   25.1296 C   0  0  0  0  0  0  0  0  0  0  0  0
   13.0981  -16.6167   25.1501 C   0  0  0  0  0  0  0  0  0  0  0  0
   12.2605  -16.2973   26.3062 C   0  0  2  0  0  0  0  0  0  0  0  0
   12.8734  -16.7572   27.6303 C   0  0  0  0  0  0  0  0  0  0  0  0
   10.7858  -16.5947   26.2755 C   0  0  2  0  0  0  0  0  0  0  0  0
   10.2866  -16.0128   25.0173 N   0  0  0  0  0  0  0  0  0  0  0  0
    9.9832  -16.1789   27.4060 C   0  0  0  0  0  0  0  0  0  0  0  0
    9.3759  -15.0823   27.4625 O   0  0  0  0  0  0  0  0  0  0  0  0
    9.8054  -16.9748   28.5594 O   0  0  0  0  0  0  0  0  0  0  0  0
  2  1  1  1
  2  3  1  0
  4  2  1  0
  4  5  1  6
  6  4  1  0
  6  7  2  0
  8  6  1  0
  9  8  1  0
 10 11  1  0
  9 10  1  1
 11 19  1  0
 12 11  2  0
 12 13  1  0
 13 14  1  0
 14 15  1  0
 15 16  2  0
 17 16  1  0
 18 17  2  0
 19 14  2  0
 19 18  1  0
 20 21  2  0
 20  9  1  0
 23 22  1  0
 23 24  1  0
 24 26  1  0
 24 25  1  1
 26 27  1  6
 26 28  1  0
 27 20  1  0
 28 30  1  0
 29 28  2  0
M  END
$$$$
