VWI.pdb
     RDKit          3D

 30 31  0  0  1  0  0  0  0  0999 V2000
   11.9766  -20.2176   22.3359 C   0  0  0  0  0  0  0  0  0  0  0  0
   12.4069  -19.5295   21.0876 C   0  0  1  0  0  0  0  0  0  0  0  0
   12.9131  -20.4528   20.0081 C   0  0  0  0  0  0  0  0  0  0  0  0
   11.4146  -18.5079   20.5728 C   0  0  2  0  0  0  0  0  0  0  0  0
   11.9951  -17.8027   19.4126 N   0  0  0  0  0  0  0  0  0  0  0  0
   11.0319  -17.4929   21.5694 C   0  0  0  0  0  0  0  0  0  0  0  0
   11.8611  -16.5637   21.8613 O   0  0  0  0  0  0  0  0  0  0  0  0
    9.8072  -17.4349   22.2586 N   0  0  0  0  0  0  0  0  0  0  0  0
    9.4821  -16.3877   23.2373 C   0  0  1  0  0  0  0  0  0  0  0  0
    8.1603  -15.7603   22.9144 C   0  0  0  0  0  0  0  0  0  0  0  0
    7.8724  -14.4737   23.5128 C   0  0  0  0  0  0  0  0  0  0  0  0
    8.3127  -13.2675   22.9538 C   0  0  0  0  0  0  0  0  0  0  0  0
    7.8592  -12.2938   23.7474 N   0  0  0  0  0  0  0  0  0  0  0  0
    7.1471  -12.7890   24.7951 C   0  0  0  0  0  0  0  0  0  0  0  0
    6.4987  -12.1977   25.8569 C   0  0  0  0  0  0  0  0  0  0  0  0
    5.8436  -12.9480   26.7985 C   0  0  0  0  0  0  0  0  0  0  0  0
    5.8361  -14.3270   26.6764 C   0  0  0  0  0  0  0  0  0  0  0  0
    6.4905  -14.8929   25.6077 C   0  0  0  0  0  0  0  0  0  0  0  0
    7.1611  -14.1781   24.6375 C   0  0  0  0  0  0  0  0  0  0  0  0
    9.6913  -16.8077   24.6291 C   0  0  0  0  0  0  0  0  0  0  0  0
    9.4587  -18.0019   25.0090 O   0  0  0  0  0  0  0  0  0  0  0  0
   10.6011  -12.5492   28.1033 C   0  0  0  0  0  0  0  0  0  0  0  0
   10.8453  -13.8014   27.3612 C   0  0  0  0  0  0  0  0  0  0  0  0
   10.2787  -15.0652   27.8324 C   0  0  2  0  0  0  0  0  0  0  0  0
   10.5875  -15.3435   29.3047 C   0  0  0  0  0  0  0  0  0  0  0  0
   10.4400  -16.3170   27.0133 C   0  0  2  0  0  0  0  0  0  0  0  0
   10.1664  -15.9216   25.6205 N   0  0  0  0  0  0  0  0  0  0  0  0
    9.6717  -17.4834   27.3930 C   0  0  0  0  0  0  0  0  0  0  0  0
    8.4758  -17.6674   27.0605 O   0  0  0  0  0  0  0  0  0  0  0  0
   10.2000  -18.5325   28.1777 O   0  0  0  0  0  0  0  0  0  0  0  0
  2  1  1  1
  2  3  1  0
  4  2  1  0
  4  5  1  6
  6  4  1  0
  6  7  2  0
  8  6  1  0
  9  8  1  0
 10 11  1  0
  9 10  1  1
 11 19  1  0
 12 11  2  0
 12 13  1  0
 13 14  1  0
 14 15  1  0
 15 16  2  0
 17 16  1  0
 18 17  2  0
 19 14  2  0
 19 18  1  0
 20 21  2  0
 20  9  1  0
 23 22  1  0
 23 24  1  0
 24 26  1  0
 24 25  1  1
 26 27  1  6
 26 28  1  0
 27 20  1  0
 28 30  1  0
 29 28  2  0
M  END
$$$$
