VWI.pdb
     RDKit          3D

 30 31  0  0  1  0  0  0  0  0999 V2000
    8.4941  -12.6322   19.3004 C   0  0  0  0  0  0  0  0  0  0  0  0
    8.4270  -14.0763   18.9442 C   0  0  1  0  0  0  0  0  0  0  0  0
    8.4088  -14.3540   17.4621 C   0  0  0  0  0  0  0  0  0  0  0  0
    9.4160  -14.9434   19.6949 C   0  0  2  0  0  0  0  0  0  0  0  0
    9.1892  -16.3600   19.3454 N   0  0  0  0  0  0  0  0  0  0  0  0
    9.3236  -14.8223   21.1600 C   0  0  0  0  0  0  0  0  0  0  0  0
    9.8124  -13.7873   21.7310 O   0  0  0  0  0  0  0  0  0  0  0  0
    8.7333  -15.7576   22.0289 N   0  0  0  0  0  0  0  0  0  0  0  0
    8.5763  -15.5295   23.4723 C   0  0  1  0  0  0  0  0  0  0  0  0
    7.2211  -15.9761   23.9296 C   0  0  0  0  0  0  0  0  0  0  0  0
    6.5417  -15.1459   24.9019 C   0  0  0  0  0  0  0  0  0  0  0  0
    5.4407  -15.5977   25.6399 C   0  0  0  0  0  0  0  0  0  0  0  0
    5.0821  -14.5910   26.4410 N   0  0  0  0  0  0  0  0  0  0  0  0
    5.8824  -13.5042   26.2727 C   0  0  0  0  0  0  0  0  0  0  0  0
    5.9090  -12.2550   26.8524 C   0  0  0  0  0  0  0  0  0  0  0  0
    6.8434  -11.3207   26.4882 C   0  0  0  0  0  0  0  0  0  0  0  0
    7.7770  -11.6429   25.5181 C   0  0  0  0  0  0  0  0  0  0  0  0
    7.7295  -12.8963   24.9549 C   0  0  0  0  0  0  0  0  0  0  0  0
    6.8088  -13.8668   25.2904 C   0  0  0  0  0  0  0  0  0  0  0  0
    9.7252  -15.9916   24.2622 C   0  0  0  0  0  0  0  0  0  0  0  0
   10.6198  -16.7485   23.7609 O   0  0  0  0  0  0  0  0  0  0  0  0
   10.7204  -13.0751   28.8926 C   0  0  0  0  0  0  0  0  0  0  0  0
   10.8033  -13.8825   27.6599 C   0  0  0  0  0  0  0  0  0  0  0  0
   10.9377  -15.3374   27.7339 C   0  0  2  0  0  0  0  0  0  0  0  0
   12.0348  -15.7852   28.7014 C   0  0  0  0  0  0  0  0  0  0  0  0
   10.9791  -16.1569   26.4727 C   0  0  2  0  0  0  0  0  0  0  0  0
    9.9097  -15.6213   25.6123 N   0  0  0  0  0  0  0  0  0  0  0  0
   10.8908  -17.5967   26.5925 C   0  0  0  0  0  0  0  0  0  0  0  0
    9.8064  -18.2230   26.6729 O   0  0  0  0  0  0  0  0  0  0  0  0
   12.0248  -18.4382   26.6288 O   0  0  0  0  0  0  0  0  0  0  0  0
  2  1  1  6
  2  3  1  0
  4  2  1  0
  4  5  1  1
  6  4  1  0
  6  7  2  0
  8  6  1  0
  9  8  1  0
 10 11  1  0
  9 10  1  1
 11 19  1  0
 12 11  2  0
 12 13  1  0
 13 14  1  0
 14 15  1  0
 15 16  2  0
 17 16  1  0
 18 17  2  0
 19 14  2  0
 19 18  1  0
 20 21  2  0
 20  9  1  0
 23 22  1  0
 23 24  1  0
 24 26  1  0
 24 25  1  6
 26 27  1  6
 26 28  1  0
 27 20  1  0
 28 30  1  0
 29 28  2  0
M  END
$$$$
