HAH.pdb
     RDKit          3D

 26 27  0  0  1  0  0  0  0  0999 V2000
   43.2233  -11.1607  -13.1394 N   0  0  0  0  0  0  0  0  0  0  0  0
   42.9864   -9.7903  -12.7104 C   0  0  1  0  0  0  0  0  0  0  0  0
   41.7346   -9.2944  -13.3958 C   0  0  0  0  0  0  0  0  0  0  0  0
   41.9508   -9.0814  -14.8367 C   0  0  0  0  0  0  0  0  0  0  0  0
   42.7463   -8.1329  -15.4330 C   0  0  0  0  0  0  0  0  0  0  0  0
   42.6390   -8.2807  -16.7849 N   0  0  0  0  0  0  0  0  0  0  0  0
   41.8030   -9.2894  -17.0304 C   0  0  0  0  0  0  0  0  0  0  0  0
   41.3794   -9.7823  -15.8304 N   0  0  0  0  0  0  0  0  0  0  0  0
   42.8042   -9.7031  -11.2496 C   0  0  0  0  0  0  0  0  0  0  0  0
   42.0287  -10.4599  -10.6137 O   0  0  0  0  0  0  0  0  0  0  0  0
   44.5835   -8.0261   -8.4457 C   0  0  0  0  0  0  0  0  0  0  0  0
   43.3694   -8.7415   -9.0025 C   0  0  2  0  0  0  0  0  0  0  0  0
   43.5045   -8.7408  -10.4442 N   0  0  0  0  0  0  0  0  0  0  0  0
   42.1088   -8.0195   -8.6289 C   0  0  0  0  0  0  0  0  0  0  0  0
   41.5500   -7.2177   -9.4173 O   0  0  0  0  0  0  0  0  0  0  0  0
   41.5203   -8.2331   -7.3639 N   0  0  0  0  0  0  0  0  0  0  0  0
   40.2697   -7.4893   -7.0403 C   0  0  1  0  0  0  0  0  0  0  0  0
   39.5524   -8.2150   -5.9650 C   0  0  0  0  0  0  0  0  0  0  0  0
   38.9053   -9.4595   -6.4074 C   0  0  0  0  0  0  0  0  0  0  0  0
   38.8210  -10.0550   -7.6379 C   0  0  0  0  0  0  0  0  0  0  0  0
   38.1795  -11.2575   -7.5648 N   0  0  0  0  0  0  0  0  0  0  0  0
   37.8623  -11.4130   -6.2735 C   0  0  0  0  0  0  0  0  0  0  0  0
   38.2837  -10.3580   -5.5679 N   0  0  0  0  0  0  0  0  0  0  0  0
   40.7123   -6.1247   -6.6113 C   0  0  0  0  0  0  0  0  0  0  0  0
   41.8611   -5.8330   -6.2847 O   0  0  0  0  0  0  0  0  0  0  0  0
   39.7684   -5.0802   -6.5687 O   0  0  0  0  0  0  0  0  0  0  0  0
  2  9  1  0
  2  1  1  1
  3  2  1  0
  4  3  1  0
  5  4  2  0
  6  7  1  0
  6  5  1  0
  7  8  2  0
  8  4  1  0
  9 10  2  0
 12 11  1  1
 12 14  1  0
 13  9  1  0
 13 12  1  0
 14 15  2  0
 16 14  1  0
 16 17  1  0
 17 24  1  0
 17 18  1  1
 19 23  1  0
 19 18  1  0
 20 19  2  0
 21 20  1  0
 21 22  1  0
 22 23  2  0
 24 26  1  0
 25 24  2  0
M  END
$$$$
