HAH.pdb
     RDKit          3D

 26 27  0  0  1  0  0  0  0  0999 V2000
   20.2073  -13.0512  -17.0708 N   0  0  0  0  0  0  0  0  0  0  0  0
   19.4742  -11.7980  -16.9693 C   0  0  1  0  0  0  0  0  0  0  0  0
   18.3872  -11.9734  -15.9348 C   0  0  0  0  0  0  0  0  0  0  0  0
   17.3574  -12.9256  -16.3832 C   0  0  0  0  0  0  0  0  0  0  0  0
   16.3791  -12.7189  -17.3256 C   0  0  0  0  0  0  0  0  0  0  0  0
   15.6322  -13.8568  -17.4160 N   0  0  0  0  0  0  0  0  0  0  0  0
   16.1251  -14.7499  -16.5580 C   0  0  0  0  0  0  0  0  0  0  0  0
   17.1875  -14.1761  -15.9221 N   0  0  0  0  0  0  0  0  0  0  0  0
   20.3539  -10.6865  -16.5622 C   0  0  0  0  0  0  0  0  0  0  0  0
   21.0301  -10.7061  -15.5035 O   0  0  0  0  0  0  0  0  0  0  0  0
   21.5298   -7.4886  -18.1172 C   0  0  0  0  0  0  0  0  0  0  0  0
   21.4165   -8.4472  -16.9494 C   0  0  2  0  0  0  0  0  0  0  0  0
   20.5014   -9.4949  -17.3517 N   0  0  0  0  0  0  0  0  0  0  0  0
   20.8626   -7.7511  -15.7416 C   0  0  0  0  0  0  0  0  0  0  0  0
   19.6269   -7.6031  -15.5748 O   0  0  0  0  0  0  0  0  0  0  0  0
   21.7361   -7.2426  -14.7563 N   0  0  0  0  0  0  0  0  0  0  0  0
   21.1345   -6.5896  -13.5589 C   0  0  1  0  0  0  0  0  0  0  0  0
   21.9850   -6.8855  -12.3814 C   0  0  0  0  0  0  0  0  0  0  0  0
   21.5913   -6.1678  -11.1595 C   0  0  0  0  0  0  0  0  0  0  0  0
   20.5039   -5.3859  -10.8724 C   0  0  0  0  0  0  0  0  0  0  0  0
   20.5124   -4.9829   -9.5685 N   0  0  0  0  0  0  0  0  0  0  0  0
   21.6169   -5.5215   -9.0373 C   0  0  0  0  0  0  0  0  0  0  0  0
   22.2725   -6.2292   -9.9635 N   0  0  0  0  0  0  0  0  0  0  0  0
   21.0894   -5.1273  -13.8777 C   0  0  0  0  0  0  0  0  0  0  0  0
   21.9566   -4.5213  -14.5040 O   0  0  0  0  0  0  0  0  0  0  0  0
   19.9880   -4.3650  -13.4425 O   0  0  0  0  0  0  0  0  0  0  0  0
  2  9  1  0
  2  1  1  1
  3  2  1  0
  4  3  1  0
  5  4  2  0
  6  7  1  0
  6  5  1  0
  7  8  2  0
  8  4  1  0
  9 10  2  0
 12 11  1  6
 12 14  1  0
 13  9  1  0
 13 12  1  0
 14 15  2  0
 16 14  1  0
 16 17  1  0
 17 24  1  0
 17 18  1  1
 19 23  1  0
 19 18  1  0
 20 19  2  0
 21 20  1  0
 21 22  1  0
 22 23  2  0
 24 26  1  0
 25 24  2  0
M  END
$$$$
