HAH.pdb
     RDKit          3D

 26 27  0  0  1  0  0  0  0  0999 V2000
   18.7786  -12.2143  -16.6839 N   0  0  0  0  0  0  0  0  0  0  0  0
   18.3924  -10.8193  -16.8354 C   0  0  1  0  0  0  0  0  0  0  0  0
   17.3897  -10.4905  -15.7541 C   0  0  0  0  0  0  0  0  0  0  0  0
   16.1235  -11.2172  -15.9465 C   0  0  0  0  0  0  0  0  0  0  0  0
   15.0851  -10.8836  -16.7823 C   0  0  0  0  0  0  0  0  0  0  0  0
   14.1045  -11.8201  -16.6326 N   0  0  0  0  0  0  0  0  0  0  0  0
   14.5133  -12.7133  -15.7317 C   0  0  0  0  0  0  0  0  0  0  0  0
   15.7567  -12.3418  -15.3094 N   0  0  0  0  0  0  0  0  0  0  0  0
   19.5529   -9.9183  -16.7082 C   0  0  0  0  0  0  0  0  0  0  0  0
   20.2393   -9.8361  -15.6591 O   0  0  0  0  0  0  0  0  0  0  0  0
   21.4683   -7.6615  -19.0044 C   0  0  0  0  0  0  0  0  0  0  0  0
   21.1465   -8.2146  -17.6310 C   0  0  2  0  0  0  0  0  0  0  0  0
   19.9842   -9.0651  -17.7811 N   0  0  0  0  0  0  0  0  0  0  0  0
   20.8211   -7.1062  -16.6740 C   0  0  0  0  0  0  0  0  0  0  0  0
   19.6576   -6.6456  -16.5696 O   0  0  0  0  0  0  0  0  0  0  0  0
   21.8345   -6.5537  -15.8616 N   0  0  0  0  0  0  0  0  0  0  0  0
   21.4524   -5.4792  -14.9016 C   0  0  1  0  0  0  0  0  0  0  0  0
   21.7889   -5.9290  -13.5297 C   0  0  0  0  0  0  0  0  0  0  0  0
   20.8750   -6.9469  -12.9893 C   0  0  0  0  0  0  0  0  0  0  0  0
   19.7524   -7.5325  -13.5114 C   0  0  0  0  0  0  0  0  0  0  0  0
   19.2608   -8.4949  -12.6778 N   0  0  0  0  0  0  0  0  0  0  0  0
   20.0881   -8.5096  -11.6253 C   0  0  0  0  0  0  0  0  0  0  0  0
   21.0538   -7.5991  -11.7890 N   0  0  0  0  0  0  0  0  0  0  0  0
   22.2362   -4.2723  -15.3151 C   0  0  0  0  0  0  0  0  0  0  0  0
   23.0672   -4.2551  -16.2210 O   0  0  0  0  0  0  0  0  0  0  0  0
   22.0290   -3.0555  -14.6368 O   0  0  0  0  0  0  0  0  0  0  0  0
  2  9  1  0
  2  1  1  1
  3  2  1  0
  4  3  1  0
  5  4  2  0
  6  7  1  0
  6  5  1  0
  7  8  2  0
  8  4  1  0
  9 10  2  0
 12 11  1  6
 12 14  1  0
 13  9  1  0
 13 12  1  0
 14 15  2  0
 16 14  1  0
 16 17  1  0
 17 24  1  0
 17 18  1  1
 19 23  1  0
 19 18  1  0
 20 19  2  0
 21 20  1  0
 21 22  1  0
 22 23  2  0
 24 26  1  0
 25 24  2  0
M  END
$$$$
