HAH.pdb
     RDKit          3D

 26 27  0  0  1  0  0  0  0  0999 V2000
   27.4215  -18.2103  -17.2623 N   0  0  0  0  0  0  0  0  0  0  0  0
   27.3710  -17.8740  -15.8472 C   0  0  1  0  0  0  0  0  0  0  0  0
   26.1885  -16.9604  -15.6244 C   0  0  0  0  0  0  0  0  0  0  0  0
   26.4217  -15.6206  -16.1891 C   0  0  0  0  0  0  0  0  0  0  0  0
   27.1725  -14.6037  -15.6501 C   0  0  0  0  0  0  0  0  0  0  0  0
   27.1021  -13.5338  -16.4934 N   0  0  0  0  0  0  0  0  0  0  0  0
   26.3319  -13.8673  -17.5289 C   0  0  0  0  0  0  0  0  0  0  0  0
   25.9130  -15.1525  -17.3411 N   0  0  0  0  0  0  0  0  0  0  0  0
   27.2164  -19.0774  -15.0089 C   0  0  0  0  0  0  0  0  0  0  0  0
   26.2556  -19.8770  -15.1361 O   0  0  0  0  0  0  0  0  0  0  0  0
   29.0945  -20.6320  -12.1550 C   0  0  0  0  0  0  0  0  0  0  0  0
   27.8760  -20.4916  -13.0446 C   0  0  2  0  0  0  0  0  0  0  0  0
   28.1588  -19.4237  -13.9809 N   0  0  0  0  0  0  0  0  0  0  0  0
   26.6665  -20.1259  -12.2362 C   0  0  0  0  0  0  0  0  0  0  0  0
   26.3900  -18.9309  -11.9673 O   0  0  0  0  0  0  0  0  0  0  0  0
   25.8050  -21.1359  -11.7567 N   0  0  0  0  0  0  0  0  0  0  0  0
   24.6212  -20.7205  -10.9516 C   0  0  1  0  0  0  0  0  0  0  0  0
   23.3919  -21.0806  -11.6976 C   0  0  0  0  0  0  0  0  0  0  0  0
   22.1440  -20.8016  -10.9708 C   0  0  0  0  0  0  0  0  0  0  0  0
   21.9069  -20.1875   -9.7698 C   0  0  0  0  0  0  0  0  0  0  0  0
   20.5690  -20.0790   -9.5230 N   0  0  0  0  0  0  0  0  0  0  0  0
   19.9662  -20.6305  -10.5835 C   0  0  0  0  0  0  0  0  0  0  0  0
   20.8817  -21.0659  -11.4557 N   0  0  0  0  0  0  0  0  0  0  0  0
   24.7381  -21.4580   -9.6537 C   0  0  0  0  0  0  0  0  0  0  0  0
   25.3961  -22.4833   -9.4892 O   0  0  0  0  0  0  0  0  0  0  0  0
   24.0573  -20.9666   -8.5229 O   0  0  0  0  0  0  0  0  0  0  0  0
  2  9  1  0
  2  1  1  6
  3  2  1  0
  4  3  1  0
  5  4  2  0
  6  7  1  0
  6  5  1  0
  7  8  2  0
  8  4  1  0
  9 10  2  0
 12 11  1  1
 12 14  1  0
 13  9  1  0
 13 12  1  0
 14 15  2  0
 16 14  1  0
 16 17  1  0
 17 24  1  0
 17 18  1  6
 19 23  1  0
 19 18  1  0
 20 19  2  0
 21 20  1  0
 21 22  1  0
 22 23  2  0
 24 26  1  0
 25 24  2  0
M  END
$$$$
