HAH.pdb
     RDKit          3D

 26 27  0  0  1  0  0  0  0  0999 V2000
   20.8475  -24.2141  -17.1044 N   0  0  0  0  0  0  0  0  0  0  0  0
   19.8531  -25.0453  -16.4423 C   0  0  1  0  0  0  0  0  0  0  0  0
   19.8731  -26.4085  -17.0934 C   0  0  0  0  0  0  0  0  0  0  0  0
   19.3584  -26.3609  -18.4722 C   0  0  0  0  0  0  0  0  0  0  0  0
   18.0767  -26.6158  -18.8969 C   0  0  0  0  0  0  0  0  0  0  0  0
   18.0451  -26.4749  -20.2534 N   0  0  0  0  0  0  0  0  0  0  0  0
   19.2675  -26.1422  -20.6679 C   0  0  0  0  0  0  0  0  0  0  0  0
   20.0760  -26.0721  -19.5707 N   0  0  0  0  0  0  0  0  0  0  0  0
   20.1408  -25.1929  -15.0034 C   0  0  0  0  0  0  0  0  0  0  0  0
   21.3011  -25.3716  -14.5559 O   0  0  0  0  0  0  0  0  0  0  0  0
   18.2141  -24.8220  -11.8216 C   0  0  0  0  0  0  0  0  0  0  0  0
   19.4289  -25.2853  -12.5996 C   0  0  2  0  0  0  0  0  0  0  0  0
   19.1088  -25.1427  -14.0047 N   0  0  0  0  0  0  0  0  0  0  0  0
   19.7283  -26.7264  -12.3100 C   0  0  0  0  0  0  0  0  0  0  0  0
   19.2855  -27.6505  -13.0357 O   0  0  0  0  0  0  0  0  0  0  0  0
   20.5260  -27.0729  -11.1983 N   0  0  0  0  0  0  0  0  0  0  0  0
   20.7814  -28.5195  -10.9453 C   0  0  1  0  0  0  0  0  0  0  0  0
   22.1701  -28.6753  -10.4507 C   0  0  0  0  0  0  0  0  0  0  0  0
   22.5069  -30.0419  -10.0240 C   0  0  0  0  0  0  0  0  0  0  0  0
   21.7983  -31.2129  -10.0748 C   0  0  0  0  0  0  0  0  0  0  0  0
   22.5454  -32.2652   -9.6306 N   0  0  0  0  0  0  0  0  0  0  0  0
   23.7334  -31.7434   -9.3010 C   0  0  0  0  0  0  0  0  0  0  0  0
   23.7333  -30.4252   -9.5267 N   0  0  0  0  0  0  0  0  0  0  0  0
   19.7634  -28.9366   -9.9294 C   0  0  0  0  0  0  0  0  0  0  0  0
   19.1965  -28.1706   -9.1528 O   0  0  0  0  0  0  0  0  0  0  0  0
   19.4094  -30.2963   -9.8327 O   0  0  0  0  0  0  0  0  0  0  0  0
  2  9  1  0
  2  1  1  6
  3  2  1  0
  4  3  1  0
  5  4  2  0
  6  7  1  0
  6  5  1  0
  7  8  2  0
  8  4  1  0
  9 10  2  0
 12 11  1  1
 12 14  1  0
 13  9  1  0
 13 12  1  0
 14 15  2  0
 16 14  1  0
 16 17  1  0
 17 24  1  0
 17 18  1  1
 19 23  1  0
 19 18  1  0
 20 19  2  0
 21 20  1  0
 21 22  1  0
 22 23  2  0
 24 26  1  0
 25 24  2  0
M  END
$$$$
