HAH.pdb
     RDKit          3D

 26 27  0  0  1  0  0  0  0  0999 V2000
   13.9990   -9.2794   -9.9784 N   0  0  0  0  0  0  0  0  0  0  0  0
   15.4384   -9.1543  -10.1528 C   0  0  1  0  0  0  0  0  0  0  0  0
   15.8610  -10.0990  -11.2536 C   0  0  0  0  0  0  0  0  0  0  0  0
   15.5997  -11.5034  -10.8959 C   0  0  0  0  0  0  0  0  0  0  0  0
   16.4182  -12.3550  -10.1938 C   0  0  0  0  0  0  0  0  0  0  0  0
   15.7939  -13.5648  -10.1065 N   0  0  0  0  0  0  0  0  0  0  0  0
   14.6210  -13.4764  -10.7336 C   0  0  0  0  0  0  0  0  0  0  0  0
   14.5018  -12.2068  -11.2196 N   0  0  0  0  0  0  0  0  0  0  0  0
   15.8225   -7.7793  -10.5224 C   0  0  0  0  0  0  0  0  0  0  0  0
   15.3377   -7.1803  -11.5147 O   0  0  0  0  0  0  0  0  0  0  0  0
   17.1332   -4.8048   -8.9746 C   0  0  0  0  0  0  0  0  0  0  0  0
   17.1844   -5.6976  -10.1977 C   0  0  2  0  0  0  0  0  0  0  0  0
   16.7842   -7.0218   -9.7698 N   0  0  0  0  0  0  0  0  0  0  0  0
   18.5772   -5.7625  -10.7511 C   0  0  0  0  0  0  0  0  0  0  0  0
   19.4894   -6.3981  -10.1675 O   0  0  0  0  0  0  0  0  0  0  0  0
   18.8902   -5.0990  -11.9569 N   0  0  0  0  0  0  0  0  0  0  0  0
   20.3111   -5.1018  -12.4075 C   0  0  1  0  0  0  0  0  0  0  0  0
   20.4287   -5.9797  -13.5961 C   0  0  0  0  0  0  0  0  0  0  0  0
   20.2231   -7.4080  -13.3115 C   0  0  0  0  0  0  0  0  0  0  0  0
   21.0421   -8.3527  -12.7523 C   0  0  0  0  0  0  0  0  0  0  0  0
   20.3976   -9.5473  -12.6099 N   0  0  0  0  0  0  0  0  0  0  0  0
   19.1625   -9.3434  -13.0846 C   0  0  0  0  0  0  0  0  0  0  0  0
   19.0364   -8.0805  -13.5061 N   0  0  0  0  0  0  0  0  0  0  0  0
   20.6380   -3.6738  -12.7178 C   0  0  0  0  0  0  0  0  0  0  0  0
   19.8207   -2.7555  -12.7258 O   0  0  0  0  0  0  0  0  0  0  0  0
   21.9677   -3.3269  -13.0262 O   0  0  0  0  0  0  0  0  0  0  0  0
  2  9  1  0
  2  1  1  6
  3  2  1  0
  4  3  1  0
  5  4  2  0
  6  7  1  0
  6  5  1  0
  7  8  2  0
  8  4  1  0
  9 10  2  0
 12 11  1  1
 12 14  1  0
 13  9  1  0
 13 12  1  0
 14 15  2  0
 16 14  1  0
 16 17  1  0
 17 24  1  0
 17 18  1  6
 19 23  1  0
 19 18  1  0
 20 19  2  0
 21 20  1  0
 21 22  1  0
 22 23  2  0
 24 26  1  0
 25 24  2  0
M  END
$$$$
