HAH.pdb
     RDKit          3D

 26 27  0  0  1  0  0  0  0  0999 V2000
   14.4379  -17.8512    4.1395 N   0  0  0  0  0  0  0  0  0  0  0  0
   15.4260  -18.5765    4.9242 C   0  0  1  0  0  0  0  0  0  0  0  0
   16.3926  -19.2350    3.9679 C   0  0  0  0  0  0  0  0  0  0  0  0
   15.7635  -20.3490    3.2388 C   0  0  0  0  0  0  0  0  0  0  0  0
   15.7044  -21.6691    3.6155 C   0  0  0  0  0  0  0  0  0  0  0  0
   15.0467  -22.3581    2.6389 N   0  0  0  0  0  0  0  0  0  0  0  0
   14.7037  -21.4989    1.6794 C   0  0  0  0  0  0  0  0  0  0  0  0
   15.1453  -20.2617    2.0491 N   0  0  0  0  0  0  0  0  0  0  0  0
   16.1727  -17.6761    5.8222 C   0  0  0  0  0  0  0  0  0  0  0  0
   16.5089  -16.5112    5.4927 O   0  0  0  0  0  0  0  0  0  0  0  0
   17.0231  -17.6594    9.4475 C   0  0  0  0  0  0  0  0  0  0  0  0
   17.2013  -17.1217    8.0422 C   0  0  2  0  0  0  0  0  0  0  0  0
   16.5714  -18.0686    7.1458 N   0  0  0  0  0  0  0  0  0  0  0  0
   18.6565  -17.0128    7.6948 C   0  0  0  0  0  0  0  0  0  0  0  0
   19.2056  -17.8127    6.8976 O   0  0  0  0  0  0  0  0  0  0  0  0
   19.4455  -15.9924    8.2678 N   0  0  0  0  0  0  0  0  0  0  0  0
   20.8710  -15.8902    7.8443 C   0  0  1  0  0  0  0  0  0  0  0  0
   21.3050  -14.4793    7.9806 C   0  0  0  0  0  0  0  0  0  0  0  0
   20.6915  -13.5645    7.0059 C   0  0  0  0  0  0  0  0  0  0  0  0
   19.7660  -13.7729    6.0180 C   0  0  0  0  0  0  0  0  0  0  0  0
   19.4267  -12.6039    5.4007 N   0  0  0  0  0  0  0  0  0  0  0  0
   20.1481  -11.6565    6.0127 C   0  0  0  0  0  0  0  0  0  0  0  0
   20.9058  -12.2040    6.9691 N   0  0  0  0  0  0  0  0  0  0  0  0
   21.6276  -16.8105    8.7514 C   0  0  0  0  0  0  0  0  0  0  0  0
   21.2791  -17.1105    9.8915 O   0  0  0  0  0  0  0  0  0  0  0  0
   22.8276  -17.3891    8.2943 O   0  0  0  0  0  0  0  0  0  0  0  0
  2  9  1  0
  2  1  1  6
  3  2  1  0
  4  3  1  0
  5  4  2  0
  6  7  1  0
  6  5  1  0
  7  8  2  0
  8  4  1  0
  9 10  2  0
 12 11  1  1
 12 14  1  0
 13  9  1  0
 13 12  1  0
 14 15  2  0
 16 14  1  0
 16 17  1  0
 17 24  1  0
 17 18  1  1
 19 23  1  0
 19 18  1  0
 20 19  2  0
 21 20  1  0
 21 22  1  0
 22 23  2  0
 24 26  1  0
 25 24  2  0
M  END
$$$$
