YFW.pdb
     RDKit          3D

 38 41  0  0  1  0  0  0  0  0999 V2000
   31.7980  -21.8296  -21.7248 O   0  0  0  0  0  0  0  0  0  0  0  0
   30.7574  -21.8249  -20.7958 C   0  0  0  0  0  0  0  0  0  0  0  0
   30.6600  -20.8591  -19.8091 C   0  0  0  0  0  0  0  0  0  0  0  0
   29.6383  -20.8396  -18.8831 C   0  0  0  0  0  0  0  0  0  0  0  0
   28.6572  -21.8069  -18.9127 C   0  0  0  0  0  0  0  0  0  0  0  0
   27.5241  -21.8578  -17.9519 C   0  0  0  0  0  0  0  0  0  0  0  0
   28.0594  -22.4247  -16.6598 C   0  0  2  0  0  0  0  0  0  0  0  0
   28.1871  -23.8517  -16.8447 N   0  0  0  0  0  0  0  0  0  0  0  0
   27.1698  -22.1715  -15.5070 C   0  0  0  0  0  0  0  0  0  0  0  0
   26.1617  -22.9103  -15.3652 O   0  0  0  0  0  0  0  0  0  0  0  0
   28.7447  -22.7754  -19.8934 C   0  0  0  0  0  0  0  0  0  0  0  0
   29.7697  -22.7870  -20.8152 C   0  0  0  0  0  0  0  0  0  0  0  0
   27.4241  -21.1277  -14.5688 N   0  0  0  0  0  0  0  0  0  0  0  0
   26.4342  -20.8280  -13.5675 C   0  0  1  0  0  0  0  0  0  0  0  0
   26.9037  -19.7865  -12.6017 C   0  0  0  0  0  0  0  0  0  0  0  0
   26.5687  -20.2295  -11.2289 C   0  0  0  0  0  0  0  0  0  0  0  0
   27.3024  -21.1551  -10.5193 C   0  0  0  0  0  0  0  0  0  0  0  0
   26.9346  -21.5314   -9.2280 C   0  0  0  0  0  0  0  0  0  0  0  0
   25.8146  -20.9675   -8.6474 C   0  0  0  0  0  0  0  0  0  0  0  0
   25.0702  -20.0430   -9.3387 C   0  0  0  0  0  0  0  0  0  0  0  0
   25.4599  -19.6901  -10.6170 C   0  0  0  0  0  0  0  0  0  0  0  0
   25.1390  -20.5470  -14.2077 C   0  0  0  0  0  0  0  0  0  0  0  0
   25.0715  -19.6107  -15.0349 O   0  0  0  0  0  0  0  0  0  0  0  0
   23.9531  -21.2700  -13.9497 N   0  0  0  0  0  0  0  0  0  0  0  0
   22.6446  -20.8982  -14.4616 C   0  0  1  0  0  0  0  0  0  0  0  0
   22.0797  -21.9207  -15.3861 C   0  0  0  0  0  0  0  0  0  0  0  0
   20.7756  -21.4500  -15.9053 C   0  0  0  0  0  0  0  0  0  0  0  0
   20.5702  -20.5358  -16.9367 C   0  0  0  0  0  0  0  0  0  0  0  0
   19.2479  -20.3903  -17.0737 N   0  0  0  0  0  0  0  0  0  0  0  0
   18.5953  -21.1636  -16.1839 C   0  0  0  0  0  0  0  0  0  0  0  0
   17.2453  -21.3648  -15.9272 C   0  0  0  0  0  0  0  0  0  0  0  0
   16.8727  -22.2381  -14.9293 C   0  0  0  0  0  0  0  0  0  0  0  0
   17.7895  -22.9260  -14.1690 C   0  0  0  0  0  0  0  0  0  0  0  0
   19.1388  -22.7228  -14.4280 C   0  0  0  0  0  0  0  0  0  0  0  0
   19.5245  -21.8468  -15.4294 C   0  0  0  0  0  0  0  0  0  0  0  0
   21.7280  -20.7046  -13.3196 C   0  0  0  0  0  0  0  0  0  0  0  0
   21.8679  -21.3877  -12.2754 O   0  0  0  0  0  0  0  0  0  0  0  0
   20.7016  -19.7841  -13.3507 O   0  0  0  0  0  0  0  0  0  0  0  0
  2  3  2  0
  2  1  1  0
  4  3  1  0
  5  4  2  0
  6  5  1  0
  6  7  1  0
  7  8  1  6
  9  7  1  0
  9 10  2  0
 11  5  1  0
 11 12  2  0
 12  2  1  0
 13  9  1  0
 14 13  1  0
 14 15  1  6
 16 15  1  0
 16 17  2  0
 18 17  1  0
 19 18  2  0
 20 21  2  0
 20 19  1  0
 21 16  1  0
 22 14  1  0
 23 22  2  0
 24 22  1  0
 25 24  1  0
 25 26  1  6
 26 27  1  0
 27 35  1  0
 28 27  2  0
 28 29  1  0
 29 30  1  0
 30 31  1  0
 31 32  2  0
 33 32  1  0
 34 33  2  0
 35 30  2  0
 35 34  1  0
 36 25  1  0
 37 36  2  0
 38 36  1  0
M  END
$$$$
