YFW.pdb
     RDKit          3D

 38 41  0  0  1  0  0  0  0  0999 V2000
   29.1065  -19.8044   -5.5705 O   0  0  0  0  0  0  0  0  0  0  0  0
   28.5829  -19.8770   -6.8614 C   0  0  0  0  0  0  0  0  0  0  0  0
   29.3511  -20.2726   -7.9428 C   0  0  0  0  0  0  0  0  0  0  0  0
   28.8496  -20.3497   -9.2251 C   0  0  0  0  0  0  0  0  0  0  0  0
   27.5335  -20.0268   -9.4755 C   0  0  0  0  0  0  0  0  0  0  0  0
   26.9164  -20.0826  -10.8267 C   0  0  0  0  0  0  0  0  0  0  0  0
   26.2730  -21.4404  -10.9679 C   0  0  2  0  0  0  0  0  0  0  0  0
   27.1481  -22.2395  -11.7939 N   0  0  0  0  0  0  0  0  0  0  0  0
   24.9396  -21.3830  -11.6032 C   0  0  0  0  0  0  0  0  0  0  0  0
   24.8801  -21.4428  -12.8581 O   0  0  0  0  0  0  0  0  0  0  0  0
   26.7580  -19.6310   -8.4034 C   0  0  0  0  0  0  0  0  0  0  0  0
   27.2679  -19.5567   -7.1247 C   0  0  0  0  0  0  0  0  0  0  0  0
   23.7411  -21.2638  -10.8392 N   0  0  0  0  0  0  0  0  0  0  0  0
   22.4714  -21.2920  -11.5171 C   0  0  1  0  0  0  0  0  0  0  0  0
   21.3805  -21.8399  -10.6525 C   0  0  0  0  0  0  0  0  0  0  0  0
   20.1239  -21.8647  -11.4358 C   0  0  0  0  0  0  0  0  0  0  0  0
   19.8689  -22.7599  -12.4518 C   0  0  0  0  0  0  0  0  0  0  0  0
   18.6641  -22.7319  -13.1531 C   0  0  0  0  0  0  0  0  0  0  0  0
   17.7071  -21.7906  -12.8254 C   0  0  0  0  0  0  0  0  0  0  0  0
   17.9426  -20.8896  -11.8155 C   0  0  0  0  0  0  0  0  0  0  0  0
   19.1465  -20.9422  -11.1385 C   0  0  0  0  0  0  0  0  0  0  0  0
   22.1915  -19.9776  -12.1173 C   0  0  0  0  0  0  0  0  0  0  0  0
   22.1579  -18.9742  -11.3706 O   0  0  0  0  0  0  0  0  0  0  0  0
   21.9555  -19.7682  -13.4943 N   0  0  0  0  0  0  0  0  0  0  0  0
   21.4466  -18.5273  -14.0541 C   0  0  1  0  0  0  0  0  0  0  0  0
   22.3634  -17.9392  -15.0705 C   0  0  0  0  0  0  0  0  0  0  0  0
   22.6193  -18.9326  -16.1380 C   0  0  0  0  0  0  0  0  0  0  0  0
   21.8190  -19.1852  -17.2505 C   0  0  0  0  0  0  0  0  0  0  0  0
   22.4128  -20.1602  -17.9470 N   0  0  0  0  0  0  0  0  0  0  0  0
   23.5518  -20.5456  -17.3389 C   0  0  0  0  0  0  0  0  0  0  0  0
   24.5081  -21.5016  -17.6558 C   0  0  0  0  0  0  0  0  0  0  0  0
   25.5908  -21.6729  -16.8216 C   0  0  0  0  0  0  0  0  0  0  0  0
   25.7668  -20.9303  -15.6772 C   0  0  0  0  0  0  0  0  0  0  0  0
   24.8088  -19.9751  -15.3630 C   0  0  0  0  0  0  0  0  0  0  0  0
   23.7160  -19.7945  -16.1950 C   0  0  0  0  0  0  0  0  0  0  0  0
   20.1304  -18.7916  -14.6703 C   0  0  0  0  0  0  0  0  0  0  0  0
   19.2047  -17.9495  -14.5667 O   0  0  0  0  0  0  0  0  0  0  0  0
   19.8680  -19.9496  -15.3715 O   0  0  0  0  0  0  0  0  0  0  0  0
  2  3  2  0
  2  1  1  0
  4  3  1  0
  5  4  2  0
  6  5  1  0
  6  7  1  0
  7  8  1  6
  9  7  1  0
  9 10  2  0
 11  5  1  0
 11 12  2  0
 12  2  1  0
 13  9  1  0
 14 13  1  0
 14 15  1  1
 16 15  1  0
 16 17  2  0
 18 17  1  0
 19 18  2  0
 20 21  2  0
 20 19  1  0
 21 16  1  0
 22 14  1  0
 23 22  2  0
 24 22  1  0
 25 24  1  0
 25 26  1  6
 26 27  1  0
 27 35  1  0
 28 27  2  0
 28 29  1  0
 29 30  1  0
 30 31  1  0
 31 32  2  0
 33 32  1  0
 34 33  2  0
 35 30  2  0
 35 34  1  0
 36 25  1  0
 37 36  2  0
 38 36  1  0
M  END
$$$$
