YFW.pdb
     RDKit          3D

 38 41  0  0  1  0  0  0  0  0999 V2000
   26.4565  -32.3712   -9.9394 O   0  0  0  0  0  0  0  0  0  0  0  0
   26.4810  -32.6188   -8.5668 C   0  0  0  0  0  0  0  0  0  0  0  0
   25.4051  -32.3202   -7.7487 C   0  0  0  0  0  0  0  0  0  0  0  0
   25.4126  -32.5582   -6.3904 C   0  0  0  0  0  0  0  0  0  0  0  0
   26.5209  -33.1155   -5.7903 C   0  0  0  0  0  0  0  0  0  0  0  0
   26.6100  -33.4028   -4.3346 C   0  0  0  0  0  0  0  0  0  0  0  0
   26.4223  -34.8902   -4.1608 C   0  0  2  0  0  0  0  0  0  0  0  0
   25.0307  -35.1745   -4.4236 N   0  0  0  0  0  0  0  0  0  0  0  0
   26.7550  -35.3577   -2.7986 C   0  0  0  0  0  0  0  0  0  0  0  0
   25.9049  -35.1795   -1.8889 O   0  0  0  0  0  0  0  0  0  0  0  0
   27.6002  -33.4175   -6.5975 C   0  0  0  0  0  0  0  0  0  0  0  0
   27.5838  -33.1760   -7.9547 C   0  0  0  0  0  0  0  0  0  0  0  0
   27.9952  -35.9948   -2.4982 N   0  0  0  0  0  0  0  0  0  0  0  0
   28.1812  -36.5917   -1.2015 C   0  0  1  0  0  0  0  0  0  0  0  0
   29.0147  -37.8324   -1.2641 C   0  0  0  0  0  0  0  0  0  0  0  0
   28.1581  -38.9554   -1.7093 C   0  0  0  0  0  0  0  0  0  0  0  0
   27.8347  -39.2005   -3.0261 C   0  0  0  0  0  0  0  0  0  0  0  0
   27.0220  -40.2762   -3.3817 C   0  0  0  0  0  0  0  0  0  0  0  0
   26.5308  -41.1131   -2.3979 C   0  0  0  0  0  0  0  0  0  0  0  0
   26.8421  -40.8853   -1.0794 C   0  0  0  0  0  0  0  0  0  0  0  0
   27.6500  -39.8108   -0.7581 C   0  0  0  0  0  0  0  0  0  0  0  0
   28.6437  -35.5768   -0.2412 C   0  0  0  0  0  0  0  0  0  0  0  0
   29.5224  -34.7644   -0.6066 O   0  0  0  0  0  0  0  0  0  0  0  0
   28.1583  -35.4550    1.0798 N   0  0  0  0  0  0  0  0  0  0  0  0
   28.6204  -34.4557    2.0286 C   0  0  1  0  0  0  0  0  0  0  0  0
   28.2145  -33.0737    1.6478 C   0  0  0  0  0  0  0  0  0  0  0  0
   28.1312  -32.2313    2.8624 C   0  0  0  0  0  0  0  0  0  0  0  0
   29.0858  -32.1287    3.8724 C   0  0  0  0  0  0  0  0  0  0  0  0
   28.6068  -31.2695    4.7783 N   0  0  0  0  0  0  0  0  0  0  0  0
   27.3950  -30.8162    4.4015 C   0  0  0  0  0  0  0  0  0  0  0  0
   26.5021  -29.9271    4.9854 C   0  0  0  0  0  0  0  0  0  0  0  0
   25.3114  -29.6537    4.3491 C   0  0  0  0  0  0  0  0  0  0  0  0
   24.9659  -30.2292    3.1486 C   0  0  0  0  0  0  0  0  0  0  0  0
   25.8609  -31.1179    2.5671 C   0  0  0  0  0  0  0  0  0  0  0  0
   27.0613  -31.4000    3.1984 C   0  0  0  0  0  0  0  0  0  0  0  0
   28.0739  -34.7813    3.3617 C   0  0  0  0  0  0  0  0  0  0  0  0
   26.9036  -35.2223    3.4732 O   0  0  0  0  0  0  0  0  0  0  0  0
   28.8105  -34.6192    4.5161 O   0  0  0  0  0  0  0  0  0  0  0  0
  2  3  2  0
  2  1  1  0
  4  3  1  0
  5  4  2  0
  6  5  1  0
  6  7  1  0
  7  8  1  1
  9  7  1  0
  9 10  2  0
 11  5  1  0
 11 12  2  0
 12  2  1  0
 13  9  1  0
 14 13  1  0
 14 15  1  6
 16 15  1  0
 16 17  2  0
 18 17  1  0
 19 18  2  0
 20 21  2  0
 20 19  1  0
 21 16  1  0
 22 14  1  0
 23 22  2  0
 24 22  1  0
 25 24  1  0
 25 26  1  6
 26 27  1  0
 27 35  1  0
 28 27  2  0
 28 29  1  0
 29 30  1  0
 30 31  1  0
 31 32  2  0
 33 32  1  0
 34 33  2  0
 35 30  2  0
 35 34  1  0
 36 25  1  0
 37 36  2  0
 38 36  1  0
M  END
$$$$
