YFW.pdb
     RDKit          3D

 38 41  0  0  1  0  0  0  0  0999 V2000
   21.6586  -15.7080  -21.1896 O   0  0  0  0  0  0  0  0  0  0  0  0
   22.0663  -16.5292  -20.1382 C   0  0  0  0  0  0  0  0  0  0  0  0
   21.6208  -17.8337  -20.0117 C   0  0  0  0  0  0  0  0  0  0  0  0
   22.0136  -18.6588  -18.9790 C   0  0  0  0  0  0  0  0  0  0  0  0
   22.8846  -18.1975  -18.0159 C   0  0  0  0  0  0  0  0  0  0  0  0
   23.3558  -19.0212  -16.8717 C   0  0  0  0  0  0  0  0  0  0  0  0
   24.8143  -19.3258  -17.1114 C   0  0  2  0  0  0  0  0  0  0  0  0
   24.8759  -20.2622  -18.2095 N   0  0  0  0  0  0  0  0  0  0  0  0
   25.4785  -19.9262  -15.9355 C   0  0  0  0  0  0  0  0  0  0  0  0
   25.1977  -21.1167  -15.6423 O   0  0  0  0  0  0  0  0  0  0  0  0
   23.3354  -16.8973  -18.1326 C   0  0  0  0  0  0  0  0  0  0  0  0
   22.9374  -16.0794  -19.1686 C   0  0  0  0  0  0  0  0  0  0  0  0
   26.4137  -19.1996  -15.1406 N   0  0  0  0  0  0  0  0  0  0  0  0
   26.8616  -19.7631  -13.8939 C   0  0  1  0  0  0  0  0  0  0  0  0
   28.1768  -19.1989  -13.4582 C   0  0  0  0  0  0  0  0  0  0  0  0
   28.4942  -19.7256  -12.1110 C   0  0  0  0  0  0  0  0  0  0  0  0
   29.1100  -20.9373  -11.8848 C   0  0  0  0  0  0  0  0  0  0  0  0
   29.3822  -21.3783  -10.5903 C   0  0  0  0  0  0  0  0  0  0  0  0
   29.0291  -20.5879   -9.5133 C   0  0  0  0  0  0  0  0  0  0  0  0
   28.4143  -19.3767   -9.7183 C   0  0  0  0  0  0  0  0  0  0  0  0
   28.1576  -18.9667  -11.0131 C   0  0  0  0  0  0  0  0  0  0  0  0
   25.7867  -19.6867  -12.8913 C   0  0  0  0  0  0  0  0  0  0  0  0
   25.1518  -18.6148  -12.7759 O   0  0  0  0  0  0  0  0  0  0  0  0
   25.4181  -20.7526  -12.0407 N   0  0  0  0  0  0  0  0  0  0  0  0
   24.6473  -20.5908  -10.8192 C   0  0  1  0  0  0  0  0  0  0  0  0
   23.2873  -20.0365  -11.0694 C   0  0  0  0  0  0  0  0  0  0  0  0
   22.6124  -20.8380  -12.1153 C   0  0  0  0  0  0  0  0  0  0  0  0
   22.5314  -22.2278  -12.1776 C   0  0  0  0  0  0  0  0  0  0  0  0
   21.8449  -22.5310  -13.2844 N   0  0  0  0  0  0  0  0  0  0  0  0
   21.4816  -21.4080  -13.9346 C   0  0  0  0  0  0  0  0  0  0  0  0
   20.7708  -21.1907  -15.1078 C   0  0  0  0  0  0  0  0  0  0  0  0
   20.5513  -19.8989  -15.5323 C   0  0  0  0  0  0  0  0  0  0  0  0
   21.0105  -18.8044  -14.8372 C   0  0  0  0  0  0  0  0  0  0  0  0
   21.7210  -19.0250  -13.6644 C   0  0  0  0  0  0  0  0  0  0  0  0
   21.9474  -20.3201  -13.2282 C   0  0  0  0  0  0  0  0  0  0  0  0
   24.5305  -21.9057  -10.1564 C   0  0  0  0  0  0  0  0  0  0  0  0
   23.9420  -22.0054   -9.0518 O   0  0  0  0  0  0  0  0  0  0  0  0
   25.0512  -23.0557  -10.7114 O   0  0  0  0  0  0  0  0  0  0  0  0
  2  3  2  0
  2  1  1  0
  4  3  1  0
  5  4  2  0
  6  5  1  0
  6  7  1  0
  7  8  1  6
  9  7  1  0
  9 10  2  0
 11  5  1  0
 11 12  2  0
 12  2  1  0
 13  9  1  0
 14 13  1  0
 14 15  1  1
 16 15  1  0
 16 17  2  0
 18 17  1  0
 19 18  2  0
 20 21  2  0
 20 19  1  0
 21 16  1  0
 22 14  1  0
 23 22  2  0
 24 22  1  0
 25 24  1  0
 25 26  1  6
 26 27  1  0
 27 35  1  0
 28 27  2  0
 28 29  1  0
 29 30  1  0
 30 31  1  0
 31 32  2  0
 33 32  1  0
 34 33  2  0
 35 30  2  0
 35 34  1  0
 36 25  1  0
 37 36  2  0
 38 36  1  0
M  END
$$$$
