YFW.pdb
     RDKit          3D

 38 41  0  0  1  0  0  0  0  0999 V2000
   30.5235  -31.8019  -18.1227 O   0  0  0  0  0  0  0  0  0  0  0  0
   29.2595  -31.3926  -18.5480 C   0  0  0  0  0  0  0  0  0  0  0  0
   28.6506  -30.2547  -18.0477 C   0  0  0  0  0  0  0  0  0  0  0  0
   27.4020  -29.8360  -18.4569 C   0  0  0  0  0  0  0  0  0  0  0  0
   26.7040  -30.5569  -19.4013 C   0  0  0  0  0  0  0  0  0  0  0  0
   25.3549  -30.1749  -19.8950 C   0  0  0  0  0  0  0  0  0  0  0  0
   24.3504  -30.6916  -18.8942 C   0  0  2  0  0  0  0  0  0  0  0  0
   24.3544  -32.1325  -18.9963 N   0  0  0  0  0  0  0  0  0  0  0  0
   22.9797  -30.1999  -19.1472 C   0  0  0  0  0  0  0  0  0  0  0  0
   22.2419  -30.8740  -19.9109 O   0  0  0  0  0  0  0  0  0  0  0  0
   27.3025  -31.6942  -19.9073 C   0  0  0  0  0  0  0  0  0  0  0  0
   28.5512  -32.1053  -19.4923 C   0  0  0  0  0  0  0  0  0  0  0  0
   22.4839  -29.0005  -18.5555 N   0  0  0  0  0  0  0  0  0  0  0  0
   21.1313  -28.5906  -18.8290 C   0  0  1  0  0  0  0  0  0  0  0  0
   20.1700  -29.0863  -17.7956 C   0  0  0  0  0  0  0  0  0  0  0  0
   20.5930  -28.5743  -16.4720 C   0  0  0  0  0  0  0  0  0  0  0  0
   20.2517  -27.3319  -15.9835 C   0  0  0  0  0  0  0  0  0  0  0  0
   20.6822  -26.9069  -14.7272 C   0  0  0  0  0  0  0  0  0  0  0  0
   21.4653  -27.7448  -13.9563 C   0  0  0  0  0  0  0  0  0  0  0  0
   21.8161  -28.9872  -14.4259 C   0  0  0  0  0  0  0  0  0  0  0  0
   21.3740  -29.3802  -15.6751 C   0  0  0  0  0  0  0  0  0  0  0  0
   21.0852  -27.1411  -19.0802 C   0  0  0  0  0  0  0  0  0  0  0  0
   21.7962  -26.3894  -18.3766 O   0  0  0  0  0  0  0  0  0  0  0  0
   20.2844  -26.5329  -20.0724 N   0  0  0  0  0  0  0  0  0  0  0  0
   20.1622  -25.0959  -20.2528 C   0  0  1  0  0  0  0  0  0  0  0  0
   19.1871  -24.7336  -21.3192 C   0  0  0  0  0  0  0  0  0  0  0  0
   19.2995  -23.2885  -21.6206 C   0  0  0  0  0  0  0  0  0  0  0  0
   20.3244  -22.6618  -22.3267 C   0  0  0  0  0  0  0  0  0  0  0  0
   20.0368  -21.3562  -22.3585 N   0  0  0  0  0  0  0  0  0  0  0  0
   18.8810  -21.1136  -21.7097 C   0  0  0  0  0  0  0  0  0  0  0  0
   18.1677  -19.9469  -21.4668 C   0  0  0  0  0  0  0  0  0  0  0  0
   16.9896  -20.0139  -20.7562 C   0  0  0  0  0  0  0  0  0  0  0  0
   16.4847  -21.1983  -20.2723 C   0  0  0  0  0  0  0  0  0  0  0  0
   17.2002  -22.3632  -20.5168 C   0  0  0  0  0  0  0  0  0  0  0  0
   18.3862  -22.3073  -21.2305 C   0  0  0  0  0  0  0  0  0  0  0  0
   19.7402  -24.4931  -18.9720 C   0  0  0  0  0  0  0  0  0  0  0  0
   20.2092  -23.3858  -18.6110 O   0  0  0  0  0  0  0  0  0  0  0  0
   18.8315  -25.1075  -18.1363 O   0  0  0  0  0  0  0  0  0  0  0  0
  2  3  2  0
  2  1  1  0
  4  3  1  0
  5  4  2  0
  6  5  1  0
  6  7  1  0
  7  8  1  6
  9  7  1  0
  9 10  2  0
 11  5  1  0
 11 12  2  0
 12  2  1  0
 13  9  1  0
 14 13  1  0
 14 15  1  1
 16 15  1  0
 16 17  2  0
 18 17  1  0
 19 18  2  0
 20 21  2  0
 20 19  1  0
 21 16  1  0
 22 14  1  0
 23 22  2  0
 24 22  1  0
 25 24  1  0
 25 26  1  6
 26 27  1  0
 27 35  1  0
 28 27  2  0
 28 29  1  0
 29 30  1  0
 30 31  1  0
 31 32  2  0
 33 32  1  0
 34 33  2  0
 35 30  2  0
 35 34  1  0
 36 25  1  0
 37 36  2  0
 38 36  1  0
M  END
$$$$
