YFW.pdb
     RDKit          3D

 38 41  0  0  1  0  0  0  0  0999 V2000
   16.3183  -21.1954  -16.8984 O   0  0  0  0  0  0  0  0  0  0  0  0
   17.6261  -21.4900  -17.2843 C   0  0  0  0  0  0  0  0  0  0  0  0
   18.3843  -20.6098  -18.0369 C   0  0  0  0  0  0  0  0  0  0  0  0
   19.6780  -20.8851  -18.4268 C   0  0  0  0  0  0  0  0  0  0  0  0
   20.2711  -22.0766  -18.0697 C   0  0  0  0  0  0  0  0  0  0  0  0
   21.6588  -22.4501  -18.4496 C   0  0  0  0  0  0  0  0  0  0  0  0
   22.5590  -22.0437  -17.3085 C   0  0  2  0  0  0  0  0  0  0  0  0
   22.5449  -20.6004  -17.2520 N   0  0  0  0  0  0  0  0  0  0  0  0
   23.9538  -22.5000  -17.4841 C   0  0  0  0  0  0  0  0  0  0  0  0
   24.7148  -21.8084  -18.2084 O   0  0  0  0  0  0  0  0  0  0  0  0
   19.5235  -22.9622  -17.3185 C   0  0  0  0  0  0  0  0  0  0  0  0
   18.2306  -22.6785  -16.9331 C   0  0  0  0  0  0  0  0  0  0  0  0
   24.4472  -23.6848  -16.8619 N   0  0  0  0  0  0  0  0  0  0  0  0
   25.8411  -24.0187  -16.9952 C   0  0  1  0  0  0  0  0  0  0  0  0
   26.4844  -24.2997  -15.6741 C   0  0  0  0  0  0  0  0  0  0  0  0
   27.9201  -24.5851  -15.8985 C   0  0  0  0  0  0  0  0  0  0  0  0
   28.8616  -23.6183  -16.1766 C   0  0  0  0  0  0  0  0  0  0  0  0
   30.2005  -23.9513  -16.3784 C   0  0  0  0  0  0  0  0  0  0  0  0
   30.5927  -25.2739  -16.2986 C   0  0  0  0  0  0  0  0  0  0  0  0
   29.6689  -26.2523  -16.0224 C   0  0  0  0  0  0  0  0  0  0  0  0
   28.3490  -25.8910  -15.8272 C   0  0  0  0  0  0  0  0  0  0  0  0
   26.0124  -25.0714  -18.0094 C   0  0  0  0  0  0  0  0  0  0  0  0
   25.3308  -26.1158  -17.9081 O   0  0  0  0  0  0  0  0  0  0  0  0
   26.9035  -24.9831  -19.1020 N   0  0  0  0  0  0  0  0  0  0  0  0
   27.1583  -26.0678  -20.0351 C   0  0  1  0  0  0  0  0  0  0  0  0
   27.1932  -25.6081  -21.4518 C   0  0  0  0  0  0  0  0  0  0  0  0
   27.2673  -26.7825  -22.3502 C   0  0  0  0  0  0  0  0  0  0  0  0
   26.7878  -28.0643  -22.0874 C   0  0  0  0  0  0  0  0  0  0  0  0
   27.0695  -28.8150  -23.1577 N   0  0  0  0  0  0  0  0  0  0  0  0
   27.7044  -28.0811  -24.0926 C   0  0  0  0  0  0  0  0  0  0  0  0
   28.1974  -28.3904  -25.3536 C   0  0  0  0  0  0  0  0  0  0  0  0
   28.8138  -27.4067  -26.0951 C   0  0  0  0  0  0  0  0  0  0  0  0
   28.9632  -26.1190  -25.6355 C   0  0  0  0  0  0  0  0  0  0  0  0
   28.4691  -25.8127  -24.3742 C   0  0  0  0  0  0  0  0  0  0  0  0
   27.8473  -26.7944  -23.6199 C   0  0  0  0  0  0  0  0  0  0  0  0
   28.4490  -26.6966  -19.6878 C   0  0  0  0  0  0  0  0  0  0  0  0
   28.4735  -27.8277  -19.1434 O   0  0  0  0  0  0  0  0  0  0  0  0
   29.6566  -26.0813  -19.9422 O   0  0  0  0  0  0  0  0  0  0  0  0
  2  3  2  0
  2  1  1  0
  4  3  1  0
  5  4  2  0
  6  5  1  0
  6  7  1  0
  7  8  1  6
  9  7  1  0
  9 10  2  0
 11  5  1  0
 11 12  2  0
 12  2  1  0
 13  9  1  0
 14 13  1  0
 14 15  1  1
 16 15  1  0
 16 17  2  0
 18 17  1  0
 19 18  2  0
 20 21  2  0
 20 19  1  0
 21 16  1  0
 22 14  1  0
 23 22  2  0
 24 22  1  0
 25 24  1  0
 25 26  1  6
 26 27  1  0
 27 35  1  0
 28 27  2  0
 28 29  1  0
 29 30  1  0
 30 31  1  0
 31 32  2  0
 33 32  1  0
 34 33  2  0
 35 30  2  0
 35 34  1  0
 36 25  1  0
 37 36  2  0
 38 36  1  0
M  END
$$$$
