YFW.pdb
     RDKit          3D

 38 41  0  0  1  0  0  0  0  0999 V2000
   25.3430  -18.2531  -21.4115 O   0  0  0  0  0  0  0  0  0  0  0  0
   25.1161  -18.7423  -20.1250 C   0  0  0  0  0  0  0  0  0  0  0  0
   24.6240  -20.0167  -19.9016 C   0  0  0  0  0  0  0  0  0  0  0  0
   24.3939  -20.5159  -18.6369 C   0  0  0  0  0  0  0  0  0  0  0  0
   24.6536  -19.7407  -17.5276 C   0  0  0  0  0  0  0  0  0  0  0  0
   24.4326  -20.2026  -16.1321 C   0  0  0  0  0  0  0  0  0  0  0  0
   25.7914  -20.4421  -15.5205 C   0  0  2  0  0  0  0  0  0  0  0  0
   26.3770  -21.5640  -16.2169 N   0  0  0  0  0  0  0  0  0  0  0  0
   25.7265  -20.7579  -14.0781 C   0  0  0  0  0  0  0  0  0  0  0  0
   25.8103  -21.9646  -13.7332 O   0  0  0  0  0  0  0  0  0  0  0  0
   25.1451  -18.4674  -17.7391 C   0  0  0  0  0  0  0  0  0  0  0  0
   25.3721  -17.9765  -19.0072 C   0  0  0  0  0  0  0  0  0  0  0  0
   25.5742  -19.7439  -13.0867 N   0  0  0  0  0  0  0  0  0  0  0  0
   25.5568  -20.1187  -11.6968 C   0  0  1  0  0  0  0  0  0  0  0  0
   26.9318  -20.1827  -11.1110 C   0  0  0  0  0  0  0  0  0  0  0  0
   26.8176  -20.1711   -9.6345 C   0  0  0  0  0  0  0  0  0  0  0  0
   26.5668  -19.0379   -8.8918 C   0  0  0  0  0  0  0  0  0  0  0  0
   26.4705  -19.0923   -7.5019 C   0  0  0  0  0  0  0  0  0  0  0  0
   26.6292  -20.3032   -6.8552 C   0  0  0  0  0  0  0  0  0  0  0  0
   26.8798  -21.4440   -7.5781 C   0  0  0  0  0  0  0  0  0  0  0  0
   26.9696  -21.3582   -8.9547 C   0  0  0  0  0  0  0  0  0  0  0  0
   24.6027  -19.2749  -10.9593 C   0  0  0  0  0  0  0  0  0  0  0  0
   25.0364  -18.5447  -10.0404 O   0  0  0  0  0  0  0  0  0  0  0  0
   23.2151  -19.2319  -11.2203 N   0  0  0  0  0  0  0  0  0  0  0  0
   22.2913  -20.3058  -10.8949 C   0  0  1  0  0  0  0  0  0  0  0  0
   22.2003  -21.3294  -11.9736 C   0  0  0  0  0  0  0  0  0  0  0  0
   21.4750  -20.7618  -13.1327 C   0  0  0  0  0  0  0  0  0  0  0  0
   21.9119  -19.7352  -13.9677 C   0  0  0  0  0  0  0  0  0  0  0  0
   20.9500  -19.5314  -14.8742 N   0  0  0  0  0  0  0  0  0  0  0  0
   19.9197  -20.3739  -14.6637 C   0  0  0  0  0  0  0  0  0  0  0  0
   18.7076  -20.5561  -15.3166 C   0  0  0  0  0  0  0  0  0  0  0  0
   17.8350  -21.5190  -14.8598 C   0  0  0  0  0  0  0  0  0  0  0  0
   18.1158  -22.3154  -13.7740 C   0  0  0  0  0  0  0  0  0  0  0  0
   19.3287  -22.1309  -13.1232 C   0  0  0  0  0  0  0  0  0  0  0  0
   20.2137  -21.1653  -13.5743 C   0  0  0  0  0  0  0  0  0  0  0  0
   22.7358  -20.9478   -9.6410 C   0  0  0  0  0  0  0  0  0  0  0  0
   23.7049  -21.7461   -9.6501 O   0  0  0  0  0  0  0  0  0  0  0  0
   22.1190  -20.7020   -8.4324 O   0  0  0  0  0  0  0  0  0  0  0  0
  2  3  2  0
  2  1  1  0
  4  3  1  0
  5  4  2  0
  6  5  1  0
  6  7  1  0
  7  8  1  6
  9  7  1  0
  9 10  2  0
 11  5  1  0
 11 12  2  0
 12  2  1  0
 13  9  1  0
 14 13  1  0
 14 15  1  1
 16 15  1  0
 16 17  2  0
 18 17  1  0
 19 18  2  0
 20 21  2  0
 20 19  1  0
 21 16  1  0
 22 14  1  0
 23 22  2  0
 24 22  1  0
 25 24  1  0
 25 26  1  6
 26 27  1  0
 27 35  1  0
 28 27  2  0
 28 29  1  0
 29 30  1  0
 30 31  1  0
 31 32  2  0
 33 32  1  0
 34 33  2  0
 35 30  2  0
 35 34  1  0
 36 25  1  0
 37 36  2  0
 38 36  1  0
M  END
$$$$
