YFW.pdb
     RDKit          3D

 38 41  0  0  1  0  0  0  0  0999 V2000
   14.7212  -23.7772  -14.5386 O   0  0  0  0  0  0  0  0  0  0  0  0
   15.8493  -22.9614  -14.6268 C   0  0  0  0  0  0  0  0  0  0  0  0
   15.7526  -21.5828  -14.7057 C   0  0  0  0  0  0  0  0  0  0  0  0
   16.8571  -20.7618  -14.7935 C   0  0  0  0  0  0  0  0  0  0  0  0
   18.1243  -21.3032  -14.8058 C   0  0  0  0  0  0  0  0  0  0  0  0
   19.3648  -20.4895  -14.8988 C   0  0  0  0  0  0  0  0  0  0  0  0
   20.0119  -20.5044  -13.5354 C   0  0  2  0  0  0  0  0  0  0  0  0
   19.4148  -19.4334  -12.7720 N   0  0  0  0  0  0  0  0  0  0  0  0
   21.4738  -20.2936  -13.5891 C   0  0  0  0  0  0  0  0  0  0  0  0
   21.8969  -19.1144  -13.7007 O   0  0  0  0  0  0  0  0  0  0  0  0
   18.2322  -22.6779  -14.7274 C   0  0  0  0  0  0  0  0  0  0  0  0
   17.1223  -23.4910  -14.6399 C   0  0  0  0  0  0  0  0  0  0  0  0
   22.3985  -21.3772  -13.5182 N   0  0  0  0  0  0  0  0  0  0  0  0
   23.8104  -21.0967  -13.5354 C   0  0  1  0  0  0  0  0  0  0  0  0
   24.5356  -21.7749  -12.4164 C   0  0  0  0  0  0  0  0  0  0  0  0
   25.8828  -21.1727  -12.2925 C   0  0  0  0  0  0  0  0  0  0  0  0
   26.9942  -21.6300  -12.9665 C   0  0  0  0  0  0  0  0  0  0  0  0
   28.2374  -21.0190  -12.8071 C   0  0  0  0  0  0  0  0  0  0  0  0
   28.3598  -19.9353  -11.9586 C   0  0  0  0  0  0  0  0  0  0  0  0
   27.2634  -19.4645  -11.2778 C   0  0  0  0  0  0  0  0  0  0  0  0
   26.0444  -20.0912  -11.4565 C   0  0  0  0  0  0  0  0  0  0  0  0
   24.3580  -21.3495  -14.8779 C   0  0  0  0  0  0  0  0  0  0  0  0
   25.0003  -22.4055  -15.0726 O   0  0  0  0  0  0  0  0  0  0  0  0
   24.2067  -20.4721  -15.9747 N   0  0  0  0  0  0  0  0  0  0  0  0
   25.1849  -19.4665  -16.3545 C   0  0  1  0  0  0  0  0  0  0  0  0
   25.7724  -18.7661  -15.1781 C   0  0  0  0  0  0  0  0  0  0  0  0
   26.6410  -17.6616  -15.6444 C   0  0  0  0  0  0  0  0  0  0  0  0
   26.3204  -16.3058  -15.6758 C   0  0  0  0  0  0  0  0  0  0  0  0
   27.3822  -15.6636  -16.1744 N   0  0  0  0  0  0  0  0  0  0  0  0
   28.3665  -16.5372  -16.4640 C   0  0  0  0  0  0  0  0  0  0  0  0
   29.6410  -16.3744  -16.9912 C   0  0  0  0  0  0  0  0  0  0  0  0
   30.4381  -17.4819  -17.1792 C   0  0  0  0  0  0  0  0  0  0  0  0
   30.0216  -18.7544  -16.8639 C   0  0  0  0  0  0  0  0  0  0  0  0
   28.7466  -18.9139  -16.3369 C   0  0  0  0  0  0  0  0  0  0  0  0
   27.9366  -17.8068  -16.1436 C   0  0  0  0  0  0  0  0  0  0  0  0
   26.2602  -20.1214  -17.1271 C   0  0  0  0  0  0  0  0  0  0  0  0
   26.6726  -21.2597  -16.7945 O   0  0  0  0  0  0  0  0  0  0  0  0
   26.8439  -19.5234  -18.2240 O   0  0  0  0  0  0  0  0  0  0  0  0
  2  3  2  0
  2  1  1  0
  4  3  1  0
  5  4  2  0
  6  5  1  0
  6  7  1  0
  7  8  1  1
  9  7  1  0
  9 10  2  0
 11  5  1  0
 11 12  2  0
 12  2  1  0
 13  9  1  0
 14 13  1  0
 14 15  1  1
 16 15  1  0
 16 17  2  0
 18 17  1  0
 19 18  2  0
 20 21  2  0
 20 19  1  0
 21 16  1  0
 22 14  1  0
 23 22  2  0
 24 22  1  0
 25 24  1  0
 25 26  1  1
 26 27  1  0
 27 35  1  0
 28 27  2  0
 28 29  1  0
 29 30  1  0
 30 31  1  0
 31 32  2  0
 33 32  1  0
 34 33  2  0
 35 30  2  0
 35 34  1  0
 36 25  1  0
 37 36  2  0
 38 36  1  0
M  END
$$$$
