YFW.pdb
     RDKit          3D

 38 41  0  0  1  0  0  0  0  0999 V2000
   24.2373   -3.0735  -25.8694 O   0  0  0  0  0  0  0  0  0  0  0  0
   24.0082   -3.5075  -24.5637 C   0  0  0  0  0  0  0  0  0  0  0  0
   24.1721   -2.6704  -23.4735 C   0  0  0  0  0  0  0  0  0  0  0  0
   23.9501   -3.0831  -22.1766 C   0  0  0  0  0  0  0  0  0  0  0  0
   23.5475   -4.3757  -21.9196 C   0  0  0  0  0  0  0  0  0  0  0  0
   23.2881   -4.8993  -20.5528 C   0  0  0  0  0  0  0  0  0  0  0  0
   21.7935   -5.0517  -20.4092 C   0  0  2  0  0  0  0  0  0  0  0  0
   21.2427   -3.7221  -20.2852 N   0  0  0  0  0  0  0  0  0  0  0  0
   21.4062   -5.8404  -19.2207 C   0  0  0  0  0  0  0  0  0  0  0  0
   21.7832   -7.0388  -19.1586 O   0  0  0  0  0  0  0  0  0  0  0  0
   23.3807   -5.2194  -23.0003 C   0  0  0  0  0  0  0  0  0  0  0  0
   23.6051   -4.7982  -24.2936 C   0  0  0  0  0  0  0  0  0  0  0  0
   20.6294   -5.2834  -18.1621 N   0  0  0  0  0  0  0  0  0  0  0  0
   20.3372   -6.0907  -17.0066 C   0  0  1  0  0  0  0  0  0  0  0  0
   20.9907   -5.5638  -15.7684 C   0  0  0  0  0  0  0  0  0  0  0  0
   22.4590   -5.5936  -15.9595 C   0  0  0  0  0  0  0  0  0  0  0  0
   23.2152   -4.4870  -16.2787 C   0  0  0  0  0  0  0  0  0  0  0  0
   24.5964   -4.5802  -16.4457 C   0  0  0  0  0  0  0  0  0  0  0  0
   25.2203   -5.8031  -16.2889 C   0  0  0  0  0  0  0  0  0  0  0  0
   24.4836   -6.9180  -15.9707 C   0  0  0  0  0  0  0  0  0  0  0  0
   23.1162   -6.7940  -15.8116 C   0  0  0  0  0  0  0  0  0  0  0  0
   18.8860   -6.3122  -16.9006 C   0  0  0  0  0  0  0  0  0  0  0  0
   18.1206   -5.3305  -17.0264 O   0  0  0  0  0  0  0  0  0  0  0  0
   18.2909   -7.5713  -16.6639 N   0  0  0  0  0  0  0  0  0  0  0  0
   16.8562   -7.7957  -16.6029 C   0  0  1  0  0  0  0  0  0  0  0  0
   16.3973   -8.8330  -17.5688 C   0  0  0  0  0  0  0  0  0  0  0  0
   15.0485   -9.3053  -17.1821 C   0  0  0  0  0  0  0  0  0  0  0  0
   13.9612   -8.5137  -16.8174 C   0  0  0  0  0  0  0  0  0  0  0  0
   12.9493   -9.3425  -16.5388 N   0  0  0  0  0  0  0  0  0  0  0  0
   13.3315  -10.6238  -16.7059 C   0  0  0  0  0  0  0  0  0  0  0  0
   12.6635  -11.8310  -16.5473 C   0  0  0  0  0  0  0  0  0  0  0  0
   13.3326  -13.0085  -16.7981 C   0  0  0  0  0  0  0  0  0  0  0  0
   14.6468  -13.0400  -17.2028 C   0  0  0  0  0  0  0  0  0  0  0  0
   15.3122  -11.8312  -17.3606 C   0  0  0  0  0  0  0  0  0  0  0  0
   14.6487  -10.6410  -17.1111 C   0  0  0  0  0  0  0  0  0  0  0  0
   16.5002   -8.2075  -15.2297 C   0  0  0  0  0  0  0  0  0  0  0  0
   17.2454   -8.9925  -14.5933 O   0  0  0  0  0  0  0  0  0  0  0  0
   15.3589   -7.7560  -14.6012 O   0  0  0  0  0  0  0  0  0  0  0  0
  2  3  2  0
  2  1  1  0
  4  3  1  0
  5  4  2  0
  6  5  1  0
  6  7  1  0
  7  8  1  1
  9  7  1  0
  9 10  2  0
 11  5  1  0
 11 12  2  0
 12  2  1  0
 13  9  1  0
 14 13  1  0
 14 15  1  1
 16 15  1  0
 16 17  2  0
 18 17  1  0
 19 18  2  0
 20 21  2  0
 20 19  1  0
 21 16  1  0
 22 14  1  0
 23 22  2  0
 24 22  1  0
 25 24  1  0
 25 26  1  6
 26 27  1  0
 27 35  1  0
 28 27  2  0
 28 29  1  0
 29 30  1  0
 30 31  1  0
 31 32  2  0
 33 32  1  0
 34 33  2  0
 35 30  2  0
 35 34  1  0
 36 25  1  0
 37 36  2  0
 38 36  1  0
M  END
$$$$
