YFW.pdb
     RDKit          3D

 38 41  0  0  1  0  0  0  0  0999 V2000
   28.8236  -18.0160  -18.5699 O   0  0  0  0  0  0  0  0  0  0  0  0
   28.3351  -18.3999  -17.3210 C   0  0  0  0  0  0  0  0  0  0  0  0
   27.0867  -18.9781  -17.1683 C   0  0  0  0  0  0  0  0  0  0  0  0
   26.5885  -19.3633  -15.9415 C   0  0  0  0  0  0  0  0  0  0  0  0
   27.3382  -19.1794  -14.7999 C   0  0  0  0  0  0  0  0  0  0  0  0
   26.8747  -19.5656  -13.4413 C   0  0  0  0  0  0  0  0  0  0  0  0
   27.6354  -20.8078  -13.0464 C   0  0  2  0  0  0  0  0  0  0  0  0
   27.1512  -21.8833  -13.8803 N   0  0  0  0  0  0  0  0  0  0  0  0
   27.4381  -21.1780  -11.6291 C   0  0  0  0  0  0  0  0  0  0  0  0
   26.4053  -21.8291  -11.3269 O   0  0  0  0  0  0  0  0  0  0  0  0
   28.5855  -18.6034  -14.9410 C   0  0  0  0  0  0  0  0  0  0  0  0
   29.0756  -18.2213  -16.1716 C   0  0  0  0  0  0  0  0  0  0  0  0
   28.3755  -20.8205  -10.6153 N   0  0  0  0  0  0  0  0  0  0  0  0
   27.9707  -20.8753   -9.2349 C   0  0  1  0  0  0  0  0  0  0  0  0
   29.0531  -20.4173   -8.3093 C   0  0  0  0  0  0  0  0  0  0  0  0
   28.4861  -20.2851   -6.9477 C   0  0  0  0  0  0  0  0  0  0  0  0
   27.9316  -19.1238   -6.4553 C   0  0  0  0  0  0  0  0  0  0  0  0
   27.4135  -19.0628   -5.1622 C   0  0  0  0  0  0  0  0  0  0  0  0
   27.4558  -20.1857   -4.3580 C   0  0  0  0  0  0  0  0  0  0  0  0
   28.0046  -21.3529   -4.8308 C   0  0  0  0  0  0  0  0  0  0  0  0
   28.5100  -21.3823   -6.1170 C   0  0  0  0  0  0  0  0  0  0  0  0
   26.6747  -20.1994   -9.0627 C   0  0  0  0  0  0  0  0  0  0  0  0
   26.5420  -19.0381   -9.5089 O   0  0  0  0  0  0  0  0  0  0  0  0
   25.5572  -20.7782   -8.4209 N   0  0  0  0  0  0  0  0  0  0  0  0
   24.1797  -20.5606   -8.8302 C   0  0  1  0  0  0  0  0  0  0  0  0
   23.9414  -20.9247  -10.2550 C   0  0  0  0  0  0  0  0  0  0  0  0
   22.5483  -20.5861  -10.6247 C   0  0  0  0  0  0  0  0  0  0  0  0
   21.4541  -20.5061   -9.7655 C   0  0  0  0  0  0  0  0  0  0  0  0
   20.3928  -20.1826  -10.5120 N   0  0  0  0  0  0  0  0  0  0  0  0
   20.7498  -20.0510  -11.8047 C   0  0  0  0  0  0  0  0  0  0  0  0
   20.0308  -19.7325  -12.9494 C   0  0  0  0  0  0  0  0  0  0  0  0
   20.6850  -19.6722  -14.1601 C   0  0  0  0  0  0  0  0  0  0  0  0
   22.0329  -19.9162  -14.2847 C   0  0  0  0  0  0  0  0  0  0  0  0
   22.7492  -20.2344  -13.1381 C   0  0  0  0  0  0  0  0  0  0  0  0
   22.1012  -20.2977  -11.9154 C   0  0  0  0  0  0  0  0  0  0  0  0
   23.2959  -21.3636   -7.9607 C   0  0  0  0  0  0  0  0  0  0  0  0
   22.2942  -20.8350   -7.4189 O   0  0  0  0  0  0  0  0  0  0  0  0
   23.5281  -22.7002   -7.7130 O   0  0  0  0  0  0  0  0  0  0  0  0
  2  3  2  0
  2  1  1  0
  4  3  1  0
  5  4  2  0
  6  5  1  0
  6  7  1  0
  7  8  1  6
  9  7  1  0
  9 10  2  0
 11  5  1  0
 11 12  2  0
 12  2  1  0
 13  9  1  0
 14 13  1  0
 14 15  1  1
 16 15  1  0
 16 17  2  0
 18 17  1  0
 19 18  2  0
 20 21  2  0
 20 19  1  0
 21 16  1  0
 22 14  1  0
 23 22  2  0
 24 22  1  0
 25 24  1  0
 25 26  1  6
 26 27  1  0
 27 35  1  0
 28 27  2  0
 28 29  1  0
 29 30  1  0
 30 31  1  0
 31 32  2  0
 33 32  1  0
 34 33  2  0
 35 30  2  0
 35 34  1  0
 36 25  1  0
 37 36  2  0
 38 36  1  0
M  END
$$$$
