YFW.pdb
     RDKit          3D

 38 41  0  0  1  0  0  0  0  0999 V2000
   29.0552  -32.5699  -16.8056 O   0  0  0  0  0  0  0  0  0  0  0  0
   28.1572  -31.5211  -16.6069 C   0  0  0  0  0  0  0  0  0  0  0  0
   28.1792  -30.7443  -15.4613 C   0  0  0  0  0  0  0  0  0  0  0  0
   27.2990  -29.7042  -15.2488 C   0  0  0  0  0  0  0  0  0  0  0  0
   26.3456  -29.3983  -16.1956 C   0  0  0  0  0  0  0  0  0  0  0  0
   25.3606  -28.2955  -16.0435 C   0  0  0  0  0  0  0  0  0  0  0  0
   25.8883  -27.1151  -16.8219 C   0  0  2  0  0  0  0  0  0  0  0  0
   26.9917  -26.5692  -16.0662 N   0  0  0  0  0  0  0  0  0  0  0  0
   24.8762  -26.0562  -17.0195 C   0  0  0  0  0  0  0  0  0  0  0  0
   24.6236  -25.2925  -16.0526 O   0  0  0  0  0  0  0  0  0  0  0  0
   26.3149  -30.1671  -17.3426 C   0  0  0  0  0  0  0  0  0  0  0  0
   27.1989  -31.2051  -17.5466 C   0  0  0  0  0  0  0  0  0  0  0  0
   24.1923  -25.8839  -18.2593 N   0  0  0  0  0  0  0  0  0  0  0  0
   23.1939  -24.8531  -18.3723 C   0  0  1  0  0  0  0  0  0  0  0  0
   23.3807  -24.0166  -19.5984 C   0  0  0  0  0  0  0  0  0  0  0  0
   22.3103  -22.9940  -19.6406 C   0  0  0  0  0  0  0  0  0  0  0  0
   21.1262  -23.1486  -20.3279 C   0  0  0  0  0  0  0  0  0  0  0  0
   20.1561  -22.1470  -20.3291 C   0  0  0  0  0  0  0  0  0  0  0  0
   20.3838  -20.9775  -19.6292 C   0  0  0  0  0  0  0  0  0  0  0  0
   21.5582  -20.8046  -18.9377 C   0  0  0  0  0  0  0  0  0  0  0  0
   22.5007  -21.8155  -18.9555 C   0  0  0  0  0  0  0  0  0  0  0  0
   21.8507  -25.4326  -18.2107 C   0  0  0  0  0  0  0  0  0  0  0  0
   21.5775  -26.4888  -18.8234 O   0  0  0  0  0  0  0  0  0  0  0  0
   20.8369  -24.8723  -17.4021 N   0  0  0  0  0  0  0  0  0  0  0  0
   19.4863  -25.4005  -17.3063 C   0  0  1  0  0  0  0  0  0  0  0  0
   18.7640  -24.9101  -16.0991 C   0  0  0  0  0  0  0  0  0  0  0  0
   17.4572  -25.5978  -15.9925 C   0  0  0  0  0  0  0  0  0  0  0  0
   17.2406  -26.9220  -15.6165 C   0  0  0  0  0  0  0  0  0  0  0  0
   15.9206  -27.1313  -15.6624 N   0  0  0  0  0  0  0  0  0  0  0  0
   15.2801  -26.0104  -16.0482 C   0  0  0  0  0  0  0  0  0  0  0  0
   13.9369  -25.7173  -16.2456 C   0  0  0  0  0  0  0  0  0  0  0  0
   13.5769  -24.4514  -16.6519 C   0  0  0  0  0  0  0  0  0  0  0  0
   14.4997  -23.4557  -16.8726 C   0  0  0  0  0  0  0  0  0  0  0  0
   15.8421  -23.7517  -16.6743 C   0  0  0  0  0  0  0  0  0  0  0  0
   16.2153  -25.0216  -16.2656 C   0  0  0  0  0  0  0  0  0  0  0  0
   18.7398  -25.0120  -18.5204 C   0  0  0  0  0  0  0  0  0  0  0  0
   18.8321  -23.8437  -18.9709 O   0  0  0  0  0  0  0  0  0  0  0  0
   17.9276  -25.8977  -19.1967 O   0  0  0  0  0  0  0  0  0  0  0  0
  2  3  2  0
  2  1  1  0
  4  3  1  0
  5  4  2  0
  6  5  1  0
  6  7  1  0
  7  8  1  1
  9  7  1  0
  9 10  2  0
 11  5  1  0
 11 12  2  0
 12  2  1  0
 13  9  1  0
 14 13  1  0
 14 15  1  6
 16 15  1  0
 16 17  2  0
 18 17  1  0
 19 18  2  0
 20 21  2  0
 20 19  1  0
 21 16  1  0
 22 14  1  0
 23 22  2  0
 24 22  1  0
 25 24  1  0
 25 26  1  1
 26 27  1  0
 27 35  1  0
 28 27  2  0
 28 29  1  0
 29 30  1  0
 30 31  1  0
 31 32  2  0
 33 32  1  0
 34 33  2  0
 35 30  2  0
 35 34  1  0
 36 25  1  0
 37 36  2  0
 38 36  1  0
M  END
$$$$
