YFW.pdb
     RDKit          3D

 38 41  0  0  1  0  0  0  0  0999 V2000
   20.7909  -22.9788  -21.8880 O   0  0  0  0  0  0  0  0  0  0  0  0
   21.3814  -23.2555  -20.6549 C   0  0  0  0  0  0  0  0  0  0  0  0
   21.8489  -22.2517  -19.8243 C   0  0  0  0  0  0  0  0  0  0  0  0
   22.4352  -22.5076  -18.6026 C   0  0  0  0  0  0  0  0  0  0  0  0
   22.5772  -23.8048  -18.1598 C   0  0  0  0  0  0  0  0  0  0  0  0
   23.1977  -24.1655  -16.8580 C   0  0  0  0  0  0  0  0  0  0  0  0
   24.6919  -24.1938  -17.0682 C   0  0  2  0  0  0  0  0  0  0  0  0
   25.0655  -25.5754  -17.2638 N   0  0  0  0  0  0  0  0  0  0  0  0
   25.4461  -23.6549  -15.9170 C   0  0  0  0  0  0  0  0  0  0  0  0
   25.8532  -24.4655  -15.0457 O   0  0  0  0  0  0  0  0  0  0  0  0
   22.1140  -24.8141  -18.9808 C   0  0  0  0  0  0  0  0  0  0  0  0
   21.5292  -24.5490  -20.2007 C   0  0  0  0  0  0  0  0  0  0  0  0
   25.7180  -22.2619  -15.7747 N   0  0  0  0  0  0  0  0  0  0  0  0
   26.5958  -21.8226  -14.7217 C   0  0  1  0  0  0  0  0  0  0  0  0
   27.5386  -20.7552  -15.1796 C   0  0  0  0  0  0  0  0  0  0  0  0
   28.3402  -20.3030  -14.0194 C   0  0  0  0  0  0  0  0  0  0  0  0
   28.0351  -19.1950  -13.2593 C   0  0  0  0  0  0  0  0  0  0  0  0
   28.8309  -18.8203  -12.1774 C   0  0  0  0  0  0  0  0  0  0  0  0
   29.9460  -19.5719  -11.8597 C   0  0  0  0  0  0  0  0  0  0  0  0
   30.2668  -20.6800  -12.6055 C   0  0  0  0  0  0  0  0  0  0  0  0
   29.4586  -21.0262  -13.6720 C   0  0  0  0  0  0  0  0  0  0  0  0
   25.8141  -21.4911  -13.5195 C   0  0  0  0  0  0  0  0  0  0  0  0
   24.7022  -20.9356  -13.6636 O   0  0  0  0  0  0  0  0  0  0  0  0
   26.2373  -21.7601  -12.1988 N   0  0  0  0  0  0  0  0  0  0  0  0
   25.4110  -21.5552  -11.0209 C   0  0  1  0  0  0  0  0  0  0  0  0
   26.1218  -21.8953   -9.7566 C   0  0  0  0  0  0  0  0  0  0  0  0
   26.5117  -20.6491   -9.0589 C   0  0  0  0  0  0  0  0  0  0  0  0
   25.8120  -19.4440   -9.0523 C   0  0  0  0  0  0  0  0  0  0  0  0
   26.5191  -18.5845   -8.3109 N   0  0  0  0  0  0  0  0  0  0  0  0
   27.6354  -19.1761   -7.8420 C   0  0  0  0  0  0  0  0  0  0  0  0
   28.6751  -18.7190   -7.0427 C   0  0  0  0  0  0  0  0  0  0  0  0
   29.7049  -19.5760   -6.7227 C   0  0  0  0  0  0  0  0  0  0  0  0
   29.7478  -20.8776   -7.1654 C   0  0  0  0  0  0  0  0  0  0  0  0
   28.7066  -21.3317   -7.9646 C   0  0  0  0  0  0  0  0  0  0  0  0
   27.6659  -20.4783   -8.2924 C   0  0  0  0  0  0  0  0  0  0  0  0
   24.9845  -20.1415  -10.9829 C   0  0  0  0  0  0  0  0  0  0  0  0
   25.7892  -19.2311  -11.2992 O   0  0  0  0  0  0  0  0  0  0  0  0
   23.7109  -19.7694  -10.6071 O   0  0  0  0  0  0  0  0  0  0  0  0
  2  3  2  0
  2  1  1  0
  4  3  1  0
  5  4  2  0
  6  5  1  0
  6  7  1  0
  7  8  1  1
  9  7  1  0
  9 10  2  0
 11  5  1  0
 11 12  2  0
 12  2  1  0
 13  9  1  0
 14 13  1  0
 14 15  1  6
 16 15  1  0
 16 17  2  0
 18 17  1  0
 19 18  2  0
 20 21  2  0
 20 19  1  0
 21 16  1  0
 22 14  1  0
 23 22  2  0
 24 22  1  0
 25 24  1  0
 25 26  1  1
 26 27  1  0
 27 35  1  0
 28 27  2  0
 28 29  1  0
 29 30  1  0
 30 31  1  0
 31 32  2  0
 33 32  1  0
 34 33  2  0
 35 30  2  0
 35 34  1  0
 36 25  1  0
 37 36  2  0
 38 36  1  0
M  END
$$$$
