YFW.pdb
     RDKit          3D

 38 41  0  0  1  0  0  0  0  0999 V2000
   18.8333  -17.0615  -16.8483 O   0  0  0  0  0  0  0  0  0  0  0  0
   19.6546  -17.8093  -16.0045 C   0  0  0  0  0  0  0  0  0  0  0  0
   19.2249  -18.9874  -15.4184 C   0  0  0  0  0  0  0  0  0  0  0  0
   20.0235  -19.7386  -14.5819 C   0  0  0  0  0  0  0  0  0  0  0  0
   21.3077  -19.3284  -14.2965 C   0  0  0  0  0  0  0  0  0  0  0  0
   22.2312  -20.0788  -13.4057 C   0  0  0  0  0  0  0  0  0  0  0  0
   23.4092  -20.5098  -14.2449 C   0  0  2  0  0  0  0  0  0  0  0  0
   22.9538  -21.5884  -15.0909 N   0  0  0  0  0  0  0  0  0  0  0  0
   24.5493  -20.9884  -13.4350 C   0  0  0  0  0  0  0  0  0  0  0  0
   24.4160  -22.0714  -12.8094 O   0  0  0  0  0  0  0  0  0  0  0  0
   21.7468  -18.1543  -14.8763 C   0  0  0  0  0  0  0  0  0  0  0  0
   20.9414  -17.4096  -15.7113 C   0  0  0  0  0  0  0  0  0  0  0  0
   25.7746  -20.2634  -13.3490 N   0  0  0  0  0  0  0  0  0  0  0  0
   26.8049  -20.7306  -12.4588 C   0  0  1  0  0  0  0  0  0  0  0  0
   28.1749  -20.3733  -12.9421 C   0  0  0  0  0  0  0  0  0  0  0  0
   29.1673  -20.8800  -11.9668 C   0  0  0  0  0  0  0  0  0  0  0  0
   29.6944  -20.1233  -10.9429 C   0  0  0  0  0  0  0  0  0  0  0  0
   30.6272  -20.6590  -10.0557 C   0  0  0  0  0  0  0  0  0  0  0  0
   31.0320  -21.9719  -10.2037 C   0  0  0  0  0  0  0  0  0  0  0  0
   30.5180  -22.7424  -11.2181 C   0  0  0  0  0  0  0  0  0  0  0  0
   29.5949  -22.1832  -12.0818 C   0  0  0  0  0  0  0  0  0  0  0  0
   26.5030  -20.3190  -11.0784 C   0  0  0  0  0  0  0  0  0  0  0  0
   26.1479  -19.1372  -10.8709 O   0  0  0  0  0  0  0  0  0  0  0  0
   26.5871  -21.1759   -9.9585 N   0  0  0  0  0  0  0  0  0  0  0  0
   26.4556  -20.7316   -8.5810 C   0  0  1  0  0  0  0  0  0  0  0  0
   26.7734  -21.8066   -7.5997 C   0  0  0  0  0  0  0  0  0  0  0  0
   26.8540  -21.2260   -6.2402 C   0  0  0  0  0  0  0  0  0  0  0  0
   25.7873  -20.9530   -5.3861 C   0  0  0  0  0  0  0  0  0  0  0  0
   26.3039  -20.4288   -4.2695 N   0  0  0  0  0  0  0  0  0  0  0  0
   27.6459  -20.3516   -4.3636 C   0  0  0  0  0  0  0  0  0  0  0  0
   28.6232  -19.8914   -3.4908 C   0  0  0  0  0  0  0  0  0  0  0  0
   29.9452  -19.9398   -3.8746 C   0  0  0  0  0  0  0  0  0  0  0  0
   30.3423  -20.4292   -5.0971 C   0  0  0  0  0  0  0  0  0  0  0  0
   29.3627  -20.8888   -5.9678 C   0  0  0  0  0  0  0  0  0  0  0  0
   28.0301  -20.8448   -5.5918 C   0  0  0  0  0  0  0  0  0  0  0  0
   27.3603  -19.5837   -8.3663 C   0  0  0  0  0  0  0  0  0  0  0  0
   28.5698  -19.6639   -8.6936 O   0  0  0  0  0  0  0  0  0  0  0  0
   26.9238  -18.3999   -7.8098 O   0  0  0  0  0  0  0  0  0  0  0  0
  2  3  2  0
  2  1  1  0
  4  3  1  0
  5  4  2  0
  6  5  1  0
  6  7  1  0
  7  8  1  6
  9  7  1  0
  9 10  2  0
 11  5  1  0
 11 12  2  0
 12  2  1  0
 13  9  1  0
 14 13  1  0
 14 15  1  6
 16 15  1  0
 16 17  2  0
 18 17  1  0
 19 18  2  0
 20 21  2  0
 20 19  1  0
 21 16  1  0
 22 14  1  0
 23 22  2  0
 24 22  1  0
 25 24  1  0
 25 26  1  1
 26 27  1  0
 27 35  1  0
 28 27  2  0
 28 29  1  0
 29 30  1  0
 30 31  1  0
 31 32  2  0
 33 32  1  0
 34 33  2  0
 35 30  2  0
 35 34  1  0
 36 25  1  0
 37 36  2  0
 38 36  1  0
M  END
$$$$
