MWF.pdb
     RDKit          3D

 34 36  0  0  1  0  0  0  0  0999 V2000
   33.0166  -22.8437  -17.3608 C   0  0  0  0  0  0  0  0  0  0  0  0
   31.8862  -23.6780  -18.4786 S   0  0  0  0  0  0  0  0  0  0  0  0
   30.5440  -24.4273  -17.4939 C   0  0  0  0  0  0  0  0  0  0  0  0
   29.8801  -23.2775  -16.7455 C   0  0  0  0  0  0  0  0  0  0  0  0
   28.6579  -22.8200  -17.4981 C   0  0  2  0  0  0  0  0  0  0  0  0
   28.9671  -22.0385  -18.6533 N   0  0  0  0  0  0  0  0  0  0  0  0
   27.8050  -22.0428  -16.5678 C   0  0  0  0  0  0  0  0  0  0  0  0
   28.2596  -20.9738  -16.0669 O   0  0  0  0  0  0  0  0  0  0  0  0
   26.4961  -22.3964  -16.1789 N   0  0  0  0  0  0  0  0  0  0  0  0
   25.7076  -21.5687  -15.2883 C   0  0  1  0  0  0  0  0  0  0  0  0
   24.2735  -21.5260  -15.6935 C   0  0  0  0  0  0  0  0  0  0  0  0
   23.3769  -20.7276  -14.8655 C   0  0  0  0  0  0  0  0  0  0  0  0
   23.5295  -19.3526  -14.5691 C   0  0  0  0  0  0  0  0  0  0  0  0
   22.5224  -18.9211  -13.8217 N   0  0  0  0  0  0  0  0  0  0  0  0
   21.7118  -19.9592  -13.6133 C   0  0  0  0  0  0  0  0  0  0  0  0
   20.5336  -20.0822  -12.9080 C   0  0  0  0  0  0  0  0  0  0  0  0
   19.8593  -21.2794  -12.8187 C   0  0  0  0  0  0  0  0  0  0  0  0
   20.3632  -22.4110  -13.4506 C   0  0  0  0  0  0  0  0  0  0  0  0
   21.5326  -22.2766  -14.1475 C   0  0  0  0  0  0  0  0  0  0  0  0
   22.2143  -21.0828  -14.2436 C   0  0  0  0  0  0  0  0  0  0  0  0
   25.9362  -21.9133  -13.8938 C   0  0  0  0  0  0  0  0  0  0  0  0
   26.0746  -23.1108  -13.5413 O   0  0  0  0  0  0  0  0  0  0  0  0
   26.0201  -20.9172  -12.8846 N   0  0  0  0  0  0  0  0  0  0  0  0
   26.1966  -21.2012  -11.4728 C   0  0  1  0  0  0  0  0  0  0  0  0
   26.9405  -19.9870  -10.9095 C   0  0  0  0  0  0  0  0  0  0  0  0
   27.1699  -20.0607   -9.4663 C   0  0  0  0  0  0  0  0  0  0  0  0
   28.3300  -20.6483   -9.0035 C   0  0  0  0  0  0  0  0  0  0  0  0
   28.6234  -20.7553   -7.6754 C   0  0  0  0  0  0  0  0  0  0  0  0
   27.7191  -20.2535   -6.7561 C   0  0  0  0  0  0  0  0  0  0  0  0
   26.5519  -19.6624   -7.2238 C   0  0  0  0  0  0  0  0  0  0  0  0
   26.2653  -19.5593   -8.5657 C   0  0  0  0  0  0  0  0  0  0  0  0
   24.8745  -21.3484  -10.8446 C   0  0  0  0  0  0  0  0  0  0  0  0
   24.5911  -22.1379   -9.9135 O   0  0  0  0  0  0  0  0  0  0  0  0
   23.8154  -20.5476  -11.3056 O   0  0  0  0  0  0  0  0  0  0  0  0
  1  2  1  0
  3  2  1  0
  4  3  1  0
  5  4  1  0
  5  6  1  6
  7  8  2  0
  7  5  1  0
  9  7  1  0
 10  9  1  0
 10 11  1  6
 11 12  1  0
 12 20  1  0
 12 13  2  0
 13 14  1  0
 15 16  2  0
 15 14  1  0
 17 16  1  0
 18 17  2  0
 19 18  1  0
 19 20  2  0
 20 15  1  0
 21 10  1  0
 22 21  2  0
 23 21  1  0
 24 23  1  0
 24 25  1  1
 25 26  1  0
 26 31  1  0
 27 26  2  0
 27 28  1  0
 28 29  2  0
 29 30  1  0
 31 30  2  0
 32 34  1  0
 32 24  1  0
 33 32  2  0
M  END
$$$$
