MWF.pdb
     RDKit          3D

 34 36  0  0  1  0  0  0  0  0999 V2000
   28.0925  -19.3650  -22.8540 C   0  0  0  0  0  0  0  0  0  0  0  0
   27.3779  -20.3249  -21.5155 S   0  0  0  0  0  0  0  0  0  0  0  0
   28.4091  -20.1008  -20.0260 C   0  0  0  0  0  0  0  0  0  0  0  0
   27.8916  -21.1041  -19.0021 C   0  0  0  0  0  0  0  0  0  0  0  0
   28.9469  -21.3530  -17.9563 C   0  0  2  0  0  0  0  0  0  0  0  0
   29.7718  -22.4830  -18.2458 N   0  0  0  0  0  0  0  0  0  0  0  0
   28.2709  -21.5343  -16.6499 C   0  0  0  0  0  0  0  0  0  0  0  0
   27.9571  -22.7022  -16.2784 O   0  0  0  0  0  0  0  0  0  0  0  0
   27.9358  -20.4943  -15.7579 N   0  0  0  0  0  0  0  0  0  0  0  0
   27.2569  -20.7457  -14.5025 C   0  0  1  0  0  0  0  0  0  0  0  0
   27.7481  -19.8505  -13.4162 C   0  0  0  0  0  0  0  0  0  0  0  0
   27.2568  -20.1161  -12.0690 C   0  0  0  0  0  0  0  0  0  0  0  0
   25.9590  -19.8215  -11.5887 C   0  0  0  0  0  0  0  0  0  0  0  0
   25.8232  -20.2239  -10.3323 N   0  0  0  0  0  0  0  0  0  0  0  0
   26.9821  -20.7719   -9.9653 C   0  0  0  0  0  0  0  0  0  0  0  0
   27.3998  -21.3391   -8.7801 C   0  0  0  0  0  0  0  0  0  0  0  0
   28.6714  -21.8429   -8.6217 C   0  0  0  0  0  0  0  0  0  0  0  0
   29.5779  -21.7886   -9.6747 C   0  0  0  0  0  0  0  0  0  0  0  0
   29.1521  -21.2240  -10.8455 C   0  0  0  0  0  0  0  0  0  0  0  0
   27.8814  -20.7179  -11.0144 C   0  0  0  0  0  0  0  0  0  0  0  0
   25.8121  -20.7648  -14.6690 C   0  0  0  0  0  0  0  0  0  0  0  0
   25.2278  -19.8653  -15.3223 O   0  0  0  0  0  0  0  0  0  0  0  0
   25.0118  -21.7975  -14.1117 N   0  0  0  0  0  0  0  0  0  0  0  0
   23.5655  -21.8512  -14.2126 C   0  0  1  0  0  0  0  0  0  0  0  0
   23.2220  -23.3427  -14.2627 C   0  0  0  0  0  0  0  0  0  0  0  0
   21.7838  -23.6101  -14.2901 C   0  0  0  0  0  0  0  0  0  0  0  0
   21.1127  -23.5321  -15.4938 C   0  0  0  0  0  0  0  0  0  0  0  0
   19.7741  -23.7691  -15.6085 C   0  0  0  0  0  0  0  0  0  0  0  0
   19.0615  -24.1010  -14.4698 C   0  0  0  0  0  0  0  0  0  0  0  0
   19.7386  -24.1790  -13.2590 C   0  0  0  0  0  0  0  0  0  0  0  0
   21.0894  -23.9382  -13.1539 C   0  0  0  0  0  0  0  0  0  0  0  0
   22.9781  -21.2139  -13.0238 C   0  0  0  0  0  0  0  0  0  0  0  0
   23.4063  -21.3193  -11.8507 O   0  0  0  0  0  0  0  0  0  0  0  0
   21.8368  -20.4095  -13.1839 O   0  0  0  0  0  0  0  0  0  0  0  0
  1  2  1  0
  3  2  1  0
  4  3  1  0
  5  4  1  0
  5  6  1  6
  7  8  2  0
  7  5  1  0
  9  7  1  0
 10  9  1  0
 10 11  1  1
 11 12  1  0
 12 20  1  0
 12 13  2  0
 13 14  1  0
 15 16  2  0
 15 14  1  0
 17 16  1  0
 18 17  2  0
 19 18  1  0
 19 20  2  0
 20 15  1  0
 21 10  1  0
 22 21  2  0
 23 21  1  0
 24 23  1  0
 24 25  1  1
 25 26  1  0
 26 31  1  0
 27 26  2  0
 27 28  1  0
 28 29  2  0
 29 30  1  0
 31 30  2  0
 32 34  1  0
 32 24  1  0
 33 32  2  0
M  END
$$$$
