MWF.pdb
     RDKit          3D

 34 36  0  0  1  0  0  0  0  0999 V2000
   20.6716  -18.5519  -21.1414 C   0  0  0  0  0  0  0  0  0  0  0  0
   21.5482  -19.9475  -20.4289 S   0  0  0  0  0  0  0  0  0  0  0  0
   23.2842  -19.4590  -20.1461 C   0  0  0  0  0  0  0  0  0  0  0  0
   23.2351  -18.0492  -19.5691 C   0  0  0  0  0  0  0  0  0  0  0  0
   24.6290  -17.4833  -19.4913 C   0  0  2  0  0  0  0  0  0  0  0  0
   25.4888  -18.2207  -18.6206 N   0  0  0  0  0  0  0  0  0  0  0  0
   24.5326  -16.0741  -19.0423 C   0  0  0  0  0  0  0  0  0  0  0  0
   24.4493  -15.8293  -17.8039 O   0  0  0  0  0  0  0  0  0  0  0  0
   24.5246  -14.9495  -19.8935 N   0  0  0  0  0  0  0  0  0  0  0  0
   24.4935  -13.5950  -19.3793 C   0  0  1  0  0  0  0  0  0  0  0  0
   25.7150  -12.8287  -19.7580 C   0  0  0  0  0  0  0  0  0  0  0  0
   26.9763  -13.2635  -19.1690 C   0  0  0  0  0  0  0  0  0  0  0  0
   28.1404  -13.6305  -19.8844 C   0  0  0  0  0  0  0  0  0  0  0  0
   29.1240  -13.9389  -19.0500 N   0  0  0  0  0  0  0  0  0  0  0  0
   28.6528  -13.7902  -17.8115 C   0  0  0  0  0  0  0  0  0  0  0  0
   29.2329  -13.9795  -16.5751 C   0  0  0  0  0  0  0  0  0  0  0  0
   28.5386  -13.7698  -15.4047 C   0  0  0  0  0  0  0  0  0  0  0  0
   27.2121  -13.3548  -15.4469 C   0  0  0  0  0  0  0  0  0  0  0  0
   26.6476  -13.1702  -16.6790 C   0  0  0  0  0  0  0  0  0  0  0  0
   27.3341  -13.3762  -17.8561 C   0  0  0  0  0  0  0  0  0  0  0  0
   23.2375  -12.9317  -19.6921 C   0  0  0  0  0  0  0  0  0  0  0  0
   22.6567  -13.1368  -20.7867 O   0  0  0  0  0  0  0  0  0  0  0  0
   22.6179  -12.0399  -18.7764 N   0  0  0  0  0  0  0  0  0  0  0  0
   21.3842  -11.3249  -19.0442 C   0  0  1  0  0  0  0  0  0  0  0  0
   20.4135  -11.7760  -17.9491 C   0  0  0  0  0  0  0  0  0  0  0  0
   19.8041  -13.0803  -18.2100 C   0  0  0  0  0  0  0  0  0  0  0  0
   18.6539  -13.1399  -18.9708 C   0  0  0  0  0  0  0  0  0  0  0  0
   18.0237  -14.3140  -19.2639 C   0  0  0  0  0  0  0  0  0  0  0  0
   18.5614  -15.4924  -18.7773 C   0  0  0  0  0  0  0  0  0  0  0  0
   19.7192  -15.4305  -18.0116 C   0  0  0  0  0  0  0  0  0  0  0  0
   20.3474  -14.2410  -17.7217 C   0  0  0  0  0  0  0  0  0  0  0  0
   21.6404   -9.8787  -18.9596 C   0  0  0  0  0  0  0  0  0  0  0  0
   22.7179   -9.3464  -18.6039 O   0  0  0  0  0  0  0  0  0  0  0  0
   20.6073   -8.9893  -19.3015 O   0  0  0  0  0  0  0  0  0  0  0  0
  1  2  1  0
  3  2  1  0
  4  3  1  0
  5  4  1  0
  5  6  1  1
  7  8  2  0
  7  5  1  0
  9  7  1  0
 10  9  1  0
 10 11  1  6
 11 12  1  0
 12 20  1  0
 12 13  2  0
 13 14  1  0
 15 16  2  0
 15 14  1  0
 17 16  1  0
 18 17  2  0
 19 18  1  0
 19 20  2  0
 20 15  1  0
 21 10  1  0
 22 21  2  0
 23 21  1  0
 24 23  1  0
 24 25  1  1
 25 26  1  0
 26 31  1  0
 27 26  2  0
 27 28  1  0
 28 29  2  0
 29 30  1  0
 31 30  2  0
 32 34  1  0
 32 24  1  0
 33 32  2  0
M  END
$$$$
