MWF.pdb
     RDKit          3D

 34 36  0  0  1  0  0  0  0  0999 V2000
   27.2326  -21.3698   -9.1322 C   0  0  0  0  0  0  0  0  0  0  0  0
   28.6174  -22.1920   -9.9258 S   0  0  0  0  0  0  0  0  0  0  0  0
   28.9057  -21.4069  -11.5485 C   0  0  0  0  0  0  0  0  0  0  0  0
   27.5283  -21.0402  -12.0882 C   0  0  0  0  0  0  0  0  0  0  0  0
   27.6588  -20.4981  -13.4876 C   0  0  2  0  0  0  0  0  0  0  0  0
   28.5173  -19.3593  -13.5730 N   0  0  0  0  0  0  0  0  0  0  0  0
   26.3035  -20.1553  -13.9799 C   0  0  0  0  0  0  0  0  0  0  0  0
   25.7282  -19.1245  -13.5250 O   0  0  0  0  0  0  0  0  0  0  0  0
   25.5760  -20.8943  -14.9360 N   0  0  0  0  0  0  0  0  0  0  0  0
   24.2559  -20.4920  -15.3781 C   0  0  1  0  0  0  0  0  0  0  0  0
   24.1344  -20.5220  -16.8637 C   0  0  0  0  0  0  0  0  0  0  0  0
   22.8632  -20.0873  -17.4311 C   0  0  0  0  0  0  0  0  0  0  0  0
   22.5229  -18.7582  -17.7767 C   0  0  0  0  0  0  0  0  0  0  0  0
   21.3066  -18.7090  -18.3032 N   0  0  0  0  0  0  0  0  0  0  0  0
   20.8313  -19.9548  -18.3172 C   0  0  0  0  0  0  0  0  0  0  0  0
   19.6290  -20.4784  -18.7427 C   0  0  0  0  0  0  0  0  0  0  0  0
   19.3462  -21.8228  -18.6502 C   0  0  0  0  0  0  0  0  0  0  0  0
   20.2862  -22.6968  -18.1150 C   0  0  0  0  0  0  0  0  0  0  0  0
   21.4752  -22.1657  -17.6966 C   0  0  0  0  0  0  0  0  0  0  0  0
   21.7683  -20.8221  -17.7858 C   0  0  0  0  0  0  0  0  0  0  0  0
   23.2104  -21.2110  -14.6671 C   0  0  0  0  0  0  0  0  0  0  0  0
   23.3564  -22.4198  -14.3587 O   0  0  0  0  0  0  0  0  0  0  0  0
   21.9965  -20.5781  -14.2885 N   0  0  0  0  0  0  0  0  0  0  0  0
   20.9564  -21.2153  -13.5029 C   0  0  1  0  0  0  0  0  0  0  0  0
   20.8624  -20.3895  -12.2168 C   0  0  0  0  0  0  0  0  0  0  0  0
   20.2954  -19.0559  -12.4193 C   0  0  0  0  0  0  0  0  0  0  0  0
   21.1297  -18.0275  -12.8089 C   0  0  0  0  0  0  0  0  0  0  0  0
   20.6829  -16.7562  -13.0224 C   0  0  0  0  0  0  0  0  0  0  0  0
   19.3375  -16.4889  -12.8400 C   0  0  0  0  0  0  0  0  0  0  0  0
   18.4993  -17.5253  -12.4476 C   0  0  0  0  0  0  0  0  0  0  0  0
   18.9599  -18.8044  -12.2350 C   0  0  0  0  0  0  0  0  0  0  0  0
   19.6921  -21.1686  -14.2539 C   0  0  0  0  0  0  0  0  0  0  0  0
   18.7021  -21.9137  -14.0662 O   0  0  0  0  0  0  0  0  0  0  0  0
   19.5501  -20.2158  -15.2774 O   0  0  0  0  0  0  0  0  0  0  0  0
  1  2  1  0
  3  2  1  0
  4  3  1  0
  5  4  1  0
  5  6  1  1
  7  8  2  0
  7  5  1  0
  9  7  1  0
 10  9  1  0
 10 11  1  6
 11 12  1  0
 12 20  1  0
 12 13  2  0
 13 14  1  0
 15 16  2  0
 15 14  1  0
 17 16  1  0
 18 17  2  0
 19 18  1  0
 19 20  2  0
 20 15  1  0
 21 10  1  0
 22 21  2  0
 23 21  1  0
 24 23  1  0
 24 25  1  1
 25 26  1  0
 26 31  1  0
 27 26  2  0
 27 28  1  0
 28 29  2  0
 29 30  1  0
 31 30  2  0
 32 34  1  0
 32 24  1  0
 33 32  2  0
M  END
$$$$
