MWF.pdb
     RDKit          3D

 34 36  0  0  1  0  0  0  0  0999 V2000
   26.3246  -19.9633  -18.0065 C   0  0  0  0  0  0  0  0  0  0  0  0
   27.2071  -21.4540  -18.4782 S   0  0  0  0  0  0  0  0  0  0  0  0
   28.3641  -21.8925  -17.1359 C   0  0  0  0  0  0  0  0  0  0  0  0
   27.5512  -21.8420  -15.8477 C   0  0  0  0  0  0  0  0  0  0  0  0
   28.3722  -21.2116  -14.7533 C   0  0  2  0  0  0  0  0  0  0  0  0
   29.6611  -21.8087  -14.6005 N   0  0  0  0  0  0  0  0  0  0  0  0
   27.6092  -21.3102  -13.4864 C   0  0  0  0  0  0  0  0  0  0  0  0
   26.3566  -21.4795  -13.5364 O   0  0  0  0  0  0  0  0  0  0  0  0
   28.1680  -21.2299  -12.1938 N   0  0  0  0  0  0  0  0  0  0  0  0
   27.3462  -21.1930  -11.0008 C   0  0  1  0  0  0  0  0  0  0  0  0
   28.1447  -20.8624   -9.7860 C   0  0  0  0  0  0  0  0  0  0  0  0
   27.4032  -20.6262   -8.5526 C   0  0  0  0  0  0  0  0  0  0  0  0
   26.0162  -20.8358   -8.3681 C   0  0  0  0  0  0  0  0  0  0  0  0
   25.6642  -20.5614   -7.1192 N   0  0  0  0  0  0  0  0  0  0  0  0
   26.7658  -20.1781   -6.4732 C   0  0  0  0  0  0  0  0  0  0  0  0
   26.9788  -19.7753   -5.1719 C   0  0  0  0  0  0  0  0  0  0  0  0
   28.2257  -19.4079   -4.7177 C   0  0  0  0  0  0  0  0  0  0  0  0
   29.3167  -19.4361   -5.5793 C   0  0  0  0  0  0  0  0  0  0  0  0
   29.0932  -19.8376   -6.8677 C   0  0  0  0  0  0  0  0  0  0  0  0
   27.8495  -20.2083   -7.3317 C   0  0  0  0  0  0  0  0  0  0  0  0
   26.1606  -20.3726  -11.1919 C   0  0  0  0  0  0  0  0  0  0  0  0
   26.2580  -19.1340  -11.3759 O   0  0  0  0  0  0  0  0  0  0  0  0
   24.8565  -20.9356  -11.1871 N   0  0  0  0  0  0  0  0  0  0  0  0
   23.6548  -20.2100  -11.5538 C   0  0  1  0  0  0  0  0  0  0  0  0
   23.8312  -19.8649  -13.0353 C   0  0  0  0  0  0  0  0  0  0  0  0
   22.6641  -19.2083  -13.6248 C   0  0  0  0  0  0  0  0  0  0  0  0
   21.6357  -19.9878  -14.1148 C   0  0  0  0  0  0  0  0  0  0  0  0
   20.5115  -19.4571  -14.6770 C   0  0  0  0  0  0  0  0  0  0  0  0
   20.3998  -18.0803  -14.7584 C   0  0  0  0  0  0  0  0  0  0  0  0
   21.4360  -17.2972  -14.2647 C   0  0  0  0  0  0  0  0  0  0  0  0
   22.5659  -17.8424  -13.6993 C   0  0  0  0  0  0  0  0  0  0  0  0
   22.4875  -21.0821  -11.3502 C   0  0  0  0  0  0  0  0  0  0  0  0
   22.4250  -22.2998  -11.6400 O   0  0  0  0  0  0  0  0  0  0  0  0
   21.3253  -20.5322  -10.7825 O   0  0  0  0  0  0  0  0  0  0  0  0
  1  2  1  0
  3  2  1  0
  4  3  1  0
  5  4  1  0
  5  6  1  1
  7  8  2  0
  7  5  1  0
  9  7  1  0
 10  9  1  0
 10 11  1  1
 11 12  1  0
 12 20  1  0
 12 13  2  0
 13 14  1  0
 15 16  2  0
 15 14  1  0
 17 16  1  0
 18 17  2  0
 19 18  1  0
 19 20  2  0
 20 15  1  0
 21 10  1  0
 22 21  2  0
 23 21  1  0
 24 23  1  0
 24 25  1  6
 25 26  1  0
 26 31  1  0
 27 26  2  0
 27 28  1  0
 28 29  2  0
 29 30  1  0
 31 30  2  0
 32 34  1  0
 32 24  1  0
 33 32  2  0
M  END
$$$$
