MWF.pdb
     RDKit          3D

 34 36  0  0  1  0  0  0  0  0999 V2000
   28.7571  -18.4788  -19.4519 C   0  0  0  0  0  0  0  0  0  0  0  0
   28.9343  -19.9688  -20.4379 S   0  0  0  0  0  0  0  0  0  0  0  0
   29.2543  -21.3726  -19.3156 C   0  0  0  0  0  0  0  0  0  0  0  0
   29.1878  -20.8043  -17.9029 C   0  0  0  0  0  0  0  0  0  0  0  0
   28.2210  -21.6109  -17.0759 C   0  0  2  0  0  0  0  0  0  0  0  0
   26.9085  -21.6660  -17.6374 N   0  0  0  0  0  0  0  0  0  0  0  0
   28.1716  -21.0229  -15.7163 C   0  0  0  0  0  0  0  0  0  0  0  0
   29.2427  -20.9273  -15.0500 O   0  0  0  0  0  0  0  0  0  0  0  0
   27.0065  -20.5469  -15.0795 N   0  0  0  0  0  0  0  0  0  0  0  0
   27.0486  -19.8902  -13.7884 C   0  0  1  0  0  0  0  0  0  0  0  0
   26.2241  -18.6482  -13.7696 C   0  0  0  0  0  0  0  0  0  0  0  0
   24.7997  -18.7970  -14.0450 C   0  0  0  0  0  0  0  0  0  0  0  0
   23.8503  -19.4021  -13.1882 C   0  0  0  0  0  0  0  0  0  0  0  0
   22.6363  -19.3412  -13.7188 N   0  0  0  0  0  0  0  0  0  0  0  0
   22.7489  -18.7197  -14.8931 C   0  0  0  0  0  0  0  0  0  0  0  0
   21.8189  -18.3955  -15.8579 C   0  0  0  0  0  0  0  0  0  0  0  0
   22.1710  -17.7480  -17.0210 C   0  0  0  0  0  0  0  0  0  0  0  0
   23.4979  -17.4014  -17.2506 C   0  0  0  0  0  0  0  0  0  0  0  0
   24.4114  -17.7281  -16.2863 C   0  0  0  0  0  0  0  0  0  0  0  0
   24.0690  -18.3749  -15.1185 C   0  0  0  0  0  0  0  0  0  0  0  0
   26.7728  -20.8203  -12.7048 C   0  0  0  0  0  0  0  0  0  0  0  0
   26.1315  -21.8798  -12.9138 O   0  0  0  0  0  0  0  0  0  0  0  0
   27.2215  -20.5744  -11.3797 N   0  0  0  0  0  0  0  0  0  0  0  0
   26.8923  -21.4097  -10.2401 C   0  0  1  0  0  0  0  0  0  0  0  0
   28.1671  -21.4528   -9.3929 C   0  0  0  0  0  0  0  0  0  0  0  0
   28.1815  -20.4699   -8.3091 C   0  0  0  0  0  0  0  0  0  0  0  0
   29.2689  -20.4279   -7.4599 C   0  0  0  0  0  0  0  0  0  0  0  0
   29.3640  -19.5415   -6.4271 C   0  0  0  0  0  0  0  0  0  0  0  0
   28.3264  -18.6488   -6.2242 C   0  0  0  0  0  0  0  0  0  0  0  0
   27.2326  -18.6927   -7.0800 C   0  0  0  0  0  0  0  0  0  0  0  0
   27.1463  -19.5907   -8.1191 C   0  0  0  0  0  0  0  0  0  0  0  0
   25.7845  -20.7904   -9.4960 C   0  0  0  0  0  0  0  0  0  0  0  0
   25.1127  -21.3406   -8.5923 O   0  0  0  0  0  0  0  0  0  0  0  0
   25.4237  -19.4666   -9.8009 O   0  0  0  0  0  0  0  0  0  0  0  0
  1  2  1  0
  3  2  1  0
  4  3  1  0
  5  4  1  0
  5  6  1  6
  7  8  2  0
  7  5  1  0
  9  7  1  0
 10  9  1  0
 10 11  1  6
 11 12  1  0
 12 20  1  0
 12 13  2  0
 13 14  1  0
 15 16  2  0
 15 14  1  0
 17 16  1  0
 18 17  2  0
 19 18  1  0
 19 20  2  0
 20 15  1  0
 21 10  1  0
 22 21  2  0
 23 21  1  0
 24 23  1  0
 24 25  1  1
 25 26  1  0
 26 31  1  0
 27 26  2  0
 27 28  1  0
 28 29  2  0
 29 30  1  0
 31 30  2  0
 32 34  1  0
 32 24  1  0
 33 32  2  0
M  END
$$$$
