MWF.pdb
     RDKit          3D

 34 36  0  0  1  0  0  0  0  0999 V2000
   28.1052  -20.5326   -7.9166 C   0  0  0  0  0  0  0  0  0  0  0  0
   29.4348  -21.7101   -8.1805 S   0  0  0  0  0  0  0  0  0  0  0  0
   29.9143  -21.6586   -9.9412 C   0  0  0  0  0  0  0  0  0  0  0  0
   28.6806  -21.1817  -10.6986 C   0  0  0  0  0  0  0  0  0  0  0  0
   28.9598  -21.1872  -12.1789 C   0  0  2  0  0  0  0  0  0  0  0  0
   30.1268  -20.4439  -12.5351 N   0  0  0  0  0  0  0  0  0  0  0  0
   27.7720  -20.6399  -12.8764 C   0  0  0  0  0  0  0  0  0  0  0  0
   27.4255  -19.4442  -12.6516 O   0  0  0  0  0  0  0  0  0  0  0  0
   26.9700  -21.3507  -13.7934 N   0  0  0  0  0  0  0  0  0  0  0  0
   25.7898  -20.7663  -14.3982 C   0  0  1  0  0  0  0  0  0  0  0  0
   25.7981  -20.9076  -15.8824 C   0  0  0  0  0  0  0  0  0  0  0  0
   24.7006  -20.2824  -16.6114 C   0  0  0  0  0  0  0  0  0  0  0  0
   24.4777  -18.8910  -16.7374 C   0  0  0  0  0  0  0  0  0  0  0  0
   23.4158  -18.6546  -17.4959 N   0  0  0  0  0  0  0  0  0  0  0  0
   22.9293  -19.8370  -17.8743 C   0  0  0  0  0  0  0  0  0  0  0  0
   21.8453  -20.1817  -18.6534 C   0  0  0  0  0  0  0  0  0  0  0  0
   21.5195  -21.4950  -18.9087 C   0  0  0  0  0  0  0  0  0  0  0  0
   22.2925  -22.5204  -18.3751 C   0  0  0  0  0  0  0  0  0  0  0  0
   23.3653  -22.1662  -17.6040 C   0  0  0  0  0  0  0  0  0  0  0  0
   23.7003  -20.8550  -17.3436 C   0  0  0  0  0  0  0  0  0  0  0  0
   24.5718  -21.2260  -13.7498 C   0  0  0  0  0  0  0  0  0  0  0  0
   24.4705  -22.4068  -13.3339 O   0  0  0  0  0  0  0  0  0  0  0  0
   23.4607  -20.3629  -13.5545 N   0  0  0  0  0  0  0  0  0  0  0  0
   22.2119  -20.7697  -12.9379 C   0  0  1  0  0  0  0  0  0  0  0  0
   22.0424  -19.8461  -11.7283 C   0  0  0  0  0  0  0  0  0  0  0  0
   22.7897  -20.2849  -10.5494 C   0  0  0  0  0  0  0  0  0  0  0  0
   22.1445  -21.0438   -9.5938 C   0  0  0  0  0  0  0  0  0  0  0  0
   22.7673  -21.4962   -8.4674 C   0  0  0  0  0  0  0  0  0  0  0  0
   24.1008  -21.1797   -8.2768 C   0  0  0  0  0  0  0  0  0  0  0  0
   24.7486  -20.4156   -9.2396 C   0  0  0  0  0  0  0  0  0  0  0  0
   24.1114  -19.9642  -10.3727 C   0  0  0  0  0  0  0  0  0  0  0  0
   21.1175  -20.5820  -13.9030 C   0  0  0  0  0  0  0  0  0  0  0  0
   21.1110  -19.7625  -14.8511 O   0  0  0  0  0  0  0  0  0  0  0  0
   19.9646  -21.3763  -13.7786 O   0  0  0  0  0  0  0  0  0  0  0  0
  1  2  1  0
  3  2  1  0
  4  3  1  0
  5  4  1  0
  5  6  1  1
  7  8  2  0
  7  5  1  0
  9  7  1  0
 10  9  1  0
 10 11  1  6
 11 12  1  0
 12 20  1  0
 12 13  2  0
 13 14  1  0
 15 16  2  0
 15 14  1  0
 17 16  1  0
 18 17  2  0
 19 18  1  0
 19 20  2  0
 20 15  1  0
 21 10  1  0
 22 21  2  0
 23 21  1  0
 24 23  1  0
 24 25  1  1
 25 26  1  0
 26 31  1  0
 27 26  2  0
 27 28  1  0
 28 29  2  0
 29 30  1  0
 31 30  2  0
 32 34  1  0
 32 24  1  0
 33 32  2  0
M  END
$$$$
