MWF.pdb
     RDKit          3D

 34 36  0  0  1  0  0  0  0  0999 V2000
   24.4133  -26.9568  -14.2407 C   0  0  0  0  0  0  0  0  0  0  0  0
   24.9076  -27.1162  -15.9593 S   0  0  0  0  0  0  0  0  0  0  0  0
   25.2564  -25.4504  -16.6196 C   0  0  0  0  0  0  0  0  0  0  0  0
   25.8391  -24.6523  -15.4592 C   0  0  0  0  0  0  0  0  0  0  0  0
   25.4749  -23.1983  -15.6092 C   0  0  2  0  0  0  0  0  0  0  0  0
   25.9302  -22.6270  -16.8370 N   0  0  0  0  0  0  0  0  0  0  0  0
   26.0433  -22.4572  -14.4583 C   0  0  0  0  0  0  0  0  0  0  0  0
   27.2752  -22.1695  -14.4619 O   0  0  0  0  0  0  0  0  0  0  0  0
   25.3156  -22.0318  -13.3273 N   0  0  0  0  0  0  0  0  0  0  0  0
   25.8027  -20.9897  -12.4459 C   0  0  1  0  0  0  0  0  0  0  0  0
   24.9821  -19.7490  -12.5459 C   0  0  0  0  0  0  0  0  0  0  0  0
   25.1755  -18.9233  -13.7323 C   0  0  0  0  0  0  0  0  0  0  0  0
   24.1480  -18.3942  -14.5484 C   0  0  0  0  0  0  0  0  0  0  0  0
   24.6596  -17.6561  -15.5243 N   0  0  0  0  0  0  0  0  0  0  0  0
   25.9854  -17.6788  -15.3835 C   0  0  0  0  0  0  0  0  0  0  0  0
   27.0005  -17.0980  -16.1137 C   0  0  0  0  0  0  0  0  0  0  0  0
   28.3261  -17.2692  -15.7829 C   0  0  0  0  0  0  0  0  0  0  0  0
   28.6746  -18.0469  -14.6841 C   0  0  0  0  0  0  0  0  0  0  0  0
   27.6590  -18.6177  -13.9673 C   0  0  0  0  0  0  0  0  0  0  0  0
   26.3294  -18.4516  -14.2895 C   0  0  0  0  0  0  0  0  0  0  0  0
   25.9993  -21.4820  -11.0915 C   0  0  0  0  0  0  0  0  0  0  0  0
   25.3413  -22.4614  -10.6610 O   0  0  0  0  0  0  0  0  0  0  0  0
   26.9417  -20.8857  -10.2118 N   0  0  0  0  0  0  0  0  0  0  0  0
   26.9628  -21.0964   -8.7765 C   0  0  1  0  0  0  0  0  0  0  0  0
   28.0705  -20.1781   -8.2525 C   0  0  0  0  0  0  0  0  0  0  0  0
   28.1633  -20.1493   -6.7926 C   0  0  0  0  0  0  0  0  0  0  0  0
   28.8011  -21.1871   -6.1433 C   0  0  0  0  0  0  0  0  0  0  0  0
   28.9344  -21.2371   -4.7864 C   0  0  0  0  0  0  0  0  0  0  0  0
   28.4077  -20.2037   -4.0318 C   0  0  0  0  0  0  0  0  0  0  0  0
   27.7659  -19.1600   -4.6872 C   0  0  0  0  0  0  0  0  0  0  0  0
   27.6368  -19.1189   -6.0565 C   0  0  0  0  0  0  0  0  0  0  0  0
   25.6554  -20.7187   -8.2175 C   0  0  0  0  0  0  0  0  0  0  0  0
   25.0888  -21.2705   -7.2452 O   0  0  0  0  0  0  0  0  0  0  0  0
   24.9552  -19.6492   -8.8017 O   0  0  0  0  0  0  0  0  0  0  0  0
  1  2  1  0
  3  2  1  0
  4  3  1  0
  5  4  1  0
  5  6  1  6
  7  8  2  0
  7  5  1  0
  9  7  1  0
 10  9  1  0
 10 11  1  1
 11 12  1  0
 12 20  1  0
 12 13  2  0
 13 14  1  0
 15 16  2  0
 15 14  1  0
 17 16  1  0
 18 17  2  0
 19 18  1  0
 19 20  2  0
 20 15  1  0
 21 10  1  0
 22 21  2  0
 23 21  1  0
 24 23  1  0
 24 25  1  1
 25 26  1  0
 26 31  1  0
 27 26  2  0
 27 28  1  0
 28 29  2  0
 29 30  1  0
 31 30  2  0
 32 34  1  0
 32 24  1  0
 33 32  2  0
M  END
$$$$
