MWF.pdb
     RDKit          3D

 34 36  0  0  1  0  0  0  0  0999 V2000
   24.9893  -35.8772  -17.8330 C   0  0  0  0  0  0  0  0  0  0  0  0
   24.2292  -34.7882  -16.6248 S   0  0  0  0  0  0  0  0  0  0  0  0
   25.2764  -34.7593  -15.1298 C   0  0  0  0  0  0  0  0  0  0  0  0
   24.5567  -33.8617  -14.1302 C   0  0  0  0  0  0  0  0  0  0  0  0
   24.7568  -32.4173  -14.5085 C   0  0  2  0  0  0  0  0  0  0  0  0
   26.1036  -31.9718  -14.3391 N   0  0  0  0  0  0  0  0  0  0  0  0
   23.8380  -31.5922  -13.6889 C   0  0  0  0  0  0  0  0  0  0  0  0
   24.2352  -31.1620  -12.5675 O   0  0  0  0  0  0  0  0  0  0  0  0
   22.5241  -31.2330  -14.0552 N   0  0  0  0  0  0  0  0  0  0  0  0
   21.6623  -30.4673  -13.1772 C   0  0  1  0  0  0  0  0  0  0  0  0
   20.6236  -29.7141  -13.9366 C   0  0  0  0  0  0  0  0  0  0  0  0
   20.8987  -28.3094  -14.2161 C   0  0  0  0  0  0  0  0  0  0  0  0
   21.5204  -27.8044  -15.3823 C   0  0  0  0  0  0  0  0  0  0  0  0
   21.5867  -26.4804  -15.3406 N   0  0  0  0  0  0  0  0  0  0  0  0
   21.0332  -26.0930  -14.1910 C   0  0  0  0  0  0  0  0  0  0  0  0
   20.8427  -24.8468  -13.6330 C   0  0  0  0  0  0  0  0  0  0  0  0
   20.2442  -24.6825  -12.4039 C   0  0  0  0  0  0  0  0  0  0  0  0
   19.8114  -25.7923  -11.6864 C   0  0  0  0  0  0  0  0  0  0  0  0
   20.0055  -27.0233  -12.2502 C   0  0  0  0  0  0  0  0  0  0  0  0
   20.6024  -27.1982  -13.4800 C   0  0  0  0  0  0  0  0  0  0  0  0
   21.1486  -31.2814  -12.0869 C   0  0  0  0  0  0  0  0  0  0  0  0
   20.8524  -32.4882  -12.2693 O   0  0  0  0  0  0  0  0  0  0  0  0
   20.9712  -30.7513  -10.7811 N   0  0  0  0  0  0  0  0  0  0  0  0
   20.4079  -31.4948   -9.6699 C   0  0  1  0  0  0  0  0  0  0  0  0
   21.3208  -31.1892   -8.4791 C   0  0  0  0  0  0  0  0  0  0  0  0
   22.6408  -31.8123   -8.5802 C   0  0  0  0  0  0  0  0  0  0  0  0
   22.7804  -33.1412   -8.2339 C   0  0  0  0  0  0  0  0  0  0  0  0
   23.9735  -33.7994   -8.3018 C   0  0  0  0  0  0  0  0  0  0  0  0
   25.0884  -33.1042   -8.7357 C   0  0  0  0  0  0  0  0  0  0  0  0
   24.9460  -31.7666   -9.0837 C   0  0  0  0  0  0  0  0  0  0  0  0
   23.7379  -31.1117   -9.0119 C   0  0  0  0  0  0  0  0  0  0  0  0
   19.0381  -31.0197   -9.4206 C   0  0  0  0  0  0  0  0  0  0  0  0
   18.4866  -30.0475   -9.9876 O   0  0  0  0  0  0  0  0  0  0  0  0
   18.2525  -31.6939   -8.4699 O   0  0  0  0  0  0  0  0  0  0  0  0
  1  2  1  0
  3  2  1  0
  4  3  1  0
  5  4  1  0
  5  6  1  1
  7  8  2  0
  7  5  1  0
  9  7  1  0
 10  9  1  0
 10 11  1  6
 11 12  1  0
 12 20  1  0
 12 13  2  0
 13 14  1  0
 15 16  2  0
 15 14  1  0
 17 16  1  0
 18 17  2  0
 19 18  1  0
 19 20  2  0
 20 15  1  0
 21 10  1  0
 22 21  2  0
 23 21  1  0
 24 23  1  0
 24 25  1  1
 25 26  1  0
 26 31  1  0
 27 26  2  0
 27 28  1  0
 28 29  2  0
 29 30  1  0
 31 30  2  0
 32 34  1  0
 32 24  1  0
 33 32  2  0
M  END
$$$$
