TGE.pdb
     RDKit          3D

 21 20  0  0  1  0  0  0  0  0999 V2000
    8.7912  -12.6029   20.6095 C   0  0  0  0  0  0  0  0  0  0  0  0
    7.7400  -13.5630   20.0915 C   0  0  1  0  0  0  0  0  0  0  0  0
    7.7262  -13.6607   18.7265 O   0  0  0  0  0  0  0  0  0  0  0  0
    7.8666  -14.9228   20.7293 C   0  0  2  0  0  0  0  0  0  0  0  0
    6.8097  -15.8068   20.2578 N   0  0  0  0  0  0  0  0  0  0  0  0
    7.7958  -14.9131   22.1961 C   0  0  0  0  0  0  0  0  0  0  0  0
    6.7157  -15.0443   22.8410 O   0  0  0  0  0  0  0  0  0  0  0  0
    8.9871  -14.7503   22.9503 N   0  0  0  0  0  0  0  0  0  0  0  0
    8.9583  -14.8542   24.3910 C   0  0  0  0  0  0  0  0  0  0  0  0
    9.3260  -16.1636   24.9282 C   0  0  0  0  0  0  0  0  0  0  0  0
    8.9494  -17.1865   24.2480 O   0  0  0  0  0  0  0  0  0  0  0  0
   10.0449  -16.3978   26.1111 N   0  0  0  0  0  0  0  0  0  0  0  0
   10.4201  -17.7748   26.5199 C   0  0  1  0  0  0  0  0  0  0  0  0
   11.7886  -18.0580   25.9691 C   0  0  0  0  0  0  0  0  0  0  0  0
   11.7572  -18.1762   24.4694 C   0  0  0  0  0  0  0  0  0  0  0  0
   13.1065  -18.5128   23.9292 C   0  0  0  0  0  0  0  0  0  0  0  0
   14.1416  -18.2729   24.5910 O   0  0  0  0  0  0  0  0  0  0  0  0
   10.3418  -17.8420   27.9963 C   0  0  0  0  0  0  0  0  0  0  0  0
   10.2184  -16.7424   28.6466 O   0  0  0  0  0  0  0  0  0  0  0  0
   13.2184  -19.0929   22.6912 O   0  0  0  0  0  0  0  0  0  0  0  0
   10.3877  -18.9935   28.7499 O   0  0  0  0  0  0  0  0  0  0  0  0
  2  1  1  6
  2  3  1  0
  4  2  1  0
  4  5  1  6
  6  4  1  0
  7  6  2  0
  8  6  1  0
  9 10  1  0
  9  8  1  0
 10 12  1  0
 11 10  2  0
 12 13  1  0
 13 18  1  0
 13 14  1  1
 15 14  1  0
 16 15  1  0
 17 16  2  0
 18 21  1  0
 19 18  2  0
 20 16  1  0
M  END
$$$$
