TGE.pdb
     RDKit          3D

 21 20  0  0  1  0  0  0  0  0999 V2000
    9.2520  -12.5395   18.1999 C   0  0  0  0  0  0  0  0  0  0  0  0
    9.2957  -13.7918   19.0513 C   0  0  1  0  0  0  0  0  0  0  0  0
   10.1426  -13.6860   20.1212 O   0  0  0  0  0  0  0  0  0  0  0  0
    7.9172  -14.2120   19.4930 C   0  0  2  0  0  0  0  0  0  0  0  0
    7.2287  -13.1024   20.1376 N   0  0  0  0  0  0  0  0  0  0  0  0
    7.9001  -15.3356   20.4385 C   0  0  0  0  0  0  0  0  0  0  0  0
    7.5504  -15.2208   21.6486 O   0  0  0  0  0  0  0  0  0  0  0  0
    8.2909  -16.6259   19.9948 N   0  0  0  0  0  0  0  0  0  0  0  0
    8.4750  -17.6991   20.9443 C   0  0  0  0  0  0  0  0  0  0  0  0
    9.7096  -17.6343   21.7253 C   0  0  0  0  0  0  0  0  0  0  0  0
   10.0630  -18.7138   22.3259 O   0  0  0  0  0  0  0  0  0  0  0  0
   10.5320  -16.5066   21.8763 N   0  0  0  0  0  0  0  0  0  0  0  0
   11.7872  -16.5739   22.6663 C   0  0  1  0  0  0  0  0  0  0  0  0
   12.7218  -15.5277   22.1292 C   0  0  0  0  0  0  0  0  0  0  0  0
   13.2425  -15.9102   20.7703 C   0  0  0  0  0  0  0  0  0  0  0  0
   14.2152  -14.8984   20.2641 C   0  0  0  0  0  0  0  0  0  0  0  0
   14.7169  -14.0483   21.0338 O   0  0  0  0  0  0  0  0  0  0  0  0
   11.4319  -16.3867   24.0908 C   0  0  0  0  0  0  0  0  0  0  0  0
   10.2817  -15.8889   24.3673 O   0  0  0  0  0  0  0  0  0  0  0  0
   14.5670  -14.8968   18.9382 O   0  0  0  0  0  0  0  0  0  0  0  0
   12.2326  -16.7039   25.1651 O   0  0  0  0  0  0  0  0  0  0  0  0
  2  1  1  1
  2  3  1  0
  4  2  1  0
  4  5  1  1
  6  4  1  0
  7  6  2  0
  8  6  1  0
  9 10  1  0
  9  8  1  0
 10 12  1  0
 11 10  2  0
 12 13  1  0
 13 18  1  0
 13 14  1  6
 15 14  1  0
 16 15  1  0
 17 16  2  0
 18 21  1  0
 19 18  2  0
 20 16  1  0
M  END
$$$$
