TGE.pdb
     RDKit          3D

 21 20  0  0  1  0  0  0  0  0999 V2000
    8.2166  -12.8122   18.8800 C   0  0  0  0  0  0  0  0  0  0  0  0
    8.2251  -13.9398   19.8918 C   0  0  1  0  0  0  0  0  0  0  0  0
    9.4498  -14.1337   20.4712 O   0  0  0  0  0  0  0  0  0  0  0  0
    7.1555  -13.7562   20.9377 C   0  0  2  0  0  0  0  0  0  0  0  0
    7.5124  -12.6760   21.8469 N   0  0  0  0  0  0  0  0  0  0  0  0
    6.9032  -14.9453   21.7617 C   0  0  0  0  0  0  0  0  0  0  0  0
    6.5573  -16.0633   21.2818 O   0  0  0  0  0  0  0  0  0  0  0  0
    7.0493  -14.8606   23.1710 N   0  0  0  0  0  0  0  0  0  0  0  0
    6.8530  -16.0300   23.9963 C   0  0  0  0  0  0  0  0  0  0  0  0
    8.0783  -16.7102   24.4137 C   0  0  0  0  0  0  0  0  0  0  0  0
    7.9296  -17.7684   25.1272 O   0  0  0  0  0  0  0  0  0  0  0  0
    9.3889  -16.3104   24.1080 N   0  0  0  0  0  0  0  0  0  0  0  0
   10.5541  -17.1469   24.4908 C   0  0  1  0  0  0  0  0  0  0  0  0
   11.7634  -16.5927   23.7930 C   0  0  0  0  0  0  0  0  0  0  0  0
   13.0110  -17.3287   24.2005 C   0  0  0  0  0  0  0  0  0  0  0  0
   14.2131  -16.7646   23.5204 C   0  0  0  0  0  0  0  0  0  0  0  0
   14.3702  -15.5272   23.4150 O   0  0  0  0  0  0  0  0  0  0  0  0
   10.6532  -17.1301   25.9674 C   0  0  0  0  0  0  0  0  0  0  0  0
   10.3338  -16.0504   26.5833 O   0  0  0  0  0  0  0  0  0  0  0  0
   15.1611  -17.6100   23.0025 O   0  0  0  0  0  0  0  0  0  0  0  0
   11.0610  -18.1830   26.7555 O   0  0  0  0  0  0  0  0  0  0  0  0
  2  1  1  6
  2  3  1  0
  4  2  1  0
  4  5  1  1
  6  4  1  0
  7  6  2  0
  8  6  1  0
  9 10  1  0
  9  8  1  0
 10 12  1  0
 11 10  2  0
 12 13  1  0
 13 18  1  0
 13 14  1  6
 15 14  1  0
 16 15  1  0
 17 16  2  0
 18 21  1  0
 19 18  2  0
 20 16  1  0
M  END
$$$$
