TGE.pdb
     RDKit          3D

 21 20  0  0  1  0  0  0  0  0999 V2000
    8.2057  -12.0130   20.0623 C   0  0  0  0  0  0  0  0  0  0  0  0
    8.5847  -13.4412   20.3966 C   0  0  1  0  0  0  0  0  0  0  0  0
    8.3218  -13.7775   21.6969 O   0  0  0  0  0  0  0  0  0  0  0  0
    7.9485  -14.4223   19.4455 C   0  0  2  0  0  0  0  0  0  0  0  0
    6.5064  -14.2249   19.3995 N   0  0  0  0  0  0  0  0  0  0  0  0
    8.1783  -15.8322   19.7860 C   0  0  0  0  0  0  0  0  0  0  0  0
    7.3227  -16.5536   20.3754 O   0  0  0  0  0  0  0  0  0  0  0  0
    9.4156  -16.4388   19.4457 N   0  0  0  0  0  0  0  0  0  0  0  0
    9.6837  -17.8083   19.8193 C   0  0  0  0  0  0  0  0  0  0  0  0
   10.0581  -18.0100   21.2184 C   0  0  0  0  0  0  0  0  0  0  0  0
   10.3558  -19.2116   21.5626 O   0  0  0  0  0  0  0  0  0  0  0  0
   10.1174  -17.0161   22.2081 N   0  0  0  0  0  0  0  0  0  0  0  0
   11.1487  -17.0578   23.2751 C   0  0  1  0  0  0  0  0  0  0  0  0
   12.4046  -16.4478   22.7207 C   0  0  0  0  0  0  0  0  0  0  0  0
   13.4895  -16.3964   23.7622 C   0  0  0  0  0  0  0  0  0  0  0  0
   14.8314  -16.2310   23.1315 C   0  0  0  0  0  0  0  0  0  0  0  0
   15.5575  -17.2231   22.8965 O   0  0  0  0  0  0  0  0  0  0  0  0
   10.6052  -16.3457   24.4532 C   0  0  0  0  0  0  0  0  0  0  0  0
    9.7209  -15.4366   24.2561 O   0  0  0  0  0  0  0  0  0  0  0  0
   15.2788  -14.9765   22.8032 O   0  0  0  0  0  0  0  0  0  0  0  0
   10.9641  -16.5726   25.7630 O   0  0  0  0  0  0  0  0  0  0  0  0
  2  1  1  6
  2  3  1  0
  4  2  1  0
  4  5  1  1
  6  4  1  0
  7  6  2  0
  8  6  1  0
  9 10  1  0
  9  8  1  0
 10 12  1  0
 11 10  2  0
 12 13  1  0
 13 18  1  0
 13 14  1  6
 15 14  1  0
 16 15  1  0
 17 16  2  0
 18 21  1  0
 19 18  2  0
 20 16  1  0
M  END
$$$$
