TGE.pdb
     RDKit          3D

 21 20  0  0  1  0  0  0  0  0999 V2000
    7.6490  -12.9128   18.0469 C   0  0  0  0  0  0  0  0  0  0  0  0
    8.1479  -13.9866   18.9920 C   0  0  1  0  0  0  0  0  0  0  0  0
    9.4526  -13.8105   19.3661 O   0  0  0  0  0  0  0  0  0  0  0  0
    7.2541  -14.1250   20.1976 C   0  0  2  0  0  0  0  0  0  0  0  0
    7.3300  -12.9308   21.0277 N   0  0  0  0  0  0  0  0  0  0  0  0
    7.5740  -15.2691   21.0610 C   0  0  0  0  0  0  0  0  0  0  0  0
    7.5105  -16.4716   20.6739 O   0  0  0  0  0  0  0  0  0  0  0  0
    7.9783  -15.0388   22.4019 N   0  0  0  0  0  0  0  0  0  0  0  0
    8.3830  -16.1426   23.2416 C   0  0  0  0  0  0  0  0  0  0  0  0
    9.7365  -16.0464   23.7868 C   0  0  0  0  0  0  0  0  0  0  0  0
   10.5652  -15.3141   23.1326 O   0  0  0  0  0  0  0  0  0  0  0  0
   10.2048  -16.6799   24.9487 N   0  0  0  0  0  0  0  0  0  0  0  0
   11.5686  -16.4123   25.4707 C   0  0  1  0  0  0  0  0  0  0  0  0
   11.4741  -16.3136   26.9666 C   0  0  0  0  0  0  0  0  0  0  0  0
   11.0326  -17.6191   27.5707 C   0  0  0  0  0  0  0  0  0  0  0  0
   10.9949  -17.5359   29.0598 C   0  0  0  0  0  0  0  0  0  0  0  0
   11.3528  -16.4940   29.6543 O   0  0  0  0  0  0  0  0  0  0  0  0
   12.4526  -17.5002   24.9958 C   0  0  0  0  0  0  0  0  0  0  0  0
   13.7176  -17.3725   25.1716 O   0  0  0  0  0  0  0  0  0  0  0  0
   10.5628  -18.6132   29.7907 O   0  0  0  0  0  0  0  0  0  0  0  0
   12.0377  -18.6569   24.3746 O   0  0  0  0  0  0  0  0  0  0  0  0
  2  1  1  1
  2  3  1  0
  4  2  1  0
  4  5  1  1
  6  4  1  0
  7  6  2  0
  8  6  1  0
  9 10  1  0
  9  8  1  0
 10 12  1  0
 11 10  2  0
 12 13  1  0
 13 18  1  0
 13 14  1  1
 15 14  1  0
 16 15  1  0
 17 16  2  0
 18 21  1  0
 19 18  2  0
 20 16  1  0
M  END
$$$$
