TGE.pdb
     RDKit          3D

 21 20  0  0  1  0  0  0  0  0999 V2000
    6.1818  -16.3561   18.4499 C   0  0  0  0  0  0  0  0  0  0  0  0
    7.1286  -16.2705   17.2704 C   0  0  1  0  0  0  0  0  0  0  0  0
    6.5745  -16.7185   16.1019 O   0  0  0  0  0  0  0  0  0  0  0  0
    7.6868  -14.8802   17.1055 C   0  0  2  0  0  0  0  0  0  0  0  0
    8.5409  -14.8107   15.9280 N   0  0  0  0  0  0  0  0  0  0  0  0
    8.4859  -14.4091   18.2439 C   0  0  0  0  0  0  0  0  0  0  0  0
    9.7068  -14.6982   18.4036 O   0  0  0  0  0  0  0  0  0  0  0  0
    7.8793  -13.5853   19.2279 N   0  0  0  0  0  0  0  0  0  0  0  0
    8.5846  -13.2660   20.4476 C   0  0  0  0  0  0  0  0  0  0  0  0
    8.6918  -14.3619   21.4099 C   0  0  0  0  0  0  0  0  0  0  0  0
    7.9579  -15.3925   21.1860 O   0  0  0  0  0  0  0  0  0  0  0  0
    9.5159  -14.3844   22.5462 N   0  0  0  0  0  0  0  0  0  0  0  0
    9.5720  -15.5770   23.4284 C   0  0  1  0  0  0  0  0  0  0  0  0
   11.0103  -15.8058   23.7965 C   0  0  0  0  0  0  0  0  0  0  0  0
   11.8294  -16.1695   22.5878 C   0  0  0  0  0  0  0  0  0  0  0  0
   13.2519  -16.4226   22.9599 C   0  0  0  0  0  0  0  0  0  0  0  0
   14.0288  -17.0049   22.1698 O   0  0  0  0  0  0  0  0  0  0  0  0
    8.6896  -15.3196   24.5884 C   0  0  0  0  0  0  0  0  0  0  0  0
    8.3417  -14.1074   24.8270 O   0  0  0  0  0  0  0  0  0  0  0  0
   13.7183  -16.0132   24.1832 O   0  0  0  0  0  0  0  0  0  0  0  0
    8.1969  -16.2753   25.4485 O   0  0  0  0  0  0  0  0  0  0  0  0
  2  1  1  1
  2  3  1  0
  4  2  1  0
  4  5  1  6
  6  4  1  0
  7  6  2  0
  8  6  1  0
  9 10  1  0
  9  8  1  0
 10 12  1  0
 11 10  2  0
 12 13  1  0
 13 18  1  0
 13 14  1  1
 15 14  1  0
 16 15  1  0
 17 16  2  0
 18 21  1  0
 19 18  2  0
 20 16  1  0
M  END
$$$$
