TGE.pdb
     RDKit          3D

 21 20  0  0  1  0  0  0  0  0999 V2000
    7.3335  -19.8615   19.3559 C   0  0  0  0  0  0  0  0  0  0  0  0
    8.0150  -19.4059   18.0819 C   0  0  1  0  0  0  0  0  0  0  0  0
    7.5419  -20.0367   16.9633 O   0  0  0  0  0  0  0  0  0  0  0  0
    7.9544  -17.9082   17.9240 C   0  0  2  0  0  0  0  0  0  0  0  0
    8.4208  -17.5163   16.6013 N   0  0  0  0  0  0  0  0  0  0  0  0
    8.7583  -17.1628   18.9012 C   0  0  0  0  0  0  0  0  0  0  0  0
   10.0144  -17.2744   18.9980 O   0  0  0  0  0  0  0  0  0  0  0  0
    8.1153  -16.2647   19.7926 N   0  0  0  0  0  0  0  0  0  0  0  0
    8.8723  -15.5934   20.8238 C   0  0  0  0  0  0  0  0  0  0  0  0
    9.4147  -16.4650   21.8651 C   0  0  0  0  0  0  0  0  0  0  0  0
    8.9765  -17.6726   21.8849 O   0  0  0  0  0  0  0  0  0  0  0  0
   10.3605  -16.1001   22.8363 N   0  0  0  0  0  0  0  0  0  0  0  0
   10.8525  -17.0831   23.8342 C   0  0  1  0  0  0  0  0  0  0  0  0
   12.3266  -17.2641   23.6089 C   0  0  0  0  0  0  0  0  0  0  0  0
   12.9713  -15.9774   23.1697 C   0  0  0  0  0  0  0  0  0  0  0  0
   14.4263  -16.1703   22.9019 C   0  0  0  0  0  0  0  0  0  0  0  0
   15.1163  -16.9299   23.6187 O   0  0  0  0  0  0  0  0  0  0  0  0
   10.5098  -16.5681   25.1787 C   0  0  0  0  0  0  0  0  0  0  0  0
   10.8452  -17.2702   26.1994 O   0  0  0  0  0  0  0  0  0  0  0  0
   15.0193  -15.5083   21.8570 O   0  0  0  0  0  0  0  0  0  0  0  0
    9.8557  -15.3853   25.4413 O   0  0  0  0  0  0  0  0  0  0  0  0
  2  1  1  1
  2  3  1  0
  4  2  1  0
  4  5  1  6
  6  4  1  0
  7  6  2  0
  8  6  1  0
  9 10  1  0
  9  8  1  0
 10 12  1  0
 11 10  2  0
 12 13  1  0
 13 18  1  0
 13 14  1  1
 15 14  1  0
 16 15  1  0
 17 16  2  0
 18 21  1  0
 19 18  2  0
 20 16  1  0
M  END
$$$$
