TGE.pdb
     RDKit          3D

 21 20  0  0  1  0  0  0  0  0999 V2000
    8.0319  -16.6862   18.2691 C   0  0  0  0  0  0  0  0  0  0  0  0
    8.2926  -15.3120   17.6871 C   0  0  1  0  0  0  0  0  0  0  0  0
    7.9067  -15.1995   16.3789 O   0  0  0  0  0  0  0  0  0  0  0  0
    7.6733  -14.2255   18.5284 C   0  0  2  0  0  0  0  0  0  0  0  0
    7.5727  -12.9876   17.7680 N   0  0  0  0  0  0  0  0  0  0  0  0
    8.4136  -13.9152   19.7582 C   0  0  0  0  0  0  0  0  0  0  0  0
    9.4002  -13.1246   19.7951 O   0  0  0  0  0  0  0  0  0  0  0  0
    8.0200  -14.5205   20.9802 N   0  0  0  0  0  0  0  0  0  0  0  0
    8.8211  -14.3493   22.1702 C   0  0  0  0  0  0  0  0  0  0  0  0
    9.9376  -15.2834   22.3086 C   0  0  0  0  0  0  0  0  0  0  0  0
   10.1163  -16.1079   21.3395 O   0  0  0  0  0  0  0  0  0  0  0  0
   10.8201  -15.3586   23.3978 N   0  0  0  0  0  0  0  0  0  0  0  0
   11.9616  -16.3079   23.3950 C   0  0  1  0  0  0  0  0  0  0  0  0
   11.4546  -17.6336   23.8870 C   0  0  0  0  0  0  0  0  0  0  0  0
   11.0313  -17.5525   25.3286 C   0  0  0  0  0  0  0  0  0  0  0  0
   10.5484  -18.8754   25.8213 C   0  0  0  0  0  0  0  0  0  0  0  0
   11.3069  -19.8711   25.8368 O   0  0  0  0  0  0  0  0  0  0  0  0
   12.5094  -16.3476   22.0207 C   0  0  0  0  0  0  0  0  0  0  0  0
   12.0680  -17.2473   21.2189 O   0  0  0  0  0  0  0  0  0  0  0  0
    9.2567  -19.0063   26.2640 O   0  0  0  0  0  0  0  0  0  0  0  0
   13.4627  -15.4937   21.5127 O   0  0  0  0  0  0  0  0  0  0  0  0
  2  1  1  1
  2  3  1  0
  4  2  1  0
  4  5  1  6
  6  4  1  0
  7  6  2  0
  8  6  1  0
  9 10  1  0
  9  8  1  0
 10 12  1  0
 11 10  2  0
 12 13  1  0
 13 18  1  0
 13 14  1  6
 15 14  1  0
 16 15  1  0
 17 16  2  0
 18 21  1  0
 19 18  2  0
 20 16  1  0
M  END
$$$$
