TGE.pdb
     RDKit          3D

 21 20  0  0  1  0  0  0  0  0999 V2000
    6.6023  -14.7832   17.1848 C   0  0  0  0  0  0  0  0  0  0  0  0
    7.4531  -14.9554   18.4264 C   0  0  1  0  0  0  0  0  0  0  0  0
    8.7115  -15.4206   18.1563 O   0  0  0  0  0  0  0  0  0  0  0  0
    7.5087  -13.6892   19.2421 C   0  0  2  0  0  0  0  0  0  0  0  0
    7.9854  -12.5796   18.4283 N   0  0  0  0  0  0  0  0  0  0  0  0
    8.3831  -13.7647   20.4196 C   0  0  0  0  0  0  0  0  0  0  0  0
    9.5666  -13.3191   20.4366 O   0  0  0  0  0  0  0  0  0  0  0  0
    7.8971  -14.3633   21.6113 N   0  0  0  0  0  0  0  0  0  0  0  0
    8.7118  -14.3792   22.8043 C   0  0  0  0  0  0  0  0  0  0  0  0
    9.7165  -15.4404   22.8580 C   0  0  0  0  0  0  0  0  0  0  0  0
    9.4616  -16.5031   22.1823 O   0  0  0  0  0  0  0  0  0  0  0  0
   10.9210  -15.4005   23.5779 N   0  0  0  0  0  0  0  0  0  0  0  0
   11.8667  -16.5446   23.5532 C   0  0  1  0  0  0  0  0  0  0  0  0
   13.2591  -15.9887   23.6469 C   0  0  0  0  0  0  0  0  0  0  0  0
   14.2831  -17.0906   23.6811 C   0  0  0  0  0  0  0  0  0  0  0  0
   15.6673  -16.5395   23.6010 C   0  0  0  0  0  0  0  0  0  0  0  0
   15.8684  -15.3040   23.6106 O   0  0  0  0  0  0  0  0  0  0  0  0
   11.5059  -17.4497   24.6672 C   0  0  0  0  0  0  0  0  0  0  0  0
   10.7566  -16.9900   25.6023 O   0  0  0  0  0  0  0  0  0  0  0  0
   16.7362  -17.3949   23.5157 O   0  0  0  0  0  0  0  0  0  0  0  0
   11.9040  -18.7617   24.7952 O   0  0  0  0  0  0  0  0  0  0  0  0
  2  1  1  6
  2  3  1  0
  4  2  1  0
  4  5  1  6
  6  4  1  0
  7  6  2  0
  8  6  1  0
  9 10  1  0
  9  8  1  0
 10 12  1  0
 11 10  2  0
 12 13  1  0
 13 18  1  0
 13 14  1  1
 15 14  1  0
 16 15  1  0
 17 16  2  0
 18 21  1  0
 19 18  2  0
 20 16  1  0
M  END
$$$$
