TGE.pdb
     RDKit          3D

 21 20  0  0  1  0  0  0  0  0999 V2000
    7.9045  -13.9578   17.6584 C   0  0  0  0  0  0  0  0  0  0  0  0
    8.2301  -13.6286   19.1009 C   0  0  1  0  0  0  0  0  0  0  0  0
    7.7319  -12.4188   19.5025 O   0  0  0  0  0  0  0  0  0  0  0  0
    7.7944  -14.7290   20.0342 C   0  0  2  0  0  0  0  0  0  0  0  0
    6.3412  -14.7890   20.1074 N   0  0  0  0  0  0  0  0  0  0  0  0
    8.2883  -14.5877   21.4100 C   0  0  0  0  0  0  0  0  0  0  0  0
    9.5117  -14.6664   21.7212 O   0  0  0  0  0  0  0  0  0  0  0  0
    7.3646  -14.3493   22.4610 N   0  0  0  0  0  0  0  0  0  0  0  0
    7.8258  -14.2341   23.8253 C   0  0  0  0  0  0  0  0  0  0  0  0
    8.4083  -15.4506   24.3903 C   0  0  0  0  0  0  0  0  0  0  0  0
    7.6539  -16.4905   24.4078 O   0  0  0  0  0  0  0  0  0  0  0  0
    9.7053  -15.5789   24.9120 N   0  0  0  0  0  0  0  0  0  0  0  0
   10.2111  -16.8887   25.3942 C   0  0  1  0  0  0  0  0  0  0  0  0
   11.6920  -16.9264   25.1452 C   0  0  0  0  0  0  0  0  0  0  0  0
   12.0090  -16.6233   23.7058 C   0  0  0  0  0  0  0  0  0  0  0  0
   13.4734  -16.7361   23.4436 C   0  0  0  0  0  0  0  0  0  0  0  0
   14.0407  -17.8519   23.4365 O   0  0  0  0  0  0  0  0  0  0  0  0
    9.8392  -17.0160   26.8211 C   0  0  0  0  0  0  0  0  0  0  0  0
    9.4290  -15.9666   27.4356 O   0  0  0  0  0  0  0  0  0  0  0  0
   14.2113  -15.6042   23.2068 O   0  0  0  0  0  0  0  0  0  0  0  0
    9.8911  -18.1750   27.5627 O   0  0  0  0  0  0  0  0  0  0  0  0
  2  1  1  6
  2  3  1  0
  4  2  1  0
  4  5  1  1
  6  4  1  0
  7  6  2  0
  8  6  1  0
  9 10  1  0
  9  8  1  0
 10 12  1  0
 11 10  2  0
 12 13  1  0
 13 18  1  0
 13 14  1  1
 15 14  1  0
 16 15  1  0
 17 16  2  0
 18 21  1  0
 19 18  2  0
 20 16  1  0
M  END
$$$$
