TGE.pdb
     RDKit          3D

 21 20  0  0  1  0  0  0  0  0999 V2000
    7.3673  -17.5619   17.0424 C   0  0  0  0  0  0  0  0  0  0  0  0
    8.1075  -16.7993   18.1220 C   0  0  1  0  0  0  0  0  0  0  0  0
    7.6884  -15.5026   18.2486 O   0  0  0  0  0  0  0  0  0  0  0  0
    8.0524  -17.5167   19.4464 C   0  0  2  0  0  0  0  0  0  0  0  0
    6.6812  -17.5844   19.9323 N   0  0  0  0  0  0  0  0  0  0  0  0
    8.8536  -16.8927   20.5073 C   0  0  0  0  0  0  0  0  0  0  0  0
   10.1152  -16.8116   20.4695 O   0  0  0  0  0  0  0  0  0  0  0  0
    8.2012  -16.3450   21.6427 N   0  0  0  0  0  0  0  0  0  0  0  0
    8.9518  -15.5987   22.6259 C   0  0  0  0  0  0  0  0  0  0  0  0
    9.8320  -16.3991   23.4761 C   0  0  0  0  0  0  0  0  0  0  0  0
    9.6455  -17.6702   23.4553 O   0  0  0  0  0  0  0  0  0  0  0  0
   10.8505  -15.9046   24.3062 N   0  0  0  0  0  0  0  0  0  0  0  0
   11.7009  -16.8222   25.1054 C   0  0  1  0  0  0  0  0  0  0  0  0
   13.1306  -16.4025   24.9146 C   0  0  0  0  0  0  0  0  0  0  0  0
   13.4917  -16.3506   23.4548 C   0  0  0  0  0  0  0  0  0  0  0  0
   14.8987  -15.8915   23.2660 C   0  0  0  0  0  0  0  0  0  0  0  0
   15.5991  -15.5478   24.2448 O   0  0  0  0  0  0  0  0  0  0  0  0
   11.2381  -16.7549   26.5095 C   0  0  0  0  0  0  0  0  0  0  0  0
   10.4556  -15.7940   26.8435 O   0  0  0  0  0  0  0  0  0  0  0  0
   15.4353  -15.8441   22.0045 O   0  0  0  0  0  0  0  0  0  0  0  0
   11.5726  -17.6430   27.5072 O   0  0  0  0  0  0  0  0  0  0  0  0
  2  1  1  6
  2  3  1  0
  4  2  1  0
  4  5  1  1
  6  4  1  0
  7  6  2  0
  8  6  1  0
  9 10  1  0
  9  8  1  0
 10 12  1  0
 11 10  2  0
 12 13  1  0
 13 18  1  0
 13 14  1  1
 15 14  1  0
 16 15  1  0
 17 16  2  0
 18 21  1  0
 19 18  2  0
 20 16  1  0
M  END
$$$$
