TGE.pdb
     RDKit          3D

 21 20  0  0  1  0  0  0  0  0999 V2000
    7.8145  -12.3655   19.8813 C   0  0  0  0  0  0  0  0  0  0  0  0
    7.5486  -13.5838   19.0210 C   0  0  1  0  0  0  0  0  0  0  0  0
    7.7701  -13.3608   17.6890 O   0  0  0  0  0  0  0  0  0  0  0  0
    8.3215  -14.7845   19.5036 C   0  0  2  0  0  0  0  0  0  0  0  0
    8.1091  -15.9180   18.6143 N   0  0  0  0  0  0  0  0  0  0  0  0
    7.9673  -15.2289   20.8578 C   0  0  0  0  0  0  0  0  0  0  0  0
    6.9812  -15.9806   21.1073 O   0  0  0  0  0  0  0  0  0  0  0  0
    8.7575  -14.8069   21.9588 N   0  0  0  0  0  0  0  0  0  0  0  0
    8.4394  -15.2491   23.2969 C   0  0  0  0  0  0  0  0  0  0  0  0
    9.3672  -14.8050   24.3363 C   0  0  0  0  0  0  0  0  0  0  0  0
   10.2537  -13.9453   23.9814 O   0  0  0  0  0  0  0  0  0  0  0  0
    9.3752  -15.2339   25.6730 N   0  0  0  0  0  0  0  0  0  0  0  0
   10.2725  -14.6044   26.6743 C   0  0  1  0  0  0  0  0  0  0  0  0
    9.7873  -15.0049   28.0384 C   0  0  0  0  0  0  0  0  0  0  0  0
    9.6606  -16.4999   28.1529 C   0  0  0  0  0  0  0  0  0  0  0  0
   10.0765  -16.9717   29.5058 C   0  0  0  0  0  0  0  0  0  0  0  0
   10.4631  -16.1613   30.3780 O   0  0  0  0  0  0  0  0  0  0  0  0
   11.6546  -15.0420   26.3767 C   0  0  0  0  0  0  0  0  0  0  0  0
   12.6213  -14.4356   26.9641 O   0  0  0  0  0  0  0  0  0  0  0  0
   10.0359  -18.3106   29.8016 O   0  0  0  0  0  0  0  0  0  0  0  0
   12.0061  -16.0574   25.5157 O   0  0  0  0  0  0  0  0  0  0  0  0
  2  1  1  1
  2  3  1  0
  4  2  1  0
  4  5  1  6
  6  4  1  0
  7  6  2  0
  8  6  1  0
  9 10  1  0
  9  8  1  0
 10 12  1  0
 11 10  2  0
 12 13  1  0
 13 18  1  0
 13 14  1  1
 15 14  1  0
 16 15  1  0
 17 16  2  0
 18 21  1  0
 19 18  2  0
 20 16  1  0
M  END
$$$$
