WDC.pdb
     RDKit          3D

 29 30  0  0  1  0  0  0  0  0999 V2000
   26.3696  -21.8681  -13.4631 N   0  0  0  0  0  0  0  0  0  0  0  0
   25.5051  -21.4144  -12.4221 C   0  0  1  0  0  0  0  0  0  0  0  0
   26.0082  -20.1874  -11.6864 C   0  0  0  0  0  0  0  0  0  0  0  0
   26.7598  -20.5623  -10.4606 C   0  0  0  0  0  0  0  0  0  0  0  0
   26.3143  -20.5032   -9.1436 C   0  0  0  0  0  0  0  0  0  0  0  0
   27.3016  -20.8980   -8.3279 N   0  0  0  0  0  0  0  0  0  0  0  0
   28.4121  -21.2274   -9.0372 C   0  0  0  0  0  0  0  0  0  0  0  0
   29.6608  -21.6847   -8.6811 C   0  0  0  0  0  0  0  0  0  0  0  0
   30.6168  -21.9520   -9.6249 C   0  0  0  0  0  0  0  0  0  0  0  0
   30.3023  -21.7528  -10.9495 C   0  0  0  0  0  0  0  0  0  0  0  0
   29.0480  -21.2940  -11.2970 C   0  0  0  0  0  0  0  0  0  0  0  0
   28.0593  -21.0131  -10.3709 C   0  0  0  0  0  0  0  0  0  0  0  0
   24.1141  -21.1380  -12.9340 C   0  0  0  0  0  0  0  0  0  0  0  0
   23.9039  -19.9779  -13.4144 O   0  0  0  0  0  0  0  0  0  0  0  0
   23.0787  -22.0938  -12.8985 N   0  0  0  0  0  0  0  0  0  0  0  0
   21.7839  -21.6850  -13.4784 C   0  0  1  0  0  0  0  0  0  0  0  0
   22.0392  -21.7802  -14.9834 C   0  0  0  0  0  0  0  0  0  0  0  0
   22.4400  -20.5620  -15.6360 C   0  0  0  0  0  0  0  0  0  0  0  0
   21.9165  -19.4581  -15.4140 O   0  0  0  0  0  0  0  0  0  0  0  0
   20.7432  -22.6730  -13.1391 C   0  0  0  0  0  0  0  0  0  0  0  0
   21.0306  -23.8881  -13.1830 O   0  0  0  0  0  0  0  0  0  0  0  0
   23.4818  -20.6359  -16.5743 O   0  0  0  0  0  0  0  0  0  0  0  0
   19.4119  -22.3560  -12.7550 N   0  0  0  0  0  0  0  0  0  0  0  0
   18.4536  -23.4170  -12.5641 C   0  0  1  0  0  0  0  0  0  0  0  0
   17.8786  -23.3589  -11.1437 C   0  0  0  0  0  0  0  0  0  0  0  0
   19.1499  -23.7546   -9.9266 S   0  0  0  0  0  0  0  0  0  0  0  0
   17.3718  -23.4274  -13.5649 C   0  0  0  0  0  0  0  0  0  0  0  0
   16.8839  -24.5737  -14.1455 O   0  0  0  0  0  0  0  0  0  0  0  0
   16.8548  -22.3405  -13.9201 O   0  0  0  0  0  0  0  0  0  0  0  0
  2  1  1  6
  2  3  1  0
  2 13  1  0
  3  4  1  0
  4 12  1  0
  5  4  2  0
  5  6  1  0
  6  7  1  0
  7  8  1  0
  8  9  2  0
 10  9  1  0
 11 10  2  0
 12  7  2  0
 12 11  1  0
 13 15  1  0
 13 14  2  0
 15 16  1  0
 16 20  1  0
 16 17  1  6
 17 18  1  0
 18 22  1  0
 19 18  2  0
 20 21  2  0
 23 20  1  0
 23 24  1  0
 24 27  1  0
 24 25  1  1
 26 25  1  0
 27 28  1  0
 29 27  2  0
M  END
$$$$
