WDC.pdb
     RDKit          3D

 29 30  0  0  1  0  0  0  0  0999 V2000
   27.2884  -22.0294  -13.9756 N   0  0  0  0  0  0  0  0  0  0  0  0
   26.2525  -21.6279  -13.0798 C   0  0  1  0  0  0  0  0  0  0  0  0
   26.5367  -20.3351  -12.3396 C   0  0  0  0  0  0  0  0  0  0  0  0
   27.6231  -20.5114  -11.3413 C   0  0  0  0  0  0  0  0  0  0  0  0
   28.9832  -20.6694  -11.5898 C   0  0  0  0  0  0  0  0  0  0  0  0
   29.6266  -20.8302  -10.4253 N   0  0  0  0  0  0  0  0  0  0  0  0
   28.7571  -20.7883   -9.3827 C   0  0  0  0  0  0  0  0  0  0  0  0
   28.9099  -20.8939   -8.0186 C   0  0  0  0  0  0  0  0  0  0  0  0
   27.8361  -20.8056   -7.1730 C   0  0  0  0  0  0  0  0  0  0  0  0
   26.5885  -20.6070   -7.7183 C   0  0  0  0  0  0  0  0  0  0  0  0
   26.4448  -20.5024   -9.0869 C   0  0  0  0  0  0  0  0  0  0  0  0
   27.5064  -20.5878   -9.9700 C   0  0  0  0  0  0  0  0  0  0  0  0
   24.9248  -21.5035  -13.7834 C   0  0  0  0  0  0  0  0  0  0  0  0
   24.8981  -20.7708  -14.8242 O   0  0  0  0  0  0  0  0  0  0  0  0
   23.7559  -22.1535  -13.3384 N   0  0  0  0  0  0  0  0  0  0  0  0
   22.5494  -21.9844  -14.1724 C   0  0  1  0  0  0  0  0  0  0  0  0
   21.7615  -23.2659  -13.8959 C   0  0  0  0  0  0  0  0  0  0  0  0
   20.5521  -23.4420  -14.6555 C   0  0  0  0  0  0  0  0  0  0  0  0
   20.0923  -22.5835  -15.4257 O   0  0  0  0  0  0  0  0  0  0  0  0
   21.7464  -20.8514  -13.6765 C   0  0  0  0  0  0  0  0  0  0  0  0
   21.5252  -20.7624  -12.4501 O   0  0  0  0  0  0  0  0  0  0  0  0
   19.8607  -24.6554  -14.5108 O   0  0  0  0  0  0  0  0  0  0  0  0
   21.1917  -19.8268  -14.4907 N   0  0  0  0  0  0  0  0  0  0  0  0
   20.3794  -18.7987  -13.8875 C   0  0  1  0  0  0  0  0  0  0  0  0
   20.8474  -17.4152  -14.3546 C   0  0  0  0  0  0  0  0  0  0  0  0
   21.1167  -17.4038  -16.1383 S   0  0  0  0  0  0  0  0  0  0  0  0
   18.9346  -18.9682  -14.1238 C   0  0  0  0  0  0  0  0  0  0  0  0
   18.4100  -19.8907  -14.9972 O   0  0  0  0  0  0  0  0  0  0  0  0
   18.1224  -18.2400  -13.5035 O   0  0  0  0  0  0  0  0  0  0  0  0
  2  1  1  6
  2  3  1  0
  2 13  1  0
  3  4  1  0
  4 12  1  0
  5  4  2  0
  5  6  1  0
  6  7  1  0
  7  8  1  0
  8  9  2  0
 10  9  1  0
 11 10  2  0
 12  7  2  0
 12 11  1  0
 13 15  1  0
 13 14  2  0
 15 16  1  0
 16 20  1  0
 16 17  1  1
 17 18  1  0
 18 22  1  0
 19 18  2  0
 20 21  2  0
 23 20  1  0
 23 24  1  0
 24 27  1  0
 24 25  1  6
 26 25  1  0
 27 28  1  0
 29 27  2  0
M  END
$$$$
