WDC.pdb
     RDKit          3D

 29 30  0  0  1  0  0  0  0  0999 V2000
   27.9946  -20.8825  -12.5644 N   0  0  0  0  0  0  0  0  0  0  0  0
   26.8501  -21.4378  -11.9174 C   0  0  1  0  0  0  0  0  0  0  0  0
   26.5398  -20.8229  -10.5663 C   0  0  0  0  0  0  0  0  0  0  0  0
   27.7343  -20.8290   -9.6825 C   0  0  0  0  0  0  0  0  0  0  0  0
   29.0126  -21.2847   -9.9906 C   0  0  0  0  0  0  0  0  0  0  0  0
   29.7992  -21.1469   -8.9144 N   0  0  0  0  0  0  0  0  0  0  0  0
   29.1074  -20.6118   -7.8752 C   0  0  0  0  0  0  0  0  0  0  0  0
   29.4492  -20.2743   -6.5850 C   0  0  0  0  0  0  0  0  0  0  0  0
   28.5329  -19.7290   -5.7254 C   0  0  0  0  0  0  0  0  0  0  0  0
   27.2509  -19.5225   -6.1803 C   0  0  0  0  0  0  0  0  0  0  0  0
   26.9173  -19.8640   -7.4752 C   0  0  0  0  0  0  0  0  0  0  0  0
   27.8163  -20.4173   -8.3696 C   0  0  0  0  0  0  0  0  0  0  0  0
   25.6210  -21.3482  -12.7861 C   0  0  0  0  0  0  0  0  0  0  0  0
   25.4047  -20.2291  -13.3534 O   0  0  0  0  0  0  0  0  0  0  0  0
   24.7384  -22.4296  -12.9819 N   0  0  0  0  0  0  0  0  0  0  0  0
   23.6175  -22.2049  -13.9163 C   0  0  1  0  0  0  0  0  0  0  0  0
   23.5302  -23.5332  -14.6695 C   0  0  0  0  0  0  0  0  0  0  0  0
   24.6529  -23.8608  -15.5078 C   0  0  0  0  0  0  0  0  0  0  0  0
   25.0780  -23.1198  -16.4090 O   0  0  0  0  0  0  0  0  0  0  0  0
   22.3597  -22.0342  -13.1658 C   0  0  0  0  0  0  0  0  0  0  0  0
   22.3588  -22.2541  -11.9359 O   0  0  0  0  0  0  0  0  0  0  0  0
   25.2969  -25.0887  -15.2868 O   0  0  0  0  0  0  0  0  0  0  0  0
   21.1205  -21.6293  -13.7323 N   0  0  0  0  0  0  0  0  0  0  0  0
   20.2610  -20.7325  -12.9991 C   0  0  1  0  0  0  0  0  0  0  0  0
   20.9976  -19.4206  -12.7030 C   0  0  0  0  0  0  0  0  0  0  0  0
   20.0097  -18.3665  -11.6226 S   0  0  0  0  0  0  0  0  0  0  0  0
   18.9723  -20.4689  -13.6638 C   0  0  0  0  0  0  0  0  0  0  0  0
   17.7646  -20.4671  -13.0076 O   0  0  0  0  0  0  0  0  0  0  0  0
   18.9553  -20.2312  -14.8958 O   0  0  0  0  0  0  0  0  0  0  0  0
  2  1  1  6
  2  3  1  0
  2 13  1  0
  3  4  1  0
  4 12  1  0
  5  4  2  0
  5  6  1  0
  6  7  1  0
  7  8  1  0
  8  9  2  0
 10  9  1  0
 11 10  2  0
 12  7  2  0
 12 11  1  0
 13 15  1  0
 13 14  2  0
 15 16  1  0
 16 20  1  0
 16 17  1  6
 17 18  1  0
 18 22  1  0
 19 18  2  0
 20 21  2  0
 23 20  1  0
 23 24  1  0
 24 27  1  0
 24 25  1  6
 26 25  1  0
 27 28  1  0
 29 27  2  0
M  END
$$$$
