WDC.pdb
     RDKit          3D

 29 30  0  0  1  0  0  0  0  0999 V2000
   23.1671   -7.6607  -18.8111 N   0  0  0  0  0  0  0  0  0  0  0  0
   22.8249   -7.2681  -17.4823 C   0  0  1  0  0  0  0  0  0  0  0  0
   23.8812   -6.4284  -16.7903 C   0  0  0  0  0  0  0  0  0  0  0  0
   25.1301   -7.2032  -16.5716 C   0  0  0  0  0  0  0  0  0  0  0  0
   26.3639   -7.0108  -17.1860 C   0  0  0  0  0  0  0  0  0  0  0  0
   27.2252   -7.9359  -16.7406 N   0  0  0  0  0  0  0  0  0  0  0  0
   26.6279   -8.7591  -15.8405 C   0  0  0  0  0  0  0  0  0  0  0  0
   27.0688   -9.8371  -15.1064 C   0  0  0  0  0  0  0  0  0  0  0  0
   26.2363  -10.4989  -14.2433 C   0  0  0  0  0  0  0  0  0  0  0  0
   24.9374  -10.0615  -14.1223 C   0  0  0  0  0  0  0  0  0  0  0  0
   24.5042   -8.9801  -14.8623 C   0  0  0  0  0  0  0  0  0  0  0  0
   25.3168   -8.2892  -15.7436 C   0  0  0  0  0  0  0  0  0  0  0  0
   21.5117   -6.5285  -17.4407 C   0  0  0  0  0  0  0  0  0  0  0  0
   21.1808   -5.8955  -18.4946 O   0  0  0  0  0  0  0  0  0  0  0  0
   20.6704   -6.5202  -16.3099 N   0  0  0  0  0  0  0  0  0  0  0  0
   19.4016   -5.7759  -16.4374 C   0  0  1  0  0  0  0  0  0  0  0  0
   18.3659   -6.7769  -15.9230 C   0  0  0  0  0  0  0  0  0  0  0  0
   16.9931   -6.3482  -15.9700 C   0  0  0  0  0  0  0  0  0  0  0  0
   16.6309   -5.2478  -16.4168 O   0  0  0  0  0  0  0  0  0  0  0  0
   19.3987   -4.6205  -15.5212 C   0  0  0  0  0  0  0  0  0  0  0  0
   19.8400   -4.7712  -14.3621 O   0  0  0  0  0  0  0  0  0  0  0  0
   16.0162   -7.2304  -15.4812 O   0  0  0  0  0  0  0  0  0  0  0  0
   18.9292   -3.3199  -15.8502 N   0  0  0  0  0  0  0  0  0  0  0  0
   18.9051   -2.2935  -14.8371 C   0  0  1  0  0  0  0  0  0  0  0  0
   20.1056   -1.3549  -15.0088 C   0  0  0  0  0  0  0  0  0  0  0  0
   20.0717   -0.5699  -16.6326 S   0  0  0  0  0  0  0  0  0  0  0  0
   17.6461   -1.5285  -14.7964 C   0  0  0  0  0  0  0  0  0  0  0  0
   16.6243   -1.6971  -15.7000 O   0  0  0  0  0  0  0  0  0  0  0  0
   17.4785   -0.6713  -13.8954 O   0  0  0  0  0  0  0  0  0  0  0  0
  2  1  1  6
  2  3  1  0
  2 13  1  0
  3  4  1  0
  4 12  1  0
  5  4  2  0
  5  6  1  0
  6  7  1  0
  7  8  1  0
  8  9  2  0
 10  9  1  0
 11 10  2  0
 12  7  2  0
 12 11  1  0
 13 15  1  0
 13 14  2  0
 15 16  1  0
 16 20  1  0
 16 17  1  1
 17 18  1  0
 18 22  1  0
 19 18  2  0
 20 21  2  0
 23 20  1  0
 23 24  1  0
 24 27  1  0
 24 25  1  6
 26 25  1  0
 27 28  1  0
 29 27  2  0
M  END
$$$$
