WDC.pdb
     RDKit          3D

 29 30  0  0  1  0  0  0  0  0999 V2000
   27.6507  -19.0155  -16.8103 N   0  0  0  0  0  0  0  0  0  0  0  0
   26.8491  -18.4755  -15.7602 C   0  0  1  0  0  0  0  0  0  0  0  0
   25.6600  -17.6652  -16.2392 C   0  0  0  0  0  0  0  0  0  0  0  0
   26.0951  -16.4293  -16.9400 C   0  0  0  0  0  0  0  0  0  0  0  0
   25.9881  -16.1443  -18.2979 C   0  0  0  0  0  0  0  0  0  0  0  0
   26.5246  -14.9398  -18.5375 N   0  0  0  0  0  0  0  0  0  0  0  0
   26.9976  -14.3847  -17.3916 C   0  0  0  0  0  0  0  0  0  0  0  0
   27.6181  -13.1896  -17.1054 C   0  0  0  0  0  0  0  0  0  0  0  0
   27.9934  -12.8705  -15.8274 C   0  0  0  0  0  0  0  0  0  0  0  0
   27.7358  -13.7764  -14.8244 C   0  0  0  0  0  0  0  0  0  0  0  0
   27.1135  -14.9721  -15.1207 C   0  0  0  0  0  0  0  0  0  0  0  0
   26.7219  -15.3273  -16.3992 C   0  0  0  0  0  0  0  0  0  0  0  0
   26.3591  -19.5510  -14.8241 C   0  0  0  0  0  0  0  0  0  0  0  0
   26.2111  -20.7141  -15.3203 O   0  0  0  0  0  0  0  0  0  0  0  0
   26.0728  -19.3139  -13.4645 N   0  0  0  0  0  0  0  0  0  0  0  0
   25.6078  -20.4728  -12.6767 C   0  0  1  0  0  0  0  0  0  0  0  0
   26.1614  -20.1807  -11.2812 C   0  0  0  0  0  0  0  0  0  0  0  0
   25.9481  -21.2008  -10.2890 C   0  0  0  0  0  0  0  0  0  0  0  0
   25.9650  -20.9854   -9.0662 O   0  0  0  0  0  0  0  0  0  0  0  0
   24.1361  -20.4635  -12.5836 C   0  0  0  0  0  0  0  0  0  0  0  0
   23.5648  -21.4068  -11.9965 O   0  0  0  0  0  0  0  0  0  0  0  0
   25.7082  -22.5091  -10.7384 O   0  0  0  0  0  0  0  0  0  0  0  0
   23.2919  -19.4501  -13.1133 N   0  0  0  0  0  0  0  0  0  0  0  0
   21.8598  -19.6103  -13.0494 C   0  0  1  0  0  0  0  0  0  0  0  0
   21.2117  -19.0753  -14.3321 C   0  0  0  0  0  0  0  0  0  0  0  0
   21.7493  -20.0329  -15.7632 S   0  0  0  0  0  0  0  0  0  0  0  0
   21.4281  -20.9943  -12.7846 C   0  0  0  0  0  0  0  0  0  0  0  0
   20.1550  -21.3318  -12.3918 O   0  0  0  0  0  0  0  0  0  0  0  0
   22.2533  -21.9301  -12.9192 O   0  0  0  0  0  0  0  0  0  0  0  0
  2  1  1  6
  2  3  1  0
  2 13  1  0
  3  4  1  0
  4 12  1  0
  5  4  2  0
  5  6  1  0
  6  7  1  0
  7  8  1  0
  8  9  2  0
 10  9  1  0
 11 10  2  0
 12  7  2  0
 12 11  1  0
 13 15  1  0
 13 14  2  0
 15 16  1  0
 16 20  1  0
 16 17  1  1
 17 18  1  0
 18 22  1  0
 19 18  2  0
 20 21  2  0
 23 20  1  0
 23 24  1  0
 24 27  1  0
 24 25  1  6
 26 25  1  0
 27 28  1  0
 29 27  2  0
M  END
$$$$
