WDC.pdb
     RDKit          3D

 29 30  0  0  1  0  0  0  0  0999 V2000
   27.1548  -20.3897  -10.0108 N   0  0  0  0  0  0  0  0  0  0  0  0
   25.9661  -21.0381   -9.5596 C   0  0  1  0  0  0  0  0  0  0  0  0
   25.6494  -20.8072   -8.0946 C   0  0  0  0  0  0  0  0  0  0  0  0
   26.7058  -19.9972   -7.4343 C   0  0  0  0  0  0  0  0  0  0  0  0
   27.2120  -18.7684   -7.8472 C   0  0  0  0  0  0  0  0  0  0  0  0
   28.1750  -18.3827   -6.9987 N   0  0  0  0  0  0  0  0  0  0  0  0
   28.3499  -19.3030   -6.0152 C   0  0  0  0  0  0  0  0  0  0  0  0
   29.1881  -19.3753   -4.9255 C   0  0  0  0  0  0  0  0  0  0  0  0
   29.1493  -20.4419   -4.0671 C   0  0  0  0  0  0  0  0  0  0  0  0
   28.2473  -21.4504   -4.3170 C   0  0  0  0  0  0  0  0  0  0  0  0
   27.4111  -21.3695   -5.4119 C   0  0  0  0  0  0  0  0  0  0  0  0
   27.4237  -20.3083   -6.2996 C   0  0  0  0  0  0  0  0  0  0  0  0
   24.7679  -20.6415  -10.3844 C   0  0  0  0  0  0  0  0  0  0  0  0
   24.2104  -19.5369  -10.0848 O   0  0  0  0  0  0  0  0  0  0  0  0
   24.2674  -21.4298  -11.4403 N   0  0  0  0  0  0  0  0  0  0  0  0
   23.0830  -20.9065  -12.1498 C   0  0  1  0  0  0  0  0  0  0  0  0
   23.3455  -21.3166  -13.5997 C   0  0  0  0  0  0  0  0  0  0  0  0
   24.2701  -20.4933  -14.3332 C   0  0  0  0  0  0  0  0  0  0  0  0
   24.6925  -19.4000  -13.9232 O   0  0  0  0  0  0  0  0  0  0  0  0
   21.8700  -21.6134  -11.6989 C   0  0  0  0  0  0  0  0  0  0  0  0
   21.6578  -22.7710  -12.1183 O   0  0  0  0  0  0  0  0  0  0  0  0
   24.7135  -20.9609  -15.5805 O   0  0  0  0  0  0  0  0  0  0  0  0
   20.9004  -21.0814  -10.8061 N   0  0  0  0  0  0  0  0  0  0  0  0
   19.6305  -21.7482  -10.6533 C   0  0  1  0  0  0  0  0  0  0  0  0
   19.1851  -21.7045   -9.1866 C   0  0  0  0  0  0  0  0  0  0  0  0
   20.3967  -22.5224   -8.1296 S   0  0  0  0  0  0  0  0  0  0  0  0
   18.5736  -21.2223  -11.5356 C   0  0  0  0  0  0  0  0  0  0  0  0
   18.7767  -20.2157  -12.4492 O   0  0  0  0  0  0  0  0  0  0  0  0
   17.4181  -21.7065  -11.4640 O   0  0  0  0  0  0  0  0  0  0  0  0
  2  1  1  6
  2  3  1  0
  2 13  1  0
  3  4  1  0
  4 12  1  0
  5  4  2  0
  5  6  1  0
  6  7  1  0
  7  8  1  0
  8  9  2  0
 10  9  1  0
 11 10  2  0
 12  7  2  0
 12 11  1  0
 13 15  1  0
 13 14  2  0
 15 16  1  0
 16 20  1  0
 16 17  1  6
 17 18  1  0
 18 22  1  0
 19 18  2  0
 20 21  2  0
 23 20  1  0
 23 24  1  0
 24 27  1  0
 24 25  1  1
 26 25  1  0
 27 28  1  0
 29 27  2  0
M  END
$$$$
