WDC.pdb
     RDKit          3D

 29 30  0  0  1  0  0  0  0  0999 V2000
   25.0427  -20.4750  -17.5385 N   0  0  0  0  0  0  0  0  0  0  0  0
   24.3677  -19.3915  -16.9003 C   0  0  1  0  0  0  0  0  0  0  0  0
   24.3752  -18.0997  -17.6946 C   0  0  0  0  0  0  0  0  0  0  0  0
   25.7610  -17.6708  -18.0163 C   0  0  0  0  0  0  0  0  0  0  0  0
   26.8126  -18.4682  -18.4576 C   0  0  0  0  0  0  0  0  0  0  0  0
   27.9076  -17.7095  -18.6041 N   0  0  0  0  0  0  0  0  0  0  0  0
   27.6470  -16.4167  -18.2791 C   0  0  0  0  0  0  0  0  0  0  0  0
   28.4117  -15.2720  -18.2659 C   0  0  0  0  0  0  0  0  0  0  0  0
   27.8812  -14.0658  -17.8923 C   0  0  0  0  0  0  0  0  0  0  0  0
   26.5555  -14.0192  -17.5266 C   0  0  0  0  0  0  0  0  0  0  0  0
   25.7967  -15.1718  -17.5427 C   0  0  0  0  0  0  0  0  0  0  0  0
   26.2996  -16.4063  -17.9133 C   0  0  0  0  0  0  0  0  0  0  0  0
   22.9419  -19.7456  -16.5613 C   0  0  0  0  0  0  0  0  0  0  0  0
   22.4407  -20.7414  -17.1761 O   0  0  0  0  0  0  0  0  0  0  0  0
   22.1773  -19.0324  -15.6161 N   0  0  0  0  0  0  0  0  0  0  0  0
   20.7951  -19.5025  -15.3961 C   0  0  1  0  0  0  0  0  0  0  0  0
   21.0001  -20.8791  -14.7620 C   0  0  0  0  0  0  0  0  0  0  0  0
   19.8052  -21.6240  -14.4653 C   0  0  0  0  0  0  0  0  0  0  0  0
   19.4592  -21.9400  -13.3154 O   0  0  0  0  0  0  0  0  0  0  0  0
   20.1227  -18.6482  -14.3999 C   0  0  0  0  0  0  0  0  0  0  0  0
   20.7032  -18.4145  -13.3185 O   0  0  0  0  0  0  0  0  0  0  0  0
   18.9919  -22.0103  -15.5426 O   0  0  0  0  0  0  0  0  0  0  0  0
   18.8436  -18.0515  -14.5678 N   0  0  0  0  0  0  0  0  0  0  0  0
   18.2606  -17.2989  -13.4842 C   0  0  1  0  0  0  0  0  0  0  0  0
   18.1279  -15.8230  -13.8788 C   0  0  0  0  0  0  0  0  0  0  0  0
   17.0067  -14.9633  -12.7573 S   0  0  0  0  0  0  0  0  0  0  0  0
   16.9684  -17.8326  -13.0181 C   0  0  0  0  0  0  0  0  0  0  0  0
   16.5278  -17.7321  -11.7200 O   0  0  0  0  0  0  0  0  0  0  0  0
   16.2147  -18.4144  -13.8355 O   0  0  0  0  0  0  0  0  0  0  0  0
  2  1  1  6
  2  3  1  0
  2 13  1  0
  3  4  1  0
  4 12  1  0
  5  4  2  0
  5  6  1  0
  6  7  1  0
  7  8  1  0
  8  9  2  0
 10  9  1  0
 11 10  2  0
 12  7  2  0
 12 11  1  0
 13 15  1  0
 13 14  2  0
 15 16  1  0
 16 20  1  0
 16 17  1  1
 17 18  1  0
 18 22  1  0
 19 18  2  0
 20 21  2  0
 23 20  1  0
 23 24  1  0
 24 27  1  0
 24 25  1  6
 26 25  1  0
 27 28  1  0
 29 27  2  0
M  END
$$$$
