WDC.pdb
     RDKit          3D

 29 30  0  0  1  0  0  0  0  0999 V2000
   20.8907  -12.6148  -17.2302 N   0  0  0  0  0  0  0  0  0  0  0  0
   21.4230  -11.3062  -17.0277 C   0  0  1  0  0  0  0  0  0  0  0  0
   22.6558  -11.0011  -17.8565 C   0  0  0  0  0  0  0  0  0  0  0  0
   23.8732  -11.6076  -17.2583 C   0  0  0  0  0  0  0  0  0  0  0  0
   24.1514  -12.9614  -17.0952 C   0  0  0  0  0  0  0  0  0  0  0  0
   25.3377  -13.0957  -16.4864 N   0  0  0  0  0  0  0  0  0  0  0  0
   25.8869  -11.8814  -16.2245 C   0  0  0  0  0  0  0  0  0  0  0  0
   27.0652  -11.4836  -15.6341 C   0  0  0  0  0  0  0  0  0  0  0  0
   27.3824  -10.1579  -15.5003 C   0  0  0  0  0  0  0  0  0  0  0  0
   26.4917   -9.2213  -15.9721 C   0  0  0  0  0  0  0  0  0  0  0  0
   25.3128   -9.6293  -16.5624 C   0  0  0  0  0  0  0  0  0  0  0  0
   24.9601  -10.9586  -16.7131 C   0  0  0  0  0  0  0  0  0  0  0  0
   20.3892  -10.2387  -17.2827 C   0  0  0  0  0  0  0  0  0  0  0  0
   19.6793  -10.3720  -18.3310 O   0  0  0  0  0  0  0  0  0  0  0  0
   20.1929   -9.1389  -16.4233 N   0  0  0  0  0  0  0  0  0  0  0  0
   19.2167   -8.1230  -16.8650 C   0  0  1  0  0  0  0  0  0  0  0  0
   18.1579   -8.1655  -15.7621 C   0  0  0  0  0  0  0  0  0  0  0  0
   17.2296   -9.2637  -15.8175 C   0  0  0  0  0  0  0  0  0  0  0  0
   16.7292   -9.6891  -16.8712 O   0  0  0  0  0  0  0  0  0  0  0  0
   19.8336   -6.7839  -16.8397 C   0  0  0  0  0  0  0  0  0  0  0  0
   20.5982   -6.4919  -15.8957 O   0  0  0  0  0  0  0  0  0  0  0  0
   16.8763   -9.8819  -14.6074 O   0  0  0  0  0  0  0  0  0  0  0  0
   19.6317   -5.7744  -17.8197 N   0  0  0  0  0  0  0  0  0  0  0  0
   20.2334   -4.4759  -17.6394 C   0  0  1  0  0  0  0  0  0  0  0  0
   20.3785   -3.7696  -18.9928 C   0  0  0  0  0  0  0  0  0  0  0  0
   21.3479   -4.7754  -20.1342 S   0  0  0  0  0  0  0  0  0  0  0  0
   19.5186   -3.6184  -16.6773 C   0  0  0  0  0  0  0  0  0  0  0  0
   20.1038   -2.5645  -16.0170 O   0  0  0  0  0  0  0  0  0  0  0  0
   18.3089   -3.8466  -16.4336 O   0  0  0  0  0  0  0  0  0  0  0  0
  2  1  1  6
  2  3  1  0
  2 13  1  0
  3  4  1  0
  4 12  1  0
  5  4  2  0
  5  6  1  0
  6  7  1  0
  7  8  1  0
  8  9  2  0
 10  9  1  0
 11 10  2  0
 12  7  2  0
 12 11  1  0
 13 15  1  0
 13 14  2  0
 15 16  1  0
 16 20  1  0
 16 17  1  1
 17 18  1  0
 18 22  1  0
 19 18  2  0
 20 21  2  0
 23 20  1  0
 23 24  1  0
 24 27  1  0
 24 25  1  6
 26 25  1  0
 27 28  1  0
 29 27  2  0
M  END
$$$$
