WDC.pdb
     RDKit          3D

 29 30  0  0  1  0  0  0  0  0999 V2000
   28.2251  -20.1695   -9.8414 N   0  0  0  0  0  0  0  0  0  0  0  0
   26.8833  -20.6172   -9.6516 C   0  0  1  0  0  0  0  0  0  0  0  0
   26.1578  -19.9399   -8.5049 C   0  0  0  0  0  0  0  0  0  0  0  0
   27.1074  -19.4943   -7.4524 C   0  0  0  0  0  0  0  0  0  0  0  0
   27.8079  -18.2931   -7.3983 C   0  0  0  0  0  0  0  0  0  0  0  0
   28.5841  -18.2862   -6.3059 N   0  0  0  0  0  0  0  0  0  0  0  0
   28.4426  -19.4410   -5.6049 C   0  0  0  0  0  0  0  0  0  0  0  0
   28.9996  -19.9137   -4.4381 C   0  0  0  0  0  0  0  0  0  0  0  0
   28.6658  -21.1440   -3.9372 C   0  0  0  0  0  0  0  0  0  0  0  0
   27.7535  -21.9067   -4.6295 C   0  0  0  0  0  0  0  0  0  0  0  0
   27.2004  -21.4248   -5.7985 C   0  0  0  0  0  0  0  0  0  0  0  0
   27.5151  -20.1882   -6.3334 C   0  0  0  0  0  0  0  0  0  0  0  0
   26.0616  -20.4620  -10.9061 C   0  0  0  0  0  0  0  0  0  0  0  0
   26.1134  -19.3291  -11.4845 O   0  0  0  0  0  0  0  0  0  0  0  0
   25.2683  -21.4988  -11.4378 N   0  0  0  0  0  0  0  0  0  0  0  0
   24.5195  -21.1892  -12.6721 C   0  0  1  0  0  0  0  0  0  0  0  0
   24.7906  -22.4114  -13.5508 C   0  0  0  0  0  0  0  0  0  0  0  0
   26.1185  -22.5182  -14.0948 C   0  0  0  0  0  0  0  0  0  0  0  0
   26.7114  -21.5799  -14.6515 O   0  0  0  0  0  0  0  0  0  0  0  0
   23.0724  -21.1544  -12.3905 C   0  0  0  0  0  0  0  0  0  0  0  0
   22.2718  -21.3081  -13.3373 O   0  0  0  0  0  0  0  0  0  0  0  0
   26.7717  -23.7562  -13.9852 O   0  0  0  0  0  0  0  0  0  0  0  0
   22.4960  -20.9595  -11.1060 N   0  0  0  0  0  0  0  0  0  0  0  0
   21.0740  -20.7487  -10.9876 C   0  0  1  0  0  0  0  0  0  0  0  0
   20.6774  -20.6463   -9.5099 C   0  0  0  0  0  0  0  0  0  0  0  0
   22.0751  -21.0583   -8.4464 S   0  0  0  0  0  0  0  0  0  0  0  0
   20.5817  -19.5823  -11.7421 C   0  0  0  0  0  0  0  0  0  0  0  0
   21.4051  -18.6942  -12.3919 O   0  0  0  0  0  0  0  0  0  0  0  0
   19.3464  -19.3709  -11.8065 O   0  0  0  0  0  0  0  0  0  0  0  0
  2  1  1  6
  2  3  1  0
  2 13  1  0
  3  4  1  0
  4 12  1  0
  5  4  2  0
  5  6  1  0
  6  7  1  0
  7  8  1  0
  8  9  2  0
 10  9  1  0
 11 10  2  0
 12  7  2  0
 12 11  1  0
 13 15  1  0
 13 14  2  0
 15 16  1  0
 16 20  1  0
 16 17  1  6
 17 18  1  0
 18 22  1  0
 19 18  2  0
 20 21  2  0
 23 20  1  0
 23 24  1  0
 24 27  1  0
 24 25  1  1
 26 25  1  0
 27 28  1  0
 29 27  2  0
M  END
$$$$
