WDC.pdb
     RDKit          3D

 29 30  0  0  1  0  0  0  0  0999 V2000
   25.9900  -26.0252  -18.4075 N   0  0  0  0  0  0  0  0  0  0  0  0
   25.8903  -26.9603  -17.3339 C   0  0  1  0  0  0  0  0  0  0  0  0
   26.9241  -26.7657  -16.2415 C   0  0  0  0  0  0  0  0  0  0  0  0
   28.3040  -26.9292  -16.7678 C   0  0  0  0  0  0  0  0  0  0  0  0
   29.1283  -25.9434  -17.3021 C   0  0  0  0  0  0  0  0  0  0  0  0
   30.2829  -26.5005  -17.6925 N   0  0  0  0  0  0  0  0  0  0  0  0
   30.2831  -27.8362  -17.4457 C   0  0  0  0  0  0  0  0  0  0  0  0
   31.2074  -28.8358  -17.6500 C   0  0  0  0  0  0  0  0  0  0  0  0
   30.9457  -30.1314  -17.2910 C   0  0  0  0  0  0  0  0  0  0  0  0
   29.7289  -30.4182  -16.7163 C   0  0  0  0  0  0  0  0  0  0  0  0
   28.8084  -29.4096  -16.5155 C   0  0  0  0  0  0  0  0  0  0  0  0
   29.0387  -28.0913  -16.8664 C   0  0  0  0  0  0  0  0  0  0  0  0
   24.5172  -26.9493  -16.7113 C   0  0  0  0  0  0  0  0  0  0  0  0
   24.2780  -27.8495  -15.8434 O   0  0  0  0  0  0  0  0  0  0  0  0
   23.5281  -26.0037  -17.0494 N   0  0  0  0  0  0  0  0  0  0  0  0
   22.1892  -26.2115  -16.4627 C   0  0  1  0  0  0  0  0  0  0  0  0
   21.7596  -24.7936  -16.0831 C   0  0  0  0  0  0  0  0  0  0  0  0
   20.4655  -24.6678  -15.4665 C   0  0  0  0  0  0  0  0  0  0  0  0
   19.5406  -23.9883  -15.9407 O   0  0  0  0  0  0  0  0  0  0  0  0
   21.2552  -26.6996  -17.4941 C   0  0  0  0  0  0  0  0  0  0  0  0
   21.6597  -26.8019  -18.6717 O   0  0  0  0  0  0  0  0  0  0  0  0
   20.2462  -25.3552  -14.2621 O   0  0  0  0  0  0  0  0  0  0  0  0
   19.9045  -27.0751  -17.2592 N   0  0  0  0  0  0  0  0  0  0  0  0
   19.2501  -27.9861  -18.1660 C   0  0  1  0  0  0  0  0  0  0  0  0
   20.0440  -29.2944  -18.2633 C   0  0  0  0  0  0  0  0  0  0  0  0
   21.2354  -29.2162  -19.6155 S   0  0  0  0  0  0  0  0  0  0  0  0
   17.8417  -28.2544  -17.8249 C   0  0  0  0  0  0  0  0  0  0  0  0
   17.1862  -27.6559  -16.7755 O   0  0  0  0  0  0  0  0  0  0  0  0
   17.1879  -29.0709  -18.5181 O   0  0  0  0  0  0  0  0  0  0  0  0
  2  1  1  6
  2  3  1  0
  2 13  1  0
  3  4  1  0
  4 12  1  0
  5  4  2  0
  5  6  1  0
  6  7  1  0
  7  8  1  0
  8  9  2  0
 10  9  1  0
 11 10  2  0
 12  7  2  0
 12 11  1  0
 13 15  1  0
 13 14  2  0
 15 16  1  0
 16 20  1  0
 16 17  1  6
 17 18  1  0
 18 22  1  0
 19 18  2  0
 20 21  2  0
 23 20  1  0
 23 24  1  0
 24 27  1  0
 24 25  1  1
 26 25  1  0
 27 28  1  0
 29 27  2  0
M  END
$$$$
