WDC.pdb
     RDKit          3D

 29 30  0  0  1  0  0  0  0  0999 V2000
   26.9078  -19.2122  -11.8668 N   0  0  0  0  0  0  0  0  0  0  0  0
   26.5914  -20.5960  -11.7191 C   0  0  1  0  0  0  0  0  0  0  0  0
   26.0517  -20.9681  -10.3515 C   0  0  0  0  0  0  0  0  0  0  0  0
   26.9688  -20.5251   -9.2696 C   0  0  0  0  0  0  0  0  0  0  0  0
   26.6951  -19.6253   -8.2439 C   0  0  0  0  0  0  0  0  0  0  0  0
   27.7936  -19.4686   -7.4924 N   0  0  0  0  0  0  0  0  0  0  0  0
   28.8149  -20.2294   -7.9644 C   0  0  0  0  0  0  0  0  0  0  0  0
   30.1155  -20.4248   -7.5575 C   0  0  0  0  0  0  0  0  0  0  0  0
   30.9510  -21.2773   -8.2291 C   0  0  0  0  0  0  0  0  0  0  0  0
   30.4609  -21.9419   -9.3297 C   0  0  0  0  0  0  0  0  0  0  0  0
   29.1558  -21.7397   -9.7304 C   0  0  0  0  0  0  0  0  0  0  0  0
   28.2850  -20.8860   -9.0768 C   0  0  0  0  0  0  0  0  0  0  0  0
   25.6145  -21.0594  -12.7698 C   0  0  0  0  0  0  0  0  0  0  0  0
   24.9215  -20.1570  -13.3409 O   0  0  0  0  0  0  0  0  0  0  0  0
   25.4544  -22.4138  -13.1257 N   0  0  0  0  0  0  0  0  0  0  0  0
   24.4949  -22.7016  -14.2104 C   0  0  1  0  0  0  0  0  0  0  0  0
   24.7024  -24.1960  -14.4615 C   0  0  0  0  0  0  0  0  0  0  0  0
   23.9606  -24.7631  -15.5564 C   0  0  0  0  0  0  0  0  0  0  0  0
   23.0975  -24.1419  -16.1975 O   0  0  0  0  0  0  0  0  0  0  0  0
   23.1142  -22.5182  -13.7261 C   0  0  0  0  0  0  0  0  0  0  0  0
   22.7405  -23.1564  -12.7191 O   0  0  0  0  0  0  0  0  0  0  0  0
   24.2352  -26.0933  -15.9120 O   0  0  0  0  0  0  0  0  0  0  0  0
   22.1503  -21.6569  -14.3171 N   0  0  0  0  0  0  0  0  0  0  0  0
   20.7980  -21.6499  -13.8152 C   0  0  1  0  0  0  0  0  0  0  0  0
   20.2962  -20.2080  -13.6720 C   0  0  0  0  0  0  0  0  0  0  0  0
   18.6457  -20.1785  -12.9445 S   0  0  0  0  0  0  0  0  0  0  0  0
   19.8607  -22.4509  -14.6226 C   0  0  0  0  0  0  0  0  0  0  0  0
   19.8177  -22.4155  -15.9959 O   0  0  0  0  0  0  0  0  0  0  0  0
   19.0493  -23.2131  -14.0434 O   0  0  0  0  0  0  0  0  0  0  0  0
  2  1  1  1
  2  3  1  0
  2 13  1  0
  3  4  1  0
  4 12  1  0
  5  4  2  0
  5  6  1  0
  6  7  1  0
  7  8  1  0
  8  9  2  0
 10  9  1  0
 11 10  2  0
 12  7  2  0
 12 11  1  0
 13 15  1  0
 13 14  2  0
 15 16  1  0
 16 20  1  0
 16 17  1  1
 17 18  1  0
 18 22  1  0
 19 18  2  0
 20 21  2  0
 23 20  1  0
 23 24  1  0
 24 27  1  0
 24 25  1  6
 26 25  1  0
 27 28  1  0
 29 27  2  0
M  END
$$$$
