WDC.pdb
     RDKit          3D

 29 30  0  0  1  0  0  0  0  0999 V2000
   26.9482  -16.9987  -18.5742 N   0  0  0  0  0  0  0  0  0  0  0  0
   25.8683  -16.9157  -17.6448 C   0  0  1  0  0  0  0  0  0  0  0  0
   24.9055  -15.7743  -17.9103 C   0  0  0  0  0  0  0  0  0  0  0  0
   25.5997  -14.4612  -17.8699 C   0  0  0  0  0  0  0  0  0  0  0  0
   25.6410  -13.4948  -18.8704 C   0  0  0  0  0  0  0  0  0  0  0  0
   26.3966  -12.4677  -18.4579 N   0  0  0  0  0  0  0  0  0  0  0  0
   26.8773  -12.6926  -17.2076 C   0  0  0  0  0  0  0  0  0  0  0  0
   27.6763  -11.9635  -16.3560 C   0  0  0  0  0  0  0  0  0  0  0  0
   28.0103  -12.4356  -15.1144 C   0  0  0  0  0  0  0  0  0  0  0  0
   27.5270  -13.6653  -14.7302 C   0  0  0  0  0  0  0  0  0  0  0  0
   26.7268  -14.3892  -15.5907 C   0  0  0  0  0  0  0  0  0  0  0  0
   26.3706  -13.9438  -16.8512 C   0  0  0  0  0  0  0  0  0  0  0  0
   25.0884  -18.2045  -17.5804 C   0  0  0  0  0  0  0  0  0  0  0  0
   24.7978  -18.7507  -18.6931 O   0  0  0  0  0  0  0  0  0  0  0  0
   24.6887  -18.8005  -16.3673 N   0  0  0  0  0  0  0  0  0  0  0  0
   24.0291  -20.1178  -16.4657 C   0  0  1  0  0  0  0  0  0  0  0  0
   24.8672  -20.9895  -15.5292 C   0  0  0  0  0  0  0  0  0  0  0  0
   26.1225  -21.4578  -16.0543 C   0  0  0  0  0  0  0  0  0  0  0  0
   26.5509  -21.1599  -17.1810 O   0  0  0  0  0  0  0  0  0  0  0  0
   22.6667  -20.0443  -15.9064 C   0  0  0  0  0  0  0  0  0  0  0  0
   22.4620  -19.3107  -14.9160 O   0  0  0  0  0  0  0  0  0  0  0  0
   26.8986  -22.2978  -15.2399 O   0  0  0  0  0  0  0  0  0  0  0  0
   21.5396  -20.7494  -16.4092 N   0  0  0  0  0  0  0  0  0  0  0  0
   20.2365  -20.5095  -15.8392 C   0  0  1  0  0  0  0  0  0  0  0  0
   19.1430  -20.8842  -16.8468 C   0  0  0  0  0  0  0  0  0  0  0  0
   17.5063  -20.5871  -16.1488 S   0  0  0  0  0  0  0  0  0  0  0  0
   20.0163  -21.1926  -14.5520 C   0  0  0  0  0  0  0  0  0  0  0  0
   19.4194  -20.5964  -13.4670 O   0  0  0  0  0  0  0  0  0  0  0  0
   20.3871  -22.3841  -14.4191 O   0  0  0  0  0  0  0  0  0  0  0  0
  2  1  1  6
  2  3  1  0
  2 13  1  0
  3  4  1  0
  4 12  1  0
  5  4  2  0
  5  6  1  0
  6  7  1  0
  7  8  1  0
  8  9  2  0
 10  9  1  0
 11 10  2  0
 12  7  2  0
 12 11  1  0
 13 15  1  0
 13 14  2  0
 15 16  1  0
 16 20  1  0
 16 17  1  1
 17 18  1  0
 18 22  1  0
 19 18  2  0
 20 21  2  0
 23 20  1  0
 23 24  1  0
 24 27  1  0
 24 25  1  6
 26 25  1  0
 27 28  1  0
 29 27  2  0
M  END
$$$$
