WDC.pdb
     RDKit          3D

 29 30  0  0  1  0  0  0  0  0999 V2000
   28.6420  -19.1677  -11.8831 N   0  0  0  0  0  0  0  0  0  0  0  0
   28.3119  -20.4713  -12.3611 C   0  0  1  0  0  0  0  0  0  0  0  0
   27.5934  -21.3418  -11.3483 C   0  0  0  0  0  0  0  0  0  0  0  0
   28.3220  -21.3788  -10.0538 C   0  0  0  0  0  0  0  0  0  0  0  0
   27.8588  -20.9611   -8.8098 C   0  0  0  0  0  0  0  0  0  0  0  0
   28.8286  -21.1305   -7.9005 N   0  0  0  0  0  0  0  0  0  0  0  0
   29.9442  -21.6507   -8.4747 C   0  0  0  0  0  0  0  0  0  0  0  0
   31.1809  -22.0073   -7.9864 C   0  0  0  0  0  0  0  0  0  0  0  0
   32.1462  -22.5296   -8.8057 C   0  0  0  0  0  0  0  0  0  0  0  0
   31.8534  -22.6931  -10.1402 C   0  0  0  0  0  0  0  0  0  0  0  0
   30.6110  -22.3326  -10.6209 C   0  0  0  0  0  0  0  0  0  0  0  0
   29.6134  -21.8016   -9.8227 C   0  0  0  0  0  0  0  0  0  0  0  0
   27.4869  -20.4101  -13.6217 C   0  0  0  0  0  0  0  0  0  0  0  0
   27.0050  -19.2734  -13.9324 O   0  0  0  0  0  0  0  0  0  0  0  0
   27.2450  -21.5344  -14.4366 N   0  0  0  0  0  0  0  0  0  0  0  0
   26.3686  -21.3247  -15.6062 C   0  0  1  0  0  0  0  0  0  0  0  0
   26.4202  -22.6775  -16.3178 C   0  0  0  0  0  0  0  0  0  0  0  0
   25.6727  -22.7772  -17.5434 C   0  0  0  0  0  0  0  0  0  0  0  0
   24.9947  -21.8491  -18.0131 O   0  0  0  0  0  0  0  0  0  0  0  0
   24.9789  -21.1060  -15.1641 C   0  0  0  0  0  0  0  0  0  0  0  0
   24.5127  -21.8353  -14.2632 O   0  0  0  0  0  0  0  0  0  0  0  0
   25.7189  -23.9958  -18.2393 O   0  0  0  0  0  0  0  0  0  0  0  0
   24.1045  -20.1132  -15.6838 N   0  0  0  0  0  0  0  0  0  0  0  0
   22.7913  -19.9492  -15.1099 C   0  0  1  0  0  0  0  0  0  0  0  0
   22.5255  -18.4678  -14.8163 C   0  0  0  0  0  0  0  0  0  0  0  0
   20.8464  -18.0158  -15.2964 S   0  0  0  0  0  0  0  0  0  0  0  0
   21.7089  -20.5210  -15.9305 C   0  0  0  0  0  0  0  0  0  0  0  0
   20.5311  -21.0002  -15.4086 O   0  0  0  0  0  0  0  0  0  0  0  0
   21.8509  -20.5829  -17.1758 O   0  0  0  0  0  0  0  0  0  0  0  0
  2  1  1  1
  2  3  1  0
  2 13  1  0
  3  4  1  0
  4 12  1  0
  5  4  2  0
  5  6  1  0
  6  7  1  0
  7  8  1  0
  8  9  2  0
 10  9  1  0
 11 10  2  0
 12  7  2  0
 12 11  1  0
 13 15  1  0
 13 14  2  0
 15 16  1  0
 16 20  1  0
 16 17  1  6
 17 18  1  0
 18 22  1  0
 19 18  2  0
 20 21  2  0
 23 20  1  0
 23 24  1  0
 24 27  1  0
 24 25  1  6
 26 25  1  0
 27 28  1  0
 29 27  2  0
M  END
$$$$
