WDC.pdb
     RDKit          3D

 29 30  0  0  1  0  0  0  0  0999 V2000
   27.3946  -22.5722  -14.4540 N   0  0  0  0  0  0  0  0  0  0  0  0
   26.1957  -22.1294  -13.8187 C   0  0  1  0  0  0  0  0  0  0  0  0
   26.2244  -20.6785  -13.3783 C   0  0  0  0  0  0  0  0  0  0  0  0
   27.2315  -20.4582  -12.3083 C   0  0  0  0  0  0  0  0  0  0  0  0
   28.5824  -20.1633  -12.4654 C   0  0  0  0  0  0  0  0  0  0  0  0
   29.1551  -20.0707  -11.2574 N   0  0  0  0  0  0  0  0  0  0  0  0
   28.2457  -20.2913  -10.2729 C   0  0  0  0  0  0  0  0  0  0  0  0
   28.3236  -20.3039   -8.8986 C   0  0  0  0  0  0  0  0  0  0  0  0
   27.2210  -20.5538   -8.1253 C   0  0  0  0  0  0  0  0  0  0  0  0
   26.0213  -20.7943   -8.7547 C   0  0  0  0  0  0  0  0  0  0  0  0
   25.9527  -20.7799  -10.1330 C   0  0  0  0  0  0  0  0  0  0  0  0
   27.0456  -20.5323  -10.9445 C   0  0  0  0  0  0  0  0  0  0  0  0
   24.9879  -22.3479  -14.6944 C   0  0  0  0  0  0  0  0  0  0  0  0
   25.0361  -21.8514  -15.8657 O   0  0  0  0  0  0  0  0  0  0  0  0
   23.8497  -23.0620  -14.2686 N   0  0  0  0  0  0  0  0  0  0  0  0
   22.7984  -23.2906  -15.2798 C   0  0  1  0  0  0  0  0  0  0  0  0
   22.3233  -24.7095  -14.9629 C   0  0  0  0  0  0  0  0  0  0  0  0
   23.0864  -25.7787  -15.5504 C   0  0  0  0  0  0  0  0  0  0  0  0
   24.0335  -25.5988  -16.3329 O   0  0  0  0  0  0  0  0  0  0  0  0
   21.6642  -22.3778  -15.0456 C   0  0  0  0  0  0  0  0  0  0  0  0
   21.1770  -22.3064  -13.8973 O   0  0  0  0  0  0  0  0  0  0  0  0
   22.7325  -27.0951  -15.2140 O   0  0  0  0  0  0  0  0  0  0  0  0
   21.0650  -21.5510  -16.0344 N   0  0  0  0  0  0  0  0  0  0  0  0
   19.9376  -20.7228  -15.6831 C   0  0  1  0  0  0  0  0  0  0  0  0
   19.7429  -19.6236  -16.7344 C   0  0  0  0  0  0  0  0  0  0  0  0
   21.1937  -18.5544  -16.8125 S   0  0  0  0  0  0  0  0  0  0  0  0
   18.6877  -21.4765  -15.4786 C   0  0  0  0  0  0  0  0  0  0  0  0
   17.7470  -21.1468  -14.5323 O   0  0  0  0  0  0  0  0  0  0  0  0
   18.4509  -22.4775  -16.1974 O   0  0  0  0  0  0  0  0  0  0  0  0
  2  1  1  6
  2  3  1  0
  2 13  1  0
  3  4  1  0
  4 12  1  0
  5  4  2  0
  5  6  1  0
  6  7  1  0
  7  8  1  0
  8  9  2  0
 10  9  1  0
 11 10  2  0
 12  7  2  0
 12 11  1  0
 13 15  1  0
 13 14  2  0
 15 16  1  0
 16 20  1  0
 16 17  1  1
 17 18  1  0
 18 22  1  0
 19 18  2  0
 20 21  2  0
 23 20  1  0
 23 24  1  0
 24 27  1  0
 24 25  1  6
 26 25  1  0
 27 28  1  0
 29 27  2  0
M  END
$$$$
