WDC.pdb
     RDKit          3D

 29 30  0  0  1  0  0  0  0  0999 V2000
   41.0933   -9.6630   -7.0059 N   0  0  0  0  0  0  0  0  0  0  0  0
   40.3405   -9.3275   -8.1711 C   0  0  1  0  0  0  0  0  0  0  0  0
   38.8569   -9.1381   -7.9201 C   0  0  0  0  0  0  0  0  0  0  0  0
   38.1988  -10.4244   -7.5734 C   0  0  0  0  0  0  0  0  0  0  0  0
   37.7479  -10.8340   -6.3222 C   0  0  0  0  0  0  0  0  0  0  0  0
   37.2423  -12.0711   -6.4210 N   0  0  0  0  0  0  0  0  0  0  0  0
   37.3291  -12.5285   -7.6970 C   0  0  0  0  0  0  0  0  0  0  0  0
   36.9566  -13.7047   -8.3077 C   0  0  0  0  0  0  0  0  0  0  0  0
   37.1587  -13.9063   -9.6473 C   0  0  0  0  0  0  0  0  0  0  0  0
   37.7471  -12.9005  -10.3789 C   0  0  0  0  0  0  0  0  0  0  0  0
   38.1174  -11.7248   -9.7581 C   0  0  0  0  0  0  0  0  0  0  0  0
   37.9293  -11.4877   -8.4081 C   0  0  0  0  0  0  0  0  0  0  0  0
   40.8808   -8.0926   -8.8469 C   0  0  0  0  0  0  0  0  0  0  0  0
   41.5597   -7.2969   -8.1211 O   0  0  0  0  0  0  0  0  0  0  0  0
   40.6646   -7.8062  -10.2100 N   0  0  0  0  0  0  0  0  0  0  0  0
   41.3252   -6.5980  -10.7426 C   0  0  1  0  0  0  0  0  0  0  0  0
   41.4138   -6.8905  -12.2412 C   0  0  0  0  0  0  0  0  0  0  0  0
   42.4367   -7.8182  -12.6459 C   0  0  0  0  0  0  0  0  0  0  0  0
   42.3512   -8.5406  -13.6522 O   0  0  0  0  0  0  0  0  0  0  0  0
   40.4496   -5.4243  -10.5683 C   0  0  0  0  0  0  0  0  0  0  0  0
   39.2390   -5.5288  -10.8591 O   0  0  0  0  0  0  0  0  0  0  0  0
   43.5918   -7.9039  -11.8524 O   0  0  0  0  0  0  0  0  0  0  0  0
   40.8721   -4.1563  -10.0845 N   0  0  0  0  0  0  0  0  0  0  0  0
   39.8881   -3.1500   -9.7690 C   0  0  1  0  0  0  0  0  0  0  0  0
   38.9685   -3.6454   -8.6464 C   0  0  0  0  0  0  0  0  0  0  0  0
   37.8179   -2.3485   -8.1480 S   0  0  0  0  0  0  0  0  0  0  0  0
   40.4678   -1.8386   -9.4283 C   0  0  0  0  0  0  0  0  0  0  0  0
   39.7666   -0.6581   -9.4899 O   0  0  0  0  0  0  0  0  0  0  0  0
   41.6656   -1.7750   -9.0597 O   0  0  0  0  0  0  0  0  0  0  0  0
  2  1  1  1
  2  3  1  0
  2 13  1  0
  3  4  1  0
  4 12  1  0
  5  4  2  0
  5  6  1  0
  6  7  1  0
  7  8  1  0
  8  9  2  0
 10  9  1  0
 11 10  2  0
 12  7  2  0
 12 11  1  0
 13 15  1  0
 13 14  2  0
 15 16  1  0
 16 20  1  0
 16 17  1  6
 17 18  1  0
 18 22  1  0
 19 18  2  0
 20 21  2  0
 23 20  1  0
 23 24  1  0
 24 27  1  0
 24 25  1  1
 26 25  1  0
 27 28  1  0
 29 27  2  0
M  END
$$$$
