WDC.pdb
     RDKit          3D

 29 30  0  0  1  0  0  0  0  0999 V2000
   19.6389  -15.2804  -17.0946 N   0  0  0  0  0  0  0  0  0  0  0  0
   18.7247  -15.9744  -17.9428 C   0  0  1  0  0  0  0  0  0  0  0  0
   19.0792  -17.4297  -18.1806 C   0  0  0  0  0  0  0  0  0  0  0  0
   20.4205  -17.5642  -18.8057 C   0  0  0  0  0  0  0  0  0  0  0  0
   21.6235  -17.8604  -18.1720 C   0  0  0  0  0  0  0  0  0  0  0  0
   22.6095  -17.8605  -19.0796 N   0  0  0  0  0  0  0  0  0  0  0  0
   22.1277  -17.5748  -20.3170 C   0  0  0  0  0  0  0  0  0  0  0  0
   22.7139  -17.4612  -21.5574 C   0  0  0  0  0  0  0  0  0  0  0  0
   21.9732  -17.1631  -22.6703 C   0  0  0  0  0  0  0  0  0  0  0  0
   20.6178  -16.9775  -22.5236 C   0  0  0  0  0  0  0  0  0  0  0  0
   20.0387  -17.0932  -21.2762 C   0  0  0  0  0  0  0  0  0  0  0  0
   20.7561  -17.3919  -20.1314 C   0  0  0  0  0  0  0  0  0  0  0  0
   17.3123  -15.8971  -17.4210 C   0  0  0  0  0  0  0  0  0  0  0  0
   17.1761  -15.7849  -16.1602 O   0  0  0  0  0  0  0  0  0  0  0  0
   16.1802  -15.9419  -18.2596 N   0  0  0  0  0  0  0  0  0  0  0  0
   14.8637  -15.9284  -17.5913 C   0  0  1  0  0  0  0  0  0  0  0  0
   13.8861  -15.8586  -18.7654 C   0  0  0  0  0  0  0  0  0  0  0  0
   12.4911  -15.7698  -18.4235 C   0  0  0  0  0  0  0  0  0  0  0  0
   12.0749  -15.6342  -17.2616 O   0  0  0  0  0  0  0  0  0  0  0  0
   14.6359  -17.2092  -16.8968 C   0  0  0  0  0  0  0  0  0  0  0  0
   14.1463  -17.1911  -15.7474 O   0  0  0  0  0  0  0  0  0  0  0  0
   11.5566  -15.8415  -19.4688 O   0  0  0  0  0  0  0  0  0  0  0  0
   14.9289  -18.4919  -17.4345 N   0  0  0  0  0  0  0  0  0  0  0  0
   14.6874  -19.6703  -16.6385 C   0  0  1  0  0  0  0  0  0  0  0  0
   14.7875  -20.9264  -17.5124 C   0  0  0  0  0  0  0  0  0  0  0  0
   14.6664  -22.4156  -16.5015 S   0  0  0  0  0  0  0  0  0  0  0  0
   15.5668  -19.7823  -15.4612 C   0  0  0  0  0  0  0  0  0  0  0  0
   15.1061  -20.0147  -14.1873 O   0  0  0  0  0  0  0  0  0  0  0  0
   16.8071  -19.6616  -15.6087 O   0  0  0  0  0  0  0  0  0  0  0  0
  2  1  1  1
  2  3  1  0
  2 13  1  0
  3  4  1  0
  4 12  1  0
  5  4  2  0
  5  6  1  0
  6  7  1  0
  7  8  1  0
  8  9  2  0
 10  9  1  0
 11 10  2  0
 12  7  2  0
 12 11  1  0
 13 15  1  0
 13 14  2  0
 15 16  1  0
 16 20  1  0
 16 17  1  6
 17 18  1  0
 18 22  1  0
 19 18  2  0
 20 21  2  0
 23 20  1  0
 23 24  1  0
 24 27  1  0
 24 25  1  6
 26 25  1  0
 27 28  1  0
 29 27  2  0
M  END
$$$$
