WKP.pdb
     RDKit          3D

 31 33  0  0  1  0  0  0  0  0999 V2000
    6.3050  -17.5633   26.0790 N   0  0  0  0  0  0  0  0  0  0  0  0
    6.9753  -16.4211   25.4395 C   0  0  1  0  0  0  0  0  0  0  0  0
    8.3030  -16.2040   26.0740 C   0  0  0  0  0  0  0  0  0  0  0  0
    8.2592  -14.9517   26.8715 C   0  0  0  0  0  0  0  0  0  0  0  0
    8.8425  -14.7729   28.0901 C   0  0  0  0  0  0  0  0  0  0  0  0
    8.5966  -13.5291   28.4968 N   0  0  0  0  0  0  0  0  0  0  0  0
    7.8572  -12.8712   27.5694 C   0  0  0  0  0  0  0  0  0  0  0  0
    7.3624  -11.5754   27.5461 C   0  0  0  0  0  0  0  0  0  0  0  0
    6.6330  -11.1966   26.4432 C   0  0  0  0  0  0  0  0  0  0  0  0
    6.4009  -12.0684   25.4001 C   0  0  0  0  0  0  0  0  0  0  0  0
    6.9112  -13.3530   25.4601 C   0  0  0  0  0  0  0  0  0  0  0  0
    7.6423  -13.7630   26.5443 C   0  0  0  0  0  0  0  0  0  0  0  0
    7.0609  -16.7310   23.9918 C   0  0  0  0  0  0  0  0  0  0  0  0
    7.1365  -17.9356   23.5906 O   0  0  0  0  0  0  0  0  0  0  0  0
    7.0621  -15.7460   22.9573 N   0  0  0  0  0  0  0  0  0  0  0  0
    7.7775  -15.8448   21.7173 C   0  0  1  0  0  0  0  0  0  0  0  0
    7.7097  -14.5132   20.9492 C   0  0  0  0  0  0  0  0  0  0  0  0
    8.3355  -14.6076   19.5911 C   0  0  0  0  0  0  0  0  0  0  0  0
    7.9496  -13.5423   18.6271 C   0  0  0  0  0  0  0  0  0  0  0  0
    8.3558  -13.9645   17.2087 C   0  0  0  0  0  0  0  0  0  0  0  0
    8.1111  -12.9137   16.2633 N   0  0  0  0  0  0  0  0  0  0  0  0
    9.1348  -16.3628   21.7510 C   0  0  0  0  0  0  0  0  0  0  0  0
    9.9932  -15.6474   22.4037 O   0  0  0  0  0  0  0  0  0  0  0  0
    9.6383  -17.5510   21.1626 N   0  0  0  0  0  0  0  0  0  0  0  0
    8.9797  -18.5818   20.4277 C   0  0  0  0  0  0  0  0  0  0  0  0
   10.0171  -19.0173   19.4142 C   0  0  0  0  0  0  0  0  0  0  0  0
   11.2103  -19.1715   20.3648 C   0  0  0  0  0  0  0  0  0  0  0  0
   11.0557  -17.9668   21.2292 C   0  0  1  0  0  0  0  0  0  0  0  0
   11.9181  -16.9082   20.6641 C   0  0  0  0  0  0  0  0  0  0  0  0
   13.2703  -16.9007   20.9134 O   0  0  0  0  0  0  0  0  0  0  0  0
   11.4141  -16.0182   19.9577 O   0  0  0  0  0  0  0  0  0  0  0  0
  2  1  1  1
  2 13  1  0
  3  4  1  0
  3  2  1  0
  4 12  1  0
  4  5  2  0
  5  6  1  0
  6  7  1  0
  7  8  2  0
  9  8  1  0
 10  9  2  0
 11 12  2  0
 11 10  1  0
 12  7  1  0
 13 14  2  0
 15 13  1  0
 15 16  1  0
 16 17  1  1
 18 17  1  0
 19 18  1  0
 20 19  1  0
 21 20  1  0
 22 16  1  0
 22 24  1  0
 23 22  2  0
 24 28  1  0
 25 24  1  0
 25 26  1  0
 26 27  1  0
 28 27  1  0
 28 29  1  6
 29 30  1  0
 31 29  2  0
M  END
$$$$
