WKP.pdb
     RDKit          3D

 31 33  0  0  1  0  0  0  0  0999 V2000
    6.4832  -18.2588   24.6399 N   0  0  0  0  0  0  0  0  0  0  0  0
    6.7135  -16.8285   24.3865 C   0  0  1  0  0  0  0  0  0  0  0  0
    7.4936  -16.2433   25.5098 C   0  0  0  0  0  0  0  0  0  0  0  0
    6.7400  -15.0954   26.0758 C   0  0  0  0  0  0  0  0  0  0  0  0
    5.4429  -15.1329   26.4923 C   0  0  0  0  0  0  0  0  0  0  0  0
    5.1088  -13.9243   26.9400 N   0  0  0  0  0  0  0  0  0  0  0  0
    6.1620  -13.0769   26.8300 C   0  0  0  0  0  0  0  0  0  0  0  0
    6.2952  -11.7362   27.1605 C   0  0  0  0  0  0  0  0  0  0  0  0
    7.5142  -11.1446   26.9242 C   0  0  0  0  0  0  0  0  0  0  0  0
    8.5646  -11.8535   26.3801 C   0  0  0  0  0  0  0  0  0  0  0  0
    8.3928  -13.1894   26.0637 C   0  0  0  0  0  0  0  0  0  0  0  0
    7.1914  -13.8099   26.2863 C   0  0  0  0  0  0  0  0  0  0  0  0
    7.4060  -16.7319   23.0787 C   0  0  0  0  0  0  0  0  0  0  0  0
    8.0781  -17.7129   22.6275 O   0  0  0  0  0  0  0  0  0  0  0  0
    7.3796  -15.5772   22.2383 N   0  0  0  0  0  0  0  0  0  0  0  0
    8.1642  -15.3963   21.0504 C   0  0  1  0  0  0  0  0  0  0  0  0
    8.1523  -13.9199   20.6171 C   0  0  0  0  0  0  0  0  0  0  0  0
    8.9678  -13.6830   19.3827 C   0  0  0  0  0  0  0  0  0  0  0  0
    8.1948  -13.4587   18.1317 C   0  0  0  0  0  0  0  0  0  0  0  0
    9.1624  -13.3468   16.9458 C   0  0  0  0  0  0  0  0  0  0  0  0
    8.8422  -14.2993   15.9220 N   0  0  0  0  0  0  0  0  0  0  0  0
    9.5127  -15.9376   21.0335 C   0  0  0  0  0  0  0  0  0  0  0  0
   10.3414  -15.4078   21.8745 O   0  0  0  0  0  0  0  0  0  0  0  0
   10.0360  -16.9714   20.2157 N   0  0  0  0  0  0  0  0  0  0  0  0
    9.3928  -17.8478   19.2912 C   0  0  0  0  0  0  0  0  0  0  0  0
   10.4302  -18.0473   18.2063 C   0  0  0  0  0  0  0  0  0  0  0  0
   11.6347  -18.3628   19.1012 C   0  0  0  0  0  0  0  0  0  0  0  0
   11.4623  -17.3604   20.1911 C   0  0  1  0  0  0  0  0  0  0  0  0
   12.2972  -16.1906   19.8470 C   0  0  0  0  0  0  0  0  0  0  0  0
   11.7530  -15.1120   19.1904 O   0  0  0  0  0  0  0  0  0  0  0  0
   13.5014  -16.1844   20.1551 O   0  0  0  0  0  0  0  0  0  0  0  0
  2  1  1  1
  2 13  1  0
  3  4  1  0
  3  2  1  0
  4 12  1  0
  4  5  2  0
  5  6  1  0
  6  7  1  0
  7  8  2  0
  9  8  1  0
 10  9  2  0
 11 12  2  0
 11 10  1  0
 12  7  1  0
 13 14  2  0
 15 13  1  0
 15 16  1  0
 16 17  1  1
 18 17  1  0
 19 18  1  0
 20 19  1  0
 21 20  1  0
 22 16  1  0
 22 24  1  0
 23 22  2  0
 24 28  1  0
 25 24  1  0
 25 26  1  0
 26 27  1  0
 28 27  1  0
 28 29  1  6
 29 30  1  0
 31 29  2  0
M  END
$$$$
