WKP.pdb
     RDKit          3D

 31 33  0  0  1  0  0  0  0  0999 V2000
    7.7122  -17.0491   21.6129 N   0  0  0  0  0  0  0  0  0  0  0  0
    7.6489  -15.9223   22.5558 C   0  0  1  0  0  0  0  0  0  0  0  0
    6.5116  -15.0342   22.1945 C   0  0  0  0  0  0  0  0  0  0  0  0
    6.8836  -13.6270   22.4903 C   0  0  0  0  0  0  0  0  0  0  0  0
    7.4682  -12.7652   21.6112 C   0  0  0  0  0  0  0  0  0  0  0  0
    7.6506  -11.5972   22.2239 N   0  0  0  0  0  0  0  0  0  0  0  0
    7.1972  -11.6627   23.5005 C   0  0  0  0  0  0  0  0  0  0  0  0
    7.1721  -10.7133   24.5117 C   0  0  0  0  0  0  0  0  0  0  0  0
    6.6374  -11.0914   25.7212 C   0  0  0  0  0  0  0  0  0  0  0  0
    6.1449  -12.3636   25.9239 C   0  0  0  0  0  0  0  0  0  0  0  0
    6.1875  -13.2826   24.8906 C   0  0  0  0  0  0  0  0  0  0  0  0
    6.7134  -12.9389   23.6727 C   0  0  0  0  0  0  0  0  0  0  0  0
    7.5281  -16.5067   23.9134 C   0  0  0  0  0  0  0  0  0  0  0  0
    6.6577  -16.0701   24.7316 O   0  0  0  0  0  0  0  0  0  0  0  0
    8.3418  -17.5727   24.4052 N   0  0  0  0  0  0  0  0  0  0  0  0
    8.5464  -17.8909   25.7894 C   0  0  1  0  0  0  0  0  0  0  0  0
    8.5040  -19.4141   26.0036 C   0  0  0  0  0  0  0  0  0  0  0  0
    8.5698  -19.7865   27.4534 C   0  0  0  0  0  0  0  0  0  0  0  0
    8.5984  -21.2450   27.7445 C   0  0  0  0  0  0  0  0  0  0  0  0
    8.7612  -21.4620   29.2550 C   0  0  0  0  0  0  0  0  0  0  0  0
    8.7173  -22.8568   29.5876 N   0  0  0  0  0  0  0  0  0  0  0  0
    9.6876  -17.2973   26.4655 C   0  0  0  0  0  0  0  0  0  0  0  0
   10.8315  -17.8558   26.2324 O   0  0  0  0  0  0  0  0  0  0  0  0
    9.7088  -16.1852   27.3454 N   0  0  0  0  0  0  0  0  0  0  0  0
    8.6659  -15.3071   27.7670 C   0  0  0  0  0  0  0  0  0  0  0  0
    9.0348  -14.9747   29.1976 C   0  0  0  0  0  0  0  0  0  0  0  0
   10.5107  -14.6242   28.9744 C   0  0  0  0  0  0  0  0  0  0  0  0
   10.9273  -15.6950   28.0245 C   0  0  1  0  0  0  0  0  0  0  0  0
   11.5290  -16.7815   28.8252 C   0  0  0  0  0  0  0  0  0  0  0  0
   12.7906  -16.6437   29.3546 O   0  0  0  0  0  0  0  0  0  0  0  0
   10.8869  -17.8278   29.0204 O   0  0  0  0  0  0  0  0  0  0  0  0
  2  1  1  6
  2 13  1  0
  3  4  1  0
  3  2  1  0
  4 12  1  0
  4  5  2  0
  5  6  1  0
  6  7  1  0
  7  8  2  0
  9  8  1  0
 10  9  2  0
 11 12  2  0
 11 10  1  0
 12  7  1  0
 13 14  2  0
 15 13  1  0
 15 16  1  0
 16 17  1  6
 18 17  1  0
 19 18  1  0
 20 19  1  0
 21 20  1  0
 22 16  1  0
 22 24  1  0
 23 22  2  0
 24 28  1  0
 25 24  1  0
 25 26  1  0
 26 27  1  0
 28 27  1  0
 28 29  1  1
 29 30  1  0
 31 29  2  0
M  END
$$$$
