WKP.pdb
     RDKit          3D

 31 33  0  0  1  0  0  0  0  0999 V2000
    6.1924  -17.6334   25.2390 N   0  0  0  0  0  0  0  0  0  0  0  0
    6.8881  -16.3853   24.8909 C   0  0  1  0  0  0  0  0  0  0  0  0
    8.1040  -16.2410   25.7355 C   0  0  0  0  0  0  0  0  0  0  0  0
    7.8627  -15.1882   26.7551 C   0  0  0  0  0  0  0  0  0  0  0  0
    7.8935  -15.3764   28.1045 C   0  0  0  0  0  0  0  0  0  0  0  0
    7.6339  -14.2134   28.6984 N   0  0  0  0  0  0  0  0  0  0  0  0
    7.4294  -13.2482   27.7678 C   0  0  0  0  0  0  0  0  0  0  0  0
    7.1325  -11.8994   27.8994 C   0  0  0  0  0  0  0  0  0  0  0  0
    6.9811  -11.1694   26.7437 C   0  0  0  0  0  0  0  0  0  0  0  0
    7.1183  -11.7523   25.5013 C   0  0  0  0  0  0  0  0  0  0  0  0
    7.4149  -13.1006   25.4111 C   0  0  0  0  0  0  0  0  0  0  0  0
    7.5724  -13.8573   26.5427 C   0  0  0  0  0  0  0  0  0  0  0  0
    7.1868  -16.4525   23.4398 C   0  0  0  0  0  0  0  0  0  0  0  0
    7.4256  -17.5686   22.8786 O   0  0  0  0  0  0  0  0  0  0  0  0
    7.2279  -15.3171   22.5740 N   0  0  0  0  0  0  0  0  0  0  0  0
    7.8703  -15.2735   21.2915 C   0  0  1  0  0  0  0  0  0  0  0  0
    7.8417  -13.8437   20.7236 C   0  0  0  0  0  0  0  0  0  0  0  0
    8.5339  -13.7442   19.3985 C   0  0  0  0  0  0  0  0  0  0  0  0
    7.6442  -13.7012   18.2071 C   0  0  0  0  0  0  0  0  0  0  0  0
    8.4979  -13.6438   16.9331 C   0  0  0  0  0  0  0  0  0  0  0  0
    7.6763  -13.5602   15.7601 N   0  0  0  0  0  0  0  0  0  0  0  0
    9.1942  -15.8601   21.1702 C   0  0  0  0  0  0  0  0  0  0  0  0
   10.1161  -15.3226   21.9023 O   0  0  0  0  0  0  0  0  0  0  0  0
    9.6047  -16.9456   20.3549 N   0  0  0  0  0  0  0  0  0  0  0  0
    8.8483  -17.8431   19.5433 C   0  0  0  0  0  0  0  0  0  0  0  0
    9.7643  -18.1232   18.3704 C   0  0  0  0  0  0  0  0  0  0  0  0
   11.0452  -18.4342   19.1538 C   0  0  0  0  0  0  0  0  0  0  0  0
   11.0106  -17.3785   20.2058 C   0  0  1  0  0  0  0  0  0  0  0  0
   11.8359  -16.2516   19.7232 C   0  0  0  0  0  0  0  0  0  0  0  0
   13.1765  -16.1884   20.0222 O   0  0  0  0  0  0  0  0  0  0  0  0
   11.3110  -15.3546   19.0413 O   0  0  0  0  0  0  0  0  0  0  0  0
  2  1  1  1
  2 13  1  0
  3  4  1  0
  3  2  1  0
  4 12  1  0
  4  5  2  0
  5  6  1  0
  6  7  1  0
  7  8  2  0
  9  8  1  0
 10  9  2  0
 11 12  2  0
 11 10  1  0
 12  7  1  0
 13 14  2  0
 15 13  1  0
 15 16  1  0
 16 17  1  1
 18 17  1  0
 19 18  1  0
 20 19  1  0
 21 20  1  0
 22 16  1  0
 22 24  1  0
 23 22  2  0
 24 28  1  0
 25 24  1  0
 25 26  1  0
 26 27  1  0
 28 27  1  0
 28 29  1  6
 29 30  1  0
 31 29  2  0
M  END
$$$$
