WKP.pdb
     RDKit          3D

 31 33  0  0  1  0  0  0  0  0999 V2000
    6.6784  -17.4109   25.9853 N   0  0  0  0  0  0  0  0  0  0  0  0
    7.1523  -16.1841   25.3270 C   0  0  1  0  0  0  0  0  0  0  0  0
    8.4714  -15.7933   25.8928 C   0  0  0  0  0  0  0  0  0  0  0  0
    8.2777  -14.6610   26.8343 C   0  0  0  0  0  0  0  0  0  0  0  0
    8.6415  -14.6574   28.1477 C   0  0  0  0  0  0  0  0  0  0  0  0
    8.3158  -13.4777   28.6721 N   0  0  0  0  0  0  0  0  0  0  0  0
    7.7392  -12.6902   27.7304 C   0  0  0  0  0  0  0  0  0  0  0  0
    7.2414  -11.3972   27.7996 C   0  0  0  0  0  0  0  0  0  0  0  0
    6.7077  -10.8624   26.6503 C   0  0  0  0  0  0  0  0  0  0  0  0
    6.6675  -11.5808   25.4738 C   0  0  0  0  0  0  0  0  0  0  0  0
    7.1741  -12.8679   25.4445 C   0  0  0  0  0  0  0  0  0  0  0  0
    7.7130  -13.4311   26.5716 C   0  0  0  0  0  0  0  0  0  0  0  0
    7.1996  -16.4699   23.8726 C   0  0  0  0  0  0  0  0  0  0  0  0
    7.3195  -17.6637   23.4506 O   0  0  0  0  0  0  0  0  0  0  0  0
    7.1141  -15.4723   22.8539 N   0  0  0  0  0  0  0  0  0  0  0  0
    7.5406  -15.6357   21.4935 C   0  0  1  0  0  0  0  0  0  0  0  0
    7.3227  -14.3347   20.7012 C   0  0  0  0  0  0  0  0  0  0  0  0
    7.3566  -14.5585   19.2201 C   0  0  0  0  0  0  0  0  0  0  0  0
    8.0728  -13.5236   18.4271 C   0  0  0  0  0  0  0  0  0  0  0  0
    8.0067  -13.8846   16.9370 C   0  0  0  0  0  0  0  0  0  0  0  0
    8.6282  -12.8748   16.1294 N   0  0  0  0  0  0  0  0  0  0  0  0
    8.8663  -16.1804   21.2539 C   0  0  0  0  0  0  0  0  0  0  0  0
    9.8554  -15.4469   21.6518 O   0  0  0  0  0  0  0  0  0  0  0  0
    9.2146  -17.4117   20.6423 N   0  0  0  0  0  0  0  0  0  0  0  0
    8.4009  -18.4906   20.1837 C   0  0  0  0  0  0  0  0  0  0  0  0
    9.1421  -19.0059   18.9679 C   0  0  0  0  0  0  0  0  0  0  0  0
   10.5450  -19.0956   19.5802 C   0  0  0  0  0  0  0  0  0  0  0  0
   10.6056  -17.8292   20.3644 C   0  0  1  0  0  0  0  0  0  0  0  0
   11.2743  -16.8202   19.5168 C   0  0  0  0  0  0  0  0  0  0  0  0
   12.6304  -16.8794   19.2972 O   0  0  0  0  0  0  0  0  0  0  0  0
   10.6026  -15.9114   18.9990 O   0  0  0  0  0  0  0  0  0  0  0  0
  2  1  1  1
  2 13  1  0
  3  4  1  0
  3  2  1  0
  4 12  1  0
  4  5  2  0
  5  6  1  0
  6  7  1  0
  7  8  2  0
  9  8  1  0
 10  9  2  0
 11 12  2  0
 11 10  1  0
 12  7  1  0
 13 14  2  0
 15 13  1  0
 15 16  1  0
 16 17  1  1
 18 17  1  0
 19 18  1  0
 20 19  1  0
 21 20  1  0
 22 16  1  0
 22 24  1  0
 23 22  2  0
 24 28  1  0
 25 24  1  0
 25 26  1  0
 26 27  1  0
 28 27  1  0
 28 29  1  6
 29 30  1  0
 31 29  2  0
M  END
$$$$
