WKP.pdb
     RDKit          3D

 31 33  0  0  1  0  0  0  0  0999 V2000
    6.3086  -17.5391   25.8764 N   0  0  0  0  0  0  0  0  0  0  0  0
    6.9784  -16.3301   25.3739 C   0  0  1  0  0  0  0  0  0  0  0  0
    8.2652  -16.1379   26.0949 C   0  0  0  0  0  0  0  0  0  0  0  0
    8.2115  -14.8587   26.8479 C   0  0  0  0  0  0  0  0  0  0  0  0
    8.9010  -14.5884   27.9920 C   0  0  0  0  0  0  0  0  0  0  0  0
    8.6076  -13.3484   28.3780 N   0  0  0  0  0  0  0  0  0  0  0  0
    7.7319  -12.7831   27.5103 C   0  0  0  0  0  0  0  0  0  0  0  0
    7.1441  -11.5266   27.4930 C   0  0  0  0  0  0  0  0  0  0  0  0
    6.2808  -11.2463   26.4597 C   0  0  0  0  0  0  0  0  0  0  0  0
    6.0081  -12.1756   25.4778 C   0  0  0  0  0  0  0  0  0  0  0  0
    6.6141  -13.4182   25.5295 C   0  0  0  0  0  0  0  0  0  0  0  0
    7.4795  -13.7304   26.5452 C   0  0  0  0  0  0  0  0  0  0  0  0
    7.1470  -16.5109   23.9117 C   0  0  0  0  0  0  0  0  0  0  0  0
    7.2491  -17.6754   23.4104 O   0  0  0  0  0  0  0  0  0  0  0  0
    7.2035  -15.4382   22.9701 N   0  0  0  0  0  0  0  0  0  0  0  0
    7.8098  -15.5044   21.6711 C   0  0  1  0  0  0  0  0  0  0  0  0
    7.6934  -14.1484   20.9531 C   0  0  0  0  0  0  0  0  0  0  0  0
    8.2302  -14.1973   19.5551 C   0  0  0  0  0  0  0  0  0  0  0  0
    8.0928  -12.9434   18.7666 C   0  0  0  0  0  0  0  0  0  0  0  0
    8.6233  -13.1725   17.3450 C   0  0  0  0  0  0  0  0  0  0  0  0
    7.6605  -13.8623   16.5356 N   0  0  0  0  0  0  0  0  0  0  0  0
    9.1586  -16.0363   21.5730 C   0  0  0  0  0  0  0  0  0  0  0  0
   10.0686  -15.3832   22.2211 O   0  0  0  0  0  0  0  0  0  0  0  0
    9.6046  -17.1785   20.8604 N   0  0  0  0  0  0  0  0  0  0  0  0
    8.8901  -18.1165   20.0566 C   0  0  0  0  0  0  0  0  0  0  0  0
    9.8804  -18.4857   18.9721 C   0  0  0  0  0  0  0  0  0  0  0  0
   11.0975  -18.7627   19.8627 C   0  0  0  0  0  0  0  0  0  0  0  0
   11.0092  -17.6400   20.8395 C   0  0  1  0  0  0  0  0  0  0  0  0
   11.8871  -16.5589   20.3452 C   0  0  0  0  0  0  0  0  0  0  0  0
   13.2545  -16.6727   20.4343 O   0  0  0  0  0  0  0  0  0  0  0  0
   11.3823  -15.5391   19.8448 O   0  0  0  0  0  0  0  0  0  0  0  0
  2  1  1  1
  2 13  1  0
  3  4  1  0
  3  2  1  0
  4 12  1  0
  4  5  2  0
  5  6  1  0
  6  7  1  0
  7  8  2  0
  9  8  1  0
 10  9  2  0
 11 12  2  0
 11 10  1  0
 12  7  1  0
 13 14  2  0
 15 13  1  0
 15 16  1  0
 16 17  1  1
 18 17  1  0
 19 18  1  0
 20 19  1  0
 21 20  1  0
 22 16  1  0
 22 24  1  0
 23 22  2  0
 24 28  1  0
 25 24  1  0
 25 26  1  0
 26 27  1  0
 28 27  1  0
 28 29  1  6
 29 30  1  0
 31 29  2  0
M  END
$$$$
