WKP.pdb
     RDKit          3D

 31 33  0  0  1  0  0  0  0  0999 V2000
    6.0333  -17.5301   24.4978 N   0  0  0  0  0  0  0  0  0  0  0  0
    6.8188  -16.3230   24.1997 C   0  0  1  0  0  0  0  0  0  0  0  0
    7.5354  -15.8801   25.4257 C   0  0  0  0  0  0  0  0  0  0  0  0
    6.7828  -14.7611   26.0484 C   0  0  0  0  0  0  0  0  0  0  0  0
    5.6186  -14.8865   26.7458 C   0  0  0  0  0  0  0  0  0  0  0  0
    5.2399  -13.6773   27.1548 N   0  0  0  0  0  0  0  0  0  0  0  0
    6.1325  -12.7431   26.7424 C   0  0  0  0  0  0  0  0  0  0  0  0
    6.1656  -11.3679   26.9223 C   0  0  0  0  0  0  0  0  0  0  0  0
    7.2236  -10.6832   26.3714 C   0  0  0  0  0  0  0  0  0  0  0  0
    8.2142  -11.3352   25.6673 C   0  0  0  0  0  0  0  0  0  0  0  0
    8.1460  -12.7080   25.5093 C   0  0  0  0  0  0  0  0  0  0  0  0
    7.1056  -13.4209   26.0453 C   0  0  0  0  0  0  0  0  0  0  0  0
    7.7290  -16.6702   23.0817 C   0  0  0  0  0  0  0  0  0  0  0  0
    8.1295  -17.8665   22.9200 O   0  0  0  0  0  0  0  0  0  0  0  0
    8.2164  -15.7324   22.1207 N   0  0  0  0  0  0  0  0  0  0  0  0
    9.2370  -15.9956   21.1469 C   0  0  1  0  0  0  0  0  0  0  0  0
    9.3900  -14.7996   20.1909 C   0  0  0  0  0  0  0  0  0  0  0  0
    8.4955  -14.9103   18.9940 C   0  0  0  0  0  0  0  0  0  0  0  0
    8.6197  -13.8179   17.9920 C   0  0  0  0  0  0  0  0  0  0  0  0
    7.6086  -14.0446   16.8601 C   0  0  0  0  0  0  0  0  0  0  0  0
    7.8129  -13.1153   15.7865 N   0  0  0  0  0  0  0  0  0  0  0  0
   10.5307  -16.4576   21.6209 C   0  0  0  0  0  0  0  0  0  0  0  0
   11.1338  -15.6766   22.4582 O   0  0  0  0  0  0  0  0  0  0  0  0
   11.2153  -17.6535   21.2854 N   0  0  0  0  0  0  0  0  0  0  0  0
   10.8376  -18.7417   20.4431 C   0  0  0  0  0  0  0  0  0  0  0  0
   12.1467  -19.1874   19.8259 C   0  0  0  0  0  0  0  0  0  0  0  0
   12.9889  -19.2521   21.1056 C   0  0  0  0  0  0  0  0  0  0  0  0
   12.5500  -18.0137   21.8099 C   0  0  1  0  0  0  0  0  0  0  0  0
   13.5241  -16.9527   21.4793 C   0  0  0  0  0  0  0  0  0  0  0  0
   14.7613  -16.9278   22.0788 O   0  0  0  0  0  0  0  0  0  0  0  0
   13.2197  -16.0766   20.6517 O   0  0  0  0  0  0  0  0  0  0  0  0
  2  1  1  1
  2 13  1  0
  3  4  1  0
  3  2  1  0
  4 12  1  0
  4  5  2  0
  5  6  1  0
  6  7  1  0
  7  8  2  0
  9  8  1  0
 10  9  2  0
 11 12  2  0
 11 10  1  0
 12  7  1  0
 13 14  2  0
 15 13  1  0
 15 16  1  0
 16 17  1  1
 18 17  1  0
 19 18  1  0
 20 19  1  0
 21 20  1  0
 22 16  1  0
 22 24  1  0
 23 22  2  0
 24 28  1  0
 25 24  1  0
 25 26  1  0
 26 27  1  0
 28 27  1  0
 28 29  1  6
 29 30  1  0
 31 29  2  0
M  END
$$$$
