WKP.pdb
     RDKit          3D

 31 33  0  0  1  0  0  0  0  0999 V2000
    6.3303  -17.1736   25.4532 N   0  0  0  0  0  0  0  0  0  0  0  0
    7.0315  -15.9953   24.9213 C   0  0  1  0  0  0  0  0  0  0  0  0
    8.3328  -15.8316   25.6232 C   0  0  0  0  0  0  0  0  0  0  0  0
    8.1944  -14.7762   26.6590 C   0  0  0  0  0  0  0  0  0  0  0  0
    8.6208  -14.8780   27.9494 C   0  0  0  0  0  0  0  0  0  0  0  0
    8.3308  -13.7418   28.5801 N   0  0  0  0  0  0  0  0  0  0  0  0
    7.7166  -12.8796   27.7323 C   0  0  0  0  0  0  0  0  0  0  0  0
    7.2340  -11.5937   27.9270 C   0  0  0  0  0  0  0  0  0  0  0  0
    6.6504  -10.9673   26.8505 C   0  0  0  0  0  0  0  0  0  0  0  0
    6.5476  -11.5904   25.6245 C   0  0  0  0  0  0  0  0  0  0  0  0
    7.0410  -12.8736   25.4696 C   0  0  0  0  0  0  0  0  0  0  0  0
    7.6284  -13.5266   26.5215 C   0  0  0  0  0  0  0  0  0  0  0  0
    7.1757  -16.2066   23.4606 C   0  0  0  0  0  0  0  0  0  0  0  0
    7.3329  -17.3768   22.9877 O   0  0  0  0  0  0  0  0  0  0  0  0
    7.1483  -15.1589   22.4900 N   0  0  0  0  0  0  0  0  0  0  0  0
    7.8035  -15.1917   21.2137 C   0  0  1  0  0  0  0  0  0  0  0  0
    7.8686  -13.7797   20.6057 C   0  0  0  0  0  0  0  0  0  0  0  0
    8.5832  -13.7600   19.2889 C   0  0  0  0  0  0  0  0  0  0  0  0
    7.7217  -13.9047   18.0848 C   0  0  0  0  0  0  0  0  0  0  0  0
    8.6010  -13.9327   16.8273 C   0  0  0  0  0  0  0  0  0  0  0  0
    7.8059  -14.0560   15.6396 N   0  0  0  0  0  0  0  0  0  0  0  0
    9.0895  -15.8621   21.1230 C   0  0  0  0  0  0  0  0  0  0  0  0
   10.0293  -15.3783   21.8697 O   0  0  0  0  0  0  0  0  0  0  0  0
    9.4460  -16.9780   20.3235 N   0  0  0  0  0  0  0  0  0  0  0  0
    8.6563  -17.8099   19.4746 C   0  0  0  0  0  0  0  0  0  0  0  0
    9.5992  -18.1651   18.3442 C   0  0  0  0  0  0  0  0  0  0  0  0
   10.8124  -18.5811   19.1846 C   0  0  0  0  0  0  0  0  0  0  0  0
   10.8167  -17.5259   20.2378 C   0  0  1  0  0  0  0  0  0  0  0  0
   11.7538  -16.4714   19.7979 C   0  0  0  0  0  0  0  0  0  0  0  0
   13.1103  -16.6967   19.7985 O   0  0  0  0  0  0  0  0  0  0  0  0
   11.3092  -15.3722   19.4246 O   0  0  0  0  0  0  0  0  0  0  0  0
  2  1  1  1
  2 13  1  0
  3  4  1  0
  3  2  1  0
  4 12  1  0
  4  5  2  0
  5  6  1  0
  6  7  1  0
  7  8  2  0
  9  8  1  0
 10  9  2  0
 11 12  2  0
 11 10  1  0
 12  7  1  0
 13 14  2  0
 15 13  1  0
 15 16  1  0
 16 17  1  1
 18 17  1  0
 19 18  1  0
 20 19  1  0
 21 20  1  0
 22 16  1  0
 22 24  1  0
 23 22  2  0
 24 28  1  0
 25 24  1  0
 25 26  1  0
 26 27  1  0
 28 27  1  0
 28 29  1  6
 29 30  1  0
 31 29  2  0
M  END
$$$$
