WKP.pdb
     RDKit          3D

 31 33  0  0  1  0  0  0  0  0999 V2000
    6.0425  -18.2353   24.6038 N   0  0  0  0  0  0  0  0  0  0  0  0
    6.6387  -16.9002   24.4461 C   0  0  1  0  0  0  0  0  0  0  0  0
    7.2127  -16.4549   25.7442 C   0  0  0  0  0  0  0  0  0  0  0  0
    6.5611  -15.1835   26.1506 C   0  0  0  0  0  0  0  0  0  0  0  0
    5.2618  -15.0538   26.5407 C   0  0  0  0  0  0  0  0  0  0  0  0
    5.0346  -13.7744   26.8314 N   0  0  0  0  0  0  0  0  0  0  0  0
    6.1618  -13.0444   26.6421 C   0  0  0  0  0  0  0  0  0  0  0  0
    6.4133  -11.6905   26.8105 C   0  0  0  0  0  0  0  0  0  0  0  0
    7.6835  -11.2435   26.5304 C   0  0  0  0  0  0  0  0  0  0  0  0
    8.6705  -12.1047   26.0989 C   0  0  0  0  0  0  0  0  0  0  0  0
    8.3809  -13.4486   25.9431 C   0  0  0  0  0  0  0  0  0  0  0  0
    7.1256  -13.9274   26.2134 C   0  0  0  0  0  0  0  0  0  0  0  0
    7.6478  -17.0074   23.3647 C   0  0  0  0  0  0  0  0  0  0  0  0
    8.3245  -18.0736   23.2136 O   0  0  0  0  0  0  0  0  0  0  0  0
    7.9376  -15.9673   22.4294 N   0  0  0  0  0  0  0  0  0  0  0  0
    9.0421  -15.9582   21.5134 C   0  0  1  0  0  0  0  0  0  0  0  0
    9.0869  -14.6302   20.7374 C   0  0  0  0  0  0  0  0  0  0  0  0
    8.3026  -14.6901   19.4622 C   0  0  0  0  0  0  0  0  0  0  0  0
    8.5216  -13.5631   18.5161 C   0  0  0  0  0  0  0  0  0  0  0  0
    7.5380  -13.6808   17.3440 C   0  0  0  0  0  0  0  0  0  0  0  0
    7.7385  -12.6289   16.3894 N   0  0  0  0  0  0  0  0  0  0  0  0
   10.3558  -16.3124   22.0237 C   0  0  0  0  0  0  0  0  0  0  0  0
   10.8783  -15.4746   22.8603 O   0  0  0  0  0  0  0  0  0  0  0  0
   11.1370  -17.4577   21.7242 N   0  0  0  0  0  0  0  0  0  0  0  0
   10.8479  -18.6028   20.9233 C   0  0  0  0  0  0  0  0  0  0  0  0
   12.1865  -18.9584   20.3111 C   0  0  0  0  0  0  0  0  0  0  0  0
   13.0380  -18.9070   21.5852 C   0  0  0  0  0  0  0  0  0  0  0  0
   12.5001  -17.6858   22.2498 C   0  0  1  0  0  0  0  0  0  0  0  0
   13.3795  -16.5590   21.8746 C   0  0  0  0  0  0  0  0  0  0  0  0
   14.6216  -16.4205   22.4478 O   0  0  0  0  0  0  0  0  0  0  0  0
   12.9904  -15.7309   21.0331 O   0  0  0  0  0  0  0  0  0  0  0  0
  2  1  1  1
  2 13  1  0
  3  4  1  0
  3  2  1  0
  4 12  1  0
  4  5  2  0
  5  6  1  0
  6  7  1  0
  7  8  2  0
  9  8  1  0
 10  9  2  0
 11 12  2  0
 11 10  1  0
 12  7  1  0
 13 14  2  0
 15 13  1  0
 15 16  1  0
 16 17  1  1
 18 17  1  0
 19 18  1  0
 20 19  1  0
 21 20  1  0
 22 16  1  0
 22 24  1  0
 23 22  2  0
 24 28  1  0
 25 24  1  0
 25 26  1  0
 26 27  1  0
 28 27  1  0
 28 29  1  6
 29 30  1  0
 31 29  2  0
M  END
$$$$
