WKP.pdb
     RDKit          3D

 31 33  0  0  1  0  0  0  0  0999 V2000
    8.0144  -17.2914   21.8578 N   0  0  0  0  0  0  0  0  0  0  0  0
    7.4807  -16.0530   22.4446 C   0  0  1  0  0  0  0  0  0  0  0  0
    6.3235  -15.5790   21.6391 C   0  0  0  0  0  0  0  0  0  0  0  0
    6.8200  -15.0519   20.3423 C   0  0  0  0  0  0  0  0  0  0  0  0
    6.7126  -15.6865   19.1410 C   0  0  0  0  0  0  0  0  0  0  0  0
    7.2650  -14.9158   18.2063 N   0  0  0  0  0  0  0  0  0  0  0  0
    7.7412  -13.7742   18.7625 C   0  0  0  0  0  0  0  0  0  0  0  0
    8.3889  -12.6840   18.1999 C   0  0  0  0  0  0  0  0  0  0  0  0
    8.7550  -11.6613   19.0435 C   0  0  0  0  0  0  0  0  0  0  0  0
    8.4901  -11.7144   20.3959 C   0  0  0  0  0  0  0  0  0  0  0  0
    7.8420  -12.8188   20.9197 C   0  0  0  0  0  0  0  0  0  0  0  0
    7.4633  -13.8555   20.1073 C   0  0  0  0  0  0  0  0  0  0  0  0
    7.1282  -16.3634   23.8512 C   0  0  0  0  0  0  0  0  0  0  0  0
    6.5187  -15.5092   24.5699 O   0  0  0  0  0  0  0  0  0  0  0  0
    7.4249  -17.6008   24.5002 N   0  0  0  0  0  0  0  0  0  0  0  0
    7.9304  -17.7377   25.8363 C   0  0  1  0  0  0  0  0  0  0  0  0
    8.0917  -19.2238   26.2011 C   0  0  0  0  0  0  0  0  0  0  0  0
    8.5983  -19.4146   27.5982 C   0  0  0  0  0  0  0  0  0  0  0  0
    7.9007  -20.4543   28.4015 C   0  0  0  0  0  0  0  0  0  0  0  0
    8.6230  -20.6338   29.7435 C   0  0  0  0  0  0  0  0  0  0  0  0
    8.6408  -19.4102   30.4922 N   0  0  0  0  0  0  0  0  0  0  0  0
    9.1134  -16.9764   26.2004 C   0  0  0  0  0  0  0  0  0  0  0  0
   10.2467  -17.5084   25.8729 O   0  0  0  0  0  0  0  0  0  0  0  0
    9.1851  -15.7262   26.8663 N   0  0  0  0  0  0  0  0  0  0  0  0
    8.1600  -14.8073   27.2422 C   0  0  0  0  0  0  0  0  0  0  0  0
    8.6651  -14.2207   28.5437 C   0  0  0  0  0  0  0  0  0  0  0  0
   10.0948  -13.8873   28.1011 C   0  0  0  0  0  0  0  0  0  0  0  0
   10.4490  -15.1009   27.3110 C   0  0  1  0  0  0  0  0  0  0  0  0
   11.1730  -16.0174   28.2164 C   0  0  0  0  0  0  0  0  0  0  0  0
   12.4582  -15.7353   28.6156 O   0  0  0  0  0  0  0  0  0  0  0  0
   10.6127  -17.0514   28.6190 O   0  0  0  0  0  0  0  0  0  0  0  0
  2  1  1  6
  2 13  1  0
  3  4  1  0
  3  2  1  0
  4 12  1  0
  4  5  2  0
  5  6  1  0
  6  7  1  0
  7  8  2  0
  9  8  1  0
 10  9  2  0
 11 12  2  0
 11 10  1  0
 12  7  1  0
 13 14  2  0
 15 13  1  0
 15 16  1  0
 16 17  1  6
 18 17  1  0
 19 18  1  0
 20 19  1  0
 21 20  1  0
 22 16  1  0
 22 24  1  0
 23 22  2  0
 24 28  1  0
 25 24  1  0
 25 26  1  0
 26 27  1  0
 28 27  1  0
 28 29  1  1
 29 30  1  0
 31 29  2  0
M  END
$$$$
