WKP.pdb
     RDKit          3D

 31 33  0  0  1  0  0  0  0  0999 V2000
    6.2829  -18.5547   25.1933 N   0  0  0  0  0  0  0  0  0  0  0  0
    6.5383  -17.1396   24.8849 C   0  0  1  0  0  0  0  0  0  0  0  0
    7.4152  -16.5522   25.9332 C   0  0  0  0  0  0  0  0  0  0  0  0
    6.8559  -15.2419   26.3532 C   0  0  0  0  0  0  0  0  0  0  0  0
    5.5495  -15.0050   26.6609 C   0  0  0  0  0  0  0  0  0  0  0  0
    5.4208  -13.7224   26.9944 N   0  0  0  0  0  0  0  0  0  0  0  0
    6.6209  -13.0957   26.9150 C   0  0  0  0  0  0  0  0  0  0  0  0
    6.9831  -11.7795   27.1622 C   0  0  0  0  0  0  0  0  0  0  0  0
    8.3057  -11.4442   26.9888 C   0  0  0  0  0  0  0  0  0  0  0  0
    9.2376  -12.3774   26.5852 C   0  0  0  0  0  0  0  0  0  0  0  0
    8.8375  -13.6805   26.3485 C   0  0  0  0  0  0  0  0  0  0  0  0
    7.5275  -14.0484   26.5116 C   0  0  0  0  0  0  0  0  0  0  0  0
    7.1372  -17.0986   23.5289 C   0  0  0  0  0  0  0  0  0  0  0  0
    8.0244  -17.9433   23.1868 O   0  0  0  0  0  0  0  0  0  0  0  0
    6.7843  -16.1485   22.5224 N   0  0  0  0  0  0  0  0  0  0  0  0
    7.6760  -15.6198   21.5301 C   0  0  1  0  0  0  0  0  0  0  0  0
    7.4291  -14.1139   21.3322 C   0  0  0  0  0  0  0  0  0  0  0  0
    8.2514  -13.5447   20.2166 C   0  0  0  0  0  0  0  0  0  0  0  0
    7.7105  -13.7502   18.8461 C   0  0  0  0  0  0  0  0  0  0  0  0
    8.6760  -13.1437   17.8190 C   0  0  0  0  0  0  0  0  0  0  0  0
    8.1953  -13.3301   16.4803 N   0  0  0  0  0  0  0  0  0  0  0  0
    9.0943  -15.9060   21.6641 C   0  0  0  0  0  0  0  0  0  0  0  0
    9.7028  -15.2920   22.6271 O   0  0  0  0  0  0  0  0  0  0  0  0
    9.8958  -16.7719   20.8771 N   0  0  0  0  0  0  0  0  0  0  0  0
    9.5438  -17.6819   19.8357 C   0  0  0  0  0  0  0  0  0  0  0  0
   10.7258  -17.6191   18.8912 C   0  0  0  0  0  0  0  0  0  0  0  0
   11.8482  -17.7782   19.9237 C   0  0  0  0  0  0  0  0  0  0  0  0
   11.3613  -16.9001   21.0256 C   0  0  1  0  0  0  0  0  0  0  0  0
   12.0024  -15.5802   20.8502 C   0  0  0  0  0  0  0  0  0  0  0  0
   11.4216  -14.6210   20.0544 O   0  0  0  0  0  0  0  0  0  0  0  0
   13.0757  -15.3378   21.4284 O   0  0  0  0  0  0  0  0  0  0  0  0
  2  1  1  1
  2 13  1  0
  3  4  1  0
  3  2  1  0
  4 12  1  0
  4  5  2  0
  5  6  1  0
  6  7  1  0
  7  8  2  0
  9  8  1  0
 10  9  2  0
 11 12  2  0
 11 10  1  0
 12  7  1  0
 13 14  2  0
 15 13  1  0
 15 16  1  0
 16 17  1  1
 18 17  1  0
 19 18  1  0
 20 19  1  0
 21 20  1  0
 22 16  1  0
 22 24  1  0
 23 22  2  0
 24 28  1  0
 25 24  1  0
 25 26  1  0
 26 27  1  0
 28 27  1  0
 28 29  1  6
 29 30  1  0
 31 29  2  0
M  END
$$$$
