WKP.pdb
     RDKit          3D

 31 33  0  0  1  0  0  0  0  0999 V2000
    6.0312  -17.9457   25.1786 N   0  0  0  0  0  0  0  0  0  0  0  0
    6.5498  -16.6441   24.7316 C   0  0  1  0  0  0  0  0  0  0  0  0
    7.4582  -16.0872   25.7696 C   0  0  0  0  0  0  0  0  0  0  0  0
    6.8012  -14.9203   26.4119 C   0  0  0  0  0  0  0  0  0  0  0  0
    5.7440  -14.9848   27.2696 C   0  0  0  0  0  0  0  0  0  0  0  0
    5.4280  -13.7466   27.6433 N   0  0  0  0  0  0  0  0  0  0  0  0
    6.2572  -12.8527   27.0492 C   0  0  0  0  0  0  0  0  0  0  0  0
    6.3178  -11.4690   27.1286 C   0  0  0  0  0  0  0  0  0  0  0  0
    7.2912  -10.8353   26.3920 C   0  0  0  0  0  0  0  0  0  0  0  0
    8.1738  -11.5446   25.6046 C   0  0  0  0  0  0  0  0  0  0  0  0
    8.0815  -12.9240   25.5516 C   0  0  0  0  0  0  0  0  0  0  0  0
    7.1234  -13.5871   26.2729 C   0  0  0  0  0  0  0  0  0  0  0  0
    7.2197  -16.8749   23.4289 C   0  0  0  0  0  0  0  0  0  0  0  0
    7.9831  -17.8784   23.2619 O   0  0  0  0  0  0  0  0  0  0  0  0
    7.0718  -16.0287   22.2876 N   0  0  0  0  0  0  0  0  0  0  0  0
    8.0618  -15.8285   21.2683 C   0  0  1  0  0  0  0  0  0  0  0  0
    7.9134  -14.4314   20.6408 C   0  0  0  0  0  0  0  0  0  0  0  0
    8.7262  -14.2800   19.3913 C   0  0  0  0  0  0  0  0  0  0  0  0
    8.0289  -13.6457   18.2405 C   0  0  0  0  0  0  0  0  0  0  0  0
    8.9052  -13.7590   16.9858 C   0  0  0  0  0  0  0  0  0  0  0  0
    8.2256  -13.2504   15.8293 N   0  0  0  0  0  0  0  0  0  0  0  0
    9.4486  -16.1114   21.5978 C   0  0  0  0  0  0  0  0  0  0  0  0
   10.0017  -15.3018   22.4424 O   0  0  0  0  0  0  0  0  0  0  0  0
   10.2719  -17.1602   21.1145 N   0  0  0  0  0  0  0  0  0  0  0  0
    9.9717  -18.2701   20.2693 C   0  0  0  0  0  0  0  0  0  0  0  0
   11.2423  -18.4638   19.4685 C   0  0  0  0  0  0  0  0  0  0  0  0
   12.2470  -18.4228   20.6261 C   0  0  0  0  0  0  0  0  0  0  0  0
   11.7059  -17.3014   21.4460 C   0  0  1  0  0  0  0  0  0  0  0  0
   12.4364  -16.0785   21.0525 C   0  0  0  0  0  0  0  0  0  0  0  0
   13.6749  -15.8028   21.5824 O   0  0  0  0  0  0  0  0  0  0  0  0
   11.9245  -15.2943   20.2352 O   0  0  0  0  0  0  0  0  0  0  0  0
  2  1  1  1
  2 13  1  0
  3  4  1  0
  3  2  1  0
  4 12  1  0
  4  5  2  0
  5  6  1  0
  6  7  1  0
  7  8  2  0
  9  8  1  0
 10  9  2  0
 11 12  2  0
 11 10  1  0
 12  7  1  0
 13 14  2  0
 15 13  1  0
 15 16  1  0
 16 17  1  1
 18 17  1  0
 19 18  1  0
 20 19  1  0
 21 20  1  0
 22 16  1  0
 22 24  1  0
 23 22  2  0
 24 28  1  0
 25 24  1  0
 25 26  1  0
 26 27  1  0
 28 27  1  0
 28 29  1  6
 29 30  1  0
 31 29  2  0
M  END
$$$$
