WKP.pdb
     RDKit          3D

 31 33  0  0  1  0  0  0  0  0999 V2000
    9.2851  -13.2823   24.6807 N   0  0  0  0  0  0  0  0  0  0  0  0
    9.2869  -14.7179   24.3616 C   0  0  1  0  0  0  0  0  0  0  0  0
    8.1007  -15.3672   24.9813 C   0  0  0  0  0  0  0  0  0  0  0  0
    7.8725  -14.7763   26.3247 C   0  0  0  0  0  0  0  0  0  0  0  0
    6.6840  -14.2883   26.7792 C   0  0  0  0  0  0  0  0  0  0  0  0
    6.8581  -13.8444   28.0224 N   0  0  0  0  0  0  0  0  0  0  0  0
    8.1453  -14.0275   28.4084 C   0  0  0  0  0  0  0  0  0  0  0  0
    8.7946  -13.7284   29.5974 C   0  0  0  0  0  0  0  0  0  0  0  0
   10.1310  -14.0416   29.6844 C   0  0  0  0  0  0  0  0  0  0  0  0
   10.8021  -14.6298   28.6328 C   0  0  0  0  0  0  0  0  0  0  0  0
   10.1198  -14.9128   27.4630 C   0  0  0  0  0  0  0  0  0  0  0  0
    8.7878  -14.6139   27.3428 C   0  0  0  0  0  0  0  0  0  0  0  0
    9.3096  -14.8273   22.8828 C   0  0  0  0  0  0  0  0  0  0  0  0
    8.3948  -14.2923   22.1796 O   0  0  0  0  0  0  0  0  0  0  0  0
   10.3214  -15.5119   22.1426 N   0  0  0  0  0  0  0  0  0  0  0  0
   10.7262  -15.1974   20.8023 C   0  0  1  0  0  0  0  0  0  0  0  0
   12.1275  -15.7651   20.5160 C   0  0  0  0  0  0  0  0  0  0  0  0
   12.5617  -15.5219   19.1027 C   0  0  0  0  0  0  0  0  0  0  0  0
   13.8657  -14.8250   18.9389 C   0  0  0  0  0  0  0  0  0  0  0  0
   14.1744  -14.6623   17.4445 C   0  0  0  0  0  0  0  0  0  0  0  0
   15.4508  -14.0393   17.2422 N   0  0  0  0  0  0  0  0  0  0  0  0
    9.8049  -15.5032   19.7208 C   0  0  0  0  0  0  0  0  0  0  0  0
    9.6424  -16.7602   19.4598 O   0  0  0  0  0  0  0  0  0  0  0  0
    9.0610  -14.6021   18.9170 N   0  0  0  0  0  0  0  0  0  0  0  0
    8.8863  -13.1891   19.0136 C   0  0  0  0  0  0  0  0  0  0  0  0
    8.7888  -12.7412   17.5704 C   0  0  0  0  0  0  0  0  0  0  0  0
    7.7642  -13.7726   17.0829 C   0  0  0  0  0  0  0  0  0  0  0  0
    8.2571  -15.0134   17.7462 C   0  0  1  0  0  0  0  0  0  0  0  0
    9.1129  -15.7214   16.7715 C   0  0  0  0  0  0  0  0  0  0  0  0
    8.5583  -16.3525   15.6830 O   0  0  0  0  0  0  0  0  0  0  0  0
   10.3443  -15.7447   16.9394 O   0  0  0  0  0  0  0  0  0  0  0  0
  2  1  1  6
  2 13  1  0
  3  4  1  0
  3  2  1  0
  4 12  1  0
  4  5  2  0
  5  6  1  0
  6  7  1  0
  7  8  2  0
  9  8  1  0
 10  9  2  0
 11 12  2  0
 11 10  1  0
 12  7  1  0
 13 14  2  0
 15 13  1  0
 15 16  1  0
 16 17  1  6
 18 17  1  0
 19 18  1  0
 20 19  1  0
 21 20  1  0
 22 16  1  0
 22 24  1  0
 23 22  2  0
 24 28  1  0
 25 24  1  0
 25 26  1  0
 26 27  1  0
 28 27  1  0
 28 29  1  6
 29 30  1  0
 31 29  2  0
M  END
$$$$
