WKP.pdb
     RDKit          3D

 31 33  0  0  1  0  0  0  0  0999 V2000
    6.9627  -18.3510   24.8780 N   0  0  0  0  0  0  0  0  0  0  0  0
    7.0123  -16.9230   24.5296 C   0  0  1  0  0  0  0  0  0  0  0  0
    7.7846  -16.1847   25.5645 C   0  0  0  0  0  0  0  0  0  0  0  0
    6.9213  -15.1273   26.1498 C   0  0  0  0  0  0  0  0  0  0  0  0
    5.6375  -15.3027   26.5724 C   0  0  0  0  0  0  0  0  0  0  0  0
    5.1844  -14.1405   27.0381 N   0  0  0  0  0  0  0  0  0  0  0  0
    6.1448  -13.1885   26.9342 C   0  0  0  0  0  0  0  0  0  0  0  0
    6.1424  -11.8456   27.2822 C   0  0  0  0  0  0  0  0  0  0  0  0
    7.2929  -11.1293   27.0477 C   0  0  0  0  0  0  0  0  0  0  0  0
    8.4067  -11.7200   26.4888 C   0  0  0  0  0  0  0  0  0  0  0  0
    8.3704  -13.0622   26.1552 C   0  0  0  0  0  0  0  0  0  0  0  0
    7.2402  -13.8052   26.3754 C   0  0  0  0  0  0  0  0  0  0  0  0
    7.6113  -16.8335   23.1759 C   0  0  0  0  0  0  0  0  0  0  0  0
    8.5268  -17.6406   22.8180 O   0  0  0  0  0  0  0  0  0  0  0  0
    7.2280  -15.8748   22.1888 N   0  0  0  0  0  0  0  0  0  0  0  0
    8.0408  -15.4480   21.0858 C   0  0  1  0  0  0  0  0  0  0  0  0
    7.6395  -14.0317   20.6379 C   0  0  0  0  0  0  0  0  0  0  0  0
    8.4178  -13.5712   19.4433 C   0  0  0  0  0  0  0  0  0  0  0  0
    7.8322  -13.9147   18.1197 C   0  0  0  0  0  0  0  0  0  0  0  0
    8.7223  -13.3500   17.0044 C   0  0  0  0  0  0  0  0  0  0  0  0
    8.2484  -13.7467   15.7098 N   0  0  0  0  0  0  0  0  0  0  0  0
    9.4833  -15.5693   21.2130 C   0  0  0  0  0  0  0  0  0  0  0  0
   10.1216  -14.4675   21.4439 O   0  0  0  0  0  0  0  0  0  0  0  0
   10.2800  -16.7388   21.1182 N   0  0  0  0  0  0  0  0  0  0  0  0
    9.9132  -18.1103   20.9731 C   0  0  0  0  0  0  0  0  0  0  0  0
   11.0181  -18.6870   20.1131 C   0  0  0  0  0  0  0  0  0  0  0  0
   12.2195  -18.1230   20.8811 C   0  0  0  0  0  0  0  0  0  0  0  0
   11.7576  -16.7359   21.1728 C   0  0  1  0  0  0  0  0  0  0  0  0
   12.2988  -15.8613   20.1117 C   0  0  0  0  0  0  0  0  0  0  0  0
   13.5523  -15.3090   20.2325 O   0  0  0  0  0  0  0  0  0  0  0  0
   11.6130  -15.6247   19.1024 O   0  0  0  0  0  0  0  0  0  0  0  0
  2  1  1  1
  2 13  1  0
  3  4  1  0
  3  2  1  0
  4 12  1  0
  4  5  2  0
  5  6  1  0
  6  7  1  0
  7  8  2  0
  9  8  1  0
 10  9  2  0
 11 12  2  0
 11 10  1  0
 12  7  1  0
 13 14  2  0
 15 13  1  0
 15 16  1  0
 16 17  1  1
 18 17  1  0
 19 18  1  0
 20 19  1  0
 21 20  1  0
 22 16  1  0
 22 24  1  0
 23 22  2  0
 24 28  1  0
 25 24  1  0
 25 26  1  0
 26 27  1  0
 28 27  1  0
 28 29  1  6
 29 30  1  0
 31 29  2  0
M  END
$$$$
