WKP.pdb
     RDKit          3D

 31 33  0  0  1  0  0  0  0  0999 V2000
    6.0336  -17.6240   24.8322 N   0  0  0  0  0  0  0  0  0  0  0  0
    6.6313  -16.3399   24.4365 C   0  0  1  0  0  0  0  0  0  0  0  0
    7.5792  -15.8865   25.4894 C   0  0  0  0  0  0  0  0  0  0  0  0
    6.9630  -14.7664   26.2455 C   0  0  0  0  0  0  0  0  0  0  0  0
    5.8762  -14.8703   27.0613 C   0  0  0  0  0  0  0  0  0  0  0  0
    5.6129  -13.6675   27.5680 N   0  0  0  0  0  0  0  0  0  0  0  0
    6.5066  -12.7587   27.1044 C   0  0  0  0  0  0  0  0  0  0  0  0
    6.6364  -11.3987   27.3458 C   0  0  0  0  0  0  0  0  0  0  0  0
    7.6652  -10.7396   26.7142 C   0  0  0  0  0  0  0  0  0  0  0  0
    8.5351  -11.4017   25.8734 C   0  0  0  0  0  0  0  0  0  0  0  0
    8.3730  -12.7587   25.6578 C   0  0  0  0  0  0  0  0  0  0  0  0
    7.3585  -13.4460   26.2712 C   0  0  0  0  0  0  0  0  0  0  0  0
    7.2778  -16.5568   23.1196 C   0  0  0  0  0  0  0  0  0  0  0  0
    7.9988  -17.5839   22.9131 O   0  0  0  0  0  0  0  0  0  0  0  0
    7.1518  -15.6706   22.0063 N   0  0  0  0  0  0  0  0  0  0  0  0
    8.0538  -15.6029   20.8923 C   0  0  1  0  0  0  0  0  0  0  0  0
    7.8865  -14.2686   20.1445 C   0  0  0  0  0  0  0  0  0  0  0  0
    8.6934  -14.2187   18.8830 C   0  0  0  0  0  0  0  0  0  0  0  0
    7.9308  -13.9244   17.6402 C   0  0  0  0  0  0  0  0  0  0  0  0
    8.8837  -13.9493   16.4375 C   0  0  0  0  0  0  0  0  0  0  0  0
    8.1712  -13.7662   15.2058 N   0  0  0  0  0  0  0  0  0  0  0  0
    9.4565  -15.8991   21.1301 C   0  0  0  0  0  0  0  0  0  0  0  0
   10.1144  -15.0055   21.7960 O   0  0  0  0  0  0  0  0  0  0  0  0
   10.1954  -17.0409   20.7280 N   0  0  0  0  0  0  0  0  0  0  0  0
    9.7679  -18.2791   20.1618 C   0  0  0  0  0  0  0  0  0  0  0  0
   10.8960  -18.6513   19.2225 C   0  0  0  0  0  0  0  0  0  0  0  0
   12.0714  -18.4248   20.1808 C   0  0  0  0  0  0  0  0  0  0  0  0
   11.6643  -17.1573   20.8517 C   0  0  1  0  0  0  0  0  0  0  0  0
   12.3199  -16.0481   20.1282 C   0  0  0  0  0  0  0  0  0  0  0  0
   11.7592  -15.5315   18.9839 O   0  0  0  0  0  0  0  0  0  0  0  0
   13.3873  -15.5799   20.5601 O   0  0  0  0  0  0  0  0  0  0  0  0
  2  1  1  1
  2 13  1  0
  3  4  1  0
  3  2  1  0
  4 12  1  0
  4  5  2  0
  5  6  1  0
  6  7  1  0
  7  8  2  0
  9  8  1  0
 10  9  2  0
 11 12  2  0
 11 10  1  0
 12  7  1  0
 13 14  2  0
 15 13  1  0
 15 16  1  0
 16 17  1  1
 18 17  1  0
 19 18  1  0
 20 19  1  0
 21 20  1  0
 22 16  1  0
 22 24  1  0
 23 22  2  0
 24 28  1  0
 25 24  1  0
 25 26  1  0
 26 27  1  0
 28 27  1  0
 28 29  1  6
 29 30  1  0
 31 29  2  0
M  END
$$$$
