WKP.pdb
     RDKit          3D

 31 33  0  0  1  0  0  0  0  0999 V2000
    6.2871  -18.2908   24.7739 N   0  0  0  0  0  0  0  0  0  0  0  0
    6.7020  -16.9008   24.5315 C   0  0  1  0  0  0  0  0  0  0  0  0
    7.5109  -16.4150   25.6815 C   0  0  0  0  0  0  0  0  0  0  0  0
    6.8606  -15.2093   26.2554 C   0  0  0  0  0  0  0  0  0  0  0  0
    5.7313  -15.2110   27.0183 C   0  0  0  0  0  0  0  0  0  0  0  0
    5.4472  -13.9542   27.3537 N   0  0  0  0  0  0  0  0  0  0  0  0
    6.3689  -13.1098   26.8274 C   0  0  0  0  0  0  0  0  0  0  0  0
    6.4923  -11.7300   26.9014 C   0  0  0  0  0  0  0  0  0  0  0  0
    7.5567  -11.1542   26.2476 C   0  0  0  0  0  0  0  0  0  0  0  0
    8.4670  -11.9159   25.5453 C   0  0  0  0  0  0  0  0  0  0  0  0
    8.3100  -13.2895   25.4948 C   0  0  0  0  0  0  0  0  0  0  0  0
    7.2608  -13.8955   26.1350 C   0  0  0  0  0  0  0  0  0  0  0  0
    7.4444  -16.8937   23.2478 C   0  0  0  0  0  0  0  0  0  0  0  0
    8.2333  -17.8459   22.9504 O   0  0  0  0  0  0  0  0  0  0  0  0
    7.3427  -15.8613   22.2658 N   0  0  0  0  0  0  0  0  0  0  0  0
    8.0795  -15.8098   21.0355 C   0  0  1  0  0  0  0  0  0  0  0  0
    7.8361  -14.4704   20.3180 C   0  0  0  0  0  0  0  0  0  0  0  0
    8.4572  -14.4345   18.9550 C   0  0  0  0  0  0  0  0  0  0  0  0
    7.8038  -13.5295   17.9716 C   0  0  0  0  0  0  0  0  0  0  0  0
    8.4972  -13.6681   16.6096 C   0  0  0  0  0  0  0  0  0  0  0  0
    7.8117  -12.9163   15.5983 N   0  0  0  0  0  0  0  0  0  0  0  0
    9.4951  -16.1357   21.0727 C   0  0  0  0  0  0  0  0  0  0  0  0
   10.2456  -15.3062   21.7235 O   0  0  0  0  0  0  0  0  0  0  0  0
   10.1586  -17.2453   20.4896 N   0  0  0  0  0  0  0  0  0  0  0  0
    9.6590  -18.3229   19.6986 C   0  0  0  0  0  0  0  0  0  0  0  0
   10.7910  -18.6149   18.7362 C   0  0  0  0  0  0  0  0  0  0  0  0
   11.9416  -18.6615   19.7486 C   0  0  0  0  0  0  0  0  0  0  0  0
   11.6078  -17.5041   20.6270 C   0  0  1  0  0  0  0  0  0  0  0  0
   12.3758  -16.3425   20.1323 C   0  0  0  0  0  0  0  0  0  0  0  0
   13.6517  -16.1034   20.5858 O   0  0  0  0  0  0  0  0  0  0  0  0
   11.8615  -15.5769   19.2990 O   0  0  0  0  0  0  0  0  0  0  0  0
  2  1  1  1
  2 13  1  0
  3  4  1  0
  3  2  1  0
  4 12  1  0
  4  5  2  0
  5  6  1  0
  6  7  1  0
  7  8  2  0
  9  8  1  0
 10  9  2  0
 11 12  2  0
 11 10  1  0
 12  7  1  0
 13 14  2  0
 15 13  1  0
 15 16  1  0
 16 17  1  1
 18 17  1  0
 19 18  1  0
 20 19  1  0
 21 20  1  0
 22 16  1  0
 22 24  1  0
 23 22  2  0
 24 28  1  0
 25 24  1  0
 25 26  1  0
 26 27  1  0
 28 27  1  0
 28 29  1  6
 29 30  1  0
 31 29  2  0
M  END
$$$$
