WKP.pdb
     RDKit          3D

 31 33  0  0  1  0  0  0  0  0999 V2000
    6.7052  -18.5693   25.4996 N   0  0  0  0  0  0  0  0  0  0  0  0
    6.7745  -17.1567   25.0963 C   0  0  1  0  0  0  0  0  0  0  0  0
    7.4237  -16.3627   26.1737 C   0  0  0  0  0  0  0  0  0  0  0  0
    6.6416  -15.1199   26.3970 C   0  0  0  0  0  0  0  0  0  0  0  0
    5.2843  -15.0507   26.4986 C   0  0  0  0  0  0  0  0  0  0  0  0
    4.9407  -13.7800   26.6987 N   0  0  0  0  0  0  0  0  0  0  0  0
    6.0470  -12.9960   26.7328 C   0  0  0  0  0  0  0  0  0  0  0  0
    6.1931  -11.6283   26.9130 C   0  0  0  0  0  0  0  0  0  0  0  0
    7.4715  -11.1211   26.8966 C   0  0  0  0  0  0  0  0  0  0  0  0
    8.5670  -11.9375   26.7086 C   0  0  0  0  0  0  0  0  0  0  0  0
    8.3805  -13.2970   26.5324 C   0  0  0  0  0  0  0  0  0  0  0  0
    7.1203  -13.8353   26.5432 C   0  0  0  0  0  0  0  0  0  0  0  0
    7.5128  -17.1146   23.8108 C   0  0  0  0  0  0  0  0  0  0  0  0
    8.2534  -18.0861   23.4570 O   0  0  0  0  0  0  0  0  0  0  0  0
    7.4589  -16.0256   22.8880 N   0  0  0  0  0  0  0  0  0  0  0  0
    8.1655  -15.9581   21.6408 C   0  0  1  0  0  0  0  0  0  0  0  0
    7.8300  -14.6506   20.9022 C   0  0  0  0  0  0  0  0  0  0  0  0
    8.4827  -14.5746   19.5556 C   0  0  0  0  0  0  0  0  0  0  0  0
    8.1054  -13.4027   18.7206 C   0  0  0  0  0  0  0  0  0  0  0  0
    8.6386  -13.5977   17.2949 C   0  0  0  0  0  0  0  0  0  0  0  0
    8.4471  -12.4175   16.5022 N   0  0  0  0  0  0  0  0  0  0  0  0
    9.5981  -16.2013   21.6532 C   0  0  0  0  0  0  0  0  0  0  0  0
   10.3072  -15.3474   22.3187 O   0  0  0  0  0  0  0  0  0  0  0  0
   10.3177  -17.2537   21.0318 N   0  0  0  0  0  0  0  0  0  0  0  0
    9.8852  -18.2865   20.1470 C   0  0  0  0  0  0  0  0  0  0  0  0
   11.0698  -18.4871   19.2253 C   0  0  0  0  0  0  0  0  0  0  0  0
   12.1707  -18.5758   20.2889 C   0  0  0  0  0  0  0  0  0  0  0  0
   11.7648  -17.4883   21.2243 C   0  0  1  0  0  0  0  0  0  0  0  0
   12.5254  -16.2788   20.8468 C   0  0  0  0  0  0  0  0  0  0  0  0
   13.7727  -16.0438   21.3757 O   0  0  0  0  0  0  0  0  0  0  0  0
   12.0310  -15.4688   20.0440 O   0  0  0  0  0  0  0  0  0  0  0  0
  2  1  1  1
  2 13  1  0
  3  4  1  0
  3  2  1  0
  4 12  1  0
  4  5  2  0
  5  6  1  0
  6  7  1  0
  7  8  2  0
  9  8  1  0
 10  9  2  0
 11 12  2  0
 11 10  1  0
 12  7  1  0
 13 14  2  0
 15 13  1  0
 15 16  1  0
 16 17  1  1
 18 17  1  0
 19 18  1  0
 20 19  1  0
 21 20  1  0
 22 16  1  0
 22 24  1  0
 23 22  2  0
 24 28  1  0
 25 24  1  0
 25 26  1  0
 26 27  1  0
 28 27  1  0
 28 29  1  6
 29 30  1  0
 31 29  2  0
M  END
$$$$
