ANM.pdb
     RDKit          3D

 22 21  0  0  1  0  0  0  0  0999 V2000
    7.2227  -20.3457   23.1109 C   0  0  0  0  0  0  0  0  0  0  0  0
    7.1910  -18.9884   23.7398 C   0  0  2  0  0  0  0  0  0  0  0  0
    6.6334  -17.9762   22.8666 N   0  0  0  0  0  0  0  0  0  0  0  0
    8.5442  -18.5164   24.1407 C   0  0  0  0  0  0  0  0  0  0  0  0
    9.0222  -18.9777   25.2131 O   0  0  0  0  0  0  0  0  0  0  0  0
   12.4457  -19.2431   22.4226 N   0  0  0  0  0  0  0  0  0  0  0  0
   11.8696  -18.0400   21.8308 C   0  0  0  0  0  0  0  0  0  0  0  0
   11.7773  -18.0397   20.5934 O   0  0  0  0  0  0  0  0  0  0  0  0
   11.4604  -16.9686   22.6947 C   0  0  0  0  0  0  0  0  0  0  0  0
   10.6746  -17.2252   23.9299 C   0  0  2  0  0  0  0  0  0  0  0  0
    9.3016  -17.6041   23.4051 N   0  0  0  0  0  0  0  0  0  0  0  0
   10.4511  -16.0754   24.8157 C   0  0  0  0  0  0  0  0  0  0  0  0
   10.3125  -14.8937   24.3529 O   0  0  0  0  0  0  0  0  0  0  0  0
    6.6866  -11.7914   25.6405 C   0  0  0  0  0  0  0  0  0  0  0  0
    6.4809  -13.0795   26.8863 S   0  0  0  0  0  0  0  0  0  0  0  0
    8.1043  -13.5313   27.5752 C   0  0  0  0  0  0  0  0  0  0  0  0
    8.6888  -14.5721   26.6829 C   0  0  0  0  0  0  0  0  0  0  0  0
   10.0769  -15.0269   27.0658 C   0  0  2  0  0  0  0  0  0  0  0  0
   10.3673  -16.1863   26.2140 N   0  0  0  0  0  0  0  0  0  0  0  0
   10.2285  -15.3511   28.4863 C   0  0  0  0  0  0  0  0  0  0  0  0
   10.5165  -16.6590   28.8985 O   0  0  0  0  0  0  0  0  0  0  0  0
   10.1094  -14.4906   29.3754 O   0  0  0  0  0  0  0  0  0  0  0  0
  2  1  1  6
  2  3  1  0
  4  2  1  0
  4 11  1  0
  5  4  2  0
  7  6  1  0
  7  8  2  0
  9  7  1  0
 10 11  1  0
 10  9  1  6
 10 12  1  0
 12 13  2  0
 12 19  1  0
 15 14  1  0
 16 15  1  0
 17 16  1  0
 18 17  1  1
 19 18  1  0
 20 18  1  0
 20 21  1  0
 22 20  2  0
M  END
$$$$
