ANM.pdb
     RDKit          3D

 22 21  0  0  1  0  0  0  0  0999 V2000
    7.7287  -13.2126   18.3160 C   0  0  0  0  0  0  0  0  0  0  0  0
    8.7085  -13.1551   19.4453 C   0  0  2  0  0  0  0  0  0  0  0  0
   10.0856  -13.1561   18.9964 N   0  0  0  0  0  0  0  0  0  0  0  0
    8.5591  -14.2987   20.3858 C   0  0  0  0  0  0  0  0  0  0  0  0
    7.3963  -14.5553   20.8023 O   0  0  0  0  0  0  0  0  0  0  0  0
   11.7768  -18.9657   22.3001 N   0  0  0  0  0  0  0  0  0  0  0  0
   10.4193  -18.5595   21.9510 C   0  0  0  0  0  0  0  0  0  0  0  0
    9.5161  -19.3256   22.3211 O   0  0  0  0  0  0  0  0  0  0  0  0
   10.2255  -17.3366   21.2239 C   0  0  0  0  0  0  0  0  0  0  0  0
    9.3066  -16.2779   21.7178 C   0  0  2  0  0  0  0  0  0  0  0  0
    9.6204  -15.0907   20.8254 N   0  0  0  0  0  0  0  0  0  0  0  0
    9.5285  -15.8049   23.0903 C   0  0  0  0  0  0  0  0  0  0  0  0
   10.6151  -15.2269   23.4293 O   0  0  0  0  0  0  0  0  0  0  0  0
    6.5879  -10.6836   26.6102 C   0  0  0  0  0  0  0  0  0  0  0  0
    6.3900  -12.4764   26.5892 S   0  0  0  0  0  0  0  0  0  0  0  0
    7.9109  -13.2540   25.9600 C   0  0  0  0  0  0  0  0  0  0  0  0
    7.6820  -14.7266   25.9483 C   0  0  0  0  0  0  0  0  0  0  0  0
    8.8669  -15.5476   25.4983 C   0  0  2  0  0  0  0  0  0  0  0  0
    8.5770  -15.9434   24.1150 N   0  0  0  0  0  0  0  0  0  0  0  0
    9.1432  -16.7110   26.3445 C   0  0  0  0  0  0  0  0  0  0  0  0
    9.7970  -16.5658   27.5753 O   0  0  0  0  0  0  0  0  0  0  0  0
    8.8137  -17.8622   26.0108 O   0  0  0  0  0  0  0  0  0  0  0  0
  2  1  1  6
  2  3  1  0
  4  2  1  0
  4 11  1  0
  5  4  2  0
  7  6  1  0
  7  8  2  0
  9  7  1  0
 10 11  1  0
 10  9  1  6
 10 12  1  0
 12 13  2  0
 12 19  1  0
 15 14  1  0
 16 15  1  0
 17 16  1  0
 18 17  1  1
 19 18  1  0
 20 18  1  0
 20 21  1  0
 22 20  2  0
M  END
$$$$
