ANM.pdb
     RDKit          3D

 22 21  0  0  1  0  0  0  0  0999 V2000
    7.4273  -12.9500   18.7824 C   0  0  0  0  0  0  0  0  0  0  0  0
    8.4742  -13.7172   19.5267 C   0  0  2  0  0  0  0  0  0  0  0  0
    9.1109  -14.7338   18.7148 N   0  0  0  0  0  0  0  0  0  0  0  0
    7.9286  -14.4028   20.7295 C   0  0  0  0  0  0  0  0  0  0  0  0
    7.2092  -13.7183   21.5075 O   0  0  0  0  0  0  0  0  0  0  0  0
    5.5447  -19.2668   22.7206 N   0  0  0  0  0  0  0  0  0  0  0  0
    6.8972  -18.7415   22.8767 C   0  0  0  0  0  0  0  0  0  0  0  0
    7.5340  -19.1745   23.8497 O   0  0  0  0  0  0  0  0  0  0  0  0
    7.3860  -17.7868   21.9221 C   0  0  0  0  0  0  0  0  0  0  0  0
    7.4570  -16.3370   22.2417 C   0  0  2  0  0  0  0  0  0  0  0  0
    8.1666  -15.7425   21.0387 N   0  0  0  0  0  0  0  0  0  0  0  0
    8.2736  -15.9606   23.4028 C   0  0  0  0  0  0  0  0  0  0  0  0
    9.5444  -15.8689   23.3232 O   0  0  0  0  0  0  0  0  0  0  0  0
    6.3796  -10.3266   26.6406 C   0  0  0  0  0  0  0  0  0  0  0  0
    6.4991  -12.0403   27.1908 S   0  0  0  0  0  0  0  0  0  0  0  0
    7.6503  -12.9512   26.1143 C   0  0  0  0  0  0  0  0  0  0  0  0
    7.7340  -14.3448   26.6359 C   0  0  0  0  0  0  0  0  0  0  0  0
    8.5727  -15.2834   25.8016 C   0  0  2  0  0  0  0  0  0  0  0  0
    7.7286  -15.6713   24.6653 N   0  0  0  0  0  0  0  0  0  0  0  0
    9.0637  -16.4545   26.5320 C   0  0  0  0  0  0  0  0  0  0  0  0
   10.1718  -16.3578   27.3842 O   0  0  0  0  0  0  0  0  0  0  0  0
    8.5250  -17.5699   26.4281 O   0  0  0  0  0  0  0  0  0  0  0  0
  2  1  1  6
  2  3  1  0
  4  2  1  0
  4 11  1  0
  5  4  2  0
  7  6  1  0
  7  8  2  0
  9  7  1  0
 10 11  1  0
 10  9  1  6
 10 12  1  0
 12 13  2  0
 12 19  1  0
 15 14  1  0
 16 15  1  0
 17 16  1  0
 18 17  1  1
 19 18  1  0
 20 18  1  0
 20 21  1  0
 22 20  2  0
M  END
$$$$
