ANM.pdb
     RDKit          3D

 22 21  0  0  1  0  0  0  0  0999 V2000
    7.2691  -20.1340   19.9356 C   0  0  0  0  0  0  0  0  0  0  0  0
    7.1963  -19.1581   21.0674 C   0  0  2  0  0  0  0  0  0  0  0  0
    5.8410  -18.7460   21.3692 N   0  0  0  0  0  0  0  0  0  0  0  0
    7.9760  -17.9190   20.8001 C   0  0  0  0  0  0  0  0  0  0  0  0
    9.1871  -18.0578   20.4755 O   0  0  0  0  0  0  0  0  0  0  0  0
    7.6044  -12.1178   19.2813 N   0  0  0  0  0  0  0  0  0  0  0  0
    8.0299  -13.4810   18.9809 C   0  0  0  0  0  0  0  0  0  0  0  0
    8.8528  -13.5975   18.0596 O   0  0  0  0  0  0  0  0  0  0  0  0
    7.4837  -14.5643   19.7489 C   0  0  0  0  0  0  0  0  0  0  0  0
    8.3541  -15.4599   20.5547 C   0  0  2  0  0  0  0  0  0  0  0  0
    7.4473  -16.6307   20.8881 N   0  0  0  0  0  0  0  0  0  0  0  0
    8.8117  -14.9388   21.8492 C   0  0  0  0  0  0  0  0  0  0  0  0
    9.2907  -13.7609   21.9626 O   0  0  0  0  0  0  0  0  0  0  0  0
    6.3340  -11.7654   27.7782 C   0  0  0  0  0  0  0  0  0  0  0  0
    6.3428  -12.6185   26.1889 S   0  0  0  0  0  0  0  0  0  0  0  0
    7.8921  -13.5564   26.0047 C   0  0  0  0  0  0  0  0  0  0  0  0
    7.8959  -14.1382   24.6327 C   0  0  0  0  0  0  0  0  0  0  0  0
    9.0463  -15.0733   24.3451 C   0  0  2  0  0  0  0  0  0  0  0  0
    8.7523  -15.6801   23.0415 N   0  0  0  0  0  0  0  0  0  0  0  0
    9.2606  -16.0911   25.3766 C   0  0  0  0  0  0  0  0  0  0  0  0
    9.7444  -15.7398   26.6438 O   0  0  0  0  0  0  0  0  0  0  0  0
    9.0253  -17.2948   25.1741 O   0  0  0  0  0  0  0  0  0  0  0  0
  2  1  1  6
  2  3  1  0
  4  2  1  0
  4 11  1  0
  5  4  2  0
  7  6  1  0
  7  8  2  0
  9  7  1  0
 10 11  1  0
 10  9  1  1
 10 12  1  0
 12 13  2  0
 12 19  1  0
 15 14  1  0
 16 15  1  0
 17 16  1  0
 18 17  1  1
 19 18  1  0
 20 18  1  0
 20 21  1  0
 22 20  2  0
M  END
$$$$
