ANM.pdb
     RDKit          3D

 22 21  0  0  1  0  0  0  0  0999 V2000
    7.1667  -13.0608   18.7637 C   0  0  0  0  0  0  0  0  0  0  0  0
    8.4405  -13.3010   19.5110 C   0  0  2  0  0  0  0  0  0  0  0  0
    9.5247  -13.7305   18.6519 N   0  0  0  0  0  0  0  0  0  0  0  0
    8.2914  -14.3359   20.5699 C   0  0  0  0  0  0  0  0  0  0  0  0
    7.2841  -14.2489   21.3243 O   0  0  0  0  0  0  0  0  0  0  0  0
    8.3040  -19.4015   20.4555 N   0  0  0  0  0  0  0  0  0  0  0  0
    9.3466  -18.3900   20.3160 C   0  0  0  0  0  0  0  0  0  0  0  0
    9.8671  -18.3046   19.1929 O   0  0  0  0  0  0  0  0  0  0  0  0
    9.6902  -17.5851   21.4543 C   0  0  0  0  0  0  0  0  0  0  0  0
    8.8744  -16.4058   21.8450 C   0  0  2  0  0  0  0  0  0  0  0  0
    9.1928  -15.3820   20.7705 N   0  0  0  0  0  0  0  0  0  0  0  0
    9.2232  -15.7594   23.1167 C   0  0  0  0  0  0  0  0  0  0  0  0
   10.3657  -15.2199   23.2996 O   0  0  0  0  0  0  0  0  0  0  0  0
    6.6645  -10.7537   26.0011 C   0  0  0  0  0  0  0  0  0  0  0  0
    6.3537  -12.1190   27.1383 S   0  0  0  0  0  0  0  0  0  0  0  0
    7.7232  -13.3151   27.0495 C   0  0  0  0  0  0  0  0  0  0  0  0
    7.6059  -14.0251   25.7445 C   0  0  0  0  0  0  0  0  0  0  0  0
    8.7143  -15.0098   25.4580 C   0  0  2  0  0  0  0  0  0  0  0  0
    8.3404  -15.6803   24.2071 N   0  0  0  0  0  0  0  0  0  0  0  0
    8.9502  -15.9736   26.5357 C   0  0  0  0  0  0  0  0  0  0  0  0
    8.7242  -17.3423   26.3384 O   0  0  0  0  0  0  0  0  0  0  0  0
    9.3557  -15.6226   27.6570 O   0  0  0  0  0  0  0  0  0  0  0  0
  2  1  1  6
  2  3  1  0
  4  2  1  0
  4 11  1  0
  5  4  2  0
  7  6  1  0
  7  8  2  0
  9  7  1  0
 10 11  1  0
 10  9  1  6
 10 12  1  0
 12 13  2  0
 12 19  1  0
 15 14  1  0
 16 15  1  0
 17 16  1  0
 18 17  1  1
 19 18  1  0
 20 18  1  0
 20 21  1  0
 22 20  2  0
M  END
$$$$
