ANM.pdb
     RDKit          3D

 22 21  0  0  1  0  0  0  0  0999 V2000
    8.1545  -12.0744   19.6762 C   0  0  0  0  0  0  0  0  0  0  0  0
    8.3454  -13.4120   19.0337 C   0  0  2  0  0  0  0  0  0  0  0  0
    7.3214  -13.7184   18.0562 N   0  0  0  0  0  0  0  0  0  0  0  0
    8.3449  -14.5231   20.0237 C   0  0  0  0  0  0  0  0  0  0  0  0
    7.2657  -15.1577   20.1786 O   0  0  0  0  0  0  0  0  0  0  0  0
   10.1540  -19.4553   21.3326 N   0  0  0  0  0  0  0  0  0  0  0  0
   10.7754  -18.2339   21.8341 C   0  0  0  0  0  0  0  0  0  0  0  0
   11.5386  -18.3763   22.8020 O   0  0  0  0  0  0  0  0  0  0  0  0
   10.4710  -16.9859   21.1927 C   0  0  0  0  0  0  0  0  0  0  0  0
    9.3479  -16.1295   21.6558 C   0  0  2  0  0  0  0  0  0  0  0  0
    9.4575  -14.8952   20.7790 N   0  0  0  0  0  0  0  0  0  0  0  0
    9.4256  -15.6362   23.0369 C   0  0  0  0  0  0  0  0  0  0  0  0
   10.2823  -14.7556   23.3836 O   0  0  0  0  0  0  0  0  0  0  0  0
    6.3312  -10.8428   26.4873 C   0  0  0  0  0  0  0  0  0  0  0  0
    6.1828  -12.6404   26.5081 S   0  0  0  0  0  0  0  0  0  0  0  0
    7.6001  -13.3829   25.6398 C   0  0  0  0  0  0  0  0  0  0  0  0
    7.4792  -14.8616   25.7806 C   0  0  0  0  0  0  0  0  0  0  0  0
    8.7344  -15.6334   25.4503 C   0  0  2  0  0  0  0  0  0  0  0  0
    8.5744  -16.0823   24.0621 N   0  0  0  0  0  0  0  0  0  0  0  0
    8.9992  -16.7569   26.3523 C   0  0  0  0  0  0  0  0  0  0  0  0
    9.9090  -16.6305   27.4104 O   0  0  0  0  0  0  0  0  0  0  0  0
    8.4352  -17.8566   26.2190 O   0  0  0  0  0  0  0  0  0  0  0  0
  2  1  1  1
  2  3  1  0
  4  2  1  0
  4 11  1  0
  5  4  2  0
  7  6  1  0
  7  8  2  0
  9  7  1  0
 10 11  1  0
 10  9  1  6
 10 12  1  0
 12 13  2  0
 12 19  1  0
 15 14  1  0
 16 15  1  0
 17 16  1  0
 18 17  1  1
 19 18  1  0
 20 18  1  0
 20 21  1  0
 22 20  2  0
M  END
$$$$
