ANM.pdb
     RDKit          3D

 22 21  0  0  1  0  0  0  0  0999 V2000
    6.9473  -18.9802   19.3228 C   0  0  0  0  0  0  0  0  0  0  0  0
    6.9750  -18.3104   20.6605 C   0  0  2  0  0  0  0  0  0  0  0  0
    5.7295  -17.6450   20.9827 N   0  0  0  0  0  0  0  0  0  0  0  0
    8.0509  -17.2874   20.7614 C   0  0  0  0  0  0  0  0  0  0  0  0
    9.2425  -17.6925   20.6757 O   0  0  0  0  0  0  0  0  0  0  0  0
    6.7740  -13.4063   18.5397 N   0  0  0  0  0  0  0  0  0  0  0  0
    8.1175  -13.8572   18.8879 C   0  0  0  0  0  0  0  0  0  0  0  0
    8.8054  -14.2784   17.9450 O   0  0  0  0  0  0  0  0  0  0  0  0
    8.5410  -13.7853   20.2580 C   0  0  0  0  0  0  0  0  0  0  0  0
    9.0126  -14.9908   20.9883 C   0  0  2  0  0  0  0  0  0  0  0  0
    7.8162  -15.9240   20.9433 N   0  0  0  0  0  0  0  0  0  0  0  0
    9.3187  -14.8160   22.4139 C   0  0  0  0  0  0  0  0  0  0  0  0
   10.1423  -13.9270   22.8153 O   0  0  0  0  0  0  0  0  0  0  0  0
    6.9085  -11.3147   27.8517 C   0  0  0  0  0  0  0  0  0  0  0  0
    6.3906  -12.6414   26.7448 S   0  0  0  0  0  0  0  0  0  0  0  0
    7.7205  -13.8764   26.6031 C   0  0  0  0  0  0  0  0  0  0  0  0
    7.7873  -14.2917   25.1734 C   0  0  0  0  0  0  0  0  0  0  0  0
    8.8967  -15.2631   24.8479 C   0  0  2  0  0  0  0  0  0  0  0  0
    8.7344  -15.5945   23.4274 N   0  0  0  0  0  0  0  0  0  0  0  0
    8.9016  -16.4660   25.6841 C   0  0  0  0  0  0  0  0  0  0  0  0
    8.8490  -17.7423   25.1081 O   0  0  0  0  0  0  0  0  0  0  0  0
    8.9519  -16.4064   26.9246 O   0  0  0  0  0  0  0  0  0  0  0  0
  2  1  1  6
  2  3  1  0
  4  2  1  0
  4 11  1  0
  5  4  2  0
  7  6  1  0
  7  8  2  0
  9  7  1  0
 10 11  1  0
 10  9  1  1
 10 12  1  0
 12 13  2  0
 12 19  1  0
 15 14  1  0
 16 15  1  0
 17 16  1  0
 18 17  1  1
 19 18  1  0
 20 18  1  0
 20 21  1  0
 22 20  2  0
M  END
$$$$
