ANM.pdb
     RDKit          3D

 22 21  0  0  1  0  0  0  0  0999 V2000
    7.7888  -12.8070   18.5452 C   0  0  0  0  0  0  0  0  0  0  0  0
    8.6401  -13.3406   19.6538 C   0  0  2  0  0  0  0  0  0  0  0  0
    9.7610  -14.1237   19.1759 N   0  0  0  0  0  0  0  0  0  0  0  0
    7.8750  -14.2073   20.5909 C   0  0  0  0  0  0  0  0  0  0  0  0
    6.7659  -13.7716   21.0049 O   0  0  0  0  0  0  0  0  0  0  0  0
    6.0043  -17.4316   19.5030 N   0  0  0  0  0  0  0  0  0  0  0  0
    6.9719  -18.2502   20.2264 C   0  0  0  0  0  0  0  0  0  0  0  0
    7.1482  -19.3949   19.7813 O   0  0  0  0  0  0  0  0  0  0  0  0
    7.6356  -17.6925   21.3710 C   0  0  0  0  0  0  0  0  0  0  0  0
    7.3494  -16.3103   21.8365 C   0  0  2  0  0  0  0  0  0  0  0  0
    8.3121  -15.4575   21.0301 N   0  0  0  0  0  0  0  0  0  0  0  0
    7.6510  -16.0164   23.2433 C   0  0  0  0  0  0  0  0  0  0  0  0
    6.8814  -16.4033   24.1856 O   0  0  0  0  0  0  0  0  0  0  0  0
    6.4153  -11.1144   27.1625 C   0  0  0  0  0  0  0  0  0  0  0  0
    6.0600  -12.8817   27.1003 S   0  0  0  0  0  0  0  0  0  0  0  0
    7.6097  -13.8117   26.8827 C   0  0  0  0  0  0  0  0  0  0  0  0
    7.6770  -14.2300   25.4539 C   0  0  0  0  0  0  0  0  0  0  0  0
    8.9781  -14.8784   25.0450 C   0  0  2  0  0  0  0  0  0  0  0  0
    8.7920  -15.3061   23.6534 N   0  0  0  0  0  0  0  0  0  0  0  0
    9.3839  -15.9952   25.9018 C   0  0  0  0  0  0  0  0  0  0  0  0
    9.8682  -15.7687   27.1970 O   0  0  0  0  0  0  0  0  0  0  0  0
    9.3166  -17.1765   25.5210 O   0  0  0  0  0  0  0  0  0  0  0  0
  2  1  1  6
  2  3  1  0
  4  2  1  0
  4 11  1  0
  5  4  2  0
  7  6  1  0
  7  8  2  0
  9  7  1  0
 10 11  1  0
 10  9  1  1
 10 12  1  0
 12 13  2  0
 12 19  1  0
 15 14  1  0
 16 15  1  0
 17 16  1  0
 18 17  1  1
 19 18  1  0
 20 18  1  0
 20 21  1  0
 22 20  2  0
M  END
$$$$
