ANM.pdb
     RDKit          3D

 22 21  0  0  1  0  0  0  0  0999 V2000
    7.9141  -17.6251   17.2511 C   0  0  0  0  0  0  0  0  0  0  0  0
    8.8330  -16.9109   18.1915 C   0  0  2  0  0  0  0  0  0  0  0  0
   10.2027  -17.3727   18.0994 N   0  0  0  0  0  0  0  0  0  0  0  0
    8.4201  -17.0617   19.6132 C   0  0  0  0  0  0  0  0  0  0  0  0
    7.2477  -16.7068   19.9146 O   0  0  0  0  0  0  0  0  0  0  0  0
    9.4496  -21.2017   21.0738 N   0  0  0  0  0  0  0  0  0  0  0  0
    8.5979  -20.3154   21.8602 C   0  0  0  0  0  0  0  0  0  0  0  0
    7.4222  -20.6855   22.0031 O   0  0  0  0  0  0  0  0  0  0  0  0
    9.1608  -19.1098   22.4000 C   0  0  0  0  0  0  0  0  0  0  0  0
    8.6557  -17.7707   21.9991 C   0  0  2  0  0  0  0  0  0  0  0  0
    9.2480  -17.5670   20.6164 N   0  0  0  0  0  0  0  0  0  0  0  0
    9.1214  -16.6285   22.7961 C   0  0  0  0  0  0  0  0  0  0  0  0
   10.3071  -16.1706   22.6764 O   0  0  0  0  0  0  0  0  0  0  0  0
    5.8484  -11.4972   27.3659 C   0  0  0  0  0  0  0  0  0  0  0  0
    6.3502  -11.7655   25.6543 S   0  0  0  0  0  0  0  0  0  0  0  0
    7.8799  -12.7515   25.6109 C   0  0  0  0  0  0  0  0  0  0  0  0
    7.6559  -13.8728   24.6551 C   0  0  0  0  0  0  0  0  0  0  0  0
    8.8141  -14.8329   24.5234 C   0  0  2  0  0  0  0  0  0  0  0  0
    8.3110  -15.9600   23.7293 N   0  0  0  0  0  0  0  0  0  0  0  0
    9.3669  -15.2808   25.8039 C   0  0  0  0  0  0  0  0  0  0  0  0
    9.1503  -16.5868   26.2632 O   0  0  0  0  0  0  0  0  0  0  0  0
   10.0433  -14.5308   26.5286 O   0  0  0  0  0  0  0  0  0  0  0  0
  2  1  1  6
  2  3  1  0
  4  2  1  0
  4 11  1  0
  5  4  2  0
  7  6  1  0
  7  8  2  0
  9  7  1  0
 10 11  1  0
 10  9  1  1
 10 12  1  0
 12 13  2  0
 12 19  1  0
 15 14  1  0
 16 15  1  0
 17 16  1  0
 18 17  1  1
 19 18  1  0
 20 18  1  0
 20 21  1  0
 22 20  2  0
M  END
$$$$
