ANM.pdb
     RDKit          3D

 22 21  0  0  1  0  0  0  0  0999 V2000
    9.0981  -17.4537   17.2001 C   0  0  0  0  0  0  0  0  0  0  0  0
    9.6927  -17.3334   18.5678 C   0  0  2  0  0  0  0  0  0  0  0  0
   10.0417  -18.6153   19.1447 N   0  0  0  0  0  0  0  0  0  0  0  0
    8.7762  -16.6615   19.5286 C   0  0  0  0  0  0  0  0  0  0  0  0
    8.4349  -15.4754   19.2677 O   0  0  0  0  0  0  0  0  0  0  0  0
    7.2169  -19.6911   22.5766 N   0  0  0  0  0  0  0  0  0  0  0  0
    6.4060  -18.5075   22.8433 C   0  0  0  0  0  0  0  0  0  0  0  0
    5.9313  -18.4265   23.9868 O   0  0  0  0  0  0  0  0  0  0  0  0
    6.2174  -17.5442   21.7953 C   0  0  0  0  0  0  0  0  0  0  0  0
    7.2434  -16.5107   21.4979 C   0  0  2  0  0  0  0  0  0  0  0  0
    8.2813  -17.2640   20.6858 N   0  0  0  0  0  0  0  0  0  0  0  0
    7.9715  -15.9594   22.6480 C   0  0  0  0  0  0  0  0  0  0  0  0
    9.2146  -15.6773   22.5778 O   0  0  0  0  0  0  0  0  0  0  0  0
    6.5804  -10.2807   26.0958 C   0  0  0  0  0  0  0  0  0  0  0  0
    6.2596  -11.8522   26.9212 S   0  0  0  0  0  0  0  0  0  0  0  0
    7.5837  -13.0361   26.5222 C   0  0  0  0  0  0  0  0  0  0  0  0
    7.0748  -13.9177   25.4337 C   0  0  0  0  0  0  0  0  0  0  0  0
    8.0591  -14.9543   24.9468 C   0  0  2  0  0  0  0  0  0  0  0  0
    7.3657  -15.6986   23.8888 N   0  0  0  0  0  0  0  0  0  0  0  0
    8.5545  -15.8472   25.9971 C   0  0  0  0  0  0  0  0  0  0  0  0
    9.7123  -15.5330   26.7211 O   0  0  0  0  0  0  0  0  0  0  0  0
    7.9760  -16.9085   26.2873 O   0  0  0  0  0  0  0  0  0  0  0  0
  2  1  1  6
  2  3  1  0
  4  2  1  0
  4 11  1  0
  5  4  2  0
  7  6  1  0
  7  8  2  0
  9  7  1  0
 10 11  1  0
 10  9  1  1
 10 12  1  0
 12 13  2  0
 12 19  1  0
 15 14  1  0
 16 15  1  0
 17 16  1  0
 18 17  1  1
 19 18  1  0
 20 18  1  0
 20 21  1  0
 22 20  2  0
M  END
$$$$
