ANM.pdb
     RDKit          3D

 22 21  0  0  1  0  0  0  0  0999 V2000
    7.9117  -12.1594   19.3428 C   0  0  0  0  0  0  0  0  0  0  0  0
    8.5437  -13.4862   19.0620 C   0  0  2  0  0  0  0  0  0  0  0  0
    8.2166  -13.9987   17.7474 N   0  0  0  0  0  0  0  0  0  0  0  0
    8.1394  -14.5275   20.0453 C   0  0  0  0  0  0  0  0  0  0  0  0
    6.9315  -14.8913   20.0370 O   0  0  0  0  0  0  0  0  0  0  0  0
   11.2038  -18.0920   23.3076 N   0  0  0  0  0  0  0  0  0  0  0  0
   10.7799  -17.1995   22.2336 C   0  0  0  0  0  0  0  0  0  0  0  0
   11.6374  -16.3993   21.8286 O   0  0  0  0  0  0  0  0  0  0  0  0
    9.4385  -17.3040   21.7324 C   0  0  0  0  0  0  0  0  0  0  0  0
    8.4652  -16.1908   21.8831 C   0  0  2  0  0  0  0  0  0  0  0  0
    9.0116  -15.1144   20.9628 N   0  0  0  0  0  0  0  0  0  0  0  0
    8.3834  -15.5664   23.2098 C   0  0  0  0  0  0  0  0  0  0  0  0
    7.4607  -14.7329   23.4991 O   0  0  0  0  0  0  0  0  0  0  0  0
    6.0606  -10.8683   26.6531 C   0  0  0  0  0  0  0  0  0  0  0  0
    6.1345  -12.6530   26.4016 S   0  0  0  0  0  0  0  0  0  0  0  0
    7.7951  -13.1226   25.8224 C   0  0  0  0  0  0  0  0  0  0  0  0
    7.7832  -14.5952   25.5937 C   0  0  0  0  0  0  0  0  0  0  0  0
    9.1466  -15.2444   25.5797 C   0  0  2  0  0  0  0  0  0  0  0  0
    9.2932  -15.8384   24.2456 N   0  0  0  0  0  0  0  0  0  0  0  0
    9.3451  -16.2391   26.6366 C   0  0  0  0  0  0  0  0  0  0  0  0
    9.4093  -17.6060   26.3347 O   0  0  0  0  0  0  0  0  0  0  0  0
    9.4636  -15.9171   27.8313 O   0  0  0  0  0  0  0  0  0  0  0  0
  2  1  1  1
  2  3  1  0
  4  2  1  0
  4 11  1  0
  5  4  2  0
  7  6  1  0
  7  8  2  0
  9  7  1  0
 10 11  1  0
 10  9  1  1
 10 12  1  0
 12 13  2  0
 12 19  1  0
 15 14  1  0
 16 15  1  0
 17 16  1  0
 18 17  1  6
 19 18  1  0
 20 18  1  0
 20 21  1  0
 22 20  2  0
M  END
$$$$
