ANM.pdb
     RDKit          3D

 22 21  0  0  1  0  0  0  0  0999 V2000
    7.2739  -12.7295   18.9058 C   0  0  0  0  0  0  0  0  0  0  0  0
    8.4886  -13.2019   19.6407 C   0  0  2  0  0  0  0  0  0  0  0  0
    9.4882  -13.7775   18.7647 N   0  0  0  0  0  0  0  0  0  0  0  0
    8.1676  -14.2313   20.6663 C   0  0  0  0  0  0  0  0  0  0  0  0
    7.1921  -13.9989   21.4317 O   0  0  0  0  0  0  0  0  0  0  0  0
    7.0625  -17.6669   19.5577 N   0  0  0  0  0  0  0  0  0  0  0  0
    8.1869  -18.3505   20.1887 C   0  0  0  0  0  0  0  0  0  0  0  0
    8.5006  -19.4430   19.6911 O   0  0  0  0  0  0  0  0  0  0  0  0
    8.8357  -17.7313   21.3099 C   0  0  0  0  0  0  0  0  0  0  0  0
    8.3751  -16.4246   21.8481 C   0  0  2  0  0  0  0  0  0  0  0  0
    8.8773  -15.4222   20.8248 N   0  0  0  0  0  0  0  0  0  0  0  0
    8.9565  -16.0010   23.1284 C   0  0  0  0  0  0  0  0  0  0  0  0
   10.1813  -15.6537   23.2226 O   0  0  0  0  0  0  0  0  0  0  0  0
    6.4796  -10.8124   26.8673 C   0  0  0  0  0  0  0  0  0  0  0  0
    6.3003  -12.5887   26.6101 S   0  0  0  0  0  0  0  0  0  0  0  0
    7.9410  -13.3774   26.6108 C   0  0  0  0  0  0  0  0  0  0  0  0
    7.7317  -14.8328   26.3683 C   0  0  0  0  0  0  0  0  0  0  0  0
    8.8331  -15.5089   25.5870 C   0  0  2  0  0  0  0  0  0  0  0  0
    8.2214  -15.9400   24.3244 N   0  0  0  0  0  0  0  0  0  0  0  0
    9.4628  -16.6292   26.2901 C   0  0  0  0  0  0  0  0  0  0  0  0
    9.3702  -17.9351   25.7905 O   0  0  0  0  0  0  0  0  0  0  0  0
   10.0982  -16.4711   27.3467 O   0  0  0  0  0  0  0  0  0  0  0  0
  2  1  1  6
  2  3  1  0
  4  2  1  0
  4 11  1  0
  5  4  2  0
  7  6  1  0
  7  8  2  0
  9  7  1  0
 10 11  1  0
 10  9  1  6
 10 12  1  0
 12 13  2  0
 12 19  1  0
 15 14  1  0
 16 15  1  0
 17 16  1  0
 18 17  1  1
 19 18  1  0
 20 18  1  0
 20 21  1  0
 22 20  2  0
M  END
$$$$
