ANM.pdb
     RDKit          3D

 22 21  0  0  1  0  0  0  0  0999 V2000
    7.1271  -12.9661   19.1502 C   0  0  0  0  0  0  0  0  0  0  0  0
    8.3919  -13.1318   19.9320 C   0  0  2  0  0  0  0  0  0  0  0  0
    9.5433  -13.3901   19.0920 N   0  0  0  0  0  0  0  0  0  0  0  0
    8.3119  -14.2489   20.9119 C   0  0  0  0  0  0  0  0  0  0  0  0
    7.3500  -14.2331   21.7279 O   0  0  0  0  0  0  0  0  0  0  0  0
   11.1344  -19.5077   22.0188 N   0  0  0  0  0  0  0  0  0  0  0  0
    9.9357  -18.7202   22.2879 C   0  0  0  0  0  0  0  0  0  0  0  0
    9.2195  -19.1295   23.2148 O   0  0  0  0  0  0  0  0  0  0  0  0
    9.6729  -17.5588   21.4855 C   0  0  0  0  0  0  0  0  0  0  0  0
    9.0537  -16.3388   22.0663 C   0  0  2  0  0  0  0  0  0  0  0  0
    9.2303  -15.2975   20.9760 N   0  0  0  0  0  0  0  0  0  0  0  0
    9.7059  -15.7747   23.2550 C   0  0  0  0  0  0  0  0  0  0  0  0
   10.3696  -14.6856   23.1983 O   0  0  0  0  0  0  0  0  0  0  0  0
    5.9621  -11.6780   26.2386 C   0  0  0  0  0  0  0  0  0  0  0  0
    7.6236  -12.3796   26.2096 S   0  0  0  0  0  0  0  0  0  0  0  0
    7.5567  -14.1348   26.6878 C   0  0  0  0  0  0  0  0  0  0  0  0
    8.0509  -14.9281   25.5270 C   0  0  0  0  0  0  0  0  0  0  0  0
    9.3903  -15.5926   25.7389 C   0  0  2  0  0  0  0  0  0  0  0  0
    9.6452  -16.3754   24.5239 N   0  0  0  0  0  0  0  0  0  0  0  0
    9.4595  -16.4267   26.9411 C   0  0  0  0  0  0  0  0  0  0  0  0
    9.9597  -15.9129   28.1449 O   0  0  0  0  0  0  0  0  0  0  0  0
    9.0822  -17.6111   26.9445 O   0  0  0  0  0  0  0  0  0  0  0  0
  2  1  1  6
  2  3  1  0
  4  2  1  0
  4 11  1  0
  5  4  2  0
  7  6  1  0
  7  8  2  0
  9  7  1  0
 10 11  1  0
 10  9  1  6
 10 12  1  0
 12 13  2  0
 12 19  1  0
 15 14  1  0
 16 15  1  0
 17 16  1  0
 18 17  1  6
 19 18  1  0
 20 18  1  0
 20 21  1  0
 22 20  2  0
M  END
$$$$
