TLR.pdb
     RDKit          3D

 27 26  0  0  1  0  0  0  0  0999 V2000
   27.9266   -8.0236  -18.0580 C   0  0  0  0  0  0  0  0  0  0  0  0
   29.0862   -8.6380  -18.7782 C   0  0  1  0  0  0  0  0  0  0  0  0
   30.1892   -7.7798  -18.7785 O   0  0  0  0  0  0  0  0  0  0  0  0
   29.4525  -10.0204  -18.3110 C   0  0  2  0  0  0  0  0  0  0  0  0
   30.5312  -10.5113  -19.1355 N   0  0  0  0  0  0  0  0  0  0  0  0
   28.3193  -10.9466  -18.2856 C   0  0  0  0  0  0  0  0  0  0  0  0
   27.9983  -11.5135  -19.3780 O   0  0  0  0  0  0  0  0  0  0  0  0
   27.0988  -15.1534  -15.0393 C   0  0  0  0  0  0  0  0  0  0  0  0
   27.3216  -14.2473  -16.2701 C   0  0  1  0  0  0  0  0  0  0  0  0
   27.1639  -15.1478  -17.4532 C   0  0  0  0  0  0  0  0  0  0  0  0
   26.3444  -13.1477  -16.1429 C   0  0  0  0  0  0  0  0  0  0  0  0
   26.3641  -12.0590  -17.1493 C   0  0  2  0  0  0  0  0  0  0  0  0
   27.5506  -11.2652  -17.1525 N   0  0  0  0  0  0  0  0  0  0  0  0
   25.1223  -11.2426  -17.1657 C   0  0  0  0  0  0  0  0  0  0  0  0
   24.9213  -10.2943  -16.3597 O   0  0  0  0  0  0  0  0  0  0  0  0
   19.0389  -10.3009  -23.5400 N   0  0  0  0  0  0  0  0  0  0  0  0
   18.4627   -9.6196  -22.4123 C   0  0  0  0  0  0  0  0  0  0  0  0
   17.3482   -9.0062  -22.6438 N   0  0  0  0  0  0  0  0  0  0  0  0
   19.0770   -9.6241  -21.1413 N   0  0  0  0  0  0  0  0  0  0  0  0
   20.3271  -10.3107  -20.9617 C   0  0  0  0  0  0  0  0  0  0  0  0
   20.8108  -10.2031  -19.5122 C   0  0  0  0  0  0  0  0  0  0  0  0
   22.1353  -10.8715  -19.4034 C   0  0  0  0  0  0  0  0  0  0  0  0
   22.8038  -10.7568  -18.0754 C   0  0  2  0  0  0  0  0  0  0  0  0
   24.0822  -11.4911  -18.1033 N   0  0  0  0  0  0  0  0  0  0  0  0
   21.9574  -11.2999  -17.0055 C   0  0  0  0  0  0  0  0  0  0  0  0
   21.0877  -10.5308  -16.4637 O   0  0  0  0  0  0  0  0  0  0  0  0
   22.0422  -12.5929  -16.5487 O   0  0  0  0  0  0  0  0  0  0  0  0
  2  1  1  1
  2  3  1  0
  4  2  1  0
  4  6  1  0
  4  5  1  6
  6 13  1  0
  7  6  2  0
  9  8  1  1
 10  9  1  0
 11  9  1  0
 12 11  1  1
 13 12  1  0
 14 12  1  0
 14 15  2  0
 16 17  1  0
 17 19  1  0
 17 18  2  0
 19 20  1  0
 20 21  1  0
 21 22  1  0
 23 22  1  6
 23 25  1  0
 23 24  1  0
 24 14  1  0
 25 27  1  0
 26 25  2  0
M  END
$$$$
