TLR.pdb
     RDKit          3D

 27 26  0  0  1  0  0  0  0  0999 V2000
   19.0523   -9.9167  -16.0535 C   0  0  0  0  0  0  0  0  0  0  0  0
   20.3989  -10.5646  -15.9667 C   0  0  1  0  0  0  0  0  0  0  0  0
   20.5886  -11.4712  -17.0132 O   0  0  0  0  0  0  0  0  0  0  0  0
   21.5498   -9.6034  -15.8433 C   0  0  2  0  0  0  0  0  0  0  0  0
   22.7736  -10.3638  -15.7517 N   0  0  0  0  0  0  0  0  0  0  0  0
   21.4067   -8.6624  -14.7311 C   0  0  0  0  0  0  0  0  0  0  0  0
   21.3905   -9.1421  -13.5532 O   0  0  0  0  0  0  0  0  0  0  0  0
   22.5985   -3.0239  -14.6421 C   0  0  0  0  0  0  0  0  0  0  0  0
   21.7365   -4.2573  -14.9900 C   0  0  1  0  0  0  0  0  0  0  0  0
   22.3595   -4.8362  -16.2198 C   0  0  0  0  0  0  0  0  0  0  0  0
   21.7450   -5.1080  -13.7832 C   0  0  0  0  0  0  0  0  0  0  0  0
   20.9600   -6.3659  -13.7944 C   0  0  2  0  0  0  0  0  0  0  0  0
   21.2846   -7.2673  -14.8526 N   0  0  0  0  0  0  0  0  0  0  0  0
   19.4966   -6.1543  -13.6436 C   0  0  0  0  0  0  0  0  0  0  0  0
   18.7147   -6.0836  -14.6300 O   0  0  0  0  0  0  0  0  0  0  0  0
   14.1076   -8.2579   -6.9872 N   0  0  0  0  0  0  0  0  0  0  0  0
   13.2539   -7.7525   -8.0281 C   0  0  0  0  0  0  0  0  0  0  0  0
   11.9924   -7.9948   -7.8788 N   0  0  0  0  0  0  0  0  0  0  0  0
   13.7643   -7.0409   -9.1352 N   0  0  0  0  0  0  0  0  0  0  0  0
   15.1753   -7.0736   -9.4083 C   0  0  0  0  0  0  0  0  0  0  0  0
   15.5019   -6.3300  -10.7070 C   0  0  0  0  0  0  0  0  0  0  0  0
   16.9620   -6.4473  -10.9664 C   0  0  0  0  0  0  0  0  0  0  0  0
   17.4525   -5.7568  -12.1937 C   0  0  2  0  0  0  0  0  0  0  0  0
   18.8937   -6.0188  -12.3628 N   0  0  0  0  0  0  0  0  0  0  0  0
   17.2305   -4.3076  -12.1130 C   0  0  0  0  0  0  0  0  0  0  0  0
   18.1500   -3.5754  -11.6032 O   0  0  0  0  0  0  0  0  0  0  0  0
   16.0883   -3.6856  -12.5559 O   0  0  0  0  0  0  0  0  0  0  0  0
  2  1  1  6
  2  3  1  0
  4  2  1  0
  4  6  1  0
  4  5  1  1
  6 13  1  0
  7  6  2  0
  9  8  1  1
 10  9  1  0
 11  9  1  0
 12 11  1  6
 13 12  1  0
 14 12  1  0
 14 15  2  0
 16 17  1  0
 17 19  1  0
 17 18  2  0
 19 20  1  0
 20 21  1  0
 21 22  1  0
 23 22  1  1
 23 25  1  0
 23 24  1  0
 24 14  1  0
 25 27  1  0
 26 25  2  0
M  END
$$$$
