TLR.pdb
     RDKit          3D

 27 26  0  0  1  0  0  0  0  0999 V2000
   25.8443  -21.9970  -11.1177 C   0  0  0  0  0  0  0  0  0  0  0  0
   24.4880  -21.4480  -10.8018 C   0  0  1  0  0  0  0  0  0  0  0  0
   23.4828  -22.2335  -11.3725 O   0  0  0  0  0  0  0  0  0  0  0  0
   24.2392  -21.1960   -9.3395 C   0  0  2  0  0  0  0  0  0  0  0  0
   22.8369  -20.9053   -9.1572 N   0  0  0  0  0  0  0  0  0  0  0  0
   25.0922  -20.1489   -8.7751 C   0  0  0  0  0  0  0  0  0  0  0  0
   24.8095  -18.9422   -9.0613 O   0  0  0  0  0  0  0  0  0  0  0  0
   29.0432  -20.9502   -5.2331 C   0  0  0  0  0  0  0  0  0  0  0  0
   27.5726  -20.5060   -5.3930 C   0  0  1  0  0  0  0  0  0  0  0  0
   27.0612  -20.3355   -3.9983 C   0  0  0  0  0  0  0  0  0  0  0  0
   27.6073  -19.2942   -6.2358 C   0  0  0  0  0  0  0  0  0  0  0  0
   27.2312  -19.4113   -7.6653 C   0  0  2  0  0  0  0  0  0  0  0  0
   26.2026  -20.3623   -7.9400 N   0  0  0  0  0  0  0  0  0  0  0  0
   28.3972  -19.5410   -8.5777 C   0  0  0  0  0  0  0  0  0  0  0  0
   29.4000  -18.7799   -8.5119 O   0  0  0  0  0  0  0  0  0  0  0  0
   32.8637  -24.1058  -13.4631 N   0  0  0  0  0  0  0  0  0  0  0  0
   33.8852  -23.6062  -12.5829 C   0  0  0  0  0  0  0  0  0  0  0  0
   35.0563  -23.4673  -13.1133 N   0  0  0  0  0  0  0  0  0  0  0  0
   33.6211  -23.2907  -11.2326 N   0  0  0  0  0  0  0  0  0  0  0  0
   32.2663  -23.3126  -10.7525 C   0  0  0  0  0  0  0  0  0  0  0  0
   31.4968  -22.0732  -11.2193 C   0  0  0  0  0  0  0  0  0  0  0  0
   30.4162  -21.7881  -10.2375 C   0  0  0  0  0  0  0  0  0  0  0  0
   29.5427  -20.6249  -10.5656 C   0  0  2  0  0  0  0  0  0  0  0  0
   28.4439  -20.5432   -9.5857 N   0  0  0  0  0  0  0  0  0  0  0  0
   28.9786  -20.7479  -11.9157 C   0  0  0  0  0  0  0  0  0  0  0  0
   27.8493  -21.3366  -12.0555 O   0  0  0  0  0  0  0  0  0  0  0  0
   29.5931  -20.2645  -13.0454 O   0  0  0  0  0  0  0  0  0  0  0  0
  2  1  1  1
  2  3  1  0
  4  2  1  0
  4  6  1  0
  4  5  1  6
  6 13  1  0
  7  6  2  0
  9  8  1  1
 10  9  1  0
 11  9  1  0
 12 11  1  1
 13 12  1  0
 14 12  1  0
 14 15  2  0
 16 17  1  0
 17 19  1  0
 17 18  2  0
 19 20  1  0
 20 21  1  0
 21 22  1  0
 23 22  1  1
 23 25  1  0
 23 24  1  0
 24 14  1  0
 25 27  1  0
 26 25  2  0
M  END
$$$$
