TLR.pdb
     RDKit          3D

 27 26  0  0  1  0  0  0  0  0999 V2000
   24.4287  -25.8341  -17.5792 C   0  0  0  0  0  0  0  0  0  0  0  0
   25.6163  -25.0847  -18.0976 C   0  0  1  0  0  0  0  0  0  0  0  0
   25.2209  -23.9941  -18.8771 O   0  0  0  0  0  0  0  0  0  0  0  0
   26.6148  -24.6874  -17.0446 C   0  0  2  0  0  0  0  0  0  0  0  0
   27.1285  -25.8862  -16.4255 N   0  0  0  0  0  0  0  0  0  0  0  0
   26.0787  -23.7492  -16.0572 C   0  0  0  0  0  0  0  0  0  0  0  0
   25.5897  -24.2357  -14.9885 O   0  0  0  0  0  0  0  0  0  0  0  0
   27.9692  -18.4996  -15.3408 C   0  0  0  0  0  0  0  0  0  0  0  0
   27.6357  -20.0021  -15.2108 C   0  0  1  0  0  0  0  0  0  0  0  0
   28.3101  -20.4454  -13.9521 C   0  0  0  0  0  0  0  0  0  0  0  0
   26.1621  -20.0913  -15.2364 C   0  0  0  0  0  0  0  0  0  0  0  0
   25.5308  -21.4329  -15.2291 C   0  0  2  0  0  0  0  0  0  0  0  0
   26.0569  -22.3498  -16.1885 N   0  0  0  0  0  0  0  0  0  0  0  0
   24.0452  -21.3904  -15.2242 C   0  0  0  0  0  0  0  0  0  0  0  0
   23.3649  -21.2681  -16.2786 O   0  0  0  0  0  0  0  0  0  0  0  0
   18.9393  -24.9631   -9.1775 N   0  0  0  0  0  0  0  0  0  0  0  0
   18.3771  -25.1337  -10.4900 C   0  0  0  0  0  0  0  0  0  0  0  0
   17.5985  -26.1564  -10.6323 N   0  0  0  0  0  0  0  0  0  0  0  0
   18.6597  -24.2419  -11.5470 N   0  0  0  0  0  0  0  0  0  0  0  0
   19.6065  -23.1796  -11.3429 C   0  0  0  0  0  0  0  0  0  0  0  0
   19.9008  -22.4452  -12.6545 C   0  0  0  0  0  0  0  0  0  0  0  0
   21.3728  -22.2713  -12.7808 C   0  0  0  0  0  0  0  0  0  0  0  0
   21.8296  -21.5376  -13.9960 C   0  0  2  0  0  0  0  0  0  0  0  0
   23.3031  -21.4866  -14.0148 N   0  0  0  0  0  0  0  0  0  0  0  0
   21.2979  -20.1692  -14.0220 C   0  0  0  0  0  0  0  0  0  0  0  0
   22.0382  -19.2170  -13.5899 O   0  0  0  0  0  0  0  0  0  0  0  0
   20.0458  -19.8467  -14.4868 O   0  0  0  0  0  0  0  0  0  0  0  0
  2  1  1  1
  2  3  1  0
  4  2  1  0
  4  6  1  0
  4  5  1  1
  6 13  1  0
  7  6  2  0
  9  8  1  1
 10  9  1  0
 11  9  1  0
 12 11  1  6
 13 12  1  0
 14 12  1  0
 14 15  2  0
 16 17  1  0
 17 19  1  0
 17 18  2  0
 19 20  1  0
 20 21  1  0
 21 22  1  0
 23 22  1  1
 23 25  1  0
 23 24  1  0
 24 14  1  0
 25 27  1  0
 26 25  2  0
M  END
$$$$
