TLR.pdb
     RDKit          3D

 27 26  0  0  1  0  0  0  0  0999 V2000
   16.0633  -22.0560  -12.1201 C   0  0  0  0  0  0  0  0  0  0  0  0
   16.7107  -22.9918  -13.0926 C   0  0  1  0  0  0  0  0  0  0  0  0
   16.2465  -22.7668  -14.3914 O   0  0  0  0  0  0  0  0  0  0  0  0
   18.2139  -23.0170  -13.0319 C   0  0  2  0  0  0  0  0  0  0  0  0
   18.6944  -23.9869  -13.9873 N   0  0  0  0  0  0  0  0  0  0  0  0
   18.7389  -23.2670  -11.6885 C   0  0  0  0  0  0  0  0  0  0  0  0
   18.5817  -24.4321  -11.2030 O   0  0  0  0  0  0  0  0  0  0  0  0
   22.6389  -22.7755   -7.8477 C   0  0  0  0  0  0  0  0  0  0  0  0
   21.4797  -21.7605   -7.7411 C   0  0  1  0  0  0  0  0  0  0  0  0
   22.0849  -20.5377   -7.1294 C   0  0  0  0  0  0  0  0  0  0  0  0
   20.9426  -21.6172   -9.1089 C   0  0  0  0  0  0  0  0  0  0  0  0
   19.8893  -22.5576   -9.5614 C   0  0  2  0  0  0  0  0  0  0  0  0
   19.4049  -22.3260  -10.8841 N   0  0  0  0  0  0  0  0  0  0  0  0
   18.7977  -22.7482   -8.5710 C   0  0  0  0  0  0  0  0  0  0  0  0
   17.9052  -21.8813   -8.3675 O   0  0  0  0  0  0  0  0  0  0  0  0
   12.4249  -25.9581   -7.8883 N   0  0  0  0  0  0  0  0  0  0  0  0
   12.9657  -26.1343   -9.2090 C   0  0  0  0  0  0  0  0  0  0  0  0
   12.2116  -25.7265  -10.1772 N   0  0  0  0  0  0  0  0  0  0  0  0
   14.2343  -26.7136   -9.4273 N   0  0  0  0  0  0  0  0  0  0  0  0
   15.1985  -26.7287   -8.3612 C   0  0  0  0  0  0  0  0  0  0  0  0
   15.7732  -25.3296   -8.1190 C   0  0  0  0  0  0  0  0  0  0  0  0
   16.9121  -25.4426   -7.1688 C   0  0  0  0  0  0  0  0  0  0  0  0
   17.5997  -24.1616   -6.8372 C   0  0  2  0  0  0  0  0  0  0  0  0
   18.7009  -23.9333   -7.7908 N   0  0  0  0  0  0  0  0  0  0  0  0
   18.1393  -24.1858   -5.4718 C   0  0  0  0  0  0  0  0  0  0  0  0
   19.3539  -24.5557   -5.3007 O   0  0  0  0  0  0  0  0  0  0  0  0
   17.4148  -23.8316   -4.3596 O   0  0  0  0  0  0  0  0  0  0  0  0
  2  1  1  1
  2  3  1  0
  4  2  1  0
  4  6  1  0
  4  5  1  6
  6 13  1  0
  7  6  2  0
  9  8  1  6
 10  9  1  0
 11  9  1  0
 12 11  1  1
 13 12  1  0
 14 12  1  0
 14 15  2  0
 16 17  1  0
 17 19  1  0
 17 18  2  0
 19 20  1  0
 20 21  1  0
 21 22  1  0
 23 22  1  6
 23 25  1  0
 23 24  1  0
 24 14  1  0
 25 27  1  0
 26 25  2  0
M  END
$$$$
