TLR.pdb
     RDKit          3D

 27 26  0  0  1  0  0  0  0  0999 V2000
   23.7273  -23.3814  -18.5247 C   0  0  0  0  0  0  0  0  0  0  0  0
   24.9712  -24.0482  -18.0258 C   0  0  1  0  0  0  0  0  0  0  0  0
   25.5974  -24.7706  -19.0452 O   0  0  0  0  0  0  0  0  0  0  0  0
   25.9319  -23.1322  -17.3173 C   0  0  2  0  0  0  0  0  0  0  0  0
   27.0509  -23.9155  -16.8498 N   0  0  0  0  0  0  0  0  0  0  0  0
   25.3139  -22.3628  -16.2362 C   0  0  0  0  0  0  0  0  0  0  0  0
   25.0999  -22.9628  -15.1352 O   0  0  0  0  0  0  0  0  0  0  0  0
   25.7981  -16.7842  -15.6050 C   0  0  0  0  0  0  0  0  0  0  0  0
   25.9077  -18.3093  -15.3872 C   0  0  1  0  0  0  0  0  0  0  0  0
   26.7388  -18.4701  -14.1547 C   0  0  0  0  0  0  0  0  0  0  0  0
   24.5194  -18.8069  -15.3164 C   0  0  0  0  0  0  0  0  0  0  0  0
   24.2902  -20.2712  -15.2727 C   0  0  2  0  0  0  0  0  0  0  0  0
   24.9342  -21.0114  -16.3097 N   0  0  0  0  0  0  0  0  0  0  0  0
   22.8623  -20.6441  -15.0974 C   0  0  0  0  0  0  0  0  0  0  0  0
   22.0470  -20.6839  -16.0582 O   0  0  0  0  0  0  0  0  0  0  0  0
   18.8572  -24.4570   -8.0820 N   0  0  0  0  0  0  0  0  0  0  0  0
   17.9957  -24.6679   -9.2139 C   0  0  0  0  0  0  0  0  0  0  0  0
   17.0572  -25.5409   -9.0428 N   0  0  0  0  0  0  0  0  0  0  0  0
   18.1680  -23.9665  -10.4267 N   0  0  0  0  0  0  0  0  0  0  0  0
   19.4785  -23.5072  -10.7988 C   0  0  0  0  0  0  0  0  0  0  0  0
   19.4276  -22.6864  -12.0911 C   0  0  0  0  0  0  0  0  0  0  0  0
   20.8009  -22.2069  -12.4027 C   0  0  0  0  0  0  0  0  0  0  0  0
   20.9234  -21.3660  -13.6281 C   0  0  2  0  0  0  0  0  0  0  0  0
   22.3335  -20.9799  -13.8206 N   0  0  0  0  0  0  0  0  0  0  0  0
   20.0998  -20.1547  -13.5263 C   0  0  0  0  0  0  0  0  0  0  0  0
   20.6434  -19.0806  -13.0881 O   0  0  0  0  0  0  0  0  0  0  0  0
   18.7723  -20.1041  -13.8766 O   0  0  0  0  0  0  0  0  0  0  0  0
  2  1  1  6
  2  3  1  0
  4  2  1  0
  4  6  1  0
  4  5  1  1
  6 13  1  0
  7  6  2  0
  9  8  1  1
 10  9  1  0
 11  9  1  0
 12 11  1  6
 13 12  1  0
 14 12  1  0
 14 15  2  0
 16 17  1  0
 17 19  1  0
 17 18  2  0
 19 20  1  0
 20 21  1  0
 21 22  1  0
 23 22  1  1
 23 25  1  0
 23 24  1  0
 24 14  1  0
 25 27  1  0
 26 25  2  0
M  END
$$$$
