TLR.pdb
     RDKit          3D

 27 26  0  0  1  0  0  0  0  0999 V2000
   27.1394  -19.1760  -15.3451 C   0  0  0  0  0  0  0  0  0  0  0  0
   26.3373  -19.7824  -14.2362 C   0  0  1  0  0  0  0  0  0  0  0  0
   25.2479  -20.4995  -14.7383 O   0  0  0  0  0  0  0  0  0  0  0  0
   27.1383  -20.5950  -13.2554 C   0  0  2  0  0  0  0  0  0  0  0  0
   27.7139  -21.7192  -13.9548 N   0  0  0  0  0  0  0  0  0  0  0  0
   26.3702  -21.0161  -12.0827 C   0  0  0  0  0  0  0  0  0  0  0  0
   26.0449  -22.2431  -12.0022 O   0  0  0  0  0  0  0  0  0  0  0  0
   26.7309  -18.6166   -7.0123 C   0  0  0  0  0  0  0  0  0  0  0  0
   26.7658  -19.7395   -8.0721 C   0  0  1  0  0  0  0  0  0  0  0  0
   27.1902  -20.9659   -7.3295 C   0  0  0  0  0  0  0  0  0  0  0  0
   25.4181  -19.7665   -8.6749 C   0  0  0  0  0  0  0  0  0  0  0  0
   25.2002  -20.5835   -9.8929 C   0  0  2  0  0  0  0  0  0  0  0  0
   25.9583  -20.1776  -11.0323 N   0  0  0  0  0  0  0  0  0  0  0  0
   23.7655  -20.8136  -10.2051 C   0  0  0  0  0  0  0  0  0  0  0  0
   23.2126  -20.3531  -11.2403 O   0  0  0  0  0  0  0  0  0  0  0  0
   16.6351  -22.7305   -7.8349 N   0  0  0  0  0  0  0  0  0  0  0  0
   16.7632  -24.1167   -8.1952 C   0  0  0  0  0  0  0  0  0  0  0  0
   15.7185  -24.6476   -8.7420 N   0  0  0  0  0  0  0  0  0  0  0  0
   17.9514  -24.8432   -7.9650 N   0  0  0  0  0  0  0  0  0  0  0  0
   19.1685  -24.1357   -7.6740 C   0  0  0  0  0  0  0  0  0  0  0  0
   19.5701  -23.2283   -8.8409 C   0  0  0  0  0  0  0  0  0  0  0  0
   20.9072  -22.6451   -8.5498 C   0  0  0  0  0  0  0  0  0  0  0  0
   21.5178  -21.8568   -9.6586 C   0  0  2  0  0  0  0  0  0  0  0  0
   22.9300  -21.5747   -9.3418 N   0  0  0  0  0  0  0  0  0  0  0  0
   20.8058  -20.5893   -9.8646 C   0  0  0  0  0  0  0  0  0  0  0  0
   21.1699  -19.5659   -9.1854 O   0  0  0  0  0  0  0  0  0  0  0  0
   19.7663  -20.4342  -10.7495 O   0  0  0  0  0  0  0  0  0  0  0  0
  2  1  1  6
  2  3  1  0
  4  2  1  0
  4  6  1  0
  4  5  1  6
  6 13  1  0
  7  6  2  0
  9  8  1  1
 10  9  1  0
 11  9  1  0
 12 11  1  1
 13 12  1  0
 14 12  1  0
 14 15  2  0
 16 17  1  0
 17 19  1  0
 17 18  2  0
 19 20  1  0
 20 21  1  0
 21 22  1  0
 23 22  1  1
 23 25  1  0
 23 24  1  0
 24 14  1  0
 25 27  1  0
 26 25  2  0
M  END
$$$$
