TLR.pdb
     RDKit          3D

 27 26  0  0  1  0  0  0  0  0999 V2000
   20.4714  -22.8465   -8.2632 C   0  0  0  0  0  0  0  0  0  0  0  0
   21.6118  -22.1900   -8.9768 C   0  0  1  0  0  0  0  0  0  0  0  0
   21.3874  -22.1537  -10.3557 O   0  0  0  0  0  0  0  0  0  0  0  0
   21.9948  -20.8392   -8.4362 C   0  0  2  0  0  0  0  0  0  0  0  0
   20.9050  -19.9236   -8.6781 N   0  0  0  0  0  0  0  0  0  0  0  0
   23.2608  -20.3350   -8.9705 C   0  0  0  0  0  0  0  0  0  0  0  0
   23.2054  -19.3994   -9.8304 O   0  0  0  0  0  0  0  0  0  0  0  0
   28.2845  -20.5013   -6.2993 C   0  0  0  0  0  0  0  0  0  0  0  0
   26.9744  -20.0053   -6.9498 C   0  0  1  0  0  0  0  0  0  0  0  0
   27.0243  -18.5147   -6.8435 C   0  0  0  0  0  0  0  0  0  0  0  0
   26.9635  -20.5694   -8.3143 C   0  0  0  0  0  0  0  0  0  0  0  0
   25.7732  -20.3414   -9.1685 C   0  0  2  0  0  0  0  0  0  0  0  0
   24.5395  -20.7978   -8.6141 N   0  0  0  0  0  0  0  0  0  0  0  0
   25.9648  -20.7655  -10.5799 C   0  0  0  0  0  0  0  0  0  0  0  0
   25.8288  -21.9615  -10.9550 O   0  0  0  0  0  0  0  0  0  0  0  0
   29.2591  -19.7406  -17.2339 N   0  0  0  0  0  0  0  0  0  0  0  0
   28.2864  -19.0124  -18.0030 C   0  0  0  0  0  0  0  0  0  0  0  0
   28.3210  -19.2170  -19.2794 N   0  0  0  0  0  0  0  0  0  0  0  0
   27.3596  -18.1352  -17.3997 N   0  0  0  0  0  0  0  0  0  0  0  0
   27.3348  -18.0069  -15.9681 C   0  0  0  0  0  0  0  0  0  0  0  0
   26.7090  -19.2434  -15.3155 C   0  0  0  0  0  0  0  0  0  0  0  0
   26.5969  -19.0018  -13.8519 C   0  0  0  0  0  0  0  0  0  0  0  0
   26.4597  -20.2244  -13.0092 C   0  0  2  0  0  0  0  0  0  0  0  0
   26.3160  -19.8332  -11.5948 N   0  0  0  0  0  0  0  0  0  0  0  0
   27.6280  -21.1023  -13.1519 C   0  0  0  0  0  0  0  0  0  0  0  0
   28.5282  -21.0755  -12.2408 O   0  0  0  0  0  0  0  0  0  0  0  0
   27.8136  -21.9577  -14.2109 O   0  0  0  0  0  0  0  0  0  0  0  0
  2  1  1  1
  2  3  1  0
  4  2  1  0
  4  6  1  0
  4  5  1  6
  6 13  1  0
  7  6  2  0
  9  8  1  1
 10  9  1  0
 11  9  1  0
 12 11  1  1
 13 12  1  0
 14 12  1  0
 14 15  2  0
 16 17  1  0
 17 19  1  0
 17 18  2  0
 19 20  1  0
 20 21  1  0
 21 22  1  0
 23 22  1  6
 23 25  1  0
 23 24  1  0
 24 14  1  0
 25 27  1  0
 26 25  2  0
M  END
$$$$
