EPW.pdb
     RDKit          3D

 31 33  0  0  1  0  0  0  0  0999 V2000
   10.3285  -17.5399   17.6540 N   0  0  0  0  0  0  0  0  0  0  0  0
    9.1721  -17.4507   18.5220 C   0  0  1  0  0  0  0  0  0  0  0  0
    8.6008  -18.8304   18.6216 C   0  0  0  0  0  0  0  0  0  0  0  0
    7.4366  -18.8605   19.5438 C   0  0  0  0  0  0  0  0  0  0  0  0
    6.8720  -20.2598   19.5370 C   0  0  0  0  0  0  0  0  0  0  0  0
    7.2280  -21.1014   20.3894 O   0  0  0  0  0  0  0  0  0  0  0  0
    9.4472  -16.7747   19.7861 C   0  0  0  0  0  0  0  0  0  0  0  0
   10.4398  -17.1151   20.5083 O   0  0  0  0  0  0  0  0  0  0  0  0
    5.9490  -20.5731   18.5544 O   0  0  0  0  0  0  0  0  0  0  0  0
    8.6523  -15.6955   20.3205 N   0  0  0  0  0  0  0  0  0  0  0  0
    7.5141  -15.1685   19.6215 C   0  0  0  0  0  0  0  0  0  0  0  0
    7.0352  -14.0027   20.4135 C   0  0  0  0  0  0  0  0  0  0  0  0
    8.1982  -13.6582   21.3103 C   0  0  0  0  0  0  0  0  0  0  0  0
    8.8671  -15.0152   21.5619 C   0  0  1  0  0  0  0  0  0  0  0  0
    8.0857  -15.6229   22.6831 C   0  0  0  0  0  0  0  0  0  0  0  0
    6.8421  -15.4526   22.7234 O   0  0  0  0  0  0  0  0  0  0  0  0
    8.6900  -16.3842   23.7040 N   0  0  0  0  0  0  0  0  0  0  0  0
    9.7916  -15.9586   24.5239 C   0  0  1  0  0  0  0  0  0  0  0  0
    9.5083  -14.6400   25.2180 C   0  0  0  0  0  0  0  0  0  0  0  0
    8.0760  -14.4737   25.5317 C   0  0  0  0  0  0  0  0  0  0  0  0
    7.0947  -15.4272   25.3036 C   0  0  0  0  0  0  0  0  0  0  0  0
    5.8922  -14.9352   25.7111 N   0  0  0  0  0  0  0  0  0  0  0  0
    6.0626  -13.6936   26.1961 C   0  0  0  0  0  0  0  0  0  0  0  0
    5.1422  -12.8077   26.7183 C   0  0  0  0  0  0  0  0  0  0  0  0
    5.5823  -11.5735   27.1539 C   0  0  0  0  0  0  0  0  0  0  0  0
    6.9250  -11.2704   27.0516 C   0  0  0  0  0  0  0  0  0  0  0  0
    7.8353  -12.1811   26.5208 C   0  0  0  0  0  0  0  0  0  0  0  0
    7.3983  -13.4048   26.0891 C   0  0  0  0  0  0  0  0  0  0  0  0
   10.0043  -16.9786   25.5858 C   0  0  0  0  0  0  0  0  0  0  0  0
    9.2335  -18.1308   25.6583 O   0  0  0  0  0  0  0  0  0  0  0  0
   10.8968  -16.8212   26.4535 O   0  0  0  0  0  0  0  0  0  0  0  0
  2  1  1  1
  2  3  1  0
  3  4  1  0
  5  9  1  0
  5  4  1  0
  6  5  2  0
  7 10  1  0
  7  2  1  0
  8  7  2  0
 10 11  1  0
 11 12  1  0
 12 13  1  0
 14 15  1  1
 14 10  1  0
 14 13  1  0
 15 16  2  0
 17 18  1  0
 17 15  1  0
 18 29  1  0
 18 19  1  1
 20 19  1  0
 21 20  2  0
 22 21  1  0
 23 22  1  0
 23 28  2  0
 24 23  1  0
 25 24  2  0
 25 26  1  0
 26 27  2  0
 27 28  1  0
 28 20  1  0
 29 31  2  0
 29 30  1  0
M  END
$$$$
