EPW.pdb
     RDKit          3D

 31 33  0  0  1  0  0  0  0  0999 V2000
   11.7717  -13.8789   17.8569 N   0  0  0  0  0  0  0  0  0  0  0  0
   11.4815  -15.0331   18.6828 C   0  0  1  0  0  0  0  0  0  0  0  0
   12.7639  -15.7905   18.8303 C   0  0  0  0  0  0  0  0  0  0  0  0
   12.6087  -17.1961   18.3755 C   0  0  0  0  0  0  0  0  0  0  0  0
   13.8999  -17.9237   18.6591 C   0  0  0  0  0  0  0  0  0  0  0  0
   14.2015  -18.2699   19.8213 O   0  0  0  0  0  0  0  0  0  0  0  0
   10.7846  -14.6992   19.9210 C   0  0  0  0  0  0  0  0  0  0  0  0
   11.2609  -13.8366   20.7284 O   0  0  0  0  0  0  0  0  0  0  0  0
   14.7331  -18.1910   17.5868 O   0  0  0  0  0  0  0  0  0  0  0  0
    9.5353  -15.2905   20.3355 N   0  0  0  0  0  0  0  0  0  0  0  0
    8.8900  -16.3219   19.5728 C   0  0  0  0  0  0  0  0  0  0  0  0
    7.5853  -16.5858   20.2391 C   0  0  0  0  0  0  0  0  0  0  0  0
    7.3616  -15.3765   21.1126 C   0  0  0  0  0  0  0  0  0  0  0  0
    8.7826  -14.9545   21.5061 C   0  0  1  0  0  0  0  0  0  0  0  0
    9.1295  -15.8253   22.6716 C   0  0  0  0  0  0  0  0  0  0  0  0
    9.5711  -16.9817   22.4598 O   0  0  0  0  0  0  0  0  0  0  0  0
    8.9809  -15.4002   24.0073 N   0  0  0  0  0  0  0  0  0  0  0  0
    9.6707  -15.9515   25.1419 C   0  0  1  0  0  0  0  0  0  0  0  0
    9.3198  -15.2279   26.4280 C   0  0  0  0  0  0  0  0  0  0  0  0
    7.9384  -14.7091   26.4145 C   0  0  0  0  0  0  0  0  0  0  0  0
    6.7985  -15.4828   26.2530 C   0  0  0  0  0  0  0  0  0  0  0  0
    5.7029  -14.6750   26.2899 N   0  0  0  0  0  0  0  0  0  0  0  0
    6.0961  -13.4027   26.4702 C   0  0  0  0  0  0  0  0  0  0  0  0
    5.3500  -12.2459   26.5700 C   0  0  0  0  0  0  0  0  0  0  0  0
    6.0078  -11.0461   26.7561 C   0  0  0  0  0  0  0  0  0  0  0  0
    7.3857  -11.0467   26.8355 C   0  0  0  0  0  0  0  0  0  0  0  0
    8.1174  -12.2273   26.7319 C   0  0  0  0  0  0  0  0  0  0  0  0
    7.4646  -13.4166   26.5473 C   0  0  0  0  0  0  0  0  0  0  0  0
    9.2456  -17.3680   25.3033 C   0  0  0  0  0  0  0  0  0  0  0  0
    8.1662  -17.8919   24.6053 O   0  0  0  0  0  0  0  0  0  0  0  0
    9.8597  -18.1344   26.0843 O   0  0  0  0  0  0  0  0  0  0  0  0
  2  1  1  1
  2  3  1  0
  3  4  1  0
  5  9  1  0
  5  4  1  0
  6  5  2  0
  7 10  1  0
  7  2  1  0
  8  7  2  0
 10 11  1  0
 11 12  1  0
 12 13  1  0
 14 15  1  1
 14 10  1  0
 14 13  1  0
 15 16  2  0
 17 18  1  0
 17 15  1  0
 18 29  1  0
 18 19  1  1
 20 19  1  0
 21 20  2  0
 22 21  1  0
 23 22  1  0
 23 28  2  0
 24 23  1  0
 25 24  2  0
 25 26  1  0
 26 27  2  0
 27 28  1  0
 28 20  1  0
 29 31  2  0
 29 30  1  0
M  END
$$$$
