EPW.pdb
     RDKit          3D

 31 33  0  0  1  0  0  0  0  0999 V2000
   10.7790  -16.9851   17.3623 N   0  0  0  0  0  0  0  0  0  0  0  0
    9.8502  -17.3424   18.4151 C   0  0  1  0  0  0  0  0  0  0  0  0
   10.0201  -18.8090   18.6600 C   0  0  0  0  0  0  0  0  0  0  0  0
    9.1958  -19.2567   19.8119 C   0  0  0  0  0  0  0  0  0  0  0  0
    9.3857  -20.7451   19.9711 C   0  0  0  0  0  0  0  0  0  0  0  0
    8.8297  -21.3689   20.9003 O   0  0  0  0  0  0  0  0  0  0  0  0
    9.9434  -16.4785   19.5879 C   0  0  0  0  0  0  0  0  0  0  0  0
   11.0757  -16.1368   20.0612 O   0  0  0  0  0  0  0  0  0  0  0  0
   10.1959  -21.3892   19.0523 O   0  0  0  0  0  0  0  0  0  0  0  0
    8.8055  -15.9470   20.2984 N   0  0  0  0  0  0  0  0  0  0  0  0
    7.4570  -16.1925   19.8706 C   0  0  0  0  0  0  0  0  0  0  0  0
    6.5779  -15.3912   20.7655 C   0  0  0  0  0  0  0  0  0  0  0  0
    7.5065  -14.3825   21.3946 C   0  0  0  0  0  0  0  0  0  0  0  0
    8.8428  -15.1310   21.4743 C   0  0  1  0  0  0  0  0  0  0  0  0
    8.7515  -15.9407   22.7285 C   0  0  0  0  0  0  0  0  0  0  0  0
    8.4525  -17.1579   22.6491 O   0  0  0  0  0  0  0  0  0  0  0  0
    8.9885  -15.3920   24.0051 N   0  0  0  0  0  0  0  0  0  0  0  0
    9.6460  -16.0617   25.0942 C   0  0  1  0  0  0  0  0  0  0  0  0
    9.4304  -15.3475   26.4149 C   0  0  0  0  0  0  0  0  0  0  0  0
    8.1167  -14.6782   26.4765 C   0  0  0  0  0  0  0  0  0  0  0  0
    6.8903  -15.3232   26.4121 C   0  0  0  0  0  0  0  0  0  0  0  0
    5.8951  -14.3977   26.4970 N   0  0  0  0  0  0  0  0  0  0  0  0
    6.4371  -13.1736   26.6145 C   0  0  0  0  0  0  0  0  0  0  0  0
    5.8312  -11.9389   26.7294 C   0  0  0  0  0  0  0  0  0  0  0  0
    6.6279  -10.8163   26.8375 C   0  0  0  0  0  0  0  0  0  0  0  0
    7.9997  -10.9689   26.8268 C   0  0  0  0  0  0  0  0  0  0  0  0
    8.5884  -12.2257   26.7098 C   0  0  0  0  0  0  0  0  0  0  0  0
    7.7979  -13.3385   26.6026 C   0  0  0  0  0  0  0  0  0  0  0  0
    9.0590  -17.4221   25.2280 C   0  0  0  0  0  0  0  0  0  0  0  0
    9.6739  -18.4134   25.9804 O   0  0  0  0  0  0  0  0  0  0  0  0
    7.9799  -17.7115   24.6570 O   0  0  0  0  0  0  0  0  0  0  0  0
  2  1  1  6
  2  3  1  0
  3  4  1  0
  5  9  1  0
  5  4  1  0
  6  5  2  0
  7 10  1  0
  7  2  1  0
  8  7  2  0
 10 11  1  0
 11 12  1  0
 12 13  1  0
 14 15  1  1
 14 10  1  0
 14 13  1  0
 15 16  2  0
 17 18  1  0
 17 15  1  0
 18 29  1  0
 18 19  1  1
 20 19  1  0
 21 20  2  0
 22 21  1  0
 23 22  1  0
 23 28  2  0
 24 23  1  0
 25 24  2  0
 25 26  1  0
 26 27  2  0
 27 28  1  0
 28 20  1  0
 29 31  2  0
 29 30  1  0
M  END
$$$$
