EPW.pdb
     RDKit          3D

 31 33  0  0  1  0  0  0  0  0999 V2000
   11.1115  -17.0892   17.5264 N   0  0  0  0  0  0  0  0  0  0  0  0
   10.0022  -17.3659   18.4161 C   0  0  1  0  0  0  0  0  0  0  0  0
    9.9882  -18.8456   18.6397 C   0  0  0  0  0  0  0  0  0  0  0  0
   10.8796  -19.2234   19.7664 C   0  0  0  0  0  0  0  0  0  0  0  0
   10.7588  -20.7126   19.9780 C   0  0  0  0  0  0  0  0  0  0  0  0
   10.2787  -21.1754   21.0348 O   0  0  0  0  0  0  0  0  0  0  0  0
    9.9993  -16.5333   19.6150 C   0  0  0  0  0  0  0  0  0  0  0  0
   11.0855  -16.0708   20.0937 O   0  0  0  0  0  0  0  0  0  0  0  0
   11.1986  -21.5416   18.9607 O   0  0  0  0  0  0  0  0  0  0  0  0
    8.8111  -16.1661   20.3467 N   0  0  0  0  0  0  0  0  0  0  0  0
    7.5087  -16.6426   19.9743 C   0  0  0  0  0  0  0  0  0  0  0  0
    6.5371  -15.9605   20.8723 C   0  0  0  0  0  0  0  0  0  0  0  0
    7.3069  -14.7917   21.4353 C   0  0  0  0  0  0  0  0  0  0  0  0
    8.7489  -15.3106   21.4931 C   0  0  1  0  0  0  0  0  0  0  0  0
    8.8271  -16.0761   22.7756 C   0  0  0  0  0  0  0  0  0  0  0  0
    8.7303  -17.3279   22.7466 O   0  0  0  0  0  0  0  0  0  0  0  0
    9.0062  -15.4478   24.0247 N   0  0  0  0  0  0  0  0  0  0  0  0
    9.7260  -15.9971   25.1415 C   0  0  1  0  0  0  0  0  0  0  0  0
    9.4345  -15.2506   26.4293 C   0  0  0  0  0  0  0  0  0  0  0  0
    8.0911  -14.6402   26.4258 C   0  0  0  0  0  0  0  0  0  0  0  0
    6.9002  -15.3364   26.2795 C   0  0  0  0  0  0  0  0  0  0  0  0
    5.8617  -14.4567   26.3221 N   0  0  0  0  0  0  0  0  0  0  0  0
    6.3412  -13.2128   26.4912 C   0  0  0  0  0  0  0  0  0  0  0  0
    5.6754  -12.0080   26.5914 C   0  0  0  0  0  0  0  0  0  0  0  0
    6.4140  -10.8542   26.7643 C   0  0  0  0  0  0  0  0  0  0  0  0
    7.7895  -10.9468   26.8306 C   0  0  0  0  0  0  0  0  0  0  0  0
    8.4392  -12.1744   26.7270 C   0  0  0  0  0  0  0  0  0  0  0  0
    7.7064  -13.3182   26.5556 C   0  0  0  0  0  0  0  0  0  0  0  0
    9.2814  -17.4033   25.3371 C   0  0  0  0  0  0  0  0  0  0  0  0
    8.1575  -17.9105   24.6997 O   0  0  0  0  0  0  0  0  0  0  0  0
    9.9191  -18.1758   26.0927 O   0  0  0  0  0  0  0  0  0  0  0  0
  2  1  1  1
  2  3  1  0
  3  4  1  0
  5  9  1  0
  5  4  1  0
  6  5  2  0
  7 10  1  0
  7  2  1  0
  8  7  2  0
 10 11  1  0
 11 12  1  0
 12 13  1  0
 14 15  1  1
 14 10  1  0
 14 13  1  0
 15 16  2  0
 17 18  1  0
 17 15  1  0
 18 29  1  0
 18 19  1  1
 20 19  1  0
 21 20  2  0
 22 21  1  0
 23 22  1  0
 23 28  2  0
 24 23  1  0
 25 24  2  0
 25 26  1  0
 26 27  2  0
 27 28  1  0
 28 20  1  0
 29 31  2  0
 29 30  1  0
M  END
$$$$
