EPW.pdb
     RDKit          3D

 31 33  0  0  1  0  0  0  0  0999 V2000
    6.9091  -18.9797   19.2534 N   0  0  0  0  0  0  0  0  0  0  0  0
    6.7145  -17.9533   20.2571 C   0  0  1  0  0  0  0  0  0  0  0  0
    6.1271  -18.6293   21.4562 C   0  0  0  0  0  0  0  0  0  0  0  0
    7.1410  -19.4678   22.1460 C   0  0  0  0  0  0  0  0  0  0  0  0
    6.4932  -20.0737   23.3667 C   0  0  0  0  0  0  0  0  0  0  0  0
    5.7236  -19.4024   24.0868 O   0  0  0  0  0  0  0  0  0  0  0  0
    7.9040  -17.1412   20.4936 C   0  0  0  0  0  0  0  0  0  0  0  0
    9.0676  -17.5962   20.2452 O   0  0  0  0  0  0  0  0  0  0  0  0
    6.7837  -21.3956   23.6562 O   0  0  0  0  0  0  0  0  0  0  0  0
    7.8791  -15.7947   21.0117 N   0  0  0  0  0  0  0  0  0  0  0  0
    6.6884  -15.2123   21.5641 C   0  0  0  0  0  0  0  0  0  0  0  0
    7.0167  -13.7936   21.8728 C   0  0  0  0  0  0  0  0  0  0  0  0
    8.2672  -13.5183   21.0754 C   0  0  0  0  0  0  0  0  0  0  0  0
    8.9776  -14.8772   21.0481 C   0  0  1  0  0  0  0  0  0  0  0  0
    9.7264  -14.9416   22.3412 C   0  0  0  0  0  0  0  0  0  0  0  0
   10.6383  -14.1065   22.5612 O   0  0  0  0  0  0  0  0  0  0  0  0
    9.4502  -15.9066   23.3309 N   0  0  0  0  0  0  0  0  0  0  0  0
   10.1537  -16.0522   24.5763 C   0  0  1  0  0  0  0  0  0  0  0  0
    9.9134  -14.8783   25.5063 C   0  0  0  0  0  0  0  0  0  0  0  0
    8.4764  -14.6478   25.7502 C   0  0  0  0  0  0  0  0  0  0  0  0
    7.4893  -15.6192   25.6719 C   0  0  0  0  0  0  0  0  0  0  0  0
    6.2837  -15.0532   25.9555 N   0  0  0  0  0  0  0  0  0  0  0  0
    6.4578  -13.7462   26.2152 C   0  0  0  0  0  0  0  0  0  0  0  0
    5.5363  -12.7743   26.5483 C   0  0  0  0  0  0  0  0  0  0  0  0
    5.9811  -11.4855   26.7674 C   0  0  0  0  0  0  0  0  0  0  0  0
    7.3293  -11.2158   26.6455 C   0  0  0  0  0  0  0  0  0  0  0  0
    8.2405  -12.2136   26.3082 C   0  0  0  0  0  0  0  0  0  0  0  0
    7.7989  -13.4914   26.0911 C   0  0  0  0  0  0  0  0  0  0  0  0
    9.6419  -17.2693   25.2617 C   0  0  0  0  0  0  0  0  0  0  0  0
   10.2500  -17.7772   26.4015 O   0  0  0  0  0  0  0  0  0  0  0  0
    8.6352  -17.8751   24.8214 O   0  0  0  0  0  0  0  0  0  0  0  0
  2  1  1  6
  2  3  1  0
  3  4  1  0
  5  9  1  0
  5  4  1  0
  6  5  2  0
  7 10  1  0
  7  2  1  0
  8  7  2  0
 10 11  1  0
 11 12  1  0
 12 13  1  0
 14 15  1  1
 14 10  1  0
 14 13  1  0
 15 16  2  0
 17 18  1  0
 17 15  1  0
 18 29  1  0
 18 19  1  1
 20 19  1  0
 21 20  2  0
 22 21  1  0
 23 22  1  0
 23 28  2  0
 24 23  1  0
 25 24  2  0
 25 26  1  0
 26 27  2  0
 27 28  1  0
 28 20  1  0
 29 31  2  0
 29 30  1  0
M  END
$$$$
