EPW.pdb
     RDKit          3D

 31 33  0  0  1  0  0  0  0  0999 V2000
   11.4627  -15.6157   16.5826 N   0  0  0  0  0  0  0  0  0  0  0  0
   10.2106  -15.7565   17.2975 C   0  0  1  0  0  0  0  0  0  0  0  0
    9.7042  -17.1355   17.0115 C   0  0  0  0  0  0  0  0  0  0  0  0
   10.6998  -18.1630   17.4112 C   0  0  0  0  0  0  0  0  0  0  0  0
   10.0315  -19.5139   17.3375 C   0  0  0  0  0  0  0  0  0  0  0  0
    9.5777  -19.9492   16.2576 O   0  0  0  0  0  0  0  0  0  0  0  0
   10.3021  -15.3831   18.7055 C   0  0  0  0  0  0  0  0  0  0  0  0
   11.3898  -15.5286   19.3523 O   0  0  0  0  0  0  0  0  0  0  0  0
    9.9413  -20.2483   18.5071 O   0  0  0  0  0  0  0  0  0  0  0  0
    9.2110  -14.8328   19.4730 N   0  0  0  0  0  0  0  0  0  0  0  0
    7.9125  -14.6114   18.9015 C   0  0  0  0  0  0  0  0  0  0  0  0
    7.1023  -13.9283   19.9469 C   0  0  0  0  0  0  0  0  0  0  0  0
    8.1229  -13.4045   20.9263 C   0  0  0  0  0  0  0  0  0  0  0  0
    9.2533  -14.4381   20.8486 C   0  0  1  0  0  0  0  0  0  0  0  0
    8.8267  -15.5388   21.7669 C   0  0  0  0  0  0  0  0  0  0  0  0
    8.5312  -16.6588   21.2816 O   0  0  0  0  0  0  0  0  0  0  0  0
    8.7417  -15.3716   23.1639 N   0  0  0  0  0  0  0  0  0  0  0  0
    9.7594  -15.7332   24.1128 C   0  0  1  0  0  0  0  0  0  0  0  0
    9.7297  -14.8481   25.3443 C   0  0  0  0  0  0  0  0  0  0  0  0
    8.3541  -14.4779   25.7294 C   0  0  0  0  0  0  0  0  0  0  0  0
    7.2621  -15.3329   25.7026 C   0  0  0  0  0  0  0  0  0  0  0  0
    6.1564  -14.6564   26.1198 N   0  0  0  0  0  0  0  0  0  0  0  0
    6.4967  -13.3906   26.4161 C   0  0  0  0  0  0  0  0  0  0  0  0
    5.7217  -12.3441   26.8730 C   0  0  0  0  0  0  0  0  0  0  0  0
    6.3244  -11.1232   27.1031 C   0  0  0  0  0  0  0  0  0  0  0  0
    7.6783  -10.9934   26.8683 C   0  0  0  0  0  0  0  0  0  0  0  0
    8.4400  -12.0643   26.4072 C   0  0  0  0  0  0  0  0  0  0  0  0
    7.8418  -13.2747   26.1791 C   0  0  0  0  0  0  0  0  0  0  0  0
    9.5015  -17.1266   24.5656 C   0  0  0  0  0  0  0  0  0  0  0  0
   10.4670  -17.8706   25.2296 O   0  0  0  0  0  0  0  0  0  0  0  0
    8.3908  -17.6714   24.3559 O   0  0  0  0  0  0  0  0  0  0  0  0
  2  1  1  1
  2  3  1  0
  3  4  1  0
  5  9  1  0
  5  4  1  0
  6  5  2  0
  7 10  1  0
  7  2  1  0
  8  7  2  0
 10 11  1  0
 11 12  1  0
 12 13  1  0
 14 15  1  1
 14 10  1  0
 14 13  1  0
 15 16  2  0
 17 18  1  0
 17 15  1  0
 18 29  1  0
 18 19  1  1
 20 19  1  0
 21 20  2  0
 22 21  1  0
 23 22  1  0
 23 28  2  0
 24 23  1  0
 25 24  2  0
 25 26  1  0
 26 27  2  0
 27 28  1  0
 28 20  1  0
 29 31  2  0
 29 30  1  0
M  END
$$$$
