EPW.pdb
     RDKit          3D

 31 33  0  0  1  0  0  0  0  0999 V2000
   12.4524  -14.4526   17.1749 N   0  0  0  0  0  0  0  0  0  0  0  0
   11.0976  -14.7728   17.5756 C   0  0  1  0  0  0  0  0  0  0  0  0
   10.7685  -16.0973   16.9614 C   0  0  0  0  0  0  0  0  0  0  0  0
   11.3119  -17.2135   17.7772 C   0  0  0  0  0  0  0  0  0  0  0  0
   10.8840  -18.5110   17.1368 C   0  0  0  0  0  0  0  0  0  0  0  0
   11.1100  -18.7376   15.9288 O   0  0  0  0  0  0  0  0  0  0  0  0
   10.8758  -14.6567   19.0135 C   0  0  0  0  0  0  0  0  0  0  0  0
   11.8234  -14.8583   19.8407 O   0  0  0  0  0  0  0  0  0  0  0  0
   10.2345  -19.4358   17.9359 O   0  0  0  0  0  0  0  0  0  0  0  0
    9.6099  -14.3146   19.6157 N   0  0  0  0  0  0  0  0  0  0  0  0
    8.4236  -14.1108   18.8327 C   0  0  0  0  0  0  0  0  0  0  0  0
    7.3667  -13.6579   19.7781 C   0  0  0  0  0  0  0  0  0  0  0  0
    8.1276  -13.2101   21.0012 C   0  0  0  0  0  0  0  0  0  0  0  0
    9.3551  -14.1295   21.0124 C   0  0  1  0  0  0  0  0  0  0  0  0
    8.8840  -15.3858   21.6733 C   0  0  0  0  0  0  0  0  0  0  0  0
    8.7010  -16.4124   20.9734 O   0  0  0  0  0  0  0  0  0  0  0  0
    8.6350  -15.4674   23.0583 N   0  0  0  0  0  0  0  0  0  0  0  0
    9.5791  -15.8966   24.0539 C   0  0  1  0  0  0  0  0  0  0  0  0
    9.5668  -14.9972   25.2753 C   0  0  0  0  0  0  0  0  0  0  0  0
    8.1956  -14.6505   25.6961 C   0  0  0  0  0  0  0  0  0  0  0  0
    7.0901  -15.4787   25.5694 C   0  0  0  0  0  0  0  0  0  0  0  0
    5.9935  -14.8358   26.0576 N   0  0  0  0  0  0  0  0  0  0  0  0
    6.3527  -13.6176   26.4966 C   0  0  0  0  0  0  0  0  0  0  0  0
    5.5926  -12.6169   27.0671 C   0  0  0  0  0  0  0  0  0  0  0  0
    6.2138  -11.4401   27.4360 C   0  0  0  0  0  0  0  0  0  0  0  0
    7.5707  -11.3069   27.2211 C   0  0  0  0  0  0  0  0  0  0  0  0
    8.3172  -12.3311   26.6435 C   0  0  0  0  0  0  0  0  0  0  0  0
    7.7006  -13.4977   26.2780 C   0  0  0  0  0  0  0  0  0  0  0  0
    9.1924  -17.2599   24.5067 C   0  0  0  0  0  0  0  0  0  0  0  0
    8.0435  -17.8861   24.0434 O   0  0  0  0  0  0  0  0  0  0  0  0
    9.9037  -17.8858   25.3292 O   0  0  0  0  0  0  0  0  0  0  0  0
  2  1  1  1
  2  3  1  0
  3  4  1  0
  5  9  1  0
  5  4  1  0
  6  5  2  0
  7 10  1  0
  7  2  1  0
  8  7  2  0
 10 11  1  0
 11 12  1  0
 12 13  1  0
 14 15  1  6
 14 10  1  0
 14 13  1  0
 15 16  2  0
 17 18  1  0
 17 15  1  0
 18 29  1  0
 18 19  1  1
 20 19  1  0
 21 20  2  0
 22 21  1  0
 23 22  1  0
 23 28  2  0
 24 23  1  0
 25 24  2  0
 25 26  1  0
 26 27  2  0
 27 28  1  0
 28 20  1  0
 29 31  2  0
 29 30  1  0
M  END
$$$$
