EPW.pdb
     RDKit          3D

 31 33  0  0  1  0  0  0  0  0999 V2000
   11.3333  -18.1311   17.7521 N   0  0  0  0  0  0  0  0  0  0  0  0
   11.0027  -18.9443   18.9046 C   0  0  1  0  0  0  0  0  0  0  0  0
   12.2750  -19.5918   19.3540 C   0  0  0  0  0  0  0  0  0  0  0  0
   13.3997  -18.6214   19.3451 C   0  0  0  0  0  0  0  0  0  0  0  0
   14.6299  -19.3280   19.8590 C   0  0  0  0  0  0  0  0  0  0  0  0
   14.5815  -20.5232   20.2208 O   0  0  0  0  0  0  0  0  0  0  0  0
   10.2514  -18.2224   19.9267 C   0  0  0  0  0  0  0  0  0  0  0  0
   10.3303  -16.9548   20.0247 O   0  0  0  0  0  0  0  0  0  0  0  0
   15.8082  -18.6041   19.9139 O   0  0  0  0  0  0  0  0  0  0  0  0
    9.3784  -18.8502   20.8891 N   0  0  0  0  0  0  0  0  0  0  0  0
    9.2350  -20.2766   20.9715 C   0  0  0  0  0  0  0  0  0  0  0  0
    8.1726  -20.5361   21.9813 C   0  0  0  0  0  0  0  0  0  0  0  0
    7.4551  -19.2160   22.1152 C   0  0  0  0  0  0  0  0  0  0  0  0
    8.5591  -18.1836   21.8556 C   0  0  1  0  0  0  0  0  0  0  0  0
    9.2509  -18.0264   23.1723 C   0  0  0  0  0  0  0  0  0  0  0  0
   10.0629  -18.9092   23.5447 O   0  0  0  0  0  0  0  0  0  0  0  0
    9.0288  -16.9218   24.0192 N   0  0  0  0  0  0  0  0  0  0  0  0
    9.8300  -16.5678   25.1593 C   0  0  1  0  0  0  0  0  0  0  0  0
    9.6410  -15.1169   25.5593 C   0  0  0  0  0  0  0  0  0  0  0  0
    8.2175  -14.7696   25.7341 C   0  0  0  0  0  0  0  0  0  0  0  0
    7.1654  -15.6722   25.6836 C   0  0  0  0  0  0  0  0  0  0  0  0
    5.9957  -15.0046   25.8846 N   0  0  0  0  0  0  0  0  0  0  0  0
    6.2560  -13.6985   26.0637 C   0  0  0  0  0  0  0  0  0  0  0  0
    5.3974  -12.6435   26.2977 C   0  0  0  0  0  0  0  0  0  0  0  0
    5.9275  -11.3773   26.4475 C   0  0  0  0  0  0  0  0  0  0  0  0
    7.2949  -11.2122   26.3581 C   0  0  0  0  0  0  0  0  0  0  0  0
    8.1415  -12.2924   26.1213 C   0  0  0  0  0  0  0  0  0  0  0  0
    7.6153  -13.5478   25.9728 C   0  0  0  0  0  0  0  0  0  0  0  0
    9.3961  -17.4026   26.3118 C   0  0  0  0  0  0  0  0  0  0  0  0
   10.1525  -17.4979   27.4718 O   0  0  0  0  0  0  0  0  0  0  0  0
    8.3222  -18.0497   26.2637 O   0  0  0  0  0  0  0  0  0  0  0  0
  2  1  1  6
  2  3  1  0
  3  4  1  0
  5  9  1  0
  5  4  1  0
  6  5  2  0
  7 10  1  0
  7  2  1  0
  8  7  2  0
 10 11  1  0
 11 12  1  0
 12 13  1  0
 14 15  1  1
 14 10  1  0
 14 13  1  0
 15 16  2  0
 17 18  1  0
 17 15  1  0
 18 29  1  0
 18 19  1  1
 20 19  1  0
 21 20  2  0
 22 21  1  0
 23 22  1  0
 23 28  2  0
 24 23  1  0
 25 24  2  0
 25 26  1  0
 26 27  2  0
 27 28  1  0
 28 20  1  0
 29 31  2  0
 29 30  1  0
M  END
$$$$
