EPW.pdb
     RDKit          3D

 31 33  0  0  1  0  0  0  0  0999 V2000
    7.8223  -19.2537   19.8403 N   0  0  0  0  0  0  0  0  0  0  0  0
    7.5160  -18.4737   21.0220 C   0  0  1  0  0  0  0  0  0  0  0  0
    7.3472  -19.4455   22.1476 C   0  0  0  0  0  0  0  0  0  0  0  0
    6.0604  -20.1785   22.0312 C   0  0  0  0  0  0  0  0  0  0  0  0
    6.2331  -21.5304   22.6789 C   0  0  0  0  0  0  0  0  0  0  0  0
    7.3710  -21.9964   22.9018 O   0  0  0  0  0  0  0  0  0  0  0  0
    8.4524  -17.3780   21.2520 C   0  0  0  0  0  0  0  0  0  0  0  0
    9.6957  -17.5181   21.0127 O   0  0  0  0  0  0  0  0  0  0  0  0
    5.0875  -22.2307   23.0145 O   0  0  0  0  0  0  0  0  0  0  0  0
    8.0756  -16.0784   21.7531 N   0  0  0  0  0  0  0  0  0  0  0  0
    6.7039  -15.7132   21.9696 C   0  0  0  0  0  0  0  0  0  0  0  0
    6.7066  -14.2779   22.3642 C   0  0  0  0  0  0  0  0  0  0  0  0
    8.0620  -13.7754   21.9333 C   0  0  0  0  0  0  0  0  0  0  0  0
    8.9634  -15.0064   22.0888 C   0  0  1  0  0  0  0  0  0  0  0  0
    9.3448  -15.0190   23.5349 C   0  0  0  0  0  0  0  0  0  0  0  0
    9.5158  -13.9269   24.1309 O   0  0  0  0  0  0  0  0  0  0  0  0
    9.5218  -16.2131   24.2627 N   0  0  0  0  0  0  0  0  0  0  0  0
   10.3585  -16.3701   25.4213 C   0  0  1  0  0  0  0  0  0  0  0  0
    9.7154  -15.7968   26.6697 C   0  0  0  0  0  0  0  0  0  0  0  0
    8.3654  -15.2633   26.4043 C   0  0  0  0  0  0  0  0  0  0  0  0
    7.2778  -16.0182   25.9904 C   0  0  0  0  0  0  0  0  0  0  0  0
    6.1987  -15.2009   25.8423 N   0  0  0  0  0  0  0  0  0  0  0  0
    6.5521  -13.9407   26.1470 C   0  0  0  0  0  0  0  0  0  0  0  0
    5.8042  -12.7808   26.1435 C   0  0  0  0  0  0  0  0  0  0  0  0
    6.4154  -11.5960   26.5032 C   0  0  0  0  0  0  0  0  0  0  0  0
    7.7505  -11.6141   26.8529 C   0  0  0  0  0  0  0  0  0  0  0  0
    8.4849  -12.7975   26.8490 C   0  0  0  0  0  0  0  0  0  0  0  0
    7.8783  -13.9720   26.4922 C   0  0  0  0  0  0  0  0  0  0  0  0
   10.5599  -17.8249   25.6578 C   0  0  0  0  0  0  0  0  0  0  0  0
    9.9170  -18.7867   24.8905 O   0  0  0  0  0  0  0  0  0  0  0  0
   11.3253  -18.2244   26.5682 O   0  0  0  0  0  0  0  0  0  0  0  0
  2  1  1  6
  2  3  1  0
  3  4  1  0
  5  9  1  0
  5  4  1  0
  6  5  2  0
  7 10  1  0
  7  2  1  0
  8  7  2  0
 10 11  1  0
 11 12  1  0
 12 13  1  0
 14 15  1  1
 14 10  1  0
 14 13  1  0
 15 16  2  0
 17 18  1  0
 17 15  1  0
 18 29  1  0
 18 19  1  1
 20 19  1  0
 21 20  2  0
 22 21  1  0
 23 22  1  0
 23 28  2  0
 24 23  1  0
 25 24  2  0
 25 26  1  0
 26 27  2  0
 27 28  1  0
 28 20  1  0
 29 31  2  0
 29 30  1  0
M  END
$$$$
