EPW.pdb
     RDKit          3D

 31 33  0  0  1  0  0  0  0  0999 V2000
   10.5206  -16.5292   17.0832 N   0  0  0  0  0  0  0  0  0  0  0  0
   10.3973  -17.2825   18.3145 C   0  0  1  0  0  0  0  0  0  0  0  0
   11.6429  -18.1018   18.4447 C   0  0  0  0  0  0  0  0  0  0  0  0
   11.3211  -19.5476   18.5584 C   0  0  0  0  0  0  0  0  0  0  0  0
   12.5604  -20.3311   18.2017 C   0  0  0  0  0  0  0  0  0  0  0  0
   13.5303  -20.3937   18.9871 O   0  0  0  0  0  0  0  0  0  0  0  0
   10.0458  -16.4573   19.4659 C   0  0  0  0  0  0  0  0  0  0  0  0
   10.8136  -15.5197   19.8584 O   0  0  0  0  0  0  0  0  0  0  0  0
   12.5806  -20.9743   16.9764 O   0  0  0  0  0  0  0  0  0  0  0  0
    8.8399  -16.6164   20.2422 N   0  0  0  0  0  0  0  0  0  0  0  0
    7.8695  -17.6319   19.9436 C   0  0  0  0  0  0  0  0  0  0  0  0
    6.7245  -17.4060   20.8675 C   0  0  0  0  0  0  0  0  0  0  0  0
    6.9178  -15.9943   21.3626 C   0  0  0  0  0  0  0  0  0  0  0  0
    8.4421  -15.8250   21.3670 C   0  0  1  0  0  0  0  0  0  0  0  0
    8.8878  -16.4208   22.6645 C   0  0  0  0  0  0  0  0  0  0  0  0
    9.0866  -17.6590   22.7315 O   0  0  0  0  0  0  0  0  0  0  0  0
    9.0957  -15.6462   23.8236 N   0  0  0  0  0  0  0  0  0  0  0  0
    9.6850  -16.1152   25.0482 C   0  0  1  0  0  0  0  0  0  0  0  0
    9.5892  -15.0848   26.1572 C   0  0  0  0  0  0  0  0  0  0  0  0
    8.2430  -14.4870   26.2453 C   0  0  0  0  0  0  0  0  0  0  0  0
    7.0513  -15.1869   26.1266 C   0  0  0  0  0  0  0  0  0  0  0  0
    6.0101  -14.3192   26.2577 N   0  0  0  0  0  0  0  0  0  0  0  0
    6.4887  -13.0795   26.4576 C   0  0  0  0  0  0  0  0  0  0  0  0
    5.8203  -11.8862   26.6424 C   0  0  0  0  0  0  0  0  0  0  0  0
    6.5585  -10.7343   26.8296 C   0  0  0  0  0  0  0  0  0  0  0  0
    7.9362  -10.8174   26.8252 C   0  0  0  0  0  0  0  0  0  0  0  0
    8.5885  -12.0335   26.6368 C   0  0  0  0  0  0  0  0  0  0  0  0
    7.8560  -13.1753   26.4512 C   0  0  0  0  0  0  0  0  0  0  0  0
    8.9327  -17.3174   25.4976 C   0  0  0  0  0  0  0  0  0  0  0  0
    7.7155  -17.6722   24.9326 O   0  0  0  0  0  0  0  0  0  0  0  0
    9.3851  -18.0501   26.4102 O   0  0  0  0  0  0  0  0  0  0  0  0
  2  1  1  6
  2  3  1  0
  3  4  1  0
  5  9  1  0
  5  4  1  0
  6  5  2  0
  7 10  1  0
  7  2  1  0
  8  7  2  0
 10 11  1  0
 11 12  1  0
 12 13  1  0
 14 15  1  1
 14 10  1  0
 14 13  1  0
 15 16  2  0
 17 18  1  0
 17 15  1  0
 18 29  1  0
 18 19  1  1
 20 19  1  0
 21 20  2  0
 22 21  1  0
 23 22  1  0
 23 28  2  0
 24 23  1  0
 25 24  2  0
 25 26  1  0
 26 27  2  0
 27 28  1  0
 28 20  1  0
 29 31  2  0
 29 30  1  0
M  END
$$$$
