LNS.pdb
     RDKit          3D

 23 22  0  0  1  0  0  0  0  0999 V2000
   25.6644  -11.9992  -18.9399 C   0  0  0  0  0  0  0  0  0  0  0  0
   24.5253  -12.7841  -18.3219 C   0  0  2  0  0  0  0  0  0  0  0  0
   24.1359  -13.9477  -19.2063 C   0  0  0  0  0  0  0  0  0  0  0  0
   23.3290  -11.9077  -18.0175 C   0  0  0  0  0  0  0  0  0  0  0  0
   23.6805  -10.8773  -16.9672 C   0  0  2  0  0  0  0  0  0  0  0  0
   24.1738  -11.4816  -15.7600 N   0  0  0  0  0  0  0  0  0  0  0  0
   22.5731   -9.9496  -16.6965 C   0  0  0  0  0  0  0  0  0  0  0  0
   21.9917   -9.2649  -17.5575 O   0  0  0  0  0  0  0  0  0  0  0  0
   17.8709   -9.8694  -15.2259 N   0  0  0  0  0  0  0  0  0  0  0  0
   19.1450  -10.4197  -14.8648 C   0  0  0  0  0  0  0  0  0  0  0  0
   19.4156  -11.5726  -15.2237 O   0  0  0  0  0  0  0  0  0  0  0  0
   20.0804   -9.6012  -14.0855 C   0  0  0  0  0  0  0  0  0  0  0  0
   21.0525   -8.9084  -14.9919 C   0  0  2  0  0  0  0  0  0  0  0  0
   22.1148   -9.8093  -15.3486 N   0  0  0  0  0  0  0  0  0  0  0  0
   21.6879   -7.7464  -14.2723 C   0  0  0  0  0  0  0  0  0  0  0  0
   22.7976   -7.8516  -13.6839 O   0  0  0  0  0  0  0  0  0  0  0  0
   23.4289   -3.9014  -15.0498 O   0  0  0  0  0  0  0  0  0  0  0  0
   22.7589   -5.1118  -15.2479 C   0  0  0  0  0  0  0  0  0  0  0  0
   21.7753   -5.2707  -14.0902 C   0  0  2  0  0  0  0  0  0  0  0  0
   21.0168   -6.4935  -14.2560 N   0  0  0  0  0  0  0  0  0  0  0  0
   20.8976   -4.0879  -14.0968 C   0  0  0  0  0  0  0  0  0  0  0  0
   19.9207   -4.0686  -14.8836 O   0  0  0  0  0  0  0  0  0  0  0  0
   21.0952   -2.9912  -13.2764 O   0  0  0  0  0  0  0  0  0  0  0  0
  2  1  1  6
  2  3  1  0
  4  2  1  0
  5  4  1  0
  5  6  1  1
  7  5  1  0
  7  8  2  0
  9 10  1  0
 10 11  2  0
 10 12  1  0
 13 12  1  1
 13 14  1  0
 14  7  1  0
 15 20  1  0
 15 13  1  0
 16 15  2  0
 18 17  1  0
 19 18  1  6
 19 20  1  0
 19 21  1  0
 21 22  2  0
 21 23  1  0
M  END
$$$$
