LNS.pdb
     RDKit          3D

 23 22  0  0  1  0  0  0  0  0999 V2000
   14.8813  -11.8333  -15.8608 C   0  0  0  0  0  0  0  0  0  0  0  0
   16.0418  -12.7803  -15.6324 C   0  0  2  0  0  0  0  0  0  0  0  0
   15.5575  -14.0884  -15.0474 C   0  0  0  0  0  0  0  0  0  0  0  0
   17.1191  -12.1626  -14.7665 C   0  0  0  0  0  0  0  0  0  0  0  0
   17.5874  -10.8514  -15.3581 C   0  0  2  0  0  0  0  0  0  0  0  0
   18.2201  -11.0298  -16.6362 N   0  0  0  0  0  0  0  0  0  0  0  0
   18.4379  -10.0889  -14.4332 C   0  0  0  0  0  0  0  0  0  0  0  0
   19.6079  -10.3869  -14.1325 O   0  0  0  0  0  0  0  0  0  0  0  0
   21.7086   -7.1305  -12.0717 N   0  0  0  0  0  0  0  0  0  0  0  0
   20.6585   -6.6270  -12.9086 C   0  0  0  0  0  0  0  0  0  0  0  0
   20.4353   -5.4099  -12.9114 O   0  0  0  0  0  0  0  0  0  0  0  0
   19.8877   -7.5674  -13.7293 C   0  0  0  0  0  0  0  0  0  0  0  0
   18.6880   -8.0592  -12.9773 C   0  0  2  0  0  0  0  0  0  0  0  0
   17.8983   -8.9131  -13.8226 N   0  0  0  0  0  0  0  0  0  0  0  0
   17.8115   -6.8958  -12.5900 C   0  0  0  0  0  0  0  0  0  0  0  0
   17.1045   -6.2826  -13.4342 O   0  0  0  0  0  0  0  0  0  0  0  0
   16.7001   -6.5517   -8.7526 O   0  0  0  0  0  0  0  0  0  0  0  0
   16.9043   -5.2821   -9.2998 C   0  0  0  0  0  0  0  0  0  0  0  0
   16.8576   -5.4393  -10.8185 C   0  0  2  0  0  0  0  0  0  0  0  0
   17.7802   -6.4764  -11.2323 N   0  0  0  0  0  0  0  0  0  0  0  0
   17.2151   -4.1360  -11.4041 C   0  0  0  0  0  0  0  0  0  0  0  0
   18.2307   -4.0646  -12.1371 O   0  0  0  0  0  0  0  0  0  0  0  0
   16.4858   -2.9803  -11.1869 O   0  0  0  0  0  0  0  0  0  0  0  0
  2  1  1  1
  2  3  1  0
  4  2  1  0
  5  4  1  0
  5  6  1  6
  7  5  1  0
  7  8  2  0
  9 10  1  0
 10 11  2  0
 10 12  1  0
 13 12  1  6
 13 14  1  0
 14  7  1  0
 15 20  1  0
 15 13  1  0
 16 15  2  0
 18 17  1  0
 19 18  1  1
 19 20  1  0
 19 21  1  0
 21 22  2  0
 21 23  1  0
M  END
$$$$
