LNS.pdb
     RDKit          3D

 23 22  0  0  1  0  0  0  0  0999 V2000
   22.9155  -38.5227   -8.2412 C   0  0  0  0  0  0  0  0  0  0  0  0
   23.2544  -37.1455   -8.7743 C   0  0  2  0  0  0  0  0  0  0  0  0
   23.5005  -37.1950  -10.2659 C   0  0  0  0  0  0  0  0  0  0  0  0
   24.4308  -36.5276   -8.0488 C   0  0  0  0  0  0  0  0  0  0  0  0
   24.1720  -36.4858   -6.5589 C   0  0  2  0  0  0  0  0  0  0  0  0
   23.1999  -35.4876   -6.2064 N   0  0  0  0  0  0  0  0  0  0  0  0
   25.4080  -36.3397   -5.7772 C   0  0  0  0  0  0  0  0  0  0  0  0
   26.4685  -36.9504   -6.0020 O   0  0  0  0  0  0  0  0  0  0  0  0
   27.2979  -33.0989   -5.3642 N   0  0  0  0  0  0  0  0  0  0  0  0
   26.7930  -32.8018   -4.0553 C   0  0  0  0  0  0  0  0  0  0  0  0
   26.6422  -31.6165   -3.7335 O   0  0  0  0  0  0  0  0  0  0  0  0
   26.4738  -33.9079   -3.1460 C   0  0  0  0  0  0  0  0  0  0  0  0
   26.5803  -35.2215   -3.8596 C   0  0  2  0  0  0  0  0  0  0  0  0
   25.4123  -35.4324   -4.6711 N   0  0  0  0  0  0  0  0  0  0  0  0
   26.6267  -36.3479   -2.8591 C   0  0  0  0  0  0  0  0  0  0  0  0
   25.6248  -36.6640   -2.1628 O   0  0  0  0  0  0  0  0  0  0  0  0
   29.0505  -40.1400   -1.1892 O   0  0  0  0  0  0  0  0  0  0  0  0
   29.1503  -39.0034   -1.9963 C   0  0  0  0  0  0  0  0  0  0  0  0
   27.8983  -38.1660   -1.7424 C   0  0  2  0  0  0  0  0  0  0  0  0
   27.8360  -37.0765   -2.6948 N   0  0  0  0  0  0  0  0  0  0  0  0
   27.9791  -37.6674   -0.3588 C   0  0  0  0  0  0  0  0  0  0  0  0
   28.0605  -38.4996    0.5764 O   0  0  0  0  0  0  0  0  0  0  0  0
   27.9698  -36.3221   -0.0348 O   0  0  0  0  0  0  0  0  0  0  0  0
  2  1  1  1
  2  3  1  0
  4  2  1  0
  5  4  1  0
  5  6  1  6
  7  5  1  0
  7  8  2  0
  9 10  1  0
 10 11  2  0
 10 12  1  0
 13 12  1  1
 13 14  1  0
 14  7  1  0
 15 20  1  0
 15 13  1  0
 16 15  2  0
 18 17  1  0
 19 18  1  6
 19 20  1  0
 19 21  1  0
 21 22  2  0
 21 23  1  0
M  END
$$$$
