LNS.pdb
     RDKit          3D

 23 22  0  0  1  0  0  0  0  0999 V2000
   19.2393  -14.2877  -20.0778 C   0  0  0  0  0  0  0  0  0  0  0  0
   18.9796  -14.5608  -18.6103 C   0  0  2  0  0  0  0  0  0  0  0  0
   18.2799  -15.8895  -18.4292 C   0  0  0  0  0  0  0  0  0  0  0  0
   18.2013  -13.4417  -17.9517 C   0  0  0  0  0  0  0  0  0  0  0  0
   18.9584  -12.1362  -18.0571 C   0  0  2  0  0  0  0  0  0  0  0  0
   20.2389  -12.1994  -17.4075 N   0  0  0  0  0  0  0  0  0  0  0  0
   18.1684  -10.9885  -17.5893 C   0  0  0  0  0  0  0  0  0  0  0  0
   17.0068  -10.7289  -17.9519 O   0  0  0  0  0  0  0  0  0  0  0  0
   16.2507  -10.0991  -14.5828 N   0  0  0  0  0  0  0  0  0  0  0  0
   17.2984   -9.3870  -13.9106 C   0  0  0  0  0  0  0  0  0  0  0  0
   17.2884   -9.3468  -12.6739 O   0  0  0  0  0  0  0  0  0  0  0  0
   18.3419   -8.7332  -14.7080 C   0  0  0  0  0  0  0  0  0  0  0  0
   18.0777   -8.9188  -16.1716 C   0  0  2  0  0  0  0  0  0  0  0  0
   18.7617  -10.0910  -16.6464 N   0  0  0  0  0  0  0  0  0  0  0  0
   18.6274   -7.7482  -16.9458 C   0  0  0  0  0  0  0  0  0  0  0  0
   19.8663   -7.5593  -17.0800 O   0  0  0  0  0  0  0  0  0  0  0  0
   16.7044   -6.3326  -20.0214 O   0  0  0  0  0  0  0  0  0  0  0  0
   17.1413   -5.2289  -19.2837 C   0  0  0  0  0  0  0  0  0  0  0  0
   18.2308   -5.7293  -18.3373 C   0  0  2  0  0  0  0  0  0  0  0  0
   17.7228   -6.8289  -17.5430 N   0  0  0  0  0  0  0  0  0  0  0  0
   18.6296   -4.5925  -17.4899 C   0  0  0  0  0  0  0  0  0  0  0  0
   18.5244   -4.7049  -16.2448 O   0  0  0  0  0  0  0  0  0  0  0  0
   19.1167   -3.4010  -17.9977 O   0  0  0  0  0  0  0  0  0  0  0  0
  2  1  1  6
  2  3  1  0
  4  2  1  0
  5  4  1  0
  5  6  1  1
  7  5  1  0
  7  8  2  0
  9 10  1  0
 10 11  2  0
 10 12  1  0
 13 12  1  1
 13 14  1  0
 14  7  1  0
 15 20  1  0
 15 13  1  0
 16 15  2  0
 18 17  1  0
 19 18  1  6
 19 20  1  0
 19 21  1  0
 21 22  2  0
 21 23  1  0
M  END
$$$$
