LNS.pdb
     RDKit          3D

 23 22  0  0  1  0  0  0  0  0999 V2000
   22.0359  -31.4337  -10.9671 C   0  0  0  0  0  0  0  0  0  0  0  0
   21.2376  -30.7371   -9.8841 C   0  0  2  0  0  0  0  0  0  0  0  0
   20.6469  -31.7449   -8.9232 C   0  0  0  0  0  0  0  0  0  0  0  0
   20.1635  -29.8376  -10.4577 C   0  0  0  0  0  0  0  0  0  0  0  0
   20.7823  -28.7436  -11.2995 C   0  0  2  0  0  0  0  0  0  0  0  0
   21.8099  -28.0312  -10.5909 N   0  0  0  0  0  0  0  0  0  0  0  0
   19.7776  -27.8301  -11.8618 C   0  0  0  0  0  0  0  0  0  0  0  0
   18.8381  -28.1738  -12.6017 O   0  0  0  0  0  0  0  0  0  0  0  0
   15.8293  -24.2969  -11.4853 N   0  0  0  0  0  0  0  0  0  0  0  0
   17.1906  -23.9013  -11.2687 C   0  0  0  0  0  0  0  0  0  0  0  0
   17.5023  -22.7199  -11.4639 O   0  0  0  0  0  0  0  0  0  0  0  0
   18.1633  -24.9060  -10.8252 C   0  0  0  0  0  0  0  0  0  0  0  0
   18.8925  -25.4850  -11.9996 C   0  0  2  0  0  0  0  0  0  0  0  0
   19.8694  -26.4377  -11.5465 N   0  0  0  0  0  0  0  0  0  0  0  0
   19.6448  -24.3985  -12.7244 C   0  0  0  0  0  0  0  0  0  0  0  0
   20.8398  -24.1126  -12.4436 O   0  0  0  0  0  0  0  0  0  0  0  0
   19.8770  -23.9725  -16.6006 O   0  0  0  0  0  0  0  0  0  0  0  0
   20.6595  -23.5511  -15.5220 C   0  0  0  0  0  0  0  0  0  0  0  0
   19.7433  -22.7610  -14.5895 C   0  0  2  0  0  0  0  0  0  0  0  0
   18.9882  -23.6735  -13.7557 N   0  0  0  0  0  0  0  0  0  0  0  0
   18.8556  -21.9459  -15.4363 C   0  0  0  0  0  0  0  0  0  0  0  0
   17.6335  -22.2275  -15.4719 O   0  0  0  0  0  0  0  0  0  0  0  0
   19.3011  -20.8804  -16.1985 O   0  0  0  0  0  0  0  0  0  0  0  0
  2  1  1  6
  2  3  1  0
  4  2  1  0
  5  4  1  0
  5  6  1  1
  7  5  1  0
  7  8  2  0
  9 10  1  0
 10 11  2  0
 10 12  1  0
 13 12  1  1
 13 14  1  0
 14  7  1  0
 15 20  1  0
 15 13  1  0
 16 15  2  0
 18 17  1  0
 19 18  1  6
 19 20  1  0
 19 21  1  0
 21 22  2  0
 21 23  1  0
M  END
$$$$
