LNS.pdb
     RDKit          3D

 23 22  0  0  1  0  0  0  0  0999 V2000
   17.6073  -11.5644  -16.8395 C   0  0  0  0  0  0  0  0  0  0  0  0
   17.4009  -12.3060  -15.5345 C   0  0  2  0  0  0  0  0  0  0  0  0
   16.5089  -13.5103  -15.7390 C   0  0  0  0  0  0  0  0  0  0  0  0
   16.8570  -11.4042  -14.4469 C   0  0  0  0  0  0  0  0  0  0  0  0
   17.6953  -10.1505  -14.3295 C   0  0  2  0  0  0  0  0  0  0  0  0
   18.9867  -10.4147  -13.7565 N   0  0  0  0  0  0  0  0  0  0  0  0
   16.9963   -9.0710  -13.6178 C   0  0  0  0  0  0  0  0  0  0  0  0
   15.8582   -8.6540  -13.8986 O   0  0  0  0  0  0  0  0  0  0  0  0
   15.8281   -5.7102  -10.0185 N   0  0  0  0  0  0  0  0  0  0  0  0
   16.9051   -6.4823   -9.4701 C   0  0  0  0  0  0  0  0  0  0  0  0
   17.2136   -6.3098   -8.2843 O   0  0  0  0  0  0  0  0  0  0  0  0
   17.6015   -7.4460  -10.3294 C   0  0  0  0  0  0  0  0  0  0  0  0
   17.0116   -7.4428  -11.7072 C   0  0  2  0  0  0  0  0  0  0  0  0
   17.6573   -8.4400  -12.5171 N   0  0  0  0  0  0  0  0  0  0  0  0
   17.2611   -6.1124  -12.3703 C   0  0  0  0  0  0  0  0  0  0  0  0
   18.4164   -5.7442  -12.7142 O   0  0  0  0  0  0  0  0  0  0  0  0
   14.1169   -4.2106  -13.9209 O   0  0  0  0  0  0  0  0  0  0  0  0
   15.3622   -3.8375  -14.4339 C   0  0  0  0  0  0  0  0  0  0  0  0
   16.3737   -3.9865  -13.2990 C   0  0  2  0  0  0  0  0  0  0  0  0
   16.1614   -5.2459  -12.6157 N   0  0  0  0  0  0  0  0  0  0  0  0
   16.1832   -2.8427  -12.3907 C   0  0  0  0  0  0  0  0  0  0  0  0
   15.7569   -3.0604  -11.2311 O   0  0  0  0  0  0  0  0  0  0  0  0
   16.4511   -1.5339  -12.7514 O   0  0  0  0  0  0  0  0  0  0  0  0
  2  1  1  6
  2  3  1  0
  4  2  1  0
  5  4  1  0
  5  6  1  1
  7  5  1  0
  7  8  2  0
  9 10  1  0
 10 11  2  0
 10 12  1  0
 13 12  1  1
 13 14  1  0
 14  7  1  0
 15 20  1  0
 15 13  1  0
 16 15  2  0
 18 17  1  0
 19 18  1  6
 19 20  1  0
 19 21  1  0
 21 22  2  0
 21 23  1  0
M  END
$$$$
