LNS.pdb
     RDKit          3D

 23 22  0  0  1  0  0  0  0  0999 V2000
   28.6182   -8.5098  -17.9750 C   0  0  0  0  0  0  0  0  0  0  0  0
   28.2459   -9.9467  -17.6709 C   0  0  2  0  0  0  0  0  0  0  0  0
   29.1976  -10.9022  -18.3559 C   0  0  0  0  0  0  0  0  0  0  0  0
   26.8094  -10.2527  -18.0380 C   0  0  0  0  0  0  0  0  0  0  0  0
   25.8800   -9.2112  -17.4549 C   0  0  2  0  0  0  0  0  0  0  0  0
   25.9423   -9.1732  -16.0196 N   0  0  0  0  0  0  0  0  0  0  0  0
   24.4986   -9.3584  -17.9346 C   0  0  0  0  0  0  0  0  0  0  0  0
   24.1605   -9.3900  -19.1317 O   0  0  0  0  0  0  0  0  0  0  0  0
   20.7206  -13.0207  -17.5304 N   0  0  0  0  0  0  0  0  0  0  0  0
   21.7186  -11.9925  -17.4739 C   0  0  0  0  0  0  0  0  0  0  0  0
   22.7786  -12.1613  -18.0896 O   0  0  0  0  0  0  0  0  0  0  0  0
   21.4506  -10.7807  -16.6916 C   0  0  0  0  0  0  0  0  0  0  0  0
   22.0678   -9.5838  -17.3496 C   0  0  2  0  0  0  0  0  0  0  0  0
   23.4500   -9.4756  -16.9686 N   0  0  0  0  0  0  0  0  0  0  0  0
   21.3840   -8.3270  -16.8759 C   0  0  0  0  0  0  0  0  0  0  0  0
   20.1633   -8.1064  -17.0990 O   0  0  0  0  0  0  0  0  0  0  0  0
   22.8331   -6.0350  -13.8328 O   0  0  0  0  0  0  0  0  0  0  0  0
   21.5069   -5.9590  -14.2670 C   0  0  0  0  0  0  0  0  0  0  0  0
   21.5280   -6.0987  -15.7879 C   0  0  2  0  0  0  0  0  0  0  0  0
   22.1371   -7.3603  -16.1557 N   0  0  0  0  0  0  0  0  0  0  0  0
   22.2908   -4.9571  -16.3212 C   0  0  0  0  0  0  0  0  0  0  0  0
   21.8951   -3.7954  -16.0607 O   0  0  0  0  0  0  0  0  0  0  0  0
   23.4268   -5.0995  -17.0984 O   0  0  0  0  0  0  0  0  0  0  0  0
  2  1  1  6
  2  3  1  0
  4  2  1  0
  5  4  1  0
  5  6  1  1
  7  5  1  0
  7  8  2  0
  9 10  1  0
 10 11  2  0
 10 12  1  0
 13 12  1  1
 13 14  1  0
 14  7  1  0
 15 20  1  0
 15 13  1  0
 16 15  2  0
 18 17  1  0
 19 18  1  1
 19 20  1  0
 19 21  1  0
 21 22  2  0
 21 23  1  0
M  END
$$$$
