LNS.pdb
     RDKit          3D

 23 22  0  0  1  0  0  0  0  0999 V2000
   15.7176  -12.2053  -15.0768 C   0  0  0  0  0  0  0  0  0  0  0  0
   14.6735  -11.7576  -14.0742 C   0  0  2  0  0  0  0  0  0  0  0  0
   13.2818  -11.9148  -14.6452 C   0  0  0  0  0  0  0  0  0  0  0  0
   14.9104  -10.3395  -13.6001 C   0  0  0  0  0  0  0  0  0  0  0  0
   16.2887  -10.2077  -12.9908 C   0  0  2  0  0  0  0  0  0  0  0  0
   16.4640  -11.0729  -11.8566 N   0  0  0  0  0  0  0  0  0  0  0  0
   16.6305   -8.8149  -12.6689 C   0  0  0  0  0  0  0  0  0  0  0  0
   16.5247   -7.8563  -13.4550 O   0  0  0  0  0  0  0  0  0  0  0  0
   14.9786   -6.4239  -10.5059 N   0  0  0  0  0  0  0  0  0  0  0  0
   15.8022   -6.6057   -9.3461 C   0  0  0  0  0  0  0  0  0  0  0  0
   15.2948   -6.4482   -8.2286 O   0  0  0  0  0  0  0  0  0  0  0  0
   17.2122   -6.9705   -9.5227 C   0  0  0  0  0  0  0  0  0  0  0  0
   17.5195   -7.1917  -10.9729 C   0  0  2  0  0  0  0  0  0  0  0  0
   17.1234   -8.5189  -11.3590 N   0  0  0  0  0  0  0  0  0  0  0  0
   19.0057   -7.0943  -11.2041 C   0  0  0  0  0  0  0  0  0  0  0  0
   19.8032   -7.9849  -10.8048 O   0  0  0  0  0  0  0  0  0  0  0  0
   22.2499   -7.2249  -13.9316 O   0  0  0  0  0  0  0  0  0  0  0  0
   20.9493   -7.2169  -13.4200 C   0  0  0  0  0  0  0  0  0  0  0  0
   20.8504   -6.0210  -12.4749 C   0  0  2  0  0  0  0  0  0  0  0  0
   19.5251   -5.9647  -11.8931 N   0  0  0  0  0  0  0  0  0  0  0  0
   21.1424   -4.8134  -13.2660 C   0  0  0  0  0  0  0  0  0  0  0  0
   20.2115   -4.2819  -13.9178 O   0  0  0  0  0  0  0  0  0  0  0  0
   22.3963   -4.2314  -13.3284 O   0  0  0  0  0  0  0  0  0  0  0  0
  2  1  1  6
  2  3  1  0
  4  2  1  0
  5  4  1  0
  5  6  1  1
  7  5  1  0
  7  8  2  0
  9 10  1  0
 10 11  2  0
 10 12  1  0
 13 12  1  1
 13 14  1  0
 14  7  1  0
 15 20  1  0
 15 13  1  0
 16 15  2  0
 18 17  1  0
 19 18  1  6
 19 20  1  0
 19 21  1  0
 21 22  2  0
 21 23  1  0
M  END
$$$$
