LNS.pdb
     RDKit          3D

 23 22  0  0  1  0  0  0  0  0999 V2000
   18.2580  -10.8541  -18.9795 C   0  0  0  0  0  0  0  0  0  0  0  0
   17.6123  -11.5372  -17.7911 C   0  0  2  0  0  0  0  0  0  0  0  0
   16.1592  -11.8455  -18.0761 C   0  0  0  0  0  0  0  0  0  0  0  0
   17.7579  -10.7274  -16.5204 C   0  0  0  0  0  0  0  0  0  0  0  0
   19.2150  -10.4250  -16.2486 C   0  0  2  0  0  0  0  0  0  0  0  0
   19.9424  -11.5940  -15.8364 N   0  0  0  0  0  0  0  0  0  0  0  0
   19.3920   -9.3140  -15.3028 C   0  0  0  0  0  0  0  0  0  0  0  0
   19.2024   -9.3874  -14.0752 O   0  0  0  0  0  0  0  0  0  0  0  0
   20.9151   -4.7969  -13.5033 N   0  0  0  0  0  0  0  0  0  0  0  0
   21.8802   -5.8439  -13.6744 C   0  0  0  0  0  0  0  0  0  0  0  0
   22.9592   -5.7586  -13.0748 O   0  0  0  0  0  0  0  0  0  0  0  0
   21.5571   -6.9753  -14.5505 C   0  0  0  0  0  0  0  0  0  0  0  0
   20.1126   -6.9356  -14.9481 C   0  0  2  0  0  0  0  0  0  0  0  0
   19.8133   -8.0453  -15.8121 N   0  0  0  0  0  0  0  0  0  0  0  0
   19.8299   -5.6810  -15.7341 C   0  0  0  0  0  0  0  0  0  0  0  0
   20.3535   -5.4667  -16.8605 O   0  0  0  0  0  0  0  0  0  0  0  0
   16.2407   -4.0339  -15.8752 O   0  0  0  0  0  0  0  0  0  0  0  0
   17.1822   -3.0642  -15.5196 C   0  0  0  0  0  0  0  0  0  0  0  0
   18.5436   -3.5718  -15.9911 C   0  0  2  0  0  0  0  0  0  0  0  0
   18.9466   -4.7093  -15.1902 N   0  0  0  0  0  0  0  0  0  0  0  0
   19.4959   -2.4560  -15.8588 C   0  0  0  0  0  0  0  0  0  0  0  0
   19.7778   -2.0393  -14.7096 O   0  0  0  0  0  0  0  0  0  0  0  0
   20.0990   -1.8401  -16.9413 O   0  0  0  0  0  0  0  0  0  0  0  0
  2  1  1  6
  2  3  1  0
  4  2  1  0
  5  4  1  0
  5  6  1  1
  7  5  1  0
  7  8  2  0
  9 10  1  0
 10 11  2  0
 10 12  1  0
 13 12  1  6
 13 14  1  0
 14  7  1  0
 15 20  1  0
 15 13  1  0
 16 15  2  0
 18 17  1  0
 19 18  1  1
 19 20  1  0
 19 21  1  0
 21 22  2  0
 21 23  1  0
M  END
$$$$
