LNS.pdb
     RDKit          3D

 23 22  0  0  1  0  0  0  0  0999 V2000
   33.7177   -6.8715  -15.0320 C   0  0  0  0  0  0  0  0  0  0  0  0
   33.7679   -6.3068  -16.4370 C   0  0  2  0  0  0  0  0  0  0  0  0
   33.6702   -4.7976  -16.4107 C   0  0  0  0  0  0  0  0  0  0  0  0
   32.7020   -6.9056  -17.3299 C   0  0  0  0  0  0  0  0  0  0  0  0
   32.8466   -8.4102  -17.3920 C   0  0  2  0  0  0  0  0  0  0  0  0
   34.2030   -8.8135  -17.6435 N   0  0  0  0  0  0  0  0  0  0  0  0
   31.9117   -9.0262  -18.3442 C   0  0  0  0  0  0  0  0  0  0  0  0
   32.2460   -9.6443  -19.3710 O   0  0  0  0  0  0  0  0  0  0  0  0
   29.3377  -12.8201  -20.6162 N   0  0  0  0  0  0  0  0  0  0  0  0
   28.8468  -11.6940  -19.8761 C   0  0  0  0  0  0  0  0  0  0  0  0
   27.6899  -11.3074  -20.0839 O   0  0  0  0  0  0  0  0  0  0  0  0
   29.7288  -11.0414  -18.9023 C   0  0  0  0  0  0  0  0  0  0  0  0
   29.5277   -9.5563  -18.9247 C   0  0  2  0  0  0  0  0  0  0  0  0
   30.5083   -8.9181  -18.0890 N   0  0  0  0  0  0  0  0  0  0  0  0
   28.1759   -9.2119  -18.3538 C   0  0  0  0  0  0  0  0  0  0  0  0
   28.0390   -8.7731  -17.1802 O   0  0  0  0  0  0  0  0  0  0  0  0
   25.4784   -6.1083  -19.2728 O   0  0  0  0  0  0  0  0  0  0  0  0
   26.5003   -7.0328  -19.5057 C   0  0  0  0  0  0  0  0  0  0  0  0
   25.9545   -8.4061  -19.1190 C   0  0  2  0  0  0  0  0  0  0  0  0
   27.0198   -9.3865  -19.1620 N   0  0  0  0  0  0  0  0  0  0  0  0
   24.8818   -8.7347  -20.0735 C   0  0  0  0  0  0  0  0  0  0  0  0
   25.1851   -8.9286  -21.2753 O   0  0  0  0  0  0  0  0  0  0  0  0
   23.5503   -8.8413  -19.7121 O   0  0  0  0  0  0  0  0  0  0  0  0
  2  1  1  1
  2  3  1  0
  4  2  1  0
  5  4  1  0
  5  6  1  6
  7  5  1  0
  7  8  2  0
  9 10  1  0
 10 11  2  0
 10 12  1  0
 13 12  1  1
 13 14  1  0
 14  7  1  0
 15 20  1  0
 15 13  1  0
 16 15  2  0
 18 17  1  0
 19 18  1  6
 19 20  1  0
 19 21  1  0
 21 22  2  0
 21 23  1  0
M  END
$$$$
