LNS.pdb
     RDKit          3D

 23 22  0  0  1  0  0  0  0  0999 V2000
   21.7275  -18.2271  -16.1628 C   0  0  0  0  0  0  0  0  0  0  0  0
   21.9398  -16.9961  -17.0203 C   0  0  2  0  0  0  0  0  0  0  0  0
   22.5439  -17.3719  -18.3551 C   0  0  0  0  0  0  0  0  0  0  0  0
   22.7796  -15.9506  -16.3178 C   0  0  0  0  0  0  0  0  0  0  0  0
   22.7774  -14.6558  -17.1000 C   0  0  2  0  0  0  0  0  0  0  0  0
   23.5552  -14.7501  -18.3048 N   0  0  0  0  0  0  0  0  0  0  0  0
   23.1815  -13.5037  -16.2817 C   0  0  0  0  0  0  0  0  0  0  0  0
   22.7605  -13.2618  -15.1361 O   0  0  0  0  0  0  0  0  0  0  0  0
   27.2159  -13.4366  -16.0891 N   0  0  0  0  0  0  0  0  0  0  0  0
   26.7391  -12.2484  -15.4430 C   0  0  0  0  0  0  0  0  0  0  0  0
   26.9384  -12.1134  -14.2293 O   0  0  0  0  0  0  0  0  0  0  0  0
   26.0345  -11.2375  -16.2392 C   0  0  0  0  0  0  0  0  0  0  0  0
   24.5510  -11.4070  -16.1087 C   0  0  2  0  0  0  0  0  0  0  0  0
   24.1287  -12.5797  -16.8254 N   0  0  0  0  0  0  0  0  0  0  0  0
   23.8424  -10.2332  -16.7347 C   0  0  0  0  0  0  0  0  0  0  0  0
   23.7572  -10.0939  -17.9845 O   0  0  0  0  0  0  0  0  0  0  0  0
   20.3783   -9.1663  -16.1513 O   0  0  0  0  0  0  0  0  0  0  0  0
   21.2410   -8.7295  -17.1603 C   0  0  0  0  0  0  0  0  0  0  0  0
   22.4843   -8.1702  -16.4715 C   0  0  2  0  0  0  0  0  0  0  0  0
   23.2519   -9.2529  -15.8916 N   0  0  0  0  0  0  0  0  0  0  0  0
   22.0245   -7.2240  -15.4405 C   0  0  0  0  0  0  0  0  0  0  0  0
   22.1923   -7.5220  -14.2335 O   0  0  0  0  0  0  0  0  0  0  0  0
   21.4140   -6.0177  -15.7351 O   0  0  0  0  0  0  0  0  0  0  0  0
  2  1  1  1
  2  3  1  0
  4  2  1  0
  5  4  1  0
  5  6  1  6
  7  5  1  0
  7  8  2  0
  9 10  1  0
 10 11  2  0
 10 12  1  0
 13 12  1  6
 13 14  1  0
 14  7  1  0
 15 20  1  0
 15 13  1  0
 16 15  2  0
 18 17  1  0
 19 18  1  1
 19 20  1  0
 19 21  1  0
 21 22  2  0
 21 23  1  0
M  END
$$$$
