ERN.pdb
     RDKit          3D

 29 28  0  0  1  0  0  0  0  0999 V2000
   23.6757  -21.6438  -15.4599 N   0  0  0  0  0  0  0  0  0  0  0  0
   24.2711  -21.0849  -14.2022 C   0  0  1  0  0  0  0  0  0  0  0  0
   25.2355  -20.0612  -14.6689 C   0  0  0  0  0  0  0  0  0  0  0  0
   26.1760  -20.4551  -15.7611 C   0  0  0  0  0  0  0  0  0  0  0  0
   27.0310  -21.6157  -15.4563 C   0  0  0  0  0  0  0  0  0  0  0  0
   26.9456  -22.1645  -14.3345 O   0  0  0  0  0  0  0  0  0  0  0  0
   23.1181  -20.6197  -13.4408 C   0  0  0  0  0  0  0  0  0  0  0  0
   23.1289  -19.7170  -12.5671 O   0  0  0  0  0  0  0  0  0  0  0  0
   27.9190  -22.1095  -16.3740 O   0  0  0  0  0  0  0  0  0  0  0  0
   21.1976  -15.1176  -16.1266 N   0  0  0  0  0  0  0  0  0  0  0  0
   21.0135  -16.3283  -16.8529 C   0  0  0  0  0  0  0  0  0  0  0  0
   21.4623  -16.4027  -18.0420 N   0  0  0  0  0  0  0  0  0  0  0  0
   20.3380  -17.3897  -16.2115 N   0  0  0  0  0  0  0  0  0  0  0  0
   20.0347  -17.3032  -14.7819 C   0  0  0  0  0  0  0  0  0  0  0  0
   20.7131  -18.3984  -14.0537 C   0  0  0  0  0  0  0  0  0  0  0  0
   19.9665  -19.6379  -13.7498 C   0  0  0  0  0  0  0  0  0  0  0  0
   20.6512  -20.7638  -13.0452 C   0  0  2  0  0  0  0  0  0  0  0  0
   21.8387  -21.2236  -13.6876 N   0  0  0  0  0  0  0  0  0  0  0  0
   19.7257  -21.9057  -12.8237 C   0  0  0  0  0  0  0  0  0  0  0  0
   19.5338  -22.7665  -13.7199 O   0  0  0  0  0  0  0  0  0  0  0  0
   21.2893  -17.2166  -18.6529 N   0  0  0  0  0  0  0  0  0  0  0  0
   19.7611  -24.4375   -8.1497 C   0  0  0  0  0  0  0  0  0  0  0  0
   19.3342  -24.3639   -9.5267 O   0  0  0  0  0  0  0  0  0  0  0  0
   19.9611  -25.0427  -10.3634 C   0  0  0  0  0  0  0  0  0  0  0  0
   18.1968  -23.5102   -9.9005 C   0  0  2  0  0  0  0  0  0  0  0  0
   18.1297  -23.2293  -11.3729 N   0  0  0  0  0  0  0  0  0  0  0  0
   19.0227  -22.0766  -11.6039 C   0  0  0  0  0  0  0  0  0  0  0  0
   16.8038  -22.9911  -11.9183 O   0  0  0  0  0  0  0  0  0  0  0  0
   15.8787  -23.9491  -12.2447 O   0  0  0  0  0  0  0  0  0  0  0  0
  2  1  1  6
  2  3  1  0
  3  4  1  0
  5  4  1  0
  5  9  1  0
  6  5  2  0
  7 18  1  0
  7  2  1  0
  8  7  2  0
 11 10  1  0
 11 13  1  0
 12 11  2  0
 13 14  1  0
 15 14  1  0
 17 16  1  6
 16 15  1  0
 17 18  1  0
 19 26  1  0
 19 17  1  0
 20 19  2  0
 22 21  1  0
 22 23  2  0
 25 24  1  6
 24 22  1  0
 25 27  1  0
 25 26  1  0
 27 28  1  0
 29 27  2  0
M  END
$$$$
