ERN.pdb
     RDKit          3D

 29 28  0  0  1  0  0  0  0  0999 V2000
   16.2283  -10.1147  -15.9385 N   0  0  0  0  0  0  0  0  0  0  0  0
   17.3216   -9.7192  -16.8857 C   0  0  1  0  0  0  0  0  0  0  0  0
   16.7842   -8.5398  -17.6041 C   0  0  0  0  0  0  0  0  0  0  0  0
   15.7681   -8.7927  -18.6700 C   0  0  0  0  0  0  0  0  0  0  0  0
   16.2616   -9.5542  -19.8308 C   0  0  0  0  0  0  0  0  0  0  0  0
   15.8460  -10.7192  -20.0236 O   0  0  0  0  0  0  0  0  0  0  0  0
   18.4779   -9.5073  -16.0232 C   0  0  0  0  0  0  0  0  0  0  0  0
   18.4455   -9.0913  -14.8382 O   0  0  0  0  0  0  0  0  0  0  0  0
   17.1665   -9.0160  -20.7061 O   0  0  0  0  0  0  0  0  0  0  0  0
   26.1653  -13.4386  -16.3877 N   0  0  0  0  0  0  0  0  0  0  0  0
   24.8140  -13.4909  -16.8328 C   0  0  0  0  0  0  0  0  0  0  0  0
   24.4452  -14.4724  -17.5551 N   0  0  0  0  0  0  0  0  0  0  0  0
   23.9481  -12.4440  -16.4473 N   0  0  0  0  0  0  0  0  0  0  0  0
   24.4450  -11.3639  -15.5930 C   0  0  0  0  0  0  0  0  0  0  0  0
   23.3697  -10.3768  -15.3488 C   0  0  0  0  0  0  0  0  0  0  0  0
   22.0703  -10.5360  -16.0361 C   0  0  0  0  0  0  0  0  0  0  0  0
   20.9676   -9.5619  -15.7752 C   0  0  2  0  0  0  0  0  0  0  0  0
   19.7867   -9.7920  -16.5414 N   0  0  0  0  0  0  0  0  0  0  0  0
   21.4263   -8.1613  -15.9679 C   0  0  0  0  0  0  0  0  0  0  0  0
   21.5897   -7.6867  -17.1208 O   0  0  0  0  0  0  0  0  0  0  0  0
   23.4847  -14.5646  -17.9217 N   0  0  0  0  0  0  0  0  0  0  0  0
   21.9808   -3.1228  -15.6090 C   0  0  0  0  0  0  0  0  0  0  0  0
   20.8002   -3.8679  -15.9760 O   0  0  0  0  0  0  0  0  0  0  0  0
   19.8314   -3.2287  -16.4308 C   0  0  0  0  0  0  0  0  0  0  0  0
   20.7693   -5.3284  -15.8086 C   0  0  1  0  0  0  0  0  0  0  0  0
   21.9532   -5.8604  -15.0557 N   0  0  0  0  0  0  0  0  0  0  0  0
   21.6986   -7.3030  -14.8723 C   0  0  0  0  0  0  0  0  0  0  0  0
   22.2516   -5.2092  -13.7911 O   0  0  0  0  0  0  0  0  0  0  0  0
   22.2277   -5.7970  -12.5525 O   0  0  0  0  0  0  0  0  0  0  0  0
  2  1  1  1
  2  3  1  0
  3  4  1  0
  5  4  1  0
  5  9  1  0
  6  5  2  0
  7 18  1  0
  7  2  1  0
  8  7  2  0
 11 10  1  0
 11 13  1  0
 12 11  2  0
 13 14  1  0
 15 14  1  0
 17 16  1  6
 16 15  1  0
 17 18  1  0
 19 26  1  0
 19 17  1  0
 20 19  2  0
 22 21  1  0
 22 23  2  0
 25 24  1  6
 24 22  1  0
 25 27  1  0
 25 26  1  0
 27 28  1  0
 29 27  2  0
M  END
$$$$
