ERN.pdb
     RDKit          3D

 29 28  0  0  1  0  0  0  0  0999 V2000
   25.0260  -17.8044  -17.8401 N   0  0  0  0  0  0  0  0  0  0  0  0
   23.7153  -17.3297  -17.2875 C   0  0  1  0  0  0  0  0  0  0  0  0
   23.0176  -16.7271  -18.4476 C   0  0  0  0  0  0  0  0  0  0  0  0
   23.5521  -17.0430  -19.8067 C   0  0  0  0  0  0  0  0  0  0  0  0
   22.5814  -16.8969  -20.9055 C   0  0  0  0  0  0  0  0  0  0  0  0
   22.4020  -17.8491  -21.6981 O   0  0  0  0  0  0  0  0  0  0  0  0
   23.1248  -18.5260  -16.6994 C   0  0  0  0  0  0  0  0  0  0  0  0
   22.1415  -19.1613  -17.1553 O   0  0  0  0  0  0  0  0  0  0  0  0
   21.8689  -15.7408  -21.0804 O   0  0  0  0  0  0  0  0  0  0  0  0
   27.7103  -21.1131  -16.6647 N   0  0  0  0  0  0  0  0  0  0  0  0
   27.7762  -22.4313  -16.1309 C   0  0  0  0  0  0  0  0  0  0  0  0
   28.3189  -23.3476  -16.8286 N   0  0  0  0  0  0  0  0  0  0  0  0
   27.2320  -22.6544  -14.8470 N   0  0  0  0  0  0  0  0  0  0  0  0
   26.4728  -21.5937  -14.1823 C   0  0  0  0  0  0  0  0  0  0  0  0
   25.0219  -21.8615  -14.2981 C   0  0  0  0  0  0  0  0  0  0  0  0
   24.0575  -20.8370  -13.8439 C   0  0  0  0  0  0  0  0  0  0  0  0
   23.1403  -20.1907  -14.8308 C   0  0  2  0  0  0  0  0  0  0  0  0
   23.6945  -19.0547  -15.4918 N   0  0  0  0  0  0  0  0  0  0  0  0
   21.8433  -19.8239  -14.2042 C   0  0  0  0  0  0  0  0  0  0  0  0
   21.6326  -18.6560  -13.7888 O   0  0  0  0  0  0  0  0  0  0  0  0
   28.4566  -24.3082  -16.4767 N   0  0  0  0  0  0  0  0  0  0  0  0
   16.5776  -18.7864  -14.9039 C   0  0  0  0  0  0  0  0  0  0  0  0
   17.6358  -18.8029  -13.9222 O   0  0  0  0  0  0  0  0  0  0  0  0
   17.3567  -18.4333  -12.7649 C   0  0  0  0  0  0  0  0  0  0  0  0
   18.9859  -19.2449  -14.3020 C   0  0  2  0  0  0  0  0  0  0  0  0
   19.4884  -20.3866  -13.4682 N   0  0  0  0  0  0  0  0  0  0  0  0
   20.7932  -20.7639  -14.0467 C   0  0  0  0  0  0  0  0  0  0  0  0
   18.6047  -21.5351  -13.3580 O   0  0  0  0  0  0  0  0  0  0  0  0
   17.5801  -21.6849  -12.4590 O   0  0  0  0  0  0  0  0  0  0  0  0
  2  1  1  6
  2  3  1  0
  3  4  1  0
  5  4  1  0
  5  9  1  0
  6  5  2  0
  7 18  1  0
  7  2  1  0
  8  7  2  0
 11 10  1  0
 11 13  1  0
 12 11  2  0
 13 14  1  0
 15 14  1  0
 17 16  1  1
 16 15  1  0
 17 18  1  0
 19 26  1  0
 19 17  1  0
 20 19  2  0
 22 21  1  0
 22 23  2  0
 25 24  1  1
 24 22  1  0
 25 27  1  0
 25 26  1  0
 27 28  1  0
 29 27  2  0
M  END
$$$$
