ERN.pdb
     RDKit          3D

 29 28  0  0  1  0  0  0  0  0999 V2000
   28.3760  -23.2929  -17.1126 N   0  0  0  0  0  0  0  0  0  0  0  0
   28.0694  -21.9497  -16.5204 C   0  0  1  0  0  0  0  0  0  0  0  0
   27.7013  -21.1054  -17.6812 C   0  0  0  0  0  0  0  0  0  0  0  0
   28.8113  -20.6329  -18.5627 C   0  0  0  0  0  0  0  0  0  0  0  0
   28.3879  -19.8042  -19.7050 C   0  0  0  0  0  0  0  0  0  0  0  0
   27.1724  -19.5497  -19.8628 O   0  0  0  0  0  0  0  0  0  0  0  0
   27.0289  -22.2253  -15.5370 C   0  0  0  0  0  0  0  0  0  0  0  0
   26.1289  -23.0955  -15.6424 O   0  0  0  0  0  0  0  0  0  0  0  0
   29.2952  -19.3044  -20.6002 O   0  0  0  0  0  0  0  0  0  0  0  0
   22.6071  -20.1577   -9.7384 N   0  0  0  0  0  0  0  0  0  0  0  0
   23.2924  -20.8006   -8.6688 C   0  0  0  0  0  0  0  0  0  0  0  0
   22.6093  -21.3106   -7.7232 N   0  0  0  0  0  0  0  0  0  0  0  0
   24.7034  -20.8387   -8.7135 N   0  0  0  0  0  0  0  0  0  0  0  0
   25.4189  -20.1288   -9.7753 C   0  0  0  0  0  0  0  0  0  0  0  0
   25.1220  -20.7476  -11.0864 C   0  0  0  0  0  0  0  0  0  0  0  0
   26.2213  -20.9626  -12.0516 C   0  0  0  0  0  0  0  0  0  0  0  0
   25.9275  -21.5520  -13.3931 C   0  0  2  0  0  0  0  0  0  0  0  0
   27.0017  -21.4535  -14.3262 N   0  0  0  0  0  0  0  0  0  0  0  0
   24.6949  -20.9669  -13.9826 C   0  0  0  0  0  0  0  0  0  0  0  0
   24.6592  -19.7635  -14.3453 O   0  0  0  0  0  0  0  0  0  0  0  0
   23.0435  -21.7580   -6.9005 N   0  0  0  0  0  0  0  0  0  0  0  0
   19.9562  -20.4796  -16.1177 C   0  0  0  0  0  0  0  0  0  0  0  0
   20.4259  -21.8396  -16.2345 O   0  0  0  0  0  0  0  0  0  0  0  0
   19.7652  -22.6202  -16.9472 C   0  0  0  0  0  0  0  0  0  0  0  0
   21.6437  -22.2615  -15.5266 C   0  0  2  0  0  0  0  0  0  0  0  0
   22.2921  -21.1498  -14.7553 N   0  0  0  0  0  0  0  0  0  0  0  0
   23.5131  -21.7300  -14.1621 C   0  0  0  0  0  0  0  0  0  0  0  0
   21.4669  -20.5054  -13.7472 O   0  0  0  0  0  0  0  0  0  0  0  0
   21.6292  -20.5971  -12.3887 O   0  0  0  0  0  0  0  0  0  0  0  0
  2  1  1  6
  2  3  1  0
  3  4  1  0
  5  4  1  0
  5  9  1  0
  6  5  2  0
  7 18  1  0
  7  2  1  0
  8  7  2  0
 11 10  1  0
 11 13  1  0
 12 11  2  0
 13 14  1  0
 15 14  1  0
 17 16  1  1
 16 15  1  0
 17 18  1  0
 19 26  1  0
 19 17  1  0
 20 19  2  0
 22 21  1  0
 22 23  2  0
 25 24  1  6
 24 22  1  0
 25 27  1  0
 25 26  1  0
 27 28  1  0
 29 27  2  0
M  END
$$$$
