ERN.pdb
     RDKit          3D

 29 28  0  0  1  0  0  0  0  0999 V2000
   27.5516  -17.2183  -17.7437 N   0  0  0  0  0  0  0  0  0  0  0  0
   26.5110  -17.9148  -18.5688 C   0  0  1  0  0  0  0  0  0  0  0  0
   27.2494  -18.4233  -19.7487 C   0  0  0  0  0  0  0  0  0  0  0  0
   28.5518  -19.1109  -19.4963 C   0  0  0  0  0  0  0  0  0  0  0  0
   29.2819  -19.5231  -20.7079 C   0  0  0  0  0  0  0  0  0  0  0  0
   29.3967  -20.7413  -20.9719 O   0  0  0  0  0  0  0  0  0  0  0  0
   25.9409  -18.9022  -17.6601 C   0  0  0  0  0  0  0  0  0  0  0  0
   26.4962  -19.9654  -17.2865 O   0  0  0  0  0  0  0  0  0  0  0  0
   29.8391  -18.6023  -21.5542 O   0  0  0  0  0  0  0  0  0  0  0  0
   27.0975  -21.3896  -10.7099 N   0  0  0  0  0  0  0  0  0  0  0  0
   25.8076  -20.9903  -10.2589 C   0  0  0  0  0  0  0  0  0  0  0  0
   25.4024  -21.3997   -9.1235 N   0  0  0  0  0  0  0  0  0  0  0  0
   25.0401  -20.1556  -11.1007 N   0  0  0  0  0  0  0  0  0  0  0  0
   25.6429  -19.5826  -12.3055 C   0  0  0  0  0  0  0  0  0  0  0  0
   24.7090  -19.7074  -13.4468 C   0  0  0  0  0  0  0  0  0  0  0  0
   25.1020  -19.1696  -14.7668 C   0  0  0  0  0  0  0  0  0  0  0  0
   24.1776  -19.3119  -15.9322 C   0  0  2  0  0  0  0  0  0  0  0  0
   24.6296  -18.6695  -17.1227 N   0  0  0  0  0  0  0  0  0  0  0  0
   22.8081  -18.8416  -15.5967 C   0  0  0  0  0  0  0  0  0  0  0  0
   22.4414  -17.6700  -15.8687 O   0  0  0  0  0  0  0  0  0  0  0  0
   24.4630  -21.1820   -8.7553 N   0  0  0  0  0  0  0  0  0  0  0  0
   17.9501  -19.0185  -16.4266 C   0  0  0  0  0  0  0  0  0  0  0  0
   19.0120  -19.4337  -17.3118 O   0  0  0  0  0  0  0  0  0  0  0  0
   18.7734  -19.4457  -18.5352 C   0  0  0  0  0  0  0  0  0  0  0  0
   20.3190  -19.8233  -16.7621 C   0  0  2  0  0  0  0  0  0  0  0  0
   20.4200  -19.6166  -15.2794 N   0  0  0  0  0  0  0  0  0  0  0  0
   21.8600  -19.6831  -14.9608 C   0  0  0  0  0  0  0  0  0  0  0  0
   19.6508  -20.5315  -14.4526 O   0  0  0  0  0  0  0  0  0  0  0  0
   18.3461  -20.3687  -14.0633 O   0  0  0  0  0  0  0  0  0  0  0  0
  2  1  1  1
  2  3  1  0
  3  4  1  0
  5  4  1  0
  5  9  1  0
  6  5  2  0
  7 18  1  0
  7  2  1  0
  8  7  2  0
 11 10  1  0
 11 13  1  0
 12 11  2  0
 13 14  1  0
 15 14  1  0
 17 16  1  1
 16 15  1  0
 17 18  1  0
 19 26  1  0
 19 17  1  0
 20 19  2  0
 22 21  1  0
 22 23  2  0
 25 24  1  6
 24 22  1  0
 25 27  1  0
 25 26  1  0
 27 28  1  0
 29 27  2  0
M  END
$$$$
