ERN.pdb
     RDKit          3D

 29 28  0  0  1  0  0  0  0  0999 V2000
   23.0081  -17.8028  -18.8224 N   0  0  0  0  0  0  0  0  0  0  0  0
   22.3453  -17.3840  -17.5442 C   0  0  1  0  0  0  0  0  0  0  0  0
   21.3899  -16.3259  -17.9486 C   0  0  0  0  0  0  0  0  0  0  0  0
   21.9506  -14.9704  -18.2327 C   0  0  0  0  0  0  0  0  0  0  0  0
   21.5101  -14.3697  -19.5039 C   0  0  0  0  0  0  0  0  0  0  0  0
   20.7042  -14.9926  -20.2316 O   0  0  0  0  0  0  0  0  0  0  0  0
   21.7870  -18.6216  -17.0127 C   0  0  0  0  0  0  0  0  0  0  0  0
   20.9168  -19.3355  -17.5708 O   0  0  0  0  0  0  0  0  0  0  0  0
   21.9628  -13.1427  -19.9090 O   0  0  0  0  0  0  0  0  0  0  0  0
   24.4912  -24.5697  -15.3605 N   0  0  0  0  0  0  0  0  0  0  0  0
   25.7855  -23.9814  -15.2852 C   0  0  0  0  0  0  0  0  0  0  0  0
   26.7232  -24.4732  -15.9923 N   0  0  0  0  0  0  0  0  0  0  0  0
   25.9622  -22.8762  -14.4241 N   0  0  0  0  0  0  0  0  0  0  0  0
   24.8104  -22.3074  -13.7218 C   0  0  0  0  0  0  0  0  0  0  0  0
   23.8932  -21.6668  -14.6904 C   0  0  0  0  0  0  0  0  0  0  0  0
   22.6994  -20.9502  -14.1930 C   0  0  0  0  0  0  0  0  0  0  0  0
   21.7618  -20.3063  -15.1622 C   0  0  2  0  0  0  0  0  0  0  0  0
   22.2526  -19.0983  -15.7405 N   0  0  0  0  0  0  0  0  0  0  0  0
   20.4305  -20.0639  -14.5472 C   0  0  0  0  0  0  0  0  0  0  0  0
   20.2511  -19.1106  -13.7473 O   0  0  0  0  0  0  0  0  0  0  0  0
   27.7037  -24.1605  -15.9128 N   0  0  0  0  0  0  0  0  0  0  0  0
   15.8200  -17.9135  -13.4785 C   0  0  0  0  0  0  0  0  0  0  0  0
   16.1538  -18.9928  -14.3771 O   0  0  0  0  0  0  0  0  0  0  0  0
   15.2138  -19.6453  -14.8714 C   0  0  0  0  0  0  0  0  0  0  0  0
   17.5616  -19.2895  -14.6809 C   0  0  1  0  0  0  0  0  0  0  0  0
   17.9912  -20.6493  -14.2145 N   0  0  0  0  0  0  0  0  0  0  0  0
   19.3115  -20.8878  -14.8305 C   0  0  0  0  0  0  0  0  0  0  0  0
   17.0715  -21.7401  -14.4918 O   0  0  0  0  0  0  0  0  0  0  0  0
   15.9928  -22.1036  -13.7271 O   0  0  0  0  0  0  0  0  0  0  0  0
  2  1  1  6
  2  3  1  0
  3  4  1  0
  5  4  1  0
  5  9  1  0
  6  5  2  0
  7 18  1  0
  7  2  1  0
  8  7  2  0
 11 10  1  0
 11 13  1  0
 12 11  2  0
 13 14  1  0
 15 14  1  0
 17 16  1  1
 16 15  1  0
 17 18  1  0
 19 26  1  0
 19 17  1  0
 20 19  2  0
 22 21  1  0
 22 23  2  0
 25 24  1  1
 24 22  1  0
 25 27  1  0
 25 26  1  0
 27 28  1  0
 29 27  2  0
M  END
$$$$
