ERN.pdb
     RDKit          3D

 29 28  0  0  1  0  0  0  0  0999 V2000
   25.5901   -9.5333  -20.7373 N   0  0  0  0  0  0  0  0  0  0  0  0
   25.9971   -8.8745  -19.4531 C   0  0  1  0  0  0  0  0  0  0  0  0
   26.2523   -7.4624  -19.8228 C   0  0  0  0  0  0  0  0  0  0  0  0
   25.6651   -6.4080  -18.9419 C   0  0  0  0  0  0  0  0  0  0  0  0
   25.8867   -5.0242  -19.3966 C   0  0  0  0  0  0  0  0  0  0  0  0
   25.5989   -4.7103  -20.5738 O   0  0  0  0  0  0  0  0  0  0  0  0
   24.8828   -9.1388  -18.5508 C   0  0  0  0  0  0  0  0  0  0  0  0
   23.6765   -9.2494  -18.8840 O   0  0  0  0  0  0  0  0  0  0  0  0
   26.4013   -4.0708  -18.5595 O   0  0  0  0  0  0  0  0  0  0  0  0
   21.1306  -14.5240  -15.6780 N   0  0  0  0  0  0  0  0  0  0  0  0
   20.6703  -13.1829  -15.8063 C   0  0  0  0  0  0  0  0  0  0  0  0
   19.4879  -12.9798  -16.2325 N   0  0  0  0  0  0  0  0  0  0  0  0
   21.5560  -12.1415  -15.4521 N   0  0  0  0  0  0  0  0  0  0  0  0
   22.7448  -12.4363  -14.6502 C   0  0  0  0  0  0  0  0  0  0  0  0
   23.4444  -11.1795  -14.3019 C   0  0  0  0  0  0  0  0  0  0  0  0
   24.4785  -10.6487  -15.2157 C   0  0  0  0  0  0  0  0  0  0  0  0
   24.1196   -9.5937  -16.2113 C   0  0  2  0  0  0  0  0  0  0  0  0
   25.1521   -9.2948  -17.1488 N   0  0  0  0  0  0  0  0  0  0  0  0
   23.6746   -8.3449  -15.5392 C   0  0  0  0  0  0  0  0  0  0  0  0
   24.5084   -7.5400  -15.0514 O   0  0  0  0  0  0  0  0  0  0  0  0
   19.1015  -12.0332  -16.3742 N   0  0  0  0  0  0  0  0  0  0  0  0
   22.0292   -3.1805  -16.0942 C   0  0  0  0  0  0  0  0  0  0  0  0
   22.0625   -4.3006  -15.1842 O   0  0  0  0  0  0  0  0  0  0  0  0
   21.8179   -4.0767  -13.9826 C   0  0  0  0  0  0  0  0  0  0  0  0
   22.3765   -5.6471  -15.6848 C   0  0  2  0  0  0  0  0  0  0  0  0
   21.8643   -6.7410  -14.7946 N   0  0  0  0  0  0  0  0  0  0  0  0
   22.3030   -8.0055  -15.4175 C   0  0  0  0  0  0  0  0  0  0  0  0
   20.4330   -6.7422  -14.5424 O   0  0  0  0  0  0  0  0  0  0  0  0
   19.7440   -5.8314  -13.7834 O   0  0  0  0  0  0  0  0  0  0  0  0
  2  1  1  6
  2  3  1  0
  3  4  1  0
  5  4  1  0
  5  9  1  0
  6  5  2  0
  7 18  1  0
  7  2  1  0
  8  7  2  0
 11 10  1  0
 11 13  1  0
 12 11  2  0
 13 14  1  0
 15 14  1  0
 17 16  1  1
 16 15  1  0
 17 18  1  0
 19 26  1  0
 19 17  1  0
 20 19  2  0
 22 21  1  0
 22 23  2  0
 25 24  1  1
 24 22  1  0
 25 27  1  0
 25 26  1  0
 27 28  1  0
 29 27  2  0
M  END
$$$$
