ERN.pdb
     RDKit          3D

 29 28  0  0  1  0  0  0  0  0999 V2000
   14.0608  -22.5634   -3.2660 N   0  0  0  0  0  0  0  0  0  0  0  0
   14.1752  -23.9527   -3.8186 C   0  0  1  0  0  0  0  0  0  0  0  0
   12.9675  -24.1198   -4.6608 C   0  0  0  0  0  0  0  0  0  0  0  0
   12.9120  -23.3466   -5.9381 C   0  0  0  0  0  0  0  0  0  0  0  0
   11.8203  -22.3606   -6.0208 C   0  0  0  0  0  0  0  0  0  0  0  0
   11.9520  -21.3578   -6.7583 O   0  0  0  0  0  0  0  0  0  0  0  0
   15.4675  -23.9602   -4.4935 C   0  0  0  0  0  0  0  0  0  0  0  0
   16.0631  -22.9542   -4.9535 O   0  0  0  0  0  0  0  0  0  0  0  0
   10.6617  -22.5162   -5.3079 O   0  0  0  0  0  0  0  0  0  0  0  0
   17.7927  -29.4782   -0.6784 N   0  0  0  0  0  0  0  0  0  0  0  0
   17.1889  -28.1942   -0.7960 C   0  0  0  0  0  0  0  0  0  0  0  0
   16.1974  -27.9135   -0.0482 N   0  0  0  0  0  0  0  0  0  0  0  0
   17.7251  -27.2939   -1.7427 N   0  0  0  0  0  0  0  0  0  0  0  0
   18.6294  -27.7839   -2.7845 C   0  0  0  0  0  0  0  0  0  0  0  0
   18.9537  -26.6908   -3.7279 C   0  0  0  0  0  0  0  0  0  0  0  0
   18.1773  -26.5596   -4.9794 C   0  0  0  0  0  0  0  0  0  0  0  0
   17.4401  -25.2920   -5.2670 C   0  0  2  0  0  0  0  0  0  0  0  0
   16.1505  -25.2121   -4.6628 N   0  0  0  0  0  0  0  0  0  0  0  0
   17.3251  -25.0531   -6.7295 C   0  0  0  0  0  0  0  0  0  0  0  0
   16.2514  -25.2861   -7.3409 O   0  0  0  0  0  0  0  0  0  0  0  0
   15.6333  -27.0575   -0.1689 N   0  0  0  0  0  0  0  0  0  0  0  0
   18.3724  -23.4133  -11.5863 C   0  0  0  0  0  0  0  0  0  0  0  0
   19.4088  -22.9452  -10.6972 O   0  0  0  0  0  0  0  0  0  0  0  0
   20.2791  -22.1890  -11.1710 C   0  0  0  0  0  0  0  0  0  0  0  0
   19.4129  -23.3619   -9.2870 C   0  0  2  0  0  0  0  0  0  0  0  0
   18.2842  -24.2886   -8.9430 N   0  0  0  0  0  0  0  0  0  0  0  0
   18.4096  -24.5564   -7.4966 C   0  0  0  0  0  0  0  0  0  0  0  0
   18.2151  -25.5229   -9.7072 O   0  0  0  0  0  0  0  0  0  0  0  0
   17.5725  -25.6980  -10.9059 O   0  0  0  0  0  0  0  0  0  0  0  0
  2  1  1  6
  2  3  1  0
  3  4  1  0
  5  4  1  0
  5  9  1  0
  6  5  2  0
  7 18  1  0
  7  2  1  0
  8  7  2  0
 11 10  1  0
 11 13  1  0
 12 11  2  0
 13 14  1  0
 15 14  1  0
 17 16  1  6
 16 15  1  0
 17 18  1  0
 19 26  1  0
 19 17  1  0
 20 19  2  0
 22 21  1  0
 22 23  2  0
 25 24  1  1
 24 22  1  0
 25 27  1  0
 25 26  1  0
 27 28  1  0
 29 27  2  0
M  END
$$$$
