ERN.pdb
     RDKit          3D

 29 28  0  0  1  0  0  0  0  0999 V2000
   23.1845  -28.6359  -16.7000 N   0  0  0  0  0  0  0  0  0  0  0  0
   23.4217  -27.5312  -15.7140 C   0  0  1  0  0  0  0  0  0  0  0  0
   23.9739  -26.4201  -16.5243 C   0  0  0  0  0  0  0  0  0  0  0  0
   25.3278  -25.9094  -16.1521 C   0  0  0  0  0  0  0  0  0  0  0  0
   26.4256  -26.8770  -16.3232 C   0  0  0  0  0  0  0  0  0  0  0  0
   26.1832  -28.0005  -16.8192 O   0  0  0  0  0  0  0  0  0  0  0  0
   22.1183  -27.3236  -15.0945 C   0  0  0  0  0  0  0  0  0  0  0  0
   21.0192  -27.2535  -15.6989 O   0  0  0  0  0  0  0  0  0  0  0  0
   27.7083  -26.5753  -15.9514 O   0  0  0  0  0  0  0  0  0  0  0  0
   17.3312  -29.3974   -8.0644 N   0  0  0  0  0  0  0  0  0  0  0  0
   16.8062  -28.3856   -8.9172 C   0  0  0  0  0  0  0  0  0  0  0  0
   15.5531  -28.3639   -9.1415 N   0  0  0  0  0  0  0  0  0  0  0  0
   17.7093  -27.4532   -9.4735 N   0  0  0  0  0  0  0  0  0  0  0  0
   18.9945  -27.9106  -10.0050 C   0  0  0  0  0  0  0  0  0  0  0  0
   19.6854  -26.7942  -10.6879 C   0  0  0  0  0  0  0  0  0  0  0  0
   20.8819  -27.0769  -11.5093 C   0  0  0  0  0  0  0  0  0  0  0  0
   20.8157  -26.9273  -12.9947 C   0  0  2  0  0  0  0  0  0  0  0  0
   22.0470  -27.1852  -13.6668 N   0  0  0  0  0  0  0  0  0  0  0  0
   20.3039  -25.5864  -13.3809 C   0  0  0  0  0  0  0  0  0  0  0  0
   21.0661  -24.5868  -13.4108 O   0  0  0  0  0  0  0  0  0  0  0  0
   15.0983  -27.6182   -9.6917 N   0  0  0  0  0  0  0  0  0  0  0  0
   17.2495  -22.3803  -17.0652 C   0  0  0  0  0  0  0  0  0  0  0  0
   16.9811  -22.9692  -15.7749 O   0  0  0  0  0  0  0  0  0  0  0  0
   16.1407  -22.4067  -15.0461 C   0  0  0  0  0  0  0  0  0  0  0  0
   17.6889  -24.1899  -15.3609 C   0  0  1  0  0  0  0  0  0  0  0  0
   18.4280  -24.0316  -14.0648 N   0  0  0  0  0  0  0  0  0  0  0  0
   18.9461  -25.3730  -13.7304 C   0  0  0  0  0  0  0  0  0  0  0  0
   17.6698  -23.4654  -12.9617 O   0  0  0  0  0  0  0  0  0  0  0  0
   17.4636  -22.1312  -12.7217 O   0  0  0  0  0  0  0  0  0  0  0  0
  2  1  1  6
  2  3  1  0
  3  4  1  0
  5  4  1  0
  5  9  1  0
  6  5  2  0
  7 18  1  0
  7  2  1  0
  8  7  2  0
 11 10  1  0
 11 13  1  0
 12 11  2  0
 13 14  1  0
 15 14  1  0
 17 16  1  1
 16 15  1  0
 17 18  1  0
 19 26  1  0
 19 17  1  0
 20 19  2  0
 22 21  1  0
 22 23  2  0
 25 24  1  6
 24 22  1  0
 25 27  1  0
 25 26  1  0
 27 28  1  0
 29 27  2  0
M  END
$$$$
