ERN.pdb
     RDKit          3D

 29 28  0  0  1  0  0  0  0  0999 V2000
   18.4154  -20.1263  -11.7406 N   0  0  0  0  0  0  0  0  0  0  0  0
   19.3330  -21.2723  -12.0467 C   0  0  1  0  0  0  0  0  0  0  0  0
   18.4478  -22.3188  -12.6098 C   0  0  0  0  0  0  0  0  0  0  0  0
   17.5547  -21.9233  -13.7405 C   0  0  0  0  0  0  0  0  0  0  0  0
   16.7506  -23.0190  -14.3097 C   0  0  0  0  0  0  0  0  0  0  0  0
   15.6636  -23.3278  -13.7711 O   0  0  0  0  0  0  0  0  0  0  0  0
   20.3357  -20.6958  -12.9343 C   0  0  0  0  0  0  0  0  0  0  0  0
   20.2025  -19.6460  -13.6115 O   0  0  0  0  0  0  0  0  0  0  0  0
   17.1656  -23.7090  -15.4170 O   0  0  0  0  0  0  0  0  0  0  0  0
   27.6887  -20.0056  -13.0008 N   0  0  0  0  0  0  0  0  0  0  0  0
   27.2847  -21.2261  -12.3891 C   0  0  0  0  0  0  0  0  0  0  0  0
   27.5763  -21.4232  -11.1656 N   0  0  0  0  0  0  0  0  0  0  0  0
   26.5772  -22.1601  -13.1774 N   0  0  0  0  0  0  0  0  0  0  0  0
   26.3411  -21.8865  -14.5961 C   0  0  0  0  0  0  0  0  0  0  0  0
   25.0199  -21.2441  -14.7744 C   0  0  0  0  0  0  0  0  0  0  0  0
   23.9150  -21.5927  -13.8559 C   0  0  0  0  0  0  0  0  0  0  0  0
   22.5873  -20.9229  -14.0029 C   0  0  2  0  0  0  0  0  0  0  0  0
   21.6020  -21.3598  -13.0687 N   0  0  0  0  0  0  0  0  0  0  0  0
   22.0628  -21.0598  -15.3869 C   0  0  0  0  0  0  0  0  0  0  0  0
   21.3284  -22.0287  -15.7078 O   0  0  0  0  0  0  0  0  0  0  0  0
   27.2751  -22.2650  -10.6496 N   0  0  0  0  0  0  0  0  0  0  0  0
   18.9498  -18.5892  -19.3582 C   0  0  0  0  0  0  0  0  0  0  0  0
   19.6410  -19.7760  -18.9139 O   0  0  0  0  0  0  0  0  0  0  0  0
   19.5990  -20.7799  -19.6517 C   0  0  0  0  0  0  0  0  0  0  0  0
   20.3612  -19.7725  -17.6319 C   0  0  2  0  0  0  0  0  0  0  0  0
   21.7891  -20.2159  -17.7569 N   0  0  0  0  0  0  0  0  0  0  0  0
   22.3626  -20.1141  -16.4003 C   0  0  0  0  0  0  0  0  0  0  0  0
   22.5976  -19.5005  -18.7299 O   0  0  0  0  0  0  0  0  0  0  0  0
   22.6578  -19.7548  -20.0760 O   0  0  0  0  0  0  0  0  0  0  0  0
  2  1  1  6
  2  3  1  0
  3  4  1  0
  5  4  1  0
  5  9  1  0
  6  5  2  0
  7 18  1  0
  7  2  1  0
  8  7  2  0
 11 10  1  0
 11 13  1  0
 12 11  2  0
 13 14  1  0
 15 14  1  0
 17 16  1  6
 16 15  1  0
 17 18  1  0
 19 26  1  0
 19 17  1  0
 20 19  2  0
 22 21  1  0
 22 23  2  0
 25 24  1  1
 24 22  1  0
 25 27  1  0
 25 26  1  0
 27 28  1  0
 29 27  2  0
M  END
$$$$
