ERN.pdb
     RDKit          3D

 29 28  0  0  1  0  0  0  0  0999 V2000
   28.6086  -22.9477  -16.9850 N   0  0  0  0  0  0  0  0  0  0  0  0
   28.4289  -21.4637  -17.1037 C   0  0  1  0  0  0  0  0  0  0  0  0
   28.0268  -21.2482  -18.5136 C   0  0  0  0  0  0  0  0  0  0  0  0
   27.9955  -22.4459  -19.4065 C   0  0  0  0  0  0  0  0  0  0  0  0
   29.2520  -22.7171  -20.1266 C   0  0  0  0  0  0  0  0  0  0  0  0
   29.6444  -23.8989  -20.2548 O   0  0  0  0  0  0  0  0  0  0  0  0
   27.4500  -21.1417  -16.0724 C   0  0  0  0  0  0  0  0  0  0  0  0
   26.8210  -21.9722  -15.3701 O   0  0  0  0  0  0  0  0  0  0  0  0
   30.0025  -21.7040  -20.6605 O   0  0  0  0  0  0  0  0  0  0  0  0
   27.4423  -14.9652  -17.5015 N   0  0  0  0  0  0  0  0  0  0  0  0
   26.1210  -14.4520  -17.3682 C   0  0  0  0  0  0  0  0  0  0  0  0
   25.6103  -13.8156  -18.3455 N   0  0  0  0  0  0  0  0  0  0  0  0
   25.4422  -14.6774  -16.1505 N   0  0  0  0  0  0  0  0  0  0  0  0
   26.0785  -15.4695  -15.0965 C   0  0  0  0  0  0  0  0  0  0  0  0
   25.9378  -16.9124  -15.3934 C   0  0  0  0  0  0  0  0  0  0  0  0
   26.3908  -17.9050  -14.3955 C   0  0  0  0  0  0  0  0  0  0  0  0
   26.3274  -19.3631  -14.7162 C   0  0  2  0  0  0  0  0  0  0  0  0
   27.1556  -19.7614  -15.8071 N   0  0  0  0  0  0  0  0  0  0  0  0
   24.9288  -19.8028  -14.9608 C   0  0  0  0  0  0  0  0  0  0  0  0
   24.4143  -19.7175  -16.1049 O   0  0  0  0  0  0  0  0  0  0  0  0
   24.6627  -13.4076  -18.3105 N   0  0  0  0  0  0  0  0  0  0  0  0
   20.9746  -23.8020  -13.7196 C   0  0  0  0  0  0  0  0  0  0  0  0
   21.1425  -22.4557  -13.2265 O   0  0  0  0  0  0  0  0  0  0  0  0
   20.1173  -21.8307  -12.8915 C   0  0  0  0  0  0  0  0  0  0  0  0
   22.4870  -21.8678  -13.1332 C   0  0  1  0  0  0  0  0  0  0  0  0
   22.7502  -20.8291  -14.1835 N   0  0  0  0  0  0  0  0  0  0  0  0
   24.1169  -20.3336  -13.9263 C   0  0  0  0  0  0  0  0  0  0  0  0
   21.7944  -19.7365  -14.2554 O   0  0  0  0  0  0  0  0  0  0  0  0
   20.6464  -19.7134  -15.0049 O   0  0  0  0  0  0  0  0  0  0  0  0
  2  1  1  6
  2  3  1  0
  3  4  1  0
  5  4  1  0
  5  9  1  0
  6  5  2  0
  7 18  1  0
  7  2  1  0
  8  7  2  0
 11 10  1  0
 11 13  1  0
 12 11  2  0
 13 14  1  0
 15 14  1  0
 17 16  1  6
 16 15  1  0
 17 18  1  0
 19 26  1  0
 19 17  1  0
 20 19  2  0
 22 21  1  0
 22 23  2  0
 25 24  1  6
 24 22  1  0
 25 27  1  0
 25 26  1  0
 27 28  1  0
 29 27  2  0
M  END
$$$$
