ERN.pdb
     RDKit          3D

 29 28  0  0  1  0  0  0  0  0999 V2000
   18.8545  -23.1404   -9.2123 N   0  0  0  0  0  0  0  0  0  0  0  0
   19.8660  -23.5240  -10.2508 C   0  0  1  0  0  0  0  0  0  0  0  0
   19.1561  -24.4870  -11.1251 C   0  0  0  0  0  0  0  0  0  0  0  0
   17.6624  -24.4681  -11.0923 C   0  0  0  0  0  0  0  0  0  0  0  0
   17.0189  -24.0329  -12.3442 C   0  0  0  0  0  0  0  0  0  0  0  0
   16.5805  -22.8639  -12.4361 O   0  0  0  0  0  0  0  0  0  0  0  0
   20.2660  -22.2528  -10.8422 C   0  0  0  0  0  0  0  0  0  0  0  0
   19.6858  -21.1505  -10.6789 O   0  0  0  0  0  0  0  0  0  0  0  0
   16.8888  -24.8794  -13.4125 O   0  0  0  0  0  0  0  0  0  0  0  0
   28.4245  -20.6038  -12.7953 N   0  0  0  0  0  0  0  0  0  0  0  0
   28.0277  -20.9382  -11.4695 C   0  0  0  0  0  0  0  0  0  0  0  0
   28.8934  -20.8777  -10.5380 N   0  0  0  0  0  0  0  0  0  0  0  0
   26.6855  -21.3224  -11.2565 N   0  0  0  0  0  0  0  0  0  0  0  0
   25.7439  -21.3353  -12.3774 C   0  0  0  0  0  0  0  0  0  0  0  0
   24.3605  -21.1714  -11.8778 C   0  0  0  0  0  0  0  0  0  0  0  0
   23.2494  -21.0557  -12.8463 C   0  0  0  0  0  0  0  0  0  0  0  0
   21.8375  -21.0293  -12.3575 C   0  0  2  0  0  0  0  0  0  0  0  0
   21.4240  -22.2205  -11.6909 N   0  0  0  0  0  0  0  0  0  0  0  0
   20.8898  -20.7152  -13.4586 C   0  0  0  0  0  0  0  0  0  0  0  0
   20.1427  -21.6033  -13.9425 O   0  0  0  0  0  0  0  0  0  0  0  0
   28.6676  -21.0879   -9.5529 N   0  0  0  0  0  0  0  0  0  0  0  0
   17.6492  -18.9119  -16.8291 C   0  0  0  0  0  0  0  0  0  0  0  0
   18.2872  -20.1949  -16.6535 O   0  0  0  0  0  0  0  0  0  0  0  0
   17.8817  -21.1429  -17.3540 C   0  0  0  0  0  0  0  0  0  0  0  0
   19.3746  -20.3490  -15.6757 C   0  0  1  0  0  0  0  0  0  0  0  0
   19.7397  -19.0638  -14.9930 N   0  0  0  0  0  0  0  0  0  0  0  0
   20.7843  -19.4128  -14.0098 C   0  0  0  0  0  0  0  0  0  0  0  0
   18.6457  -18.3379  -14.3698 O   0  0  0  0  0  0  0  0  0  0  0  0
   18.1541  -18.5428  -13.1062 O   0  0  0  0  0  0  0  0  0  0  0  0
  2  1  1  1
  2  3  1  0
  3  4  1  0
  5  4  1  0
  5  9  1  0
  6  5  2  0
  7 18  1  0
  7  2  1  0
  8  7  2  0
 11 10  1  0
 11 13  1  0
 12 11  2  0
 13 14  1  0
 15 14  1  0
 17 16  1  6
 16 15  1  0
 17 18  1  0
 19 26  1  0
 19 17  1  0
 20 19  2  0
 22 21  1  0
 22 23  2  0
 25 24  1  6
 24 22  1  0
 25 27  1  0
 25 26  1  0
 27 28  1  0
 29 27  2  0
M  END
$$$$
