ERN.pdb
     RDKit          3D

 29 28  0  0  1  0  0  0  0  0999 V2000
   25.9416  -20.3135  -18.0398 N   0  0  0  0  0  0  0  0  0  0  0  0
   25.9099  -19.3717  -16.8733 C   0  0  1  0  0  0  0  0  0  0  0  0
   25.1925  -18.1772  -17.3776 C   0  0  0  0  0  0  0  0  0  0  0  0
   23.6996  -18.2013  -17.3207 C   0  0  0  0  0  0  0  0  0  0  0  0
   23.0409  -16.9587  -17.7599 C   0  0  0  0  0  0  0  0  0  0  0  0
   23.7414  -15.9785  -18.1000 O   0  0  0  0  0  0  0  0  0  0  0  0
   25.2668  -20.1407  -15.8146 C   0  0  0  0  0  0  0  0  0  0  0  0
   24.3639  -20.9997  -15.9738 O   0  0  0  0  0  0  0  0  0  0  0  0
   21.6768  -16.8506  -17.8051 O   0  0  0  0  0  0  0  0  0  0  0  0
   28.4196  -22.8067   -9.9178 N   0  0  0  0  0  0  0  0  0  0  0  0
   28.5955  -21.4007  -10.0554 C   0  0  0  0  0  0  0  0  0  0  0  0
   29.7579  -20.9522  -10.3175 N   0  0  0  0  0  0  0  0  0  0  0  0
   27.4637  -20.5720   -9.8923 N   0  0  0  0  0  0  0  0  0  0  0  0
   26.1534  -21.1703   -9.6305 C   0  0  0  0  0  0  0  0  0  0  0  0
   25.3760  -21.2552  -10.8869 C   0  0  0  0  0  0  0  0  0  0  0  0
   25.8525  -20.5303  -12.0842 C   0  0  0  0  0  0  0  0  0  0  0  0
   25.0947  -20.6367  -13.3678 C   0  0  2  0  0  0  0  0  0  0  0  0
   25.6795  -19.9243  -14.4563 N   0  0  0  0  0  0  0  0  0  0  0  0
   23.6789  -20.2181  -13.1962 C   0  0  0  0  0  0  0  0  0  0  0  0
   23.3810  -19.0151  -12.9839 O   0  0  0  0  0  0  0  0  0  0  0  0
   29.9419  -19.9526  -10.4977 N   0  0  0  0  0  0  0  0  0  0  0  0
   18.4345  -20.3213  -15.6640 C   0  0  0  0  0  0  0  0  0  0  0  0
   19.1204  -20.5566  -14.4158 O   0  0  0  0  0  0  0  0  0  0  0  0
   18.4637  -20.4350  -13.3633 C   0  0  0  0  0  0  0  0  0  0  0  0
   20.5438  -20.9257  -14.4158 C   0  0  1  0  0  0  0  0  0  0  0  0
   21.2033  -20.7301  -13.0824 N   0  0  0  0  0  0  0  0  0  0  0  0
   22.6083  -21.1457  -13.2632 C   0  0  0  0  0  0  0  0  0  0  0  0
   20.5877  -21.4154  -11.9582 O   0  0  0  0  0  0  0  0  0  0  0  0
   19.6904  -20.8747  -11.0734 O   0  0  0  0  0  0  0  0  0  0  0  0
  2  1  1  6
  2  3  1  0
  3  4  1  0
  5  4  1  0
  5  9  1  0
  6  5  2  0
  7 18  1  0
  7  2  1  0
  8  7  2  0
 11 10  1  0
 11 13  1  0
 12 11  2  0
 13 14  1  0
 15 14  1  0
 17 16  1  1
 16 15  1  0
 17 18  1  0
 19 26  1  0
 19 17  1  0
 20 19  2  0
 22 21  1  0
 22 23  2  0
 25 24  1  6
 24 22  1  0
 25 27  1  0
 25 26  1  0
 27 28  1  0
 29 27  2  0
M  END
$$$$
