ERN.pdb
     RDKit          3D

 29 28  0  0  1  0  0  0  0  0999 V2000
   25.5391  -17.3330  -18.7404 N   0  0  0  0  0  0  0  0  0  0  0  0
   24.6910  -16.8339  -17.6089 C   0  0  1  0  0  0  0  0  0  0  0  0
   23.6244  -16.0406  -18.2639 C   0  0  0  0  0  0  0  0  0  0  0  0
   23.8415  -15.6479  -19.6891 C   0  0  0  0  0  0  0  0  0  0  0  0
   22.6570  -15.7752  -20.5560 C   0  0  0  0  0  0  0  0  0  0  0  0
   22.5405  -16.7794  -21.2942 O   0  0  0  0  0  0  0  0  0  0  0  0
   24.2874  -18.0466  -16.9073 C   0  0  0  0  0  0  0  0  0  0  0  0
   23.7938  -19.0733  -17.4369 O   0  0  0  0  0  0  0  0  0  0  0  0
   21.6780  -14.8182  -20.5731 O   0  0  0  0  0  0  0  0  0  0  0  0
   29.3622  -21.3585  -12.0694 N   0  0  0  0  0  0  0  0  0  0  0  0
   28.1889  -21.3042  -11.2648 C   0  0  0  0  0  0  0  0  0  0  0  0
   28.3161  -21.1572  -10.0065 N   0  0  0  0  0  0  0  0  0  0  0  0
   26.9374  -21.4174  -11.9093 N   0  0  0  0  0  0  0  0  0  0  0  0
   26.8553  -21.3090  -13.3669 C   0  0  0  0  0  0  0  0  0  0  0  0
   26.4600  -19.9354  -13.7505 C   0  0  0  0  0  0  0  0  0  0  0  0
   25.0597  -19.5031  -13.5547 C   0  0  0  0  0  0  0  0  0  0  0  0
   24.1744  -19.2931  -14.7402 C   0  0  2  0  0  0  0  0  0  0  0  0
   24.4575  -18.1086  -15.4826 N   0  0  0  0  0  0  0  0  0  0  0  0
   22.7393  -19.3125  -14.3536 C   0  0  0  0  0  0  0  0  0  0  0  0
   22.2599  -18.4270  -13.6005 O   0  0  0  0  0  0  0  0  0  0  0  0
   27.5072  -21.0957   -9.3681 N   0  0  0  0  0  0  0  0  0  0  0  0
   17.6671  -20.4710  -14.0993 C   0  0  0  0  0  0  0  0  0  0  0  0
   18.2291  -20.9920  -15.3227 O   0  0  0  0  0  0  0  0  0  0  0  0
   17.4461  -21.5037  -16.1466 C   0  0  0  0  0  0  0  0  0  0  0  0
   19.6775  -20.9086  -15.5619 C   0  0  1  0  0  0  0  0  0  0  0  0
   20.4383  -20.3651  -14.3883 N   0  0  0  0  0  0  0  0  0  0  0  0
   21.8521  -20.3199  -14.8109 C   0  0  0  0  0  0  0  0  0  0  0  0
   20.2815  -21.0855  -13.1359 O   0  0  0  0  0  0  0  0  0  0  0  0
   19.3370  -20.8389  -12.1729 O   0  0  0  0  0  0  0  0  0  0  0  0
  2  1  1  6
  2  3  1  0
  3  4  1  0
  5  4  1  0
  5  9  1  0
  6  5  2  0
  7 18  1  0
  7  2  1  0
  8  7  2  0
 11 10  1  0
 11 13  1  0
 12 11  2  0
 13 14  1  0
 15 14  1  0
 17 16  1  1
 16 15  1  0
 17 18  1  0
 19 26  1  0
 19 17  1  0
 20 19  2  0
 22 21  1  0
 22 23  2  0
 25 24  1  6
 24 22  1  0
 25 27  1  0
 25 26  1  0
 27 28  1  0
 29 27  2  0
M  END
$$$$
