NPD.pdb
     RDKit          3D

 24 24  0  0  1  0  0  0  0  0999 V2000
    8.6982  -17.4909   28.1904 N   0  0  0  0  0  0  0  0  0  0  0  0
    9.3858  -16.6725   27.2642 C   0  0  0  0  0  0  0  0  0  0  0  0
   10.1318  -15.7477   27.6616 O   0  0  0  0  0  0  0  0  0  0  0  0
    9.2392  -16.8904   25.8102 C   0  0  0  0  0  0  0  0  0  0  0  0
    7.7757  -16.7328   25.3971 C   0  0  2  0  0  0  0  0  0  0  0  0
    7.0267  -17.8221   26.0244 N   0  0  0  0  0  0  0  0  0  0  0  0
    7.6806  -16.9402   23.9100 C   0  0  0  0  0  0  0  0  0  0  0  0
    7.7690  -18.1452   23.5441 O   0  0  0  0  0  0  0  0  0  0  0  0
    7.5092  -15.8453   23.0764 N   0  0  0  0  0  0  0  0  0  0  0  0
    6.7336  -14.6486   23.4529 C   0  0  0  0  0  0  0  0  0  0  0  0
    7.7330  -13.5705   23.0849 C   0  0  0  0  0  0  0  0  0  0  0  0
    8.6483  -14.1931   22.0523 C   0  0  0  0  0  0  0  0  0  0  0  0
    7.9072  -15.5352   21.7597 C   0  0  1  0  0  0  0  0  0  0  0  0
    8.7521  -16.4207   21.0024 C   0  0  0  0  0  0  0  0  0  0  0  0
    8.6569  -16.6225   19.7903 O   0  0  0  0  0  0  0  0  0  0  0  0
    9.7952  -17.1357   21.6953 N   0  0  0  0  0  0  0  0  0  0  0  0
   10.8564  -17.7661   20.9215 C   0  0  1  0  0  0  0  0  0  0  0  0
   11.5701  -16.7345   20.1152 C   0  0  0  0  0  0  0  0  0  0  0  0
   12.6465  -17.3954   19.3438 C   0  0  0  0  0  0  0  0  0  0  0  0
   12.5074  -18.6011   19.0363 O   0  0  0  0  0  0  0  0  0  0  0  0
   11.8229  -18.4361   21.8317 C   0  0  0  0  0  0  0  0  0  0  0  0
   12.7700  -19.3123   21.3383 O   0  0  0  0  0  0  0  0  0  0  0  0
   13.7859  -16.7314   18.9582 O   0  0  0  0  0  0  0  0  0  0  0  0
   11.8091  -18.2287   23.0689 O   0  0  0  0  0  0  0  0  0  0  0  0
  2  3  2  0
  2  1  1  0
  4  2  1  0
  5  7  1  0
  5  4  1  0
  5  6  1  1
  7  8  2  0
  9 13  1  0
  9  7  1  0
 10  9  1  0
 11 10  1  0
 11 12  1  0
 12 13  1  0
 13 14  1  1
 14 15  2  0
 14 16  1  0
 16 17  1  0
 17 21  1  0
 17 18  1  1
 19 18  1  0
 20 19  2  0
 21 24  2  0
 21 22  1  0
 23 19  1  0
M  END
$$$$
