NPD.pdb
     RDKit          3D

 24 24  0  0  1  0  0  0  0  0999 V2000
   11.0418  -17.8320   14.5362 N   0  0  0  0  0  0  0  0  0  0  0  0
   10.4582  -16.5436   14.5393 C   0  0  0  0  0  0  0  0  0  0  0  0
    9.7980  -16.1405   13.5538 O   0  0  0  0  0  0  0  0  0  0  0  0
   10.6145  -15.6470   15.7032 C   0  0  0  0  0  0  0  0  0  0  0  0
    9.4835  -15.8798   16.7052 C   0  0  2  0  0  0  0  0  0  0  0  0
    8.3144  -15.1457   16.2201 N   0  0  0  0  0  0  0  0  0  0  0  0
    9.8775  -15.2528   18.0149 C   0  0  0  0  0  0  0  0  0  0  0  0
   10.8793  -15.7853   18.5684 O   0  0  0  0  0  0  0  0  0  0  0  0
    9.1489  -14.1798   18.5059 N   0  0  0  0  0  0  0  0  0  0  0  0
    8.4850  -13.1837   17.6442 C   0  0  0  0  0  0  0  0  0  0  0  0
    7.1061  -13.1813   18.2728 C   0  0  0  0  0  0  0  0  0  0  0  0
    7.2988  -13.6782   19.6897 C   0  0  0  0  0  0  0  0  0  0  0  0
    8.8559  -13.6938   19.7967 C   0  0  1  0  0  0  0  0  0  0  0  0
    9.2710  -14.4029   20.9782 C   0  0  0  0  0  0  0  0  0  0  0  0
    8.5254  -14.7312   21.9031 O   0  0  0  0  0  0  0  0  0  0  0  0
   10.6603  -14.7660   21.1099 N   0  0  0  0  0  0  0  0  0  0  0  0
   11.0608  -15.6540   22.1931 C   0  0  1  0  0  0  0  0  0  0  0  0
   10.2962  -16.9311   22.1038 C   0  0  0  0  0  0  0  0  0  0  0  0
   10.7478  -17.8319   23.1878 C   0  0  0  0  0  0  0  0  0  0  0  0
   11.5774  -17.3977   24.0189 O   0  0  0  0  0  0  0  0  0  0  0  0
   12.5167  -15.9436   22.1039 C   0  0  0  0  0  0  0  0  0  0  0  0
   13.1629  -15.9563   20.8831 O   0  0  0  0  0  0  0  0  0  0  0  0
   10.2880  -19.1211   23.3089 O   0  0  0  0  0  0  0  0  0  0  0  0
   13.2003  -16.1845   23.1279 O   0  0  0  0  0  0  0  0  0  0  0  0
  2  3  2  0
  2  1  1  0
  4  2  1  0
  5  7  1  0
  5  4  1  0
  5  6  1  6
  7  8  2  0
  9 13  1  0
  9  7  1  0
 10  9  1  0
 11 10  1  0
 11 12  1  0
 12 13  1  0
 13 14  1  1
 14 15  2  0
 14 16  1  0
 16 17  1  0
 17 21  1  0
 17 18  1  6
 19 18  1  0
 20 19  2  0
 21 24  2  0
 21 22  1  0
 23 19  1  0
M  END
$$$$
