NPD.pdb
     RDKit          3D

 24 24  0  0  1  0  0  0  0  0999 V2000
    6.9615  -18.0702   15.5131 N   0  0  0  0  0  0  0  0  0  0  0  0
    6.4235  -18.3136   16.7984 C   0  0  0  0  0  0  0  0  0  0  0  0
    5.6630  -19.2893   16.9969 O   0  0  0  0  0  0  0  0  0  0  0  0
    6.7466  -17.4237   17.9328 C   0  0  0  0  0  0  0  0  0  0  0  0
    7.7297  -16.3397   17.4906 C   0  0  2  0  0  0  0  0  0  0  0  0
    8.4869  -16.8744   16.3584 N   0  0  0  0  0  0  0  0  0  0  0  0
    8.7154  -16.1142   18.6047 C   0  0  0  0  0  0  0  0  0  0  0  0
    9.5343  -17.0594   18.7767 O   0  0  0  0  0  0  0  0  0  0  0  0
    8.6632  -14.9372   19.3361 N   0  0  0  0  0  0  0  0  0  0  0  0
    8.4196  -13.6136   18.7326 C   0  0  0  0  0  0  0  0  0  0  0  0
    7.3210  -13.1137   19.6490 C   0  0  0  0  0  0  0  0  0  0  0  0
    7.4766  -13.8897   20.9394 C   0  0  0  0  0  0  0  0  0  0  0  0
    8.8389  -14.6120   20.6969 C   0  0  1  0  0  0  0  0  0  0  0  0
    9.0512  -15.6307   21.6910 C   0  0  0  0  0  0  0  0  0  0  0  0
    8.1878  -16.4099   22.0991 O   0  0  0  0  0  0  0  0  0  0  0  0
   10.3664  -15.7667   22.2663 N   0  0  0  0  0  0  0  0  0  0  0  0
   10.6131  -16.8353   23.2252 C   0  0  1  0  0  0  0  0  0  0  0  0
   11.7816  -17.6484   22.7810 C   0  0  0  0  0  0  0  0  0  0  0  0
   12.0003  -18.7388   23.7574 C   0  0  0  0  0  0  0  0  0  0  0  0
   11.1291  -18.9398   24.6339 O   0  0  0  0  0  0  0  0  0  0  0  0
   10.8938  -16.2615   24.5681 C   0  0  0  0  0  0  0  0  0  0  0  0
   10.6611  -16.9956   25.7149 O   0  0  0  0  0  0  0  0  0  0  0  0
   13.1225  -19.5314   23.7321 O   0  0  0  0  0  0  0  0  0  0  0  0
   11.3477  -15.0995   24.7019 O   0  0  0  0  0  0  0  0  0  0  0  0
  2  3  2  0
  2  1  1  0
  4  2  1  0
  5  7  1  0
  5  4  1  0
  5  6  1  6
  7  8  2  0
  9 13  1  0
  9  7  1  0
 10  9  1  0
 11 10  1  0
 11 12  1  0
 12 13  1  0
 13 14  1  1
 14 15  2  0
 14 16  1  0
 16 17  1  0
 17 21  1  0
 17 18  1  6
 19 18  1  0
 20 19  2  0
 21 24  2  0
 21 22  1  0
 23 19  1  0
M  END
$$$$
