NPD.pdb
     RDKit          3D

 24 24  0  0  1  0  0  0  0  0999 V2000
    6.7809  -17.7961   15.6514 N   0  0  0  0  0  0  0  0  0  0  0  0
    8.1930  -17.8539   15.5954 C   0  0  0  0  0  0  0  0  0  0  0  0
    8.7707  -18.4036   14.6292 O   0  0  0  0  0  0  0  0  0  0  0  0
    9.0157  -17.2679   16.6737 C   0  0  0  0  0  0  0  0  0  0  0  0
    8.9548  -15.7414   16.6147 C   0  0  2  0  0  0  0  0  0  0  0  0
    9.6609  -15.3242   15.4030 N   0  0  0  0  0  0  0  0  0  0  0  0
    9.7316  -15.1932   17.7808 C   0  0  0  0  0  0  0  0  0  0  0  0
   10.8763  -15.7035   17.9320 O   0  0  0  0  0  0  0  0  0  0  0  0
    9.1664  -14.2080   18.5764 N   0  0  0  0  0  0  0  0  0  0  0  0
    8.4541  -13.0345   18.0369 C   0  0  0  0  0  0  0  0  0  0  0  0
    7.1903  -13.0975   18.8708 C   0  0  0  0  0  0  0  0  0  0  0  0
    7.5587  -13.8713   20.1186 C   0  0  0  0  0  0  0  0  0  0  0  0
    9.1087  -13.9737   19.9657 C   0  0  1  0  0  0  0  0  0  0  0  0
    9.6451  -14.9185   20.9095 C   0  0  0  0  0  0  0  0  0  0  0  0
    9.2720  -16.0871   21.0283 O   0  0  0  0  0  0  0  0  0  0  0  0
   10.6996  -14.4852   21.7926 N   0  0  0  0  0  0  0  0  0  0  0  0
   11.2319  -15.4219   22.7732 C   0  0  1  0  0  0  0  0  0  0  0  0
   10.1085  -16.0753   23.5045 C   0  0  0  0  0  0  0  0  0  0  0  0
   10.6723  -16.9678   24.5419 C   0  0  0  0  0  0  0  0  0  0  0  0
   11.6633  -16.5717   25.1965 O   0  0  0  0  0  0  0  0  0  0  0  0
   12.0495  -16.4621   22.0942 C   0  0  0  0  0  0  0  0  0  0  0  0
   13.1795  -16.9799   22.6968 O   0  0  0  0  0  0  0  0  0  0  0  0
   10.1456  -18.2091   24.8062 O   0  0  0  0  0  0  0  0  0  0  0  0
   11.7414  -16.8997   20.9596 O   0  0  0  0  0  0  0  0  0  0  0  0
  2  3  2  0
  2  1  1  0
  4  2  1  0
  5  7  1  0
  5  4  1  0
  5  6  1  6
  7  8  2  0
  9 13  1  0
  9  7  1  0
 10  9  1  0
 11 10  1  0
 11 12  1  0
 12 13  1  0
 13 14  1  1
 14 15  2  0
 14 16  1  0
 16 17  1  0
 17 21  1  0
 17 18  1  6
 19 18  1  0
 20 19  2  0
 21 24  2  0
 21 22  1  0
 23 19  1  0
M  END
$$$$
