NPD.pdb
     RDKit          3D

 24 24  0  0  1  0  0  0  0  0999 V2000
    8.4247  -15.6560   13.8460 N   0  0  0  0  0  0  0  0  0  0  0  0
    7.7433  -16.3633   14.8637 C   0  0  0  0  0  0  0  0  0  0  0  0
    6.7989  -17.1362   14.5802 O   0  0  0  0  0  0  0  0  0  0  0  0
    8.1302  -16.2061   16.2810 C   0  0  0  0  0  0  0  0  0  0  0  0
    9.0801  -15.0189   16.4409 C   0  0  2  0  0  0  0  0  0  0  0  0
   10.2171  -15.2481   15.5488 N   0  0  0  0  0  0  0  0  0  0  0  0
    9.6200  -15.0329   17.8452 C   0  0  0  0  0  0  0  0  0  0  0  0
   10.5523  -15.8619   18.0380 O   0  0  0  0  0  0  0  0  0  0  0  0
    9.0839  -14.1737   18.7925 N   0  0  0  0  0  0  0  0  0  0  0  0
    8.6998  -12.7795   18.5026 C   0  0  0  0  0  0  0  0  0  0  0  0
    7.3047  -12.7709   19.0945 C   0  0  0  0  0  0  0  0  0  0  0  0
    7.2851  -13.8859   20.1181 C   0  0  0  0  0  0  0  0  0  0  0  0
    8.7950  -14.2781   20.1687 C   0  0  1  0  0  0  0  0  0  0  0  0
    8.9685  -15.5168   20.8805 C   0  0  0  0  0  0  0  0  0  0  0  0
    8.6293  -16.6253   20.4619 O   0  0  0  0  0  0  0  0  0  0  0  0
    9.5836  -15.4804   22.1843 N   0  0  0  0  0  0  0  0  0  0  0  0
   10.1374  -16.7076   22.7407 C   0  0  1  0  0  0  0  0  0  0  0  0
   11.2547  -17.1899   21.8789 C   0  0  0  0  0  0  0  0  0  0  0  0
   11.8151  -18.4237   22.4740 C   0  0  0  0  0  0  0  0  0  0  0  0
   11.0324  -19.3580   22.7604 O   0  0  0  0  0  0  0  0  0  0  0  0
   10.6468  -16.4602   24.1158 C   0  0  0  0  0  0  0  0  0  0  0  0
   10.3695  -17.3411   25.1431 O   0  0  0  0  0  0  0  0  0  0  0  0
   13.1585  -18.5740   22.7206 O   0  0  0  0  0  0  0  0  0  0  0  0
   11.3401  -15.4499   24.3853 O   0  0  0  0  0  0  0  0  0  0  0  0
  2  3  2  0
  2  1  1  0
  4  2  1  0
  5  7  1  0
  5  4  1  0
  5  6  1  6
  7  8  2  0
  9 13  1  0
  9  7  1  0
 10  9  1  0
 11 10  1  0
 11 12  1  0
 12 13  1  0
 13 14  1  6
 14 15  2  0
 14 16  1  0
 16 17  1  0
 17 21  1  0
 17 18  1  6
 19 18  1  0
 20 19  2  0
 21 24  2  0
 21 22  1  0
 23 19  1  0
M  END
$$$$
