NPD.pdb
     RDKit          3D

 24 24  0  0  1  0  0  0  0  0999 V2000
    8.3491  -17.9848   13.9618 N   0  0  0  0  0  0  0  0  0  0  0  0
    7.7997  -17.0447   14.8645 C   0  0  0  0  0  0  0  0  0  0  0  0
    6.7179  -16.4686   14.6050 O   0  0  0  0  0  0  0  0  0  0  0  0
    8.4889  -16.7225   16.1311 C   0  0  0  0  0  0  0  0  0  0  0  0
    8.9055  -15.2516   16.1466 C   0  0  2  0  0  0  0  0  0  0  0  0
    9.8714  -15.0614   15.0641 N   0  0  0  0  0  0  0  0  0  0  0  0
    9.6368  -14.9823   17.4336 C   0  0  0  0  0  0  0  0  0  0  0  0
   10.7677  -15.5370   17.5177 O   0  0  0  0  0  0  0  0  0  0  0  0
    9.0488  -14.1789   18.3990 N   0  0  0  0  0  0  0  0  0  0  0  0
    8.3256  -12.9312   18.0900 C   0  0  0  0  0  0  0  0  0  0  0  0
    7.0539  -13.1714   18.8784 C   0  0  0  0  0  0  0  0  0  0  0  0
    7.4199  -14.1701   19.9555 C   0  0  0  0  0  0  0  0  0  0  0  0
    8.9728  -14.2218   19.8064 C   0  0  1  0  0  0  0  0  0  0  0  0
    9.5126  -15.3267   20.5542 C   0  0  0  0  0  0  0  0  0  0  0  0
    9.2416  -16.5126   20.3565 O   0  0  0  0  0  0  0  0  0  0  0  0
   10.4425  -15.0467   21.6201 N   0  0  0  0  0  0  0  0  0  0  0  0
   11.0244  -16.1569   22.3624 C   0  0  1  0  0  0  0  0  0  0  0  0
   12.3914  -15.7868   22.8294 C   0  0  0  0  0  0  0  0  0  0  0  0
   13.0126  -16.9698   23.4658 C   0  0  0  0  0  0  0  0  0  0  0  0
   13.0533  -17.0235   24.7160 O   0  0  0  0  0  0  0  0  0  0  0  0
   10.1745  -16.4868   23.5373 C   0  0  0  0  0  0  0  0  0  0  0  0
   10.2407  -17.7317   24.1322 O   0  0  0  0  0  0  0  0  0  0  0  0
   13.5427  -18.0035   22.7319 O   0  0  0  0  0  0  0  0  0  0  0  0
    9.3751  -15.6505   24.0225 O   0  0  0  0  0  0  0  0  0  0  0  0
  2  3  2  0
  2  1  1  0
  4  2  1  0
  5  7  1  0
  5  4  1  0
  5  6  1  6
  7  8  2  0
  9 13  1  0
  9  7  1  0
 10  9  1  0
 11 10  1  0
 11 12  1  0
 12 13  1  0
 13 14  1  6
 14 15  2  0
 14 16  1  0
 16 17  1  0
 17 21  1  0
 17 18  1  1
 19 18  1  0
 20 19  2  0
 21 24  2  0
 21 22  1  0
 23 19  1  0
M  END
$$$$
