NPD.pdb
     RDKit          3D

 24 24  0  0  1  0  0  0  0  0999 V2000
    8.2605  -18.1522   14.7222 N   0  0  0  0  0  0  0  0  0  0  0  0
    7.6394  -17.2801   15.6464 C   0  0  0  0  0  0  0  0  0  0  0  0
    6.4686  -16.8772   15.4551 O   0  0  0  0  0  0  0  0  0  0  0  0
    8.3570  -16.8264   16.8557 C   0  0  0  0  0  0  0  0  0  0  0  0
    8.9322  -15.4271   16.6350 C   0  0  2  0  0  0  0  0  0  0  0  0
    9.9231  -15.5280   15.5631 N   0  0  0  0  0  0  0  0  0  0  0  0
    9.6766  -15.0219   17.8781 C   0  0  0  0  0  0  0  0  0  0  0  0
   10.8438  -15.4948   17.9653 O   0  0  0  0  0  0  0  0  0  0  0  0
    9.0611  -14.1932   18.8041 N   0  0  0  0  0  0  0  0  0  0  0  0
    8.4084  -12.9190   18.4495 C   0  0  0  0  0  0  0  0  0  0  0  0
    7.0812  -13.1068   19.1565 C   0  0  0  0  0  0  0  0  0  0  0  0
    7.3393  -14.1158   20.2550 C   0  0  0  0  0  0  0  0  0  0  0  0
    8.8952  -14.2288   20.2039 C   0  0  1  0  0  0  0  0  0  0  0  0
    9.3431  -15.3517   20.9848 C   0  0  0  0  0  0  0  0  0  0  0  0
    8.9230  -16.5046   20.8692 O   0  0  0  0  0  0  0  0  0  0  0  0
   10.3596  -15.1328   21.9839 N   0  0  0  0  0  0  0  0  0  0  0  0
   10.8396  -16.2643   22.7659 C   0  0  1  0  0  0  0  0  0  0  0  0
   12.3104  -16.1403   22.9777 C   0  0  0  0  0  0  0  0  0  0  0  0
   12.7958  -17.3578   23.6651 C   0  0  0  0  0  0  0  0  0  0  0  0
   12.1995  -18.4389   23.4577 O   0  0  0  0  0  0  0  0  0  0  0  0
   10.1530  -16.3015   24.0845 C   0  0  0  0  0  0  0  0  0  0  0  0
    9.2771  -15.2999   24.4556 O   0  0  0  0  0  0  0  0  0  0  0  0
   13.8727  -17.3379   24.5184 O   0  0  0  0  0  0  0  0  0  0  0  0
   10.3461  -17.2377   24.8971 O   0  0  0  0  0  0  0  0  0  0  0  0
  2  3  2  0
  2  1  1  0
  4  2  1  0
  5  7  1  0
  5  4  1  0
  5  6  1  6
  7  8  2  0
  9 13  1  0
  9  7  1  0
 10  9  1  0
 11 10  1  0
 11 12  1  0
 12 13  1  0
 13 14  1  6
 14 15  2  0
 14 16  1  0
 16 17  1  0
 17 21  1  0
 17 18  1  1
 19 18  1  0
 20 19  2  0
 21 24  2  0
 21 22  1  0
 23 19  1  0
M  END
$$$$
