NPD.pdb
     RDKit          3D

 24 24  0  0  1  0  0  0  0  0999 V2000
    9.8990  -15.2957   12.7707 N   0  0  0  0  0  0  0  0  0  0  0  0
    9.4453  -16.0019   13.9091 C   0  0  0  0  0  0  0  0  0  0  0  0
    8.6197  -16.9370   13.7921 O   0  0  0  0  0  0  0  0  0  0  0  0
    9.9345  -15.6523   15.2588 C   0  0  0  0  0  0  0  0  0  0  0  0
    8.7743  -15.6384   16.2542 C   0  0  2  0  0  0  0  0  0  0  0  0
    8.0166  -14.4084   16.0223 N   0  0  0  0  0  0  0  0  0  0  0  0
    9.3456  -15.5415   17.6427 C   0  0  0  0  0  0  0  0  0  0  0  0
   10.1434  -16.4718   17.9453 O   0  0  0  0  0  0  0  0  0  0  0  0
    8.9763  -14.4852   18.4618 N   0  0  0  0  0  0  0  0  0  0  0  0
    8.5584  -13.1661   17.9511 C   0  0  0  0  0  0  0  0  0  0  0  0
    7.2786  -12.9804   18.7412 C   0  0  0  0  0  0  0  0  0  0  0  0
    7.4197  -13.8594   19.9655 C   0  0  0  0  0  0  0  0  0  0  0  0
    8.9152  -14.2928   19.8574 C   0  0  1  0  0  0  0  0  0  0  0  0
    9.1952  -15.3646   20.7761 C   0  0  0  0  0  0  0  0  0  0  0  0
    8.4796  -16.3535   20.9465 O   0  0  0  0  0  0  0  0  0  0  0  0
   10.3990  -15.2957   21.5670 N   0  0  0  0  0  0  0  0  0  0  0  0
   10.9634  -16.5255   22.1066 C   0  0  1  0  0  0  0  0  0  0  0  0
   12.2736  -16.8059   21.4520 C   0  0  0  0  0  0  0  0  0  0  0  0
   12.8340  -18.0503   22.0245 C   0  0  0  0  0  0  0  0  0  0  0  0
   12.0420  -18.9321   22.4278 O   0  0  0  0  0  0  0  0  0  0  0  0
   11.1637  -16.3943   23.5744 C   0  0  0  0  0  0  0  0  0  0  0  0
   10.8487  -15.2200   24.2301 O   0  0  0  0  0  0  0  0  0  0  0  0
   14.1872  -18.2658   22.1267 O   0  0  0  0  0  0  0  0  0  0  0  0
   11.6225  -17.3397   24.2597 O   0  0  0  0  0  0  0  0  0  0  0  0
  2  3  2  0
  2  1  1  0
  4  2  1  0
  5  7  1  0
  5  4  1  0
  5  6  1  6
  7  8  2  0
  9 13  1  0
  9  7  1  0
 10  9  1  0
 11 10  1  0
 11 12  1  0
 12 13  1  0
 13 14  1  1
 14 15  2  0
 14 16  1  0
 16 17  1  0
 17 21  1  0
 17 18  1  6
 19 18  1  0
 20 19  2  0
 21 24  2  0
 21 22  1  0
 23 19  1  0
M  END
$$$$
