NPD.pdb
     RDKit          3D

 24 24  0  0  1  0  0  0  0  0999 V2000
    7.3368  -18.5452   15.0272 N   0  0  0  0  0  0  0  0  0  0  0  0
    7.3346  -17.1703   15.3588 C   0  0  0  0  0  0  0  0  0  0  0  0
    6.8985  -16.3198   14.5487 O   0  0  0  0  0  0  0  0  0  0  0  0
    7.8459  -16.7082   16.6657 C   0  0  0  0  0  0  0  0  0  0  0  0
    8.6625  -15.4275   16.4909 C   0  0  2  0  0  0  0  0  0  0  0  0
    9.5926  -15.6522   15.3839 N   0  0  0  0  0  0  0  0  0  0  0  0
    9.4976  -15.2285   17.7264 C   0  0  0  0  0  0  0  0  0  0  0  0
   10.5028  -15.9880   17.8053 O   0  0  0  0  0  0  0  0  0  0  0  0
    9.1265  -14.2677   18.6550 N   0  0  0  0  0  0  0  0  0  0  0  0
    8.7629  -12.8844   18.2948 C   0  0  0  0  0  0  0  0  0  0  0  0
    7.4603  -12.7559   19.0584 C   0  0  0  0  0  0  0  0  0  0  0  0
    7.5325  -13.7801   20.1707 C   0  0  0  0  0  0  0  0  0  0  0  0
    9.0190  -14.2432   20.0608 C   0  0  1  0  0  0  0  0  0  0  0  0
    9.2363  -15.4261   20.8512 C   0  0  0  0  0  0  0  0  0  0  0  0
    8.5846  -16.4679   20.7568 O   0  0  0  0  0  0  0  0  0  0  0  0
   10.2913  -15.4122   21.8342 N   0  0  0  0  0  0  0  0  0  0  0  0
   10.7357  -16.6725   22.4142 C   0  0  1  0  0  0  0  0  0  0  0  0
   11.3311  -17.5321   21.3510 C   0  0  0  0  0  0  0  0  0  0  0  0
   11.7939  -18.7962   21.9659 C   0  0  0  0  0  0  0  0  0  0  0  0
   10.9762  -19.4715   22.6314 O   0  0  0  0  0  0  0  0  0  0  0  0
   11.7521  -16.4185   23.4696 C   0  0  0  0  0  0  0  0  0  0  0  0
   11.7914  -17.1892   24.6153 O   0  0  0  0  0  0  0  0  0  0  0  0
   13.0845  -19.2480   21.8304 O   0  0  0  0  0  0  0  0  0  0  0  0
   12.6008  -15.5018   23.3543 O   0  0  0  0  0  0  0  0  0  0  0  0
  2  3  2  0
  2  1  1  0
  4  2  1  0
  5  7  1  0
  5  4  1  0
  5  6  1  6
  7  8  2  0
  9 13  1  0
  9  7  1  0
 10  9  1  0
 11 10  1  0
 11 12  1  0
 12 13  1  0
 13 14  1  6
 14 15  2  0
 14 16  1  0
 16 17  1  0
 17 21  1  0
 17 18  1  6
 19 18  1  0
 20 19  2  0
 21 24  2  0
 21 22  1  0
 23 19  1  0
M  END
$$$$
