NPD.pdb
     RDKit          3D

 24 24  0  0  1  0  0  0  0  0999 V2000
    7.7562  -19.4566   16.1539 N   0  0  0  0  0  0  0  0  0  0  0  0
    7.2146  -18.2559   16.6691 C   0  0  0  0  0  0  0  0  0  0  0  0
    6.2707  -17.6785   16.0815 O   0  0  0  0  0  0  0  0  0  0  0  0
    7.7497  -17.6577   17.9097 C   0  0  0  0  0  0  0  0  0  0  0  0
    8.5619  -16.4040   17.5842 C   0  0  2  0  0  0  0  0  0  0  0  0
    9.6070  -16.7960   16.6380 N   0  0  0  0  0  0  0  0  0  0  0  0
    9.2589  -15.9547   18.8396 C   0  0  0  0  0  0  0  0  0  0  0  0
   10.1977  -16.7105   19.2148 O   0  0  0  0  0  0  0  0  0  0  0  0
    8.8444  -14.7930   19.4733 N   0  0  0  0  0  0  0  0  0  0  0  0
    8.5915  -13.5244   18.7646 C   0  0  0  0  0  0  0  0  0  0  0  0
    7.2256  -13.1859   19.3270 C   0  0  0  0  0  0  0  0  0  0  0  0
    7.1304  -13.9208   20.6470 C   0  0  0  0  0  0  0  0  0  0  0  0
    8.5945  -14.4353   20.8142 C   0  0  1  0  0  0  0  0  0  0  0  0
    8.6682  -15.4040   21.8760 C   0  0  0  0  0  0  0  0  0  0  0  0
    7.8016  -16.2437   22.1271 O   0  0  0  0  0  0  0  0  0  0  0  0
    9.8359  -15.4095   22.7221 N   0  0  0  0  0  0  0  0  0  0  0  0
   10.1973  -16.6346   23.4226 C   0  0  1  0  0  0  0  0  0  0  0  0
   10.5473  -17.6939   22.4331 C   0  0  0  0  0  0  0  0  0  0  0  0
   10.9878  -18.9018   23.1661 C   0  0  0  0  0  0  0  0  0  0  0  0
   10.1160  -19.6491   23.6651 O   0  0  0  0  0  0  0  0  0  0  0  0
   11.3619  -16.3884   24.3140 C   0  0  0  0  0  0  0  0  0  0  0  0
   11.4474  -16.9956   25.5518 O   0  0  0  0  0  0  0  0  0  0  0  0
   12.3148  -19.2257   23.3153 O   0  0  0  0  0  0  0  0  0  0  0  0
   12.2980  -15.6260   23.9727 O   0  0  0  0  0  0  0  0  0  0  0  0
  2  3  2  0
  2  1  1  0
  4  2  1  0
  5  7  1  0
  5  4  1  0
  5  6  1  6
  7  8  2  0
  9 13  1  0
  9  7  1  0
 10  9  1  0
 11 10  1  0
 11 12  1  0
 12 13  1  0
 13 14  1  1
 14 15  2  0
 14 16  1  0
 16 17  1  0
 17 21  1  0
 17 18  1  6
 19 18  1  0
 20 19  2  0
 21 24  2  0
 21 22  1  0
 23 19  1  0
M  END
$$$$
