NPD.pdb
     RDKit          3D

 24 24  0  0  1  0  0  0  0  0999 V2000
    9.4018  -16.9804   16.0747 N   0  0  0  0  0  0  0  0  0  0  0  0
    8.0474  -17.0813   16.4695 C   0  0  0  0  0  0  0  0  0  0  0  0
    7.4503  -18.1817   16.4240 O   0  0  0  0  0  0  0  0  0  0  0  0
    7.3088  -15.8925   16.9432 C   0  0  0  0  0  0  0  0  0  0  0  0
    8.2285  -14.6714   16.9612 C   0  0  2  0  0  0  0  0  0  0  0  0
    9.1478  -14.8023   15.8303 N   0  0  0  0  0  0  0  0  0  0  0  0
    9.0652  -14.7298   18.2103 C   0  0  0  0  0  0  0  0  0  0  0  0
   10.0642  -15.4978   18.1343 O   0  0  0  0  0  0  0  0  0  0  0  0
    8.7022  -13.9707   19.3126 N   0  0  0  0  0  0  0  0  0  0  0  0
    8.2553  -12.5678   19.2239 C   0  0  0  0  0  0  0  0  0  0  0  0
    6.9925  -12.6491   20.0577 C   0  0  0  0  0  0  0  0  0  0  0  0
    7.1739  -13.8484   20.9635 C   0  0  0  0  0  0  0  0  0  0  0  0
    8.6719  -14.2014   20.7033 C   0  0  1  0  0  0  0  0  0  0  0  0
    8.9873  -15.4916   21.2574 C   0  0  0  0  0  0  0  0  0  0  0  0
    8.4195  -16.5449   20.9622 O   0  0  0  0  0  0  0  0  0  0  0  0
   10.0445  -15.5808   22.2341 N   0  0  0  0  0  0  0  0  0  0  0  0
   10.4831  -16.8947   22.6853 C   0  0  1  0  0  0  0  0  0  0  0  0
   11.0238  -17.6673   21.5302 C   0  0  0  0  0  0  0  0  0  0  0  0
   11.4633  -18.9961   22.0114 C   0  0  0  0  0  0  0  0  0  0  0  0
   11.1841  -19.3287   23.1857 O   0  0  0  0  0  0  0  0  0  0  0  0
   11.5405  -16.7520   23.7212 C   0  0  0  0  0  0  0  0  0  0  0  0
   12.5295  -15.7957   23.5969 O   0  0  0  0  0  0  0  0  0  0  0  0
   12.1638  -19.8695   21.2148 O   0  0  0  0  0  0  0  0  0  0  0  0
   11.5682  -17.4910   24.7347 O   0  0  0  0  0  0  0  0  0  0  0  0
  2  3  2  0
  2  1  1  0
  4  2  1  0
  5  7  1  0
  5  4  1  0
  5  6  1  6
  7  8  2  0
  9 13  1  0
  9  7  1  0
 10  9  1  0
 11 10  1  0
 11 12  1  0
 12 13  1  0
 13 14  1  6
 14 15  2  0
 14 16  1  0
 16 17  1  0
 17 21  1  0
 17 18  1  6
 19 18  1  0
 20 19  2  0
 21 24  2  0
 21 22  1  0
 23 19  1  0
M  END
$$$$
