GFL.pdb
     RDKit          3D

 24 24  0  0  1  0  0  0  0  0999 V2000
    4.3381  -20.2644   22.5232 N   0  0  0  0  0  0  0  0  0  0  0  0
    5.1279  -19.9524   23.6749 C   0  0  0  0  0  0  0  0  0  0  0  0
    5.5011  -18.4950   23.7128 C   0  0  0  0  0  0  0  0  0  0  0  0
    5.2495  -17.7371   22.7439 O   0  0  0  0  0  0  0  0  0  0  0  0
    6.1481  -17.9305   24.8421 N   0  0  0  0  0  0  0  0  0  0  0  0
    6.7188  -16.6405   24.9623 C   0  0  1  0  0  0  0  0  0  0  0  0
    6.8176  -16.1648   26.3958 C   0  0  0  0  0  0  0  0  0  0  0  0
    6.9929  -14.6967   26.5201 C   0  0  0  0  0  0  0  0  0  0  0  0
    5.8703  -13.8514   26.4505 C   0  0  0  0  0  0  0  0  0  0  0  0
    6.0259  -12.5095   26.5497 C   0  0  0  0  0  0  0  0  0  0  0  0
    7.2476  -11.9399   26.7168 C   0  0  0  0  0  0  0  0  0  0  0  0
    8.3497  -12.7389   26.7869 C   0  0  0  0  0  0  0  0  0  0  0  0
    8.2077  -14.1185   26.6866 C   0  0  0  0  0  0  0  0  0  0  0  0
    7.9292  -16.4071   24.1805 C   0  0  0  0  0  0  0  0  0  0  0  0
    8.8508  -17.2923   24.2499 O   0  0  0  0  0  0  0  0  0  0  0  0
    7.0189  -14.8956   20.3366 C   0  0  0  0  0  0  0  0  0  0  0  0
    7.7638  -13.7367   20.9969 C   0  0  2  0  0  0  0  0  0  0  0  0
    7.6344  -12.4949   20.2062 C   0  0  0  0  0  0  0  0  0  0  0  0
    9.1310  -14.1194   21.4335 C   0  0  0  0  0  0  0  0  0  0  0  0
    9.2807  -15.2046   22.4173 C   0  0  2  0  0  0  0  0  0  0  0  0
    8.1826  -15.3035   23.3574 N   0  0  0  0  0  0  0  0  0  0  0  0
   10.5979  -15.2626   23.0970 C   0  0  0  0  0  0  0  0  0  0  0  0
   10.7302  -15.2786   24.4776 O   0  0  0  0  0  0  0  0  0  0  0  0
   11.6635  -15.3001   22.4296 O   0  0  0  0  0  0  0  0  0  0  0  0
  2  1  1  0
  3  2  1  0
  4  3  2  0
  5  3  1  0
  6 14  1  0
  6  5  1  0
  6  7  1  1
  8  7  1  0
  9  8  2  0
 10  9  1  0
 11 10  2  0
 11 12  1  0
 12 13  2  0
 13  8  1  0
 14 15  2  0
 17 16  1  6
 17 19  1  0
 18 17  1  0
 20 19  1  1
 21 20  1  0
 21 14  1  0
 22 23  1  0
 22 20  1  0
 24 22  2  0
M  END
$$$$
