GFL.pdb
     RDKit          3D

 24 24  0  0  1  0  0  0  0  0999 V2000
   12.0856  -16.9434   19.8601 N   0  0  0  0  0  0  0  0  0  0  0  0
   10.9249  -17.4216   20.5467 C   0  0  0  0  0  0  0  0  0  0  0  0
   10.6555  -16.6298   21.7978 C   0  0  0  0  0  0  0  0  0  0  0  0
   11.5926  -16.0934   22.4385 O   0  0  0  0  0  0  0  0  0  0  0  0
    9.3367  -16.4638   22.2935 N   0  0  0  0  0  0  0  0  0  0  0  0
    8.9329  -15.8357   23.4963 C   0  0  1  0  0  0  0  0  0  0  0  0
    7.4880  -15.3850   23.4761 C   0  0  0  0  0  0  0  0  0  0  0  0
    7.1606  -14.4038   24.5399 C   0  0  0  0  0  0  0  0  0  0  0  0
    6.4723  -14.8270   25.6918 C   0  0  0  0  0  0  0  0  0  0  0  0
    6.1587  -13.9331   26.6599 C   0  0  0  0  0  0  0  0  0  0  0  0
    6.4903  -12.6199   26.5578 C   0  0  0  0  0  0  0  0  0  0  0  0
    7.1573  -12.1868   25.4507 C   0  0  0  0  0  0  0  0  0  0  0  0
    7.4867  -13.0912   24.4473 C   0  0  0  0  0  0  0  0  0  0  0  0
    9.3192  -16.5167   24.7282 C   0  0  0  0  0  0  0  0  0  0  0  0
    9.4476  -17.7891   24.6784 O   0  0  0  0  0  0  0  0  0  0  0  0
   11.3277  -13.7695   27.4450 C   0  0  0  0  0  0  0  0  0  0  0  0
   10.0973  -14.2816   28.1920 C   0  0  2  0  0  0  0  0  0  0  0  0
    9.8313  -13.4777   29.4033 C   0  0  0  0  0  0  0  0  0  0  0  0
   10.1067  -15.7584   28.3508 C   0  0  0  0  0  0  0  0  0  0  0  0
   10.0561  -16.5991   27.1431 C   0  0  2  0  0  0  0  0  0  0  0  0
    9.5646  -15.9114   25.9664 N   0  0  0  0  0  0  0  0  0  0  0  0
    9.4084  -17.9216   27.3220 C   0  0  0  0  0  0  0  0  0  0  0  0
    8.2711  -18.3010   26.6246 O   0  0  0  0  0  0  0  0  0  0  0  0
    9.8792  -18.7629   28.1300 O   0  0  0  0  0  0  0  0  0  0  0  0
  2  1  1  0
  3  2  1  0
  4  3  2  0
  5  3  1  0
  6 14  1  0
  6  5  1  0
  6  7  1  6
  8  7  1  0
  9  8  2  0
 10  9  1  0
 11 10  2  0
 11 12  1  0
 12 13  2  0
 13  8  1  0
 14 15  2  0
 17 16  1  1
 17 19  1  0
 18 17  1  0
 20 19  1  1
 21 20  1  0
 21 14  1  0
 22 23  1  0
 22 20  1  0
 24 22  2  0
M  END
$$$$
