GFL.pdb
     RDKit          3D

 24 24  0  0  1  0  0  0  0  0999 V2000
    8.6192  -19.2712   20.0044 N   0  0  0  0  0  0  0  0  0  0  0  0
    8.0271  -18.5608   21.0961 C   0  0  0  0  0  0  0  0  0  0  0  0
    8.8765  -17.3946   21.5244 C   0  0  0  0  0  0  0  0  0  0  0  0
   10.0825  -17.3132   21.1847 O   0  0  0  0  0  0  0  0  0  0  0  0
    8.3437  -16.3511   22.3244 N   0  0  0  0  0  0  0  0  0  0  0  0
    9.0345  -15.2568   22.8984 C   0  0  1  0  0  0  0  0  0  0  0  0
    8.3213  -13.9357   22.7055 C   0  0  0  0  0  0  0  0  0  0  0  0
    7.8211  -13.7309   21.3237 C   0  0  0  0  0  0  0  0  0  0  0  0
    6.6496  -14.3858   20.9014 C   0  0  0  0  0  0  0  0  0  0  0  0
    6.1958  -14.2133   19.6369 C   0  0  0  0  0  0  0  0  0  0  0  0
    6.8416  -13.4171   18.7458 C   0  0  0  0  0  0  0  0  0  0  0  0
    7.9788  -12.7727   19.1325 C   0  0  0  0  0  0  0  0  0  0  0  0
    8.4585  -12.9389   20.4269 C   0  0  0  0  0  0  0  0  0  0  0  0
    9.5340  -15.4629   24.2544 C   0  0  0  0  0  0  0  0  0  0  0  0
   10.7786  -15.2464   24.4591 O   0  0  0  0  0  0  0  0  0  0  0  0
    9.7655  -12.8558   27.7879 C   0  0  0  0  0  0  0  0  0  0  0  0
    8.4646  -13.5313   27.3576 C   0  0  2  0  0  0  0  0  0  0  0  0
    7.2855  -12.7702   27.8209 C   0  0  0  0  0  0  0  0  0  0  0  0
    8.4717  -14.9926   27.6236 C   0  0  0  0  0  0  0  0  0  0  0  0
    9.2481  -15.8694   26.7312 C   0  0  2  0  0  0  0  0  0  0  0  0
    8.7811  -15.8766   25.3596 N   0  0  0  0  0  0  0  0  0  0  0  0
    9.4828  -17.2417   27.2430 C   0  0  0  0  0  0  0  0  0  0  0  0
   10.3711  -17.5175   28.2720 O   0  0  0  0  0  0  0  0  0  0  0  0
    8.8706  -18.2240   26.7504 O   0  0  0  0  0  0  0  0  0  0  0  0
  2  1  1  0
  3  2  1  0
  4  3  2  0
  5  3  1  0
  6 14  1  0
  6  5  1  0
  6  7  1  1
  8  7  1  0
  9  8  2  0
 10  9  1  0
 11 10  2  0
 11 12  1  0
 12 13  2  0
 13  8  1  0
 14 15  2  0
 17 16  1  1
 17 19  1  0
 18 17  1  0
 20 19  1  1
 21 20  1  0
 21 14  1  0
 22 23  1  0
 22 20  1  0
 24 22  2  0
M  END
$$$$
