GFL.pdb
     RDKit          3D

 24 24  0  0  1  0  0  0  0  0999 V2000
    6.5800  -21.4271   24.7162 N   0  0  0  0  0  0  0  0  0  0  0  0
    6.3746  -20.0889   25.1792 C   0  0  0  0  0  0  0  0  0  0  0  0
    7.0871  -19.0867   24.3115 C   0  0  0  0  0  0  0  0  0  0  0  0
    8.0842  -19.4186   23.6245 O   0  0  0  0  0  0  0  0  0  0  0  0
    6.6566  -17.7367   24.2415 N   0  0  0  0  0  0  0  0  0  0  0  0
    7.2827  -16.6584   23.5710 C   0  0  1  0  0  0  0  0  0  0  0  0
    6.3417  -15.5072   23.2875 C   0  0  0  0  0  0  0  0  0  0  0  0
    6.9114  -14.4914   22.3683 C   0  0  0  0  0  0  0  0  0  0  0  0
    7.0184  -14.7754   20.9944 C   0  0  0  0  0  0  0  0  0  0  0  0
    7.5502  -13.8571   20.1526 C   0  0  0  0  0  0  0  0  0  0  0  0
    7.9918  -12.6508   20.5939 C   0  0  0  0  0  0  0  0  0  0  0  0
    7.8985  -12.3536   21.9209 C   0  0  0  0  0  0  0  0  0  0  0  0
    7.3553  -13.2850   22.7988 C   0  0  0  0  0  0  0  0  0  0  0  0
    8.5754  -16.2431   24.1068 C   0  0  0  0  0  0  0  0  0  0  0  0
    9.4175  -15.7432   23.2828 O   0  0  0  0  0  0  0  0  0  0  0  0
    9.6442  -13.0072   26.1957 C   0  0  0  0  0  0  0  0  0  0  0  0
    9.3872  -14.0462   27.2858 C   0  0  2  0  0  0  0  0  0  0  0  0
    9.2624  -13.4111   28.6144 C   0  0  0  0  0  0  0  0  0  0  0  0
   10.2985  -15.2143   27.1792 C   0  0  0  0  0  0  0  0  0  0  0  0
   10.3069  -15.9920   25.9289 C   0  0  2  0  0  0  0  0  0  0  0  0
    8.9872  -16.3382   25.4413 N   0  0  0  0  0  0  0  0  0  0  0  0
   11.2244  -17.1576   25.9173 C   0  0  0  0  0  0  0  0  0  0  0  0
   10.8066  -18.4387   25.5886 O   0  0  0  0  0  0  0  0  0  0  0  0
   12.4397  -17.0207   26.2116 O   0  0  0  0  0  0  0  0  0  0  0  0
  2  1  1  0
  3  2  1  0
  4  3  2  0
  5  3  1  0
  6 14  1  0
  6  5  1  0
  6  7  1  1
  8  7  1  0
  9  8  2  0
 10  9  1  0
 11 10  2  0
 11 12  1  0
 12 13  2  0
 13  8  1  0
 14 15  2  0
 17 16  1  6
 17 19  1  0
 18 17  1  0
 20 19  1  1
 21 20  1  0
 21 14  1  0
 22 23  1  0
 22 20  1  0
 24 22  2  0
M  END
$$$$
