GFL.pdb
     RDKit          3D

 24 24  0  0  1  0  0  0  0  0999 V2000
    5.9600  -20.6078   24.3663 N   0  0  0  0  0  0  0  0  0  0  0  0
    5.8076  -19.2107   24.6352 C   0  0  0  0  0  0  0  0  0  0  0  0
    7.0229  -18.4293   24.2139 C   0  0  0  0  0  0  0  0  0  0  0  0
    8.0675  -19.0128   23.8335 O   0  0  0  0  0  0  0  0  0  0  0  0
    7.0283  -17.0108   24.2328 N   0  0  0  0  0  0  0  0  0  0  0  0
    8.0802  -16.1406   23.8581 C   0  0  1  0  0  0  0  0  0  0  0  0
    7.5952  -14.7760   23.4179 C   0  0  0  0  0  0  0  0  0  0  0  0
    7.2712  -13.8714   24.5484 C   0  0  0  0  0  0  0  0  0  0  0  0
    6.3876  -14.3016   25.5553 C   0  0  0  0  0  0  0  0  0  0  0  0
    6.0775  -13.4750   26.5826 C   0  0  0  0  0  0  0  0  0  0  0  0
    6.5976  -12.2238   26.6780 C   0  0  0  0  0  0  0  0  0  0  0  0
    7.4557  -11.7852   25.7140 C   0  0  0  0  0  0  0  0  0  0  0  0
    7.7845  -12.6209   24.6525 C   0  0  0  0  0  0  0  0  0  0  0  0
    9.2197  -16.0939   24.7692 C   0  0  0  0  0  0  0  0  0  0  0  0
   10.2863  -15.5283   24.3444 O   0  0  0  0  0  0  0  0  0  0  0  0
   10.1510  -13.6253   27.6167 C   0  0  0  0  0  0  0  0  0  0  0  0
    9.4679  -14.7745   28.3561 C   0  0  2  0  0  0  0  0  0  0  0  0
    9.0360  -14.3619   29.7079 C   0  0  0  0  0  0  0  0  0  0  0  0
   10.2278  -16.0462   28.2492 C   0  0  0  0  0  0  0  0  0  0  0  0
   10.4371  -16.6343   26.9157 C   0  0  2  0  0  0  0  0  0  0  0  0
    9.2610  -16.6101   26.0697 N   0  0  0  0  0  0  0  0  0  0  0  0
   11.0965  -17.9630   26.9087 C   0  0  0  0  0  0  0  0  0  0  0  0
   10.5210  -19.0836   26.3282 O   0  0  0  0  0  0  0  0  0  0  0  0
   12.2251  -18.1223   27.4407 O   0  0  0  0  0  0  0  0  0  0  0  0
  2  1  1  0
  3  2  1  0
  4  3  2  0
  5  3  1  0
  6 14  1  0
  6  5  1  0
  6  7  1  1
  8  7  1  0
  9  8  2  0
 10  9  1  0
 11 10  2  0
 11 12  1  0
 12 13  2  0
 13  8  1  0
 14 15  2  0
 17 16  1  1
 17 19  1  0
 18 17  1  0
 20 19  1  1
 21 20  1  0
 21 14  1  0
 22 23  1  0
 22 20  1  0
 24 22  2  0
M  END
$$$$
