GFL.pdb
     RDKit          3D

 24 24  0  0  1  0  0  0  0  0999 V2000
    8.6264  -19.8656   20.9627 N   0  0  0  0  0  0  0  0  0  0  0  0
    8.0628  -19.4861   22.2219 C   0  0  0  0  0  0  0  0  0  0  0  0
    8.3330  -18.0395   22.5368 C   0  0  0  0  0  0  0  0  0  0  0  0
    9.2691  -17.4190   21.9753 O   0  0  0  0  0  0  0  0  0  0  0  0
    7.5409  -17.3308   23.4763 N   0  0  0  0  0  0  0  0  0  0  0  0
    7.7369  -16.0154   23.9618 C   0  0  1  0  0  0  0  0  0  0  0  0
    6.5184  -15.4514   24.6606 C   0  0  0  0  0  0  0  0  0  0  0  0
    6.6530  -14.0174   25.0170 C   0  0  0  0  0  0  0  0  0  0  0  0
    6.0799  -13.5379   26.2092 C   0  0  0  0  0  0  0  0  0  0  0  0
    6.1880  -12.2271   26.5330 C   0  0  0  0  0  0  0  0  0  0  0  0
    6.8409  -11.3429   25.7349 C   0  0  0  0  0  0  0  0  0  0  0  0
    7.4040  -11.7846   24.5748 C   0  0  0  0  0  0  0  0  0  0  0  0
    7.3022  -13.1271   24.2272 C   0  0  0  0  0  0  0  0  0  0  0  0
    8.9863  -15.7842   24.6802 C   0  0  0  0  0  0  0  0  0  0  0  0
    9.8240  -14.9734   24.1520 O   0  0  0  0  0  0  0  0  0  0  0  0
   10.7868  -13.3754   27.3065 C   0  0  0  0  0  0  0  0  0  0  0  0
   10.1538  -14.4790   28.1523 C   0  0  2  0  0  0  0  0  0  0  0  0
   10.0695  -14.0845   29.5741 C   0  0  0  0  0  0  0  0  0  0  0  0
   10.7267  -15.8170   27.8561 C   0  0  0  0  0  0  0  0  0  0  0  0
   10.6911  -16.3094   26.4689 C   0  0  2  0  0  0  0  0  0  0  0  0
    9.3608  -16.3655   25.8974 N   0  0  0  0  0  0  0  0  0  0  0  0
   11.4519  -17.5590   26.2234 C   0  0  0  0  0  0  0  0  0  0  0  0
   10.8718  -18.6973   25.6834 O   0  0  0  0  0  0  0  0  0  0  0  0
   12.6762  -17.6304   26.5028 O   0  0  0  0  0  0  0  0  0  0  0  0
  2  1  1  0
  3  2  1  0
  4  3  2  0
  5  3  1  0
  6 14  1  0
  6  5  1  0
  6  7  1  1
  8  7  1  0
  9  8  2  0
 10  9  1  0
 11 10  2  0
 11 12  1  0
 12 13  2  0
 13  8  1  0
 14 15  2  0
 17 16  1  6
 17 19  1  0
 18 17  1  0
 20 19  1  1
 21 20  1  0
 21 14  1  0
 22 23  1  0
 22 20  1  0
 24 22  2  0
M  END
$$$$
