GFL.pdb
     RDKit          3D

 24 24  0  0  1  0  0  0  0  0999 V2000
   11.4856  -17.2599   19.3826 N   0  0  0  0  0  0  0  0  0  0  0  0
   10.4339  -17.7017   20.2463 C   0  0  0  0  0  0  0  0  0  0  0  0
   10.2475  -16.7707   21.4139 C   0  0  0  0  0  0  0  0  0  0  0  0
   11.2188  -16.1424   21.9020 O   0  0  0  0  0  0  0  0  0  0  0  0
    8.9710  -16.5727   22.0003 N   0  0  0  0  0  0  0  0  0  0  0  0
    8.6498  -15.8025   23.1440 C   0  0  1  0  0  0  0  0  0  0  0  0
    7.2250  -15.2916   23.1363 C   0  0  0  0  0  0  0  0  0  0  0  0
    6.8944  -14.4464   24.3101 C   0  0  0  0  0  0  0  0  0  0  0  0
    7.3497  -13.1162   24.3627 C   0  0  0  0  0  0  0  0  0  0  0  0
    7.0625  -12.3441   25.4379 C   0  0  0  0  0  0  0  0  0  0  0  0
    6.3382  -12.8154   26.4859 C   0  0  0  0  0  0  0  0  0  0  0  0
    5.8866  -14.1013   26.4572 C   0  0  0  0  0  0  0  0  0  0  0  0
    6.1727  -14.9075   25.3611 C   0  0  0  0  0  0  0  0  0  0  0  0
    9.0658  -16.3653   24.4249 C   0  0  0  0  0  0  0  0  0  0  0  0
    8.9180  -17.6263   24.5862 O   0  0  0  0  0  0  0  0  0  0  0  0
    9.6792  -13.1926   27.3958 C   0  0  0  0  0  0  0  0  0  0  0  0
   10.2706  -14.3206   28.2395 C   0  0  2  0  0  0  0  0  0  0  0  0
   10.8915  -13.7985   29.4748 C   0  0  0  0  0  0  0  0  0  0  0  0
   11.0753  -15.2703   27.4290 C   0  0  0  0  0  0  0  0  0  0  0  0
   10.3722  -16.2499   26.5840 C   0  0  2  0  0  0  0  0  0  0  0  0
    9.6138  -15.6572   25.5010 N   0  0  0  0  0  0  0  0  0  0  0  0
    9.5825  -17.2668   27.3207 C   0  0  0  0  0  0  0  0  0  0  0  0
    8.2188  -17.4379   27.1342 O   0  0  0  0  0  0  0  0  0  0  0  0
   10.1350  -18.0254   28.1583 O   0  0  0  0  0  0  0  0  0  0  0  0
  2  1  1  0
  3  2  1  0
  4  3  2  0
  5  3  1  0
  6 14  1  0
  6  5  1  0
  6  7  1  1
  8  7  1  0
  9  8  2  0
 10  9  1  0
 11 10  2  0
 11 12  1  0
 12 13  2  0
 13  8  1  0
 14 15  2  0
 17 16  1  6
 17 19  1  0
 18 17  1  0
 20 19  1  1
 21 20  1  0
 21 14  1  0
 22 23  1  0
 22 20  1  0
 24 22  2  0
M  END
$$$$
