GFL.pdb
     RDKit          3D

 24 24  0  0  1  0  0  0  0  0999 V2000
    4.5458  -20.3758   22.7193 N   0  0  0  0  0  0  0  0  0  0  0  0
    5.3722  -20.0059   23.8272 C   0  0  0  0  0  0  0  0  0  0  0  0
    5.6984  -18.5368   23.8092 C   0  0  0  0  0  0  0  0  0  0  0  0
    5.5299  -17.8492   22.7723 O   0  0  0  0  0  0  0  0  0  0  0  0
    6.2060  -17.8818   24.9607 N   0  0  0  0  0  0  0  0  0  0  0  0
    6.7321  -16.5708   25.0540 C   0  0  1  0  0  0  0  0  0  0  0  0
    6.6945  -16.0134   26.4608 C   0  0  0  0  0  0  0  0  0  0  0  0
    6.9422  -14.5518   26.5237 C   0  0  0  0  0  0  0  0  0  0  0  0
    5.8559  -13.6580   26.4961 C   0  0  0  0  0  0  0  0  0  0  0  0
    6.0768  -12.3223   26.5395 C   0  0  0  0  0  0  0  0  0  0  0  0
    7.3307  -11.8049   26.6099 C   0  0  0  0  0  0  0  0  0  0  0  0
    8.3986  -12.6516   26.6376 C   0  0  0  0  0  0  0  0  0  0  0  0
    8.1896  -14.0256   26.5936 C   0  0  0  0  0  0  0  0  0  0  0  0
    7.9995  -16.3455   24.3659 C   0  0  0  0  0  0  0  0  0  0  0  0
    8.9304  -17.2026   24.5578 O   0  0  0  0  0  0  0  0  0  0  0  0
    6.9362  -13.2490   20.4223 C   0  0  0  0  0  0  0  0  0  0  0  0
    7.9791  -13.3210   21.5364 C   0  0  2  0  0  0  0  0  0  0  0  0
    8.5182  -11.9823   21.8547 C   0  0  0  0  0  0  0  0  0  0  0  0
    8.9643  -14.4111   21.3186 C   0  0  0  0  0  0  0  0  0  0  0  0
    9.2663  -15.3236   22.4340 C   0  0  2  0  0  0  0  0  0  0  0  0
    8.2988  -15.2778   23.5115 N   0  0  0  0  0  0  0  0  0  0  0  0
   10.6599  -15.2632   22.9387 C   0  0  0  0  0  0  0  0  0  0  0  0
   10.9656  -15.1119   24.2831 O   0  0  0  0  0  0  0  0  0  0  0  0
   11.6336  -15.3492   22.1469 O   0  0  0  0  0  0  0  0  0  0  0  0
  2  1  1  0
  3  2  1  0
  4  3  2  0
  5  3  1  0
  6 14  1  0
  6  5  1  0
  6  7  1  1
  8  7  1  0
  9  8  2  0
 10  9  1  0
 11 10  2  0
 11 12  1  0
 12 13  2  0
 13  8  1  0
 14 15  2  0
 17 16  1  6
 17 19  1  0
 18 17  1  0
 20 19  1  6
 21 20  1  0
 21 14  1  0
 22 23  1  0
 22 20  1  0
 24 22  2  0
M  END
$$$$
