GFL.pdb
     RDKit          3D

 24 24  0  0  1  0  0  0  0  0999 V2000
    5.7086  -20.7202   22.9235 N   0  0  0  0  0  0  0  0  0  0  0  0
    4.9406  -19.8656   23.7763 C   0  0  0  0  0  0  0  0  0  0  0  0
    5.4347  -18.4449   23.7276 C   0  0  0  0  0  0  0  0  0  0  0  0
    5.2109  -17.7158   22.7303 O   0  0  0  0  0  0  0  0  0  0  0  0
    6.1681  -17.8839   24.8046 N   0  0  0  0  0  0  0  0  0  0  0  0
    6.7025  -16.5767   24.9047 C   0  0  1  0  0  0  0  0  0  0  0  0
    6.7432  -16.0579   26.3261 C   0  0  0  0  0  0  0  0  0  0  0  0
    6.9830  -14.5963   26.4146 C   0  0  0  0  0  0  0  0  0  0  0  0
    5.9105  -13.7016   26.2453 C   0  0  0  0  0  0  0  0  0  0  0  0
    6.1259  -12.3660   26.3115 C   0  0  0  0  0  0  0  0  0  0  0  0
    7.3614  -11.8495   26.5394 C   0  0  0  0  0  0  0  0  0  0  0  0
    8.4158  -12.6971   26.7063 C   0  0  0  0  0  0  0  0  0  0  0  0
    8.2121  -14.0711   26.6412 C   0  0  0  0  0  0  0  0  0  0  0  0
    7.9313  -16.3347   24.1550 C   0  0  0  0  0  0  0  0  0  0  0  0
    8.8270  -17.2482   24.1881 O   0  0  0  0  0  0  0  0  0  0  0  0
    7.0993  -13.9642   20.6190 C   0  0  0  0  0  0  0  0  0  0  0  0
    8.0636  -13.1183   21.4487 C   0  0  2  0  0  0  0  0  0  0  0  0
    8.1446  -11.7355   20.9336 C   0  0  0  0  0  0  0  0  0  0  0  0
    9.3478  -13.8175   21.7097 C   0  0  0  0  0  0  0  0  0  0  0  0
    9.3222  -15.0872   22.4548 C   0  0  2  0  0  0  0  0  0  0  0  0
    8.2282  -15.1947   23.3987 N   0  0  0  0  0  0  0  0  0  0  0  0
   10.6157  -15.4903   23.0588 C   0  0  0  0  0  0  0  0  0  0  0  0
   11.7787  -15.6334   22.3164 O   0  0  0  0  0  0  0  0  0  0  0  0
   10.7041  -15.7210   24.2921 O   0  0  0  0  0  0  0  0  0  0  0  0
  2  1  1  0
  3  2  1  0
  4  3  2  0
  5  3  1  0
  6 14  1  0
  6  5  1  0
  6  7  1  1
  8  7  1  0
  9  8  2  0
 10  9  1  0
 11 10  2  0
 11 12  1  0
 12 13  2  0
 13  8  1  0
 14 15  2  0
 17 16  1  6
 17 19  1  0
 18 17  1  0
 20 19  1  1
 21 20  1  0
 21 14  1  0
 22 23  1  0
 22 20  1  0
 24 22  2  0
M  END
$$$$
