GFL.pdb
     RDKit          3D

 24 24  0  0  1  0  0  0  0  0999 V2000
   11.5042  -17.2680   19.2068 N   0  0  0  0  0  0  0  0  0  0  0  0
   10.6285  -17.7960   20.2077 C   0  0  0  0  0  0  0  0  0  0  0  0
   10.4910  -16.8565   21.3753 C   0  0  0  0  0  0  0  0  0  0  0  0
   11.4932  -16.2767   21.8610 O   0  0  0  0  0  0  0  0  0  0  0  0
    9.2272  -16.5955   21.9646 N   0  0  0  0  0  0  0  0  0  0  0  0
    8.9469  -15.8086   23.1076 C   0  0  1  0  0  0  0  0  0  0  0  0
    7.5300  -15.2765   23.1307 C   0  0  0  0  0  0  0  0  0  0  0  0
    7.3039  -14.2440   24.1719 C   0  0  0  0  0  0  0  0  0  0  0  0
    6.6909  -14.6008   25.3871 C   0  0  0  0  0  0  0  0  0  0  0  0
    6.4697  -13.6597   26.3358 C   0  0  0  0  0  0  0  0  0  0  0  0
    6.8242  -12.3611   26.1540 C   0  0  0  0  0  0  0  0  0  0  0  0
    7.4193  -11.9920   24.9845 C   0  0  0  0  0  0  0  0  0  0  0  0
    7.6536  -12.9455   24.0000 C   0  0  0  0  0  0  0  0  0  0  0  0
    9.3873  -16.3641   24.3835 C   0  0  0  0  0  0  0  0  0  0  0  0
    9.2448  -17.6245   24.5539 O   0  0  0  0  0  0  0  0  0  0  0  0
    9.2660  -13.4344   27.6090 C   0  0  0  0  0  0  0  0  0  0  0  0
    9.8835  -14.5844   28.4029 C   0  0  2  0  0  0  0  0  0  0  0  0
   10.1919  -14.1753   29.7892 C   0  0  0  0  0  0  0  0  0  0  0  0
   10.9589  -15.2782   27.6490 C   0  0  0  0  0  0  0  0  0  0  0  0
   10.5794  -16.2475   26.6077 C   0  0  2  0  0  0  0  0  0  0  0  0
    9.9536  -15.6495   25.4457 N   0  0  0  0  0  0  0  0  0  0  0  0
    9.8293  -17.4321   27.0919 C   0  0  0  0  0  0  0  0  0  0  0  0
   10.3859  -18.3776   27.9406 O   0  0  0  0  0  0  0  0  0  0  0  0
    8.6365  -17.6238   26.7417 O   0  0  0  0  0  0  0  0  0  0  0  0
  2  1  1  0
  3  2  1  0
  4  3  2  0
  5  3  1  0
  6 14  1  0
  6  5  1  0
  6  7  1  1
  8  7  1  0
  9  8  2  0
 10  9  1  0
 11 10  2  0
 11 12  1  0
 12 13  2  0
 13  8  1  0
 14 15  2  0
 17 16  1  6
 17 19  1  0
 18 17  1  0
 20 19  1  1
 21 20  1  0
 21 14  1  0
 22 23  1  0
 22 20  1  0
 24 22  2  0
M  END
$$$$
