GFL.pdb
     RDKit          3D

 24 24  0  0  1  0  0  0  0  0999 V2000
    9.5397  -18.9780   20.1988 N   0  0  0  0  0  0  0  0  0  0  0  0
    8.7173  -18.8252   21.3597 C   0  0  0  0  0  0  0  0  0  0  0  0
    8.8842  -17.4652   21.9822 C   0  0  0  0  0  0  0  0  0  0  0  0
    9.8341  -16.7140   21.6507 O   0  0  0  0  0  0  0  0  0  0  0  0
    7.9759  -16.9881   22.9619 N   0  0  0  0  0  0  0  0  0  0  0  0
    8.0230  -15.7613   23.6668 C   0  0  1  0  0  0  0  0  0  0  0  0
    6.7323  -15.4403   24.3894 C   0  0  0  0  0  0  0  0  0  0  0  0
    6.7242  -14.0947   25.0144 C   0  0  0  0  0  0  0  0  0  0  0  0
    7.2472  -12.9948   24.3097 C   0  0  0  0  0  0  0  0  0  0  0  0
    7.2549  -11.7665   24.8806 C   0  0  0  0  0  0  0  0  0  0  0  0
    6.7676  -11.5538   26.1305 C   0  0  0  0  0  0  0  0  0  0  0  0
    6.2560  -12.6045   26.8323 C   0  0  0  0  0  0  0  0  0  0  0  0
    6.2407  -13.8721   26.2612 C   0  0  0  0  0  0  0  0  0  0  0  0
    9.2193  -15.5385   24.4730 C   0  0  0  0  0  0  0  0  0  0  0  0
   10.0521  -14.6613   24.0550 O   0  0  0  0  0  0  0  0  0  0  0  0
   10.7892  -13.3718   27.5898 C   0  0  0  0  0  0  0  0  0  0  0  0
   10.1474  -14.6051   28.2231 C   0  0  2  0  0  0  0  0  0  0  0  0
    9.9781  -14.4336   29.6812 C   0  0  0  0  0  0  0  0  0  0  0  0
   10.7753  -15.8693   27.7607 C   0  0  0  0  0  0  0  0  0  0  0  0
   10.8415  -16.1375   26.3144 C   0  0  2  0  0  0  0  0  0  0  0  0
    9.5473  -16.1941   25.6656 N   0  0  0  0  0  0  0  0  0  0  0  0
   11.7069  -17.2771   25.9233 C   0  0  0  0  0  0  0  0  0  0  0  0
   11.2367  -18.3628   25.1994 O   0  0  0  0  0  0  0  0  0  0  0  0
   12.9236  -17.2980   26.2417 O   0  0  0  0  0  0  0  0  0  0  0  0
  2  1  1  0
  3  2  1  0
  4  3  2  0
  5  3  1  0
  6 14  1  0
  6  5  1  0
  6  7  1  1
  8  7  1  0
  9  8  2  0
 10  9  1  0
 11 10  2  0
 11 12  1  0
 12 13  2  0
 13  8  1  0
 14 15  2  0
 17 16  1  1
 17 19  1  0
 18 17  1  0
 20 19  1  1
 21 20  1  0
 21 14  1  0
 22 23  1  0
 22 20  1  0
 24 22  2  0
M  END
$$$$
