GFL.pdb
     RDKit          3D

 24 24  0  0  1  0  0  0  0  0999 V2000
   11.4753  -17.4404   19.1579 N   0  0  0  0  0  0  0  0  0  0  0  0
   10.9017  -18.0585   20.3139 C   0  0  0  0  0  0  0  0  0  0  0  0
   10.8466  -17.1091   21.4803 C   0  0  0  0  0  0  0  0  0  0  0  0
   11.8230  -16.3713   21.7608 O   0  0  0  0  0  0  0  0  0  0  0  0
    9.6921  -17.0166   22.2995 N   0  0  0  0  0  0  0  0  0  0  0  0
    9.4601  -16.1289   23.3776 C   0  0  1  0  0  0  0  0  0  0  0  0
    8.0437  -15.5967   23.4159 C   0  0  0  0  0  0  0  0  0  0  0  0
    7.7590  -14.5985   22.3557 C   0  0  0  0  0  0  0  0  0  0  0  0
    7.1198  -15.0034   21.1694 C   0  0  0  0  0  0  0  0  0  0  0  0
    6.8697  -14.0991   20.1925 C   0  0  0  0  0  0  0  0  0  0  0  0
    7.2194  -12.7927   20.3182 C   0  0  0  0  0  0  0  0  0  0  0  0
    7.8399  -12.3773   21.4586 C   0  0  0  0  0  0  0  0  0  0  0  0
    8.1044  -13.2927   22.4713 C   0  0  0  0  0  0  0  0  0  0  0  0
    9.9595  -16.5658   24.6777 C   0  0  0  0  0  0  0  0  0  0  0  0
   10.9487  -17.3778   24.6823 O   0  0  0  0  0  0  0  0  0  0  0  0
   10.7523  -13.4007   27.5001 C   0  0  0  0  0  0  0  0  0  0  0  0
    9.4778  -14.1188   27.9404 C   0  0  2  0  0  0  0  0  0  0  0  0
    8.7203  -13.3151   28.9224 C   0  0  0  0  0  0  0  0  0  0  0  0
    9.7207  -15.5445   28.2790 C   0  0  0  0  0  0  0  0  0  0  0  0
   10.0907  -16.4742   27.1988 C   0  0  2  0  0  0  0  0  0  0  0  0
    9.4597  -16.1819   25.9277 N   0  0  0  0  0  0  0  0  0  0  0  0
    9.9965  -17.9134   27.5454 C   0  0  0  0  0  0  0  0  0  0  0  0
    9.1469  -18.7901   26.8869 O   0  0  0  0  0  0  0  0  0  0  0  0
   10.6994  -18.3986   28.4688 O   0  0  0  0  0  0  0  0  0  0  0  0
  2  1  1  0
  3  2  1  0
  4  3  2  0
  5  3  1  0
  6 14  1  0
  6  5  1  0
  6  7  1  1
  8  7  1  0
  9  8  2  0
 10  9  1  0
 11 10  2  0
 11 12  1  0
 12 13  2  0
 13  8  1  0
 14 15  2  0
 17 16  1  1
 17 19  1  0
 18 17  1  0
 20 19  1  1
 21 20  1  0
 21 14  1  0
 22 23  1  0
 22 20  1  0
 24 22  2  0
M  END
$$$$
