GFL.pdb
     RDKit          3D

 24 24  0  0  1  0  0  0  0  0999 V2000
   11.7851  -17.2607   19.8128 N   0  0  0  0  0  0  0  0  0  0  0  0
   10.6420  -17.6774   20.5658 C   0  0  0  0  0  0  0  0  0  0  0  0
   10.4429  -16.8240   21.7893 C   0  0  0  0  0  0  0  0  0  0  0  0
   11.4077  -16.2236   22.3235 O   0  0  0  0  0  0  0  0  0  0  0  0
    9.1615  -16.6699   22.3781 N   0  0  0  0  0  0  0  0  0  0  0  0
    8.8327  -16.0008   23.5816 C   0  0  1  0  0  0  0  0  0  0  0  0
    7.3848  -15.5636   23.6429 C   0  0  0  0  0  0  0  0  0  0  0  0
    7.1284  -14.5102   24.6557 C   0  0  0  0  0  0  0  0  0  0  0  0
    6.4670  -14.8396   25.8532 C   0  0  0  0  0  0  0  0  0  0  0  0
    6.2181  -13.8793   26.7755 C   0  0  0  0  0  0  0  0  0  0  0  0
    6.5902  -12.5872   26.5834 C   0  0  0  0  0  0  0  0  0  0  0  0
    7.2321  -12.2445   25.4308 C   0  0  0  0  0  0  0  0  0  0  0  0
    7.4953  -13.2179   24.4734 C   0  0  0  0  0  0  0  0  0  0  0  0
    9.3088  -16.6318   24.8087 C   0  0  0  0  0  0  0  0  0  0  0  0
    9.3844  -17.9093   24.8189 O   0  0  0  0  0  0  0  0  0  0  0  0
   10.0043  -13.4835   27.3422 C   0  0  0  0  0  0  0  0  0  0  0  0
    9.5900  -14.5325   28.3728 C   0  0  2  0  0  0  0  0  0  0  0  0
    9.3884  -13.9259   29.7053 C   0  0  0  0  0  0  0  0  0  0  0  0
   10.4342  -15.7529   28.3075 C   0  0  0  0  0  0  0  0  0  0  0  0
   10.3584  -16.6010   27.1063 C   0  0  2  0  0  0  0  0  0  0  0  0
    9.6932  -15.9731   25.9826 N   0  0  0  0  0  0  0  0  0  0  0  0
    9.8680  -17.9815   27.3387 C   0  0  0  0  0  0  0  0  0  0  0  0
    8.7646  -18.5067   26.6824 O   0  0  0  0  0  0  0  0  0  0  0  0
   10.4490  -18.7398   28.1570 O   0  0  0  0  0  0  0  0  0  0  0  0
  2  1  1  0
  3  2  1  0
  4  3  2  0
  5  3  1  0
  6 14  1  0
  6  5  1  0
  6  7  1  1
  8  7  1  0
  9  8  2  0
 10  9  1  0
 11 10  2  0
 11 12  1  0
 12 13  2  0
 13  8  1  0
 14 15  2  0
 17 16  1  6
 17 19  1  0
 18 17  1  0
 20 19  1  1
 21 20  1  0
 21 14  1  0
 22 23  1  0
 22 20  1  0
 24 22  2  0
M  END
$$$$
