DGE.pdb
     RDKit          3D

 22 21  0  0  1  0  0  0  0  0999 V2000
   11.2345  -19.3602   19.4795 N   0  0  0  0  0  0  0  0  0  0  0  0
   11.8028  -18.0512   19.2882 C   0  0  1  0  0  0  0  0  0  0  0  0
   11.4207  -17.5849   17.8911 C   0  0  0  0  0  0  0  0  0  0  0  0
   12.4752  -17.9524   16.9315 C   0  0  0  0  0  0  0  0  0  0  0  0
   13.6938  -17.8361   17.2463 O   0  0  0  0  0  0  0  0  0  0  0  0
   11.2981  -17.1299   20.3196 C   0  0  0  0  0  0  0  0  0  0  0  0
   11.7647  -15.9707   20.4326 O   0  0  0  0  0  0  0  0  0  0  0  0
   12.1819  -18.4326   15.6661 O   0  0  0  0  0  0  0  0  0  0  0  0
   10.2792  -17.5304   21.2024 N   0  0  0  0  0  0  0  0  0  0  0  0
    9.7326  -16.6463   22.2029 C   0  0  0  0  0  0  0  0  0  0  0  0
   10.5261  -16.7967   23.4630 C   0  0  0  0  0  0  0  0  0  0  0  0
   11.5982  -17.4566   23.5181 O   0  0  0  0  0  0  0  0  0  0  0  0
   10.0863  -16.1837   24.6769 N   0  0  0  0  0  0  0  0  0  0  0  0
   10.8300  -16.2642   25.9262 C   0  0  1  0  0  0  0  0  0  0  0  0
   10.2008  -15.2703   26.8557 C   0  0  0  0  0  0  0  0  0  0  0  0
   10.7973  -15.2495   28.2406 C   0  0  0  0  0  0  0  0  0  0  0  0
   10.0505  -14.2271   29.0232 C   0  0  0  0  0  0  0  0  0  0  0  0
   10.2361  -13.9587   30.2214 O   0  0  0  0  0  0  0  0  0  0  0  0
   10.7792  -17.6459   26.4064 C   0  0  0  0  0  0  0  0  0  0  0  0
   11.6884  -18.2070   27.0704 O   0  0  0  0  0  0  0  0  0  0  0  0
    9.0608  -13.5161   28.3449 O   0  0  0  0  0  0  0  0  0  0  0  0
    9.6683  -18.4350   26.1352 O   0  0  0  0  0  0  0  0  0  0  0  0
  2  1  1  1
  2  3  1  0
  3  4  1  0
  4  8  1  0
  5  4  2  0
  6  9  1  0
  6  2  1  0
  7  6  2  0
 10  9  1  0
 11 13  1  0
 11 10  1  0
 12 11  2  0
 14 13  1  0
 14 15  1  1
 15 16  1  0
 16 17  1  0
 17 18  2  0
 17 21  1  0
 19 14  1  0
 20 19  2  0
 22 19  1  0
M  END
$$$$
