DGE.pdb
     RDKit          3D

 22 21  0  0  1  0  0  0  0  0999 V2000
   11.3755  -19.0942   19.2292 N   0  0  0  0  0  0  0  0  0  0  0  0
   10.5705  -17.9577   18.8641 C   0  0  1  0  0  0  0  0  0  0  0  0
    9.5425  -18.4313   17.8472 C   0  0  0  0  0  0  0  0  0  0  0  0
   10.1710  -18.5705   16.5231 C   0  0  0  0  0  0  0  0  0  0  0  0
   11.4257  -18.4813   16.3991 O   0  0  0  0  0  0  0  0  0  0  0  0
    9.9236  -17.3962   20.0615 C   0  0  0  0  0  0  0  0  0  0  0  0
    9.2782  -16.3219   20.0016 O   0  0  0  0  0  0  0  0  0  0  0  0
    9.4275  -18.8013   15.3776 O   0  0  0  0  0  0  0  0  0  0  0  0
   10.0152  -18.0541   21.3011 N   0  0  0  0  0  0  0  0  0  0  0  0
    9.4156  -17.5253   22.5021 C   0  0  0  0  0  0  0  0  0  0  0  0
   10.4544  -16.7614   23.2622 C   0  0  0  0  0  0  0  0  0  0  0  0
   11.5467  -16.4007   22.7480 O   0  0  0  0  0  0  0  0  0  0  0  0
   10.2400  -16.4059   24.6299 N   0  0  0  0  0  0  0  0  0  0  0  0
   11.1714  -15.5916   25.3978 C   0  0  1  0  0  0  0  0  0  0  0  0
   10.5843  -15.4621   26.7712 C   0  0  0  0  0  0  0  0  0  0  0  0
   11.3710  -14.5748   27.7028 C   0  0  0  0  0  0  0  0  0  0  0  0
   10.6667  -14.5837   29.0141 C   0  0  0  0  0  0  0  0  0  0  0  0
   10.3602  -15.5983   29.6613 O   0  0  0  0  0  0  0  0  0  0  0  0
   12.4840  -16.2384   25.3683 C   0  0  0  0  0  0  0  0  0  0  0  0
   13.5834  -15.6272   25.3555 O   0  0  0  0  0  0  0  0  0  0  0  0
   10.3264  -13.3431   29.5529 O   0  0  0  0  0  0  0  0  0  0  0  0
   12.5749  -17.6248   25.3528 O   0  0  0  0  0  0  0  0  0  0  0  0
  2  1  1  1
  2  3  1  0
  3  4  1  0
  4  8  1  0
  5  4  2  0
  6  9  1  0
  6  2  1  0
  7  6  2  0
 10  9  1  0
 11 13  1  0
 11 10  1  0
 12 11  2  0
 14 13  1  0
 14 15  1  1
 15 16  1  0
 16 17  1  0
 17 18  2  0
 17 21  1  0
 19 14  1  0
 20 19  2  0
 22 19  1  0
M  END
$$$$
