DGE.pdb
     RDKit          3D

 22 21  0  0  1  0  0  0  0  0999 V2000
    6.8613  -16.2620   16.8461 N   0  0  0  0  0  0  0  0  0  0  0  0
    8.2369  -15.9651   17.1504 C   0  0  1  0  0  0  0  0  0  0  0  0
    8.8092  -15.1868   15.9749 C   0  0  0  0  0  0  0  0  0  0  0  0
    9.2021  -16.1138   14.9005 C   0  0  0  0  0  0  0  0  0  0  0  0
    8.6794  -17.2621   14.8248 O   0  0  0  0  0  0  0  0  0  0  0  0
    8.3181  -15.1900   18.3994 C   0  0  0  0  0  0  0  0  0  0  0  0
    9.4217  -14.9831   18.9591 O   0  0  0  0  0  0  0  0  0  0  0  0
   10.1440  -15.7729   13.9442 O   0  0  0  0  0  0  0  0  0  0  0  0
    7.1570  -14.6631   18.9931 N   0  0  0  0  0  0  0  0  0  0  0  0
    7.1884  -13.9371   20.2394 C   0  0  0  0  0  0  0  0  0  0  0  0
    7.2124  -14.9198   21.3681 C   0  0  0  0  0  0  0  0  0  0  0  0
    6.3910  -15.8708   21.4607 O   0  0  0  0  0  0  0  0  0  0  0  0
    8.1897  -14.8121   22.4054 N   0  0  0  0  0  0  0  0  0  0  0  0
    8.2568  -15.7271   23.5362 C   0  0  1  0  0  0  0  0  0  0  0  0
    9.6762  -15.6977   24.0181 C   0  0  0  0  0  0  0  0  0  0  0  0
   10.6602  -16.3729   23.0962 C   0  0  0  0  0  0  0  0  0  0  0  0
   12.0099  -16.2108   23.7026 C   0  0  0  0  0  0  0  0  0  0  0  0
   12.2739  -15.5214   24.7011 O   0  0  0  0  0  0  0  0  0  0  0  0
    7.2779  -15.2988   24.5363 C   0  0  0  0  0  0  0  0  0  0  0  0
    6.8828  -14.1145   24.6903 O   0  0  0  0  0  0  0  0  0  0  0  0
   13.0599  -16.8949   23.0904 O   0  0  0  0  0  0  0  0  0  0  0  0
    6.7156  -16.2298   25.4009 O   0  0  0  0  0  0  0  0  0  0  0  0
  2  1  1  6
  2  3  1  0
  3  4  1  0
  4  8  1  0
  5  4  2  0
  6  9  1  0
  6  2  1  0
  7  6  2  0
 10  9  1  0
 11 13  1  0
 11 10  1  0
 12 11  2  0
 14 13  1  0
 14 15  1  1
 15 16  1  0
 16 17  1  0
 17 18  2  0
 17 21  1  0
 19 14  1  0
 20 19  2  0
 22 19  1  0
M  END
$$$$
