DGE.pdb
     RDKit          3D

 22 21  0  0  1  0  0  0  0  0999 V2000
    8.2686  -19.0150   20.0936 N   0  0  0  0  0  0  0  0  0  0  0  0
    9.3583  -18.3116   19.4685 C   0  0  1  0  0  0  0  0  0  0  0  0
    9.1453  -18.3801   17.9635 C   0  0  0  0  0  0  0  0  0  0  0  0
    7.7297  -18.1319   17.6433 C   0  0  0  0  0  0  0  0  0  0  0  0
    6.8969  -17.9024   18.5661 O   0  0  0  0  0  0  0  0  0  0  0  0
    9.3942  -16.9187   19.9438 C   0  0  0  0  0  0  0  0  0  0  0  0
   10.3428  -16.1570   19.6370 O   0  0  0  0  0  0  0  0  0  0  0  0
    7.2590  -18.1391   16.3408 O   0  0  0  0  0  0  0  0  0  0  0  0
    8.3628  -16.4107   20.7539 N   0  0  0  0  0  0  0  0  0  0  0  0
    8.3802  -15.0645   21.2725 C   0  0  0  0  0  0  0  0  0  0  0  0
    9.2934  -15.0172   22.4575 C   0  0  0  0  0  0  0  0  0  0  0  0
    9.6301  -13.9387   23.0153 O   0  0  0  0  0  0  0  0  0  0  0  0
    9.8289  -16.2211   23.0114 N   0  0  0  0  0  0  0  0  0  0  0  0
   10.7308  -16.2410   24.1543 C   0  0  1  0  0  0  0  0  0  0  0  0
   10.5980  -17.6007   24.7719 C   0  0  0  0  0  0  0  0  0  0  0  0
   11.5428  -17.8579   25.9188 C   0  0  0  0  0  0  0  0  0  0  0  0
   11.2878  -19.2457   26.3928 C   0  0  0  0  0  0  0  0  0  0  0  0
   10.5427  -19.5605   27.3349 O   0  0  0  0  0  0  0  0  0  0  0  0
   12.0809  -15.9285   23.6836 C   0  0  0  0  0  0  0  0  0  0  0  0
   13.0086  -15.4881   24.4101 O   0  0  0  0  0  0  0  0  0  0  0  0
   11.9460  -20.2718   25.7153 O   0  0  0  0  0  0  0  0  0  0  0  0
   12.4108  -16.1148   22.3468 O   0  0  0  0  0  0  0  0  0  0  0  0
  2  1  1  1
  2  3  1  0
  3  4  1  0
  4  8  1  0
  5  4  2  0
  6  9  1  0
  6  2  1  0
  7  6  2  0
 10  9  1  0
 11 13  1  0
 11 10  1  0
 12 11  2  0
 14 13  1  0
 14 15  1  6
 15 16  1  0
 16 17  1  0
 17 18  2  0
 17 21  1  0
 19 14  1  0
 20 19  2  0
 22 19  1  0
M  END
$$$$
