DGE.pdb
     RDKit          3D

 22 21  0  0  1  0  0  0  0  0999 V2000
    6.9850  -17.1037   17.7732 N   0  0  0  0  0  0  0  0  0  0  0  0
    8.3067  -16.5447   17.8892 C   0  0  1  0  0  0  0  0  0  0  0  0
    8.4378  -15.4544   16.8359 C   0  0  0  0  0  0  0  0  0  0  0  0
    8.8869  -16.0375   15.5607 C   0  0  0  0  0  0  0  0  0  0  0  0
    8.9770  -17.2913   15.4283 O   0  0  0  0  0  0  0  0  0  0  0  0
    8.5072  -16.0089   19.2457 C   0  0  0  0  0  0  0  0  0  0  0  0
    9.6335  -15.5994   19.6172 O   0  0  0  0  0  0  0  0  0  0  0  0
    9.2233  -15.2511   14.4714 O   0  0  0  0  0  0  0  0  0  0  0  0
    7.4375  -15.9442   20.1565 N   0  0  0  0  0  0  0  0  0  0  0  0
    7.5975  -15.4476   21.5016 C   0  0  0  0  0  0  0  0  0  0  0  0
    7.5446  -16.6036   22.4507 C   0  0  0  0  0  0  0  0  0  0  0  0
    7.1739  -17.7559   22.1005 O   0  0  0  0  0  0  0  0  0  0  0  0
    7.9207  -16.4385   23.8196 N   0  0  0  0  0  0  0  0  0  0  0  0
    7.9551  -17.5364   24.7754 C   0  0  1  0  0  0  0  0  0  0  0  0
    9.0565  -17.2191   25.7419 C   0  0  0  0  0  0  0  0  0  0  0  0
    9.2738  -18.2679   26.8035 C   0  0  0  0  0  0  0  0  0  0  0  0
   10.4353  -17.8265   27.6231 C   0  0  0  0  0  0  0  0  0  0  0  0
   11.0845  -16.7821   27.4506 O   0  0  0  0  0  0  0  0  0  0  0  0
    6.6336  -17.6529   25.3937 C   0  0  0  0  0  0  0  0  0  0  0  0
    6.2126  -18.6734   25.9967 O   0  0  0  0  0  0  0  0  0  0  0  0
   10.8192  -18.6634   28.6707 O   0  0  0  0  0  0  0  0  0  0  0  0
    5.7442  -16.5869   25.3375 O   0  0  0  0  0  0  0  0  0  0  0  0
  2  1  1  1
  2  3  1  0
  3  4  1  0
  4  8  1  0
  5  4  2  0
  6  9  1  0
  6  2  1  0
  7  6  2  0
 10  9  1  0
 11 13  1  0
 11 10  1  0
 12 11  2  0
 14 13  1  0
 14 15  1  1
 15 16  1  0
 16 17  1  0
 17 18  2  0
 17 21  1  0
 19 14  1  0
 20 19  2  0
 22 19  1  0
M  END
$$$$
