DGE.pdb
     RDKit          3D

 22 21  0  0  1  0  0  0  0  0999 V2000
    9.5463  -12.8362   18.7402 N   0  0  0  0  0  0  0  0  0  0  0  0
    8.1196  -12.8855   18.9275 C   0  0  1  0  0  0  0  0  0  0  0  0
    7.5119  -13.4844   17.6677 C   0  0  0  0  0  0  0  0  0  0  0  0
    8.1875  -14.7496   17.3350 C   0  0  0  0  0  0  0  0  0  0  0  0
    9.1609  -15.1562   18.0312 O   0  0  0  0  0  0  0  0  0  0  0  0
    7.7976  -13.6925   20.1161 C   0  0  0  0  0  0  0  0  0  0  0  0
    6.6326  -13.7185   20.5813 O   0  0  0  0  0  0  0  0  0  0  0  0
    7.7920  -15.5341   16.2643 O   0  0  0  0  0  0  0  0  0  0  0  0
    8.7916  -14.4537   20.7567 N   0  0  0  0  0  0  0  0  0  0  0  0
    8.5026  -15.3131   21.8790 C   0  0  0  0  0  0  0  0  0  0  0  0
    9.6123  -15.1918   22.8761 C   0  0  0  0  0  0  0  0  0  0  0  0
   10.6588  -14.5264   22.6528 O   0  0  0  0  0  0  0  0  0  0  0  0
    9.5231  -15.8415   24.1460 N   0  0  0  0  0  0  0  0  0  0  0  0
   10.6018  -15.8325   25.1241 C   0  0  1  0  0  0  0  0  0  0  0  0
    9.9524  -15.9684   26.4685 C   0  0  0  0  0  0  0  0  0  0  0  0
    9.3928  -14.6821   27.0220 C   0  0  0  0  0  0  0  0  0  0  0  0
    9.6635  -14.6813   28.4857 C   0  0  0  0  0  0  0  0  0  0  0  0
    9.4021  -13.7522   29.2670 O   0  0  0  0  0  0  0  0  0  0  0  0
   11.5309  -16.9152   24.7977 C   0  0  0  0  0  0  0  0  0  0  0  0
   11.2460  -17.9137   24.0878 O   0  0  0  0  0  0  0  0  0  0  0  0
   10.2614  -15.8250   29.0146 O   0  0  0  0  0  0  0  0  0  0  0  0
   12.8325  -16.8833   25.2829 O   0  0  0  0  0  0  0  0  0  0  0  0
  2  1  1  6
  2  3  1  0
  3  4  1  0
  4  8  1  0
  5  4  2  0
  6  9  1  0
  6  2  1  0
  7  6  2  0
 10  9  1  0
 11 13  1  0
 11 10  1  0
 12 11  2  0
 14 13  1  0
 14 15  1  1
 15 16  1  0
 16 17  1  0
 17 18  2  0
 17 21  1  0
 19 14  1  0
 20 19  2  0
 22 19  1  0
M  END
$$$$
