DGE.pdb
     RDKit          3D

 22 21  0  0  1  0  0  0  0  0999 V2000
   -6.4668  -22.2976   27.2609 N   0  0  0  0  0  0  0  0  0  0  0  0
   -5.3505  -22.9191   26.5970 C   0  0  1  0  0  0  0  0  0  0  0  0
   -4.2054  -21.9172   26.5895 C   0  0  0  0  0  0  0  0  0  0  0  0
   -4.5459  -20.7697   25.7321 C   0  0  0  0  0  0  0  0  0  0  0  0
   -5.6428  -20.7444   25.1046 O   0  0  0  0  0  0  0  0  0  0  0  0
   -4.9766  -24.1583   27.2985 C   0  0  0  0  0  0  0  0  0  0  0  0
   -4.0371  -24.8773   26.8805 O   0  0  0  0  0  0  0  0  0  0  0  0
   -3.6940  -19.6884   25.5797 O   0  0  0  0  0  0  0  0  0  0  0  0
   -5.6660  -24.5632   28.4555 N   0  0  0  0  0  0  0  0  0  0  0  0
   -5.2997  -25.7441   29.1991 C   0  0  0  0  0  0  0  0  0  0  0  0
   -6.2442  -25.9004   30.3496 C   0  0  0  0  0  0  0  0  0  0  0  0
   -7.1631  -25.0734   30.5936 O   0  0  0  0  0  0  0  0  0  0  0  0
   -6.1352  -27.0185   31.2332 N   0  0  0  0  0  0  0  0  0  0  0  0
   -7.0878  -27.2869   32.3012 C   0  0  1  0  0  0  0  0  0  0  0  0
   -6.7981  -28.6762   32.7846 C   0  0  0  0  0  0  0  0  0  0  0  0
   -5.4037  -28.8684   33.3256 C   0  0  0  0  0  0  0  0  0  0  0  0
   -5.3133  -30.2719   33.8134 C   0  0  0  0  0  0  0  0  0  0  0  0
   -4.7761  -31.2130   33.2070 O   0  0  0  0  0  0  0  0  0  0  0  0
   -6.9356  -26.2541   33.3270 C   0  0  0  0  0  0  0  0  0  0  0  0
   -5.9659  -25.4563   33.4016 O   0  0  0  0  0  0  0  0  0  0  0  0
   -5.8831  -30.5425   35.0573 O   0  0  0  0  0  0  0  0  0  0  0  0
   -7.9053  -26.1041   34.3108 O   0  0  0  0  0  0  0  0  0  0  0  0
  2  1  1  1
  2  3  1  0
  3  4  1  0
  4  8  1  0
  5  4  2  0
  6  9  1  0
  6  2  1  0
  7  6  2  0
 10  9  1  0
 11 13  1  0
 11 10  1  0
 12 11  2  0
 14 13  1  0
 14 15  1  1
 15 16  1  0
 16 17  1  0
 17 18  2  0
 17 21  1  0
 19 14  1  0
 20 19  2  0
 22 19  1  0
M  END
$$$$
