DGE.pdb
     RDKit          3D

 22 21  0  0  1  0  0  0  0  0999 V2000
    7.2040  -17.4587   19.2496 N   0  0  0  0  0  0  0  0  0  0  0  0
    8.3236  -16.5748   19.0541 C   0  0  1  0  0  0  0  0  0  0  0  0
    7.9456  -15.5914   17.9563 C   0  0  0  0  0  0  0  0  0  0  0  0
    8.5122  -16.0302   16.6701 C   0  0  0  0  0  0  0  0  0  0  0  0
    9.5827  -16.7017   16.6397 O   0  0  0  0  0  0  0  0  0  0  0  0
    8.6396  -15.8801   20.3131 C   0  0  0  0  0  0  0  0  0  0  0  0
    9.7990  -15.4597   20.5440 O   0  0  0  0  0  0  0  0  0  0  0  0
    7.9071  -15.7316   15.4607 O   0  0  0  0  0  0  0  0  0  0  0  0
    7.6458  -15.6719   21.2862 N   0  0  0  0  0  0  0  0  0  0  0  0
    7.9034  -14.9564   22.5123 C   0  0  0  0  0  0  0  0  0  0  0  0
    8.5097  -15.9011   23.5023 C   0  0  0  0  0  0  0  0  0  0  0  0
    7.9892  -17.0118   23.7909 O   0  0  0  0  0  0  0  0  0  0  0  0
    9.7283  -15.5697   24.1717 N   0  0  0  0  0  0  0  0  0  0  0  0
   10.4125  -16.4795   25.0796 C   0  0  1  0  0  0  0  0  0  0  0  0
   11.8795  -16.2240   24.9054 C   0  0  0  0  0  0  0  0  0  0  0  0
   12.3983  -16.4997   23.5165 C   0  0  0  0  0  0  0  0  0  0  0  0
   13.8531  -16.1847   23.5224 C   0  0  0  0  0  0  0  0  0  0  0  0
   14.4945  -15.7208   22.5657 O   0  0  0  0  0  0  0  0  0  0  0  0
    9.9211  -16.2353   26.4364 C   0  0  0  0  0  0  0  0  0  0  0  0
    9.2590  -15.2248   26.7871 O   0  0  0  0  0  0  0  0  0  0  0  0
   14.5453  -16.4355   24.7070 O   0  0  0  0  0  0  0  0  0  0  0  0
   10.1782  -17.1562   27.4445 O   0  0  0  0  0  0  0  0  0  0  0  0
  2  1  1  1
  2  3  1  0
  3  4  1  0
  4  8  1  0
  5  4  2  0
  6  9  1  0
  6  2  1  0
  7  6  2  0
 10  9  1  0
 11 13  1  0
 11 10  1  0
 12 11  2  0
 14 13  1  0
 14 15  1  1
 15 16  1  0
 16 17  1  0
 17 18  2  0
 17 21  1  0
 19 14  1  0
 20 19  2  0
 22 19  1  0
M  END
$$$$
