DGE.pdb
     RDKit          3D

 22 21  0  0  1  0  0  0  0  0999 V2000
   12.1128  -19.8553   19.9972 N   0  0  0  0  0  0  0  0  0  0  0  0
   12.2016  -18.4903   19.5478 C   0  0  1  0  0  0  0  0  0  0  0  0
   11.5959  -18.4259   18.1535 C   0  0  0  0  0  0  0  0  0  0  0  0
   12.6347  -18.6779   17.1410 C   0  0  0  0  0  0  0  0  0  0  0  0
   13.8480  -18.7759   17.4815 O   0  0  0  0  0  0  0  0  0  0  0  0
   11.4890  -17.6065   20.4852 C   0  0  0  0  0  0  0  0  0  0  0  0
   11.5157  -16.3602   20.3431 O   0  0  0  0  0  0  0  0  0  0  0  0
   12.3320  -18.8160   15.7966 O   0  0  0  0  0  0  0  0  0  0  0  0
   10.7607  -18.1421   21.5626 N   0  0  0  0  0  0  0  0  0  0  0  0
   10.0638  -17.3100   22.5132 C   0  0  0  0  0  0  0  0  0  0  0  0
   10.9322  -17.1251   23.7181 C   0  0  0  0  0  0  0  0  0  0  0  0
   12.1593  -17.4114   23.7237 O   0  0  0  0  0  0  0  0  0  0  0  0
   10.3884  -16.6058   24.9337 N   0  0  0  0  0  0  0  0  0  0  0  0
   11.2009  -16.2897   26.0999 C   0  0  1  0  0  0  0  0  0  0  0  0
   10.3696  -15.3855   26.9597 C   0  0  0  0  0  0  0  0  0  0  0  0
   11.0298  -14.9762   28.2522 C   0  0  0  0  0  0  0  0  0  0  0  0
   10.0851  -14.0673   28.9573 C   0  0  0  0  0  0  0  0  0  0  0  0
    8.9732  -13.7127   28.5330 O   0  0  0  0  0  0  0  0  0  0  0  0
   11.5852  -17.5436   26.7495 C   0  0  0  0  0  0  0  0  0  0  0  0
   12.6183  -17.6999   27.4499 O   0  0  0  0  0  0  0  0  0  0  0  0
   10.4921  -13.5782   30.1984 O   0  0  0  0  0  0  0  0  0  0  0  0
   10.7842  -18.6707   26.6126 O   0  0  0  0  0  0  0  0  0  0  0  0
  2  1  1  1
  2  3  1  0
  3  4  1  0
  4  8  1  0
  5  4  2  0
  6  9  1  0
  6  2  1  0
  7  6  2  0
 10  9  1  0
 11 13  1  0
 11 10  1  0
 12 11  2  0
 14 13  1  0
 14 15  1  1
 15 16  1  0
 16 17  1  0
 17 18  2  0
 17 21  1  0
 19 14  1  0
 20 19  2  0
 22 19  1  0
M  END
$$$$
