IIW.pdb
     RDKit          3D

 31 32  0  0  1  0  0  0  0  0999 V2000
    7.4999  -12.1836   21.3666 C   0  0  0  0  0  0  0  0  0  0  0  0
    7.7737  -13.5549   20.8038 C   0  0  0  0  0  0  0  0  0  0  0  0
    8.1840  -14.5446   21.8523 C   0  0  2  0  0  0  0  0  0  0  0  0
    9.4053  -14.0843   22.5937 C   0  0  0  0  0  0  0  0  0  0  0  0
    8.4702  -15.8673   21.2094 C   0  0  2  0  0  0  0  0  0  0  0  0
    7.3985  -16.3108   20.3347 N   0  0  0  0  0  0  0  0  0  0  0  0
    8.7991  -16.9198   22.2175 C   0  0  0  0  0  0  0  0  0  0  0  0
    8.3307  -18.0790   22.0845 O   0  0  0  0  0  0  0  0  0  0  0  0
   12.0273  -19.0025   20.3471 C   0  0  0  0  0  0  0  0  0  0  0  0
   11.1098  -18.6284   21.4566 C   0  0  0  0  0  0  0  0  0  0  0  0
   11.6773  -17.7438   22.5118 C   0  0  2  0  0  0  0  0  0  0  0  0
   12.9531  -18.3830   23.0241 C   0  0  0  0  0  0  0  0  0  0  0  0
   10.7613  -17.5230   23.6915 C   0  0  2  0  0  0  0  0  0  0  0  0
    9.6297  -16.6938   23.3492 N   0  0  0  0  0  0  0  0  0  0  0  0
   11.4654  -17.0968   24.9213 C   0  0  0  0  0  0  0  0  0  0  0  0
   12.5821  -17.5928   25.2171 O   0  0  0  0  0  0  0  0  0  0  0  0
   10.9381  -16.1268   25.8166 N   0  0  0  0  0  0  0  0  0  0  0  0
   10.8475  -16.3774   27.2555 C   0  0  1  0  0  0  0  0  0  0  0  0
    9.4666  -16.0012   27.7662 C   0  0  0  0  0  0  0  0  0  0  0  0
    9.1697  -14.5878   27.4474 C   0  0  0  0  0  0  0  0  0  0  0  0
    9.9547  -13.4567   27.6835 C   0  0  0  0  0  0  0  0  0  0  0  0
    9.2607  -12.4030   27.2203 N   0  0  0  0  0  0  0  0  0  0  0  0
    8.0937  -12.7797   26.7074 C   0  0  0  0  0  0  0  0  0  0  0  0
    7.0300  -12.1247   26.1163 C   0  0  0  0  0  0  0  0  0  0  0  0
    5.9217  -12.7917   25.6677 C   0  0  0  0  0  0  0  0  0  0  0  0
    5.8487  -14.1610   25.8026 C   0  0  0  0  0  0  0  0  0  0  0  0
    6.9007  -14.8295   26.3898 C   0  0  0  0  0  0  0  0  0  0  0  0
    8.0119  -14.1403   26.8367 C   0  0  0  0  0  0  0  0  0  0  0  0
   11.0641  -17.8148   27.5501 C   0  0  0  0  0  0  0  0  0  0  0  0
   12.0099  -18.2964   28.4408 O   0  0  0  0  0  0  0  0  0  0  0  0
   10.3638  -18.7025   26.9737 O   0  0  0  0  0  0  0  0  0  0  0  0
  2  1  1  0
  2  3  1  0
  3  4  1  6
  5  3  1  0
  5  6  1  1
  7  5  1  0
  7  8  2  0
  9 10  1  0
 10 11  1  0
 11 13  1  0
 11 12  1  1
 13 14  1  6
 13 15  1  0
 14  7  1  0
 15 17  1  0
 16 15  2  0
 17 18  1  0
 18 19  1  6
 19 20  1  0
 20 21  2  0
 22 21  1  0
 23 22  1  0
 24 23  2  0
 25 24  1  0
 26 27  1  0
 26 25  2  0
 27 28  2  0
 28 20  1  0
 28 23  1  0
 29 18  1  0
 30 29  1  0
 31 29  2  0
M  END
$$$$
