IIW.pdb
     RDKit          3D

 31 32  0  0  1  0  0  0  0  0999 V2000
   11.5624  -21.5024   17.1968 C   0  0  0  0  0  0  0  0  0  0  0  0
   10.9486  -20.1397   17.0007 C   0  0  0  0  0  0  0  0  0  0  0  0
   11.0330  -19.2800   18.2258 C   0  0  2  0  0  0  0  0  0  0  0  0
   10.4232  -19.9601   19.4169 C   0  0  0  0  0  0  0  0  0  0  0  0
   10.3187  -17.9859   17.9811 C   0  0  2  0  0  0  0  0  0  0  0  0
   10.8447  -17.2609   16.8374 N   0  0  0  0  0  0  0  0  0  0  0  0
   10.3037  -17.1167   19.1962 C   0  0  0  0  0  0  0  0  0  0  0  0
   11.3814  -16.6421   19.6369 O   0  0  0  0  0  0  0  0  0  0  0  0
    6.6805  -13.1536   19.9118 C   0  0  0  0  0  0  0  0  0  0  0  0
    7.9002  -13.9987   20.0166 C   0  0  0  0  0  0  0  0  0  0  0  0
    7.9035  -15.0202   21.1004 C   0  0  2  0  0  0  0  0  0  0  0  0
    7.8928  -14.2930   22.4308 C   0  0  0  0  0  0  0  0  0  0  0  0
    9.1027  -15.9374   21.0813 C   0  0  2  0  0  0  0  0  0  0  0  0
    9.1201  -16.7796   19.9084 N   0  0  0  0  0  0  0  0  0  0  0  0
    9.3114  -16.6721   22.3488 C   0  0  0  0  0  0  0  0  0  0  0  0
    8.5726  -17.6446   22.6473 O   0  0  0  0  0  0  0  0  0  0  0  0
   10.3321  -16.3341   23.2786 N   0  0  0  0  0  0  0  0  0  0  0  0
   10.5376  -17.1015   24.5075 C   0  0  1  0  0  0  0  0  0  0  0  0
   11.6125  -16.4473   25.3593 C   0  0  0  0  0  0  0  0  0  0  0  0
   11.1602  -16.3417   26.7635 C   0  0  0  0  0  0  0  0  0  0  0  0
   11.1462  -17.3285   27.7522 C   0  0  0  0  0  0  0  0  0  0  0  0
   10.6472  -16.7556   28.8608 N   0  0  0  0  0  0  0  0  0  0  0  0
   10.3430  -15.4787   28.6509 C   0  0  0  0  0  0  0  0  0  0  0  0
    9.8171  -14.4606   29.4233 C   0  0  0  0  0  0  0  0  0  0  0  0
    9.6052  -13.2031   28.9253 C   0  0  0  0  0  0  0  0  0  0  0  0
    9.9211  -12.9270   27.6129 C   0  0  0  0  0  0  0  0  0  0  0  0
   10.4464  -13.9310   26.8289 C   0  0  0  0  0  0  0  0  0  0  0  0
   10.6540  -15.1946   27.3481 C   0  0  0  0  0  0  0  0  0  0  0  0
    9.2902  -17.1488   25.3086 C   0  0  0  0  0  0  0  0  0  0  0  0
    8.9780  -18.1532   26.2104 O   0  0  0  0  0  0  0  0  0  0  0  0
    8.4184  -16.2333   25.1966 O   0  0  0  0  0  0  0  0  0  0  0  0
  2  1  1  0
  2  3  1  0
  3  4  1  1
  5  3  1  0
  5  6  1  6
  7  5  1  0
  7  8  2  0
  9 10  1  0
 10 11  1  0
 11 13  1  0
 11 12  1  1
 13 14  1  6
 13 15  1  0
 14  7  1  0
 15 17  1  0
 16 15  2  0
 17 18  1  0
 18 19  1  1
 19 20  1  0
 20 21  2  0
 22 21  1  0
 23 22  1  0
 24 23  2  0
 25 24  1  0
 26 27  1  0
 26 25  2  0
 27 28  2  0
 28 20  1  0
 28 23  1  0
 29 18  1  0
 30 29  1  0
 31 29  2  0
M  END
$$$$
