IIW.pdb
     RDKit          3D

 31 32  0  0  1  0  0  0  0  0999 V2000
   11.8881  -21.0993   18.4062 C   0  0  0  0  0  0  0  0  0  0  0  0
   11.5165  -19.6922   18.0135 C   0  0  0  0  0  0  0  0  0  0  0  0
   11.2957  -18.7959   19.1946 C   0  0  2  0  0  0  0  0  0  0  0  0
   10.2378  -19.3425   20.1084 C   0  0  0  0  0  0  0  0  0  0  0  0
   10.8806  -17.4360   18.7220 C   0  0  2  0  0  0  0  0  0  0  0  0
   11.8503  -16.8326   17.8242 N   0  0  0  0  0  0  0  0  0  0  0  0
   10.5717  -16.5185   19.8600 C   0  0  0  0  0  0  0  0  0  0  0  0
   11.5102  -16.0239   20.5349 O   0  0  0  0  0  0  0  0  0  0  0  0
    6.6950  -12.6775   19.7310 C   0  0  0  0  0  0  0  0  0  0  0  0
    7.8953  -13.4889   20.0682 C   0  0  0  0  0  0  0  0  0  0  0  0
    7.7367  -14.4725   21.1751 C   0  0  2  0  0  0  0  0  0  0  0  0
    7.4736  -13.7017   22.4539 C   0  0  0  0  0  0  0  0  0  0  0  0
    8.9452  -15.3491   21.4007 C   0  0  2  0  0  0  0  0  0  0  0  0
    9.2512  -16.1558   20.2427 N   0  0  0  0  0  0  0  0  0  0  0  0
    8.8993  -16.1132   22.6672 C   0  0  0  0  0  0  0  0  0  0  0  0
    8.2899  -17.2114   22.7236 O   0  0  0  0  0  0  0  0  0  0  0  0
    9.5252  -15.6657   23.8623 N   0  0  0  0  0  0  0  0  0  0  0  0
    9.6599  -16.5351   25.0318 C   0  0  1  0  0  0  0  0  0  0  0  0
    9.4270  -15.7392   26.3050 C   0  0  0  0  0  0  0  0  0  0  0  0
    8.0770  -15.1351   26.2922 C   0  0  0  0  0  0  0  0  0  0  0  0
    6.8444  -15.7579   26.0823 C   0  0  0  0  0  0  0  0  0  0  0  0
    5.9086  -14.7967   26.1636 N   0  0  0  0  0  0  0  0  0  0  0  0
    6.4540  -13.6097   26.4095 C   0  0  0  0  0  0  0  0  0  0  0  0
    5.9665  -12.3283   26.5829 C   0  0  0  0  0  0  0  0  0  0  0  0
    6.7895  -11.2629   26.8321 C   0  0  0  0  0  0  0  0  0  0  0  0
    8.1510  -11.4577   26.9157 C   0  0  0  0  0  0  0  0  0  0  0  0
    8.6535  -12.7293   26.7452 C   0  0  0  0  0  0  0  0  0  0  0  0
    7.8081  -13.7932   26.4946 C   0  0  0  0  0  0  0  0  0  0  0  0
    8.6568  -17.6269   24.9893 C   0  0  0  0  0  0  0  0  0  0  0  0
    8.7883  -18.8355   25.6538 O   0  0  0  0  0  0  0  0  0  0  0  0
    7.5909  -17.4955   24.3130 O   0  0  0  0  0  0  0  0  0  0  0  0
  2  1  1  0
  2  3  1  0
  3  4  1  1
  5  3  1  0
  5  6  1  1
  7  5  1  0
  7  8  2  0
  9 10  1  0
 10 11  1  0
 11 13  1  0
 11 12  1  1
 13 14  1  6
 13 15  1  0
 14  7  1  0
 15 17  1  0
 16 15  2  0
 17 18  1  0
 18 19  1  1
 19 20  1  0
 20 21  2  0
 22 21  1  0
 23 22  1  0
 24 23  2  0
 25 24  1  0
 26 27  1  0
 26 25  2  0
 27 28  2  0
 28 20  1  0
 28 23  1  0
 29 18  1  0
 30 29  1  0
 31 29  2  0
M  END
$$$$
