IIW.pdb
     RDKit          3D

 31 32  0  0  1  0  0  0  0  0999 V2000
    5.4847  -21.9416   21.2824 C   0  0  0  0  0  0  0  0  0  0  0  0
    5.6252  -20.7475   20.3733 C   0  0  0  0  0  0  0  0  0  0  0  0
    6.6020  -19.7337   20.8884 C   0  0  2  0  0  0  0  0  0  0  0  0
    6.1881  -19.2054   22.2310 C   0  0  0  0  0  0  0  0  0  0  0  0
    6.6989  -18.5935   19.9214 C   0  0  2  0  0  0  0  0  0  0  0  0
    7.0513  -19.0231   18.5791 N   0  0  0  0  0  0  0  0  0  0  0  0
    7.6359  -17.5325   20.3995 C   0  0  0  0  0  0  0  0  0  0  0  0
    8.8689  -17.7708   20.4610 O   0  0  0  0  0  0  0  0  0  0  0  0
    7.1568  -12.3694   18.9687 C   0  0  0  0  0  0  0  0  0  0  0  0
    7.6616  -13.6817   19.4543 C   0  0  0  0  0  0  0  0  0  0  0  0
    7.7507  -13.8483   20.9315 C   0  0  2  0  0  0  0  0  0  0  0  0
    8.8270  -12.9122   21.4454 C   0  0  0  0  0  0  0  0  0  0  0  0
    8.1011  -15.2483   21.3755 C   0  0  2  0  0  0  0  0  0  0  0  0
    7.2165  -16.2346   20.8011 N   0  0  0  0  0  0  0  0  0  0  0  0
    8.2783  -15.3829   22.8385 C   0  0  0  0  0  0  0  0  0  0  0  0
    7.4486  -14.8646   23.6282 O   0  0  0  0  0  0  0  0  0  0  0  0
    9.3652  -16.0878   23.4233 N   0  0  0  0  0  0  0  0  0  0  0  0
    9.9075  -15.7172   24.7310 C   0  0  1  0  0  0  0  0  0  0  0  0
    9.0374  -16.2868   25.8389 C   0  0  0  0  0  0  0  0  0  0  0  0
    7.7618  -15.5429   25.9226 C   0  0  0  0  0  0  0  0  0  0  0  0
    6.4639  -16.0085   25.6989 C   0  0  0  0  0  0  0  0  0  0  0  0
    5.6412  -14.9639   25.8942 N   0  0  0  0  0  0  0  0  0  0  0  0
    6.3188  -13.8692   26.2252 C   0  0  0  0  0  0  0  0  0  0  0  0
    5.9788  -12.5640   26.5257 C   0  0  0  0  0  0  0  0  0  0  0  0
    6.9190  -11.6198   26.8402 C   0  0  0  0  0  0  0  0  0  0  0  0
    8.2525  -11.9661   26.8624 C   0  0  0  0  0  0  0  0  0  0  0  0
    8.6086  -13.2636   26.5653 C   0  0  0  0  0  0  0  0  0  0  0  0
    7.6463  -14.2038   26.2501 C   0  0  0  0  0  0  0  0  0  0  0  0
   11.2759  -16.2629   24.9028 C   0  0  0  0  0  0  0  0  0  0  0  0
   11.9384  -17.0249   23.9541 O   0  0  0  0  0  0  0  0  0  0  0  0
   11.9252  -16.0472   25.9717 O   0  0  0  0  0  0  0  0  0  0  0  0
  2  1  1  0
  2  3  1  0
  3  4  1  1
  5  3  1  0
  5  6  1  6
  7  5  1  0
  7  8  2  0
  9 10  1  0
 10 11  1  0
 11 13  1  0
 11 12  1  6
 13 14  1  1
 13 15  1  0
 14  7  1  0
 15 17  1  0
 16 15  2  0
 17 18  1  0
 18 19  1  1
 19 20  1  0
 20 21  2  0
 22 21  1  0
 23 22  1  0
 24 23  2  0
 25 24  1  0
 26 27  1  0
 26 25  2  0
 27 28  2  0
 28 20  1  0
 28 23  1  0
 29 18  1  0
 30 29  1  0
 31 29  2  0
M  END
$$$$
