IIW.pdb
     RDKit          3D

 31 32  0  0  1  0  0  0  0  0999 V2000
    9.3085  -21.5846   16.7080 C   0  0  0  0  0  0  0  0  0  0  0  0
    8.4690  -20.4549   17.2474 C   0  0  0  0  0  0  0  0  0  0  0  0
    9.2426  -19.5236   18.1315 C   0  0  2  0  0  0  0  0  0  0  0  0
    9.1701  -19.9456   19.5701 C   0  0  0  0  0  0  0  0  0  0  0  0
    8.6950  -18.1353   17.9994 C   0  0  2  0  0  0  0  0  0  0  0  0
    8.8543  -17.5930   16.6611 N   0  0  0  0  0  0  0  0  0  0  0  0
    9.2724  -17.2070   19.0178 C   0  0  0  0  0  0  0  0  0  0  0  0
   10.4856  -16.8838   18.9504 O   0  0  0  0  0  0  0  0  0  0  0  0
    6.9788  -12.6773   20.6155 C   0  0  0  0  0  0  0  0  0  0  0  0
    7.8823  -13.8255   20.3361 C   0  0  0  0  0  0  0  0  0  0  0  0
    8.2590  -14.6678   21.5050 C   0  0  2  0  0  0  0  0  0  0  0  0
    9.0485  -13.8052   22.4701 C   0  0  0  0  0  0  0  0  0  0  0  0
    9.1054  -15.8680   21.1546 C   0  0  2  0  0  0  0  0  0  0  0  0
    8.5221  -16.6478   20.0884 N   0  0  0  0  0  0  0  0  0  0  0  0
    9.5159  -16.6710   22.3280 C   0  0  0  0  0  0  0  0  0  0  0  0
    8.6562  -17.2901   23.0049 O   0  0  0  0  0  0  0  0  0  0  0  0
   10.8686  -16.7895   22.7480 N   0  0  0  0  0  0  0  0  0  0  0  0
   11.3159  -16.2929   24.0498 C   0  0  1  0  0  0  0  0  0  0  0  0
   10.3995  -15.1789   24.5278 C   0  0  0  0  0  0  0  0  0  0  0  0
    9.6630  -15.6048   25.7377 C   0  0  0  0  0  0  0  0  0  0  0  0
    8.7916  -16.6854   25.8935 C   0  0  0  0  0  0  0  0  0  0  0  0
    8.3718  -16.6605   27.1699 N   0  0  0  0  0  0  0  0  0  0  0  0
    8.9110  -15.6451   27.8371 C   0  0  0  0  0  0  0  0  0  0  0  0
    8.8239  -15.1719   29.1326 C   0  0  0  0  0  0  0  0  0  0  0  0
    9.5151  -14.0675   29.5531 C   0  0  0  0  0  0  0  0  0  0  0  0
   10.3287  -13.3941   28.6680 C   0  0  0  0  0  0  0  0  0  0  0  0
   10.4268  -13.8528   27.3725 C   0  0  0  0  0  0  0  0  0  0  0  0
    9.7221  -14.9695   26.9651 C   0  0  0  0  0  0  0  0  0  0  0  0
   11.2799  -17.3759   25.0625 C   0  0  0  0  0  0  0  0  0  0  0  0
   10.6177  -18.5813   24.8948 O   0  0  0  0  0  0  0  0  0  0  0  0
   11.8786  -17.2385   26.1732 O   0  0  0  0  0  0  0  0  0  0  0  0
  2  1  1  0
  2  3  1  0
  3  4  1  1
  5  3  1  0
  5  6  1  6
  7  5  1  0
  7  8  2  0
  9 10  1  0
 10 11  1  0
 11 13  1  0
 11 12  1  1
 13 14  1  6
 13 15  1  0
 14  7  1  0
 15 17  1  0
 16 15  2  0
 17 18  1  0
 18 19  1  1
 19 20  1  0
 20 21  2  0
 22 21  1  0
 23 22  1  0
 24 23  2  0
 25 24  1  0
 26 27  1  0
 26 25  2  0
 27 28  2  0
 28 20  1  0
 28 23  1  0
 29 18  1  0
 30 29  1  0
 31 29  2  0
M  END
$$$$
