IIW.pdb
     RDKit          3D

 31 32  0  0  1  0  0  0  0  0999 V2000
    4.7935  -21.4565   22.5725 C   0  0  0  0  0  0  0  0  0  0  0  0
    5.0386  -20.5109   21.4246 C   0  0  0  0  0  0  0  0  0  0  0  0
    6.1583  -19.5498   21.6892 C   0  0  2  0  0  0  0  0  0  0  0  0
    5.9067  -18.7417   22.9288 C   0  0  0  0  0  0  0  0  0  0  0  0
    6.3105  -18.6228   20.5220 C   0  0  2  0  0  0  0  0  0  0  0  0
    6.5570  -19.3253   19.2745 N   0  0  0  0  0  0  0  0  0  0  0  0
    7.3614  -17.5885   20.7624 C   0  0  0  0  0  0  0  0  0  0  0  0
    8.5737  -17.9217   20.7728 O   0  0  0  0  0  0  0  0  0  0  0  0
    7.1098  -12.5483   18.7776 C   0  0  0  0  0  0  0  0  0  0  0  0
    7.5875  -13.8348   19.3517 C   0  0  0  0  0  0  0  0  0  0  0  0
    7.7695  -13.8703   20.8294 C   0  0  2  0  0  0  0  0  0  0  0  0
    8.9307  -12.9611   21.1813 C   0  0  0  0  0  0  0  0  0  0  0  0
    8.0693  -15.2429   21.3823 C   0  0  2  0  0  0  0  0  0  0  0  0
    7.0761  -16.2136   20.9864 N   0  0  0  0  0  0  0  0  0  0  0  0
    8.3684  -15.2496   22.8316 C   0  0  0  0  0  0  0  0  0  0  0  0
    7.6336  -14.6192   23.6337 O   0  0  0  0  0  0  0  0  0  0  0  0
    9.4719  -15.9506   23.3894 N   0  0  0  0  0  0  0  0  0  0  0  0
    9.9763  -15.6491   24.7296 C   0  0  1  0  0  0  0  0  0  0  0  0
    9.1213  -16.3407   25.7783 C   0  0  0  0  0  0  0  0  0  0  0  0
    7.7963  -15.6900   25.8698 C   0  0  0  0  0  0  0  0  0  0  0  0
    6.5416  -16.2177   25.5558 C   0  0  0  0  0  0  0  0  0  0  0  0
    5.6437  -15.2483   25.8015 N   0  0  0  0  0  0  0  0  0  0  0  0
    6.2337  -14.1440   26.2483 C   0  0  0  0  0  0  0  0  0  0  0  0
    5.7958  -12.8932   26.6400 C   0  0  0  0  0  0  0  0  0  0  0  0
    6.6583  -11.9204   27.0689 C   0  0  0  0  0  0  0  0  0  0  0  0
    8.0105  -12.1808   27.1176 C   0  0  0  0  0  0  0  0  0  0  0  0
    8.4638  -13.4231   26.7306 C   0  0  0  0  0  0  0  0  0  0  0  0
    7.5790  -14.3934   26.3004 C   0  0  0  0  0  0  0  0  0  0  0  0
   11.3684  -16.1365   24.8857 C   0  0  0  0  0  0  0  0  0  0  0  0
   12.1548  -15.9112   26.0039 O   0  0  0  0  0  0  0  0  0  0  0  0
   11.9224  -16.8080   23.9622 O   0  0  0  0  0  0  0  0  0  0  0  0
  2  1  1  0
  2  3  1  0
  3  4  1  1
  5  3  1  0
  5  6  1  6
  7  5  1  0
  7  8  2  0
  9 10  1  0
 10 11  1  0
 11 13  1  0
 11 12  1  6
 13 14  1  1
 13 15  1  0
 14  7  1  0
 15 17  1  0
 16 15  2  0
 17 18  1  0
 18 19  1  1
 19 20  1  0
 20 21  2  0
 22 21  1  0
 23 22  1  0
 24 23  2  0
 25 24  1  0
 26 27  1  0
 26 25  2  0
 27 28  2  0
 28 20  1  0
 28 23  1  0
 29 18  1  0
 30 29  1  0
 31 29  2  0
M  END
$$$$
