IIW.pdb
     RDKit          3D

 31 32  0  0  1  0  0  0  0  0999 V2000
   14.8764  -17.4533   20.8894 C   0  0  0  0  0  0  0  0  0  0  0  0
   14.3250  -16.2013   20.2565 C   0  0  0  0  0  0  0  0  0  0  0  0
   13.5989  -16.4676   18.9724 C   0  0  2  0  0  0  0  0  0  0  0  0
   14.5204  -17.0230   17.9257 C   0  0  0  0  0  0  0  0  0  0  0  0
   12.9917  -15.1951   18.4658 C   0  0  2  0  0  0  0  0  0  0  0  0
   13.9866  -14.1873   18.1419 N   0  0  0  0  0  0  0  0  0  0  0  0
   11.9724  -14.6468   19.4105 C   0  0  0  0  0  0  0  0  0  0  0  0
   12.2809  -13.7032   20.1821 O   0  0  0  0  0  0  0  0  0  0  0  0
    7.0414  -13.0849   18.0513 C   0  0  0  0  0  0  0  0  0  0  0  0
    8.3246  -13.3155   18.7676 C   0  0  0  0  0  0  0  0  0  0  0  0
    8.3225  -14.3953   19.7932 C   0  0  2  0  0  0  0  0  0  0  0  0
    7.3408  -14.0072   20.8815 C   0  0  0  0  0  0  0  0  0  0  0  0
    9.6650  -14.6344   20.4414 C   0  0  2  0  0  0  0  0  0  0  0  0
   10.6390  -15.1327   19.4989 N   0  0  0  0  0  0  0  0  0  0  0  0
    9.5906  -15.4169   21.6952 C   0  0  0  0  0  0  0  0  0  0  0  0
    9.6741  -16.6710   21.6661 O   0  0  0  0  0  0  0  0  0  0  0  0
    9.4271  -14.8154   22.9727 N   0  0  0  0  0  0  0  0  0  0  0  0
    9.3200  -15.6172   24.1921 C   0  0  1  0  0  0  0  0  0  0  0  0
    8.7696  -14.7710   25.3280 C   0  0  0  0  0  0  0  0  0  0  0  0
    8.8556  -15.5104   26.6061 C   0  0  0  0  0  0  0  0  0  0  0  0
    8.2526  -16.7208   26.9561 C   0  0  0  0  0  0  0  0  0  0  0  0
    8.6257  -16.9856   28.2198 N   0  0  0  0  0  0  0  0  0  0  0  0
    9.4208  -16.0342   28.6992 C   0  0  0  0  0  0  0  0  0  0  0  0
   10.0676  -15.8160   29.9007 C   0  0  0  0  0  0  0  0  0  0  0  0
   10.8466  -14.7115   30.1190 C   0  0  0  0  0  0  0  0  0  0  0  0
   11.0010  -13.7772   29.1182 C   0  0  0  0  0  0  0  0  0  0  0  0
   10.3629  -13.9796   27.9138 C   0  0  0  0  0  0  0  0  0  0  0  0
    9.5805  -15.1004   27.7107 C   0  0  0  0  0  0  0  0  0  0  0  0
    8.3952  -16.7585   23.9873 C   0  0  0  0  0  0  0  0  0  0  0  0
    8.6288  -18.0456   24.4440 O   0  0  0  0  0  0  0  0  0  0  0  0
    7.3051  -16.5985   23.3574 O   0  0  0  0  0  0  0  0  0  0  0  0
  2  1  1  0
  2  3  1  0
  3  4  1  6
  5  3  1  0
  5  6  1  1
  7  5  1  0
  7  8  2  0
  9 10  1  0
 10 11  1  0
 11 13  1  0
 11 12  1  1
 13 14  1  6
 13 15  1  0
 14  7  1  0
 15 17  1  0
 16 15  2  0
 17 18  1  0
 18 19  1  1
 19 20  1  0
 20 21  2  0
 22 21  1  0
 23 22  1  0
 24 23  2  0
 25 24  1  0
 26 27  1  0
 26 25  2  0
 27 28  2  0
 28 20  1  0
 28 23  1  0
 29 18  1  0
 30 29  1  0
 31 29  2  0
M  END
$$$$
