IIW.pdb
     RDKit          3D

 31 32  0  0  1  0  0  0  0  0999 V2000
    8.5847  -22.1328   20.9496 C   0  0  0  0  0  0  0  0  0  0  0  0
    8.4768  -20.9684   19.9984 C   0  0  0  0  0  0  0  0  0  0  0  0
    8.8963  -19.6689   20.6170 C   0  0  2  0  0  0  0  0  0  0  0  0
    8.0774  -19.3505   21.8339 C   0  0  0  0  0  0  0  0  0  0  0  0
    8.7397  -18.5636   19.6176 C   0  0  2  0  0  0  0  0  0  0  0  0
    9.4330  -18.8318   18.3695 N   0  0  0  0  0  0  0  0  0  0  0  0
    9.1516  -17.2410   20.1772 C   0  0  0  0  0  0  0  0  0  0  0  0
   10.3720  -16.9843   20.3375 O   0  0  0  0  0  0  0  0  0  0  0  0
    7.2707  -12.4272   18.6768 C   0  0  0  0  0  0  0  0  0  0  0  0
    8.0714  -13.5355   19.2628 C   0  0  0  0  0  0  0  0  0  0  0  0
    7.8583  -13.8086   20.7113 C   0  0  2  0  0  0  0  0  0  0  0  0
    8.3191  -12.5926   21.4909 C   0  0  0  0  0  0  0  0  0  0  0  0
    8.6133  -15.0082   21.2315 C   0  0  2  0  0  0  0  0  0  0  0  0
    8.2316  -16.2235   20.5512 N   0  0  0  0  0  0  0  0  0  0  0  0
    8.6088  -15.1215   22.7070 C   0  0  0  0  0  0  0  0  0  0  0  0
    7.7076  -14.5635   23.3831 O   0  0  0  0  0  0  0  0  0  0  0  0
    9.5937  -15.8489   23.4289 N   0  0  0  0  0  0  0  0  0  0  0  0
    9.5576  -15.9519   24.8882 C   0  0  1  0  0  0  0  0  0  0  0  0
    8.2819  -16.6479   25.3322 C   0  0  0  0  0  0  0  0  0  0  0  0
    7.2514  -15.6493   25.6907 C   0  0  0  0  0  0  0  0  0  0  0  0
    5.8748  -15.8320   25.8422 C   0  0  0  0  0  0  0  0  0  0  0  0
    5.3614  -14.6342   26.1707 N   0  0  0  0  0  0  0  0  0  0  0  0
    6.3084  -13.7039   26.2394 C   0  0  0  0  0  0  0  0  0  0  0  0
    6.3303  -12.3524   26.5267 C   0  0  0  0  0  0  0  0  0  0  0  0
    7.4902  -11.6251   26.5222 C   0  0  0  0  0  0  0  0  0  0  0  0
    8.6835  -12.2460   26.2233 C   0  0  0  0  0  0  0  0  0  0  0  0
    8.6792  -13.5932   25.9345 C   0  0  0  0  0  0  0  0  0  0  0  0
    7.4990  -14.3120   25.9439 C   0  0  0  0  0  0  0  0  0  0  0  0
   10.7057  -16.7493   25.3841 C   0  0  0  0  0  0  0  0  0  0  0  0
   11.3955  -17.6815   24.6261 O   0  0  0  0  0  0  0  0  0  0  0  0
   11.1219  -16.6065   26.5746 O   0  0  0  0  0  0  0  0  0  0  0  0
  2  1  1  0
  2  3  1  0
  3  4  1  1
  5  3  1  0
  5  6  1  6
  7  5  1  0
  7  8  2  0
  9 10  1  0
 10 11  1  0
 11 13  1  0
 11 12  1  1
 13 14  1  6
 13 15  1  0
 14  7  1  0
 15 17  1  0
 16 15  2  0
 17 18  1  0
 18 19  1  6
 19 20  1  0
 20 21  2  0
 22 21  1  0
 23 22  1  0
 24 23  2  0
 25 24  1  0
 26 27  1  0
 26 25  2  0
 27 28  2  0
 28 20  1  0
 28 23  1  0
 29 18  1  0
 30 29  1  0
 31 29  2  0
M  END
$$$$
