IIW.pdb
     RDKit          3D

 31 32  0  0  1  0  0  0  0  0999 V2000
    5.8158  -11.5263   27.5070 C   0  0  0  0  0  0  0  0  0  0  0  0
    5.3879  -12.7928   26.8107 C   0  0  0  0  0  0  0  0  0  0  0  0
    6.5129  -13.4693   26.0868 C   0  0  2  0  0  0  0  0  0  0  0  0
    7.2302  -12.5170   25.1747 C   0  0  0  0  0  0  0  0  0  0  0  0
    5.9754  -14.6110   25.2790 C   0  0  2  0  0  0  0  0  0  0  0  0
    5.2571  -15.5819   26.0864 N   0  0  0  0  0  0  0  0  0  0  0  0
    7.0430  -15.2789   24.4751 C   0  0  0  0  0  0  0  0  0  0  0  0
    7.4840  -16.4005   24.8333 O   0  0  0  0  0  0  0  0  0  0  0  0
    7.2183  -13.3889   19.5237 C   0  0  0  0  0  0  0  0  0  0  0  0
    7.2645  -14.5059   20.5050 C   0  0  0  0  0  0  0  0  0  0  0  0
    8.6045  -14.8377   21.0640 C   0  0  2  0  0  0  0  0  0  0  0  0
    9.2478  -15.8703   20.1593 C   0  0  0  0  0  0  0  0  0  0  0  0
    8.5675  -15.4036   22.4633 C   0  0  2  0  0  0  0  0  0  0  0  0
    7.6105  -14.7169   23.2987 N   0  0  0  0  0  0  0  0  0  0  0  0
    9.9037  -15.5523   23.0817 C   0  0  0  0  0  0  0  0  0  0  0  0
   10.6163  -14.5405   23.3029 O   0  0  0  0  0  0  0  0  0  0  0  0
   10.4465  -16.8120   23.4544 N   0  0  0  0  0  0  0  0  0  0  0  0
   11.8527  -16.9624   23.8304 C   0  0  1  0  0  0  0  0  0  0  0  0
   12.1575  -16.1254   25.0616 C   0  0  0  0  0  0  0  0  0  0  0  0
   11.1686  -16.4009   26.1263 C   0  0  0  0  0  0  0  0  0  0  0  0
   10.4036  -17.5519   26.3300 C   0  0  0  0  0  0  0  0  0  0  0  0
    9.6533  -17.3271   27.4222 N   0  0  0  0  0  0  0  0  0  0  0  0
    9.8840  -16.1196   27.9279 C   0  0  0  0  0  0  0  0  0  0  0  0
    9.4008  -15.4045   29.0071 C   0  0  0  0  0  0  0  0  0  0  0  0
    9.8347  -14.1384   29.2956 C   0  0  0  0  0  0  0  0  0  0  0  0
   10.7838  -13.5433   28.4934 C   0  0  0  0  0  0  0  0  0  0  0  0
   11.2761  -14.2427   27.4131 C   0  0  0  0  0  0  0  0  0  0  0  0
   10.8271  -15.5199   27.1368 C   0  0  0  0  0  0  0  0  0  0  0  0
   12.1579  -18.3768   24.1563 C   0  0  0  0  0  0  0  0  0  0  0  0
   13.4347  -18.8732   24.3639 O   0  0  0  0  0  0  0  0  0  0  0  0
   11.2233  -19.2288   24.2622 O   0  0  0  0  0  0  0  0  0  0  0  0
  2  1  1  0
  2  3  1  0
  3  4  1  6
  5  3  1  0
  5  6  1  1
  7  5  1  0
  7  8  2  0
  9 10  1  0
 10 11  1  0
 11 13  1  0
 11 12  1  6
 13 14  1  1
 13 15  1  0
 14  7  1  0
 15 17  1  0
 16 15  2  0
 17 18  1  0
 18 19  1  1
 19 20  1  0
 20 21  2  0
 22 21  1  0
 23 22  1  0
 24 23  2  0
 25 24  1  0
 26 27  1  0
 26 25  2  0
 27 28  2  0
 28 20  1  0
 28 23  1  0
 29 18  1  0
 30 29  1  0
 31 29  2  0
M  END
$$$$
