IIW.pdb
     RDKit          3D

 31 32  0  0  1  0  0  0  0  0999 V2000
    6.9683  -11.7741   19.5038 C   0  0  0  0  0  0  0  0  0  0  0  0
    7.5289  -13.1014   19.0609 C   0  0  0  0  0  0  0  0  0  0  0  0
    7.7199  -14.0620   20.1958 C   0  0  2  0  0  0  0  0  0  0  0  0
    8.6419  -13.5022   21.2396 C   0  0  0  0  0  0  0  0  0  0  0  0
    8.2901  -15.3462   19.6757 C   0  0  2  0  0  0  0  0  0  0  0  0
    7.4740  -15.9418   18.6318 N   0  0  0  0  0  0  0  0  0  0  0  0
    8.5461  -16.3290   20.7716 C   0  0  0  0  0  0  0  0  0  0  0  0
    7.5869  -16.9710   21.2702 O   0  0  0  0  0  0  0  0  0  0  0  0
   12.0518  -20.1759   20.3386 C   0  0  0  0  0  0  0  0  0  0  0  0
   10.9394  -19.2999   20.7946 C   0  0  0  0  0  0  0  0  0  0  0  0
   11.1899  -18.5042   22.0284 C   0  0  2  0  0  0  0  0  0  0  0  0
   11.3418  -19.4702   23.1870 C   0  0  0  0  0  0  0  0  0  0  0  0
   10.0852  -17.5344   22.3731 C   0  0  2  0  0  0  0  0  0  0  0  0
    9.8372  -16.5957   21.3041 N   0  0  0  0  0  0  0  0  0  0  0  0
   10.2410  -16.9011   23.7015 C   0  0  0  0  0  0  0  0  0  0  0  0
   11.0487  -15.9509   23.8603 O   0  0  0  0  0  0  0  0  0  0  0  0
    9.5064  -17.3154   24.8457 N   0  0  0  0  0  0  0  0  0  0  0  0
    9.7806  -16.7684   26.1750 C   0  0  1  0  0  0  0  0  0  0  0  0
    8.4879  -16.6344   26.9625 C   0  0  0  0  0  0  0  0  0  0  0  0
    7.5894  -15.6574   26.3103 C   0  0  0  0  0  0  0  0  0  0  0  0
    6.5514  -15.8948   25.4061 C   0  0  0  0  0  0  0  0  0  0  0  0
    6.0297  -14.6958   25.0954 N   0  0  0  0  0  0  0  0  0  0  0  0
    6.6582  -13.7141   25.7344 C   0  0  0  0  0  0  0  0  0  0  0  0
    6.5314  -12.3387   25.7771 C   0  0  0  0  0  0  0  0  0  0  0  0
    7.3451  -11.5555   26.5510 C   0  0  0  0  0  0  0  0  0  0  0  0
    8.3277  -12.1423   27.3183 C   0  0  0  0  0  0  0  0  0  0  0  0
    8.4676  -13.5127   27.2872 C   0  0  0  0  0  0  0  0  0  0  0  0
    7.6373  -14.2879   26.5004 C   0  0  0  0  0  0  0  0  0  0  0  0
   10.6832  -17.6679   26.9340 C   0  0  0  0  0  0  0  0  0  0  0  0
   11.3597  -17.3048   28.0873 O   0  0  0  0  0  0  0  0  0  0  0  0
   10.8836  -18.8583   26.5423 O   0  0  0  0  0  0  0  0  0  0  0  0
  2  1  1  0
  2  3  1  0
  3  4  1  1
  5  3  1  0
  5  6  1  6
  7  5  1  0
  7  8  2  0
  9 10  1  0
 10 11  1  0
 11 13  1  0
 11 12  1  1
 13 14  1  6
 13 15  1  0
 14  7  1  0
 15 17  1  0
 16 15  2  0
 17 18  1  0
 18 19  1  1
 19 20  1  0
 20 21  2  0
 22 21  1  0
 23 22  1  0
 24 23  2  0
 25 24  1  0
 26 27  1  0
 26 25  2  0
 27 28  2  0
 28 20  1  0
 28 23  1  0
 29 18  1  0
 30 29  1  0
 31 29  2  0
M  END
$$$$
