IIW.pdb
     RDKit          3D

 31 32  0  0  1  0  0  0  0  0999 V2000
    5.9842  -10.9393   27.3388 C   0  0  0  0  0  0  0  0  0  0  0  0
    5.4815  -12.2203   26.7238 C   0  0  0  0  0  0  0  0  0  0  0  0
    6.5639  -13.0075   26.0485 C   0  0  2  0  0  0  0  0  0  0  0  0
    7.3150  -12.1686   25.0559 C   0  0  0  0  0  0  0  0  0  0  0  0
    5.9627  -14.1835   25.3413 C   0  0  2  0  0  0  0  0  0  0  0  0
    5.2549  -15.0786   26.2403 N   0  0  0  0  0  0  0  0  0  0  0  0
    6.9769  -14.9328   24.5400 C   0  0  0  0  0  0  0  0  0  0  0  0
    7.5001  -15.9738   25.0128 O   0  0  0  0  0  0  0  0  0  0  0  0
    7.1746  -13.2715   19.4709 C   0  0  0  0  0  0  0  0  0  0  0  0
    7.1830  -14.4056   20.4334 C   0  0  0  0  0  0  0  0  0  0  0  0
    8.4951  -14.7301   21.0588 C   0  0  2  0  0  0  0  0  0  0  0  0
    9.1671  -15.7949   20.2143 C   0  0  0  0  0  0  0  0  0  0  0  0
    8.3937  -15.2523   22.4719 C   0  0  2  0  0  0  0  0  0  0  0  0
    7.4028  -14.5381   23.2421 N   0  0  0  0  0  0  0  0  0  0  0  0
    9.7005  -15.3846   23.1536 C   0  0  0  0  0  0  0  0  0  0  0  0
   10.3856  -14.3634   23.4153 O   0  0  0  0  0  0  0  0  0  0  0  0
   10.2443  -16.6382   23.5448 N   0  0  0  0  0  0  0  0  0  0  0  0
   11.5213  -16.7351   24.2529 C   0  0  1  0  0  0  0  0  0  0  0  0
   11.3753  -17.6254   25.4756 C   0  0  0  0  0  0  0  0  0  0  0  0
   10.2377  -17.1736   26.3058 C   0  0  0  0  0  0  0  0  0  0  0  0
    8.9442  -17.6970   26.3726 C   0  0  0  0  0  0  0  0  0  0  0  0
    8.2727  -16.9508   27.2662 N   0  0  0  0  0  0  0  0  0  0  0  0
    9.0424  -15.9925   27.7724 C   0  0  0  0  0  0  0  0  0  0  0  0
    8.8615  -14.9813   28.6968 C   0  0  0  0  0  0  0  0  0  0  0  0
    9.8657  -14.1139   29.0339 C   0  0  0  0  0  0  0  0  0  0  0  0
   11.1032  -14.2397   28.4412 C   0  0  0  0  0  0  0  0  0  0  0  0
   11.3003  -15.2427   27.5173 C   0  0  0  0  0  0  0  0  0  0  0  0
   10.2755  -16.1095   27.1890 C   0  0  0  0  0  0  0  0  0  0  0  0
   12.5596  -17.3323   23.3782 C   0  0  0  0  0  0  0  0  0  0  0  0
   12.3136  -17.8604   22.1211 O   0  0  0  0  0  0  0  0  0  0  0  0
   13.7685  -17.3885   23.7604 O   0  0  0  0  0  0  0  0  0  0  0  0
  2  1  1  0
  2  3  1  0
  3  4  1  6
  5  3  1  0
  5  6  1  1
  7  5  1  0
  7  8  2  0
  9 10  1  0
 10 11  1  0
 11 13  1  0
 11 12  1  6
 13 14  1  1
 13 15  1  0
 14  7  1  0
 15 17  1  0
 16 15  2  0
 17 18  1  0
 18 19  1  1
 19 20  1  0
 20 21  2  0
 22 21  1  0
 23 22  1  0
 24 23  2  0
 25 24  1  0
 26 27  1  0
 26 25  2  0
 27 28  2  0
 28 20  1  0
 28 23  1  0
 29 18  1  0
 30 29  1  0
 31 29  2  0
M  END
$$$$
