IIW.pdb
     RDKit          3D

 31 32  0  0  1  0  0  0  0  0999 V2000
    7.1216  -11.5992   20.0185 C   0  0  0  0  0  0  0  0  0  0  0  0
    7.5560  -12.9729   19.5753 C   0  0  0  0  0  0  0  0  0  0  0  0
    7.6216  -13.9567   20.7046 C   0  0  2  0  0  0  0  0  0  0  0  0
    8.6096  -13.5274   21.7499 C   0  0  0  0  0  0  0  0  0  0  0  0
    8.0194  -15.3012   20.1765 C   0  0  2  0  0  0  0  0  0  0  0  0
    7.0918  -15.8115   19.1818 N   0  0  0  0  0  0  0  0  0  0  0  0
    8.2186  -16.2963   21.2729 C   0  0  0  0  0  0  0  0  0  0  0  0
    7.2212  -16.8512   21.8003 O   0  0  0  0  0  0  0  0  0  0  0  0
   10.6200  -20.8290   21.1213 C   0  0  0  0  0  0  0  0  0  0  0  0
    9.8785  -19.5947   21.4950 C   0  0  0  0  0  0  0  0  0  0  0  0
   10.4825  -18.7637   22.5732 C   0  0  2  0  0  0  0  0  0  0  0  0
   10.5869  -19.6179   23.8215 C   0  0  0  0  0  0  0  0  0  0  0  0
    9.6869  -17.5282   22.9201 C   0  0  2  0  0  0  0  0  0  0  0  0
    9.4954  -16.6696   21.7750 N   0  0  0  0  0  0  0  0  0  0  0  0
   10.1789  -16.8207   24.1231 C   0  0  0  0  0  0  0  0  0  0  0  0
   11.2290  -16.1316   24.0685 O   0  0  0  0  0  0  0  0  0  0  0  0
    9.5122  -16.8738   25.3773 N   0  0  0  0  0  0  0  0  0  0  0  0
   10.1306  -16.3583   26.5993 C   0  0  1  0  0  0  0  0  0  0  0  0
    9.1040  -15.6029   27.4268 C   0  0  0  0  0  0  0  0  0  0  0  0
    7.9771  -15.1684   26.5731 C   0  0  0  0  0  0  0  0  0  0  0  0
    7.0189  -15.9530   25.9270 C   0  0  0  0  0  0  0  0  0  0  0  0
    6.2057  -15.1064   25.2726 N   0  0  0  0  0  0  0  0  0  0  0  0
    6.5752  -13.8425   25.4545 C   0  0  0  0  0  0  0  0  0  0  0  0
    6.1049  -12.6163   25.0244 C   0  0  0  0  0  0  0  0  0  0  0  0
    6.7059  -11.4392   25.3815 C   0  0  0  0  0  0  0  0  0  0  0  0
    7.8171  -11.4604   26.1960 C   0  0  0  0  0  0  0  0  0  0  0  0
    8.2990  -12.6747   26.6337 C   0  0  0  0  0  0  0  0  0  0  0  0
    7.6797  -13.8533   26.2635 C   0  0  0  0  0  0  0  0  0  0  0  0
   10.6532  -17.4706   27.4297 C   0  0  0  0  0  0  0  0  0  0  0  0
   11.5594  -17.3137   28.4659 O   0  0  0  0  0  0  0  0  0  0  0  0
   10.2776  -18.6641   27.2168 O   0  0  0  0  0  0  0  0  0  0  0  0
  2  1  1  0
  2  3  1  0
  3  4  1  1
  5  3  1  0
  5  6  1  6
  7  5  1  0
  7  8  2  0
  9 10  1  0
 10 11  1  0
 11 13  1  0
 11 12  1  1
 13 14  1  6
 13 15  1  0
 14  7  1  0
 15 17  1  0
 16 15  2  0
 17 18  1  0
 18 19  1  1
 19 20  1  0
 20 21  2  0
 22 21  1  0
 23 22  1  0
 24 23  2  0
 25 24  1  0
 26 27  1  0
 26 25  2  0
 27 28  2  0
 28 20  1  0
 28 23  1  0
 29 18  1  0
 30 29  1  0
 31 29  2  0
M  END
$$$$
