IIW.pdb
     RDKit          3D

 31 32  0  0  1  0  0  0  0  0999 V2000
    7.9570  -20.5616   18.6136 C   0  0  0  0  0  0  0  0  0  0  0  0
    7.3802  -19.2003   18.9074 C   0  0  0  0  0  0  0  0  0  0  0  0
    8.2324  -18.3947   19.8413 C   0  0  2  0  0  0  0  0  0  0  0  0
    8.5982  -19.1806   21.0667 C   0  0  0  0  0  0  0  0  0  0  0  0
    7.4940  -17.1581   20.2541 C   0  0  2  0  0  0  0  0  0  0  0  0
    7.0070  -16.3896   19.1215 N   0  0  0  0  0  0  0  0  0  0  0  0
    8.3081  -16.2983   21.1651 C   0  0  0  0  0  0  0  0  0  0  0  0
    9.4341  -15.8831   20.7899 O   0  0  0  0  0  0  0  0  0  0  0  0
    6.1390  -12.5097   24.4114 C   0  0  0  0  0  0  0  0  0  0  0  0
    7.0126  -13.3724   23.5715 C   0  0  0  0  0  0  0  0  0  0  0  0
    7.9337  -14.2873   24.3013 C   0  0  2  0  0  0  0  0  0  0  0  0
    8.9145  -13.4380   25.0859 C   0  0  0  0  0  0  0  0  0  0  0  0
    8.7279  -15.2077   23.4059 C   0  0  2  0  0  0  0  0  0  0  0  0
    7.8844  -15.9060   22.4645 N   0  0  0  0  0  0  0  0  0  0  0  0
    9.6652  -16.0886   24.1376 C   0  0  0  0  0  0  0  0  0  0  0  0
    9.3244  -17.2580   24.4490 O   0  0  0  0  0  0  0  0  0  0  0  0
   10.9712  -15.6787   24.5204 N   0  0  0  0  0  0  0  0  0  0  0  0
   11.8601  -16.5563   25.2828 C   0  0  1  0  0  0  0  0  0  0  0  0
   11.0458  -17.5682   26.0715 C   0  0  0  0  0  0  0  0  0  0  0  0
   11.0239  -17.2033   27.5047 C   0  0  0  0  0  0  0  0  0  0  0  0
   11.2731  -18.0133   28.6152 C   0  0  0  0  0  0  0  0  0  0  0  0
   11.1323  -17.2329   29.7002 N   0  0  0  0  0  0  0  0  0  0  0  0
   10.8124  -15.9876   29.3627 C   0  0  0  0  0  0  0  0  0  0  0  0
   10.5595  -14.8215   30.0597 C   0  0  0  0  0  0  0  0  0  0  0  0
   10.2436  -13.6487   29.4278 C   0  0  0  0  0  0  0  0  0  0  0  0
   10.1713  -13.6130   28.0523 C   0  0  0  0  0  0  0  0  0  0  0  0
   10.4207  -14.7671   27.3421 C   0  0  0  0  0  0  0  0  0  0  0  0
   10.7384  -15.9421   27.9962 C   0  0  0  0  0  0  0  0  0  0  0  0
   12.7589  -17.3074   24.3730 C   0  0  0  0  0  0  0  0  0  0  0  0
   12.7371  -17.2038   22.9916 O   0  0  0  0  0  0  0  0  0  0  0  0
   13.6220  -18.1118   24.8407 O   0  0  0  0  0  0  0  0  0  0  0  0
  2  1  1  0
  2  3  1  0
  3  4  1  1
  5  3  1  0
  5  6  1  6
  7  5  1  0
  7  8  2  0
  9 10  1  0
 10 11  1  0
 11 13  1  0
 11 12  1  6
 13 14  1  1
 13 15  1  0
 14  7  1  0
 15 17  1  0
 16 15  2  0
 17 18  1  0
 18 19  1  6
 19 20  1  0
 20 21  2  0
 22 21  1  0
 23 22  1  0
 24 23  2  0
 25 24  1  0
 26 27  1  0
 26 25  2  0
 27 28  2  0
 28 20  1  0
 28 23  1  0
 29 18  1  0
 30 29  1  0
 31 29  2  0
M  END
$$$$
