RNV.pdb
     RDKit          3D

 27 26  0  0  1  0  0  0  0  0999 V2000
   30.5322  -23.6422  -18.1255 N   0  0  0  0  0  0  0  0  0  0  0  0
   29.7352  -22.6778  -18.8337 C   0  0  0  0  0  0  0  0  0  0  0  0
   29.7443  -22.7080  -20.1010 N   0  0  0  0  0  0  0  0  0  0  0  0
   28.9571  -21.7355  -18.1569 N   0  0  0  0  0  0  0  0  0  0  0  0
   28.5037  -21.8275  -16.7859 C   0  0  0  0  0  0  0  0  0  0  0  0
   27.6497  -20.6933  -16.3508 C   0  0  0  0  0  0  0  0  0  0  0  0
   27.2369  -20.5735  -14.9558 C   0  0  0  0  0  0  0  0  0  0  0  0
   25.9599  -21.3160  -14.6210 C   0  0  2  0  0  0  0  0  0  0  0  0
   25.5764  -22.2823  -15.5683 N   0  0  0  0  0  0  0  0  0  0  0  0
   24.8776  -20.3274  -14.3454 C   0  0  0  0  0  0  0  0  0  0  0  0
   25.0559  -19.4346  -13.4915 O   0  0  0  0  0  0  0  0  0  0  0  0
   29.2597  -22.0707  -20.7514 N   0  0  0  0  0  0  0  0  0  0  0  0
   20.5488  -17.5847  -14.3488 C   0  0  0  0  0  0  0  0  0  0  0  0
   20.8515  -17.9210  -15.7167 O   0  0  0  0  0  0  0  0  0  0  0  0
   20.2534  -17.4103  -16.6756 C   0  0  0  0  0  0  0  0  0  0  0  0
   21.9182  -18.9109  -15.9088 C   0  0  2  0  0  0  0  0  0  0  0  0
   22.5618  -19.4063  -14.6309 N   0  0  0  0  0  0  0  0  0  0  0  0
   23.6476  -20.3565  -15.0215 C   0  0  0  0  0  0  0  0  0  0  0  0
   21.5749  -20.0859  -13.7979 O   0  0  0  0  0  0  0  0  0  0  0  0
   20.9310  -21.0767  -14.2902 C   0  0  0  0  0  0  0  0  0  0  0  0
   20.9552  -19.0174   -9.6713 C   0  0  2  0  0  0  0  0  0  0  0  0
   20.9782  -20.4120  -10.2064 C   0  0  0  0  0  0  0  0  0  0  0  0
   20.3342  -21.3554   -9.2463 C   0  0  1  0  0  0  0  0  0  0  0  0
   20.3918  -20.5188  -11.6190 N   0  0  0  0  0  0  0  0  0  0  0  0
   21.2610  -19.7522  -12.4822 C   0  0  0  0  0  0  0  0  0  0  0  0
   18.9830  -20.1821  -11.6527 O   0  0  0  0  0  0  0  0  0  0  0  0
   18.0402  -21.1466  -11.3495 O   0  0  0  0  0  0  0  0  0  0  0  0
  2  1  1  0
  3  2  2  0
  4  2  1  0
  5  6  1  0
  5  4  1  0
  7  6  1  0
  8  7  1  0
  8  9  1  6
 10 17  1  0
 10  8  1  0
 11 10  2  0
 13 12  1  0
 14 13  2  0
 15 13  1  0
 16 15  1  6
 16 17  1  0
 18 19  2  0
 18 16  1  0
 21 20  1  1
 21 22  1  0
 23 24  1  1
 23 21  1  0
 24 18  1  0
 25 23  1  0
 26 25  1  0
 27 25  2  0
M  END
$$$$
