RNV.pdb
     RDKit          3D

 27 26  0  0  1  0  0  0  0  0999 V2000
   30.3130  -23.1513  -17.1167 N   0  0  0  0  0  0  0  0  0  0  0  0
   29.1131  -22.9515  -16.3505 C   0  0  0  0  0  0  0  0  0  0  0  0
   28.4620  -23.9740  -15.9797 N   0  0  0  0  0  0  0  0  0  0  0  0
   28.6717  -21.6718  -16.0055 N   0  0  0  0  0  0  0  0  0  0  0  0
   29.2902  -20.4216  -16.3906 C   0  0  0  0  0  0  0  0  0  0  0  0
   28.5672  -19.2145  -15.9162 C   0  0  0  0  0  0  0  0  0  0  0  0
   27.1462  -19.0450  -16.2044 C   0  0  0  0  0  0  0  0  0  0  0  0
   26.7617  -19.3604  -17.6350 C   0  0  2  0  0  0  0  0  0  0  0  0
   27.2476  -18.4481  -18.5888 N   0  0  0  0  0  0  0  0  0  0  0  0
   25.2828  -19.5360  -17.7163 C   0  0  0  0  0  0  0  0  0  0  0  0
   24.5669  -18.5924  -18.1103 O   0  0  0  0  0  0  0  0  0  0  0  0
   27.5625  -24.0014  -15.4756 N   0  0  0  0  0  0  0  0  0  0  0  0
   20.5331  -21.5169  -17.7808 C   0  0  0  0  0  0  0  0  0  0  0  0
   21.4236  -22.6495  -17.7774 O   0  0  0  0  0  0  0  0  0  0  0  0
   21.0194  -23.8144  -17.9103 C   0  0  0  0  0  0  0  0  0  0  0  0
   22.8483  -22.3398  -17.6065 C   0  0  2  0  0  0  0  0  0  0  0  0
   23.1671  -20.8644  -17.4875 N   0  0  0  0  0  0  0  0  0  0  0  0
   24.6519  -20.7406  -17.3672 C   0  0  0  0  0  0  0  0  0  0  0  0
   22.5185  -20.3001  -16.3081 O   0  0  0  0  0  0  0  0  0  0  0  0
   22.9500  -20.6326  -15.1497 C   0  0  0  0  0  0  0  0  0  0  0  0
   21.9820  -16.6068  -15.7983 C   0  0  2  0  0  0  0  0  0  0  0  0
   20.6921  -17.2995  -15.5014 C   0  0  0  0  0  0  0  0  0  0  0  0
   19.7138  -17.0885  -16.6082 C   0  0  2  0  0  0  0  0  0  0  0  0
   20.8768  -18.7812  -15.1539 N   0  0  0  0  0  0  0  0  0  0  0  0
   21.4485  -19.4081  -16.3238 C   0  0  0  0  0  0  0  0  0  0  0  0
   19.6642  -19.3743  -14.6275 O   0  0  0  0  0  0  0  0  0  0  0  0
   19.2706  -19.0947  -13.3322 O   0  0  0  0  0  0  0  0  0  0  0  0
  2  1  1  0
  3  2  2  0
  4  2  1  0
  5  6  1  0
  5  4  1  0
  7  6  1  0
  8  7  1  0
  8  9  1  6
 10 17  1  0
 10  8  1  0
 11 10  2  0
 13 12  1  0
 14 13  2  0
 15 13  1  0
 16 15  1  6
 16 17  1  0
 18 19  2  0
 18 16  1  0
 21 20  1  1
 21 22  1  0
 23 24  1  1
 23 21  1  0
 24 18  1  0
 25 23  1  0
 26 25  1  0
 27 25  2  0
M  END
$$$$
