RNV.pdb
     RDKit          3D

 27 26  0  0  1  0  0  0  0  0999 V2000
   25.2316  -23.6436  -16.6673 N   0  0  0  0  0  0  0  0  0  0  0  0
   25.4305  -24.5484  -15.5681 C   0  0  0  0  0  0  0  0  0  0  0  0
   26.0962  -25.6069  -15.7764 N   0  0  0  0  0  0  0  0  0  0  0  0
   24.9207  -24.2755  -14.2964 N   0  0  0  0  0  0  0  0  0  0  0  0
   23.5324  -24.0375  -13.9650 C   0  0  0  0  0  0  0  0  0  0  0  0
   22.8286  -23.1335  -14.9095 C   0  0  0  0  0  0  0  0  0  0  0  0
   21.3970  -22.8865  -14.7659 C   0  0  0  0  0  0  0  0  0  0  0  0
   20.5522  -24.1429  -14.7235 C   0  0  2  0  0  0  0  0  0  0  0  0
   20.6892  -24.9813  -15.8444 N   0  0  0  0  0  0  0  0  0  0  0  0
   19.1323  -23.7686  -14.4622 C   0  0  0  0  0  0  0  0  0  0  0  0
   18.3498  -23.5976  -15.4196 O   0  0  0  0  0  0  0  0  0  0  0  0
   26.3439  -26.3414  -15.0959 N   0  0  0  0  0  0  0  0  0  0  0  0
   14.6894  -24.0195  -10.5201 C   0  0  0  0  0  0  0  0  0  0  0  0
   15.5238  -23.0020  -11.1069 O   0  0  0  0  0  0  0  0  0  0  0  0
   15.1370  -21.8346  -11.2665 C   0  0  0  0  0  0  0  0  0  0  0  0
   16.8688  -23.4328  -11.5067 C   0  0  1  0  0  0  0  0  0  0  0  0
   17.2065  -23.1894  -12.9625 N   0  0  0  0  0  0  0  0  0  0  0  0
   18.6291  -23.6028  -13.1621 C   0  0  0  0  0  0  0  0  0  0  0  0
   17.0429  -21.7768  -13.2905 O   0  0  0  0  0  0  0  0  0  0  0  0
   17.8780  -20.9328  -12.8122 C   0  0  0  0  0  0  0  0  0  0  0  0
   14.9668  -20.6385  -16.6225 C   0  0  2  0  0  0  0  0  0  0  0  0
   15.9358  -19.7301  -15.9386 C   0  0  0  0  0  0  0  0  0  0  0  0
   15.7676  -18.3259  -16.4145 C   0  0  1  0  0  0  0  0  0  0  0  0
   15.8838  -19.8437  -14.4106 N   0  0  0  0  0  0  0  0  0  0  0  0
   16.0397  -21.2462  -14.0987 C   0  0  0  0  0  0  0  0  0  0  0  0
   14.7231  -19.1803  -13.8525 O   0  0  0  0  0  0  0  0  0  0  0  0
   13.6977  -19.9328  -13.3108 O   0  0  0  0  0  0  0  0  0  0  0  0
  2  1  1  0
  3  2  2  0
  4  2  1  0
  5  6  1  0
  5  4  1  0
  7  6  1  0
  8  7  1  0
  8  9  1  6
 10 17  1  0
 10  8  1  0
 11 10  2  0
 13 12  1  0
 14 13  2  0
 15 13  1  0
 16 15  1  6
 16 17  1  0
 18 19  2  0
 18 16  1  0
 21 20  1  6
 21 22  1  0
 23 24  1  6
 23 21  1  0
 24 18  1  0
 25 23  1  0
 26 25  1  0
 27 25  2  0
M  END
$$$$
