RNV.pdb
     RDKit          3D

 27 26  0  0  1  0  0  0  0  0999 V2000
   29.6290  -28.6768  -17.5571 N   0  0  0  0  0  0  0  0  0  0  0  0
   28.3832  -29.1385  -18.1063 C   0  0  0  0  0  0  0  0  0  0  0  0
   28.1869  -30.3888  -18.1780 N   0  0  0  0  0  0  0  0  0  0  0  0
   27.4014  -28.2450  -18.5413 N   0  0  0  0  0  0  0  0  0  0  0  0
   27.2378  -26.8754  -18.1040 C   0  0  0  0  0  0  0  0  0  0  0  0
   27.4813  -26.6673  -16.6540 C   0  0  0  0  0  0  0  0  0  0  0  0
   27.2432  -25.3617  -16.0460 C   0  0  0  0  0  0  0  0  0  0  0  0
   28.1039  -24.2495  -16.6084 C   0  0  2  0  0  0  0  0  0  0  0  0
   29.4892  -24.4706  -16.5080 N   0  0  0  0  0  0  0  0  0  0  0  0
   27.6881  -22.9536  -15.9983 C   0  0  0  0  0  0  0  0  0  0  0  0
   28.2569  -22.5435  -14.9656 O   0  0  0  0  0  0  0  0  0  0  0  0
   27.3659  -30.8779  -18.5661 N   0  0  0  0  0  0  0  0  0  0  0  0
   25.2737  -18.4991  -15.0047 C   0  0  0  0  0  0  0  0  0  0  0  0
   24.9762  -18.7924  -16.3836 O   0  0  0  0  0  0  0  0  0  0  0  0
   24.3378  -18.0131  -17.1070 C   0  0  0  0  0  0  0  0  0  0  0  0
   25.4781  -20.0775  -16.8848 C   0  0  1  0  0  0  0  0  0  0  0  0
   26.2835  -20.8782  -15.8834 N   0  0  0  0  0  0  0  0  0  0  0  0
   26.6698  -22.1596  -16.5493 C   0  0  0  0  0  0  0  0  0  0  0  0
   25.4837  -21.1515  -14.6936 O   0  0  0  0  0  0  0  0  0  0  0  0
   24.3862  -21.7973  -14.8242 C   0  0  0  0  0  0  0  0  0  0  0  0
   26.1879  -19.1498  -11.0093 C   0  0  2  0  0  0  0  0  0  0  0  0
   25.8299  -20.6002  -11.0143 C   0  0  0  0  0  0  0  0  0  0  0  0
   25.1932  -20.9903   -9.7225 C   0  0  1  0  0  0  0  0  0  0  0  0
   24.9876  -21.0027  -12.2306 N   0  0  0  0  0  0  0  0  0  0  0  0
   25.8115  -20.7690  -13.3946 C   0  0  0  0  0  0  0  0  0  0  0  0
   23.6821  -20.3745  -12.2231 O   0  0  0  0  0  0  0  0  0  0  0  0
   22.6513  -20.9442  -11.4994 O   0  0  0  0  0  0  0  0  0  0  0  0
  2  1  1  0
  3  2  2  0
  4  2  1  0
  5  6  1  0
  5  4  1  0
  7  6  1  0
  8  7  1  0
  8  9  1  1
 10 17  1  0
 10  8  1  0
 11 10  2  0
 13 12  1  0
 14 13  2  0
 15 13  1  0
 16 15  1  6
 16 17  1  0
 18 19  2  0
 18 16  1  0
 21 20  1  1
 21 22  1  0
 23 24  1  1
 23 21  1  0
 24 18  1  0
 25 23  1  0
 26 25  1  0
 27 25  2  0
M  END
$$$$
