RNV.pdb
     RDKit          3D

 27 26  0  0  1  0  0  0  0  0999 V2000
   28.4785  -20.9740  -18.1914 N   0  0  0  0  0  0  0  0  0  0  0  0
   27.9868  -22.1770  -17.5770 C   0  0  0  0  0  0  0  0  0  0  0  0
   27.7667  -23.1815  -18.3184 N   0  0  0  0  0  0  0  0  0  0  0  0
   27.7652  -22.2557  -16.2000 N   0  0  0  0  0  0  0  0  0  0  0  0
   27.9113  -21.1760  -15.2477 C   0  0  0  0  0  0  0  0  0  0  0  0
   26.6693  -20.8522  -14.5010 C   0  0  0  0  0  0  0  0  0  0  0  0
   26.0467  -19.5390  -14.6393 C   0  0  0  0  0  0  0  0  0  0  0  0
   24.8036  -19.3502  -13.7949 C   0  0  2  0  0  0  0  0  0  0  0  0
   24.7655  -20.1272  -12.6232 N   0  0  0  0  0  0  0  0  0  0  0  0
   23.5974  -19.5485  -14.6495 C   0  0  0  0  0  0  0  0  0  0  0  0
   23.4906  -18.9251  -15.7257 O   0  0  0  0  0  0  0  0  0  0  0  0
   27.3597  -24.0896  -18.0471 N   0  0  0  0  0  0  0  0  0  0  0  0
   19.3937  -23.5410  -16.0958 C   0  0  0  0  0  0  0  0  0  0  0  0
   19.4865  -22.2142  -15.5418 O   0  0  0  0  0  0  0  0  0  0  0  0
   18.5833  -21.3742  -15.6714 C   0  0  0  0  0  0  0  0  0  0  0  0
   20.7225  -21.9142  -14.8091 C   0  0  1  0  0  0  0  0  0  0  0  0
   21.4003  -20.6212  -15.2107 N   0  0  0  0  0  0  0  0  0  0  0  0
   22.5619  -20.4258  -14.2905 C   0  0  0  0  0  0  0  0  0  0  0  0
   20.4698  -19.5034  -15.0897 O   0  0  0  0  0  0  0  0  0  0  0  0
   20.2293  -19.0254  -13.9268 C   0  0  0  0  0  0  0  0  0  0  0  0
   20.6575  -16.2667  -16.9130 C   0  0  2  0  0  0  0  0  0  0  0  0
   19.2551  -16.7572  -17.0692 C   0  0  0  0  0  0  0  0  0  0  0  0
   19.0171  -17.2381  -18.4616 C   0  0  2  0  0  0  0  0  0  0  0  0
   18.8657  -17.7977  -16.0127 N   0  0  0  0  0  0  0  0  0  0  0  0
   19.8034  -18.8890  -16.1477 C   0  0  0  0  0  0  0  0  0  0  0  0
   17.4592  -18.1397  -16.0749 O   0  0  0  0  0  0  0  0  0  0  0  0
   16.5159  -17.2529  -15.5901 O   0  0  0  0  0  0  0  0  0  0  0  0
  2  1  1  0
  3  2  2  0
  4  2  1  0
  5  6  1  0
  5  4  1  0
  7  6  1  0
  8  7  1  0
  8  9  1  1
 10 17  1  0
 10  8  1  0
 11 10  2  0
 13 12  1  0
 14 13  2  0
 15 13  1  0
 16 15  1  6
 16 17  1  0
 18 19  2  0
 18 16  1  0
 21 20  1  6
 21 22  1  0
 23 24  1  1
 23 21  1  0
 24 18  1  0
 25 23  1  0
 26 25  1  0
 27 25  2  0
M  END
$$$$
