RNV.pdb
     RDKit          3D

 27 26  0  0  1  0  0  0  0  0999 V2000
   16.9682  -25.1494   -8.8761 N   0  0  0  0  0  0  0  0  0  0  0  0
   17.9370  -24.5859   -7.9759 C   0  0  0  0  0  0  0  0  0  0  0  0
   18.0285  -25.0764   -6.8106 N   0  0  0  0  0  0  0  0  0  0  0  0
   18.7706  -23.5346   -8.3652 N   0  0  0  0  0  0  0  0  0  0  0  0
   18.6832  -22.7871   -9.6010 C   0  0  0  0  0  0  0  0  0  0  0  0
   18.9092  -23.6022  -10.8215 C   0  0  0  0  0  0  0  0  0  0  0  0
   20.0112  -23.2868  -11.7255 C   0  0  0  0  0  0  0  0  0  0  0  0
   20.1042  -21.8229  -12.1027 C   0  0  2  0  0  0  0  0  0  0  0  0
   18.9152  -21.2705  -12.6117 N   0  0  0  0  0  0  0  0  0  0  0  0
   21.2623  -21.6277  -13.0221 C   0  0  0  0  0  0  0  0  0  0  0  0
   22.4038  -21.9864  -12.6665 O   0  0  0  0  0  0  0  0  0  0  0  0
   18.6361  -24.7618   -6.0388 N   0  0  0  0  0  0  0  0  0  0  0  0
   22.7031  -20.2136  -18.6316 C   0  0  0  0  0  0  0  0  0  0  0  0
   22.9005  -21.2167  -17.6164 O   0  0  0  0  0  0  0  0  0  0  0  0
   23.8885  -21.9662  -17.6047 C   0  0  0  0  0  0  0  0  0  0  0  0
   21.8551  -21.2987  -16.5892 C   0  0  2  0  0  0  0  0  0  0  0  0
   22.3074  -20.9277  -15.1926 N   0  0  0  0  0  0  0  0  0  0  0  0
   21.1189  -21.0523  -14.2946 C   0  0  0  0  0  0  0  0  0  0  0  0
   22.8121  -19.5585  -15.1712 O   0  0  0  0  0  0  0  0  0  0  0  0
   21.9817  -18.5986  -15.0055 C   0  0  0  0  0  0  0  0  0  0  0  0
   26.9416  -18.6475  -15.8922 C   0  0  2  0  0  0  0  0  0  0  0  0
   26.1192  -17.9145  -14.8831 C   0  0  0  0  0  0  0  0  0  0  0  0
   26.7129  -16.5772  -14.5906 C   0  0  1  0  0  0  0  0  0  0  0  0
   24.6379  -17.8289  -15.2692 N   0  0  0  0  0  0  0  0  0  0  0  0
   24.1473  -19.1875  -15.3144 C   0  0  0  0  0  0  0  0  0  0  0  0
   24.4280  -17.0238  -16.4552 O   0  0  0  0  0  0  0  0  0  0  0  0
   24.4810  -17.6152  -17.7036 O   0  0  0  0  0  0  0  0  0  0  0  0
  2  1  1  0
  3  2  2  0
  4  2  1  0
  5  6  1  0
  5  4  1  0
  7  6  1  0
  8  7  1  0
  8  9  1  6
 10 17  1  0
 10  8  1  0
 11 10  2  0
 13 12  1  0
 14 13  2  0
 15 13  1  0
 16 15  1  1
 16 17  1  0
 18 19  2  0
 18 16  1  0
 21 20  1  1
 21 22  1  0
 23 24  1  1
 23 21  1  0
 24 18  1  0
 25 23  1  0
 26 25  1  0
 27 25  2  0
M  END
$$$$
