RNV.pdb
     RDKit          3D

 27 26  0  0  1  0  0  0  0  0999 V2000
   31.0092  -23.6502  -14.7231 N   0  0  0  0  0  0  0  0  0  0  0  0
   31.3504  -23.9936  -16.0767 C   0  0  0  0  0  0  0  0  0  0  0  0
   32.4294  -24.6271  -16.2801 N   0  0  0  0  0  0  0  0  0  0  0  0
   30.5189  -23.6562  -17.1473 N   0  0  0  0  0  0  0  0  0  0  0  0
   29.3615  -22.7895  -17.0906 C   0  0  0  0  0  0  0  0  0  0  0  0
   29.6128  -21.4825  -16.4322 C   0  0  0  0  0  0  0  0  0  0  0  0
   28.7759  -21.0443  -15.3193 C   0  0  0  0  0  0  0  0  0  0  0  0
   27.3103  -20.8899  -15.6687 C   0  0  2  0  0  0  0  0  0  0  0  0
   27.0600  -20.1536  -16.8406 N   0  0  0  0  0  0  0  0  0  0  0  0
   26.5807  -20.3457  -14.4872 C   0  0  0  0  0  0  0  0  0  0  0  0
   26.6432  -19.1263  -14.2274 O   0  0  0  0  0  0  0  0  0  0  0  0
   32.8043  -24.9632  -17.1804 N   0  0  0  0  0  0  0  0  0  0  0  0
   23.2934  -19.6185  -10.6361 C   0  0  0  0  0  0  0  0  0  0  0  0
   22.6778  -20.3886  -11.6867 O   0  0  0  0  0  0  0  0  0  0  0  0
   21.4635  -20.6399  -11.7037 C   0  0  0  0  0  0  0  0  0  0  0  0
   23.5803  -20.8608  -12.7437 C   0  0  1  0  0  0  0  0  0  0  0  0
   25.0440  -20.5483  -12.5147 N   0  0  0  0  0  0  0  0  0  0  0  0
   25.8093  -21.1605  -13.6435 C   0  0  0  0  0  0  0  0  0  0  0  0
   25.4884  -21.1102  -11.2432 O   0  0  0  0  0  0  0  0  0  0  0  0
   25.3829  -22.3723  -11.0572 C   0  0  0  0  0  0  0  0  0  0  0  0
   26.4649  -18.5820   -7.8558 C   0  0  2  0  0  0  0  0  0  0  0  0
   27.1335  -19.8902   -8.1269 C   0  0  0  0  0  0  0  0  0  0  0  0
   27.7231  -20.4499   -6.8756 C   0  0  1  0  0  0  0  0  0  0  0  0
   26.2195  -20.8899   -8.8449 N   0  0  0  0  0  0  0  0  0  0  0  0
   26.0339  -20.3849  -10.1862 C   0  0  0  0  0  0  0  0  0  0  0  0
   25.0179  -21.1739   -8.0868 O   0  0  0  0  0  0  0  0  0  0  0  0
   25.0328  -22.1668   -7.1250 O   0  0  0  0  0  0  0  0  0  0  0  0
  2  1  1  0
  3  2  2  0
  4  2  1  0
  5  6  1  0
  5  4  1  0
  7  6  1  0
  8  7  1  0
  8  9  1  6
 10 17  1  0
 10  8  1  0
 11 10  2  0
 13 12  1  0
 14 13  2  0
 15 13  1  0
 16 15  1  6
 16 17  1  0
 18 19  2  0
 18 16  1  0
 21 20  1  6
 21 22  1  0
 23 24  1  6
 23 21  1  0
 24 18  1  0
 25 23  1  0
 26 25  1  0
 27 25  2  0
M  END
$$$$
