RNV.pdb
     RDKit          3D

 27 26  0  0  1  0  0  0  0  0999 V2000
   26.3347  -21.3962  -18.6131 N   0  0  0  0  0  0  0  0  0  0  0  0
   25.7215  -22.1155  -17.5300 C   0  0  0  0  0  0  0  0  0  0  0  0
   25.3040  -23.2916  -17.7523 N   0  0  0  0  0  0  0  0  0  0  0  0
   25.5940  -21.5512  -16.2584 N   0  0  0  0  0  0  0  0  0  0  0  0
   25.7505  -20.1520  -15.9246 C   0  0  0  0  0  0  0  0  0  0  0  0
   27.1577  -19.7347  -15.6998 C   0  0  0  0  0  0  0  0  0  0  0  0
   27.5726  -19.2074  -14.4033 C   0  0  0  0  0  0  0  0  0  0  0  0
   27.8434  -20.2707  -13.3593 C   0  0  2  0  0  0  0  0  0  0  0  0
   27.5753  -21.5865  -13.7774 N   0  0  0  0  0  0  0  0  0  0  0  0
   27.1249  -19.9151  -12.1016 C   0  0  0  0  0  0  0  0  0  0  0  0
   27.1941  -18.7512  -11.6558 O   0  0  0  0  0  0  0  0  0  0  0  0
   24.8784  -23.9483  -17.0803 N   0  0  0  0  0  0  0  0  0  0  0  0
   23.2129  -21.1111  -12.6138 C   0  0  0  0  0  0  0  0  0  0  0  0
   23.4071  -20.3028  -11.4370 O   0  0  0  0  0  0  0  0  0  0  0  0
   22.9611  -19.1496  -11.3408 C   0  0  0  0  0  0  0  0  0  0  0  0
   24.1695  -20.9305  -10.3510 C   0  0  2  0  0  0  0  0  0  0  0  0
   25.5829  -20.4130  -10.1865 N   0  0  0  0  0  0  0  0  0  0  0  0
   26.3568  -20.8493  -11.3888 C   0  0  0  0  0  0  0  0  0  0  0  0
   26.1847  -20.9614   -8.9754 O   0  0  0  0  0  0  0  0  0  0  0  0
   26.4259  -22.2175   -8.9218 C   0  0  0  0  0  0  0  0  0  0  0  0
   29.2165  -19.8582   -6.8323 C   0  0  2  0  0  0  0  0  0  0  0  0
   27.9898  -19.9040   -5.9808 C   0  0  0  0  0  0  0  0  0  0  0  0
   27.5052  -18.5251   -5.6801 C   0  0  2  0  0  0  0  0  0  0  0  0
   26.8910  -20.7995   -6.5651 N   0  0  0  0  0  0  0  0  0  0  0  0
   26.5338  -20.2280   -7.8435 C   0  0  0  0  0  0  0  0  0  0  0  0
   25.8086  -21.0187   -5.6273 O   0  0  0  0  0  0  0  0  0  0  0  0
   26.0512  -21.6947   -4.4461 O   0  0  0  0  0  0  0  0  0  0  0  0
  2  1  1  0
  3  2  2  0
  4  2  1  0
  5  6  1  0
  5  4  1  0
  7  6  1  0
  8  7  1  0
  8  9  1  6
 10 17  1  0
 10  8  1  0
 11 10  2  0
 13 12  1  0
 14 13  2  0
 15 13  1  0
 16 15  1  6
 16 17  1  0
 18 19  2  0
 18 16  1  0
 21 20  1  1
 21 22  1  0
 23 24  1  1
 23 21  1  0
 24 18  1  0
 25 23  1  0
 26 25  1  0
 27 25  2  0
M  END
$$$$
