RNV.pdb
     RDKit          3D

 27 26  0  0  1  0  0  0  0  0999 V2000
   39.7604   -5.0075   -8.9245 N   0  0  0  0  0  0  0  0  0  0  0  0
   40.9750   -5.1204   -9.6851 C   0  0  0  0  0  0  0  0  0  0  0  0
   42.0539   -5.3494   -9.0604 N   0  0  0  0  0  0  0  0  0  0  0  0
   40.9793   -4.9961  -11.0766 N   0  0  0  0  0  0  0  0  0  0  0  0
   39.8164   -4.8521  -11.9255 C   0  0  0  0  0  0  0  0  0  0  0  0
   39.1087   -6.1265  -12.2082 C   0  0  0  0  0  0  0  0  0  0  0  0
   37.9624   -6.1490  -13.1117 C   0  0  0  0  0  0  0  0  0  0  0  0
   37.2838   -7.4987  -13.2190 C   0  0  2  0  0  0  0  0  0  0  0  0
   38.1527   -8.6016  -13.1362 N   0  0  0  0  0  0  0  0  0  0  0  0
   36.4435   -7.5268  -14.4510 C   0  0  0  0  0  0  0  0  0  0  0  0
   36.8417   -8.1456  -15.4593 O   0  0  0  0  0  0  0  0  0  0  0  0
   43.0054   -5.4283   -9.4509 N   0  0  0  0  0  0  0  0  0  0  0  0
   32.6500   -6.8405  -17.8744 C   0  0  0  0  0  0  0  0  0  0  0  0
   32.0807   -7.2449  -16.6142 O   0  0  0  0  0  0  0  0  0  0  0  0
   30.8916   -7.5772  -16.4971 C   0  0  0  0  0  0  0  0  0  0  0  0
   32.9990   -7.2406  -15.4690 C   0  0  2  0  0  0  0  0  0  0  0  0
   34.4319   -6.8860  -15.8060 N   0  0  0  0  0  0  0  0  0  0  0  0
   35.1998   -6.8797  -14.5235 C   0  0  0  0  0  0  0  0  0  0  0  0
   34.4931   -5.5705  -16.4349 O   0  0  0  0  0  0  0  0  0  0  0  0
   34.2111   -4.5383  -15.7322 C   0  0  0  0  0  0  0  0  0  0  0  0
   37.4025   -4.6460  -18.8838 C   0  0  2  0  0  0  0  0  0  0  0  0
   36.0969   -4.1594  -19.4228 C   0  0  0  0  0  0  0  0  0  0  0  0
   35.6480   -5.0099  -20.5637 C   0  0  2  0  0  0  0  0  0  0  0  0
   35.0218   -4.0126  -18.3397 N   0  0  0  0  0  0  0  0  0  0  0  0
   34.8416   -5.3246  -17.7612 C   0  0  0  0  0  0  0  0  0  0  0  0
   33.8311   -3.3541  -18.8373 O   0  0  0  0  0  0  0  0  0  0  0  0
   33.7698   -1.9732  -18.8591 O   0  0  0  0  0  0  0  0  0  0  0  0
  2  1  1  0
  3  2  2  0
  4  2  1  0
  5  6  1  0
  5  4  1  0
  7  6  1  0
  8  7  1  0
  8  9  1  6
 10 17  1  0
 10  8  1  0
 11 10  2  0
 13 12  1  0
 14 13  2  0
 15 13  1  0
 16 15  1  6
 16 17  1  0
 18 19  2  0
 18 16  1  0
 21 20  1  6
 21 22  1  0
 23 24  1  1
 23 21  1  0
 24 18  1  0
 25 23  1  0
 26 25  1  0
 27 25  2  0
M  END
$$$$
