RNV.pdb
     RDKit          3D

 27 26  0  0  1  0  0  0  0  0999 V2000
   33.8144  -27.0582  -14.8420 N   0  0  0  0  0  0  0  0  0  0  0  0
   34.6845  -26.0050  -15.2895 C   0  0  0  0  0  0  0  0  0  0  0  0
   35.7228  -25.7549  -14.6066 N   0  0  0  0  0  0  0  0  0  0  0  0
   34.4126  -25.2771  -16.4505 N   0  0  0  0  0  0  0  0  0  0  0  0
   33.1358  -24.7066  -16.8223 C   0  0  0  0  0  0  0  0  0  0  0  0
   32.8766  -23.3657  -16.2395 C   0  0  0  0  0  0  0  0  0  0  0  0
   31.6263  -22.6675  -16.5227 C   0  0  0  0  0  0  0  0  0  0  0  0
   30.3893  -23.3822  -16.0195 C   0  0  2  0  0  0  0  0  0  0  0  0
   29.8785  -24.3588  -16.8932 N   0  0  0  0  0  0  0  0  0  0  0  0
   29.3635  -22.3706  -15.6334 C   0  0  0  0  0  0  0  0  0  0  0  0
   29.6038  -21.5644  -14.7113 O   0  0  0  0  0  0  0  0  0  0  0  0
   36.4144  -25.0052  -14.7603 N   0  0  0  0  0  0  0  0  0  0  0  0
   24.3508  -19.6846  -17.9823 C   0  0  0  0  0  0  0  0  0  0  0  0
   25.2457  -19.9123  -16.8764 O   0  0  0  0  0  0  0  0  0  0  0  0
   25.1777  -19.2645  -15.8210 C   0  0  0  0  0  0  0  0  0  0  0  0
   26.2497  -20.9646  -17.0748 C   0  0  2  0  0  0  0  0  0  0  0  0
   27.1520  -21.2133  -15.8846 N   0  0  0  0  0  0  0  0  0  0  0  0
   28.1196  -22.2825  -16.2783 C   0  0  0  0  0  0  0  0  0  0  0  0
   26.3648  -21.6465  -14.7347 O   0  0  0  0  0  0  0  0  0  0  0  0
   25.6357  -22.6927  -14.8464 C   0  0  0  0  0  0  0  0  0  0  0  0
   26.6241  -19.6626  -10.9624 C   0  0  2  0  0  0  0  0  0  0  0  0
   26.2647  -21.1052  -11.1096 C   0  0  0  0  0  0  0  0  0  0  0  0
   25.5699  -21.6026   -9.8864 C   0  0  1  0  0  0  0  0  0  0  0  0
   25.4775  -21.3959  -12.3927 N   0  0  0  0  0  0  0  0  0  0  0  0
   26.3331  -21.0149  -13.4933 C   0  0  0  0  0  0  0  0  0  0  0  0
   24.1536  -20.8080  -12.3667 O   0  0  0  0  0  0  0  0  0  0  0  0
   23.8971  -19.6638  -13.0988 O   0  0  0  0  0  0  0  0  0  0  0  0
  2  1  1  0
  3  2  2  0
  4  2  1  0
  5  6  1  0
  5  4  1  0
  7  6  1  0
  8  7  1  0
  8  9  1  6
 10 17  1  0
 10  8  1  0
 11 10  2  0
 13 12  1  0
 14 13  2  0
 15 13  1  0
 16 15  1  6
 16 17  1  0
 18 19  2  0
 18 16  1  0
 21 20  1  1
 21 22  1  0
 23 24  1  1
 23 21  1  0
 24 18  1  0
 25 23  1  0
 26 25  1  0
 27 25  2  0
M  END
$$$$
