RVC.pdb
     RDKit          3D

 25 24  0  0  1  0  0  0  0  0999 V2000
   19.3106  -20.0292  -18.5304 N   0  0  0  0  0  0  0  0  0  0  0  0
   19.1143  -19.1010  -17.4585 C   0  0  0  0  0  0  0  0  0  0  0  0
   17.9594  -19.0399  -16.8834 N   0  0  0  0  0  0  0  0  0  0  0  0
   20.1864  -18.2747  -17.0537 N   0  0  0  0  0  0  0  0  0  0  0  0
   21.5099  -18.5346  -17.6333 C   0  0  0  0  0  0  0  0  0  0  0  0
   21.8967  -19.9612  -17.4832 C   0  0  0  0  0  0  0  0  0  0  0  0
   22.7214  -20.3231  -16.2957 C   0  0  0  0  0  0  0  0  0  0  0  0
   24.0294  -20.9490  -16.6154 C   0  0  2  0  0  0  0  0  0  0  0  0
   23.8374  -22.0864  -17.5050 N   0  0  0  0  0  0  0  0  0  0  0  0
   24.7076  -21.4842  -15.3945 C   0  0  0  0  0  0  0  0  0  0  0  0
   24.4957  -22.6513  -14.9871 O   0  0  0  0  0  0  0  0  0  0  0  0
   17.7923  -18.3592  -16.1121 C   0  0  0  0  0  0  0  0  0  0  0  0
   27.4221  -19.0672  -13.0449 C   0  0  1  0  0  0  0  0  0  0  0  0
   27.5515  -20.5455  -13.1928 C   0  0  0  0  0  0  0  0  0  0  0  0
   28.5804  -20.9418  -14.2282 C   0  0  1  0  0  0  0  0  0  0  0  0
   26.2302  -21.2015  -13.4125 N   0  0  0  0  0  0  0  0  0  0  0  0
   25.6351  -20.6977  -14.6215 C   0  0  0  0  0  0  0  0  0  0  0  0
   25.3132  -20.8772  -12.2839 O   0  0  0  0  0  0  0  0  0  0  0  0
   24.4607  -19.9457  -12.3506 N   0  0  0  0  0  0  0  0  0  0  0  0
   25.3512  -21.6082  -11.0616 C   0  0  1  0  0  0  0  0  0  0  0  0
   24.5478  -21.2297   -9.9060 C   0  0  0  0  0  0  0  0  0  0  0  0
   24.7875  -22.1634   -8.7405 S   0  0  0  0  0  0  0  0  0  0  0  0
   23.6890  -21.7857   -7.3703 C   0  0  0  0  0  0  0  0  0  0  0  0
   24.9856  -19.8770   -9.4786 O   0  0  0  0  0  0  0  0  0  0  0  0
   24.0590  -18.8698   -9.1474 O   0  0  0  0  0  0  0  0  0  0  0  0
  2  1  1  0
  3  2  2  0
  4  2  1  0
  5  4  1  0
  6  5  1  0
  7  6  1  0
  8 10  1  0
  8  7  1  0
  8  9  1  6
 10 11  2  0
 10 16  1  0
 13 14  1  6
 13 12  1  0
 15 13  1  0
 15 16  1  6
 17 18  2  0
 17 15  1  0
 19 17  1  0
 20 19  1  0
 20 21  1  1
 21 22  1  0
 23 20  1  0
 24 23  1  0
 25 23  2  0
M  END
$$$$
