RVC.pdb
     RDKit          3D

 25 24  0  0  1  0  0  0  0  0999 V2000
   17.7642  -25.0903  -13.0674 N   0  0  0  0  0  0  0  0  0  0  0  0
   16.9551  -25.2363  -11.8955 C   0  0  0  0  0  0  0  0  0  0  0  0
   16.2389  -26.3019  -11.7548 N   0  0  0  0  0  0  0  0  0  0  0  0
   16.9586  -24.2139  -10.9206 N   0  0  0  0  0  0  0  0  0  0  0  0
   18.1137  -23.3088  -10.8794 C   0  0  0  0  0  0  0  0  0  0  0  0
   19.1958  -23.8498  -10.0171 C   0  0  0  0  0  0  0  0  0  0  0  0
   19.1510  -23.5032   -8.5683 C   0  0  0  0  0  0  0  0  0  0  0  0
   20.4559  -23.0999   -7.9856 C   0  0  2  0  0  0  0  0  0  0  0  0
   20.3301  -22.9270   -6.5447 N   0  0  0  0  0  0  0  0  0  0  0  0
   20.9277  -21.7866   -8.5237 C   0  0  0  0  0  0  0  0  0  0  0  0
   20.4413  -20.7025   -8.1226 O   0  0  0  0  0  0  0  0  0  0  0  0
   15.6147  -26.4095  -10.9273 C   0  0  0  0  0  0  0  0  0  0  0  0
   24.5554  -21.3639  -10.6295 C   0  0  1  0  0  0  0  0  0  0  0  0
   23.7991  -20.2368  -10.0118 C   0  0  0  0  0  0  0  0  0  0  0  0
   24.2497  -19.9344   -8.6000 C   0  0  1  0  0  0  0  0  0  0  0  0
   22.3241  -20.4311  -10.1172 N   0  0  0  0  0  0  0  0  0  0  0  0
   21.9589  -21.6906   -9.5258 C   0  0  0  0  0  0  0  0  0  0  0  0
   21.9223  -20.4676  -11.5514 O   0  0  0  0  0  0  0  0  0  0  0  0
   21.8509  -21.5463  -12.2072 N   0  0  0  0  0  0  0  0  0  0  0  0
   21.5945  -19.2770  -12.2620 C   0  0  1  0  0  0  0  0  0  0  0  0
   21.0090  -19.3064  -13.5964 C   0  0  0  0  0  0  0  0  0  0  0  0
   20.1643  -18.0783  -13.8529 S   0  0  0  0  0  0  0  0  0  0  0  0
   18.6072  -18.1644  -12.9612 C   0  0  0  0  0  0  0  0  0  0  0  0
   22.1239  -19.2816  -14.5764 O   0  0  0  0  0  0  0  0  0  0  0  0
   21.9887  -19.8332  -15.8649 O   0  0  0  0  0  0  0  0  0  0  0  0
  2  1  1  0
  3  2  2  0
  4  2  1  0
  5  4  1  0
  6  5  1  0
  7  6  1  0
  8 10  1  0
  8  7  1  0
  8  9  1  1
 10 11  2  0
 10 16  1  0
 13 14  1  1
 13 12  1  0
 15 13  1  0
 15 16  1  1
 17 18  2  0
 17 15  1  0
 19 17  1  0
 20 19  1  0
 20 21  1  6
 21 22  1  0
 23 20  1  0
 24 23  1  0
 25 23  2  0
M  END
$$$$
