RVC.pdb
     RDKit          3D

 25 24  0  0  1  0  0  0  0  0999 V2000
   20.0245  -16.1267  -14.8667 N   0  0  0  0  0  0  0  0  0  0  0  0
   19.8494  -16.5377  -16.2268 C   0  0  0  0  0  0  0  0  0  0  0  0
   19.5270  -15.6556  -17.1134 N   0  0  0  0  0  0  0  0  0  0  0  0
   20.0337  -17.8961  -16.5683 N   0  0  0  0  0  0  0  0  0  0  0  0
   20.3787  -18.8335  -15.4924 C   0  0  0  0  0  0  0  0  0  0  0  0
   21.5463  -19.6752  -15.8605 C   0  0  0  0  0  0  0  0  0  0  0  0
   22.4671  -19.1449  -16.9055 C   0  0  0  0  0  0  0  0  0  0  0  0
   23.5690  -20.0643  -17.2867 C   0  0  2  0  0  0  0  0  0  0  0  0
   23.0312  -21.2450  -17.9489 N   0  0  0  0  0  0  0  0  0  0  0  0
   24.3215  -20.5617  -16.0937 C   0  0  0  0  0  0  0  0  0  0  0  0
   24.0183  -21.6415  -15.5326 O   0  0  0  0  0  0  0  0  0  0  0  0
   19.3149  -15.9472  -18.0912 C   0  0  0  0  0  0  0  0  0  0  0  0
   27.5703  -18.3165  -14.2535 C   0  0  1  0  0  0  0  0  0  0  0  0
   27.5682  -19.7950  -14.4485 C   0  0  0  0  0  0  0  0  0  0  0  0
   28.3501  -20.2248  -15.6699 C   0  0  1  0  0  0  0  0  0  0  0  0
   26.1879  -20.3591  -14.4196 N   0  0  0  0  0  0  0  0  0  0  0  0
   25.4284  -19.8359  -15.5237 C   0  0  0  0  0  0  0  0  0  0  0  0
   25.5031  -19.9502  -13.1612 O   0  0  0  0  0  0  0  0  0  0  0  0
   24.6108  -19.0547  -13.1362 N   0  0  0  0  0  0  0  0  0  0  0  0
   25.8224  -20.5545  -11.9111 C   0  0  1  0  0  0  0  0  0  0  0  0
   25.1164  -20.2144  -10.6822 C   0  0  0  0  0  0  0  0  0  0  0  0
   23.8061  -20.9624  -10.5763 S   0  0  0  0  0  0  0  0  0  0  0  0
   23.0168  -20.6667   -8.9899 C   0  0  0  0  0  0  0  0  0  0  0  0
   25.9619  -20.6519   -9.5430 O   0  0  0  0  0  0  0  0  0  0  0  0
   25.9564  -19.9679   -8.3122 O   0  0  0  0  0  0  0  0  0  0  0  0
  2  1  1  0
  3  2  2  0
  4  2  1  0
  5  4  1  0
  6  5  1  0
  7  6  1  0
  8 10  1  0
  8  7  1  0
  8  9  1  1
 10 11  2  0
 10 16  1  0
 13 14  1  6
 13 12  1  0
 15 13  1  0
 15 16  1  6
 17 18  2  0
 17 15  1  0
 19 17  1  0
 20 19  1  0
 20 21  1  1
 21 22  1  0
 23 20  1  0
 24 23  1  0
 25 23  2  0
M  END
$$$$
