RVC.pdb
     RDKit          3D

 25 24  0  0  1  0  0  0  0  0999 V2000
   19.2905  -20.8487  -12.3177 N   0  0  0  0  0  0  0  0  0  0  0  0
   19.8955  -22.1345  -12.4904 C   0  0  0  0  0  0  0  0  0  0  0  0
   19.1947  -23.1949  -12.2610 N   0  0  0  0  0  0  0  0  0  0  0  0
   21.2428  -22.2147  -12.9080 N   0  0  0  0  0  0  0  0  0  0  0  0
   21.8546  -21.0123  -13.4869 C   0  0  0  0  0  0  0  0  0  0  0  0
   21.6165  -20.9344  -14.9514 C   0  0  0  0  0  0  0  0  0  0  0  0
   22.1755  -19.7554  -15.6715 C   0  0  0  0  0  0  0  0  0  0  0  0
   21.6319  -18.4450  -15.2330 C   0  0  2  0  0  0  0  0  0  0  0  0
   20.1814  -18.4332  -15.3668 N   0  0  0  0  0  0  0  0  0  0  0  0
   22.1377  -17.3182  -16.0764 C   0  0  0  0  0  0  0  0  0  0  0  0
   21.5921  -17.0202  -17.1656 O   0  0  0  0  0  0  0  0  0  0  0  0
   19.6200  -24.1397  -12.3731 C   0  0  0  0  0  0  0  0  0  0  0  0
   24.4182  -13.0505  -16.4518 C   0  0  1  0  0  0  0  0  0  0  0  0
   23.8772  -14.1993  -15.6699 C   0  0  0  0  0  0  0  0  0  0  0  0
   24.6423  -14.4468  -14.3888 C   0  0  2  0  0  0  0  0  0  0  0  0
   23.7396  -15.4270  -16.5056 N   0  0  0  0  0  0  0  0  0  0  0  0
   23.2715  -16.5165  -15.6910 C   0  0  0  0  0  0  0  0  0  0  0  0
   25.0685  -15.8104  -17.0596 O   0  0  0  0  0  0  0  0  0  0  0  0
   26.0263  -16.1846  -16.3237 N   0  0  0  0  0  0  0  0  0  0  0  0
   25.3283  -15.7751  -18.4600 C   0  0  1  0  0  0  0  0  0  0  0  0
   26.5818  -16.2539  -19.0288 C   0  0  0  0  0  0  0  0  0  0  0  0
   26.3672  -16.8640  -20.3960 S   0  0  0  0  0  0  0  0  0  0  0  0
   25.2152  -18.2402  -20.3186 C   0  0  0  0  0  0  0  0  0  0  0  0
   27.4705  -15.0786  -19.2100 O   0  0  0  0  0  0  0  0  0  0  0  0
   26.9667  -13.7637  -19.2130 O   0  0  0  0  0  0  0  0  0  0  0  0
  2  1  1  0
  3  2  2  0
  4  2  1  0
  5  4  1  0
  6  5  1  0
  7  6  1  0
  8 10  1  0
  8  7  1  0
  8  9  1  6
 10 11  2  0
 10 16  1  0
 13 14  1  6
 13 12  1  0
 15 13  1  0
 15 16  1  6
 17 18  2  0
 17 15  1  0
 19 17  1  0
 20 19  1  0
 20 21  1  6
 21 22  1  0
 23 20  1  0
 24 23  1  0
 25 23  2  0
M  END
$$$$
