RVC.pdb
     RDKit          3D

 25 24  0  0  1  0  0  0  0  0999 V2000
   18.9712  -22.3188  -18.8642 N   0  0  0  0  0  0  0  0  0  0  0  0
   19.0486  -20.9328  -18.5143 C   0  0  0  0  0  0  0  0  0  0  0  0
   18.0763  -20.3955  -17.8556 N   0  0  0  0  0  0  0  0  0  0  0  0
   20.1851  -20.1854  -18.8960 N   0  0  0  0  0  0  0  0  0  0  0  0
   21.2293  -20.8701  -19.6680 C   0  0  0  0  0  0  0  0  0  0  0  0
   22.5837  -20.5614  -19.1409 C   0  0  0  0  0  0  0  0  0  0  0  0
   22.9898  -21.2281  -17.8713 C   0  0  0  0  0  0  0  0  0  0  0  0
   23.1006  -20.3206  -16.7013 C   0  0  2  0  0  0  0  0  0  0  0  0
   23.7581  -19.0798  -17.0890 N   0  0  0  0  0  0  0  0  0  0  0  0
   23.9359  -20.9121  -15.6107 C   0  0  0  0  0  0  0  0  0  0  0  0
   23.6468  -22.0163  -15.0911 O   0  0  0  0  0  0  0  0  0  0  0  0
   18.1004  -19.3811  -17.6179 C   0  0  0  0  0  0  0  0  0  0  0  0
   27.5189  -18.9622  -14.0778 C   0  0  1  0  0  0  0  0  0  0  0  0
   27.3295  -20.4351  -14.2138 C   0  0  0  0  0  0  0  0  0  0  0  0
   27.9433  -20.9891  -15.4804 C   0  0  1  0  0  0  0  0  0  0  0  0
   25.9018  -20.8316  -14.0437 N   0  0  0  0  0  0  0  0  0  0  0  0
   25.1107  -20.2540  -15.0974 C   0  0  0  0  0  0  0  0  0  0  0  0
   25.3853  -20.3093  -12.7475 O   0  0  0  0  0  0  0  0  0  0  0  0
   24.9138  -19.1422  -12.6276 N   0  0  0  0  0  0  0  0  0  0  0  0
   25.3962  -21.1073  -11.5673 C   0  0  1  0  0  0  0  0  0  0  0  0
   24.9866  -20.5811  -10.2713 C   0  0  0  0  0  0  0  0  0  0  0  0
   24.1568  -21.5882   -9.5067 S   0  0  0  0  0  0  0  0  0  0  0  0
   23.7873  -21.0001   -7.8500 C   0  0  0  0  0  0  0  0  0  0  0  0
   26.2168  -20.3364   -9.4770 O   0  0  0  0  0  0  0  0  0  0  0  0
   26.2628  -19.3559   -8.4674 O   0  0  0  0  0  0  0  0  0  0  0  0
  2  1  1  0
  3  2  2  0
  4  2  1  0
  5  4  1  0
  6  5  1  0
  7  6  1  0
  8 10  1  0
  8  7  1  0
  8  9  1  6
 10 11  2  0
 10 16  1  0
 13 14  1  6
 13 12  1  0
 15 13  1  0
 15 16  1  6
 17 18  2  0
 17 15  1  0
 19 17  1  0
 20 19  1  0
 20 21  1  1
 21 22  1  0
 23 20  1  0
 24 23  1  0
 25 23  2  0
M  END
$$$$
