RVC.pdb
     RDKit          3D

 25 24  0  0  1  0  0  0  0  0999 V2000
   18.9984  -23.4055   -8.9997 N   0  0  0  0  0  0  0  0  0  0  0  0
   18.4439  -22.6204  -10.0605 C   0  0  0  0  0  0  0  0  0  0  0  0
   17.2302  -22.1909   -9.9565 N   0  0  0  0  0  0  0  0  0  0  0  0
   19.2353  -22.3327  -11.1949 N   0  0  0  0  0  0  0  0  0  0  0  0
   20.5726  -22.9337  -11.2690 C   0  0  0  0  0  0  0  0  0  0  0  0
   21.5492  -22.1876  -10.4342 C   0  0  0  0  0  0  0  0  0  0  0  0
   22.3938  -21.1685  -11.1193 C   0  0  0  0  0  0  0  0  0  0  0  0
   23.8364  -21.2222  -10.7714 C   0  0  2  0  0  0  0  0  0  0  0  0
   24.0458  -20.7210   -9.4198 N   0  0  0  0  0  0  0  0  0  0  0  0
   24.6618  -20.3568  -11.6696 C   0  0  0  0  0  0  0  0  0  0  0  0
   24.8064  -19.1314  -11.4454 O   0  0  0  0  0  0  0  0  0  0  0  0
   16.7807  -21.6896  -10.7519 C   0  0  0  0  0  0  0  0  0  0  0  0
   28.1386  -20.6399  -12.3195 C   0  0  1  0  0  0  0  0  0  0  0  0
   27.5498  -20.5694  -13.6879 C   0  0  0  0  0  0  0  0  0  0  0  0
   28.4389  -19.8396  -14.6701 C   0  0  2  0  0  0  0  0  0  0  0  0
   26.1557  -20.0397  -13.6683 N   0  0  0  0  0  0  0  0  0  0  0  0
   25.3327  -20.8751  -12.8349 C   0  0  0  0  0  0  0  0  0  0  0  0
   25.5870  -20.0681  -15.0450 O   0  0  0  0  0  0  0  0  0  0  0  0
   25.3263  -21.1487  -15.6477 N   0  0  0  0  0  0  0  0  0  0  0  0
   25.3049  -18.8671  -15.7577 C   0  0  1  0  0  0  0  0  0  0  0  0
   24.6921  -18.8753  -17.0800 C   0  0  0  0  0  0  0  0  0  0  0  0
   23.5577  -17.8787  -17.1662 S   0  0  0  0  0  0  0  0  0  0  0  0
   22.3891  -18.1083  -15.8213 C   0  0  0  0  0  0  0  0  0  0  0  0
   25.7251  -18.4463  -18.0562 O   0  0  0  0  0  0  0  0  0  0  0  0
   25.6357  -18.7780  -19.4217 O   0  0  0  0  0  0  0  0  0  0  0  0
  2  1  1  0
  3  2  2  0
  4  2  1  0
  5  4  1  0
  6  5  1  0
  7  6  1  0
  8 10  1  0
  8  7  1  0
  8  9  1  1
 10 11  2  0
 10 16  1  0
 13 14  1  1
 13 12  1  0
 15 13  1  0
 15 16  1  1
 17 18  2  0
 17 15  1  0
 19 17  1  0
 20 19  1  0
 20 21  1  6
 21 22  1  0
 23 20  1  0
 24 23  1  0
 25 23  2  0
M  END
$$$$
