RVC.pdb
     RDKit          3D

 25 24  0  0  1  0  0  0  0  0999 V2000
   20.7214  -20.9136  -11.8650 N   0  0  0  0  0  0  0  0  0  0  0  0
   20.5589  -22.0334  -12.7418 C   0  0  0  0  0  0  0  0  0  0  0  0
   19.4527  -22.6996  -12.7124 N   0  0  0  0  0  0  0  0  0  0  0  0
   21.6097  -22.3838  -13.6187 N   0  0  0  0  0  0  0  0  0  0  0  0
   22.8702  -21.6389  -13.5114 C   0  0  0  0  0  0  0  0  0  0  0  0
   23.3661  -21.6114  -12.1112 C   0  0  0  0  0  0  0  0  0  0  0  0
   24.5152  -20.7106  -11.8122 C   0  0  0  0  0  0  0  0  0  0  0  0
   25.7185  -20.9395  -12.6515 C   0  0  2  0  0  0  0  0  0  0  0  0
   26.7641  -21.5806  -11.8656 N   0  0  0  0  0  0  0  0  0  0  0  0
   26.3021  -19.6580  -13.1555 C   0  0  0  0  0  0  0  0  0  0  0  0
   26.9469  -18.8914  -12.4009 O   0  0  0  0  0  0  0  0  0  0  0  0
   19.3331  -23.5454  -13.3094 C   0  0  0  0  0  0  0  0  0  0  0  0
   26.9791  -18.9733  -17.2574 C   0  0  1  0  0  0  0  0  0  0  0  0
   27.6649  -18.2836  -16.1270 C   0  0  0  0  0  0  0  0  0  0  0  0
   28.9217  -18.9980  -15.6820 C   0  0  1  0  0  0  0  0  0  0  0  0
   26.7320  -18.0008  -14.9982 N   0  0  0  0  0  0  0  0  0  0  0  0
   26.1585  -19.2323  -14.5247 C   0  0  0  0  0  0  0  0  0  0  0  0
   25.6182  -17.1317  -15.4713 O   0  0  0  0  0  0  0  0  0  0  0  0
   24.5323  -17.6041  -15.9145 N   0  0  0  0  0  0  0  0  0  0  0  0
   25.7220  -15.7110  -15.4467 C   0  0  1  0  0  0  0  0  0  0  0  0
   24.6447  -14.8462  -15.9110 C   0  0  0  0  0  0  0  0  0  0  0  0
   24.3988  -13.7081  -14.9458 S   0  0  0  0  0  0  0  0  0  0  0  0
   23.1481  -12.5826  -15.5752 C   0  0  0  0  0  0  0  0  0  0  0  0
   25.0763  -14.2424  -17.1968 O   0  0  0  0  0  0  0  0  0  0  0  0
   24.1451  -13.8020  -18.1569 O   0  0  0  0  0  0  0  0  0  0  0  0
  2  1  1  0
  3  2  2  0
  4  2  1  0
  5  4  1  0
  6  5  1  0
  7  6  1  0
  8 10  1  0
  8  7  1  0
  8  9  1  1
 10 11  2  0
 10 16  1  0
 13 14  1  6
 13 12  1  0
 15 13  1  0
 15 16  1  6
 17 18  2  0
 17 15  1  0
 19 17  1  0
 20 19  1  0
 20 21  1  6
 21 22  1  0
 23 20  1  0
 24 23  1  0
 25 23  2  0
M  END
$$$$
