RVC.pdb
     RDKit          3D

 25 24  0  0  1  0  0  0  0  0999 V2000
   19.5807  -17.5718  -17.9141 N   0  0  0  0  0  0  0  0  0  0  0  0
   20.8395  -17.2007  -17.3423 C   0  0  0  0  0  0  0  0  0  0  0  0
   21.9101  -17.3060  -18.0572 N   0  0  0  0  0  0  0  0  0  0  0  0
   20.8825  -16.7277  -16.0118 N   0  0  0  0  0  0  0  0  0  0  0  0
   21.2053  -17.6902  -14.9514 C   0  0  0  0  0  0  0  0  0  0  0  0
   20.5241  -18.9915  -15.1746 C   0  0  0  0  0  0  0  0  0  0  0  0
   20.7614  -20.0667  -14.1702 C   0  0  0  0  0  0  0  0  0  0  0  0
   22.1811  -20.2422  -13.7721 C   0  0  2  0  0  0  0  0  0  0  0  0
   22.9150  -20.9348  -14.8227 N   0  0  0  0  0  0  0  0  0  0  0  0
   22.3184  -21.0836  -12.5432 C   0  0  0  0  0  0  0  0  0  0  0  0
   22.2258  -22.3333  -12.5924 O   0  0  0  0  0  0  0  0  0  0  0  0
   22.8373  -17.0528  -17.6544 C   0  0  0  0  0  0  0  0  0  0  0  0
   25.0387  -20.5907   -9.7894 C   0  0  1  0  0  0  0  0  0  0  0  0
   23.7004  -20.7287   -9.1462 C   0  0  0  0  0  0  0  0  0  0  0  0
   23.7640  -21.4324   -7.8088 C   0  0  2  0  0  0  0  0  0  0  0  0
   22.6979  -21.3347  -10.0694 N   0  0  0  0  0  0  0  0  0  0  0  0
   22.5623  -20.5131  -11.2426 C   0  0  0  0  0  0  0  0  0  0  0  0
   21.3685  -21.3953   -9.3995 O   0  0  0  0  0  0  0  0  0  0  0  0
   20.6947  -20.3580   -9.1371 N   0  0  0  0  0  0  0  0  0  0  0  0
   20.7843  -22.6376   -9.0183 C   0  0  1  0  0  0  0  0  0  0  0  0
   19.4833  -22.7152   -8.3660 C   0  0  0  0  0  0  0  0  0  0  0  0
   18.8152  -24.0464   -8.6292 S   0  0  0  0  0  0  0  0  0  0  0  0
   18.1947  -24.1390  -10.3125 C   0  0  0  0  0  0  0  0  0  0  0  0
   19.7091  -22.6223   -6.9016 O   0  0  0  0  0  0  0  0  0  0  0  0
   18.7142  -22.1420   -6.0286 O   0  0  0  0  0  0  0  0  0  0  0  0
  2  1  1  0
  3  2  2  0
  4  2  1  0
  5  4  1  0
  6  5  1  0
  7  6  1  0
  8 10  1  0
  8  7  1  0
  8  9  1  6
 10 11  2  0
 10 16  1  0
 13 14  1  6
 13 12  1  0
 15 13  1  0
 15 16  1  6
 17 18  2  0
 17 15  1  0
 19 17  1  0
 20 19  1  0
 20 21  1  1
 21 22  1  0
 23 20  1  0
 24 23  1  0
 25 23  2  0
M  END
$$$$
