RVC.pdb
     RDKit          3D

 25 24  0  0  1  0  0  0  0  0999 V2000
   19.6540  -23.3567   -7.4321 N   0  0  0  0  0  0  0  0  0  0  0  0
   19.1595  -23.1755   -8.7632 C   0  0  0  0  0  0  0  0  0  0  0  0
   17.9322  -23.4812   -9.0249 N   0  0  0  0  0  0  0  0  0  0  0  0
   20.0231  -22.6666   -9.7588 N   0  0  0  0  0  0  0  0  0  0  0  0
   21.4135  -22.3838   -9.3820 C   0  0  0  0  0  0  0  0  0  0  0  0
   21.5961  -20.9557   -9.0152 C   0  0  0  0  0  0  0  0  0  0  0  0
   22.6384  -20.1894   -9.7551 C   0  0  0  0  0  0  0  0  0  0  0  0
   23.8837  -20.9474  -10.0367 C   0  0  2  0  0  0  0  0  0  0  0  0
   24.6572  -21.1142   -8.8136 N   0  0  0  0  0  0  0  0  0  0  0  0
   24.7738  -20.2255  -10.9978 C   0  0  0  0  0  0  0  0  0  0  0  0
   25.1529  -19.0498  -10.7816 O   0  0  0  0  0  0  0  0  0  0  0  0
   17.5657  -23.3961   -9.9968 C   0  0  0  0  0  0  0  0  0  0  0  0
   28.0819  -21.1742  -12.1087 C   0  0  1  0  0  0  0  0  0  0  0  0
   27.3389  -20.9103  -13.3744 C   0  0  0  0  0  0  0  0  0  0  0  0
   28.2137  -20.3080  -14.4514 C   0  0  2  0  0  0  0  0  0  0  0  0
   26.0938  -20.1243  -13.1364 N   0  0  0  0  0  0  0  0  0  0  0  0
   25.2431  -20.8326  -12.2175 C   0  0  0  0  0  0  0  0  0  0  0  0
   25.3479  -19.9631  -14.4161 O   0  0  0  0  0  0  0  0  0  0  0  0
   24.6784  -20.9033  -14.9325 N   0  0  0  0  0  0  0  0  0  0  0  0
   25.3513  -18.7290  -15.1279 C   0  0  1  0  0  0  0  0  0  0  0  0
   24.5520  -18.5243  -16.3294 C   0  0  0  0  0  0  0  0  0  0  0  0
   24.1584  -17.0724  -16.4868 S   0  0  0  0  0  0  0  0  0  0  0  0
   23.2156  -16.4987  -15.0694 C   0  0  0  0  0  0  0  0  0  0  0  0
   25.3986  -18.8760  -17.4971 O   0  0  0  0  0  0  0  0  0  0  0  0
   24.8447  -19.0983  -18.7724 O   0  0  0  0  0  0  0  0  0  0  0  0
  2  1  1  0
  3  2  2  0
  4  2  1  0
  5  4  1  0
  6  5  1  0
  7  6  1  0
  8 10  1  0
  8  7  1  0
  8  9  1  1
 10 11  2  0
 10 16  1  0
 13 14  1  1
 13 12  1  0
 15 13  1  0
 15 16  1  1
 17 18  2  0
 17 15  1  0
 19 17  1  0
 20 19  1  0
 20 21  1  6
 21 22  1  0
 23 20  1  0
 24 23  1  0
 25 23  2  0
M  END
$$$$
