RVC.pdb
     RDKit          3D

 25 24  0  0  1  0  0  0  0  0999 V2000
   30.6510  -18.8581  -19.2147 N   0  0  0  0  0  0  0  0  0  0  0  0
   29.3774  -18.2864  -19.5314 C   0  0  0  0  0  0  0  0  0  0  0  0
   29.0258  -18.1817  -20.7698 N   0  0  0  0  0  0  0  0  0  0  0  0
   28.5348  -17.8510  -18.4843 N   0  0  0  0  0  0  0  0  0  0  0  0
   28.4491  -18.6862  -17.2801 C   0  0  0  0  0  0  0  0  0  0  0  0
   27.4645  -19.7856  -17.4518 C   0  0  0  0  0  0  0  0  0  0  0  0
   26.5153  -20.0326  -16.3297 C   0  0  0  0  0  0  0  0  0  0  0  0
   26.9980  -20.9970  -15.3090 C   0  0  2  0  0  0  0  0  0  0  0  0
   27.3602  -22.2581  -15.9417 N   0  0  0  0  0  0  0  0  0  0  0  0
   25.9408  -21.3237  -14.3028 C   0  0  0  0  0  0  0  0  0  0  0  0
   25.1226  -22.2551  -14.4926 O   0  0  0  0  0  0  0  0  0  0  0  0
   28.1131  -17.7459  -21.0214 C   0  0  0  0  0  0  0  0  0  0  0  0
   26.5484  -20.9235  -10.3566 C   0  0  1  0  0  0  0  0  0  0  0  0
   25.2000  -20.4271  -10.7555 C   0  0  0  0  0  0  0  0  0  0  0  0
   24.1492  -20.6728   -9.6956 C   0  0  2  0  0  0  0  0  0  0  0  0
   24.7941  -20.9339  -12.0982 N   0  0  0  0  0  0  0  0  0  0  0  0
   25.8010  -20.5940  -13.0680 C   0  0  0  0  0  0  0  0  0  0  0  0
   23.5202  -20.2848  -12.5174 O   0  0  0  0  0  0  0  0  0  0  0  0
   23.4222  -19.0364  -12.6923 N   0  0  0  0  0  0  0  0  0  0  0  0
   22.3378  -21.0463  -12.7451 C   0  0  1  0  0  0  0  0  0  0  0  0
   21.0750  -20.4240  -13.1223 C   0  0  0  0  0  0  0  0  0  0  0  0
   20.5214  -21.0304  -14.3925 S   0  0  0  0  0  0  0  0  0  0  0  0
   21.7513  -21.0280  -15.7019 C   0  0  0  0  0  0  0  0  0  0  0  0
   20.0959  -20.7046  -12.0421 O   0  0  0  0  0  0  0  0  0  0  0  0
   18.8648  -20.0256  -11.9648 O   0  0  0  0  0  0  0  0  0  0  0  0
  2  1  1  0
  3  2  2  0
  4  2  1  0
  5  4  1  0
  6  5  1  0
  7  6  1  0
  8 10  1  0
  8  7  1  0
  8  9  1  6
 10 11  2  0
 10 16  1  0
 13 14  1  6
 13 12  1  0
 15 13  1  0
 15 16  1  6
 17 18  2  0
 17 15  1  0
 19 17  1  0
 20 19  1  0
 20 21  1  1
 21 22  1  0
 23 20  1  0
 24 23  1  0
 25 23  2  0
M  END
$$$$
