RVC.pdb
     RDKit          3D

 25 24  0  0  1  0  0  0  0  0999 V2000
   22.4026  -21.1739   -8.4633 N   0  0  0  0  0  0  0  0  0  0  0  0
   21.0168  -21.3960   -8.1813 C   0  0  0  0  0  0  0  0  0  0  0  0
   20.6105  -22.5966   -7.9329 N   0  0  0  0  0  0  0  0  0  0  0  0
   20.1266  -20.2990   -8.1803 N   0  0  0  0  0  0  0  0  0  0  0  0
   19.7860  -19.6904   -9.4720 C   0  0  0  0  0  0  0  0  0  0  0  0
   20.9891  -19.1335  -10.1429 C   0  0  0  0  0  0  0  0  0  0  0  0
   21.4645  -19.8249  -11.3746 C   0  0  0  0  0  0  0  0  0  0  0  0
   20.6049  -19.6267  -12.5690 C   0  0  2  0  0  0  0  0  0  0  0  0
   19.5365  -20.6168  -12.5883 N   0  0  0  0  0  0  0  0  0  0  0  0
   21.3659  -19.8094  -13.8435 C   0  0  0  0  0  0  0  0  0  0  0  0
   21.4246  -20.9235  -14.4164 O   0  0  0  0  0  0  0  0  0  0  0  0
   19.6008  -22.7825   -7.7535 C   0  0  0  0  0  0  0  0  0  0  0  0
   21.4509  -17.3643  -17.0104 C   0  0  1  0  0  0  0  0  0  0  0  0
   22.8172  -17.6783  -16.5018 C   0  0  0  0  0  0  0  0  0  0  0  0
   23.8620  -17.6813  -17.5955 C   0  0  2  0  0  0  0  0  0  0  0  0
   22.8346  -18.9257  -15.6844 N   0  0  0  0  0  0  0  0  0  0  0  0
   22.0705  -18.7265  -14.4818 C   0  0  0  0  0  0  0  0  0  0  0  0
   24.2339  -19.2476  -15.2869 O   0  0  0  0  0  0  0  0  0  0  0  0
   24.8282  -18.6410  -14.3501 N   0  0  0  0  0  0  0  0  0  0  0  0
   24.9791  -20.2658  -15.9488 C   0  0  1  0  0  0  0  0  0  0  0  0
   26.3737  -20.5402  -15.6264 C   0  0  0  0  0  0  0  0  0  0  0  0
   26.4926  -21.6269  -14.5813 S   0  0  0  0  0  0  0  0  0  0  0  0
   28.2078  -22.0950  -14.3245 C   0  0  0  0  0  0  0  0  0  0  0  0
   27.0280  -21.0467  -16.8591 O   0  0  0  0  0  0  0  0  0  0  0  0
   28.3857  -20.7936  -17.1335 O   0  0  0  0  0  0  0  0  0  0  0  0
  2  1  1  0
  3  2  2  0
  4  2  1  0
  5  4  1  0
  6  5  1  0
  7  6  1  0
  8 10  1  0
  8  7  1  0
  8  9  1  1
 10 11  2  0
 10 16  1  0
 13 14  1  6
 13 12  1  0
 15 13  1  0
 15 16  1  6
 17 18  2  0
 17 15  1  0
 19 17  1  0
 20 19  1  0
 20 21  1  6
 21 22  1  0
 23 20  1  0
 24 23  1  0
 25 23  2  0
M  END
$$$$
