RVC.pdb
     RDKit          3D

 25 24  0  0  1  0  0  0  0  0999 V2000
   21.2582  -22.2568   -8.0110 N   0  0  0  0  0  0  0  0  0  0  0  0
   20.7314  -21.8147   -9.2664 C   0  0  0  0  0  0  0  0  0  0  0  0
   19.5401  -22.1763   -9.6106 N   0  0  0  0  0  0  0  0  0  0  0  0
   21.5244  -20.9938  -10.0990 N   0  0  0  0  0  0  0  0  0  0  0  0
   22.9131  -21.4021  -10.3433 C   0  0  0  0  0  0  0  0  0  0  0  0
   23.7777  -21.1126   -9.1703 C   0  0  0  0  0  0  0  0  0  0  0  0
   25.0304  -20.3444   -9.4193 C   0  0  0  0  0  0  0  0  0  0  0  0
   25.9747  -20.9871  -10.3681 C   0  0  2  0  0  0  0  0  0  0  0  0
   27.2397  -21.2694   -9.7033 N   0  0  0  0  0  0  0  0  0  0  0  0
   26.3007  -20.0958  -11.5240 C   0  0  0  0  0  0  0  0  0  0  0  0
   27.1775  -19.2035  -11.4350 O   0  0  0  0  0  0  0  0  0  0  0  0
   19.1574  -21.9049  -10.5412 C   0  0  0  0  0  0  0  0  0  0  0  0
   27.4584  -21.5511  -14.6444 C   0  0  1  0  0  0  0  0  0  0  0  0
   27.4989  -20.1024  -14.2931 C   0  0  0  0  0  0  0  0  0  0  0  0
   28.5154  -19.7897  -13.2175 C   0  0  1  0  0  0  0  0  0  0  0  0
   26.1430  -19.5670  -13.9780 N   0  0  0  0  0  0  0  0  0  0  0  0
   25.6325  -20.2084  -12.7958 C   0  0  0  0  0  0  0  0  0  0  0  0
   25.2095  -19.8690  -15.0993 O   0  0  0  0  0  0  0  0  0  0  0  0
   25.0300  -21.0430  -15.5332 N   0  0  0  0  0  0  0  0  0  0  0  0
   24.4647  -18.8397  -15.7441 C   0  0  1  0  0  0  0  0  0  0  0  0
   23.2659  -19.1216  -16.5236 C   0  0  0  0  0  0  0  0  0  0  0  0
   22.2611  -17.9967  -16.4125 S   0  0  0  0  0  0  0  0  0  0  0  0
   22.0357  -17.4949  -14.7024 C   0  0  0  0  0  0  0  0  0  0  0  0
   23.6681  -19.2083  -17.9501 O   0  0  0  0  0  0  0  0  0  0  0  0
   24.9739  -18.8916  -18.3712 O   0  0  0  0  0  0  0  0  0  0  0  0
  2  1  1  0
  3  2  2  0
  4  2  1  0
  5  4  1  0
  6  5  1  0
  7  6  1  0
  8 10  1  0
  8  7  1  0
  8  9  1  1
 10 11  2  0
 10 16  1  0
 13 14  1  1
 13 12  1  0
 15 13  1  0
 15 16  1  1
 17 18  2  0
 17 15  1  0
 19 17  1  0
 20 19  1  0
 20 21  1  6
 21 22  1  0
 23 20  1  0
 24 23  1  0
 25 23  2  0
M  END
$$$$
