RVC.pdb
     RDKit          3D

 25 24  0  0  1  0  0  0  0  0999 V2000
   24.4975  -20.6617  -11.3524 N   0  0  0  0  0  0  0  0  0  0  0  0
   25.8508  -20.6481  -10.8858 C   0  0  0  0  0  0  0  0  0  0  0  0
   26.0816  -20.7878   -9.6227 N   0  0  0  0  0  0  0  0  0  0  0  0
   26.9016  -20.4832  -11.8156 N   0  0  0  0  0  0  0  0  0  0  0  0
   26.7024  -19.5305  -12.9145 C   0  0  0  0  0  0  0  0  0  0  0  0
   27.9129  -19.4287  -13.7700 C   0  0  0  0  0  0  0  0  0  0  0  0
   27.9697  -20.3000  -14.9778 C   0  0  0  0  0  0  0  0  0  0  0  0
   26.6529  -20.8070  -15.4402 C   0  0  2  0  0  0  0  0  0  0  0  0
   26.6659  -22.2627  -15.4928 N   0  0  0  0  0  0  0  0  0  0  0  0
   26.3284  -20.3426  -16.8244 C   0  0  0  0  0  0  0  0  0  0  0  0
   26.8307  -20.8925  -17.8334 O   0  0  0  0  0  0  0  0  0  0  0  0
   27.0607  -20.7962   -9.2657 C   0  0  0  0  0  0  0  0  0  0  0  0
   23.1613  -18.5122  -19.9453 C   0  0  1  0  0  0  0  0  0  0  0  0
   23.5993  -18.9901  -18.6023 C   0  0  0  0  0  0  0  0  0  0  0  0
   22.8059  -18.3701  -17.4735 C   0  0  2  0  0  0  0  0  0  0  0  0
   25.0725  -18.8527  -18.4149 N   0  0  0  0  0  0  0  0  0  0  0  0
   25.4287  -19.2458  -17.0776 C   0  0  0  0  0  0  0  0  0  0  0  0
   25.4720  -17.4284  -18.5927 O   0  0  0  0  0  0  0  0  0  0  0  0
   25.2771  -16.5542  -17.7003 N   0  0  0  0  0  0  0  0  0  0  0  0
   26.1006  -16.9765  -19.7888 C   0  0  1  0  0  0  0  0  0  0  0  0
   26.4728  -15.5819  -19.9904 C   0  0  0  0  0  0  0  0  0  0  0  0
   27.6100  -15.4541  -20.9792 S   0  0  0  0  0  0  0  0  0  0  0  0
   27.9464  -13.7314  -21.3617 C   0  0  0  0  0  0  0  0  0  0  0  0
   25.3016  -14.8854  -20.5798 O   0  0  0  0  0  0  0  0  0  0  0  0
   24.5388  -15.4646  -21.6119 O   0  0  0  0  0  0  0  0  0  0  0  0
  2  1  1  0
  3  2  2  0
  4  2  1  0
  5  4  1  0
  6  5  1  0
  7  6  1  0
  8 10  1  0
  8  7  1  0
  8  9  1  6
 10 11  2  0
 10 16  1  0
 13 14  1  1
 13 12  1  0
 15 13  1  0
 15 16  1  6
 17 18  2  0
 17 15  1  0
 19 17  1  0
 20 19  1  0
 20 21  1  6
 21 22  1  0
 23 20  1  0
 24 23  1  0
 25 23  2  0
M  END
$$$$
