RVC.pdb
     RDKit          3D

 25 24  0  0  1  0  0  0  0  0999 V2000
   25.3059  -23.9021  -15.9039 N   0  0  0  0  0  0  0  0  0  0  0  0
   26.2809  -24.3889  -16.8321 C   0  0  0  0  0  0  0  0  0  0  0  0
   27.1920  -25.2046  -16.4167 N   0  0  0  0  0  0  0  0  0  0  0  0
   26.2243  -23.9677  -18.1795 N   0  0  0  0  0  0  0  0  0  0  0  0
   25.0483  -23.2018  -18.6102 C   0  0  0  0  0  0  0  0  0  0  0  0
   25.4282  -21.8460  -19.0846 C   0  0  0  0  0  0  0  0  0  0  0  0
   25.2056  -20.7084  -18.1478 C   0  0  0  0  0  0  0  0  0  0  0  0
   23.7793  -20.4022  -17.8708 C   0  0  2  0  0  0  0  0  0  0  0  0
   23.3478  -19.2597  -18.6647 N   0  0  0  0  0  0  0  0  0  0  0  0
   23.5548  -20.0251  -16.4410 C   0  0  0  0  0  0  0  0  0  0  0  0
   23.7447  -18.8535  -16.0359 O   0  0  0  0  0  0  0  0  0  0  0  0
   27.8884  -25.5983  -17.0847 C   0  0  0  0  0  0  0  0  0  0  0  0
   20.4548  -20.7609  -14.4371 C   0  0  2  0  0  0  0  0  0  0  0  0
   21.6124  -21.1846  -13.5978 C   0  0  0  0  0  0  0  0  0  0  0  0
   21.3823  -20.9476  -12.1217 C   0  0  2  0  0  0  0  0  0  0  0  0
   22.8960  -20.5997  -14.0824 N   0  0  0  0  0  0  0  0  0  0  0  0
   23.1120  -20.9770  -15.4538 C   0  0  0  0  0  0  0  0  0  0  0  0
   24.0293  -21.1367  -13.2782 O   0  0  0  0  0  0  0  0  0  0  0  0
   24.2180  -22.3767  -13.1179 N   0  0  0  0  0  0  0  0  0  0  0  0
   24.9667  -20.2712  -12.6442 C   0  0  1  0  0  0  0  0  0  0  0  0
   26.0823  -20.7796  -11.8561 C   0  0  0  0  0  0  0  0  0  0  0  0
   27.1938  -19.7589  -11.7547 S   0  0  0  0  0  0  0  0  0  0  0  0
   27.7515  -19.2434  -13.3827 C   0  0  0  0  0  0  0  0  0  0  0  0
   25.5852  -21.0218  -10.4784 O   0  0  0  0  0  0  0  0  0  0  0  0
   26.3330  -21.7600   -9.5411 O   0  0  0  0  0  0  0  0  0  0  0  0
  2  1  1  0
  3  2  2  0
  4  2  1  0
  5  4  1  0
  6  5  1  0
  7  6  1  0
  8 10  1  0
  8  7  1  0
  8  9  1  6
 10 11  2  0
 10 16  1  0
 13 14  1  6
 13 12  1  0
 15 13  1  0
 15 16  1  1
 17 18  2  0
 17 15  1  0
 19 17  1  0
 20 19  1  0
 20 21  1  1
 21 22  1  0
 23 20  1  0
 24 23  1  0
 25 23  2  0
M  END
$$$$
