ING.pdb
     RDKit          3D

 21 20  0  0  1  0  0  0  0  0999 V2000
   22.4631  -13.5190  -17.6064 C   0  0  0  0  0  0  0  0  0  0  0  0
   21.9923  -12.1712  -18.1701 C   0  0  0  0  0  0  0  0  0  0  0  0
   22.1853  -11.1398  -17.1080 C   0  0  2  0  0  0  0  0  0  0  0  0
   21.4753  -11.4897  -15.8208 C   0  0  0  0  0  0  0  0  0  0  0  0
   21.8107   -9.7422  -17.4977 C   0  0  2  0  0  0  0  0  0  0  0  0
   22.6562   -9.3999  -18.6498 N   0  0  0  0  0  0  0  0  0  0  0  0
   22.1119   -8.8017  -16.4146 C   0  0  0  0  0  0  0  0  0  0  0  0
   23.2893   -8.6302  -15.9633 O   0  0  0  0  0  0  0  0  0  0  0  0
   22.1325   -4.9263  -13.2136 N   0  0  0  0  0  0  0  0  0  0  0  0
   22.3816   -4.7922  -14.6082 C   0  0  0  0  0  0  0  0  0  0  0  0
   22.9059   -3.7063  -15.0488 O   0  0  0  0  0  0  0  0  0  0  0  0
   22.0449   -5.8750  -15.5519 C   0  0  0  0  0  0  0  0  0  0  0  0
   21.3190   -7.0142  -14.8188 C   0  0  2  0  0  0  0  0  0  0  0  0
   21.0677   -8.0258  -15.8128 N   0  0  0  0  0  0  0  0  0  0  0  0
   20.0191   -6.4657  -14.2804 C   0  0  0  0  0  0  0  0  0  0  0  0
   19.9814   -5.6371  -13.3342 O   0  0  0  0  0  0  0  0  0  0  0  0
   18.8104   -6.8936  -14.8551 N   0  0  0  0  0  0  0  0  0  0  0  0
   17.5006   -6.6472  -14.2779 C   0  0  0  0  0  0  0  0  0  0  0  0
   16.8742   -5.4134  -14.7998 C   0  0  0  0  0  0  0  0  0  0  0  0
   15.5571   -5.0759  -14.6025 O   0  0  0  0  0  0  0  0  0  0  0  0
   17.5586   -4.5892  -15.4740 O   0  0  0  0  0  0  0  0  0  0  0  0
  1  2  1  0
  3  2  1  0
  3  5  1  0
  3  4  1  1
  5  6  1  6
  5  7  1  0
  7 14  1  0
  7  8  2  0
 10  9  1  0
 10 12  1  0
 11 10  2  0
 13 12  1  6
 14 13  1  0
 15 13  1  0
 15 17  1  0
 16 15  2  0
 18 17  1  0
 18 19  1  0
 19 20  1  0
 21 19  2  0
M  END
$$$$
