ING.pdb
     RDKit          3D

 21 20  0  0  1  0  0  0  0  0999 V2000
   26.8549  -20.2788   -8.0501 C   0  0  0  0  0  0  0  0  0  0  0  0
   26.9655  -21.1762   -9.2904 C   0  0  0  0  0  0  0  0  0  0  0  0
   25.9153  -20.7454  -10.2605 C   0  0  2  0  0  0  0  0  0  0  0  0
   24.5269  -20.7706   -9.6646 C   0  0  0  0  0  0  0  0  0  0  0  0
   25.8946  -21.4971  -11.5566 C   0  0  2  0  0  0  0  0  0  0  0  0
   27.2603  -21.4211  -12.0936 N   0  0  0  0  0  0  0  0  0  0  0  0
   24.9904  -20.8558  -12.5155 C   0  0  0  0  0  0  0  0  0  0  0  0
   25.1633  -19.6651  -12.9300 O   0  0  0  0  0  0  0  0  0  0  0  0
   25.1597  -21.3340  -15.3324 N   0  0  0  0  0  0  0  0  0  0  0  0
   23.9782  -21.9579  -15.8219 C   0  0  0  0  0  0  0  0  0  0  0  0
   24.0275  -22.6138  -16.9245 O   0  0  0  0  0  0  0  0  0  0  0  0
   22.7023  -21.8603  -15.0877 C   0  0  0  0  0  0  0  0  0  0  0  0
   22.8598  -20.9413  -13.8658 C   0  0  2  0  0  0  0  0  0  0  0  0
   23.8550  -21.5628  -13.0306 N   0  0  0  0  0  0  0  0  0  0  0  0
   21.5297  -20.8848  -13.1530 C   0  0  0  0  0  0  0  0  0  0  0  0
   21.4354  -20.9705  -11.9012 O   0  0  0  0  0  0  0  0  0  0  0  0
   20.3573  -20.7308  -13.9120 N   0  0  0  0  0  0  0  0  0  0  0  0
   19.0170  -20.7343  -13.3525 C   0  0  0  0  0  0  0  0  0  0  0  0
   17.9679  -20.7576  -14.3945 C   0  0  0  0  0  0  0  0  0  0  0  0
   17.6484  -21.8661  -15.1406 O   0  0  0  0  0  0  0  0  0  0  0  0
   17.2979  -19.7134  -14.6455 O   0  0  0  0  0  0  0  0  0  0  0  0
  1  2  1  0
  3  2  1  0
  3  5  1  0
  3  4  1  1
  5  6  1  6
  5  7  1  0
  7 14  1  0
  7  8  2  0
 10  9  1  0
 10 12  1  0
 11 10  2  0
 13 12  1  6
 14 13  1  0
 15 13  1  0
 15 17  1  0
 16 15  2  0
 18 17  1  0
 18 19  1  0
 19 20  1  0
 21 19  2  0
M  END
$$$$
