ING.pdb
     RDKit          3D

 21 20  0  0  1  0  0  0  0  0999 V2000
   19.2165  -15.2033  -16.1036 C   0  0  0  0  0  0  0  0  0  0  0  0
   20.6077  -15.2319  -16.7513 C   0  0  0  0  0  0  0  0  0  0  0  0
   21.4294  -14.1597  -16.1153 C   0  0  2  0  0  0  0  0  0  0  0  0
   20.7502  -12.8102  -16.1462 C   0  0  0  0  0  0  0  0  0  0  0  0
   22.8178  -14.0103  -16.6589 C   0  0  2  0  0  0  0  0  0  0  0  0
   23.4314  -15.3433  -16.5813 N   0  0  0  0  0  0  0  0  0  0  0  0
   23.6061  -13.0955  -15.8282 C   0  0  0  0  0  0  0  0  0  0  0  0
   23.8853  -13.3425  -14.6116 O   0  0  0  0  0  0  0  0  0  0  0  0
   26.7605  -12.8485  -15.0563 N   0  0  0  0  0  0  0  0  0  0  0  0
   27.1267  -11.8427  -15.9940 C   0  0  0  0  0  0  0  0  0  0  0  0
   28.2871  -11.8898  -16.5411 O   0  0  0  0  0  0  0  0  0  0  0  0
   26.1995  -10.7495  -16.3427 C   0  0  0  0  0  0  0  0  0  0  0  0
   24.8675  -10.9218  -15.5955 C   0  0  2  0  0  0  0  0  0  0  0  0
   24.1003  -11.8636  -16.3693 N   0  0  0  0  0  0  0  0  0  0  0  0
   24.1781   -9.5787  -15.5601 C   0  0  0  0  0  0  0  0  0  0  0  0
   24.6959   -8.5733  -15.0084 O   0  0  0  0  0  0  0  0  0  0  0  0
   22.9162   -9.4458  -16.1637 N   0  0  0  0  0  0  0  0  0  0  0  0
   22.1344   -8.2217  -16.1586 C   0  0  0  0  0  0  0  0  0  0  0  0
   21.3138   -8.0785  -14.9367 C   0  0  0  0  0  0  0  0  0  0  0  0
   20.4852   -7.0115  -14.6867 O   0  0  0  0  0  0  0  0  0  0  0  0
   21.3461   -8.9722  -14.0409 O   0  0  0  0  0  0  0  0  0  0  0  0
  1  2  1  0
  3  2  1  0
  3  5  1  0
  3  4  1  6
  5  6  1  1
  5  7  1  0
  7 14  1  0
  7  8  2  0
 10  9  1  0
 10 12  1  0
 11 10  2  0
 13 12  1  6
 14 13  1  0
 15 13  1  0
 15 17  1  0
 16 15  2  0
 18 17  1  0
 18 19  1  0
 19 20  1  0
 21 19  2  0
M  END
$$$$
