ING.pdb
     RDKit          3D

 21 20  0  0  1  0  0  0  0  0999 V2000
   23.3170  -16.9730  -15.9879 C   0  0  0  0  0  0  0  0  0  0  0  0
   22.4586  -15.8449  -15.3993 C   0  0  0  0  0  0  0  0  0  0  0  0
   23.1065  -14.5468  -15.7521 C   0  0  2  0  0  0  0  0  0  0  0  0
   24.5319  -14.4546  -15.2590 C   0  0  0  0  0  0  0  0  0  0  0  0
   22.3660  -13.3213  -15.3103 C   0  0  2  0  0  0  0  0  0  0  0  0
   20.9790  -13.4981  -15.7623 N   0  0  0  0  0  0  0  0  0  0  0  0
   22.9085  -12.1238  -15.9586 C   0  0  0  0  0  0  0  0  0  0  0  0
   24.0710  -11.6733  -15.7037 O   0  0  0  0  0  0  0  0  0  0  0  0
   23.8258   -8.7388  -20.0703 N   0  0  0  0  0  0  0  0  0  0  0  0
   22.4766   -8.9788  -19.6869 C   0  0  0  0  0  0  0  0  0  0  0  0
   21.5826   -8.0984  -19.9587 O   0  0  0  0  0  0  0  0  0  0  0  0
   22.0913  -10.2162  -18.9820 C   0  0  0  0  0  0  0  0  0  0  0  0
   22.5768  -10.1722  -17.5244 C   0  0  2  0  0  0  0  0  0  0  0  0
   22.1310  -11.4027  -16.9230 N   0  0  0  0  0  0  0  0  0  0  0  0
   21.9242   -8.9873  -16.8533 C   0  0  0  0  0  0  0  0  0  0  0  0
   22.1664   -7.8024  -17.2005 O   0  0  0  0  0  0  0  0  0  0  0  0
   21.0150   -9.2143  -15.8063 N   0  0  0  0  0  0  0  0  0  0  0  0
   20.2398   -8.1707  -15.1585 C   0  0  0  0  0  0  0  0  0  0  0  0
   20.9256   -7.6064  -13.9762 C   0  0  0  0  0  0  0  0  0  0  0  0
   20.3775   -6.6560  -13.1491 O   0  0  0  0  0  0  0  0  0  0  0  0
   22.0904   -7.9963  -13.6705 O   0  0  0  0  0  0  0  0  0  0  0  0
  1  2  1  0
  3  2  1  0
  3  5  1  0
  3  4  1  1
  5  6  1  6
  5  7  1  0
  7 14  1  0
  7  8  2  0
 10  9  1  0
 10 12  1  0
 11 10  2  0
 13 12  1  6
 14 13  1  0
 15 13  1  0
 15 17  1  0
 16 15  2  0
 18 17  1  0
 18 19  1  0
 19 20  1  0
 21 19  2  0
M  END
$$$$
