ING.pdb
     RDKit          3D

 21 20  0  0  1  0  0  0  0  0999 V2000
   17.1610  -12.9389  -15.7927 C   0  0  0  0  0  0  0  0  0  0  0  0
   18.3121  -11.9269  -15.8752 C   0  0  0  0  0  0  0  0  0  0  0  0
   17.8821  -10.6874  -15.1626 C   0  0  2  0  0  0  0  0  0  0  0  0
   16.5810  -10.1322  -15.6937 C   0  0  0  0  0  0  0  0  0  0  0  0
   18.8959   -9.5845  -15.1289 C   0  0  2  0  0  0  0  0  0  0  0  0
   20.0775  -10.1376  -14.4528 N   0  0  0  0  0  0  0  0  0  0  0  0
   18.4060   -8.4516  -14.3383 C   0  0  0  0  0  0  0  0  0  0  0  0
   17.4438   -7.7127  -14.7225 O   0  0  0  0  0  0  0  0  0  0  0  0
   17.8866   -5.1447  -10.3638 N   0  0  0  0  0  0  0  0  0  0  0  0
   18.0879   -6.4771   -9.9062 C   0  0  0  0  0  0  0  0  0  0  0  0
   17.8645   -6.7558   -8.6731 O   0  0  0  0  0  0  0  0  0  0  0  0
   18.5507   -7.5374  -10.8216 C   0  0  0  0  0  0  0  0  0  0  0  0
   18.5780   -7.0183  -12.2680 C   0  0  2  0  0  0  0  0  0  0  0  0
   19.0072   -8.1294  -13.0777 N   0  0  0  0  0  0  0  0  0  0  0  0
   19.5818   -5.8923  -12.3381 C   0  0  0  0  0  0  0  0  0  0  0  0
   19.4538   -4.8367  -11.6654 O   0  0  0  0  0  0  0  0  0  0  0  0
   20.6970   -6.0270  -13.1822 N   0  0  0  0  0  0  0  0  0  0  0  0
   21.6408   -4.9594  -13.4635 C   0  0  0  0  0  0  0  0  0  0  0  0
   21.0311   -3.8514  -14.2299 C   0  0  0  0  0  0  0  0  0  0  0  0
   19.7204   -3.8298  -14.6413 O   0  0  0  0  0  0  0  0  0  0  0  0
   21.7240   -2.8403  -14.5460 O   0  0  0  0  0  0  0  0  0  0  0  0
  1  2  1  0
  3  2  1  0
  3  5  1  0
  3  4  1  6
  5  6  1  1
  5  7  1  0
  7 14  1  0
  7  8  2  0
 10  9  1  0
 10 12  1  0
 11 10  2  0
 13 12  1  1
 14 13  1  0
 15 13  1  0
 15 17  1  0
 16 15  2  0
 18 17  1  0
 18 19  1  0
 19 20  1  0
 21 19  2  0
M  END
$$$$
