ING.pdb
     RDKit          3D

 21 20  0  0  1  0  0  0  0  0999 V2000
   13.9815  -11.3156  -16.0076 C   0  0  0  0  0  0  0  0  0  0  0  0
   15.4449  -10.8532  -16.0359 C   0  0  0  0  0  0  0  0  0  0  0  0
   15.6120   -9.8030  -14.9879 C   0  0  2  0  0  0  0  0  0  0  0  0
   14.5737   -8.7098  -15.0884 C   0  0  0  0  0  0  0  0  0  0  0  0
   16.9693   -9.1711  -14.9261 C   0  0  2  0  0  0  0  0  0  0  0  0
   17.8865  -10.2204  -14.4604 N   0  0  0  0  0  0  0  0  0  0  0  0
   16.9907   -8.0791  -13.9487 C   0  0  0  0  0  0  0  0  0  0  0  0
   16.3727   -6.9820  -14.1329 O   0  0  0  0  0  0  0  0  0  0  0  0
   15.8530   -6.0546  -10.1379 N   0  0  0  0  0  0  0  0  0  0  0  0
   16.5530   -7.1732   -9.6053 C   0  0  0  0  0  0  0  0  0  0  0  0
   16.2573   -7.5947   -8.4293 O   0  0  0  0  0  0  0  0  0  0  0  0
   17.6112   -7.8507  -10.3785 C   0  0  0  0  0  0  0  0  0  0  0  0
   17.7994   -7.1632  -11.7402 C   0  0  2  0  0  0  0  0  0  0  0  0
   17.7249   -8.2117  -12.7249 N   0  0  0  0  0  0  0  0  0  0  0  0
   19.1665   -6.5218  -11.7513 C   0  0  0  0  0  0  0  0  0  0  0  0
   19.4818   -5.6009  -10.9540 O   0  0  0  0  0  0  0  0  0  0  0  0
   20.1195   -6.9680  -12.6824 N   0  0  0  0  0  0  0  0  0  0  0  0
   21.4407   -6.3856  -12.8401 C   0  0  0  0  0  0  0  0  0  0  0  0
   21.4220   -5.1497  -13.6519 C   0  0  0  0  0  0  0  0  0  0  0  0
   22.5338   -4.3890  -13.9217 O   0  0  0  0  0  0  0  0  0  0  0  0
   20.3354   -4.7320  -14.1491 O   0  0  0  0  0  0  0  0  0  0  0  0
  1  2  1  0
  3  2  1  0
  3  5  1  0
  3  4  1  6
  5  6  1  1
  5  7  1  0
  7 14  1  0
  7  8  2  0
 10  9  1  0
 10 12  1  0
 11 10  2  0
 13 12  1  1
 14 13  1  0
 15 13  1  0
 15 17  1  0
 16 15  2  0
 18 17  1  0
 18 19  1  0
 19 20  1  0
 21 19  2  0
M  END
$$$$
