ING.pdb
     RDKit          3D

 21 20  0  0  1  0  0  0  0  0999 V2000
   17.3401  -12.7762  -13.1072 C   0  0  0  0  0  0  0  0  0  0  0  0
   17.8280  -11.3266  -13.2354 C   0  0  0  0  0  0  0  0  0  0  0  0
   16.8512  -10.4515  -12.5218 C   0  0  2  0  0  0  0  0  0  0  0  0
   15.4250  -10.6950  -12.9575 C   0  0  0  0  0  0  0  0  0  0  0  0
   17.1324   -8.9817  -12.6007 C   0  0  2  0  0  0  0  0  0  0  0  0
   18.4472   -8.7842  -11.9748 N   0  0  0  0  0  0  0  0  0  0  0  0
   16.1423   -8.2207  -11.8334 C   0  0  0  0  0  0  0  0  0  0  0  0
   14.9116   -8.1780  -12.1542 O   0  0  0  0  0  0  0  0  0  0  0  0
   13.7436   -8.1485   -8.6084 N   0  0  0  0  0  0  0  0  0  0  0  0
   14.9036   -7.7777   -7.8722 C   0  0  0  0  0  0  0  0  0  0  0  0
   15.0598   -8.2299   -6.6808 O   0  0  0  0  0  0  0  0  0  0  0  0
   15.9230   -6.8829   -8.4524 C   0  0  0  0  0  0  0  0  0  0  0  0
   15.6281   -6.6330   -9.9399 C   0  0  2  0  0  0  0  0  0  0  0  0
   16.5346   -7.4817  -10.6696 N   0  0  0  0  0  0  0  0  0  0  0  0
   15.9125   -5.1789  -10.2316 C   0  0  0  0  0  0  0  0  0  0  0  0
   15.2740   -4.2465   -9.6783 O   0  0  0  0  0  0  0  0  0  0  0  0
   16.9244   -4.8549  -11.1510 N   0  0  0  0  0  0  0  0  0  0  0  0
   17.2986   -3.4975  -11.5074 C   0  0  0  0  0  0  0  0  0  0  0  0
   16.2802   -2.8308  -12.3471 C   0  0  0  0  0  0  0  0  0  0  0  0
   16.3915   -1.5443  -12.8163 O   0  0  0  0  0  0  0  0  0  0  0  0
   15.2261   -3.4483  -12.6786 O   0  0  0  0  0  0  0  0  0  0  0  0
  1  2  1  0
  3  2  1  0
  3  5  1  0
  3  4  1  6
  5  6  1  1
  5  7  1  0
  7 14  1  0
  7  8  2  0
 10  9  1  0
 10 12  1  0
 11 10  2  0
 13 12  1  1
 14 13  1  0
 15 13  1  0
 15 17  1  0
 16 15  2  0
 18 17  1  0
 18 19  1  0
 19 20  1  0
 21 19  2  0
M  END
$$$$
