ING.pdb
     RDKit          3D

 21 20  0  0  1  0  0  0  0  0999 V2000
   16.2229  -12.7801  -18.5778 C   0  0  0  0  0  0  0  0  0  0  0  0
   17.6901  -12.7537  -18.1278 C   0  0  0  0  0  0  0  0  0  0  0  0
   17.8849  -11.5420  -17.2774 C   0  0  2  0  0  0  0  0  0  0  0  0
   17.5130  -10.2635  -17.9918 C   0  0  0  0  0  0  0  0  0  0  0  0
   19.2559  -11.3837  -16.6936 C   0  0  2  0  0  0  0  0  0  0  0  0
   19.5380  -12.6323  -15.9718 N   0  0  0  0  0  0  0  0  0  0  0  0
   19.2861  -10.2813  -15.7282 C   0  0  0  0  0  0  0  0  0  0  0  0
   18.4946  -10.2190  -14.7337 O   0  0  0  0  0  0  0  0  0  0  0  0
   20.4962   -5.8284  -13.4282 N   0  0  0  0  0  0  0  0  0  0  0  0
   21.6053   -6.7144  -13.5284 C   0  0  0  0  0  0  0  0  0  0  0  0
   22.6625   -6.4741  -12.8409 O   0  0  0  0  0  0  0  0  0  0  0  0
   21.5608   -7.8974  -14.4087 C   0  0  0  0  0  0  0  0  0  0  0  0
   20.1813   -8.0132  -15.0764 C   0  0  2  0  0  0  0  0  0  0  0  0
   20.2287   -9.2114  -15.8743 N   0  0  0  0  0  0  0  0  0  0  0  0
   19.9869   -6.7995  -15.9537 C   0  0  0  0  0  0  0  0  0  0  0  0
   20.6388   -6.6286  -17.0163 O   0  0  0  0  0  0  0  0  0  0  0  0
   19.0462   -5.8281  -15.5721 N   0  0  0  0  0  0  0  0  0  0  0  0
   18.7005   -4.6678  -16.3745 C   0  0  0  0  0  0  0  0  0  0  0  0
   17.6829   -3.8130  -15.7259 C   0  0  0  0  0  0  0  0  0  0  0  0
   17.2686   -2.5998  -16.2199 O   0  0  0  0  0  0  0  0  0  0  0  0
   17.1333   -4.1852  -14.6481 O   0  0  0  0  0  0  0  0  0  0  0  0
  1  2  1  0
  3  2  1  0
  3  5  1  0
  3  4  1  6
  5  6  1  1
  5  7  1  0
  7 14  1  0
  7  8  2  0
 10  9  1  0
 10 12  1  0
 11 10  2  0
 13 12  1  6
 14 13  1  0
 15 13  1  0
 15 17  1  0
 16 15  2  0
 18 17  1  0
 18 19  1  0
 19 20  1  0
 21 19  2  0
M  END
$$$$
