ING.pdb
     RDKit          3D

 21 20  0  0  1  0  0  0  0  0999 V2000
   16.9600  -15.2586  -16.2803 C   0  0  0  0  0  0  0  0  0  0  0  0
   16.0094  -14.1227  -15.8779 C   0  0  0  0  0  0  0  0  0  0  0  0
   16.8307  -12.8942  -15.6648 C   0  0  2  0  0  0  0  0  0  0  0  0
   18.0335  -13.1434  -14.7850 C   0  0  0  0  0  0  0  0  0  0  0  0
   16.0836  -11.7097  -15.1315 C   0  0  2  0  0  0  0  0  0  0  0  0
   15.1052  -11.3456  -16.1657 N   0  0  0  0  0  0  0  0  0  0  0  0
   16.9855  -10.5712  -14.9350 C   0  0  0  0  0  0  0  0  0  0  0  0
   17.7934  -10.4979  -13.9546 O   0  0  0  0  0  0  0  0  0  0  0  0
   19.5979   -9.9484  -18.4522 N   0  0  0  0  0  0  0  0  0  0  0  0
   19.5352   -9.2310  -17.2249 C   0  0  0  0  0  0  0  0  0  0  0  0
   20.3364   -9.5478  -16.2731 O   0  0  0  0  0  0  0  0  0  0  0  0
   18.5659   -8.1364  -17.0286 C   0  0  0  0  0  0  0  0  0  0  0  0
   17.8235   -8.3149  -15.6947 C   0  0  2  0  0  0  0  0  0  0  0  0
   16.9886   -9.4768  -15.8605 N   0  0  0  0  0  0  0  0  0  0  0  0
   16.9793   -7.0840  -15.4650 C   0  0  0  0  0  0  0  0  0  0  0  0
   15.9407   -6.8483  -16.1350 O   0  0  0  0  0  0  0  0  0  0  0  0
   17.3653   -6.1708  -14.4693 N   0  0  0  0  0  0  0  0  0  0  0  0
   16.6483   -4.9449  -14.1646 C   0  0  0  0  0  0  0  0  0  0  0  0
   17.0876   -3.8082  -15.0023 C   0  0  0  0  0  0  0  0  0  0  0  0
   16.5658   -2.5403  -14.9144 O   0  0  0  0  0  0  0  0  0  0  0  0
   17.9994   -3.9696  -15.8654 O   0  0  0  0  0  0  0  0  0  0  0  0
  1  2  1  0
  3  2  1  0
  3  5  1  0
  3  4  1  1
  5  6  1  6
  5  7  1  0
  7 14  1  0
  7  8  2  0
 10  9  1  0
 10 12  1  0
 11 10  2  0
 13 12  1  6
 14 13  1  0
 15 13  1  0
 15 17  1  0
 16 15  2  0
 18 17  1  0
 18 19  1  0
 19 20  1  0
 21 19  2  0
M  END
$$$$
