YLK.pdb
     RDKit          3D

 30 30  0  0  1  0  0  0  0  0999 V2000
   19.5527  -22.7785  -12.0231 O   0  0  0  0  0  0  0  0  0  0  0  0
   20.7280  -22.7607  -12.7774 C   0  0  0  0  0  0  0  0  0  0  0  0
   21.7234  -21.8370  -12.5538 C   0  0  0  0  0  0  0  0  0  0  0  0
   22.8664  -21.8565  -13.3221 C   0  0  0  0  0  0  0  0  0  0  0  0
   23.0277  -22.7963  -14.3200 C   0  0  0  0  0  0  0  0  0  0  0  0
   24.2664  -22.7762  -15.1135 C   0  0  0  0  0  0  0  0  0  0  0  0
   24.4459  -21.5140  -15.9012 C   0  0  2  0  0  0  0  0  0  0  0  0
   23.3013  -21.1414  -16.6733 N   0  0  0  0  0  0  0  0  0  0  0  0
   25.6873  -21.6008  -16.7017 C   0  0  0  0  0  0  0  0  0  0  0  0
   25.5922  -22.0164  -17.8847 O   0  0  0  0  0  0  0  0  0  0  0  0
   22.0386  -23.7295  -14.5567 C   0  0  0  0  0  0  0  0  0  0  0  0
   20.9019  -23.6938  -13.7770 C   0  0  0  0  0  0  0  0  0  0  0  0
   30.8691  -18.7411  -17.7109 C   0  0  0  0  0  0  0  0  0  0  0  0
   30.1422  -20.0781  -17.9332 C   0  0  2  0  0  0  0  0  0  0  0  0
   29.8451  -20.1077  -19.4344 C   0  0  0  0  0  0  0  0  0  0  0  0
   28.9038  -20.0238  -17.1158 C   0  0  0  0  0  0  0  0  0  0  0  0
   28.0841  -21.2628  -17.0873 C   0  0  2  0  0  0  0  0  0  0  0  0
   26.9620  -21.2465  -16.2169 N   0  0  0  0  0  0  0  0  0  0  0  0
   28.9964  -22.3783  -16.6346 C   0  0  0  0  0  0  0  0  0  0  0  0
   29.4472  -22.3754  -15.4588 O   0  0  0  0  0  0  0  0  0  0  0  0
   29.3372  -23.4167  -17.5344 N   0  0  0  0  0  0  0  0  0  0  0  0
   30.0931  -24.6035  -17.0932 C   0  0  1  0  0  0  0  0  0  0  0  0
   29.2128  -25.7715  -17.3747 C   0  0  0  0  0  0  0  0  0  0  0  0
   29.9367  -27.0575  -17.1156 C   0  0  0  0  0  0  0  0  0  0  0  0
   29.0329  -28.2223  -17.3855 C   0  0  0  0  0  0  0  0  0  0  0  0
   29.7742  -29.5200  -17.2529 C   0  0  0  0  0  0  0  0  0  0  0  0
   28.8025  -30.5940  -17.4016 N   0  0  0  0  0  0  0  0  0  0  0  0
   31.3965  -24.5766  -17.7569 C   0  0  0  0  0  0  0  0  0  0  0  0
   32.5363  -24.9752  -17.0924 O   0  0  0  0  0  0  0  0  0  0  0  0
   31.5169  -24.1969  -18.9361 O   0  0  0  0  0  0  0  0  0  0  0  0
  2  1  1  0
  3  2  2  0
  4  3  1  0
  5 11  1  0
  5  4  2  0
  6  5  1  0
  7  6  1  0
  7  8  1  6
  9  7  1  0
  9 10  2  0
 11 12  2  0
 12  2  1  0
 14 16  1  0
 14 13  1  6
 15 14  1  0
 17 16  1  1
 17 18  1  0
 18  9  1  0
 19 17  1  0
 20 19  2  0
 21 19  1  0
 22 21  1  0
 22 28  1  0
 22 23  1  6
 24 23  1  0
 25 24  1  0
 26 27  1  0
 26 25  1  0
 28 30  2  0
 28 29  1  0
M  END
$$$$
