YLK.pdb
     RDKit          3D

 30 30  0  0  1  0  0  0  0  0999 V2000
   28.0875  -12.8730  -17.2937 O   0  0  0  0  0  0  0  0  0  0  0  0
   27.4157  -14.0197  -16.8644 C   0  0  0  0  0  0  0  0  0  0  0  0
   26.9041  -14.9394  -17.7511 C   0  0  0  0  0  0  0  0  0  0  0  0
   26.2484  -16.0567  -17.2830 C   0  0  0  0  0  0  0  0  0  0  0  0
   26.0967  -16.2673  -15.9274 C   0  0  0  0  0  0  0  0  0  0  0  0
   25.3888  -17.4758  -15.4769 C   0  0  0  0  0  0  0  0  0  0  0  0
   26.3089  -18.5644  -15.0141 C   0  0  2  0  0  0  0  0  0  0  0  0
   27.1858  -19.0573  -16.0305 N   0  0  0  0  0  0  0  0  0  0  0  0
   25.5238  -19.6301  -14.3528 C   0  0  0  0  0  0  0  0  0  0  0  0
   25.2378  -20.6508  -15.0294 O   0  0  0  0  0  0  0  0  0  0  0  0
   26.6041  -15.3542  -15.0252 C   0  0  0  0  0  0  0  0  0  0  0  0
   27.2572  -14.2423  -15.5133 C   0  0  0  0  0  0  0  0  0  0  0  0
   26.4083  -22.2918  -10.8773 C   0  0  0  0  0  0  0  0  0  0  0  0
   25.8747  -20.9238  -10.4201 C   0  0  2  0  0  0  0  0  0  0  0  0
   25.8861  -20.9997   -8.8914 C   0  0  0  0  0  0  0  0  0  0  0  0
   24.4993  -20.8053  -10.9670 C   0  0  0  0  0  0  0  0  0  0  0  0
   24.3918  -20.6678  -12.4426 C   0  0  2  0  0  0  0  0  0  0  0  0
   25.0812  -19.5669  -13.0167 N   0  0  0  0  0  0  0  0  0  0  0  0
   22.9242  -20.5023  -12.7588 C   0  0  0  0  0  0  0  0  0  0  0  0
   22.3749  -19.3810  -12.5958 O   0  0  0  0  0  0  0  0  0  0  0  0
   22.1786  -21.6074  -13.2351 N   0  0  0  0  0  0  0  0  0  0  0  0
   20.7527  -21.4818  -13.5896 C   0  0  1  0  0  0  0  0  0  0  0  0
   20.4116  -22.7223  -14.3399 C   0  0  0  0  0  0  0  0  0  0  0  0
   18.9430  -22.7809  -14.6307 C   0  0  0  0  0  0  0  0  0  0  0  0
   18.6164  -24.0311  -15.3902 C   0  0  0  0  0  0  0  0  0  0  0  0
   17.1510  -24.1018  -15.7046 C   0  0  0  0  0  0  0  0  0  0  0  0
   16.9131  -25.3634  -16.3912 N   0  0  0  0  0  0  0  0  0  0  0  0
   20.0064  -21.2215  -12.3586 C   0  0  0  0  0  0  0  0  0  0  0  0
   18.9212  -20.3718  -12.3564 O   0  0  0  0  0  0  0  0  0  0  0  0
   20.3245  -21.7570  -11.2810 O   0  0  0  0  0  0  0  0  0  0  0  0
  2  1  1  0
  3  2  2  0
  4  3  1  0
  5 11  1  0
  5  4  2  0
  6  5  1  0
  7  6  1  0
  7  8  1  6
  9  7  1  0
  9 10  2  0
 11 12  2  0
 12  2  1  0
 14 16  1  0
 14 13  1  6
 15 14  1  0
 17 16  1  1
 17 18  1  0
 18  9  1  0
 19 17  1  0
 20 19  2  0
 21 19  1  0
 22 21  1  0
 22 28  1  0
 22 23  1  1
 24 23  1  0
 25 24  1  0
 26 27  1  0
 26 25  1  0
 28 30  2  0
 28 29  1  0
M  END
$$$$
