YLK.pdb
     RDKit          3D

 30 30  0  0  1  0  0  0  0  0999 V2000
   18.1801  -25.0156   -6.7298 O   0  0  0  0  0  0  0  0  0  0  0  0
   18.8157  -24.2015   -7.6700 C   0  0  0  0  0  0  0  0  0  0  0  0
   18.4526  -24.2010   -8.9974 C   0  0  0  0  0  0  0  0  0  0  0  0
   19.1072  -23.3814   -9.8903 C   0  0  0  0  0  0  0  0  0  0  0  0
   20.1291  -22.5553   -9.4684 C   0  0  0  0  0  0  0  0  0  0  0  0
   20.7975  -21.6983  -10.4601 C   0  0  0  0  0  0  0  0  0  0  0  0
   21.8683  -20.8319   -9.8696 C   0  0  2  0  0  0  0  0  0  0  0  0
   21.3733  -19.7797   -9.0373 N   0  0  0  0  0  0  0  0  0  0  0  0
   22.7676  -20.3536  -10.9429 C   0  0  0  0  0  0  0  0  0  0  0  0
   22.5646  -19.2021  -11.4057 O   0  0  0  0  0  0  0  0  0  0  0  0
   20.5051  -22.5442   -8.1403 C   0  0  0  0  0  0  0  0  0  0  0  0
   19.8380  -23.3716   -7.2620 C   0  0  0  0  0  0  0  0  0  0  0  0
   28.0560  -21.6680  -13.8412 C   0  0  0  0  0  0  0  0  0  0  0  0
   26.8221  -20.7518  -13.7824 C   0  0  2  0  0  0  0  0  0  0  0  0
   27.3940  -19.3549  -13.5289 C   0  0  0  0  0  0  0  0  0  0  0  0
   25.9939  -21.2348  -12.6486 C   0  0  0  0  0  0  0  0  0  0  0  0
   24.6976  -20.5384  -12.4423 C   0  0  2  0  0  0  0  0  0  0  0  0
   23.8318  -21.1100  -11.4725 N   0  0  0  0  0  0  0  0  0  0  0  0
   23.9753  -20.5609  -13.7686 C   0  0  0  0  0  0  0  0  0  0  0  0
   23.4455  -21.6302  -14.1709 O   0  0  0  0  0  0  0  0  0  0  0  0
   23.8995  -19.3817  -14.5480 N   0  0  0  0  0  0  0  0  0  0  0  0
   23.2433  -19.3697  -15.8686 C   0  0  1  0  0  0  0  0  0  0  0  0
   23.1218  -17.9343  -16.2469 C   0  0  0  0  0  0  0  0  0  0  0  0
   22.5921  -17.7951  -17.6415 C   0  0  0  0  0  0  0  0  0  0  0  0
   21.4541  -16.8200  -17.6668 C   0  0  0  0  0  0  0  0  0  0  0  0
   20.9387  -16.6313  -19.0632 C   0  0  0  0  0  0  0  0  0  0  0  0
   19.8906  -15.6222  -19.0082 N   0  0  0  0  0  0  0  0  0  0  0  0
   24.0185  -20.2305  -16.7618 C   0  0  0  0  0  0  0  0  0  0  0  0
   25.3963  -20.1901  -16.7625 O   0  0  0  0  0  0  0  0  0  0  0  0
   23.4624  -21.0234  -17.5436 O   0  0  0  0  0  0  0  0  0  0  0  0
  2  1  1  0
  3  2  2  0
  4  3  1  0
  5 11  1  0
  5  4  2  0
  6  5  1  0
  7  6  1  0
  7  8  1  6
  9  7  1  0
  9 10  2  0
 11 12  2  0
 12  2  1  0
 14 16  1  0
 14 13  1  1
 15 14  1  0
 17 16  1  6
 17 18  1  0
 18  9  1  0
 19 17  1  0
 20 19  2  0
 21 19  1  0
 22 21  1  0
 22 28  1  0
 22 23  1  6
 24 23  1  0
 25 24  1  0
 26 27  1  0
 26 25  1  0
 28 30  2  0
 28 29  1  0
M  END
$$$$
