YLK.pdb
     RDKit          3D

 30 30  0  0  1  0  0  0  0  0999 V2000
   28.6554  -20.2506   -2.9171 O   0  0  0  0  0  0  0  0  0  0  0  0
   28.0766  -20.0974   -4.1789 C   0  0  0  0  0  0  0  0  0  0  0  0
   28.3641  -19.0208   -4.9866 C   0  0  0  0  0  0  0  0  0  0  0  0
   27.7698  -18.9101   -6.2243 C   0  0  0  0  0  0  0  0  0  0  0  0
   26.8838  -19.8709   -6.6680 C   0  0  0  0  0  0  0  0  0  0  0  0
   26.2751  -19.7080   -7.9975 C   0  0  0  0  0  0  0  0  0  0  0  0
   26.7495  -20.7205   -8.9952 C   0  0  2  0  0  0  0  0  0  0  0  0
   28.1589  -20.9594   -8.9577 N   0  0  0  0  0  0  0  0  0  0  0  0
   26.2539  -20.3601  -10.3420 C   0  0  0  0  0  0  0  0  0  0  0  0
   26.2924  -19.1478  -10.6739 O   0  0  0  0  0  0  0  0  0  0  0  0
   26.5850  -20.9566   -5.8698 C   0  0  0  0  0  0  0  0  0  0  0  0
   27.1901  -21.0497   -4.6343 C   0  0  0  0  0  0  0  0  0  0  0  0
   27.4486  -19.2439  -14.0733 C   0  0  0  0  0  0  0  0  0  0  0  0
   27.6078  -20.7275  -13.7009 C   0  0  2  0  0  0  0  0  0  0  0  0
   28.4691  -21.3137  -14.8222 C   0  0  0  0  0  0  0  0  0  0  0  0
   26.2400  -21.3049  -13.6820 C   0  0  0  0  0  0  0  0  0  0  0  0
   25.3605  -20.8669  -12.5674 C   0  0  2  0  0  0  0  0  0  0  0  0
   25.7444  -21.2920  -11.2679 N   0  0  0  0  0  0  0  0  0  0  0  0
   23.9887  -21.4342  -12.8463 C   0  0  0  0  0  0  0  0  0  0  0  0
   23.6910  -22.5812  -12.4204 O   0  0  0  0  0  0  0  0  0  0  0  0
   23.0497  -20.6733  -13.5834 N   0  0  0  0  0  0  0  0  0  0  0  0
   21.6826  -21.1662  -13.8337 C   0  0  1  0  0  0  0  0  0  0  0  0
   20.9116  -19.9897  -14.3232 C   0  0  0  0  0  0  0  0  0  0  0  0
   19.5185  -20.3882  -14.7044 C   0  0  0  0  0  0  0  0  0  0  0  0
   18.7367  -19.1842  -15.1354 C   0  0  0  0  0  0  0  0  0  0  0  0
   17.3346  -19.5610  -15.5139 C   0  0  0  0  0  0  0  0  0  0  0  0
   16.5823  -18.3260  -15.6837 N   0  0  0  0  0  0  0  0  0  0  0  0
   21.7790  -22.3188  -14.7293 C   0  0  0  0  0  0  0  0  0  0  0  0
   22.7321  -22.3632  -15.7240 O   0  0  0  0  0  0  0  0  0  0  0  0
   21.0094  -23.2910  -14.6214 O   0  0  0  0  0  0  0  0  0  0  0  0
  2  1  1  0
  3  2  2  0
  4  3  1  0
  5 11  1  0
  5  4  2  0
  6  5  1  0
  7  6  1  0
  7  8  1  6
  9  7  1  0
  9 10  2  0
 11 12  2  0
 12  2  1  0
 14 16  1  0
 14 13  1  6
 15 14  1  0
 17 16  1  6
 17 18  1  0
 18  9  1  0
 19 17  1  0
 20 19  2  0
 21 19  1  0
 22 21  1  0
 22 28  1  0
 22 23  1  6
 24 23  1  0
 25 24  1  0
 26 27  1  0
 26 25  1  0
 28 30  2  0
 28 29  1  0
M  END
$$$$
