YLK.pdb
     RDKit          3D

 30 30  0  0  1  0  0  0  0  0999 V2000
   31.0221  -24.5336  -23.1349 O   0  0  0  0  0  0  0  0  0  0  0  0
   30.1475  -24.2170  -22.0931 C   0  0  0  0  0  0  0  0  0  0  0  0
   30.1367  -22.9737  -21.5032 C   0  0  0  0  0  0  0  0  0  0  0  0
   29.2565  -22.7053  -20.4782 C   0  0  0  0  0  0  0  0  0  0  0  0
   28.3795  -23.6731  -20.0321 C   0  0  0  0  0  0  0  0  0  0  0  0
   27.4587  -23.3379  -18.9347 C   0  0  0  0  0  0  0  0  0  0  0  0
   28.0969  -23.4133  -17.5809 C   0  0  2  0  0  0  0  0  0  0  0  0
   28.3873  -24.7446  -17.1471 N   0  0  0  0  0  0  0  0  0  0  0  0
   27.2892  -22.6450  -16.6079 C   0  0  0  0  0  0  0  0  0  0  0  0
   26.7731  -23.2752  -15.6499 O   0  0  0  0  0  0  0  0  0  0  0  0
   28.3779  -24.9250  -20.6135 C   0  0  0  0  0  0  0  0  0  0  0  0
   29.2663  -25.1744  -21.6380 C   0  0  0  0  0  0  0  0  0  0  0  0
   26.6828  -16.9662  -14.4131 C   0  0  0  0  0  0  0  0  0  0  0  0
   26.2588  -18.4382  -14.2759 C   0  0  2  0  0  0  0  0  0  0  0  0
   26.8003  -18.8672  -12.9101 C   0  0  0  0  0  0  0  0  0  0  0  0
   26.9090  -19.1685  -15.3933 C   0  0  0  0  0  0  0  0  0  0  0  0
   26.4550  -20.5661  -15.6133 C   0  0  2  0  0  0  0  0  0  0  0  0
   27.0669  -21.2563  -16.6931 N   0  0  0  0  0  0  0  0  0  0  0  0
   24.9721  -20.5032  -15.8936 C   0  0  0  0  0  0  0  0  0  0  0  0
   24.5660  -20.0593  -16.9998 O   0  0  0  0  0  0  0  0  0  0  0  0
   24.0518  -20.9431  -14.9121 N   0  0  0  0  0  0  0  0  0  0  0  0
   22.5952  -20.8453  -15.1204 C   0  0  1  0  0  0  0  0  0  0  0  0
   21.9765  -21.6686  -14.0444 C   0  0  0  0  0  0  0  0  0  0  0  0
   20.4862  -21.7060  -14.1941 C   0  0  0  0  0  0  0  0  0  0  0  0
   19.8849  -22.6014  -13.1533 C   0  0  0  0  0  0  0  0  0  0  0  0
   18.4039  -22.7371  -13.3513 C   0  0  0  0  0  0  0  0  0  0  0  0
   17.9009  -23.6051  -12.2962 N   0  0  0  0  0  0  0  0  0  0  0  0
   22.2425  -19.4261  -15.1591 C   0  0  0  0  0  0  0  0  0  0  0  0
   22.8193  -18.5304  -14.2846 O   0  0  0  0  0  0  0  0  0  0  0  0
   21.4168  -18.9845  -15.9790 O   0  0  0  0  0  0  0  0  0  0  0  0
  2  1  1  0
  3  2  2  0
  4  3  1  0
  5 11  1  0
  5  4  2  0
  6  5  1  0
  7  6  1  0
  7  8  1  1
  9  7  1  0
  9 10  2  0
 11 12  2  0
 12  2  1  0
 14 16  1  0
 14 13  1  6
 15 14  1  0
 17 16  1  6
 17 18  1  0
 18  9  1  0
 19 17  1  0
 20 19  2  0
 21 19  1  0
 22 21  1  0
 22 28  1  0
 22 23  1  1
 24 23  1  0
 25 24  1  0
 26 27  1  0
 26 25  1  0
 28 30  2  0
 28 29  1  0
M  END
$$$$
