YLK.pdb
     RDKit          3D

 30 30  0  0  1  0  0  0  0  0999 V2000
   24.0439  -18.3098  -18.0226 O   0  0  0  0  0  0  0  0  0  0  0  0
   24.0395  -18.8675  -16.7421 C   0  0  0  0  0  0  0  0  0  0  0  0
   23.5812  -20.1433  -16.5047 C   0  0  0  0  0  0  0  0  0  0  0  0
   23.5953  -20.6533  -15.2252 C   0  0  0  0  0  0  0  0  0  0  0  0
   24.0660  -19.8966  -14.1712 C   0  0  0  0  0  0  0  0  0  0  0  0
   24.0608  -20.4857  -12.8230 C   0  0  0  0  0  0  0  0  0  0  0  0
   25.4226  -20.5578  -12.2018 C   0  0  2  0  0  0  0  0  0  0  0  0
   26.3799  -21.2822  -12.9789 N   0  0  0  0  0  0  0  0  0  0  0  0
   25.3082  -21.0484  -10.8106 C   0  0  0  0  0  0  0  0  0  0  0  0
   25.1855  -22.2876  -10.6360 O   0  0  0  0  0  0  0  0  0  0  0  0
   24.5290  -18.6154  -14.3929 C   0  0  0  0  0  0  0  0  0  0  0  0
   24.5068  -18.1227  -15.6806 C   0  0  0  0  0  0  0  0  0  0  0  0
   28.0911  -20.9584   -7.2655 C   0  0  0  0  0  0  0  0  0  0  0  0
   27.2698  -19.6810   -7.5084 C   0  0  2  0  0  0  0  0  0  0  0  0
   27.7926  -18.6861   -6.4693 C   0  0  0  0  0  0  0  0  0  0  0  0
   25.8493  -20.0442   -7.2743 C   0  0  0  0  0  0  0  0  0  0  0  0
   25.1680  -20.7662   -8.3799 C   0  0  2  0  0  0  0  0  0  0  0  0
   25.3287  -20.2114   -9.6773 N   0  0  0  0  0  0  0  0  0  0  0  0
   23.6918  -20.7590   -8.0603 C   0  0  0  0  0  0  0  0  0  0  0  0
   22.9605  -19.8411   -8.5167 O   0  0  0  0  0  0  0  0  0  0  0  0
   23.1426  -21.7826   -7.2513 N   0  0  0  0  0  0  0  0  0  0  0  0
   21.7047  -21.8223   -6.9264 C   0  0  1  0  0  0  0  0  0  0  0  0
   21.1802  -23.0624   -7.5632 C   0  0  0  0  0  0  0  0  0  0  0  0
   19.7357  -23.2655   -7.2212 C   0  0  0  0  0  0  0  0  0  0  0  0
   19.2217  -24.5142   -7.8715 C   0  0  0  0  0  0  0  0  0  0  0  0
   17.7819  -24.7494   -7.5210 C   0  0  0  0  0  0  0  0  0  0  0  0
   17.3490  -25.9424   -8.2345 N   0  0  0  0  0  0  0  0  0  0  0  0
   21.5705  -21.7114   -5.4740 C   0  0  0  0  0  0  0  0  0  0  0  0
   22.6079  -22.0670   -4.6391 O   0  0  0  0  0  0  0  0  0  0  0  0
   20.5223  -21.2933   -4.9489 O   0  0  0  0  0  0  0  0  0  0  0  0
  2  1  1  0
  3  2  2  0
  4  3  1  0
  5 11  1  0
  5  4  2  0
  6  5  1  0
  7  6  1  0
  7  8  1  6
  9  7  1  0
  9 10  2  0
 11 12  2  0
 12  2  1  0
 14 16  1  0
 14 13  1  1
 15 14  1  0
 17 16  1  1
 17 18  1  0
 18  9  1  0
 19 17  1  0
 20 19  2  0
 21 19  1  0
 22 21  1  0
 22 28  1  0
 22 23  1  1
 24 23  1  0
 25 24  1  0
 26 27  1  0
 26 25  1  0
 28 30  2  0
 28 29  1  0
M  END
$$$$
