YLK.pdb
     RDKit          3D

 30 30  0  0  1  0  0  0  0  0999 V2000
   28.3252  -15.6055  -21.2248 O   0  0  0  0  0  0  0  0  0  0  0  0
   27.6948  -16.4982  -20.3552 C   0  0  0  0  0  0  0  0  0  0  0  0
   27.4079  -17.7932  -20.7222 C   0  0  0  0  0  0  0  0  0  0  0  0
   26.7848  -18.6395  -19.8319 C   0  0  0  0  0  0  0  0  0  0  0  0
   26.4421  -18.2031  -18.5681 C   0  0  0  0  0  0  0  0  0  0  0  0
   25.7781  -19.1448  -17.6533 C   0  0  0  0  0  0  0  0  0  0  0  0
   26.6818  -19.6614  -16.5752 C   0  0  2  0  0  0  0  0  0  0  0  0
   27.8048  -20.4013  -17.0612 N   0  0  0  0  0  0  0  0  0  0  0  0
   25.8848  -20.4012  -15.5717 C   0  0  0  0  0  0  0  0  0  0  0  0
   25.4525  -21.5380  -15.8914 O   0  0  0  0  0  0  0  0  0  0  0  0
   26.7230  -16.9072  -18.1848 C   0  0  0  0  0  0  0  0  0  0  0  0
   27.3471  -16.0753  -19.0901 C   0  0  0  0  0  0  0  0  0  0  0  0
   26.7523  -22.4451  -11.9124 C   0  0  0  0  0  0  0  0  0  0  0  0
   26.5759  -20.9387  -11.6578 C   0  0  2  0  0  0  0  0  0  0  0  0
   26.8983  -20.7609  -10.1721 C   0  0  0  0  0  0  0  0  0  0  0  0
   25.1583  -20.6236  -11.9673 C   0  0  0  0  0  0  0  0  0  0  0  0
   24.7762  -20.6703  -13.4025 C   0  0  2  0  0  0  0  0  0  0  0  0
   25.5844  -19.9076  -14.2867 N   0  0  0  0  0  0  0  0  0  0  0  0
   23.3670  -20.1345  -13.4956 C   0  0  0  0  0  0  0  0  0  0  0  0
   23.1756  -18.9492  -13.8752 O   0  0  0  0  0  0  0  0  0  0  0  0
   22.2742  -20.9676  -13.1558 N   0  0  0  0  0  0  0  0  0  0  0  0
   20.9195  -20.7171  -13.6818 C   0  0  1  0  0  0  0  0  0  0  0  0
   21.0466  -20.7624  -15.1650 C   0  0  0  0  0  0  0  0  0  0  0  0
   19.7380  -20.4421  -15.8208 C   0  0  0  0  0  0  0  0  0  0  0  0
   19.8619  -20.5677  -17.3092 C   0  0  0  0  0  0  0  0  0  0  0  0
   18.5895  -20.1587  -17.9910 C   0  0  0  0  0  0  0  0  0  0  0  0
   18.8135  -20.2557  -19.4263 N   0  0  0  0  0  0  0  0  0  0  0  0
   20.0124  -21.6826  -13.0613 C   0  0  0  0  0  0  0  0  0  0  0  0
   18.7315  -21.3203  -12.7037 O   0  0  0  0  0  0  0  0  0  0  0  0
   20.3655  -22.8553  -12.8393 O   0  0  0  0  0  0  0  0  0  0  0  0
  2  1  1  0
  3  2  2  0
  4  3  1  0
  5 11  1  0
  5  4  2  0
  6  5  1  0
  7  6  1  0
  7  8  1  6
  9  7  1  0
  9 10  2  0
 11 12  2  0
 12  2  1  0
 14 16  1  0
 14 13  1  1
 15 14  1  0
 17 16  1  1
 17 18  1  0
 18  9  1  0
 19 17  1  0
 20 19  2  0
 21 19  1  0
 22 21  1  0
 22 28  1  0
 22 23  1  6
 24 23  1  0
 25 24  1  0
 26 27  1  0
 26 25  1  0
 28 30  2  0
 28 29  1  0
M  END
$$$$
