YLK.pdb
     RDKit          3D

 30 30  0  0  1  0  0  0  0  0999 V2000
   16.3718  -24.5768  -13.6742 O   0  0  0  0  0  0  0  0  0  0  0  0
   17.6462  -24.0186  -13.7964 C   0  0  0  0  0  0  0  0  0  0  0  0
   18.5393  -24.0052  -12.7494 C   0  0  0  0  0  0  0  0  0  0  0  0
   19.7862  -23.4437  -12.9148 C   0  0  0  0  0  0  0  0  0  0  0  0
   20.1541  -22.8908  -14.1247 C   0  0  0  0  0  0  0  0  0  0  0  0
   21.4970  -22.3032  -14.2517 C   0  0  0  0  0  0  0  0  0  0  0  0
   21.7173  -21.1264  -13.3505 C   0  0  2  0  0  0  0  0  0  0  0  0
   20.7638  -20.0745  -13.5222 N   0  0  0  0  0  0  0  0  0  0  0  0
   23.1195  -20.6683  -13.4661 C   0  0  0  0  0  0  0  0  0  0  0  0
   23.3510  -19.6745  -14.2010 O   0  0  0  0  0  0  0  0  0  0  0  0
   19.2698  -22.8964  -15.1844 C   0  0  0  0  0  0  0  0  0  0  0  0
   18.0265  -23.4630  -14.9992 C   0  0  0  0  0  0  0  0  0  0  0  0
   28.8486  -21.6914  -11.3791 C   0  0  0  0  0  0  0  0  0  0  0  0
   27.9741  -21.0705  -12.4814 C   0  0  2  0  0  0  0  0  0  0  0  0
   28.3105  -19.5779  -12.4420 C   0  0  0  0  0  0  0  0  0  0  0  0
   26.5644  -21.3395  -12.1004 C   0  0  0  0  0  0  0  0  0  0  0  0
   25.5255  -20.8072  -13.0198 C   0  0  2  0  0  0  0  0  0  0  0  0
   24.2033  -21.2784  -12.8040 N   0  0  0  0  0  0  0  0  0  0  0  0
   25.9317  -21.2120  -14.4171 C   0  0  0  0  0  0  0  0  0  0  0  0
   25.8136  -22.4131  -14.7764 O   0  0  0  0  0  0  0  0  0  0  0  0
   26.4414  -20.2395  -15.3106 N   0  0  0  0  0  0  0  0  0  0  0  0
   26.9597  -20.6093  -16.6408 C   0  0  1  0  0  0  0  0  0  0  0  0
   28.0554  -21.5865  -16.3907 C   0  0  0  0  0  0  0  0  0  0  0  0
   28.6229  -22.0910  -17.6823 C   0  0  0  0  0  0  0  0  0  0  0  0
   29.7358  -23.0586  -17.4145 C   0  0  0  0  0  0  0  0  0  0  0  0
   30.3650  -23.5223  -18.6952 C   0  0  0  0  0  0  0  0  0  0  0  0
   31.6036  -24.2051  -18.3500 N   0  0  0  0  0  0  0  0  0  0  0  0
   25.8304  -21.0675  -17.4500 C   0  0  0  0  0  0  0  0  0  0  0  0
   24.5580  -21.1193  -16.9227 O   0  0  0  0  0  0  0  0  0  0  0  0
   25.9813  -21.4214  -18.6337 O   0  0  0  0  0  0  0  0  0  0  0  0
  2  1  1  0
  3  2  2  0
  4  3  1  0
  5 11  1  0
  5  4  2  0
  6  5  1  0
  7  6  1  0
  7  8  1  6
  9  7  1  0
  9 10  2  0
 11 12  2  0
 12  2  1  0
 14 16  1  0
 14 13  1  1
 15 14  1  0
 17 16  1  1
 17 18  1  0
 18  9  1  0
 19 17  1  0
 20 19  2  0
 21 19  1  0
 22 21  1  0
 22 28  1  0
 22 23  1  1
 24 23  1  0
 25 24  1  0
 26 27  1  0
 26 25  1  0
 28 30  2  0
 28 29  1  0
M  END
$$$$
