YLK.pdb
     RDKit          3D

 30 30  0  0  1  0  0  0  0  0999 V2000
   28.5412  -15.9088  -18.2409 O   0  0  0  0  0  0  0  0  0  0  0  0
   27.8613  -16.6471  -17.2697 C   0  0  0  0  0  0  0  0  0  0  0  0
   26.6795  -17.2971  -17.5434 C   0  0  0  0  0  0  0  0  0  0  0  0
   26.0427  -18.0141  -16.5545 C   0  0  0  0  0  0  0  0  0  0  0  0
   26.5778  -18.0897  -15.2845 C   0  0  0  0  0  0  0  0  0  0  0  0
   25.8602  -18.8679  -14.2627 C   0  0  0  0  0  0  0  0  0  0  0  0
   26.6600  -20.0126  -13.7188 C   0  0  2  0  0  0  0  0  0  0  0  0
   27.1121  -20.9330  -14.7155 N   0  0  0  0  0  0  0  0  0  0  0  0
   25.9122  -20.6626  -12.6198 C   0  0  0  0  0  0  0  0  0  0  0  0
   25.2455  -21.6925  -12.8956 O   0  0  0  0  0  0  0  0  0  0  0  0
   27.7623  -17.4433  -14.9941 C   0  0  0  0  0  0  0  0  0  0  0  0
   28.3846  -16.7308  -15.9972 C   0  0  0  0  0  0  0  0  0  0  0  0
   27.2610  -21.7445   -8.5486 C   0  0  0  0  0  0  0  0  0  0  0  0
   26.6939  -20.3150   -8.5278 C   0  0  2  0  0  0  0  0  0  0  0  0
   26.8625  -19.8572   -7.0770 C   0  0  0  0  0  0  0  0  0  0  0  0
   25.2662  -20.4237   -8.9209 C   0  0  0  0  0  0  0  0  0  0  0  0
   25.0034  -20.7545  -10.3454 C   0  0  2  0  0  0  0  0  0  0  0  0
   25.9047  -20.1962  -11.2903 N   0  0  0  0  0  0  0  0  0  0  0  0
   23.6235  -20.2311  -10.6666 C   0  0  0  0  0  0  0  0  0  0  0  0
   23.4241  -18.9886  -10.7126 O   0  0  0  0  0  0  0  0  0  0  0  0
   22.5666  -21.1400  -10.9131 N   0  0  0  0  0  0  0  0  0  0  0  0
   21.2840  -20.6951  -11.4892 C   0  0  1  0  0  0  0  0  0  0  0  0
   21.4949  -20.6547  -12.9630 C   0  0  0  0  0  0  0  0  0  0  0  0
   20.2289  -20.2795  -13.6711 C   0  0  0  0  0  0  0  0  0  0  0  0
   20.4233  -20.3621  -15.1550 C   0  0  0  0  0  0  0  0  0  0  0  0
   19.1848  -19.9313  -15.8842 C   0  0  0  0  0  0  0  0  0  0  0  0
   19.4801  -19.9766  -17.3091 N   0  0  0  0  0  0  0  0  0  0  0  0
   20.2361  -21.5856  -10.9905 C   0  0  0  0  0  0  0  0  0  0  0  0
   18.9388  -21.1416  -10.8504 O   0  0  0  0  0  0  0  0  0  0  0  0
   20.4805  -22.7660  -10.6803 O   0  0  0  0  0  0  0  0  0  0  0  0
  2  1  1  0
  3  2  2  0
  4  3  1  0
  5 11  1  0
  5  4  2  0
  6  5  1  0
  7  6  1  0
  7  8  1  6
  9  7  1  0
  9 10  2  0
 11 12  2  0
 12  2  1  0
 14 16  1  0
 14 13  1  1
 15 14  1  0
 17 16  1  1
 17 18  1  0
 18  9  1  0
 19 17  1  0
 20 19  2  0
 21 19  1  0
 22 21  1  0
 22 28  1  0
 22 23  1  6
 24 23  1  0
 25 24  1  0
 26 27  1  0
 26 25  1  0
 28 30  2  0
 28 29  1  0
M  END
$$$$
