YLK.pdb
     RDKit          3D

 30 30  0  0  1  0  0  0  0  0999 V2000
   15.6254  -20.9103  -11.4231 O   0  0  0  0  0  0  0  0  0  0  0  0
   16.9294  -20.6882  -11.8714 C   0  0  0  0  0  0  0  0  0  0  0  0
   17.4526  -21.3599  -12.9527 C   0  0  0  0  0  0  0  0  0  0  0  0
   18.7442  -21.1092  -13.3603 C   0  0  0  0  0  0  0  0  0  0  0  0
   19.5258  -20.1870  -12.6942 C   0  0  0  0  0  0  0  0  0  0  0  0
   20.8992  -19.9542  -13.1678 C   0  0  0  0  0  0  0  0  0  0  0  0
   21.8178  -21.1110  -12.9154 C   0  0  2  0  0  0  0  0  0  0  0  0
   21.7803  -21.6027  -11.5731 N   0  0  0  0  0  0  0  0  0  0  0  0
   23.1825  -20.7705  -13.3747 C   0  0  0  0  0  0  0  0  0  0  0  0
   23.3048  -20.2655  -14.5199 O   0  0  0  0  0  0  0  0  0  0  0  0
   19.0158  -19.5051  -11.6080 C   0  0  0  0  0  0  0  0  0  0  0  0
   17.7209  -19.7699  -11.2153 C   0  0  0  0  0  0  0  0  0  0  0  0
   29.0470  -20.1776  -11.5675 C   0  0  0  0  0  0  0  0  0  0  0  0
   28.0721  -20.2516  -12.7547 C   0  0  2  0  0  0  0  0  0  0  0  0
   28.1169  -18.8529  -13.3748 C   0  0  0  0  0  0  0  0  0  0  0  0
   26.7391  -20.5713  -12.1842 C   0  0  0  0  0  0  0  0  0  0  0  0
   25.6225  -20.6901  -13.1574 C   0  0  2  0  0  0  0  0  0  0  0  0
   24.3455  -20.9785  -12.6070 N   0  0  0  0  0  0  0  0  0  0  0  0
   25.9806  -21.8185  -14.0954 C   0  0  0  0  0  0  0  0  0  0  0  0
   25.9687  -23.0053  -13.6745 O   0  0  0  0  0  0  0  0  0  0  0  0
   26.3261  -21.5338  -15.4383 N   0  0  0  0  0  0  0  0  0  0  0  0
   26.5009  -22.6066  -16.4348 C   0  0  1  0  0  0  0  0  0  0  0  0
   25.2387  -23.3967  -16.4043 C   0  0  0  0  0  0  0  0  0  0  0  0
   25.2396  -24.4417  -17.4780 C   0  0  0  0  0  0  0  0  0  0  0  0
   24.8368  -25.7681  -16.9080 C   0  0  0  0  0  0  0  0  0  0  0  0
   24.8470  -26.8330  -17.9649 C   0  0  0  0  0  0  0  0  0  0  0  0
   24.4009  -28.0705  -17.3410 N   0  0  0  0  0  0  0  0  0  0  0  0
   26.8650  -21.9818  -17.7064 C   0  0  0  0  0  0  0  0  0  0  0  0
   27.7688  -22.5828  -18.5560 O   0  0  0  0  0  0  0  0  0  0  0  0
   26.3720  -20.8952  -18.0605 O   0  0  0  0  0  0  0  0  0  0  0  0
  2  1  1  0
  3  2  2  0
  4  3  1  0
  5 11  1  0
  5  4  2  0
  6  5  1  0
  7  6  1  0
  7  8  1  1
  9  7  1  0
  9 10  2  0
 11 12  2  0
 12  2  1  0
 14 16  1  0
 14 13  1  1
 15 14  1  0
 17 16  1  1
 17 18  1  0
 18  9  1  0
 19 17  1  0
 20 19  2  0
 21 19  1  0
 22 21  1  0
 22 28  1  0
 22 23  1  6
 24 23  1  0
 25 24  1  0
 26 27  1  0
 26 25  1  0
 28 30  2  0
 28 29  1  0
M  END
$$$$
