YLK.pdb
     RDKit          3D

 30 30  0  0  1  0  0  0  0  0999 V2000
   18.2343  -15.7601  -20.5691 O   0  0  0  0  0  0  0  0  0  0  0  0
   18.8957  -14.6350  -20.0719 C   0  0  0  0  0  0  0  0  0  0  0  0
   19.2486  -13.5800  -20.8822 C   0  0  0  0  0  0  0  0  0  0  0  0
   19.9003  -12.4899  -20.3489 C   0  0  0  0  0  0  0  0  0  0  0  0
   20.2061  -12.4414  -19.0039 C   0  0  0  0  0  0  0  0  0  0  0  0
   20.9029  -11.2554  -18.4819 C   0  0  0  0  0  0  0  0  0  0  0  0
   22.1949  -10.9692  -19.1851 C   0  0  2  0  0  0  0  0  0  0  0  0
   23.1336  -12.0470  -19.1408 N   0  0  0  0  0  0  0  0  0  0  0  0
   22.7526   -9.6886  -18.6967 C   0  0  0  0  0  0  0  0  0  0  0  0
   23.5185   -9.7268  -17.7001 O   0  0  0  0  0  0  0  0  0  0  0  0
   19.8590  -13.4915  -18.1781 C   0  0  0  0  0  0  0  0  0  0  0  0
   19.2071  -14.5737  -18.7305 C   0  0  0  0  0  0  0  0  0  0  0  0
   25.7286   -6.5225  -20.1097 C   0  0  0  0  0  0  0  0  0  0  0  0
   24.3549   -6.5033  -20.8012 C   0  0  2  0  0  0  0  0  0  0  0  0
   24.4685   -5.3923  -21.8479 C   0  0  0  0  0  0  0  0  0  0  0  0
   23.3588   -6.1835  -19.7476 C   0  0  0  0  0  0  0  0  0  0  0  0
   23.0800   -7.2605  -18.7626 C   0  0  2  0  0  0  0  0  0  0  0  0
   22.4761   -8.4366  -19.2810 N   0  0  0  0  0  0  0  0  0  0  0  0
   22.1375   -6.6782  -17.7358 C   0  0  0  0  0  0  0  0  0  0  0  0
   22.4849   -5.6629  -17.0770 O   0  0  0  0  0  0  0  0  0  0  0  0
   20.8730   -7.2775  -17.5224 N   0  0  0  0  0  0  0  0  0  0  0  0
   19.8968   -6.7051  -16.5768 C   0  0  1  0  0  0  0  0  0  0  0  0
   18.6257   -7.4456  -16.8098 C   0  0  0  0  0  0  0  0  0  0  0  0
   17.5639   -6.9929  -15.8545 C   0  0  0  0  0  0  0  0  0  0  0  0
   16.2844   -7.7274  -16.1187 C   0  0  0  0  0  0  0  0  0  0  0  0
   15.2001   -7.2703  -15.1879 C   0  0  0  0  0  0  0  0  0  0  0  0
   13.9535   -7.8683  -15.6440 N   0  0  0  0  0  0  0  0  0  0  0  0
   20.4753   -6.7807  -15.2353 C   0  0  0  0  0  0  0  0  0  0  0  0
   20.3206   -5.7446  -14.3395 O   0  0  0  0  0  0  0  0  0  0  0  0
   21.1202   -7.7775  -14.8616 O   0  0  0  0  0  0  0  0  0  0  0  0
  2  1  1  0
  3  2  2  0
  4  3  1  0
  5 11  1  0
  5  4  2  0
  6  5  1  0
  7  6  1  0
  7  8  1  1
  9  7  1  0
  9 10  2  0
 11 12  2  0
 12  2  1  0
 14 16  1  0
 14 13  1  1
 15 14  1  0
 17 16  1  6
 17 18  1  0
 18  9  1  0
 19 17  1  0
 20 19  2  0
 21 19  1  0
 22 21  1  0
 22 28  1  0
 22 23  1  1
 24 23  1  0
 25 24  1  0
 26 27  1  0
 26 25  1  0
 28 30  2  0
 28 29  1  0
M  END
$$$$
