YLK.pdb
     RDKit          3D

 30 30  0  0  1  0  0  0  0  0999 V2000
   18.2796  -24.6343   -9.2340 O   0  0  0  0  0  0  0  0  0  0  0  0
   19.0628  -23.9407  -10.1593 C   0  0  0  0  0  0  0  0  0  0  0  0
   20.1876  -23.2424   -9.7835 C   0  0  0  0  0  0  0  0  0  0  0  0
   20.9306  -22.5723  -10.7302 C   0  0  0  0  0  0  0  0  0  0  0  0
   20.5595  -22.5921  -12.0594 C   0  0  0  0  0  0  0  0  0  0  0  0
   21.3858  -21.8609  -13.0327 C   0  0  0  0  0  0  0  0  0  0  0  0
   21.2394  -20.3727  -12.9357 C   0  0  2  0  0  0  0  0  0  0  0  0
   19.8905  -19.9114  -13.0478 N   0  0  0  0  0  0  0  0  0  0  0  0
   22.1612  -19.7200  -13.8915 C   0  0  0  0  0  0  0  0  0  0  0  0
   21.6548  -19.1004  -14.8616 O   0  0  0  0  0  0  0  0  0  0  0  0
   19.4340  -23.2878  -12.4523 C   0  0  0  0  0  0  0  0  0  0  0  0
   18.7035  -23.9522  -11.4900 C   0  0  0  0  0  0  0  0  0  0  0  0
   28.0878  -18.2532  -14.8175 C   0  0  0  0  0  0  0  0  0  0  0  0
   26.6714  -18.3066  -15.4145 C   0  0  2  0  0  0  0  0  0  0  0  0
   26.3321  -16.8470  -15.7266 C   0  0  0  0  0  0  0  0  0  0  0  0
   25.7928  -18.8754  -14.3614 C   0  0  0  0  0  0  0  0  0  0  0  0
   24.3731  -19.0937  -14.7416 C   0  0  2  0  0  0  0  0  0  0  0  0
   23.5651  -19.7529  -13.7774 N   0  0  0  0  0  0  0  0  0  0  0  0
   24.3823  -19.9460  -15.9886 C   0  0  0  0  0  0  0  0  0  0  0  0
   24.5935  -21.1839  -15.8950 O   0  0  0  0  0  0  0  0  0  0  0  0
   24.1537  -19.3475  -17.2509 N   0  0  0  0  0  0  0  0  0  0  0  0
   23.6940  -20.1375  -18.4081 C   0  0  1  0  0  0  0  0  0  0  0  0
   22.3278  -20.6143  -18.0554 C   0  0  0  0  0  0  0  0  0  0  0  0
   21.7001  -21.3316  -19.2115 C   0  0  0  0  0  0  0  0  0  0  0  0
   20.3166  -21.7812  -18.8506 C   0  0  0  0  0  0  0  0  0  0  0  0
   19.7050  -22.5830  -19.9615 C   0  0  0  0  0  0  0  0  0  0  0  0
   18.3668  -22.9675  -19.5358 N   0  0  0  0  0  0  0  0  0  0  0  0
   23.8198  -19.2998  -19.6007 C   0  0  0  0  0  0  0  0  0  0  0  0
   24.2845  -19.8248  -20.7874 O   0  0  0  0  0  0  0  0  0  0  0  0
   23.5116  -18.0941  -19.5827 O   0  0  0  0  0  0  0  0  0  0  0  0
  2  1  1  0
  3  2  2  0
  4  3  1  0
  5 11  1  0
  5  4  2  0
  6  5  1  0
  7  6  1  0
  7  8  1  6
  9  7  1  0
  9 10  2  0
 11 12  2  0
 12  2  1  0
 14 16  1  0
 14 13  1  1
 15 14  1  0
 17 16  1  1
 17 18  1  0
 18  9  1  0
 19 17  1  0
 20 19  2  0
 21 19  1  0
 22 21  1  0
 22 28  1  0
 22 23  1  1
 24 23  1  0
 25 24  1  0
 26 27  1  0
 26 25  1  0
 28 30  2  0
 28 29  1  0
M  END
$$$$
