YLK.pdb
     RDKit          3D

 30 30  0  0  1  0  0  0  0  0999 V2000
   24.0807   -9.6680  -14.4714 O   0  0  0  0  0  0  0  0  0  0  0  0
   22.8998   -9.1620  -13.9236 C   0  0  0  0  0  0  0  0  0  0  0  0
   22.5357   -9.4118  -12.6202 C   0  0  0  0  0  0  0  0  0  0  0  0
   21.3615   -8.8923  -12.1214 C   0  0  0  0  0  0  0  0  0  0  0  0
   20.5400   -8.1194  -12.9168 C   0  0  0  0  0  0  0  0  0  0  0  0
   19.2964   -7.5872  -12.3381 C   0  0  0  0  0  0  0  0  0  0  0  0
   18.2753   -8.6457  -12.0507 C   0  0  2  0  0  0  0  0  0  0  0  0
   18.0055   -9.5107  -13.1570 N   0  0  0  0  0  0  0  0  0  0  0  0
   17.0580   -8.0210  -11.4873 C   0  0  0  0  0  0  0  0  0  0  0  0
   16.1082   -7.7773  -12.2746 O   0  0  0  0  0  0  0  0  0  0  0  0
   20.8912   -7.8598  -14.2262 C   0  0  0  0  0  0  0  0  0  0  0  0
   22.0702   -8.3886  -14.7071 C   0  0  0  0  0  0  0  0  0  0  0  0
   13.1935   -8.2329   -7.0029 C   0  0  0  0  0  0  0  0  0  0  0  0
   13.6773   -7.3335   -8.1529 C   0  0  2  0  0  0  0  0  0  0  0  0
   12.6088   -7.4906   -9.2376 C   0  0  0  0  0  0  0  0  0  0  0  0
   14.9947   -7.8694   -8.5794 C   0  0  0  0  0  0  0  0  0  0  0  0
   15.6821   -7.1261   -9.6670 C   0  0  2  0  0  0  0  0  0  0  0  0
   16.9034   -7.6858  -10.1276 N   0  0  0  0  0  0  0  0  0  0  0  0
   15.9861   -5.7482   -9.1281 C   0  0  0  0  0  0  0  0  0  0  0  0
   16.9261   -5.5954   -8.3043 O   0  0  0  0  0  0  0  0  0  0  0  0
   15.2131   -4.6409   -9.5527 N   0  0  0  0  0  0  0  0  0  0  0  0
   15.5196   -3.2690   -9.1073 C   0  0  1  0  0  0  0  0  0  0  0  0
   15.7624   -2.4849  -10.3501 C   0  0  0  0  0  0  0  0  0  0  0  0
   16.0170   -1.0438  -10.0284 C   0  0  0  0  0  0  0  0  0  0  0  0
   16.3920   -0.2956  -11.2717 C   0  0  0  0  0  0  0  0  0  0  0  0
   16.6505    1.1515  -10.9710 C   0  0  0  0  0  0  0  0  0  0  0  0
   16.9603    1.8100  -12.2319 N   0  0  0  0  0  0  0  0  0  0  0  0
   14.4271   -2.8244   -8.2421 C   0  0  0  0  0  0  0  0  0  0  0  0
   14.6534   -1.9222   -7.2249 O   0  0  0  0  0  0  0  0  0  0  0  0
   13.2650   -3.2426   -8.3969 O   0  0  0  0  0  0  0  0  0  0  0  0
  2  1  1  0
  3  2  2  0
  4  3  1  0
  5 11  1  0
  5  4  2  0
  6  5  1  0
  7  6  1  0
  7  8  1  6
  9  7  1  0
  9 10  2  0
 11 12  2  0
 12  2  1  0
 14 16  1  0
 14 13  1  1
 15 14  1  0
 17 16  1  1
 17 18  1  0
 18  9  1  0
 19 17  1  0
 20 19  2  0
 21 19  1  0
 22 21  1  0
 22 28  1  0
 22 23  1  6
 24 23  1  0
 25 24  1  0
 26 27  1  0
 26 25  1  0
 28 30  2  0
 28 29  1  0
M  END
$$$$
