CES.pdb
     RDKit          3D

 22 21  0  0  1  0  0  0  0  0999 V2000
    7.4920  -15.8034   18.1807 N   0  0  0  0  0  0  0  0  0  0  0  0
    8.5670  -15.1507   18.8547 C   0  0  1  0  0  0  0  0  0  0  0  0
    8.1198  -13.8812   19.5460 C   0  0  0  0  0  0  0  0  0  0  0  0
    7.4891  -12.7230   18.2956 S   0  0  0  0  0  0  0  0  0  0  0  0
    9.2533  -16.0583   19.8036 C   0  0  0  0  0  0  0  0  0  0  0  0
    8.5530  -16.8196   20.5057 O   0  0  0  0  0  0  0  0  0  0  0  0
   10.6656  -16.0698   19.9189 N   0  0  0  0  0  0  0  0  0  0  0  0
   11.3765  -17.0034   20.8072 C   0  0  1  0  0  0  0  0  0  0  0  0
   12.6793  -17.4263   20.1973 C   0  0  0  0  0  0  0  0  0  0  0  0
   12.5875  -18.3907   19.0744 C   0  0  0  0  0  0  0  0  0  0  0  0
   13.9625  -18.6788   18.5531 C   0  0  0  0  0  0  0  0  0  0  0  0
   14.3058  -19.8646   18.3215 O   0  0  0  0  0  0  0  0  0  0  0  0
   11.4760  -16.4558   22.1750 C   0  0  0  0  0  0  0  0  0  0  0  0
   12.1896  -15.4529   22.4211 O   0  0  0  0  0  0  0  0  0  0  0  0
   14.9018  -17.6889   18.3052 O   0  0  0  0  0  0  0  0  0  0  0  0
    8.6256  -17.1434   25.0841 O   0  0  0  0  0  0  0  0  0  0  0  0
    9.5507  -16.1381   25.2381 C   0  0  0  0  0  0  0  0  0  0  0  0
   10.8978  -16.4621   24.6329 C   0  0  2  0  0  0  0  0  0  0  0  0
   10.7926  -17.0004   23.3001 N   0  0  0  0  0  0  0  0  0  0  0  0
   11.5673  -17.4237   25.5441 C   0  0  0  0  0  0  0  0  0  0  0  0
   11.8296  -18.5653   25.1031 O   0  0  0  0  0  0  0  0  0  0  0  0
   11.8971  -17.0931   26.8325 O   0  0  0  0  0  0  0  0  0  0  0  0
  2  1  1  1
  2  3  1  0
  3  4  1  0
  5  2  1  0
  5  7  1  0
  6  5  2  0
  8  7  1  0
  8 13  1  0
  8  9  1  6
 10  9  1  0
 10 11  1  0
 11 15  1  0
 11 12  2  0
 13 14  2  0
 13 19  1  0
 16 17  1  0
 18 17  1  1
 18 20  1  0
 19 18  1  0
 20 22  1  0
 21 20  2  0
M  END
$$$$
