CES.pdb
     RDKit          3D

 22 21  0  0  1  0  0  0  0  0999 V2000
    6.5557  -16.6410   19.3643 N   0  0  0  0  0  0  0  0  0  0  0  0
    7.7992  -15.9445   19.4314 C   0  0  1  0  0  0  0  0  0  0  0  0
    7.6475  -14.5628   20.0292 C   0  0  0  0  0  0  0  0  0  0  0  0
    6.8441  -14.7108   21.6527 S   0  0  0  0  0  0  0  0  0  0  0  0
    8.8290  -16.7259   20.1554 C   0  0  0  0  0  0  0  0  0  0  0  0
    8.4542  -17.5056   21.0579 O   0  0  0  0  0  0  0  0  0  0  0  0
   10.2046  -16.5992   19.8398 N   0  0  0  0  0  0  0  0  0  0  0  0
   11.2403  -17.4230   20.4837 C   0  0  1  0  0  0  0  0  0  0  0  0
   12.5371  -17.3215   19.7379 C   0  0  0  0  0  0  0  0  0  0  0  0
   13.6815  -18.0622   20.3219 C   0  0  0  0  0  0  0  0  0  0  0  0
   14.8281  -18.0464   19.3574 C   0  0  0  0  0  0  0  0  0  0  0  0
   15.7226  -18.9243   19.4377 O   0  0  0  0  0  0  0  0  0  0  0  0
   11.3258  -17.1268   21.9278 C   0  0  0  0  0  0  0  0  0  0  0  0
   11.3361  -15.9437   22.3472 O   0  0  0  0  0  0  0  0  0  0  0  0
   14.9632  -17.0960   18.3563 O   0  0  0  0  0  0  0  0  0  0  0  0
   10.0455  -18.0352   26.3602 O   0  0  0  0  0  0  0  0  0  0  0  0
   10.0663  -18.2391   25.0006 C   0  0  0  0  0  0  0  0  0  0  0  0
   11.3703  -17.8343   24.3513 C   0  0  2  0  0  0  0  0  0  0  0  0
   11.4019  -18.1261   22.9403 N   0  0  0  0  0  0  0  0  0  0  0  0
   12.4563  -18.5490   25.0673 C   0  0  0  0  0  0  0  0  0  0  0  0
   13.1235  -19.3941   24.4290 O   0  0  0  0  0  0  0  0  0  0  0  0
   12.7374  -18.3070   26.3866 O   0  0  0  0  0  0  0  0  0  0  0  0
  2  1  1  1
  2  3  1  0
  3  4  1  0
  5  2  1  0
  5  7  1  0
  6  5  2  0
  8  7  1  0
  8 13  1  0
  8  9  1  6
 10  9  1  0
 10 11  1  0
 11 15  1  0
 11 12  2  0
 13 14  2  0
 13 19  1  0
 16 17  1  0
 18 17  1  1
 18 20  1  0
 19 18  1  0
 20 22  1  0
 21 20  2  0
M  END
$$$$
