CES.pdb
     RDKit          3D

 22 21  0  0  1  0  0  0  0  0999 V2000
    8.0100  -14.6680   17.6997 N   0  0  0  0  0  0  0  0  0  0  0  0
    8.9594  -13.9879   18.5194 C   0  0  1  0  0  0  0  0  0  0  0  0
    8.3464  -13.4916   19.8106 C   0  0  0  0  0  0  0  0  0  0  0  0
    7.0812  -12.2471   19.4192 S   0  0  0  0  0  0  0  0  0  0  0  0
   10.1543  -14.8227   18.7856 C   0  0  0  0  0  0  0  0  0  0  0  0
    9.9921  -16.0504   18.9566 O   0  0  0  0  0  0  0  0  0  0  0  0
   11.4503  -14.2529   18.8463 N   0  0  0  0  0  0  0  0  0  0  0  0
   12.6487  -15.0509   19.1511 C   0  0  1  0  0  0  0  0  0  0  0  0
   13.8233  -14.5678   18.3541 C   0  0  0  0  0  0  0  0  0  0  0  0
   15.0991  -15.2909   18.5747 C   0  0  0  0  0  0  0  0  0  0  0  0
   16.1449  -14.7474   17.6494 C   0  0  0  0  0  0  0  0  0  0  0  0
   16.5533  -15.4476   16.6899 O   0  0  0  0  0  0  0  0  0  0  0  0
   12.8727  -15.1286   20.6086 C   0  0  0  0  0  0  0  0  0  0  0  0
   13.1674  -14.1060   21.2743 O   0  0  0  0  0  0  0  0  0  0  0  0
   16.7024  -13.4856   17.7933 O   0  0  0  0  0  0  0  0  0  0  0  0
   10.8293  -17.1368   23.4238 O   0  0  0  0  0  0  0  0  0  0  0  0
   12.1715  -17.4301   23.4782 C   0  0  0  0  0  0  0  0  0  0  0  0
   13.0393  -16.4085   22.7788 C   0  0  2  0  0  0  0  0  0  0  0  0
   12.7771  -16.3329   21.3637 N   0  0  0  0  0  0  0  0  0  0  0  0
   14.4520  -16.7823   23.0393 C   0  0  0  0  0  0  0  0  0  0  0  0
   14.8410  -16.8152   24.2284 O   0  0  0  0  0  0  0  0  0  0  0  0
   15.3211  -17.0859   22.0241 O   0  0  0  0  0  0  0  0  0  0  0  0
  2  1  1  1
  2  3  1  0
  3  4  1  0
  5  2  1  0
  5  7  1  0
  6  5  2  0
  8  7  1  0
  8 13  1  0
  8  9  1  6
 10  9  1  0
 10 11  1  0
 11 15  1  0
 11 12  2  0
 13 14  2  0
 13 19  1  0
 16 17  1  0
 18 17  1  6
 18 20  1  0
 19 18  1  0
 20 22  1  0
 21 20  2  0
M  END
$$$$
