CES.pdb
     RDKit          3D

 22 21  0  0  1  0  0  0  0  0999 V2000
    8.0576  -14.6291   17.2538 N   0  0  0  0  0  0  0  0  0  0  0  0
    8.9051  -13.8608   18.1067 C   0  0  1  0  0  0  0  0  0  0  0  0
    8.1342  -13.1896   19.2224 C   0  0  0  0  0  0  0  0  0  0  0  0
    7.0164  -11.9515   18.5010 S   0  0  0  0  0  0  0  0  0  0  0  0
   10.0224  -14.6706   18.6461 C   0  0  0  0  0  0  0  0  0  0  0  0
    9.7965  -15.8617   18.9512 O   0  0  0  0  0  0  0  0  0  0  0  0
   11.3163  -14.1177   18.8151 N   0  0  0  0  0  0  0  0  0  0  0  0
   12.4583  -14.9151   19.2902 C   0  0  1  0  0  0  0  0  0  0  0  0
   13.7463  -14.3689   18.7507 C   0  0  0  0  0  0  0  0  0  0  0  0
   14.9812  -15.0584   19.1968 C   0  0  0  0  0  0  0  0  0  0  0  0
   16.1705  -14.4151   18.5509 C   0  0  0  0  0  0  0  0  0  0  0  0
   17.1574  -14.0823   19.2530 O   0  0  0  0  0  0  0  0  0  0  0  0
   12.4142  -15.0755   20.7574 C   0  0  0  0  0  0  0  0  0  0  0  0
   12.2210  -14.0907   21.5114 O   0  0  0  0  0  0  0  0  0  0  0  0
   16.2479  -14.1593   17.1900 O   0  0  0  0  0  0  0  0  0  0  0  0
   11.5374  -17.8448   24.6091 O   0  0  0  0  0  0  0  0  0  0  0  0
   11.5897  -17.6356   23.2512 C   0  0  0  0  0  0  0  0  0  0  0  0
   12.4810  -16.4806   22.8544 C   0  0  2  0  0  0  0  0  0  0  0  0
   12.5817  -16.3227   21.4253 N   0  0  0  0  0  0  0  0  0  0  0  0
   13.8142  -16.7290   23.4577 C   0  0  0  0  0  0  0  0  0  0  0  0
   14.7729  -16.9627   22.6878 O   0  0  0  0  0  0  0  0  0  0  0  0
   14.0122  -16.7078   24.8136 O   0  0  0  0  0  0  0  0  0  0  0  0
  2  1  1  1
  2  3  1  0
  3  4  1  0
  5  2  1  0
  5  7  1  0
  6  5  2  0
  8  7  1  0
  8 13  1  0
  8  9  1  1
 10  9  1  0
 10 11  1  0
 11 15  1  0
 11 12  2  0
 13 14  2  0
 13 19  1  0
 16 17  1  0
 18 17  1  6
 18 20  1  0
 19 18  1  0
 20 22  1  0
 21 20  2  0
M  END
$$$$
