CES.pdb
     RDKit          3D

 22 21  0  0  1  0  0  0  0  0999 V2000
    8.0723  -14.2890   17.1861 N   0  0  0  0  0  0  0  0  0  0  0  0
    8.8691  -13.8955   18.3024 C   0  0  1  0  0  0  0  0  0  0  0  0
    8.0293  -13.3661   19.4443 C   0  0  0  0  0  0  0  0  0  0  0  0
    7.1538  -11.8745   18.8863 S   0  0  0  0  0  0  0  0  0  0  0  0
    9.7555  -14.9915   18.7590 C   0  0  0  0  0  0  0  0  0  0  0  0
    9.4114  -16.1693   18.5199 O   0  0  0  0  0  0  0  0  0  0  0  0
   10.9632  -14.7209   19.4493 N   0  0  0  0  0  0  0  0  0  0  0  0
   11.8532  -15.7901   19.9296 C   0  0  1  0  0  0  0  0  0  0  0  0
   13.1709  -15.7426   19.2157 C   0  0  0  0  0  0  0  0  0  0  0  0
   13.6500  -14.3942   18.8263 C   0  0  0  0  0  0  0  0  0  0  0  0
   15.0595  -14.4925   18.3275 C   0  0  0  0  0  0  0  0  0  0  0  0
   15.7735  -13.4609   18.2688 O   0  0  0  0  0  0  0  0  0  0  0  0
   11.9409  -15.7793   21.4036 C   0  0  0  0  0  0  0  0  0  0  0  0
   12.3176  -14.7545   22.0228 O   0  0  0  0  0  0  0  0  0  0  0  0
   15.6367  -15.6849   17.9167 O   0  0  0  0  0  0  0  0  0  0  0  0
    9.2567  -17.3055   23.7422 O   0  0  0  0  0  0  0  0  0  0  0  0
   10.4807  -17.6236   24.2817 C   0  0  0  0  0  0  0  0  0  0  0  0
   11.6275  -16.8534   23.6672 C   0  0  2  0  0  0  0  0  0  0  0  0
   11.6161  -16.8958   22.2267 N   0  0  0  0  0  0  0  0  0  0  0  0
   12.8830  -17.4326   24.2069 C   0  0  0  0  0  0  0  0  0  0  0  0
   13.6852  -17.9517   23.3985 O   0  0  0  0  0  0  0  0  0  0  0  0
   13.1752  -17.4109   25.5457 O   0  0  0  0  0  0  0  0  0  0  0  0
  2  1  1  6
  2  3  1  0
  3  4  1  0
  5  2  1  0
  5  7  1  0
  6  5  2  0
  8  7  1  0
  8 13  1  0
  8  9  1  6
 10  9  1  0
 10 11  1  0
 11 15  1  0
 11 12  2  0
 13 14  2  0
 13 19  1  0
 16 17  1  0
 18 17  1  1
 18 20  1  0
 19 18  1  0
 20 22  1  0
 21 20  2  0
M  END
$$$$
