CES.pdb
     RDKit          3D

 22 21  0  0  1  0  0  0  0  0999 V2000
    8.3721  -14.5040   16.9260 N   0  0  0  0  0  0  0  0  0  0  0  0
    9.0727  -14.0578   18.0862 C   0  0  1  0  0  0  0  0  0  0  0  0
    8.1326  -13.6789   19.2096 C   0  0  0  0  0  0  0  0  0  0  0  0
    6.9471  -12.4473   18.5926 S   0  0  0  0  0  0  0  0  0  0  0  0
   10.0713  -15.0527   18.5424 C   0  0  0  0  0  0  0  0  0  0  0  0
   10.5022  -15.8820   17.7122 O   0  0  0  0  0  0  0  0  0  0  0  0
   10.5312  -15.0711   19.8827 N   0  0  0  0  0  0  0  0  0  0  0  0
   11.5461  -16.0267   20.3547 C   0  0  1  0  0  0  0  0  0  0  0  0
   12.7962  -15.9198   19.5338 C   0  0  0  0  0  0  0  0  0  0  0  0
   13.1180  -14.5686   19.0140 C   0  0  0  0  0  0  0  0  0  0  0  0
   14.5308  -14.5514   18.5151 C   0  0  0  0  0  0  0  0  0  0  0  0
   15.2721  -13.5715   18.7754 O   0  0  0  0  0  0  0  0  0  0  0  0
   11.7447  -15.9060   21.8130 C   0  0  0  0  0  0  0  0  0  0  0  0
   12.3819  -14.9417   22.3026 O   0  0  0  0  0  0  0  0  0  0  0  0
   15.0820  -15.5792   17.7644 O   0  0  0  0  0  0  0  0  0  0  0  0
    8.9284  -17.4870   24.1894 O   0  0  0  0  0  0  0  0  0  0  0  0
    9.7400  -16.4877   24.6721 C   0  0  0  0  0  0  0  0  0  0  0  0
   11.1657  -16.5786   24.1769 C   0  0  2  0  0  0  0  0  0  0  0  0
   11.2462  -16.8438   22.7626 N   0  0  0  0  0  0  0  0  0  0  0  0
   11.8330  -17.6497   24.9582 C   0  0  0  0  0  0  0  0  0  0  0  0
   12.2540  -18.6527   24.3391 O   0  0  0  0  0  0  0  0  0  0  0  0
   11.9941  -17.5639   26.3165 O   0  0  0  0  0  0  0  0  0  0  0  0
  2  1  1  6
  2  3  1  0
  3  4  1  0
  5  2  1  0
  5  7  1  0
  6  5  2  0
  8  7  1  0
  8 13  1  0
  8  9  1  6
 10  9  1  0
 10 11  1  0
 11 15  1  0
 11 12  2  0
 13 14  2  0
 13 19  1  0
 16 17  1  0
 18 17  1  1
 18 20  1  0
 19 18  1  0
 20 22  1  0
 21 20  2  0
M  END
$$$$
