CES.pdb
     RDKit          3D

 22 21  0  0  1  0  0  0  0  0999 V2000
    7.4131  -15.7716   20.2146 N   0  0  0  0  0  0  0  0  0  0  0  0
    8.3773  -14.9048   20.8103 C   0  0  1  0  0  0  0  0  0  0  0  0
    7.8259  -13.5159   21.0480 C   0  0  0  0  0  0  0  0  0  0  0  0
    7.5250  -12.7211   19.4416 S   0  0  0  0  0  0  0  0  0  0  0  0
    8.9333  -15.4761   22.0592 C   0  0  0  0  0  0  0  0  0  0  0  0
    8.1377  -15.9537   22.8968 O   0  0  0  0  0  0  0  0  0  0  0  0
   10.3288  -15.4851   22.3058 N   0  0  0  0  0  0  0  0  0  0  0  0
   10.9054  -16.0116   23.5534 C   0  0  1  0  0  0  0  0  0  0  0  0
   12.3462  -16.3773   23.3576 C   0  0  0  0  0  0  0  0  0  0  0  0
   13.0478  -16.9123   24.5497 C   0  0  0  0  0  0  0  0  0  0  0  0
   14.4869  -17.1568   24.2112 C   0  0  0  0  0  0  0  0  0  0  0  0
   15.1413  -16.2775   23.5979 O   0  0  0  0  0  0  0  0  0  0  0  0
   10.6412  -15.0971   24.6822 C   0  0  0  0  0  0  0  0  0  0  0  0
   10.9751  -13.8882   24.6287 O   0  0  0  0  0  0  0  0  0  0  0  0
   15.1556  -18.3256   24.5435 O   0  0  0  0  0  0  0  0  0  0  0  0
    7.6048  -14.2177   26.0946 O   0  0  0  0  0  0  0  0  0  0  0  0
    8.3438  -14.2939   27.2516 C   0  0  0  0  0  0  0  0  0  0  0  0
    9.8030  -14.6099   27.0138 C   0  0  2  0  0  0  0  0  0  0  0  0
   10.0042  -15.4937   25.8932 N   0  0  0  0  0  0  0  0  0  0  0  0
   10.3310  -15.2082   28.2652 C   0  0  0  0  0  0  0  0  0  0  0  0
   10.8231  -16.3575   28.2046 O   0  0  0  0  0  0  0  0  0  0  0  0
   10.2912  -14.5409   29.4616 O   0  0  0  0  0  0  0  0  0  0  0  0
  2  1  1  1
  2  3  1  0
  3  4  1  0
  5  2  1  0
  5  7  1  0
  6  5  2  0
  8  7  1  0
  8 13  1  0
  8  9  1  6
 10  9  1  0
 10 11  1  0
 11 15  1  0
 11 12  2  0
 13 14  2  0
 13 19  1  0
 16 17  1  0
 18 17  1  1
 18 20  1  0
 19 18  1  0
 20 22  1  0
 21 20  2  0
M  END
$$$$
