CES.pdb
     RDKit          3D

 22 21  0  0  1  0  0  0  0  0999 V2000
    7.0148  -15.4926   20.4879 N   0  0  0  0  0  0  0  0  0  0  0  0
    8.2735  -15.0445   20.9885 C   0  0  1  0  0  0  0  0  0  0  0  0
    8.1362  -13.8133   21.8572 C   0  0  0  0  0  0  0  0  0  0  0  0
    7.1041  -14.2224   23.2960 S   0  0  0  0  0  0  0  0  0  0  0  0
    8.9956  -16.1218   21.7050 C   0  0  0  0  0  0  0  0  0  0  0  0
    8.3253  -17.0445   22.2169 O   0  0  0  0  0  0  0  0  0  0  0  0
   10.4087  -16.1144   21.8121 N   0  0  0  0  0  0  0  0  0  0  0  0
   11.1443  -17.1118   22.6058 C   0  0  1  0  0  0  0  0  0  0  0  0
   12.5324  -17.2959   22.0696 C   0  0  0  0  0  0  0  0  0  0  0  0
   12.6328  -17.9255   20.7305 C   0  0  0  0  0  0  0  0  0  0  0  0
   14.0691  -17.9630   20.3054 C   0  0  0  0  0  0  0  0  0  0  0  0
   14.6887  -16.8888   20.1063 O   0  0  0  0  0  0  0  0  0  0  0  0
   11.0682  -16.7980   24.0467 C   0  0  0  0  0  0  0  0  0  0  0  0
   10.9300  -15.6160   24.4460 O   0  0  0  0  0  0  0  0  0  0  0  0
   14.7723  -19.1431   20.1142 O   0  0  0  0  0  0  0  0  0  0  0  0
    8.6455  -18.0494   26.5341 O   0  0  0  0  0  0  0  0  0  0  0  0
    9.5745  -17.0826   26.8384 C   0  0  0  0  0  0  0  0  0  0  0  0
   10.9899  -17.4738   26.4784 C   0  0  2  0  0  0  0  0  0  0  0  0
   11.1425  -17.7781   25.0779 N   0  0  0  0  0  0  0  0  0  0  0  0
   11.3484  -18.6431   27.3194 C   0  0  0  0  0  0  0  0  0  0  0  0
   11.5618  -19.7352   26.7464 O   0  0  0  0  0  0  0  0  0  0  0  0
   11.4484  -18.5524   28.6832 O   0  0  0  0  0  0  0  0  0  0  0  0
  2  1  1  1
  2  3  1  0
  3  4  1  0
  5  2  1  0
  5  7  1  0
  6  5  2  0
  8  7  1  0
  8 13  1  0
  8  9  1  6
 10  9  1  0
 10 11  1  0
 11 15  1  0
 11 12  2  0
 13 14  2  0
 13 19  1  0
 16 17  1  0
 18 17  1  6
 18 20  1  0
 19 18  1  0
 20 22  1  0
 21 20  2  0
M  END
$$$$
