CES.pdb
     RDKit          3D

 22 21  0  0  1  0  0  0  0  0999 V2000
    7.9764  -14.3107   17.6528 N   0  0  0  0  0  0  0  0  0  0  0  0
    8.9674  -13.6961   18.4750 C   0  0  1  0  0  0  0  0  0  0  0  0
    8.3587  -12.9608   19.6489 C   0  0  0  0  0  0  0  0  0  0  0  0
    7.3233  -11.6061   19.0198 S   0  0  0  0  0  0  0  0  0  0  0  0
    9.9864  -14.6708   18.9299 C   0  0  0  0  0  0  0  0  0  0  0  0
    9.6143  -15.8336   19.1991 O   0  0  0  0  0  0  0  0  0  0  0  0
   11.3489  -14.3034   19.0592 N   0  0  0  0  0  0  0  0  0  0  0  0
   12.3656  -15.2222   19.5961 C   0  0  1  0  0  0  0  0  0  0  0  0
   13.7265  -14.8687   19.0754 C   0  0  0  0  0  0  0  0  0  0  0  0
   13.9756  -15.1792   17.6468 C   0  0  0  0  0  0  0  0  0  0  0  0
   15.4153  -14.9165   17.3249 C   0  0  0  0  0  0  0  0  0  0  0  0
   16.1445  -15.8546   16.9179 O   0  0  0  0  0  0  0  0  0  0  0  0
   12.2650  -15.3174   21.0663 C   0  0  0  0  0  0  0  0  0  0  0  0
   12.3866  -14.3000   21.7914 O   0  0  0  0  0  0  0  0  0  0  0  0
   16.0048  -13.6675   17.4530 O   0  0  0  0  0  0  0  0  0  0  0  0
   10.4098  -17.3619   24.9682 O   0  0  0  0  0  0  0  0  0  0  0  0
   10.5417  -17.2007   23.6091 C   0  0  0  0  0  0  0  0  0  0  0  0
   11.8717  -16.6097   23.1996 C   0  0  2  0  0  0  0  0  0  0  0  0
   12.0286  -16.5340   21.7689 N   0  0  0  0  0  0  0  0  0  0  0  0
   12.9312  -17.4529   23.8074 C   0  0  0  0  0  0  0  0  0  0  0  0
   13.6753  -18.1045   23.0404 O   0  0  0  0  0  0  0  0  0  0  0  0
   13.1073  -17.5306   25.1643 O   0  0  0  0  0  0  0  0  0  0  0  0
  2  1  1  1
  2  3  1  0
  3  4  1  0
  5  2  1  0
  5  7  1  0
  6  5  2  0
  8  7  1  0
  8 13  1  0
  8  9  1  1
 10  9  1  0
 10 11  1  0
 11 15  1  0
 11 12  2  0
 13 14  2  0
 13 19  1  0
 16 17  1  0
 18 17  1  6
 18 20  1  0
 19 18  1  0
 20 22  1  0
 21 20  2  0
M  END
$$$$
