CES.pdb
     RDKit          3D

 22 21  0  0  1  0  0  0  0  0999 V2000
    7.6945  -13.9077   17.6271 N   0  0  0  0  0  0  0  0  0  0  0  0
    8.8616  -13.5122   18.3463 C   0  0  1  0  0  0  0  0  0  0  0  0
    8.5385  -12.5650   19.4812 C   0  0  0  0  0  0  0  0  0  0  0  0
    7.4854  -13.4287   20.6845 S   0  0  0  0  0  0  0  0  0  0  0  0
    9.6303  -14.6815   18.8332 C   0  0  0  0  0  0  0  0  0  0  0  0
    9.0042  -15.7275   19.1101 O   0  0  0  0  0  0  0  0  0  0  0  0
   11.0382  -14.6245   18.9841 N   0  0  0  0  0  0  0  0  0  0  0  0
   11.8040  -15.6933   19.6452 C   0  0  1  0  0  0  0  0  0  0  0  0
   13.2181  -15.7169   19.1474 C   0  0  0  0  0  0  0  0  0  0  0  0
   14.0403  -16.8719   19.5828 C   0  0  0  0  0  0  0  0  0  0  0  0
   15.4368  -16.7116   19.0636 C   0  0  0  0  0  0  0  0  0  0  0  0
   16.2504  -15.9786   19.6786 O   0  0  0  0  0  0  0  0  0  0  0  0
   11.6599  -15.6135   21.1127 C   0  0  0  0  0  0  0  0  0  0  0  0
   11.7706  -14.5184   21.7161 O   0  0  0  0  0  0  0  0  0  0  0  0
   15.8954  -17.3406   17.9157 O   0  0  0  0  0  0  0  0  0  0  0  0
    9.4101  -18.2775   23.2078 O   0  0  0  0  0  0  0  0  0  0  0  0
    9.7942  -17.0885   23.7816 C   0  0  0  0  0  0  0  0  0  0  0  0
   11.1778  -16.6404   23.3686 C   0  0  2  0  0  0  0  0  0  0  0  0
   11.3912  -16.7370   21.9465 N   0  0  0  0  0  0  0  0  0  0  0  0
   12.1501  -17.4809   24.1111 C   0  0  0  0  0  0  0  0  0  0  0  0
   12.9094  -18.2240   23.4495 O   0  0  0  0  0  0  0  0  0  0  0  0
   12.2312  -17.4598   25.4789 O   0  0  0  0  0  0  0  0  0  0  0  0
  2  1  1  1
  2  3  1  0
  3  4  1  0
  5  2  1  0
  5  7  1  0
  6  5  2  0
  8  7  1  0
  8 13  1  0
  8  9  1  1
 10  9  1  0
 10 11  1  0
 11 15  1  0
 11 12  2  0
 13 14  2  0
 13 19  1  0
 16 17  1  0
 18 17  1  6
 18 20  1  0
 19 18  1  0
 20 22  1  0
 21 20  2  0
M  END
$$$$
