CES.pdb
     RDKit          3D

 22 21  0  0  1  0  0  0  0  0999 V2000
    7.3474  -13.6058   18.0462 N   0  0  0  0  0  0  0  0  0  0  0  0
    8.6368  -13.1642   18.4685 C   0  0  1  0  0  0  0  0  0  0  0  0
    8.5526  -12.0291   19.4655 C   0  0  0  0  0  0  0  0  0  0  0  0
    7.6580  -12.6069   20.9382 S   0  0  0  0  0  0  0  0  0  0  0  0
    9.4529  -14.2798   19.0020 C   0  0  0  0  0  0  0  0  0  0  0  0
    8.8597  -15.2648   19.4928 O   0  0  0  0  0  0  0  0  0  0  0  0
   10.8688  -14.2399   18.9609 N   0  0  0  0  0  0  0  0  0  0  0  0
   11.7038  -15.3303   19.4899 C   0  0  1  0  0  0  0  0  0  0  0  0
   13.0496  -15.3348   18.8289 C   0  0  0  0  0  0  0  0  0  0  0  0
   13.1173  -15.9871   17.4987 C   0  0  0  0  0  0  0  0  0  0  0  0
   14.5433  -16.0356   17.0409 C   0  0  0  0  0  0  0  0  0  0  0  0
   15.2439  -17.0479   17.2898 O   0  0  0  0  0  0  0  0  0  0  0  0
   11.7333  -15.3020   20.9659 C   0  0  0  0  0  0  0  0  0  0  0  0
   11.9801  -14.2406   21.5889 O   0  0  0  0  0  0  0  0  0  0  0  0
   15.1502  -15.0033   16.3413 O   0  0  0  0  0  0  0  0  0  0  0  0
    9.1296  -16.6531   23.3259 O   0  0  0  0  0  0  0  0  0  0  0  0
   10.3266  -17.0714   23.8573 C   0  0  0  0  0  0  0  0  0  0  0  0
   11.5296  -16.4067   23.2274 C   0  0  2  0  0  0  0  0  0  0  0  0
   11.4920  -16.4409   21.7870 N   0  0  0  0  0  0  0  0  0  0  0  0
   12.7348  -17.1014   23.7450 C   0  0  0  0  0  0  0  0  0  0  0  0
   13.4381  -17.7420   22.9317 O   0  0  0  0  0  0  0  0  0  0  0  0
   13.0857  -17.0562   25.0690 O   0  0  0  0  0  0  0  0  0  0  0  0
  2  1  1  1
  2  3  1  0
  3  4  1  0
  5  2  1  0
  5  7  1  0
  6  5  2  0
  8  7  1  0
  8 13  1  0
  8  9  1  6
 10  9  1  0
 10 11  1  0
 11 15  1  0
 11 12  2  0
 13 14  2  0
 13 19  1  0
 16 17  1  0
 18 17  1  1
 18 20  1  0
 19 18  1  0
 20 22  1  0
 21 20  2  0
M  END
$$$$
