CES.pdb
     RDKit          3D

 22 21  0  0  1  0  0  0  0  0999 V2000
    7.3940  -15.6251   19.0485 N   0  0  0  0  0  0  0  0  0  0  0  0
    8.5892  -15.0887   19.6138 C   0  0  1  0  0  0  0  0  0  0  0  0
    8.3731  -13.7126   20.2046 C   0  0  0  0  0  0  0  0  0  0  0  0
    7.8112  -12.5911   18.8896 S   0  0  0  0  0  0  0  0  0  0  0  0
    9.1860  -16.0070   20.6118 C   0  0  0  0  0  0  0  0  0  0  0  0
    8.4169  -16.6451   21.3630 O   0  0  0  0  0  0  0  0  0  0  0  0
   10.5903  -16.1641   20.7189 N   0  0  0  0  0  0  0  0  0  0  0  0
   11.2084  -17.0981   21.6736 C   0  0  1  0  0  0  0  0  0  0  0  0
   12.5063  -17.6225   21.1362 C   0  0  0  0  0  0  0  0  0  0  0  0
   13.2060  -18.6169   21.9854 C   0  0  0  0  0  0  0  0  0  0  0  0
   14.4908  -19.0170   21.3263 C   0  0  0  0  0  0  0  0  0  0  0  0
   15.2543  -19.8365   21.8945 O   0  0  0  0  0  0  0  0  0  0  0  0
   11.2872  -16.4983   23.0206 C   0  0  0  0  0  0  0  0  0  0  0  0
   11.8469  -15.3900   23.2048 O   0  0  0  0  0  0  0  0  0  0  0  0
   14.8968  -18.5235   20.0953 O   0  0  0  0  0  0  0  0  0  0  0  0
    8.3945  -16.5229   25.7456 O   0  0  0  0  0  0  0  0  0  0  0  0
    9.5261  -15.7469   25.8338 C   0  0  0  0  0  0  0  0  0  0  0  0
   10.7963  -16.4948   25.4975 C   0  0  2  0  0  0  0  0  0  0  0  0
   10.7519  -17.1057   24.1929 N   0  0  0  0  0  0  0  0  0  0  0  0
   10.9970  -17.5152   26.5566 C   0  0  0  0  0  0  0  0  0  0  0  0
   10.9470  -18.7215   26.2268 O   0  0  0  0  0  0  0  0  0  0  0  0
   11.2312  -17.1696   27.8619 O   0  0  0  0  0  0  0  0  0  0  0  0
  2  1  1  1
  2  3  1  0
  3  4  1  0
  5  2  1  0
  5  7  1  0
  6  5  2  0
  8  7  1  0
  8 13  1  0
  8  9  1  6
 10  9  1  0
 10 11  1  0
 11 15  1  0
 11 12  2  0
 13 14  2  0
 13 19  1  0
 16 17  1  0
 18 17  1  1
 18 20  1  0
 19 18  1  0
 20 22  1  0
 21 20  2  0
M  END
$$$$
