CES.pdb
     RDKit          3D

 22 21  0  0  1  0  0  0  0  0999 V2000
    6.9345  -15.0625   19.8910 N   0  0  0  0  0  0  0  0  0  0  0  0
    8.2575  -14.7501   20.3243 C   0  0  1  0  0  0  0  0  0  0  0  0
    8.2944  -13.5171   21.2006 C   0  0  0  0  0  0  0  0  0  0  0  0
    7.8658  -12.0673   20.1920 S   0  0  0  0  0  0  0  0  0  0  0  0
    8.9012  -15.9009   21.0000 C   0  0  0  0  0  0  0  0  0  0  0  0
    8.1782  -16.6822   21.6555 O   0  0  0  0  0  0  0  0  0  0  0  0
   10.2987  -16.1179   20.9109 N   0  0  0  0  0  0  0  0  0  0  0  0
   10.9417  -17.3368   21.4274 C   0  0  1  0  0  0  0  0  0  0  0  0
   12.0835  -17.7470   20.5464 C   0  0  0  0  0  0  0  0  0  0  0  0
   12.8057  -18.9777   20.9506 C   0  0  0  0  0  0  0  0  0  0  0  0
   13.9153  -19.2444   19.9796 C   0  0  0  0  0  0  0  0  0  0  0  0
   13.7737  -20.1278   19.0981 O   0  0  0  0  0  0  0  0  0  0  0  0
   11.2785  -17.1886   22.8574 C   0  0  0  0  0  0  0  0  0  0  0  0
   11.8459  -16.1541   23.2857 O   0  0  0  0  0  0  0  0  0  0  0  0
   15.1194  -18.5562   19.9971 O   0  0  0  0  0  0  0  0  0  0  0  0
   10.6632  -18.5516   27.4920 O   0  0  0  0  0  0  0  0  0  0  0  0
   10.3562  -18.6993   26.1600 C   0  0  0  0  0  0  0  0  0  0  0  0
   11.3505  -18.0332   25.2360 C   0  0  2  0  0  0  0  0  0  0  0  0
   10.9981  -18.1757   23.8458 N   0  0  0  0  0  0  0  0  0  0  0  0
   12.6780  -18.6364   25.5132 C   0  0  0  0  0  0  0  0  0  0  0  0
   13.2132  -19.3183   24.6104 O   0  0  0  0  0  0  0  0  0  0  0  0
   13.3163  -18.4650   26.7137 O   0  0  0  0  0  0  0  0  0  0  0  0
  2  1  1  1
  2  3  1  0
  3  4  1  0
  5  2  1  0
  5  7  1  0
  6  5  2  0
  8  7  1  0
  8 13  1  0
  8  9  1  6
 10  9  1  0
 10 11  1  0
 11 15  1  0
 11 12  2  0
 13 14  2  0
 13 19  1  0
 16 17  1  0
 18 17  1  1
 18 20  1  0
 19 18  1  0
 20 22  1  0
 21 20  2  0
M  END
$$$$
