THS.pdb
     RDKit          3D

 24 24  0  0  1  0  0  0  0  0999 V2000
   14.6870  -10.1483  -15.1716 C   0  0  0  0  0  0  0  0  0  0  0  0
   16.0722   -9.5440  -15.1009 C   0  0  1  0  0  0  0  0  0  0  0  0
   16.5104   -9.4069  -13.8032 O   0  0  0  0  0  0  0  0  0  0  0  0
   16.9970  -10.4183  -15.9052 C   0  0  2  0  0  0  0  0  0  0  0  0
   16.9981  -11.7530  -15.3646 N   0  0  0  0  0  0  0  0  0  0  0  0
   18.3724   -9.8567  -15.9980 C   0  0  0  0  0  0  0  0  0  0  0  0
   19.3256  -10.4751  -15.4790 O   0  0  0  0  0  0  0  0  0  0  0  0
   18.5356   -8.6263  -16.6827 N   0  0  0  0  0  0  0  0  0  0  0  0
   19.8879   -8.0573  -16.8622 C   0  0  1  0  0  0  0  0  0  0  0  0
   20.0758   -7.7324  -18.2900 C   0  0  0  0  0  0  0  0  0  0  0  0
   20.5434   -8.8250  -19.1555 C   0  0  0  0  0  0  0  0  0  0  0  0
   21.0503  -10.0468  -18.8443 C   0  0  0  0  0  0  0  0  0  0  0  0
   21.2681  -10.7193  -19.9826 N   0  0  0  0  0  0  0  0  0  0  0  0
   20.8995   -9.9248  -20.9859 C   0  0  0  0  0  0  0  0  0  0  0  0
   20.4526   -8.7620  -20.5136 N   0  0  0  0  0  0  0  0  0  0  0  0
   19.8704   -6.8580  -15.9802 C   0  0  0  0  0  0  0  0  0  0  0  0
   18.8399   -6.1786  -15.8833 O   0  0  0  0  0  0  0  0  0  0  0  0
   22.3165   -4.0334  -12.8709 O   0  0  0  0  0  0  0  0  0  0  0  0
   22.3049   -5.1234  -13.7303 C   0  0  0  0  0  0  0  0  0  0  0  0
   20.9622   -5.2598  -14.4223 C   0  0  2  0  0  0  0  0  0  0  0  0
   21.0308   -6.4783  -15.2412 N   0  0  0  0  0  0  0  0  0  0  0  0
   20.7612   -4.0870  -15.3189 C   0  0  0  0  0  0  0  0  0  0  0  0
   20.1194   -3.0825  -14.9137 O   0  0  0  0  0  0  0  0  0  0  0  0
   21.2934   -4.1307  -16.5955 O   0  0  0  0  0  0  0  0  0  0  0  0
  2  1  1  1
  2  4  1  0
  3  2  1  0
  4  5  1  1
  6  4  1  0
  7  6  2  0
  8  6  1  0
  9  8  1  0
  9 10  1  6
 10 11  1  0
 11 15  1  0
 11 12  2  0
 12 13  1  0
 14 13  1  0
 15 14  2  0
 16  9  1  0
 17 16  2  0
 18 19  1  0
 20 19  1  6
 20 22  1  0
 20 21  1  0
 21 16  1  0
 22 24  1  0
 23 22  2  0
M  END
$$$$
