THS.pdb
     RDKit          3D

 24 24  0  0  1  0  0  0  0  0999 V2000
   20.1038  -10.9414  -19.3743 C   0  0  0  0  0  0  0  0  0  0  0  0
   19.8762  -10.0992  -18.1382 C   0  0  1  0  0  0  0  0  0  0  0  0
   20.5905  -10.5644  -17.0573 O   0  0  0  0  0  0  0  0  0  0  0  0
   20.2475   -8.6795  -18.4741 C   0  0  2  0  0  0  0  0  0  0  0  0
   21.6784   -8.5641  -18.5872 N   0  0  0  0  0  0  0  0  0  0  0  0
   19.6874   -7.7005  -17.5026 C   0  0  0  0  0  0  0  0  0  0  0  0
   18.4577   -7.6859  -17.2839 O   0  0  0  0  0  0  0  0  0  0  0  0
   20.5930   -6.8176  -16.8624 N   0  0  0  0  0  0  0  0  0  0  0  0
   20.0935   -5.8425  -15.8703 C   0  0  1  0  0  0  0  0  0  0  0  0
   20.8083   -6.0592  -14.5968 C   0  0  0  0  0  0  0  0  0  0  0  0
   20.2827   -7.1168  -13.7211 C   0  0  0  0  0  0  0  0  0  0  0  0
   19.2889   -8.0214  -13.9226 C   0  0  0  0  0  0  0  0  0  0  0  0
   19.2253   -8.8281  -12.8546 N   0  0  0  0  0  0  0  0  0  0  0  0
   20.1685   -8.4292  -12.0032 C   0  0  0  0  0  0  0  0  0  0  0  0
   20.8311   -7.3872  -12.5034 N   0  0  0  0  0  0  0  0  0  0  0  0
   20.3976   -4.5297  -16.5032 C   0  0  0  0  0  0  0  0  0  0  0  0
   21.4560   -4.3761  -17.1270 O   0  0  0  0  0  0  0  0  0  0  0  0
   17.6108   -2.4758  -18.1544 O   0  0  0  0  0  0  0  0  0  0  0  0
   18.4392   -1.5796  -17.4929 C   0  0  0  0  0  0  0  0  0  0  0  0
   19.7750   -2.2151  -17.1575 C   0  0  2  0  0  0  0  0  0  0  0  0
   19.4818   -3.4400  -16.4001 N   0  0  0  0  0  0  0  0  0  0  0  0
   20.5466   -1.2835  -16.2878 C   0  0  0  0  0  0  0  0  0  0  0  0
   20.8138   -1.6013  -15.0993 O   0  0  0  0  0  0  0  0  0  0  0  0
   20.9573   -0.0721  -16.8157 O   0  0  0  0  0  0  0  0  0  0  0  0
  2  1  1  6
  2  4  1  0
  3  2  1  0
  4  5  1  1
  6  4  1  0
  7  6  2  0
  8  6  1  0
  9  8  1  0
  9 10  1  1
 10 11  1  0
 11 15  1  0
 11 12  2  0
 12 13  1  0
 14 13  1  0
 15 14  2  0
 16  9  1  0
 17 16  2  0
 18 19  1  0
 20 19  1  1
 20 22  1  0
 20 21  1  0
 21 16  1  0
 22 24  1  0
 23 22  2  0
M  END
$$$$
