THS.pdb
     RDKit          3D

 24 24  0  0  1  0  0  0  0  0999 V2000
   22.2311  -17.5483  -20.4522 C   0  0  0  0  0  0  0  0  0  0  0  0
   23.5197  -17.3667  -21.2239 C   0  0  1  0  0  0  0  0  0  0  0  0
   23.3882  -16.4473  -22.2399 O   0  0  0  0  0  0  0  0  0  0  0  0
   24.5880  -16.9572  -20.2453 C   0  0  2  0  0  0  0  0  0  0  0  0
   25.8344  -16.7603  -20.9391 N   0  0  0  0  0  0  0  0  0  0  0  0
   24.7266  -17.9207  -19.1191 C   0  0  0  0  0  0  0  0  0  0  0  0
   25.3525  -18.9872  -19.2957 O   0  0  0  0  0  0  0  0  0  0  0  0
   24.1312  -17.5743  -17.8802 N   0  0  0  0  0  0  0  0  0  0  0  0
   24.2454  -18.4912  -16.7266 C   0  0  1  0  0  0  0  0  0  0  0  0
   25.1364  -17.8759  -15.7232 C   0  0  0  0  0  0  0  0  0  0  0  0
   26.5754  -17.8943  -16.0243 C   0  0  0  0  0  0  0  0  0  0  0  0
   27.4765  -18.9105  -15.9821 C   0  0  0  0  0  0  0  0  0  0  0  0
   28.6581  -18.4493  -16.4139 N   0  0  0  0  0  0  0  0  0  0  0  0
   28.4908  -17.1642  -16.7209 C   0  0  0  0  0  0  0  0  0  0  0  0
   27.2306  -16.7960  -16.4945 N   0  0  0  0  0  0  0  0  0  0  0  0
   22.8375  -18.6282  -16.2623 C   0  0  0  0  0  0  0  0  0  0  0  0
   22.1153  -17.6261  -16.1787 O   0  0  0  0  0  0  0  0  0  0  0  0
   19.2100  -21.6353  -15.0878 O   0  0  0  0  0  0  0  0  0  0  0  0
   20.5327  -21.4552  -15.4686 C   0  0  0  0  0  0  0  0  0  0  0  0
   20.8912  -19.9822  -15.5194 C   0  0  2  0  0  0  0  0  0  0  0  0
   22.3059  -19.9051  -15.9103 N   0  0  0  0  0  0  0  0  0  0  0  0
   20.7353  -19.4015  -14.1563 C   0  0  0  0  0  0  0  0  0  0  0  0
   21.7064  -19.3962  -13.3551 O   0  0  0  0  0  0  0  0  0  0  0  0
   19.5073  -18.8735  -13.7981 O   0  0  0  0  0  0  0  0  0  0  0  0
  2  1  1  1
  2  4  1  0
  3  2  1  0
  4  5  1  6
  6  4  1  0
  7  6  2  0
  8  6  1  0
  9  8  1  0
  9 10  1  1
 10 11  1  0
 11 15  1  0
 11 12  2  0
 12 13  1  0
 14 13  1  0
 15 14  2  0
 16  9  1  0
 17 16  2  0
 18 19  1  0
 20 19  1  1
 20 22  1  0
 20 21  1  0
 21 16  1  0
 22 24  1  0
 23 22  2  0
M  END
$$$$
