THS.pdb
     RDKit          3D

 24 24  0  0  1  0  0  0  0  0999 V2000
   16.1731   -5.6021   -9.2392 C   0  0  0  0  0  0  0  0  0  0  0  0
   15.4613   -6.7954   -8.6405 C   0  0  1  0  0  0  0  0  0  0  0  0
   14.3358   -6.4269   -7.9387 O   0  0  0  0  0  0  0  0  0  0  0  0
   15.1257   -7.7414   -9.7625 C   0  0  2  0  0  0  0  0  0  0  0  0
   14.4774   -8.9135   -9.2339 N   0  0  0  0  0  0  0  0  0  0  0  0
   16.3152   -8.0900  -10.5868 C   0  0  0  0  0  0  0  0  0  0  0  0
   17.0629   -9.0227  -10.2242 O   0  0  0  0  0  0  0  0  0  0  0  0
   16.5449   -7.3332  -11.7633 N   0  0  0  0  0  0  0  0  0  0  0  0
   17.6294   -7.7224  -12.6890 C   0  0  1  0  0  0  0  0  0  0  0  0
   17.0261   -8.1494  -13.9670 C   0  0  0  0  0  0  0  0  0  0  0  0
   16.5924   -9.5517  -14.0517 C   0  0  0  0  0  0  0  0  0  0  0  0
   17.3144  -10.7027  -14.0715 C   0  0  0  0  0  0  0  0  0  0  0  0
   16.4638  -11.7379  -14.0867 N   0  0  0  0  0  0  0  0  0  0  0  0
   15.2308  -11.2346  -14.0751 C   0  0  0  0  0  0  0  0  0  0  0  0
   15.2760   -9.9033  -14.0533 N   0  0  0  0  0  0  0  0  0  0  0  0
   18.4391   -6.4784  -12.8038 C   0  0  0  0  0  0  0  0  0  0  0  0
   17.8761   -5.3760  -12.8286 O   0  0  0  0  0  0  0  0  0  0  0  0
   22.8457   -4.5400  -13.4845 O   0  0  0  0  0  0  0  0  0  0  0  0
   22.0672   -5.6526  -13.1967 C   0  0  0  0  0  0  0  0  0  0  0  0
   20.5948   -5.2917  -13.1477 C   0  0  2  0  0  0  0  0  0  0  0  0
   19.8626   -6.5390  -12.8863 N   0  0  0  0  0  0  0  0  0  0  0  0
   20.1844   -4.7615  -14.4782 C   0  0  0  0  0  0  0  0  0  0  0  0
   20.0622   -3.5211  -14.6554 O   0  0  0  0  0  0  0  0  0  0  0  0
   19.9438   -5.6594  -15.5032 O   0  0  0  0  0  0  0  0  0  0  0  0
  2  1  1  6
  2  4  1  0
  3  2  1  0
  4  5  1  1
  6  4  1  0
  7  6  2  0
  8  6  1  0
  9  8  1  0
  9 10  1  6
 10 11  1  0
 11 15  1  0
 11 12  2  0
 12 13  1  0
 14 13  1  0
 15 14  2  0
 16  9  1  0
 17 16  2  0
 18 19  1  0
 20 19  1  6
 20 22  1  0
 20 21  1  0
 21 16  1  0
 22 24  1  0
 23 22  2  0
M  END
$$$$
