THS.pdb
     RDKit          3D

 24 24  0  0  1  0  0  0  0  0999 V2000
   26.5568  -17.3205  -15.3921 C   0  0  0  0  0  0  0  0  0  0  0  0
   27.1144  -18.2907  -16.4103 C   0  0  1  0  0  0  0  0  0  0  0  0
   27.9181  -17.6636  -17.3354 O   0  0  0  0  0  0  0  0  0  0  0  0
   27.8656  -19.3603  -15.6632 C   0  0  2  0  0  0  0  0  0  0  0  0
   28.6475  -20.1415  -16.5862 N   0  0  0  0  0  0  0  0  0  0  0  0
   26.9680  -20.2133  -14.8368 C   0  0  0  0  0  0  0  0  0  0  0  0
   26.5415  -21.2904  -15.3039 O   0  0  0  0  0  0  0  0  0  0  0  0
   26.6358  -19.7530  -13.5378 N   0  0  0  0  0  0  0  0  0  0  0  0
   25.7924  -20.5860  -12.6550 C   0  0  1  0  0  0  0  0  0  0  0  0
   26.2548  -20.4139  -11.2636 C   0  0  0  0  0  0  0  0  0  0  0  0
   27.6156  -20.8817  -10.9617 C   0  0  0  0  0  0  0  0  0  0  0  0
   28.5576  -21.4437  -11.7638 C   0  0  0  0  0  0  0  0  0  0  0  0
   29.6705  -21.6356  -11.0427 N   0  0  0  0  0  0  0  0  0  0  0  0
   29.4215  -21.1967   -9.8102 C   0  0  0  0  0  0  0  0  0  0  0  0
   28.1762  -20.7303   -9.7291 N   0  0  0  0  0  0  0  0  0  0  0  0
   24.4230  -20.0527  -12.8933 C   0  0  0  0  0  0  0  0  0  0  0  0
   24.2760  -18.9601  -13.4568 O   0  0  0  0  0  0  0  0  0  0  0  0
   21.3302  -21.5111  -15.4721 O   0  0  0  0  0  0  0  0  0  0  0  0
   22.3891  -21.5417  -14.5750 C   0  0  0  0  0  0  0  0  0  0  0  0
   22.0742  -20.7350  -13.3298 C   0  0  2  0  0  0  0  0  0  0  0  0
   23.2714  -20.7868  -12.4789 N   0  0  0  0  0  0  0  0  0  0  0  0
   20.9424  -21.3831  -12.6096 C   0  0  0  0  0  0  0  0  0  0  0  0
   21.1143  -22.4801  -12.0161 O   0  0  0  0  0  0  0  0  0  0  0  0
   19.7099  -20.7538  -12.6105 O   0  0  0  0  0  0  0  0  0  0  0  0
  2  1  1  1
  2  4  1  0
  3  2  1  0
  4  5  1  6
  6  4  1  0
  7  6  2  0
  8  6  1  0
  9  8  1  0
  9 10  1  1
 10 11  1  0
 11 15  1  0
 11 12  2  0
 12 13  1  0
 14 13  1  0
 15 14  2  0
 16  9  1  0
 17 16  2  0
 18 19  1  0
 20 19  1  6
 20 22  1  0
 20 21  1  0
 21 16  1  0
 22 24  1  0
 23 22  2  0
M  END
$$$$
