THS.pdb
     RDKit          3D

 24 24  0  0  1  0  0  0  0  0999 V2000
   15.3616  -14.1845  -17.7222 C   0  0  0  0  0  0  0  0  0  0  0  0
   15.9565  -12.9981  -16.9959 C   0  0  1  0  0  0  0  0  0  0  0  0
   15.0851  -12.4683  -16.0713 O   0  0  0  0  0  0  0  0  0  0  0  0
   17.2383  -13.4504  -16.3488 C   0  0  2  0  0  0  0  0  0  0  0  0
   16.9674  -14.5272  -15.4318 N   0  0  0  0  0  0  0  0  0  0  0  0
   17.9682  -12.3323  -15.6908 C   0  0  0  0  0  0  0  0  0  0  0  0
   17.8316  -12.1469  -14.4631 O   0  0  0  0  0  0  0  0  0  0  0  0
   18.7967  -11.5189  -16.5041 N   0  0  0  0  0  0  0  0  0  0  0  0
   19.5331  -10.3864  -15.9044 C   0  0  1  0  0  0  0  0  0  0  0  0
   20.8944  -10.3557  -16.4750 C   0  0  0  0  0  0  0  0  0  0  0  0
   21.7327   -9.2040  -16.1108 C   0  0  0  0  0  0  0  0  0  0  0  0
   21.5113   -8.1886  -15.2354 C   0  0  0  0  0  0  0  0  0  0  0  0
   22.6039   -7.4140  -15.1976 N   0  0  0  0  0  0  0  0  0  0  0  0
   23.4912   -7.9435  -16.0377 C   0  0  0  0  0  0  0  0  0  0  0  0
   22.9894   -9.0369  -16.6101 N   0  0  0  0  0  0  0  0  0  0  0  0
   18.7068   -9.2071  -16.2824 C   0  0  0  0  0  0  0  0  0  0  0  0
   18.2290   -9.1286  -17.4219 O   0  0  0  0  0  0  0  0  0  0  0  0
   15.6387   -5.8564  -15.2778 O   0  0  0  0  0  0  0  0  0  0  0  0
   16.4300   -6.9467  -14.9431 C   0  0  0  0  0  0  0  0  0  0  0  0
   17.6821   -6.9962  -15.7977 C   0  0  2  0  0  0  0  0  0  0  0  0
   18.4567   -8.1604  -15.3451 N   0  0  0  0  0  0  0  0  0  0  0  0
   18.4802   -5.7619  -15.5544 C   0  0  0  0  0  0  0  0  0  0  0  0
   19.1995   -5.6651  -14.5256 O   0  0  0  0  0  0  0  0  0  0  0  0
   18.4105   -4.7353  -16.4797 O   0  0  0  0  0  0  0  0  0  0  0  0
  2  1  1  1
  2  4  1  0
  3  2  1  0
  4  5  1  1
  6  4  1  0
  7  6  2  0
  8  6  1  0
  9  8  1  0
  9 10  1  6
 10 11  1  0
 11 15  1  0
 11 12  2  0
 12 13  1  0
 14 13  1  0
 15 14  2  0
 16  9  1  0
 17 16  2  0
 18 19  1  0
 20 19  1  1
 20 22  1  0
 20 21  1  0
 21 16  1  0
 22 24  1  0
 23 22  2  0
M  END
$$$$
