THS.pdb
     RDKit          3D

 24 24  0  0  1  0  0  0  0  0999 V2000
   18.7542   -6.6470  -19.2853 C   0  0  0  0  0  0  0  0  0  0  0  0
   17.9450   -7.9090  -19.0819 C   0  0  1  0  0  0  0  0  0  0  0  0
   17.0761   -8.1393  -20.1244 O   0  0  0  0  0  0  0  0  0  0  0  0
   18.9102   -9.0510  -18.9068 C   0  0  2  0  0  0  0  0  0  0  0  0
   18.1877  -10.2954  -18.8524 N   0  0  0  0  0  0  0  0  0  0  0  0
   19.7945   -8.8712  -17.7229 C   0  0  0  0  0  0  0  0  0  0  0  0
   19.3065   -8.9379  -16.5749 O   0  0  0  0  0  0  0  0  0  0  0  0
   21.1708   -8.6290  -17.9607 N   0  0  0  0  0  0  0  0  0  0  0  0
   22.0847   -8.3956  -16.8227 C   0  0  1  0  0  0  0  0  0  0  0  0
   23.4401   -8.8336  -17.2106 C   0  0  0  0  0  0  0  0  0  0  0  0
   23.6831  -10.2836  -17.2218 C   0  0  0  0  0  0  0  0  0  0  0  0
   22.8670  -11.3212  -16.8993 C   0  0  0  0  0  0  0  0  0  0  0  0
   23.5206  -12.4663  -17.1379 N   0  0  0  0  0  0  0  0  0  0  0  0
   24.7255  -12.1422  -17.6036 C   0  0  0  0  0  0  0  0  0  0  0  0
   24.8550  -10.8177  -17.6667 N   0  0  0  0  0  0  0  0  0  0  0  0
   21.9790   -6.9275  -16.5993 C   0  0  0  0  0  0  0  0  0  0  0  0
   21.9542   -6.1564  -17.5676 O   0  0  0  0  0  0  0  0  0  0  0  0
   20.1534   -3.2208  -14.9634 O   0  0  0  0  0  0  0  0  0  0  0  0
   20.3532   -4.5690  -15.2272 C   0  0  0  0  0  0  0  0  0  0  0  0
   21.8217   -4.9344  -15.1241 C   0  0  2  0  0  0  0  0  0  0  0  0
   21.9057   -6.3937  -15.2777 N   0  0  0  0  0  0  0  0  0  0  0  0
   22.3163   -4.5630  -13.7687 C   0  0  0  0  0  0  0  0  0  0  0  0
   22.6414   -3.3730  -13.5172 O   0  0  0  0  0  0  0  0  0  0  0  0
   22.4077   -5.5506  -12.8037 O   0  0  0  0  0  0  0  0  0  0  0  0
  2  1  1  6
  2  4  1  0
  3  2  1  0
  4  5  1  1
  6  4  1  0
  7  6  2  0
  8  6  1  0
  9  8  1  0
  9 10  1  6
 10 11  1  0
 11 15  1  0
 11 12  2  0
 12 13  1  0
 14 13  1  0
 15 14  2  0
 16  9  1  0
 17 16  2  0
 18 19  1  0
 20 19  1  1
 20 22  1  0
 20 21  1  0
 21 16  1  0
 22 24  1  0
 23 22  2  0
M  END
$$$$
