THS.pdb
     RDKit          3D

 24 24  0  0  1  0  0  0  0  0999 V2000
   18.0843  -12.0227  -17.6764 C   0  0  0  0  0  0  0  0  0  0  0  0
   18.9201  -11.1204  -16.7953 C   0  0  1  0  0  0  0  0  0  0  0  0
   18.4844  -11.1256  -15.4896 O   0  0  0  0  0  0  0  0  0  0  0  0
   20.3520  -11.5733  -16.9000 C   0  0  2  0  0  0  0  0  0  0  0  0
   20.4590  -12.9490  -16.4882 N   0  0  0  0  0  0  0  0  0  0  0  0
   21.2832  -10.6936  -16.1417 C   0  0  0  0  0  0  0  0  0  0  0  0
   21.5791  -10.9822  -14.9630 O   0  0  0  0  0  0  0  0  0  0  0  0
   21.7972   -9.5519  -16.8063 N   0  0  0  0  0  0  0  0  0  0  0  0
   22.7766   -8.6810  -16.1231 C   0  0  1  0  0  0  0  0  0  0  0  0
   24.0480   -8.7250  -16.8722 C   0  0  0  0  0  0  0  0  0  0  0  0
   24.9132   -9.8885  -16.6286 C   0  0  0  0  0  0  0  0  0  0  0  0
   25.1720  -10.9770  -17.3998 C   0  0  0  0  0  0  0  0  0  0  0  0
   26.0849  -11.7333  -16.7751 N   0  0  0  0  0  0  0  0  0  0  0  0
   26.3886  -11.1204  -15.6324 C   0  0  0  0  0  0  0  0  0  0  0  0
   25.6905   -9.9918  -15.5143 N   0  0  0  0  0  0  0  0  0  0  0  0
   22.1196   -7.3454  -16.1513 C   0  0  0  0  0  0  0  0  0  0  0  0
   21.3800   -7.0416  -17.0966 O   0  0  0  0  0  0  0  0  0  0  0  0
   21.1120   -3.2161  -13.8367 O   0  0  0  0  0  0  0  0  0  0  0  0
   21.6230   -4.5067  -13.8197 C   0  0  0  0  0  0  0  0  0  0  0  0
   21.7150   -5.0768  -15.2222 C   0  0  2  0  0  0  0  0  0  0  0  0
   22.3315   -6.4052  -15.0986 N   0  0  0  0  0  0  0  0  0  0  0  0
   22.6063   -4.2057  -16.0386 C   0  0  0  0  0  0  0  0  0  0  0  0
   23.8545   -4.3663  -16.0033 O   0  0  0  0  0  0  0  0  0  0  0  0
   22.0315   -3.2256  -16.8285 O   0  0  0  0  0  0  0  0  0  0  0  0
  2  1  1  6
  2  4  1  0
  3  2  1  0
  4  5  1  1
  6  4  1  0
  7  6  2  0
  8  6  1  0
  9  8  1  0
  9 10  1  6
 10 11  1  0
 11 15  1  0
 11 12  2  0
 12 13  1  0
 14 13  1  0
 15 14  2  0
 16  9  1  0
 17 16  2  0
 18 19  1  0
 20 19  1  1
 20 22  1  0
 20 21  1  0
 21 16  1  0
 22 24  1  0
 23 22  2  0
M  END
$$$$
