THS.pdb
     RDKit          3D

 24 24  0  0  1  0  0  0  0  0999 V2000
   21.4596   -9.6111  -22.0338 C   0  0  0  0  0  0  0  0  0  0  0  0
   22.4873  -10.3487  -21.2039 C   0  0  1  0  0  0  0  0  0  0  0  0
   23.4655  -10.9229  -21.9838 O   0  0  0  0  0  0  0  0  0  0  0  0
   23.0711   -9.3708  -20.2194 C   0  0  2  0  0  0  0  0  0  0  0  0
   24.2972   -9.8978  -19.6783 N   0  0  0  0  0  0  0  0  0  0  0  0
   22.1069   -8.9990  -19.1479 C   0  0  0  0  0  0  0  0  0  0  0  0
   20.8877   -8.9366  -19.4123 O   0  0  0  0  0  0  0  0  0  0  0  0
   22.6290   -8.7296  -17.8578 N   0  0  0  0  0  0  0  0  0  0  0  0
   21.7130   -8.3860  -16.7499 C   0  0  1  0  0  0  0  0  0  0  0  0
   22.3038   -8.8663  -15.4851 C   0  0  0  0  0  0  0  0  0  0  0  0
   21.5551   -8.5668  -14.2557 C   0  0  0  0  0  0  0  0  0  0  0  0
   20.3321   -8.0017  -14.0787 C   0  0  0  0  0  0  0  0  0  0  0  0
   20.0488   -8.0025  -12.7691 N   0  0  0  0  0  0  0  0  0  0  0  0
   21.0825   -8.5623  -12.1431 C   0  0  0  0  0  0  0  0  0  0  0  0
   22.0176   -8.9175  -13.0230 N   0  0  0  0  0  0  0  0  0  0  0  0
   21.6215   -6.9024  -16.8340 C   0  0  0  0  0  0  0  0  0  0  0  0
   22.5911   -6.2465  -17.2369 O   0  0  0  0  0  0  0  0  0  0  0  0
   20.0339   -3.1473  -18.3567 O   0  0  0  0  0  0  0  0  0  0  0  0
   20.2487   -4.4957  -18.1070 C   0  0  0  0  0  0  0  0  0  0  0  0
   20.3773   -4.7625  -16.6194 C   0  0  2  0  0  0  0  0  0  0  0  0
   20.4256   -6.2222  -16.4546 N   0  0  0  0  0  0  0  0  0  0  0  0
   19.1647   -4.2393  -15.9298 C   0  0  0  0  0  0  0  0  0  0  0  0
   18.1215   -4.9410  -15.8631 O   0  0  0  0  0  0  0  0  0  0  0  0
   19.2152   -2.9746  -15.3704 O   0  0  0  0  0  0  0  0  0  0  0  0
  2  1  1  6
  2  4  1  0
  3  2  1  0
  4  5  1  1
  6  4  1  0
  7  6  2  0
  8  6  1  0
  9  8  1  0
  9 10  1  1
 10 11  1  0
 11 15  1  0
 11 12  2  0
 12 13  1  0
 14 13  1  0
 15 14  2  0
 16  9  1  0
 17 16  2  0
 18 19  1  0
 20 19  1  6
 20 22  1  0
 20 21  1  0
 21 16  1  0
 22 24  1  0
 23 22  2  0
M  END
$$$$
