THS.pdb
     RDKit          3D

 24 24  0  0  1  0  0  0  0  0999 V2000
   17.7421  -13.4194  -15.1384 C   0  0  0  0  0  0  0  0  0  0  0  0
   17.4883  -12.1205  -15.8716 C   0  0  1  0  0  0  0  0  0  0  0  0
   16.9447  -12.3290  -17.1190 O   0  0  0  0  0  0  0  0  0  0  0  0
   16.5862  -11.2758  -15.0118 C   0  0  2  0  0  0  0  0  0  0  0  0
   15.7962  -10.4051  -15.8433 N   0  0  0  0  0  0  0  0  0  0  0  0
   17.3368  -10.5190  -13.9726 C   0  0  0  0  0  0  0  0  0  0  0  0
   18.0793  -11.1352  -13.1792 O   0  0  0  0  0  0  0  0  0  0  0  0
   17.1691   -9.1120  -13.9339 N   0  0  0  0  0  0  0  0  0  0  0  0
   17.9436   -8.3045  -12.9682 C   0  0  1  0  0  0  0  0  0  0  0  0
   18.7361   -7.3088  -13.7165 C   0  0  0  0  0  0  0  0  0  0  0  0
   19.9964   -7.7827  -14.3069 C   0  0  0  0  0  0  0  0  0  0  0  0
   20.5692   -9.0149  -14.3012 C   0  0  0  0  0  0  0  0  0  0  0  0
   21.6883   -8.9669  -15.0366 N   0  0  0  0  0  0  0  0  0  0  0  0
   21.8063   -7.7214  -15.4932 C   0  0  0  0  0  0  0  0  0  0  0  0
   20.7891   -6.9748  -15.0655 N   0  0  0  0  0  0  0  0  0  0  0  0
   16.8882   -7.6974  -12.1114 C   0  0  0  0  0  0  0  0  0  0  0  0
   15.8433   -7.2765  -12.6250 O   0  0  0  0  0  0  0  0  0  0  0  0
   15.3166   -6.6965   -7.6365 O   0  0  0  0  0  0  0  0  0  0  0  0
   16.1916   -7.3685   -8.4790 C   0  0  0  0  0  0  0  0  0  0  0  0
   16.0170   -6.9213   -9.9178 C   0  0  2  0  0  0  0  0  0  0  0  0
   17.0651   -7.5930  -10.6991 N   0  0  0  0  0  0  0  0  0  0  0  0
   16.2284   -5.4485   -9.9932 C   0  0  0  0  0  0  0  0  0  0  0  0
   17.3680   -4.9850  -10.2608 O   0  0  0  0  0  0  0  0  0  0  0  0
   15.1500   -4.6122   -9.7638 O   0  0  0  0  0  0  0  0  0  0  0  0
  2  1  1  1
  2  4  1  0
  3  2  1  0
  4  5  1  6
  6  4  1  0
  7  6  2  0
  8  6  1  0
  9  8  1  0
  9 10  1  6
 10 11  1  0
 11 15  1  0
 11 12  2  0
 12 13  1  0
 14 13  1  0
 15 14  2  0
 16  9  1  0
 17 16  2  0
 18 19  1  0
 20 19  1  1
 20 22  1  0
 20 21  1  0
 21 16  1  0
 22 24  1  0
 23 22  2  0
M  END
$$$$
