THS.pdb
     RDKit          3D

 24 24  0  0  1  0  0  0  0  0999 V2000
   14.6998  -10.2834  -10.4895 C   0  0  0  0  0  0  0  0  0  0  0  0
   15.8937  -10.3773  -11.4140 C   0  0  1  0  0  0  0  0  0  0  0  0
   15.5428  -10.8264  -12.6670 O   0  0  0  0  0  0  0  0  0  0  0  0
   16.5352   -9.0167  -11.4762 C   0  0  2  0  0  0  0  0  0  0  0  0
   15.5767   -8.0471  -11.9396 N   0  0  0  0  0  0  0  0  0  0  0  0
   17.7741   -9.0097  -12.3015 C   0  0  0  0  0  0  0  0  0  0  0  0
   18.7553   -9.6948  -11.9436 O   0  0  0  0  0  0  0  0  0  0  0  0
   17.7793   -8.2121  -13.4733 N   0  0  0  0  0  0  0  0  0  0  0  0
   18.9233   -8.2821  -14.4065 C   0  0  1  0  0  0  0  0  0  0  0  0
   18.4404   -8.7919  -15.7051 C   0  0  0  0  0  0  0  0  0  0  0  0
   18.4052  -10.2531  -15.8644 C   0  0  0  0  0  0  0  0  0  0  0  0
   18.7302  -11.2470  -14.9967 C   0  0  0  0  0  0  0  0  0  0  0  0
   18.4634  -12.4239  -15.5790 N   0  0  0  0  0  0  0  0  0  0  0  0
   17.9780  -12.1623  -16.7912 C   0  0  0  0  0  0  0  0  0  0  0  0
   17.9297  -10.8466  -16.9950 N   0  0  0  0  0  0  0  0  0  0  0  0
   19.3996   -6.8728  -14.4646 C   0  0  0  0  0  0  0  0  0  0  0  0
   18.5873   -5.9537  -14.6328 O   0  0  0  0  0  0  0  0  0  0  0  0
   22.3325   -5.4738  -12.3847 O   0  0  0  0  0  0  0  0  0  0  0  0
   21.4671   -4.6379  -13.0770 C   0  0  0  0  0  0  0  0  0  0  0  0
   21.2019   -5.1627  -14.4753 C   0  0  2  0  0  0  0  0  0  0  0  0
   20.7865   -6.5647  -14.3286 N   0  0  0  0  0  0  0  0  0  0  0  0
   22.4699   -5.1146  -15.2561 C   0  0  0  0  0  0  0  0  0  0  0  0
   23.0476   -6.1815  -15.5922 O   0  0  0  0  0  0  0  0  0  0  0  0
   22.9902   -3.8789  -15.5984 O   0  0  0  0  0  0  0  0  0  0  0  0
  2  1  1  1
  2  4  1  0
  3  2  1  0
  4  5  1  6
  6  4  1  0
  7  6  2  0
  8  6  1  0
  9  8  1  0
  9 10  1  6
 10 11  1  0
 11 15  1  0
 11 12  2  0
 12 13  1  0
 14 13  1  0
 15 14  2  0
 16  9  1  0
 17 16  2  0
 18 19  1  0
 20 19  1  1
 20 22  1  0
 20 21  1  0
 21 16  1  0
 22 24  1  0
 23 22  2  0
M  END
$$$$
