THS.pdb
     RDKit          3D

 24 24  0  0  1  0  0  0  0  0999 V2000
   25.6129  -12.2857  -16.0958 C   0  0  0  0  0  0  0  0  0  0  0  0
   24.7083  -11.1283  -16.4582 C   0  0  1  0  0  0  0  0  0  0  0  0
   24.8766  -10.7308  -17.7653 O   0  0  0  0  0  0  0  0  0  0  0  0
   23.2890  -11.5524  -16.1898 C   0  0  2  0  0  0  0  0  0  0  0  0
   22.9479  -12.6713  -17.0295 N   0  0  0  0  0  0  0  0  0  0  0  0
   22.3223  -10.4305  -16.3414 C   0  0  0  0  0  0  0  0  0  0  0  0
   21.8124  -10.2049  -17.4592 O   0  0  0  0  0  0  0  0  0  0  0  0
   22.0230   -9.6601  -15.1898 N   0  0  0  0  0  0  0  0  0  0  0  0
   20.9914   -8.6039  -15.2583 C   0  0  1  0  0  0  0  0  0  0  0  0
   19.8394   -9.0173  -14.4328 C   0  0  0  0  0  0  0  0  0  0  0  0
   18.9147   -9.9883  -15.0359 C   0  0  0  0  0  0  0  0  0  0  0  0
   18.3075   -9.9965  -16.2515 C   0  0  0  0  0  0  0  0  0  0  0  0
   17.6083  -11.1334  -16.3699 N   0  0  0  0  0  0  0  0  0  0  0  0
   17.7814  -11.8212  -15.2427 C   0  0  0  0  0  0  0  0  0  0  0  0
   18.5739  -11.1490  -14.4090 N   0  0  0  0  0  0  0  0  0  0  0  0
   21.6983   -7.4053  -14.7291 C   0  0  0  0  0  0  0  0  0  0  0  0
   22.4708   -7.5191  -13.7682 O   0  0  0  0  0  0  0  0  0  0  0  0
   22.8122   -2.7269  -15.3880 O   0  0  0  0  0  0  0  0  0  0  0  0
   22.1439   -3.8671  -15.8128 C   0  0  0  0  0  0  0  0  0  0  0  0
   22.2937   -4.9944  -14.8092 C   0  0  2  0  0  0  0  0  0  0  0  0
   21.4969   -6.1203  -15.3165 N   0  0  0  0  0  0  0  0  0  0  0  0
   21.7290   -4.5541  -13.5026 C   0  0  0  0  0  0  0  0  0  0  0  0
   20.5338   -4.8178  -13.2080 O   0  0  0  0  0  0  0  0  0  0  0  0
   22.5450   -3.8548  -12.6308 O   0  0  0  0  0  0  0  0  0  0  0  0
  2  1  1  6
  2  4  1  0
  3  2  1  0
  4  5  1  6
  6  4  1  0
  7  6  2  0
  8  6  1  0
  9  8  1  0
  9 10  1  1
 10 11  1  0
 11 15  1  0
 11 12  2  0
 12 13  1  0
 14 13  1  0
 15 14  2  0
 16  9  1  0
 17 16  2  0
 18 19  1  0
 20 19  1  6
 20 22  1  0
 20 21  1  0
 21 16  1  0
 22 24  1  0
 23 22  2  0
M  END
$$$$
