THS.pdb
     RDKit          3D

 24 24  0  0  1  0  0  0  0  0999 V2000
   25.5090  -10.7423  -16.5511 C   0  0  0  0  0  0  0  0  0  0  0  0
   25.0302  -11.5006  -17.7695 C   0  0  1  0  0  0  0  0  0  0  0  0
   25.9051  -12.4992  -18.1333 O   0  0  0  0  0  0  0  0  0  0  0  0
   23.6634  -12.0511  -17.4609 C   0  0  2  0  0  0  0  0  0  0  0  0
   23.2434  -12.9333  -18.5188 N   0  0  0  0  0  0  0  0  0  0  0  0
   22.6636  -10.9787  -17.2037 C   0  0  0  0  0  0  0  0  0  0  0  0
   22.1069  -10.4127  -18.1681 O   0  0  0  0  0  0  0  0  0  0  0  0
   22.3877  -10.6468  -15.8534 N   0  0  0  0  0  0  0  0  0  0  0  0
   21.3402   -9.6527  -15.5389 C   0  0  1  0  0  0  0  0  0  0  0  0
   20.4022  -10.2493  -14.5674 C   0  0  0  0  0  0  0  0  0  0  0  0
   19.3710  -11.1429  -15.1148 C   0  0  0  0  0  0  0  0  0  0  0  0
   18.5916  -11.0234  -16.2215 C   0  0  0  0  0  0  0  0  0  0  0  0
   17.8497  -12.1327  -16.3410 N   0  0  0  0  0  0  0  0  0  0  0  0
   18.1665  -12.9298  -15.3222 C   0  0  0  0  0  0  0  0  0  0  0  0
   19.0922  -12.3541  -14.5563 N   0  0  0  0  0  0  0  0  0  0  0  0
   22.1150   -8.5078  -14.9863 C   0  0  0  0  0  0  0  0  0  0  0  0
   23.0062   -8.7118  -14.1514 O   0  0  0  0  0  0  0  0  0  0  0  0
   23.0479   -5.3812  -17.1919 O   0  0  0  0  0  0  0  0  0  0  0  0
   22.6297   -4.9700  -15.9337 C   0  0  0  0  0  0  0  0  0  0  0  0
   22.7288   -6.1009  -14.9279 C   0  0  2  0  0  0  0  0  0  0  0  0
   21.8433   -7.1715  -15.4073 N   0  0  0  0  0  0  0  0  0  0  0  0
   22.2312   -5.6177  -13.6094 C   0  0  0  0  0  0  0  0  0  0  0  0
   21.1117   -5.9982  -13.1767 O   0  0  0  0  0  0  0  0  0  0  0  0
   23.0239   -4.7486  -12.8806 O   0  0  0  0  0  0  0  0  0  0  0  0
  2  1  1  1
  2  4  1  0
  3  2  1  0
  4  5  1  6
  6  4  1  0
  7  6  2  0
  8  6  1  0
  9  8  1  0
  9 10  1  1
 10 11  1  0
 11 15  1  0
 11 12  2  0
 12 13  1  0
 14 13  1  0
 15 14  2  0
 16  9  1  0
 17 16  2  0
 18 19  1  0
 20 19  1  6
 20 22  1  0
 20 21  1  0
 21 16  1  0
 22 24  1  0
 23 22  2  0
M  END
$$$$
