THS.pdb
     RDKit          3D

 24 24  0  0  1  0  0  0  0  0999 V2000
   14.1294  -13.9855    5.6746 C   0  0  0  0  0  0  0  0  0  0  0  0
   15.5840  -13.9828    6.0909 C   0  0  1  0  0  0  0  0  0  0  0  0
   16.1522  -15.2327    5.9914 O   0  0  0  0  0  0  0  0  0  0  0  0
   16.3063  -12.9794    5.2319 C   0  0  2  0  0  0  0  0  0  0  0  0
   16.0786  -13.2753    3.8411 N   0  0  0  0  0  0  0  0  0  0  0  0
   17.7580  -12.8986    5.5510 C   0  0  0  0  0  0  0  0  0  0  0  0
   18.5834  -13.4743    4.8110 O   0  0  0  0  0  0  0  0  0  0  0  0
   18.1389  -12.1593    6.6990 N   0  0  0  0  0  0  0  0  0  0  0  0
   19.5626  -12.0879    7.0897 C   0  0  1  0  0  0  0  0  0  0  0  0
   19.8000  -10.7982    7.7678 C   0  0  0  0  0  0  0  0  0  0  0  0
   21.1933  -10.3319    7.8218 C   0  0  0  0  0  0  0  0  0  0  0  0
   22.3230  -10.8507    7.2731 C   0  0  0  0  0  0  0  0  0  0  0  0
   23.3444  -10.0269    7.5442 N   0  0  0  0  0  0  0  0  0  0  0  0
   22.8534   -9.0101    8.2504 C   0  0  0  0  0  0  0  0  0  0  0  0
   21.5435   -9.1672    8.4360 N   0  0  0  0  0  0  0  0  0  0  0  0
   19.7274  -13.2658    7.9850 C   0  0  0  0  0  0  0  0  0  0  0  0
   18.7490  -13.7211    8.5918 O   0  0  0  0  0  0  0  0  0  0  0  0
   21.2222  -16.7230    7.3113 O   0  0  0  0  0  0  0  0  0  0  0  0
   21.9491  -16.0779    8.3025 C   0  0  0  0  0  0  0  0  0  0  0  0
   21.0949  -15.0576    9.0305 C   0  0  2  0  0  0  0  0  0  0  0  0
   21.0041  -13.8807    8.1548 N   0  0  0  0  0  0  0  0  0  0  0  0
   21.7825  -14.6672   10.2932 C   0  0  0  0  0  0  0  0  0  0  0  0
   22.4058  -13.5756   10.3637 O   0  0  0  0  0  0  0  0  0  0  0  0
   21.7183  -15.5274   11.3752 O   0  0  0  0  0  0  0  0  0  0  0  0
  2  1  1  6
  2  4  1  0
  3  2  1  0
  4  5  1  6
  6  4  1  0
  7  6  2  0
  8  6  1  0
  9  8  1  0
  9 10  1  1
 10 11  1  0
 11 15  1  0
 11 12  2  0
 12 13  1  0
 14 13  1  0
 15 14  2  0
 16  9  1  0
 17 16  2  0
 18 19  1  0
 20 19  1  6
 20 22  1  0
 20 21  1  0
 21 16  1  0
 22 24  1  0
 23 22  2  0
M  END
$$$$
