CDK.pdb
     RDKit          3D

 24 23  0  0  1  0  0  0  0  0999 V2000
   23.6292  -12.2525  -18.8779 N   0  0  0  0  0  0  0  0  0  0  0  0
   22.9897  -10.9857  -19.1773 C   0  0  1  0  0  0  0  0  0  0  0  0
   21.9537  -11.2218  -20.2697 C   0  0  0  0  0  0  0  0  0  0  0  0
   22.6855  -11.1166  -21.9104 S   0  0  0  0  0  0  0  0  0  0  0  0
   22.3287  -10.4882  -17.9430 C   0  0  0  0  0  0  0  0  0  0  0  0
   21.8839  -11.2875  -17.0716 O   0  0  0  0  0  0  0  0  0  0  0  0
   22.1703   -9.0874  -17.6932 N   0  0  0  0  0  0  0  0  0  0  0  0
   21.5884   -8.6095  -16.4648 C   0  0  1  0  0  0  0  0  0  0  0  0
   22.1704   -7.3364  -15.9441 C   0  0  0  0  0  0  0  0  0  0  0  0
   21.5536   -6.9938  -14.6552 C   0  0  0  0  0  0  0  0  0  0  0  0
   21.5460   -5.8120  -14.2545 O   0  0  0  0  0  0  0  0  0  0  0  0
   20.1259   -8.3379  -16.7067 C   0  0  0  0  0  0  0  0  0  0  0  0
   19.7686   -7.6775  -17.6945 O   0  0  0  0  0  0  0  0  0  0  0  0
   20.9682   -7.9636  -13.8550 O   0  0  0  0  0  0  0  0  0  0  0  0
   19.1153   -8.8154  -15.8339 N   0  0  0  0  0  0  0  0  0  0  0  0
   17.7082   -8.5382  -16.0380 C   0  0  1  0  0  0  0  0  0  0  0  0
   16.8597   -9.7542  -15.7051 C   0  0  0  0  0  0  0  0  0  0  0  0
   15.4368   -9.5925  -16.0470 C   0  0  0  0  0  0  0  0  0  0  0  0
   14.6203  -10.7784  -15.6601 C   0  0  0  0  0  0  0  0  0  0  0  0
   13.1887  -10.7551  -16.0445 C   0  0  0  0  0  0  0  0  0  0  0  0
   12.3921  -11.8663  -15.6641 N   0  0  0  0  0  0  0  0  0  0  0  0
   17.2664   -7.3219  -15.3448 C   0  0  0  0  0  0  0  0  0  0  0  0
   17.9228   -6.7256  -14.2995 O   0  0  0  0  0  0  0  0  0  0  0  0
   16.1990   -6.7884  -15.7465 O   0  0  0  0  0  0  0  0  0  0  0  0
  2  1  1  1
  3  2  1  0
  4  3  1  0
  5  2  1  0
  5  6  2  0
  7  5  1  0
  8  7  1  0
  9 10  1  0
  8  9  1  6
 10 14  1  0
 10 11  2  0
 12  8  1  0
 13 12  2  0
 15 12  1  0
 16 15  1  0
 16 17  1  1
 17 18  1  0
 19 18  1  0
 20 19  1  0
 20 21  1  0
 22 16  1  0
 23 22  1  0
 24 22  2  0
M  END
$$$$
