CDK.pdb
     RDKit          3D

 24 23  0  0  1  0  0  0  0  0999 V2000
   16.7269   -9.9519  -12.5166 N   0  0  0  0  0  0  0  0  0  0  0  0
   17.1816   -9.8065  -13.8860 C   0  0  1  0  0  0  0  0  0  0  0  0
   15.9572   -9.6613  -14.7814 C   0  0  0  0  0  0  0  0  0  0  0  0
   14.9618  -11.1606  -14.7907 S   0  0  0  0  0  0  0  0  0  0  0  0
   18.0286   -8.5888  -13.9745 C   0  0  0  0  0  0  0  0  0  0  0  0
   17.7758   -7.5644  -13.2799 O   0  0  0  0  0  0  0  0  0  0  0  0
   19.1614   -8.5287  -14.8480 N   0  0  0  0  0  0  0  0  0  0  0  0
   19.9603   -7.3343  -14.9530 C   0  0  1  0  0  0  0  0  0  0  0  0
   21.3755   -7.5566  -15.3751 C   0  0  0  0  0  0  0  0  0  0  0  0
   22.0507   -8.4434  -14.4175 C   0  0  0  0  0  0  0  0  0  0  0  0
   22.0491   -8.1733  -13.1991 O   0  0  0  0  0  0  0  0  0  0  0  0
   19.3429   -6.4407  -15.9978 C   0  0  0  0  0  0  0  0  0  0  0  0
   18.7067   -6.9323  -16.9427 O   0  0  0  0  0  0  0  0  0  0  0  0
   22.7024   -9.5942  -14.8354 O   0  0  0  0  0  0  0  0  0  0  0  0
   19.4599   -5.0283  -15.9473 N   0  0  0  0  0  0  0  0  0  0  0  0
   18.5929   -4.1428  -16.6974 C   0  0  1  0  0  0  0  0  0  0  0  0
   17.1311   -4.4253  -16.3930 C   0  0  0  0  0  0  0  0  0  0  0  0
   16.2000   -3.4973  -17.0560 C   0  0  0  0  0  0  0  0  0  0  0  0
   14.8330   -4.0730  -17.2059 C   0  0  0  0  0  0  0  0  0  0  0  0
   13.8025   -3.1933  -17.8074 C   0  0  0  0  0  0  0  0  0  0  0  0
   12.4557   -3.6386  -17.7611 N   0  0  0  0  0  0  0  0  0  0  0  0
   18.9514   -2.7288  -16.5322 C   0  0  0  0  0  0  0  0  0  0  0  0
   19.0050   -1.8039  -17.5426 O   0  0  0  0  0  0  0  0  0  0  0  0
   19.2311   -2.3403  -15.3676 O   0  0  0  0  0  0  0  0  0  0  0  0
  2  1  1  1
  3  2  1  0
  4  3  1  0
  5  2  1  0
  5  6  2  0
  7  5  1  0
  8  7  1  0
  9 10  1  0
  8  9  1  6
 10 14  1  0
 10 11  2  0
 12  8  1  0
 13 12  2  0
 15 12  1  0
 16 15  1  0
 16 17  1  1
 17 18  1  0
 19 18  1  0
 20 19  1  0
 20 21  1  0
 22 16  1  0
 23 22  1  0
 24 22  2  0
M  END
$$$$
